=
 OpenBabel11042420563D

 46 51  0  0  1  0  0  0  0  0999 V2000
  162.1940  206.7700  152.0160 N   0  0  0  0  0  0  0  0  0  0  0  0
  160.9340  208.5960  152.8920 C   0  0  0  0  0  3  0  0  0  0  0  0
  161.7410  208.0470  151.8880 C   0  0  0  0  0  0  0  0  0  0  0  0
  160.5750  207.8210  153.9990 C   0  0  0  0  0  0  0  0  0  0  0  0
  161.8750  206.0000  153.0910 C   0  0  0  0  0  3  0  0  0  0  0  0
  161.0660  206.5140  154.1030 C   0  0  0  0  0  3  0  0  0  0  0  0
  159.6860  208.4260  155.0510 C   0  0  2  0  0  3  0  0  0  0  0  0
  160.7170  209.8000  156.9000 N   0  0  0  0  0  0  0  0  0  0  0  0
  161.4420  208.5580  157.1660 C   0  0  0  0  0  2  0  0  0  0  0  0
  160.1880  209.8100  155.5220 C   0  0  2  0  0  3  0  0  0  0  0  0
  160.4610  207.3920  157.2600 C   0  0  0  0  0  2  0  0  0  0  0  0
  159.3450  207.4840  156.2170 C   0  0  0  0  0  2  0  0  0  0  0  0
  158.2560  213.1220  155.8230 C   0  0  0  0  0  2  0  0  0  0  0  0
  157.5950  213.3090  154.4720 C   0  0  0  0  0  2  0  0  0  0  0  0
  159.0780  211.6550  154.1940 C   0  0  1  0  0  0  0  0  0  0  0  0
  159.4320  212.2380  155.5330 C   0  0  2  0  0  3  0  0  0  0  0  0
  160.1700  211.5550  153.3270 O   0  0  0  0  0  1  0  0  0  0  0  0
  158.9970  210.7700  155.4280 C   0  0  2  0  0  3  0  0  0  0  0  0
  157.8870  212.1900  153.6740 O   0  0  0  0  0  0  0  0  0  0  0  0
  161.6890  210.8820  157.0080 C   0  0  0  0  0  2  0  0  0  0  0  0
  162.9370  210.5830  156.1820 C   0  0  0  0  0  2  0  0  0  0  0  0
  164.2160  210.9070  156.9490 C   0  0  0  0  0  2  0  0  0  0  0  0
  165.7240  212.5320  157.1210 C   0  0  0  0  0  1  0  0  0  0  0  0
  165.0660  211.7210  156.1880 O   0  0  0  0  0  0  0  0  0  0  0  0
  162.2080  208.8570  150.7140 C   0  0  2  0  0  3  0  0  0  0  0  0
  162.1000  210.2270  150.9760 O   0  0  0  0  0  1  0  0  0  0  0  0
  161.5820  208.5000  149.3690 C   0  0  0  0  0  2  0  0  0  0  0  0
  162.6230  208.1030  148.3320 C   0  0  0  0  0  2  0  0  0  0  0  0
  163.1600  205.5640  147.2720 S   0  0  0  0  0  0  0  0  0  0  0  0
  160.8710  206.6050  147.1990 C   0  0  0  0  0  3  0  0  0  0  0  0
  161.8870  204.6880  146.6080 C   0  0  0  0  0  0  0  0  0  0  0  0
  162.0070  203.3550  146.1090 N   0  0  0  0  0  2  0  0  0  0  0  0
  160.7220  205.3740  146.6360 N   0  0  0  0  0  0  0  0  0  0  0  0
  162.1740  206.8850  147.6040 C   0  0  0  0  0  0  0  0  0  0  0  0
  160.8630  202.6480  145.5450 C   0  0  0  0  0  2  0  0  0  0  0  0
  160.5790  201.4000  146.3560 C   0  0  0  0  0  2  0  0  0  0  0  0
  161.3420  201.4300  147.6820 C   0  0  0  0  0  2  0  0  0  0  0  0
  160.4220  201.6750  148.8870 C   0  0  2  0  0  0  0  0  0  0  0  0
  160.9430  202.8780  149.7040 C   0  0  2  0  0  3  0  0  0  0  0  0
  160.3820  200.5100  149.7030 O   0  0  0  0  0  0  0  0  0  0  0  0
  161.1320  200.7610  150.8770 C   0  0  0  0  0  2  0  0  0  0  0  0
  159.1350  201.9160  148.3930 O   0  0  0  0  0  1  0  0  0  0  0  0
  162.1070  202.7380  151.7680 O   0  0  0  0  0  0  0  0  0  0  0  0
  161.4500  202.1960  150.8920 C   0  0  0  0  0  0  0  0  0  0  0  0
  160.3070  205.1850  149.9070 O   0  0  0  0  0  1  0  0  0  0  0  0
  159.8680  203.8790  150.1270 C   0  0  0  0  0  2  0  0  0  0  0  0
  1  5  1  0  0  0  0
  2  4  2  0  0  0  0
  3  1  2  0  0  0  0
  3  2  1  0  0  0  0
  4  6  1  0  0  0  0
  5  6  2  0  0  0  0
  7  4  1  6  0  0  0
  7 10  1  0  0  0  0
  7 12  1  0  0  0  0
  8 20  1  0  0  0  0
  8  9  1  0  0  0  0
  9 11  1  0  0  0  0
 10  8  1  1  0  0  0
 12 11  1  0  0  0  0
 14 13  1  0  0  0  0
 15 17  1  6  0  0  0
 15 18  1  0  0  0  0
 15 16  1  0  0  0  0
 16 13  1  1  0  0  0
 18 10  1  6  0  0  0
 18 16  1  0  0  0  0
 19 15  1  0  0  0  0
 19 14  1  0  0  0  0
 21 22  1  0  0  0  0
 21 20  1  0  0  0  0
 24 22  1  0  0  0  0
 24 23  1  0  0  0  0
 25 26  1  1  0  0  0
 25  3  1  0  0  0  0
 27 25  1  0  0  0  0
 28 27  1  0  0  0  0
 29 34  1  0  0  0  0
 30 34  2  0  0  0  0
 31 33  2  0  0  0  0
 31 29  1  0  0  0  0
 32 31  1  0  0  0  0
 33 30  1  0  0  0  0
 34 28  1  0  0  0  0
 35 32  1  0  0  0  0
 35 36  1  0  0  0  0
 36 37  1  0  0  0  0
 37 38  1  0  0  0  0
 38 42  1  6  0  0  0
 38 40  1  0  0  0  0
 38 39  1  0  0  0  0
 39 46  1  1  0  0  0
 39 44  1  0  0  0  0
 40 41  1  0  0  0  0
 41 44  1  0  0  0  0
 44 43  2  0  0  0  0
 45 46  1  0  0  0  0
M  END
>  <MODEL>
1

>  <REMARK>
 VINA RESULT:      -5.4      0.000      0.000
  Name = 
  15 active torsions:
  status: ('A' for Active; 'I' for Inactive)
    1  A    between atoms: C_1  and  C_39
    2  A    between atoms: N_2  and  C_25
    3  A    between atoms: C_9  and  C_23
    4  A    between atoms: C_11  and  C_34
    5  A    between atoms: C_12  and  C_21
    6  A    between atoms: C_12  and  C_40
    7  A    between atoms: C_16  and  C_29
    8  A    between atoms: O_17  and  C_41
    9  A    between atoms: N_18  and  C_33
   10  A    between atoms: C_23  and  C_32
   11  A    between atoms: C_25  and  C_42
   12  A    between atoms: C_32  and  C_33
   13  A    between atoms: C_35  and  C_40
   14  A    between atoms: C_35  and  C_45
   15  A    between atoms: C_41  and  C_42
                            x       y       z     vdW  Elec       q    Type
                         _______ _______ _______ _____ _____    ______ ____

>  <TORSDO>
F 15

$$$$
=
 OpenBabel11042420563D

 46 51  0  0  1  0  0  0  0  0999 V2000
  161.7660  209.2390  151.0910 N   0  0  0  0  0  0  0  0  0  0  0  0
  160.5200  210.8220  152.3680 C   0  0  0  0  0  3  0  0  0  0  0  0
  161.0830  209.5480  152.2270 C   0  0  0  0  0  0  0  0  0  0  0  0
  160.6900  211.7740  151.3590 C   0  0  0  0  0  0  0  0  0  0  0  0
  161.9300  210.1400  150.0860 C   0  0  0  0  0  3  0  0  0  0  0  0
  161.3900  211.4200  150.1990 C   0  0  0  0  0  3  0  0  0  0  0  0
  160.0960  213.1440  151.5460 C   0  0  2  0  0  3  0  0  0  0  0  0
  158.2020  213.8860  150.0530 N   0  0  0  0  0  0  0  0  0  0  0  0
  159.1840  213.6410  148.9980 C   0  0  0  0  0  2  0  0  0  0  0  0
  158.5730  213.1660  151.2880 C   0  0  2  0  0  3  0  0  0  0  0  0
  160.4920  214.3560  149.3270 C   0  0  0  0  0  2  0  0  0  0  0  0
  160.8450  214.2690  150.8140 C   0  0  0  0  0  2  0  0  0  0  0  0
  155.7530  214.3260  153.6320 C   0  0  0  0  0  2  0  0  0  0  0  0
  156.1940  213.8880  155.0140 C   0  0  0  0  0  2  0  0  0  0  0  0
  157.5640  212.8430  153.5860 C   0  0  1  0  0  0  0  0  0  0  0  0
  156.4750  213.3930  152.7070 C   0  0  2  0  0  3  0  0  0  0  0  0
  157.7990  211.4800  153.3890 O   0  0  0  0  0  1  0  0  0  0  0  0
  157.9270  213.8450  152.5000 C   0  0  2  0  0  3  0  0  0  0  0  0
  157.4650  213.2990  154.9120 O   0  0  0  0  0  0  0  0  0  0  0  0
  156.9370  213.3320  149.5820 C   0  0  0  0  0  2  0  0  0  0  0  0
  156.2430  214.2900  148.6170 C   0  0  0  0  0  2  0  0  0  0  0  0
  157.0270  214.4530  147.3190 C   0  0  0  0  0  2  0  0  0  0  0  0
  157.2140  212.5810  146.1340 C   0  0  0  0  0  1  0  0  0  0  0  0
  156.4290  213.7310  146.2770 O   0  0  0  0  0  0  0  0  0  0  0  0
  160.8740  208.4700  153.2510 C   0  0  2  0  0  3  0  0  0  0  0  0
  160.8130  209.0090  154.5400 O   0  0  0  0  0  1  0  0  0  0  0  0
  161.8480  207.2960  153.1880 C   0  0  0  0  0  2  0  0  0  0  0  0
  161.1930  205.9790  153.5800 C   0  0  0  0  0  2  0  0  0  0  0  0
  160.7100  203.4480  152.4750 S   0  0  0  0  0  0  0  0  0  0  0  0
  161.2570  205.4590  151.0660 C   0  0  0  0  0  3  0  0  0  0  0  0
  160.7410  203.2870  150.8010 C   0  0  0  0  0  0  0  0  0  0  0  0
  160.4330  202.0760  150.1080 N   0  0  0  0  0  2  0  0  0  0  0  0
  161.0500  204.4470  150.1790 N   0  0  0  0  0  0  0  0  0  0  0  0
  161.1200  205.0780  152.3980 C   0  0  0  0  0  0  0  0  0  0  0  0
  160.4770  202.0010  148.6520 C   0  0  0  0  0  2  0  0  0  0  0  0
  161.6230  202.8410  148.1280 C   0  0  0  0  0  2  0  0  0  0  0  0
  161.5560  202.9560  146.6030 C   0  0  0  0  0  2  0  0  0  0  0  0
  162.1480  204.2740  146.0840 C   0  0  2  0  0  0  0  0  0  0  0  0
  161.2700  205.4580  146.5470 C   0  0  2  0  0  3  0  0  0  0  0  0
  162.2150  204.2420  144.6630 O   0  0  0  0  0  0  0  0  0  0  0  0
  161.2050  205.0900  144.1480 C   0  0  0  0  0  2  0  0  0  0  0  0
  163.4490  204.3800  146.5890 O   0  0  0  0  0  1  0  0  0  0  0  0
  159.7420  206.6530  145.1790 O   0  0  0  0  0  0  0  0  0  0  0  0
  160.6510  205.8430  145.2810 C   0  0  0  0  0  0  0  0  0  0  0  0
  161.4320  207.1310  148.2620 O   0  0  0  0  0  1  0  0  0  0  0  0
  162.0460  206.6510  147.1040 C   0  0  0  0  0  2  0  0  0  0  0  0
  1  3  1  0  0  0  0
  3  2  2  0  0  0  0
  3 25  1  0  0  0  0
  4  2  1  0  0  0  0
  5  6  1  0  0  0  0
  5  1  2  0  0  0  0
  6  4  2  0  0  0  0
  7  4  1  6  0  0  0
  9 11  1  0  0  0  0
  9  8  1  0  0  0  0
 10  8  1  6  0  0  0
 10  7  1  0  0  0  0
 11 12  1  0  0  0  0
 12  7  1  0  0  0  0
 13 14  1  0  0  0  0
 15 17  1  6  0  0  0
 15 19  1  0  0  0  0
 16 15  1  0  0  0  0
 16 13  1  1  0  0  0
 18 10  1  6  0  0  0
 18 16  1  0  0  0  0
 18 15  1  0  0  0  0
 19 14  1  0  0  0  0
 20  8  1  0  0  0  0
 21 20  1  0  0  0  0
 22 21  1  0  0  0  0
 23 24  1  0  0  0  0
 24 22  1  0  0  0  0
 25 26  1  1  0  0  0
 27 25  1  0  0  0  0
 27 28  1  0  0  0  0
 30 34  2  0  0  0  0
 31 29  1  0  0  0  0
 32 31  1  0  0  0  0
 33 31  2  0  0  0  0
 33 30  1  0  0  0  0
 34 29  1  0  0  0  0
 34 28  1  0  0  0  0
 35 32  1  0  0  0  0
 36 35  1  0  0  0  0
 37 36  1  0  0  0  0
 38 39  1  0  0  0  0
 38 42  1  1  0  0  0
 38 37  1  0  0  0  0
 39 46  1  6  0  0  0
 40 38  1  0  0  0  0
 41 40  1  0  0  0  0
 41 44  1  0  0  0  0
 43 44  2  0  0  0  0
 44 39  1  0  0  0  0
 46 45  1  0  0  0  0
M  END
>  <MODEL>
2

>  <REMARK>
 VINA RESULT:      -4.8      3.723      6.353
  Name = 
  15 active torsions:
  status: ('A' for Active; 'I' for Inactive)
    1  A    between atoms: C_1  and  C_39
    2  A    between atoms: N_2  and  C_25
    3  A    between atoms: C_9  and  C_23
    4  A    between atoms: C_11  and  C_34
    5  A    between atoms: C_12  and  C_21
    6  A    between atoms: C_12  and  C_40
    7  A    between atoms: C_16  and  C_29
    8  A    between atoms: O_17  and  C_41
    9  A    between atoms: N_18  and  C_33
   10  A    between atoms: C_23  and  C_32
   11  A    between atoms: C_25  and  C_42
   12  A    between atoms: C_32  and  C_33
   13  A    between atoms: C_35  and  C_40
   14  A    between atoms: C_35  and  C_45
   15  A    between atoms: C_41  and  C_42
                            x       y       z     vdW  Elec       q    Type
                         _______ _______ _______ _____ _____    ______ ____

>  <TORSDO>
F 15

$$$$
=
 OpenBabel11042420563D

 46 51  0  0  1  0  0  0  0  0999 V2000
  162.1090  207.0830  153.3330 N   0  0  0  0  0  0  0  0  0  0  0  0
  160.9810  207.5560  151.2850 C   0  0  0  0  0  3  0  0  0  0  0  0
  161.5150  207.9860  152.5050 C   0  0  0  0  0  0  0  0  0  0  0  0
  161.0890  206.2130  150.9120 C   0  0  0  0  0  0  0  0  0  0  0  0
  162.2110  205.7680  153.0030 C   0  0  0  0  0  3  0  0  0  0  0  0
  161.6970  205.3090  151.7910 C   0  0  0  0  0  3  0  0  0  0  0  0
  160.5290  205.7800  149.5840 C   0  0  2  0  0  3  0  0  0  0  0  0
  162.0820  205.5190  147.6120 N   0  0  0  0  0  0  0  0  0  0  0  0
  162.3550  206.9320  147.8780 C   0  0  0  0  0  2  0  0  0  0  0  0
  161.5020  204.8680  148.8040 C   0  0  2  0  0  3  0  0  0  0  0  0
  161.0440  207.7060  147.9790 C   0  0  0  0  0  2  0  0  0  0  0  0
  159.9620  206.9230  148.7280 C   0  0  0  0  0  2  0  0  0  0  0  0
  160.9050  201.2950  147.5130 C   0  0  0  0  0  2  0  0  0  0  0  0
  159.9710  200.6670  148.5290 C   0  0  0  0  0  2  0  0  0  0  0  0
  160.6990  202.5630  149.4690 C   0  0  1  0  0  0  0  0  0  0  0  0
  161.5970  202.3810  148.2790 C   0  0  2  0  0  3  0  0  0  0  0  0
  161.3960  202.7720  150.6630 O   0  0  0  0  0  1  0  0  0  0  0  0
  160.7070  203.6270  148.3830 C   0  0  2  0  0  3  0  0  0  0  0  0
  159.6430  201.6360  149.4910 O   0  0  0  0  0  0  0  0  0  0  0  0
  163.3710  204.8880  147.3470 C   0  0  0  0  0  2  0  0  0  0  0  0
  163.5150  204.5320  145.8700 C   0  0  0  0  0  2  0  0  0  0  0  0
  162.1580  204.3550  145.1950 C   0  0  0  0  0  2  0  0  0  0  0  0
  160.4710  205.7510  144.8070 C   0  0  0  0  0  1  0  0  0  0  0  0
  161.8060  205.5010  144.4680 O   0  0  0  0  0  0  0  0  0  0  0  0
  161.3670  209.4020  152.9800 C   0  0  2  0  0  3  0  0  0  0  0  0
  161.4550  209.4750  154.3740 O   0  0  0  0  0  1  0  0  0  0  0  0
  160.1420  210.1520  152.4630 C   0  0  0  0  0  2  0  0  0  0  0  0
  160.3050  211.6630  152.5580 C   0  0  0  0  0  2  0  0  0  0  0  0
  161.5480  211.5120  150.0500 S   0  0  0  0  0  0  0  0  0  0  0  0
  159.9420  213.3510  150.6570 C   0  0  0  0  0  3  0  0  0  0  0  0
  161.1620  212.6720  148.8940 C   0  0  0  0  0  0  0  0  0  0  0  0
  161.6610  212.6640  147.5560 N   0  0  0  0  0  2  0  0  0  0  0  0
  160.2910  213.5940  149.3630 N   0  0  0  0  0  0  0  0  0  0  0  0
  160.5590  212.2300  151.2060 C   0  0  0  0  0  0  0  0  0  0  0  0
  161.2870  213.6990  146.5990 C   0  0  0  0  0  2  0  0  0  0  0  0
  161.6280  213.2480  145.1940 C   0  0  0  0  0  2  0  0  0  0  0  0
  160.7460  213.9610  144.1670 C   0  0  0  0  0  2  0  0  0  0  0  0
  160.1170  212.9920  143.1550 C   0  0  2  0  0  0  0  0  0  0  0  0
  161.0330  212.8660  141.9170 C   0  0  2  0  0  3  0  0  0  0  0  0
  158.8340  213.4690  142.7680 O   0  0  0  0  0  0  0  0  0  0  0  0
  158.9250  213.9760  141.4490 C   0  0  0  0  0  2  0  0  0  0  0  0
  159.9580  211.7570  143.7950 O   0  0  0  0  0  1  0  0  0  0  0  0
  160.6460  213.8910  139.8110 O   0  0  0  0  0  0  0  0  0  0  0  0
  160.2430  213.5910  140.9250 C   0  0  0  0  0  0  0  0  0  0  0  0
  160.2290  211.0560  140.5600 O   0  0  0  0  0  1  0  0  0  0  0  0
  161.2540  211.4350  141.4270 C   0  0  0  0  0  2  0  0  0  0  0  0
  2  3  1  0  0  0  0
  3 25  1  0  0  0  0
  3  1  2  0  0  0  0
  4  2  2  0  0  0  0
  4  6  1  0  0  0  0
  5  1  1  0  0  0  0
  6  5  2  0  0  0  0
  7  4  1  1  0  0  0
  8  9  1  0  0  0  0
  9 11  1  0  0  0  0
 10  8  1  6  0  0  0
 10  7  1  0  0  0  0
 11 12  1  0  0  0  0
 12  7  1  0  0  0  0
 13 14  1  0  0  0  0
 14 19  1  0  0  0  0
 15 19  1  0  0  0  0
 15 17  1  1  0  0  0
 16 13  1  6  0  0  0
 16 18  1  0  0  0  0
 16 15  1  0  0  0  0
 18 10  1  1  0  0  0
 18 15  1  0  0  0  0
 20  8  1  0  0  0  0
 21 20  1  0  0  0  0
 22 21  1  0  0  0  0
 24 23  1  0  0  0  0
 24 22  1  0  0  0  0
 25 26  1  1  0  0  0
 27 28  1  0  0  0  0
 27 25  1  0  0  0  0
 29 34  1  0  0  0  0
 30 34  2  0  0  0  0
 31 33  2  0  0  0  0
 31 29  1  0  0  0  0
 32 31  1  0  0  0  0
 33 30  1  0  0  0  0
 34 28  1  0  0  0  0
 35 32  1  0  0  0  0
 36 35  1  0  0  0  0
 37 36  1  0  0  0  0
 38 42  1  1  0  0  0
 38 37  1  0  0  0  0
 39 46  1  6  0  0  0
 39 38  1  0  0  0  0
 40 38  1  0  0  0  0
 41 40  1  0  0  0  0
 43 44  2  0  0  0  0
 44 41  1  0  0  0  0
 44 39  1  0  0  0  0
 45 46  1  0  0  0  0
M  END
>  <MODEL>
3

>  <REMARK>
 VINA RESULT:      -4.8      5.084     10.339
  Name = 
  15 active torsions:
  status: ('A' for Active; 'I' for Inactive)
    1  A    between atoms: C_1  and  C_39
    2  A    between atoms: N_2  and  C_25
    3  A    between atoms: C_9  and  C_23
    4  A    between atoms: C_11  and  C_34
    5  A    between atoms: C_12  and  C_21
    6  A    between atoms: C_12  and  C_40
    7  A    between atoms: C_16  and  C_29
    8  A    between atoms: O_17  and  C_41
    9  A    between atoms: N_18  and  C_33
   10  A    between atoms: C_23  and  C_32
   11  A    between atoms: C_25  and  C_42
   12  A    between atoms: C_32  and  C_33
   13  A    between atoms: C_35  and  C_40
   14  A    between atoms: C_35  and  C_45
   15  A    between atoms: C_41  and  C_42
                            x       y       z     vdW  Elec       q    Type
                         _______ _______ _______ _____ _____    ______ ____

>  <TORSDO>
F 15

$$$$
=
 OpenBabel11042420563D

 46 51  0  0  1  0  0  0  0  0999 V2000
  160.9890  207.9120  138.8800 N   0  0  0  0  0  0  0  0  0  0  0  0
  162.0460  209.5630  140.2390 C   0  0  0  0  0  3  0  0  0  0  0  0
  161.8070  208.2200  139.9230 C   0  0  0  0  0  0  0  0  0  0  0  0
  161.4700  210.5730  139.4630 C   0  0  0  0  0  0  0  0  0  0  0  0
  160.4020  208.8750  138.1200 C   0  0  0  0  0  3  0  0  0  0  0  0
  160.6260  210.2210  138.4030 C   0  0  0  0  0  3  0  0  0  0  0  0
  161.7630  212.0090  139.8070 C   0  0  2  0  0  3  0  0  0  0  0  0
  159.9980  213.7650  139.3960 N   0  0  0  0  0  0  0  0  0  0  0  0
  160.1160  213.2930  138.0160 C   0  0  0  0  0  2  0  0  0  0  0  0
  160.5170  212.7530  140.3380 C   0  0  2  0  0  3  0  0  0  0  0  0
  161.5830  213.2800  137.5930 C   0  0  0  0  0  2  0  0  0  0  0  0
  162.5070  212.7890  138.7120 C   0  0  0  0  0  2  0  0  0  0  0  0
  160.0630  214.4530  143.7580 C   0  0  0  0  0  2  0  0  0  0  0  0
  160.9840  213.6940  144.6930 C   0  0  0  0  0  2  0  0  0  0  0  0
  160.8730  212.4640  142.8260 C   0  0  1  0  0  0  0  0  0  0  0  0
  159.7730  213.4740  142.6600 C   0  0  2  0  0  3  0  0  0  0  0  0
  160.4480  211.1460  142.6340 O   0  0  0  0  0  1  0  0  0  0  0  0
  160.9280  213.4280  141.6510 C   0  0  2  0  0  3  0  0  0  0  0  0
  161.6790  212.7270  143.9470 O   0  0  0  0  0  0  0  0  0  0  0  0
  158.5720  213.9250  139.6600 C   0  0  0  0  0  2  0  0  0  0  0  0
  157.8490  212.5820  139.6060 C   0  0  0  0  0  2  0  0  0  0  0  0
  156.5520  212.6680  138.8070 C   0  0  0  0  0  2  0  0  0  0  0  0
  156.8720  210.5600  138.1760 C   0  0  0  0  0  1  0  0  0  0  0  0
  156.6030  211.8400  137.6770 O   0  0  0  0  0  0  0  0  0  0  0  0
  162.3470  207.1000  140.7640 C   0  0  2  0  0  3  0  0  0  0  0  0
  162.4500  205.9200  140.0200 O   0  0  0  0  0  1  0  0  0  0  0  0
  161.6290  206.8570  142.0890 C   0  0  0  0  0  2  0  0  0  0  0  0
  161.9430  205.4880  142.6760 C   0  0  0  0  0  2  0  0  0  0  0  0
  162.2710  204.4950  145.2770 S   0  0  0  0  0  0  0  0  0  0  0  0
  160.5530  206.2400  144.7000 C   0  0  0  0  0  3  0  0  0  0  0  0
  161.3110  205.1320  146.5030 C   0  0  0  0  0  0  0  0  0  0  0  0
  161.4330  204.7740  147.8810 N   0  0  0  0  0  2  0  0  0  0  0  0
  160.4360  206.0550  146.0440 N   0  0  0  0  0  0  0  0  0  0  0  0
  161.5240  205.4410  144.1030 C   0  0  0  0  0  0  0  0  0  0  0  0
  160.5700  205.3630  148.8980 C   0  0  0  0  0  2  0  0  0  0  0  0
  161.4000  205.7920  150.0910 C   0  0  0  0  0  2  0  0  0  0  0  0
  160.9440  207.1590  150.6040 C   0  0  0  0  0  2  0  0  0  0  0  0
  161.7790  207.6510  151.7960 C   0  0  2  0  0  0  0  0  0  0  0  0
  160.8430  208.0500  152.9590 C   0  0  2  0  0  3  0  0  0  0  0  0
  162.5700  208.7650  151.3990 O   0  0  0  0  0  0  0  0  0  0  0  0
  162.0110  209.9340  151.9690 C   0  0  0  0  0  2  0  0  0  0  0  0
  162.6360  206.6080  152.1700 O   0  0  0  0  0  1  0  0  0  0  0  0
  160.2980  210.2740  153.5820 O   0  0  0  0  0  0  0  0  0  0  0  0
  160.9860  209.5030  152.9290 C   0  0  0  0  0  0  0  0  0  0  0  0
  160.2000  206.9180  154.9760 O   0  0  0  0  0  1  0  0  0  0  0  0
  161.2730  207.5360  154.3320 C   0  0  0  0  0  2  0  0  0  0  0  0
  1  3  1  0  0  0  0
  3  2  2  0  0  0  0
  3 25  1  0  0  0  0
  4  2  1  0  0  0  0
  5  6  1  0  0  0  0
  5  1  2  0  0  0  0
  6  4  2  0  0  0  0
  7  4  1  6  0  0  0
  7 10  1  0  0  0  0
  8 20  1  0  0  0  0
  9  8  1  0  0  0  0
 10  8  1  6  0  0  0
 11  9  1  0  0  0  0
 11 12  1  0  0  0  0
 12  7  1  0  0  0  0
 13 14  1  0  0  0  0
 15 17  1  6  0  0  0
 15 19  1  0  0  0  0
 16 15  1  0  0  0  0
 16 13  1  1  0  0  0
 18 10  1  6  0  0  0
 18 16  1  0  0  0  0
 18 15  1  0  0  0  0
 19 14  1  0  0  0  0
 21 20  1  0  0  0  0
 22 21  1  0  0  0  0
 24 23  1  0  0  0  0
 24 22  1  0  0  0  0
 25 26  1  6  0  0  0
 25 27  1  0  0  0  0
 27 28  1  0  0  0  0
 28 34  1  0  0  0  0
 29 31  1  0  0  0  0
 30 33  1  0  0  0  0
 31 32  1  0  0  0  0
 32 35  1  0  0  0  0
 33 31  2  0  0  0  0
 34 30  2  0  0  0  0
 34 29  1  0  0  0  0
 35 36  1  0  0  0  0
 36 37  1  0  0  0  0
 37 38  1  0  0  0  0
 38 42  1  1  0  0  0
 38 39  1  0  0  0  0
 39 46  1  1  0  0  0
 40 38  1  0  0  0  0
 40 41  1  0  0  0  0
 41 44  1  0  0  0  0
 44 39  1  0  0  0  0
 44 43  2  0  0  0  0
 46 45  1  0  0  0  0
M  END
>  <MODEL>
4

>  <REMARK>
 VINA RESULT:      -4.6      7.337     12.300
  Name = 
  15 active torsions:
  status: ('A' for Active; 'I' for Inactive)
    1  A    between atoms: C_1  and  C_39
    2  A    between atoms: N_2  and  C_25
    3  A    between atoms: C_9  and  C_23
    4  A    between atoms: C_11  and  C_34
    5  A    between atoms: C_12  and  C_21
    6  A    between atoms: C_12  and  C_40
    7  A    between atoms: C_16  and  C_29
    8  A    between atoms: O_17  and  C_41
    9  A    between atoms: N_18  and  C_33
   10  A    between atoms: C_23  and  C_32
   11  A    between atoms: C_25  and  C_42
   12  A    between atoms: C_32  and  C_33
   13  A    between atoms: C_35  and  C_40
   14  A    between atoms: C_35  and  C_45
   15  A    between atoms: C_41  and  C_42
                            x       y       z     vdW  Elec       q    Type
                         _______ _______ _______ _____ _____    ______ ____

>  <TORSDO>
F 15

$$$$
=
 OpenBabel11042420563D

 46 51  0  0  1  0  0  0  0  0999 V2000
  162.6460  206.1600  151.6430 N   0  0  0  0  0  0  0  0  0  0  0  0
  160.9990  207.8560  151.9620 C   0  0  0  0  0  3  0  0  0  0  0  0
  161.8590  207.1400  151.1210 C   0  0  0  0  0  0  0  0  0  0  0  0
  160.9330  207.5390  153.3220 C   0  0  0  0  0  0  0  0  0  0  0  0
  162.6150  205.8440  152.9650 C   0  0  0  0  0  3  0  0  0  0  0  0
  161.7630  206.5320  153.8280 C   0  0  0  0  0  3  0  0  0  0  0  0
  159.9830  208.3070  154.2010 C   0  0  2  0  0  3  0  0  0  0  0  0
  160.9050  209.7920  156.0210 N   0  0  0  0  0  0  0  0  0  0  0  0
  161.4970  208.5370  156.4860 C   0  0  0  0  0  2  0  0  0  0  0  0
  160.5350  209.6950  154.5950 C   0  0  2  0  0  3  0  0  0  0  0  0
  160.4250  207.4550  156.5730 C   0  0  0  0  0  2  0  0  0  0  0  0
  159.4420  207.5140  155.4010 C   0  0  0  0  0  2  0  0  0  0  0  0
  158.8820  213.1510  154.2600 C   0  0  0  0  0  2  0  0  0  0  0  0
  158.3280  213.1810  152.8490 C   0  0  0  0  0  2  0  0  0  0  0  0
  159.6760  211.3960  152.9300 C   0  0  1  0  0  0  0  0  0  0  0  0
  159.9920  212.1470  154.1930 C   0  0  2  0  0  3  0  0  0  0  0  0
  160.8090  211.0820  152.1740 O   0  0  0  0  0  1  0  0  0  0  0  0
  159.4410  210.7170  154.2700 C   0  0  2  0  0  3  0  0  0  0  0  0
  158.5720  211.9350  152.2480 O   0  0  0  0  0  0  0  0  0  0  0  0
  161.9400  210.8120  156.1410 C   0  0  0  0  0  2  0  0  0  0  0  0
  162.9200  210.4710  157.2610 C   0  0  0  0  0  2  0  0  0  0  0  0
  164.2470  211.2060  157.0960 C   0  0  0  0  0  2  0  0  0  0  0  0
  165.7500  212.1160  155.7340 C   0  0  0  0  0  1  0  0  0  0  0  0
  164.5590  211.3810  155.7410 O   0  0  0  0  0  0  0  0  0  0  0  0
  162.0160  207.4850  149.6680 C   0  0  2  0  0  3  0  0  0  0  0  0
  162.2630  208.8500  149.5010 O   0  0  0  0  0  1  0  0  0  0  0  0
  160.8940  207.0090  148.7470 C   0  0  0  0  0  2  0  0  0  0  0  0
  161.1170  205.5880  148.2490 C   0  0  0  0  0  2  0  0  0  0  0  0
  160.3640  205.9950  145.5800 S   0  0  0  0  0  0  0  0  0  0  0  0
  162.7210  205.4290  146.2500 C   0  0  0  0  0  3  0  0  0  0  0  0
  161.5500  205.9040  144.3900 C   0  0  0  0  0  0  0  0  0  0  0  0
  161.3170  206.1700  143.0070 N   0  0  0  0  0  2  0  0  0  0  0  0
  162.7630  205.5900  144.8980 N   0  0  0  0  0  0  0  0  0  0  0  0
  161.4550  205.6070  146.8000 C   0  0  0  0  0  0  0  0  0  0  0  0
  162.3900  206.0750  142.0230 C   0  0  0  0  0  2  0  0  0  0  0  0
  161.8910  206.5440  140.6710 C   0  0  0  0  0  2  0  0  0  0  0  0
  161.4880  208.0190  140.7250 C   0  0  0  0  0  2  0  0  0  0  0  0
  161.3990  208.6580  139.3310 C   0  0  2  0  0  0  0  0  0  0  0  0
  161.4740  210.1960  139.4580 C   0  0  2  0  0  3  0  0  0  0  0  0
  160.1790  208.2770  138.7070 O   0  0  0  0  0  0  0  0  0  0  0  0
  159.3090  209.3930  138.7090 C   0  0  0  0  0  2  0  0  0  0  0  0
  162.4640  208.1600  138.5700 O   0  0  0  0  0  1  0  0  0  0  0  0
  159.6330  211.6810  139.2650 O   0  0  0  0  0  0  0  0  0  0  0  0
  160.0950  210.5570  139.1390 C   0  0  0  0  0  0  0  0  0  0  0  0
  163.5540  211.3420  139.1080 O   0  0  0  0  0  1  0  0  0  0  0  0
  162.4100  210.8760  138.4600 C   0  0  0  0  0  2  0  0  0  0  0  0
  1  5  1  0  0  0  0
  2  4  2  0  0  0  0
  3  1  2  0  0  0  0
  3  2  1  0  0  0  0
  4  6  1  0  0  0  0
  5  6  2  0  0  0  0
  7  4  1  1  0  0  0
  7 10  1  0  0  0  0
  7 12  1  0  0  0  0
  8 20  1  0  0  0  0
  8  9  1  0  0  0  0
  9 11  1  0  0  0  0
 10  8  1  1  0  0  0
 12 11  1  0  0  0  0
 14 13  1  0  0  0  0
 15 17  1  6  0  0  0
 15 16  1  0  0  0  0
 15 18  1  0  0  0  0
 16 13  1  1  0  0  0
 16 18  1  0  0  0  0
 18 10  1  6  0  0  0
 19 14  1  0  0  0  0
 19 15  1  0  0  0  0
 20 21  1  0  0  0  0
 22 21  1  0  0  0  0
 23 24  1  0  0  0  0
 24 22  1  0  0  0  0
 25 26  1  1  0  0  0
 25  3  1  0  0  0  0
 27 25  1  0  0  0  0
 28 27  1  0  0  0  0
 29 34  1  0  0  0  0
 30 34  2  0  0  0  0
 31 33  2  0  0  0  0
 31 29  1  0  0  0  0
 32 31  1  0  0  0  0
 33 30  1  0  0  0  0
 34 28  1  0  0  0  0
 35 32  1  0  0  0  0
 36 37  1  0  0  0  0
 36 35  1  0  0  0  0
 38 42  1  6  0  0  0
 38 39  1  0  0  0  0
 38 37  1  0  0  0  0
 39 46  1  6  0  0  0
 40 41  1  0  0  0  0
 40 38  1  0  0  0  0
 41 44  1  0  0  0  0
 44 43  2  0  0  0  0
 44 39  1  0  0  0  0
 46 45  1  0  0  0  0
M  END
>  <MODEL>
5

>  <REMARK>
 VINA RESULT:      -4.1      5.002      6.497
  Name = 
  15 active torsions:
  status: ('A' for Active; 'I' for Inactive)
    1  A    between atoms: C_1  and  C_39
    2  A    between atoms: N_2  and  C_25
    3  A    between atoms: C_9  and  C_23
    4  A    between atoms: C_11  and  C_34
    5  A    between atoms: C_12  and  C_21
    6  A    between atoms: C_12  and  C_40
    7  A    between atoms: C_16  and  C_29
    8  A    between atoms: O_17  and  C_41
    9  A    between atoms: N_18  and  C_33
   10  A    between atoms: C_23  and  C_32
   11  A    between atoms: C_25  and  C_42
   12  A    between atoms: C_32  and  C_33
   13  A    between atoms: C_35  and  C_40
   14  A    between atoms: C_35  and  C_45
   15  A    between atoms: C_41  and  C_42
                            x       y       z     vdW  Elec       q    Type
                         _______ _______ _______ _____ _____    ______ ____

>  <TORSDO>
F 15

$$$$
=
 OpenBabel11042420563D

 46 51  0  0  1  0  0  0  0  0999 V2000
  160.8880  207.9230  139.0850 N   0  0  0  0  0  0  0  0  0  0  0  0
  162.2510  209.3940  140.3780 C   0  0  0  0  0  3  0  0  0  0  0  0
  161.9000  208.0990  139.9790 C   0  0  0  0  0  0  0  0  0  0  0  0
  161.5830  210.4950  139.8330 C   0  0  0  0  0  0  0  0  0  0  0  0
  160.2100  208.9750  138.5540 C   0  0  0  0  0  3  0  0  0  0  0  0
  160.5410  210.2780  138.9230 C   0  0  0  0  0  3  0  0  0  0  0  0
  161.9960  211.8780  140.2590 C   0  0  2  0  0  3  0  0  0  0  0  0
  160.6220  213.8620  139.5200 N   0  0  0  0  0  0  0  0  0  0  0  0
  160.9610  213.3640  138.1870 C   0  0  0  0  0  2  0  0  0  0  0  0
  160.7840  212.7970  140.5300 C   0  0  2  0  0  3  0  0  0  0  0  0
  162.4670  213.1380  138.0820 C   0  0  0  0  0  2  0  0  0  0  0  0
  163.0560  212.5330  139.3590 C   0  0  0  0  0  2  0  0  0  0  0  0
  159.8440  214.4530  143.8720 C   0  0  0  0  0  2  0  0  0  0  0  0
  160.5480  213.6230  144.9270 C   0  0  0  0  0  2  0  0  0  0  0  0
  160.6920  212.4390  143.0330 C   0  0  1  0  0  0  0  0  0  0  0  0
  159.6930  213.5150  142.7130 C   0  0  2  0  0  3  0  0  0  0  0  0
  160.2360  211.1520  142.7330 O   0  0  0  0  0  1  0  0  0  0  0  0
  160.9990  213.4210  141.9130 C   0  0  2  0  0  3  0  0  0  0  0  0
  161.3070  212.6320  144.2820 O   0  0  0  0  0  0  0  0  0  0  0  0
  159.2100  214.2250  139.4830 C   0  0  0  0  0  2  0  0  0  0  0  0
  158.5270  213.6510  138.2440 C   0  0  0  0  0  2  0  0  0  0  0  0
  157.1770  213.0250  138.5800 C   0  0  0  0  0  2  0  0  0  0  0  0
  156.8290  211.0450  137.6300 C   0  0  0  0  0  1  0  0  0  0  0  0
  156.6110  212.4160  137.4510 O   0  0  0  0  0  0  0  0  0  0  0  0
  162.5400  206.8820  140.5830 C   0  0  2  0  0  3  0  0  0  0  0  0
  163.0850  206.0600  139.5920 O   0  0  0  0  0  1  0  0  0  0  0  0
  161.6690  206.0830  141.5480 C   0  0  0  0  0  2  0  0  0  0  0  0
  161.6650  206.6750  142.9510 C   0  0  0  0  0  2  0  0  0  0  0  0
  162.6700  205.2340  145.1350 S   0  0  0  0  0  0  0  0  0  0  0  0
  160.3940  204.7980  144.1570 C   0  0  0  0  0  3  0  0  0  0  0  0
  161.6870  204.0680  145.8450 C   0  0  0  0  0  0  0  0  0  0  0  0
  162.0450  203.3230  147.0100 N   0  0  0  0  0  2  0  0  0  0  0  0
  160.4990  203.9440  145.2130 N   0  0  0  0  0  0  0  0  0  0  0  0
  161.5220  205.5900  143.9580 C   0  0  0  0  0  0  0  0  0  0  0  0
  161.1470  202.3240  147.5790 C   0  0  0  0  0  2  0  0  0  0  0  0
  160.6480  202.7920  148.9310 C   0  0  0  0  0  2  0  0  0  0  0  0
  161.5920  203.8420  149.5220 C   0  0  0  0  0  2  0  0  0  0  0  0
  160.8400  205.0150  150.1680 C   0  0  2  0  0  0  0  0  0  0  0  0
  161.8490  206.0880  150.6320 C   0  0  2  0  0  3  0  0  0  0  0  0
  160.0810  204.5450  151.2760 O   0  0  0  0  0  0  0  0  0  0  0  0
  160.7190  204.9690  152.4670 C   0  0  0  0  0  2  0  0  0  0  0  0
  159.9570  205.5290  149.2110 O   0  0  0  0  0  1  0  0  0  0  0  0
  162.5230  206.4610  152.8770 O   0  0  0  0  0  0  0  0  0  0  0  0
  161.7710  205.9200  152.0810 C   0  0  0  0  0  0  0  0  0  0  0  0
  162.3020  208.0150  149.2730 O   0  0  0  0  0  1  0  0  0  0  0  0
  161.4650  207.5240  150.2770 C   0  0  0  0  0  2  0  0  0  0  0  0
  1  3  1  0  0  0  0
  3  2  2  0  0  0  0
  3 25  1  0  0  0  0
  4  2  1  0  0  0  0
  5  6  1  0  0  0  0
  5  1  2  0  0  0  0
  6  4  2  0  0  0  0
  7  4  1  6  0  0  0
  7 10  1  0  0  0  0
  9  8  1  0  0  0  0
 10  8  1  6  0  0  0
 11  9  1  0  0  0  0
 11 12  1  0  0  0  0
 12  7  1  0  0  0  0
 13 14  1  0  0  0  0
 15 17  1  6  0  0  0
 15 19  1  0  0  0  0
 16 15  1  0  0  0  0
 16 13  1  1  0  0  0
 18 10  1  6  0  0  0
 18 16  1  0  0  0  0
 18 15  1  0  0  0  0
 19 14  1  0  0  0  0
 20  8  1  0  0  0  0
 21 22  1  0  0  0  0
 21 20  1  0  0  0  0
 24 23  1  0  0  0  0
 24 22  1  0  0  0  0
 25 26  1  6  0  0  0
 25 27  1  0  0  0  0
 27 28  1  0  0  0  0
 28 34  1  0  0  0  0
 29 31  1  0  0  0  0
 30 33  1  0  0  0  0
 31 32  1  0  0  0  0
 32 35  1  0  0  0  0
 33 31  2  0  0  0  0
 34 30  2  0  0  0  0
 34 29  1  0  0  0  0
 35 36  1  0  0  0  0
 36 37  1  0  0  0  0
 37 38  1  0  0  0  0
 38 42  1  6  0  0  0
 38 39  1  0  0  0  0
 38 40  1  0  0  0  0
 39 46  1  1  0  0  0
 39 44  1  0  0  0  0
 40 41  1  0  0  0  0
 44 41  1  0  0  0  0
 44 43  2  0  0  0  0
 45 46  1  0  0  0  0
M  END
>  <MODEL>
6

>  <REMARK>
 VINA RESULT:      -3.9      7.329     11.886
  Name = 
  15 active torsions:
  status: ('A' for Active; 'I' for Inactive)
    1  A    between atoms: C_1  and  C_39
    2  A    between atoms: N_2  and  C_25
    3  A    between atoms: C_9  and  C_23
    4  A    between atoms: C_11  and  C_34
    5  A    between atoms: C_12  and  C_21
    6  A    between atoms: C_12  and  C_40
    7  A    between atoms: C_16  and  C_29
    8  A    between atoms: O_17  and  C_41
    9  A    between atoms: N_18  and  C_33
   10  A    between atoms: C_23  and  C_32
   11  A    between atoms: C_25  and  C_42
   12  A    between atoms: C_32  and  C_33
   13  A    between atoms: C_35  and  C_40
   14  A    between atoms: C_35  and  C_45
   15  A    between atoms: C_41  and  C_42
                            x       y       z     vdW  Elec       q    Type
                         _______ _______ _______ _____ _____    ______ ____

>  <TORSDO>
F 15

$$$$
=
 OpenBabel11042420563D

 46 51  0  0  1  0  0  0  0  0999 V2000
  160.6830  207.2710  154.4530 N   0  0  0  0  0  0  0  0  0  0  0  0
  160.2700  209.6170  154.5830 C   0  0  0  0  0  3  0  0  0  0  0  0
  160.7710  208.5080  153.8910 C   0  0  0  0  0  0  0  0  0  0  0  0
  159.6570  209.4430  155.8270 C   0  0  0  0  0  0  0  0  0  0  0  0
  160.1080  207.0760  155.6700 C   0  0  0  0  0  3  0  0  0  0  0  0
  159.5910  208.1580  156.3800 C   0  0  0  0  0  3  0  0  0  0  0  0
  159.1030  210.6470  156.5390 C   0  0  2  0  0  3  0  0  0  0  0  0
  158.4330  212.6770  155.1970 N   0  0  0  0  0  0  0  0  0  0  0  0
  159.8360  212.6380  154.7860 C   0  0  0  0  0  2  0  0  0  0  0  0
  158.0060  211.3630  155.7190 C   0  0  2  0  0  3  0  0  0  0  0  0
  160.7370  212.5460  156.0140 C   0  0  0  0  0  2  0  0  0  0  0  0
  160.1690  211.6110  157.0850 C   0  0  0  0  0  2  0  0  0  0  0  0
  154.7430  212.8920  157.0630 C   0  0  0  0  0  2  0  0  0  0  0  0
  153.8130  211.7110  157.2550 C   0  0  0  0  0  2  0  0  0  0  0  0
  155.5370  210.9320  156.0600 C   0  0  1  0  0  0  0  0  0  0  0  0
  155.7140  212.4230  156.0220 C   0  0  2  0  0  3  0  0  0  0  0  0
  155.5660  210.3380  154.7950 O   0  0  0  0  0  1  0  0  0  0  0  0
  156.8000  211.5390  156.6480 C   0  0  2  0  0  3  0  0  0  0  0  0
  154.5120  210.5350  156.9370 O   0  0  0  0  0  0  0  0  0  0  0  0
  157.6530  212.9490  153.9950 C   0  0  0  0  0  2  0  0  0  0  0  0
  158.5560  213.0790  152.7720 C   0  0  0  0  0  2  0  0  0  0  0  0
  157.8910  213.8820  151.6580 C   0  0  0  0  0  2  0  0  0  0  0  0
  159.8480  213.3060  150.7740 C   0  0  0  0  0  1  0  0  0  0  0  0
  158.5420  213.6780  150.4330 O   0  0  0  0  0  0  0  0  0  0  0  0
  161.4970  208.6490  152.5840 C   0  0  2  0  0  3  0  0  0  0  0  0
  160.7580  209.4210  151.6820 O   0  0  0  0  0  1  0  0  0  0  0  0
  161.9680  207.3470  151.9420 C   0  0  0  0  0  2  0  0  0  0  0  0
  161.4440  206.1180  152.6720 C   0  0  0  0  0  2  0  0  0  0  0  0
  161.5710  203.4070  151.9730 S   0  0  0  0  0  0  0  0  0  0  0  0
  160.5020  205.1380  150.4930 C   0  0  0  0  0  3  0  0  0  0  0  0
  160.8590  202.9180  150.5290 C   0  0  0  0  0  0  0  0  0  0  0  0
  160.7810  201.5600  150.0950 N   0  0  0  0  0  2  0  0  0  0  0  0
  160.3290  203.9550  149.8410 N   0  0  0  0  0  0  0  0  0  0  0  0
  161.1890  205.0220  151.6990 C   0  0  0  0  0  0  0  0  0  0  0  0
  160.1490  201.2000  148.8310 C   0  0  0  0  0  2  0  0  0  0  0  0
  161.1120  201.4390  147.6870 C   0  0  0  0  0  2  0  0  0  0  0  0
  160.5770  202.5190  146.7450 C   0  0  0  0  0  2  0  0  0  0  0  0
  161.5720  203.6710  146.5410 C   0  0  2  0  0  0  0  0  0  0  0  0
  160.8470  205.0240  146.7160 C   0  0  2  0  0  3  0  0  0  0  0  0
  162.1430  203.5860  145.2400 O   0  0  0  0  0  0  0  0  0  0  0  0
  161.5840  204.6110  144.4400 C   0  0  0  0  0  2  0  0  0  0  0  0
  162.5940  203.5190  147.4860 O   0  0  0  0  0  1  0  0  0  0  0  0
  160.1970  206.4720  144.9510 O   0  0  0  0  0  0  0  0  0  0  0  0
  160.8210  205.4940  145.3330 C   0  0  0  0  0  0  0  0  0  0  0  0
  162.2890  206.9420  146.7630 O   0  0  0  0  0  1  0  0  0  0  0  0
  161.5930  206.0450  147.5740 C   0  0  0  0  0  2  0  0  0  0  0  0
  1  5  1  0  0  0  0
  2  4  2  0  0  0  0
  3  1  2  0  0  0  0
  3  2  1  0  0  0  0
  4  6  1  0  0  0  0
  5  6  2  0  0  0  0
  7  4  1  6  0  0  0
  7 12  1  0  0  0  0
  9  8  1  0  0  0  0
  9 11  1  0  0  0  0
 10  8  1  1  0  0  0
 10  7  1  0  0  0  0
 11 12  1  0  0  0  0
 13 14  1  0  0  0  0
 15 17  1  6  0  0  0
 15 18  1  0  0  0  0
 15 19  1  0  0  0  0
 16 15  1  0  0  0  0
 16 18  1  0  0  0  0
 16 13  1  1  0  0  0
 18 10  1  6  0  0  0
 19 14  1  0  0  0  0
 20  8  1  0  0  0  0
 21 20  1  0  0  0  0
 22 21  1  0  0  0  0
 24 23  1  0  0  0  0
 24 22  1  0  0  0  0
 25 26  1  6  0  0  0
 25  3  1  0  0  0  0
 27 25  1  0  0  0  0
 27 28  1  0  0  0  0
 30 34  2  0  0  0  0
 31 29  1  0  0  0  0
 32 31  1  0  0  0  0
 33 30  1  0  0  0  0
 33 31  2  0  0  0  0
 34 29  1  0  0  0  0
 34 28  1  0  0  0  0
 35 32  1  0  0  0  0
 36 35  1  0  0  0  0
 37 36  1  0  0  0  0
 38 39  1  0  0  0  0
 38 37  1  0  0  0  0
 38 42  1  1  0  0  0
 39 46  1  1  0  0  0
 40 38  1  0  0  0  0
 41 40  1  0  0  0  0
 41 44  1  0  0  0  0
 43 44  2  0  0  0  0
 44 39  1  0  0  0  0
 45 46  1  0  0  0  0
M  END
>  <MODEL>
7

>  <REMARK>
 VINA RESULT:      -3.9      2.716      4.691
  Name = 
  15 active torsions:
  status: ('A' for Active; 'I' for Inactive)
    1  A    between atoms: C_1  and  C_39
    2  A    between atoms: N_2  and  C_25
    3  A    between atoms: C_9  and  C_23
    4  A    between atoms: C_11  and  C_34
    5  A    between atoms: C_12  and  C_21
    6  A    between atoms: C_12  and  C_40
    7  A    between atoms: C_16  and  C_29
    8  A    between atoms: O_17  and  C_41
    9  A    between atoms: N_18  and  C_33
   10  A    between atoms: C_23  and  C_32
   11  A    between atoms: C_25  and  C_42
   12  A    between atoms: C_32  and  C_33
   13  A    between atoms: C_35  and  C_40
   14  A    between atoms: C_35  and  C_45
   15  A    between atoms: C_41  and  C_42
                            x       y       z     vdW  Elec       q    Type
                         _______ _______ _______ _____ _____    ______ ____

>  <TORSDO>
F 15

$$$$
=
 OpenBabel11042420563D

 46 51  0  0  1  0  0  0  0  0999 V2000
  162.2860  209.4970  150.0840 N   0  0  0  0  0  0  0  0  0  0  0  0
  160.8840  211.2780  150.8290 C   0  0  0  0  0  3  0  0  0  0  0  0
  161.4370  210.0060  151.0190 C   0  0  0  0  0  0  0  0  0  0  0  0
  161.2310  212.0260  149.7010 C   0  0  0  0  0  0  0  0  0  0  0  0
  162.6260  210.1960  148.9680 C   0  0  0  0  0  3  0  0  0  0  0  0
  162.0990  211.4690  148.7540 C   0  0  0  0  0  3  0  0  0  0  0  0
  160.6430  213.4010  149.5320 C   0  0  2  0  0  3  0  0  0  0  0  0
  159.3950  213.9620  147.4120 N   0  0  0  0  0  0  0  0  0  0  0  0
  160.6740  213.6200  146.7890 C   0  0  0  0  0  2  0  0  0  0  0  0
  159.3020  213.3780  148.7650 C   0  0  2  0  0  3  0  0  0  0  0  0
  161.8060  214.3820  147.4740 C   0  0  0  0  0  2  0  0  0  0  0  0
  161.6240  214.4530  148.9930 C   0  0  0  0  0  2  0  0  0  0  0  0
  155.8900  214.3400  150.2570 C   0  0  0  0  0  2  0  0  0  0  0  0
  156.1380  214.4530  151.7480 C   0  0  0  0  0  2  0  0  0  0  0  0
  157.9600  213.4620  150.9080 C   0  0  1  0  0  0  0  0  0  0  0  0
  156.9700  213.4160  149.7790 C   0  0  2  0  0  3  0  0  0  0  0  0
  158.5280  212.2180  151.1970 O   0  0  0  0  0  1  0  0  0  0  0  0
  158.2950  214.1700  149.6050 C   0  0  2  0  0  3  0  0  0  0  0  0
  157.5040  214.2310  151.9920 O   0  0  0  0  0  0  0  0  0  0  0  0
  158.3560  213.3470  146.5930 C   0  0  0  0  0  2  0  0  0  0  0  0
  158.4790  213.7770  145.1340 C   0  0  0  0  0  2  0  0  0  0  0  0
  159.0890  212.6780  144.2680 C   0  0  0  0  0  2  0  0  0  0  0  0
  159.4040  214.3050  142.7860 C   0  0  0  0  0  1  0  0  0  0  0  0
  158.9610  212.9830  142.9060 O   0  0  0  0  0  0  0  0  0  0  0  0
  161.0460  209.1360  152.1790 C   0  0  2  0  0  3  0  0  0  0  0  0
  160.8660  209.8980  153.3380 O   0  0  0  0  0  1  0  0  0  0  0  0
  161.9500  207.9340  152.4420 C   0  0  0  0  0  2  0  0  0  0  0  0
  161.1990  206.7740  153.0790 C   0  0  0  0  0  2  0  0  0  0  0  0
  160.7740  204.0390  152.6350 S   0  0  0  0  0  0  0  0  0  0  0  0
  161.5420  205.6020  150.8200 C   0  0  0  0  0  3  0  0  0  0  0  0
  160.9950  203.4370  151.0790 C   0  0  0  0  0  0  0  0  0  0  0  0
  160.7340  202.0850  150.7010 N   0  0  0  0  0  2  0  0  0  0  0  0
  161.4090  204.3900  150.2140 N   0  0  0  0  0  0  0  0  0  0  0  0
  161.2380  205.5900  152.1780 C   0  0  0  0  0  0  0  0  0  0  0  0
  160.9450  201.6240  149.3330 C   0  0  0  0  0  2  0  0  0  0  0  0
  161.7870  202.6300  148.5750 C   0  0  0  0  0  2  0  0  0  0  0  0
  161.0350  203.1490  147.3480 C   0  0  0  0  0  2  0  0  0  0  0  0
  161.8010  204.2590  146.6120 C   0  0  2  0  0  0  0  0  0  0  0  0
  161.0000  205.5780  146.6830 C   0  0  2  0  0  3  0  0  0  0  0  0
  162.0050  203.8820  145.2560 O   0  0  0  0  0  0  0  0  0  0  0  0
  161.1380  204.6510  144.4430 C   0  0  0  0  0  2  0  0  0  0  0  0
  163.0500  204.3910  147.2300 O   0  0  0  0  0  1  0  0  0  0  0  0
  159.7380  206.5150  144.9040 O   0  0  0  0  0  0  0  0  0  0  0  0
  160.5490  205.6910  145.2980 C   0  0  0  0  0  0  0  0  0  0  0  0
  161.5780  207.2020  148.3530 O   0  0  0  0  0  1  0  0  0  0  0  0
  161.8290  206.8120  147.0370 C   0  0  0  0  0  2  0  0  0  0  0  0
  1  3  1  0  0  0  0
  2  3  2  0  0  0  0
  3 25  1  0  0  0  0
  4  2  1  0  0  0  0
  5  1  2  0  0  0  0
  6  5  1  0  0  0  0
  6  4  2  0  0  0  0
  7  4  1  6  0  0  0
  9  8  1  0  0  0  0
  9 11  1  0  0  0  0
 10  8  1  6  0  0  0
 10  7  1  0  0  0  0
 11 12  1  0  0  0  0
 12  7  1  0  0  0  0
 13 14  1  0  0  0  0
 14 19  1  0  0  0  0
 15 17  1  1  0  0  0
 15 19  1  0  0  0  0
 16 13  1  1  0  0  0
 16 15  1  0  0  0  0
 18 10  1  6  0  0  0
 18 16  1  0  0  0  0
 18 15  1  0  0  0  0
 20  8  1  0  0  0  0
 21 20  1  0  0  0  0
 22 21  1  0  0  0  0
 23 24  1  0  0  0  0
 24 22  1  0  0  0  0
 25 27  1  0  0  0  0
 25 26  1  1  0  0  0
 27 28  1  0  0  0  0
 30 34  2  0  0  0  0
 31 29  1  0  0  0  0
 32 31  1  0  0  0  0
 33 30  1  0  0  0  0
 33 31  2  0  0  0  0
 34 29  1  0  0  0  0
 34 28  1  0  0  0  0
 35 32  1  0  0  0  0
 36 35  1  0  0  0  0
 37 36  1  0  0  0  0
 38 39  1  0  0  0  0
 38 42  1  1  0  0  0
 38 37  1  0  0  0  0
 39 46  1  6  0  0  0
 40 38  1  0  0  0  0
 41 40  1  0  0  0  0
 41 44  1  0  0  0  0
 43 44  2  0  0  0  0
 44 39  1  0  0  0  0
 46 45  1  0  0  0  0
M  END
>  <MODEL>
8

>  <REMARK>
 VINA RESULT:      -3.6      4.353      7.156
  Name = 
  15 active torsions:
  status: ('A' for Active; 'I' for Inactive)
    1  A    between atoms: C_1  and  C_39
    2  A    between atoms: N_2  and  C_25
    3  A    between atoms: C_9  and  C_23
    4  A    between atoms: C_11  and  C_34
    5  A    between atoms: C_12  and  C_21
    6  A    between atoms: C_12  and  C_40
    7  A    between atoms: C_16  and  C_29
    8  A    between atoms: O_17  and  C_41
    9  A    between atoms: N_18  and  C_33
   10  A    between atoms: C_23  and  C_32
   11  A    between atoms: C_25  and  C_42
   12  A    between atoms: C_32  and  C_33
   13  A    between atoms: C_35  and  C_40
   14  A    between atoms: C_35  and  C_45
   15  A    between atoms: C_41  and  C_42
                            x       y       z     vdW  Elec       q    Type
                         _______ _______ _______ _____ _____    ______ ____

>  <TORSDO>
F 15

$$$$
=
 OpenBabel11042420563D

 46 51  0  0  1  0  0  0  0  0999 V2000
  162.0030  205.5690  153.4450 N   0  0  0  0  0  0  0  0  0  0  0  0
  160.9650  206.6320  151.5790 C   0  0  0  0  0  3  0  0  0  0  0  0
  161.4530  206.6840  152.8900 C   0  0  0  0  0  0  0  0  0  0  0  0
  161.0750  205.4500  150.8410 C   0  0  0  0  0  0  0  0  0  0  0  0
  162.1060  204.4010  152.7560 C   0  0  0  0  0  3  0  0  0  0  0  0
  161.6380  204.3200  151.4450 C   0  0  0  0  0  3  0  0  0  0  0  0
  160.5660  205.4280  149.4250 C   0  0  2  0  0  3  0  0  0  0  0  0
  162.2050  205.6390  147.5180 N   0  0  0  0  0  0  0  0  0  0  0  0
  162.5200  206.9080  148.1740 C   0  0  0  0  0  2  0  0  0  0  0  0
  161.5410  204.7170  148.4600 C   0  0  2  0  0  3  0  0  0  0  0  0
  161.2360  207.6920  148.4360 C   0  0  0  0  0  2  0  0  0  0  0  0
  160.0880  206.7900  148.8980 C   0  0  0  0  0  2  0  0  0  0  0  0
  160.8680  201.6390  146.2540 C   0  0  0  0  0  2  0  0  0  0  0  0
  159.8260  200.8400  147.0120 C   0  0  0  0  0  2  0  0  0  0  0  0
  160.5710  202.3790  148.4550 C   0  0  1  0  0  0  0  0  0  0  0  0
  161.5510  202.4440  147.3170 C   0  0  2  0  0  3  0  0  0  0  0  0
  161.1810  202.2300  149.7040 O   0  0  0  0  0  1  0  0  0  0  0  0
  160.7200  203.6810  147.6830 C   0  0  2  0  0  3  0  0  0  0  0  0
  159.4710  201.5530  148.1690 O   0  0  0  0  0  0  0  0  0  0  0  0
  163.4800  205.0390  147.1370 C   0  0  0  0  0  2  0  0  0  0  0  0
  163.4920  204.6700  145.6560 C   0  0  0  0  0  2  0  0  0  0  0  0
  162.4130  205.4140  144.8760 C   0  0  0  0  0  2  0  0  0  0  0  0
  160.2460  204.9170  144.8650 C   0  0  0  0  0  1  0  0  0  0  0  0
  161.4790  204.5210  144.3340 O   0  0  0  0  0  0  0  0  0  0  0  0
  161.3000  207.9070  153.7470 C   0  0  2  0  0  3  0  0  0  0  0  0
  160.1660  207.8110  154.5590 O   0  0  0  0  0  1  0  0  0  0  0  0
  161.3410  209.2430  153.0090 C   0  0  0  0  0  2  0  0  0  0  0  0
  160.7630  210.3810  153.8390 C   0  0  0  0  0  2  0  0  0  0  0  0
  158.3080  211.5290  153.1220 S   0  0  0  0  0  0  0  0  0  0  0  0
  160.4720  212.1480  151.9980 C   0  0  0  0  0  3  0  0  0  0  0  0
  158.2970  212.7130  151.9270 C   0  0  0  0  0  0  0  0  0  0  0  0
  157.1310  213.4330  151.5250 N   0  0  0  0  0  2  0  0  0  0  0  0
  159.5280  212.9370  151.4150 N   0  0  0  0  0  0  0  0  0  0  0  0
  159.9660  211.2880  152.9700 C   0  0  0  0  0  0  0  0  0  0  0  0
  157.1870  214.4500  150.4820 C   0  0  0  0  0  2  0  0  0  0  0  0
  157.2950  213.7890  149.1230 C   0  0  0  0  0  2  0  0  0  0  0  0
  158.6550  214.0790  148.4870 C   0  0  0  0  0  2  0  0  0  0  0  0
  158.9070  213.2410  147.2240 C   0  0  2  0  0  0  0  0  0  0  0  0
  158.9680  214.1670  145.9880 C   0  0  2  0  0  3  0  0  0  0  0  0
  157.8660  212.2850  147.0680 O   0  0  0  0  0  0  0  0  0  0  0  0
  157.0330  212.7020  146.0020 C   0  0  0  0  0  2  0  0  0  0  0  0
  160.1150  212.5580  147.4050 O   0  0  0  0  0  1  0  0  0  0  0  0
  157.2430  214.4250  144.3790 O   0  0  0  0  0  0  0  0  0  0  0  0
  157.7090  213.8220  145.3340 C   0  0  0  0  0  0  0  0  0  0  0  0
  159.9840  212.6070  144.4720 O   0  0  0  0  0  1  0  0  0  0  0  0
  160.1220  213.8790  145.0290 C   0  0  0  0  0  2  0  0  0  0  0  0
  2  3  2  0  0  0  0
  3  1  1  0  0  0  0
  3 25  1  0  0  0  0
  4  6  2  0  0  0  0
  4  2  1  0  0  0  0
  5  1  2  0  0  0  0
  6  5  1  0  0  0  0
  7  4  1  1  0  0  0
  8  9  1  0  0  0  0
  9 11  1  0  0  0  0
 10  8  1  6  0  0  0
 10  7  1  0  0  0  0
 11 12  1  0  0  0  0
 12  7  1  0  0  0  0
 13 14  1  0  0  0  0
 14 19  1  0  0  0  0
 15 17  1  1  0  0  0
 16 13  1  6  0  0  0
 16 18  1  0  0  0  0
 16 15  1  0  0  0  0
 18 15  1  0  0  0  0
 18 10  1  1  0  0  0
 19 15  1  0  0  0  0
 20  8  1  0  0  0  0
 21 20  1  0  0  0  0
 22 21  1  0  0  0  0
 24 23  1  0  0  0  0
 24 22  1  0  0  0  0
 25 26  1  6  0  0  0
 27 25  1  0  0  0  0
 27 28  1  0  0  0  0
 30 34  2  0  0  0  0
 31 29  1  0  0  0  0
 32 31  1  0  0  0  0
 33 31  2  0  0  0  0
 33 30  1  0  0  0  0
 34 29  1  0  0  0  0
 34 28  1  0  0  0  0
 35 32  1  0  0  0  0
 36 35  1  0  0  0  0
 37 36  1  0  0  0  0
 38 42  1  1  0  0  0
 38 37  1  0  0  0  0
 39 46  1  6  0  0  0
 39 38  1  0  0  0  0
 40 38  1  0  0  0  0
 41 40  1  0  0  0  0
 43 44  2  0  0  0  0
 44 39  1  0  0  0  0
 44 41  1  0  0  0  0
 45 46  1  0  0  0  0
M  END
>  <MODEL>
9

>  <REMARK>
 VINA RESULT:      -3.5      4.275     10.396
  Name = 
  15 active torsions:
  status: ('A' for Active; 'I' for Inactive)
    1  A    between atoms: C_1  and  C_39
    2  A    between atoms: N_2  and  C_25
    3  A    between atoms: C_9  and  C_23
    4  A    between atoms: C_11  and  C_34
    5  A    between atoms: C_12  and  C_21
    6  A    between atoms: C_12  and  C_40
    7  A    between atoms: C_16  and  C_29
    8  A    between atoms: O_17  and  C_41
    9  A    between atoms: N_18  and  C_33
   10  A    between atoms: C_23  and  C_32
   11  A    between atoms: C_25  and  C_42
   12  A    between atoms: C_32  and  C_33
   13  A    between atoms: C_35  and  C_40
   14  A    between atoms: C_35  and  C_45
   15  A    between atoms: C_41  and  C_42
                            x       y       z     vdW  Elec       q    Type
                         _______ _______ _______ _____ _____    ______ ____

>  <TORSDO>
F 15

$$$$
