=
 OpenBabel11052410543D

 30 32  0  0  1  0  0  0  0  0999 V2000
  161.9720  210.1120  151.0450 C   0  0  0  0  0  3  0  0  0  0  0  0
  161.8740  207.7250  149.5040 C   0  0  0  0  0  0  0  0  0  0  0  0
  161.5950  206.1390  153.3580 C   0  0  0  0  0  2  0  0  0  0  0  0
  162.6160  207.7880  150.7810 C   0  0  1  0  0  3  0  0  0  0  0  0
  161.1190  206.6560  149.1220 C   0  0  0  0  0  3  0  0  0  0  0  0
  161.7170  209.0220  148.8160 C   0  0  0  0  0  0  0  0  0  0  0  0
  162.1160  210.2840  149.5460 C   0  0  0  0  0  2  0  0  0  0  0  0
  161.9630  208.7440  153.1180 C   0  0  0  0  0  2  0  0  0  0  0  0
  162.0980  205.7210  151.9940 C   0  0  2  0  0  3  0  0  0  0  0  0
  162.2570  208.9430  151.6370 C   0  0  0  0  0  0  0  0  0  0  0  0
  161.2570  209.0900  147.6460 O   0  0  0  0  0  0  0  0  0  0  0  0
  162.6660  206.6850  151.4010 C   0  0  0  0  0  2  0  0  0  0  0  0
  160.9670  207.5760  153.3940 C   0  0  2  0  0  3  0  0  0  0  0  0
  160.8690  205.3460  149.8330 C   0  0  0  0  0  3  0  0  0  0  0  0
  161.2410  204.9130  151.0790 C   0  0  0  0  0  0  0  0  0  0  0  0
  160.2120  206.6750  155.4700 O   0  0  0  0  0  1  0  0  0  0  0  0
  160.1720  207.8250  154.6790 C   0  0  1  0  0  3  0  0  0  0  0  0
  160.6680  209.0410  155.4790 C   0  0  2  0  0  3  0  0  0  0  0  0
  162.3500  209.4570  156.8600 C   0  0  0  0  0  1  0  0  0  0  0  0
  161.2330  208.6360  156.6930 O   0  0  0  0  0  0  0  0  0  0  0  0
  159.1960  210.7110  154.5710 O   0  0  0  0  0  1  0  0  0  0  0  0
  159.5460  210.0400  155.7450 C   0  0  0  0  0  2  0  0  0  0  0  0
  160.8260  203.5470  151.4840 C   0  0  0  0  0  0  0  0  0  0  0  0
  159.8380  203.3890  152.2520 O   0  0  0  0  0  0  0  0  0  0  0  0
  161.6540  202.0790  150.8590 S   0  0  0  0  0  0  0  0  0  0  0  0
  160.6550  202.0130  149.3720 C   0  0  0  0  0  0  0  0  0  0  0  0
  159.5290  201.5450  149.4120 O   0  0  0  0  0  0  0  0  0  0  0  0
  161.2070  202.5370  148.0850 C   0  0  0  0  0  2  0  0  0  0  0  0
  160.8290  201.6380  146.9190 C   0  0  0  0  0  2  0  0  0  0  0  0
  160.8630  202.3590  145.7250 O   0  0  0  0  0  1  0  0  0  0  0  0
  1 10  2  0  0  0  0
  2  4  1  0  0  0  0
  3 13  1  0  0  0  0
  4 12  1  1  0  0  0
  4 10  1  0  0  0  0
  5  2  2  0  0  0  0
  5 14  1  0  0  0  0
  6  2  1  0  0  0  0
  6  7  1  0  0  0  0
  7  1  1  0  0  0  0
  8 13  1  0  0  0  0
  9 12  1  6  0  0  0
  9  3  1  0  0  0  0
 10  8  1  0  0  0  0
 11  6  2  0  0  0  0
 13 17  1  1  0  0  0
 14 15  2  0  0  0  0
 15 23  1  0  0  0  0
 15  9  1  0  0  0  0
 17 16  1  1  0  0  0
 17 18  1  0  0  0  0
 18 22  1  1  0  0  0
 18 20  1  0  0  0  0
 20 19  1  0  0  0  0
 21 22  1  0  0  0  0
 23 24  2  0  0  0  0
 25 23  1  0  0  0  0
 26 27  2  0  0  0  0
 26 25  1  0  0  0  0
 28 26  1  0  0  0  0
 29 28  1  0  0  0  0
 30 29  1  0  0  0  0
M  END
>  <MODEL>
1

>  <REMARK>
 VINA RESULT:      -6.3      0.000      0.000
  Name = 
  9 active torsions:
  status: ('A' for Active; 'I' for Inactive)
    1  A    between atoms: C_3  and  C_28
    2  A    between atoms: C_3  and  S_29
    3  A    between atoms: C_8  and  C_22
    4  A    between atoms: C_11  and  C_24
    5  A    between atoms: C_11  and  C_26
    6  A    between atoms: C_17  and  C_22
    7  A    between atoms: C_17  and  S_29
    8  A    between atoms: O_18  and  C_26
    9  A    between atoms: C_26  and  C_30
                            x       y       z     vdW  Elec       q    Type
                         _______ _______ _______ _____ _____    ______ ____

>  <TORSDO>
F 9

$$$$
=
 OpenBabel11052410543D

 30 32  0  0  1  0  0  0  0  0999 V2000
  161.9900  209.1850  148.6000 C   0  0  0  0  0  3  0  0  0  0  0  0
  161.6840  207.9740  151.1540 C   0  0  0  0  0  0  0  0  0  0  0  0
  160.8420  204.7180  148.6760 C   0  0  0  0  0  2  0  0  0  0  0  0
  160.7800  207.6450  150.0300 C   0  0  1  0  0  3  0  0  0  0  0  0
  162.1650  207.0490  152.0310 C   0  0  0  0  0  3  0  0  0  0  0  0
  162.3110  209.3090  151.0700 C   0  0  0  0  0  0  0  0  0  0  0  0
  162.1600  210.1030  149.7940 C   0  0  0  0  0  2  0  0  0  0  0  0
  161.2610  207.0640  147.5340 C   0  0  0  0  0  2  0  0  0  0  0  0
  160.4850  205.2110  150.0610 C   0  0  2  0  0  3  0  0  0  0  0  0
  161.2930  208.0450  148.6990 C   0  0  0  0  0  0  0  0  0  0  0  0
  162.9670  209.7850  152.0340 O   0  0  0  0  0  0  0  0  0  0  0  0
  160.3190  206.4660  150.0720 C   0  0  0  0  0  2  0  0  0  0  0  0
  161.8290  205.6580  147.8990 C   0  0  2  0  0  3  0  0  0  0  0  0
  161.9140  205.5600  152.1000 C   0  0  0  0  0  3  0  0  0  0  0  0
  161.2270  204.7230  151.2600 C   0  0  0  0  0  0  0  0  0  0  0  0
  163.2920  203.9580  147.0880 O   0  0  0  0  0  1  0  0  0  0  0  0
  162.4290  204.9720  146.6680 C   0  0  1  0  0  3  0  0  0  0  0  0
  161.3700  204.4080  145.7060 C   0  0  2  0  0  3  0  0  0  0  0  0
  160.3440  202.5900  144.9650 C   0  0  0  0  0  1  0  0  0  0  0  0
  161.5370  203.0290  145.5410 O   0  0  0  0  0  0  0  0  0  0  0  0
  160.6000  206.2260  144.3350 O   0  0  0  0  0  1  0  0  0  0  0  0
  161.4190  205.0950  144.3450 C   0  0  0  0  0  2  0  0  0  0  0  0
  161.1700  203.2850  151.6190 C   0  0  0  0  0  0  0  0  0  0  0  0
  160.4080  202.8960  152.5460 O   0  0  0  0  0  0  0  0  0  0  0  0
  162.1160  202.0460  150.7260 S   0  0  0  0  0  0  0  0  0  0  0  0
  160.6840  201.4320  149.8380 C   0  0  0  0  0  0  0  0  0  0  0  0
  159.6740  201.1200  150.4480 O   0  0  0  0  0  0  0  0  0  0  0  0
  160.7330  201.3080  148.3490 C   0  0  0  0  0  2  0  0  0  0  0  0
  161.7280  200.2420  147.9190 C   0  0  0  0  0  2  0  0  0  0  0  0
  161.4050  199.7680  146.6470 O   0  0  0  0  0  1  0  0  0  0  0  0
  1 10  2  0  0  0  0
  1  7  1  0  0  0  0
  2  5  2  0  0  0  0
  4 12  1  6  0  0  0
  4  2  1  0  0  0  0
  5 14  1  0  0  0  0
  6  2  1  0  0  0  0
  6 11  2  0  0  0  0
  7  6  1  0  0  0  0
  8 13  1  0  0  0  0
  8 10  1  0  0  0  0
  9  3  1  6  0  0  0
  9 12  1  0  0  0  0
  9 15  1  0  0  0  0
 10  4  1  0  0  0  0
 13 17  1  6  0  0  0
 13  3  1  0  0  0  0
 15 23  1  0  0  0  0
 15 14  2  0  0  0  0
 17 16  1  1  0  0  0
 18 22  1  6  0  0  0
 18 17  1  0  0  0  0
 19 20  1  0  0  0  0
 20 18  1  0  0  0  0
 21 22  1  0  0  0  0
 23 24  2  0  0  0  0
 25 23  1  0  0  0  0
 26 27  2  0  0  0  0
 26 25  1  0  0  0  0
 28 26  1  0  0  0  0
 29 28  1  0  0  0  0
 30 29  1  0  0  0  0
M  END
>  <MODEL>
2

>  <REMARK>
 VINA RESULT:      -6.3      2.597      6.076
  Name = 
  9 active torsions:
  status: ('A' for Active; 'I' for Inactive)
    1  A    between atoms: C_3  and  C_28
    2  A    between atoms: C_3  and  S_29
    3  A    between atoms: C_8  and  C_22
    4  A    between atoms: C_11  and  C_24
    5  A    between atoms: C_11  and  C_26
    6  A    between atoms: C_17  and  C_22
    7  A    between atoms: C_17  and  S_29
    8  A    between atoms: O_18  and  C_26
    9  A    between atoms: C_26  and  C_30
                            x       y       z     vdW  Elec       q    Type
                         _______ _______ _______ _____ _____    ______ ____

>  <TORSDO>
F 9

$$$$
=
 OpenBabel11052410543D

 30 32  0  0  1  0  0  0  0  0999 V2000
  160.6050  206.4410  154.0350 C   0  0  0  0  0  3  0  0  0  0  0  0
  160.9670  209.2340  153.6470 C   0  0  0  0  0  0  0  0  0  0  0  0
  162.0240  207.8100  149.8650 C   0  0  0  0  0  2  0  0  0  0  0  0
  161.8970  208.2460  153.0590 C   0  0  1  0  0  3  0  0  0  0  0  0
  160.5380  210.3490  152.9930 C   0  0  0  0  0  3  0  0  0  0  0  0
  160.2600  208.7700  154.8580 C   0  0  0  0  0  0  0  0  0  0  0  0
  160.3710  207.3150  155.2510 C   0  0  0  0  0  2  0  0  0  0  0  0
  161.4700  206.0350  151.7430 C   0  0  0  0  0  2  0  0  0  0  0  0
  162.3410  208.9860  150.7630 C   0  0  2  0  0  3  0  0  0  0  0  0
  161.3700  206.8630  153.0180 C   0  0  0  0  0  0  0  0  0  0  0  0
  159.5700  209.5600  155.5550 O   0  0  0  0  0  0  0  0  0  0  0  0
  162.4290  208.6270  151.9740 C   0  0  0  0  0  2  0  0  0  0  0  0
  160.9870  206.8030  150.4740 C   0  0  2  0  0  3  0  0  0  0  0  0
  160.8790  210.8490  151.6070 C   0  0  0  0  0  3  0  0  0  0  0  0
  161.6210  210.2830  150.6040 C   0  0  0  0  0  0  0  0  0  0  0  0
  160.1890  206.5370  148.2420 O   0  0  0  0  0  1  0  0  0  0  0  0
  160.4390  205.8340  149.4220 C   0  0  1  0  0  3  0  0  0  0  0  0
  161.3690  204.6410  149.1460 C   0  0  2  0  0  3  0  0  0  0  0  0
  161.5890  203.4750  147.2750 C   0  0  0  0  0  1  0  0  0  0  0  0
  161.8910  204.7110  147.8510 O   0  0  0  0  0  0  0  0  0  0  0  0
  160.7550  202.8800  150.6630 O   0  0  0  0  0  1  0  0  0  0  0  0
  160.6510  203.3080  149.3380 C   0  0  0  0  0  2  0  0  0  0  0  0
  161.7650  211.0480  149.3410 C   0  0  0  0  0  0  0  0  0  0  0  0
  162.3340  210.5210  148.3460 O   0  0  0  0  0  0  0  0  0  0  0  0
  161.0890  212.7020  149.1510 S   0  0  0  0  0  0  0  0  0  0  0  0
  161.1630  212.6480  147.3610 C   0  0  0  0  0  0  0  0  0  0  0  0
  160.2930  212.0690  146.7300 O   0  0  0  0  0  0  0  0  0  0  0  0
  162.2930  213.3170  146.6450 C   0  0  0  0  0  2  0  0  0  0  0  0
  162.0940  213.2700  145.1390 C   0  0  0  0  0  2  0  0  0  0  0  0
  163.3220  213.1170  144.4970 O   0  0  0  0  0  1  0  0  0  0  0  0
  1  7  1  0  0  0  0
  2  6  1  0  0  0  0
  3 13  1  0  0  0  0
  4 12  1  6  0  0  0
  4  2  1  0  0  0  0
  5  2  2  0  0  0  0
  6  7  1  0  0  0  0
  6 11  2  0  0  0  0
  8 10  1  0  0  0  0
  9  3  1  6  0  0  0
  9 12  1  0  0  0  0
 10  4  1  0  0  0  0
 10  1  2  0  0  0  0
 13 17  1  6  0  0  0
 13  8  1  0  0  0  0
 14  5  1  0  0  0  0
 15  9  1  0  0  0  0
 15 14  2  0  0  0  0
 17 16  1  6  0  0  0
 18 22  1  6  0  0  0
 18 17  1  0  0  0  0
 19 20  1  0  0  0  0
 20 18  1  0  0  0  0
 22 21  1  0  0  0  0
 23 15  1  0  0  0  0
 24 23  2  0  0  0  0
 25 23  1  0  0  0  0
 26 25  1  0  0  0  0
 27 26  2  0  0  0  0
 28 26  1  0  0  0  0
 29 28  1  0  0  0  0
 30 29  1  0  0  0  0
M  END
>  <MODEL>
3

>  <REMARK>
 VINA RESULT:      -6.3      2.972      7.637
  Name = 
  9 active torsions:
  status: ('A' for Active; 'I' for Inactive)
    1  A    between atoms: C_3  and  C_28
    2  A    between atoms: C_3  and  S_29
    3  A    between atoms: C_8  and  C_22
    4  A    between atoms: C_11  and  C_24
    5  A    between atoms: C_11  and  C_26
    6  A    between atoms: C_17  and  C_22
    7  A    between atoms: C_17  and  S_29
    8  A    between atoms: O_18  and  C_26
    9  A    between atoms: C_26  and  C_30
                            x       y       z     vdW  Elec       q    Type
                         _______ _______ _______ _____ _____    ______ ____

>  <TORSDO>
F 9

$$$$
=
 OpenBabel11052410543D

 30 32  0  0  1  0  0  0  0  0999 V2000
  161.1160  204.6120  152.2130 C   0  0  0  0  0  3  0  0  0  0  0  0
  161.4020  207.3760  152.8140 C   0  0  0  0  0  0  0  0  0  0  0  0
  162.2900  207.4030  148.7320 C   0  0  0  0  0  2  0  0  0  0  0  0
  162.3200  206.6910  151.8780 C   0  0  1  0  0  3  0  0  0  0  0  0
  160.9170  208.6330  152.6110 C   0  0  0  0  0  3  0  0  0  0  0  0
  160.7680  206.4930  153.8140 C   0  0  0  0  0  0  0  0  0  0  0  0
  160.9280  204.9980  153.6660 C   0  0  0  0  0  2  0  0  0  0  0  0
  161.8690  205.0650  149.8900 C   0  0  0  0  0  2  0  0  0  0  0  0
  162.6290  208.2020  149.9720 C   0  0  2  0  0  3  0  0  0  0  0  0
  161.8180  205.3900  151.3780 C   0  0  0  0  0  0  0  0  0  0  0  0
  160.0990  206.9640  154.7720 O   0  0  0  0  0  0  0  0  0  0  0  0
  162.7870  207.4460  150.9750 C   0  0  0  0  0  2  0  0  0  0  0  0
  161.3050  206.2090  148.9920 C   0  0  2  0  0  3  0  0  0  0  0  0
  161.1760  209.5970  151.4760 C   0  0  0  0  0  3  0  0  0  0  0  0
  161.8770  209.4460  150.3080 C   0  0  0  0  0  0  0  0  0  0  0  0
  160.0310  206.6650  147.0280 O   0  0  0  0  0  1  0  0  0  0  0  0
  160.7230  205.6500  147.6910 C   0  0  1  0  0  3  0  0  0  0  0  0
  161.7820  205.0310  146.7630 C   0  0  2  0  0  3  0  0  0  0  0  0
  161.5070  205.0320  144.5650 C   0  0  0  0  0  1  0  0  0  0  0  0
  161.9610  205.8210  145.6230 O   0  0  0  0  0  0  0  0  0  0  0  0
  161.1620  202.8200  147.4720 O   0  0  0  0  0  1  0  0  0  0  0  0
  161.4110  203.6100  146.3490 C   0  0  0  0  0  2  0  0  0  0  0  0
  161.9390  210.6080  149.3880 C   0  0  0  0  0  0  0  0  0  0  0  0
  162.5990  210.5300  148.3160 O   0  0  0  0  0  0  0  0  0  0  0  0
  161.0420  212.1290  149.7200 S   0  0  0  0  0  0  0  0  0  0  0  0
  161.2380  212.7410  148.0460 C   0  0  0  0  0  0  0  0  0  0  0  0
  162.1100  213.5550  147.7910 O   0  0  0  0  0  0  0  0  0  0  0  0
  160.3310  212.2450  146.9650 C   0  0  0  0  0  2  0  0  0  0  0  0
  159.0200  213.0150  146.9530 C   0  0  0  0  0  2  0  0  0  0  0  0
  158.1580  212.4800  145.9960 O   0  0  0  0  0  1  0  0  0  0  0  0
  1  7  1  0  0  0  0
  2  6  1  0  0  0  0
  3 13  1  0  0  0  0
  4 12  1  6  0  0  0
  4  2  1  0  0  0  0
  5  2  2  0  0  0  0
  6 11  2  0  0  0  0
  7  6  1  0  0  0  0
  8 10  1  0  0  0  0
  9  3  1  6  0  0  0
  9 15  1  0  0  0  0
  9 12  1  0  0  0  0
 10  4  1  0  0  0  0
 10  1  2  0  0  0  0
 13 17  1  6  0  0  0
 13  8  1  0  0  0  0
 14  5  1  0  0  0  0
 15 14  2  0  0  0  0
 17 16  1  6  0  0  0
 18 22  1  6  0  0  0
 18 17  1  0  0  0  0
 19 20  1  0  0  0  0
 20 18  1  0  0  0  0
 22 21  1  0  0  0  0
 23 25  1  0  0  0  0
 23 15  1  0  0  0  0
 24 23  2  0  0  0  0
 26 25  1  0  0  0  0
 27 26  2  0  0  0  0
 28 26  1  0  0  0  0
 29 28  1  0  0  0  0
 30 29  1  0  0  0  0
M  END
>  <MODEL>
4

>  <REMARK>
 VINA RESULT:      -6.0      2.993      8.053
  Name = 
  9 active torsions:
  status: ('A' for Active; 'I' for Inactive)
    1  A    between atoms: C_3  and  C_28
    2  A    between atoms: C_3  and  S_29
    3  A    between atoms: C_8  and  C_22
    4  A    between atoms: C_11  and  C_24
    5  A    between atoms: C_11  and  C_26
    6  A    between atoms: C_17  and  C_22
    7  A    between atoms: C_17  and  S_29
    8  A    between atoms: O_18  and  C_26
    9  A    between atoms: C_26  and  C_30
                            x       y       z     vdW  Elec       q    Type
                         _______ _______ _______ _____ _____    ______ ____

>  <TORSDO>
F 9

$$$$
=
 OpenBabel11052410543D

 30 32  0  0  1  0  0  0  0  0999 V2000
  160.7250  206.8490  153.9560 C   0  0  0  0  0  3  0  0  0  0  0  0
  161.0210  209.6170  153.3800 C   0  0  0  0  0  0  0  0  0  0  0  0
  162.0150  207.9710  149.6720 C   0  0  0  0  0  2  0  0  0  0  0  0
  161.9570  208.6110  152.8330 C   0  0  1  0  0  3  0  0  0  0  0  0
  160.5540  210.6790  152.6660 C   0  0  0  0  0  3  0  0  0  0  0  0
  160.3530  209.2200  154.6350 C   0  0  0  0  0  0  0  0  0  0  0  0
  160.5030  207.7960  155.1180 C   0  0  0  0  0  2  0  0  0  0  0  0
  161.5430  206.3120  151.6730 C   0  0  0  0  0  2  0  0  0  0  0  0
  162.3300  209.2080  150.4840 C   0  0  2  0  0  3  0  0  0  0  0  0
  161.4560  207.2180  152.8950 C   0  0  0  0  0  0  0  0  0  0  0  0
  159.6640  210.0410  155.2980 O   0  0  0  0  0  0  0  0  0  0  0  0
  162.4540  208.9300  151.7130 C   0  0  0  0  0  2  0  0  0  0  0  0
  161.0140  206.9860  150.3700 C   0  0  2  0  0  3  0  0  0  0  0  0
  160.8510  211.0940  151.2430 C   0  0  0  0  0  3  0  0  0  0  0  0
  161.5810  210.4790  150.2600 C   0  0  0  0  0  0  0  0  0  0  0  0
  160.0820  206.5770  148.2130 O   0  0  0  0  0  1  0  0  0  0  0  0
  160.4600  205.9410  149.3980 C   0  0  1  0  0  3  0  0  0  0  0  0
  161.4470  204.8000  149.0990 C   0  0  2  0  0  3  0  0  0  0  0  0
  161.5920  203.6900  147.1870 C   0  0  0  0  0  1  0  0  0  0  0  0
  161.9370  204.9000  147.7930 O   0  0  0  0  0  0  0  0  0  0  0  0
  160.9310  203.0220  150.6320 O   0  0  0  0  0  1  0  0  0  0  0  0
  160.8060  203.4300  149.3030 C   0  0  0  0  0  2  0  0  0  0  0  0
  161.6780  211.1620  148.9470 C   0  0  0  0  0  0  0  0  0  0  0  0
  161.6200  210.4910  147.8800 O   0  0  0  0  0  0  0  0  0  0  0  0
  161.8150  212.9490  148.8150 S   0  0  0  0  0  0  0  0  0  0  0  0
  160.0990  213.1570  148.3400 C   0  0  0  0  0  0  0  0  0  0  0  0
  159.6940  212.6880  147.2890 O   0  0  0  0  0  0  0  0  0  0  0  0
  159.1670  213.9050  149.2390 C   0  0  0  0  0  2  0  0  0  0  0  0
  157.7520  213.9080  148.6830 C   0  0  0  0  0  2  0  0  0  0  0  0
  156.9750  212.9560  149.3430 O   0  0  0  0  0  1  0  0  0  0  0  0
  1  7  1  0  0  0  0
  2  6  1  0  0  0  0
  3 13  1  0  0  0  0
  4 12  1  6  0  0  0
  4 10  1  0  0  0  0
  4  2  1  0  0  0  0
  5  2  2  0  0  0  0
  6  7  1  0  0  0  0
  6 11  2  0  0  0  0
  8 10  1  0  0  0  0
  9  3  1  6  0  0  0
  9 12  1  0  0  0  0
 10  1  2  0  0  0  0
 13 17  1  6  0  0  0
 13  8  1  0  0  0  0
 14  5  1  0  0  0  0
 15  9  1  0  0  0  0
 15 14  2  0  0  0  0
 17 16  1  6  0  0  0
 18 22  1  6  0  0  0
 18 17  1  0  0  0  0
 19 20  1  0  0  0  0
 20 18  1  0  0  0  0
 22 21  1  0  0  0  0
 23 15  1  0  0  0  0
 24 23  2  0  0  0  0
 25 23  1  0  0  0  0
 26 25  1  0  0  0  0
 26 28  1  0  0  0  0
 27 26  2  0  0  0  0
 29 28  1  0  0  0  0
 29 30  1  0  0  0  0
M  END
>  <MODEL>
5

>  <REMARK>
 VINA RESULT:      -5.6      3.129      7.790
  Name = 
  9 active torsions:
  status: ('A' for Active; 'I' for Inactive)
    1  A    between atoms: C_3  and  C_28
    2  A    between atoms: C_3  and  S_29
    3  A    between atoms: C_8  and  C_22
    4  A    between atoms: C_11  and  C_24
    5  A    between atoms: C_11  and  C_26
    6  A    between atoms: C_17  and  C_22
    7  A    between atoms: C_17  and  S_29
    8  A    between atoms: O_18  and  C_26
    9  A    between atoms: C_26  and  C_30
                            x       y       z     vdW  Elec       q    Type
                         _______ _______ _______ _____ _____    ______ ____

>  <TORSDO>
F 9

$$$$
=
 OpenBabel11052410543D

 30 32  0  0  1  0  0  0  0  0999 V2000
  161.1490  205.5950  152.6080 C   0  0  0  0  0  3  0  0  0  0  0  0
  161.1550  203.8640  150.3530 C   0  0  0  0  0  0  0  0  0  0  0  0
  161.0940  207.5790  148.4440 C   0  0  0  0  0  2  0  0  0  0  0  0
  160.3480  205.1030  150.3720 C   0  0  1  0  0  3  0  0  0  0  0  0
  161.8480  203.4320  149.2620 C   0  0  0  0  0  3  0  0  0  0  0  0
  161.4470  203.2980  151.6850 C   0  0  0  0  0  0  0  0  0  0  0  0
  161.1040  204.1110  152.9110 C   0  0  0  0  0  2  0  0  0  0  0  0
  160.9360  207.5430  151.0810 C   0  0  0  0  0  2  0  0  0  0  0  0
  160.6390  206.1610  148.1790 C   0  0  2  0  0  3  0  0  0  0  0  0
  160.7430  206.0700  151.4220 C   0  0  0  0  0  0  0  0  0  0  0  0
  161.9770  202.1620  151.8110 O   0  0  0  0  0  0  0  0  0  0  0  0
  160.1800  205.6230  149.2290 C   0  0  0  0  0  2  0  0  0  0  0  0
  161.8240  207.7690  149.8190 C   0  0  2  0  0  3  0  0  0  0  0  0
  161.9580  204.0410  147.8830 C   0  0  0  0  0  3  0  0  0  0  0  0
  161.4840  205.2250  147.3810 C   0  0  0  0  0  0  0  0  0  0  0  0
  162.6740  209.6440  148.6150 O   0  0  0  0  0  1  0  0  0  0  0  0
  162.5610  209.1080  149.9000 C   0  0  1  0  0  3  0  0  0  0  0  0
  161.8900  210.1200  150.8430 C   0  0  2  0  0  3  0  0  0  0  0  0
  160.6830  211.9770  150.9070 C   0  0  0  0  0  1  0  0  0  0  0  0
  161.7130  211.3510  150.2020 O   0  0  0  0  0  0  0  0  0  0  0  0
  161.8850  210.1450  153.2470 O   0  0  0  0  0  1  0  0  0  0  0  0
  162.6950  210.3210  152.1240 C   0  0  0  0  0  2  0  0  0  0  0  0
  161.7710  205.5330  145.9590 C   0  0  0  0  0  0  0  0  0  0  0  0
  162.9650  205.6120  145.5590 O   0  0  0  0  0  0  0  0  0  0  0  0
  160.4590  205.7390  144.7490 S   0  0  0  0  0  0  0  0  0  0  0  0
  160.1160  203.9820  144.6560 C   0  0  0  0  0  0  0  0  0  0  0  0
  159.0830  203.5870  144.1420 O   0  0  0  0  0  0  0  0  0  0  0  0
  161.1040  203.0040  145.2090 C   0  0  0  0  0  2  0  0  0  0  0  0
  160.4710  201.6360  145.4060 C   0  0  0  0  0  2  0  0  0  0  0  0
  160.8540  201.1020  146.6360 O   0  0  0  0  0  1  0  0  0  0  0  0
  1  7  1  0  0  0  0
  2  4  1  0  0  0  0
  2  6  1  0  0  0  0
  3 13  1  0  0  0  0
  4 12  1  6  0  0  0
  4 10  1  0  0  0  0
  5  2  2  0  0  0  0
  6 11  2  0  0  0  0
  6  7  1  0  0  0  0
  8 10  1  0  0  0  0
  9  3  1  1  0  0  0
  9 12  1  0  0  0  0
 10  1  2  0  0  0  0
 13 17  1  6  0  0  0
 13  8  1  0  0  0  0
 14  5  1  0  0  0  0
 15 14  2  0  0  0  0
 15  9  1  0  0  0  0
 17 16  1  6  0  0  0
 17 18  1  0  0  0  0
 18 22  1  1  0  0  0
 20 18  1  0  0  0  0
 20 19  1  0  0  0  0
 22 21  1  0  0  0  0
 23 15  1  0  0  0  0
 24 23  2  0  0  0  0
 25 23  1  0  0  0  0
 26 25  1  0  0  0  0
 26 28  1  0  0  0  0
 27 26  2  0  0  0  0
 28 29  1  0  0  0  0
 29 30  1  0  0  0  0
M  END
>  <MODEL>
6

>  <REMARK>
 VINA RESULT:      -5.3      2.742      5.129
  Name = 
  9 active torsions:
  status: ('A' for Active; 'I' for Inactive)
    1  A    between atoms: C_3  and  C_28
    2  A    between atoms: C_3  and  S_29
    3  A    between atoms: C_8  and  C_22
    4  A    between atoms: C_11  and  C_24
    5  A    between atoms: C_11  and  C_26
    6  A    between atoms: C_17  and  C_22
    7  A    between atoms: C_17  and  S_29
    8  A    between atoms: O_18  and  C_26
    9  A    between atoms: C_26  and  C_30
                            x       y       z     vdW  Elec       q    Type
                         _______ _______ _______ _____ _____    ______ ____

>  <TORSDO>
F 9

$$$$
=
 OpenBabel11052410543D

 30 32  0  0  1  0  0  0  0  0999 V2000
  161.5540  207.1280  147.9200 C   0  0  0  0  0  3  0  0  0  0  0  0
  161.3350  206.5660  150.6980 C   0  0  0  0  0  0  0  0  0  0  0  0
  162.2460  210.6410  150.8280 C   0  0  0  0  0  2  0  0  0  0  0  0
  162.3700  207.4840  150.1760 C   0  0  1  0  0  3  0  0  0  0  0  0
  160.6350  206.7930  151.8450 C   0  0  0  0  0  3  0  0  0  0  0  0
  160.8580  205.5590  149.7290 C   0  0  0  0  0  0  0  0  0  0  0  0
  161.2850  205.6820  148.2850 C   0  0  0  0  0  2  0  0  0  0  0  0
  162.2390  209.4510  148.4690 C   0  0  0  0  0  2  0  0  0  0  0  0
  162.4240  209.4110  151.6920 C   0  0  2  0  0  3  0  0  0  0  0  0
  162.1150  207.9690  148.8000 C   0  0  0  0  0  0  0  0  0  0  0  0
  160.1060  204.6140  150.0860 O   0  0  0  0  0  0  0  0  0  0  0  0
  162.7040  208.3950  150.9900 C   0  0  0  0  0  2  0  0  0  0  0  0
  161.4890  210.3710  149.4810 C   0  0  2  0  0  3  0  0  0  0  0  0
  160.7290  207.9400  152.8250 C   0  0  0  0  0  3  0  0  0  0  0  0
  161.4580  209.1000  152.7850 C   0  0  0  0  0  0  0  0  0  0  0  0
  160.8110  212.6370  149.7900 O   0  0  0  0  0  1  0  0  0  0  0  0
  161.0300  211.6680  148.8080 C   0  0  1  0  0  3  0  0  0  0  0  0
  162.0180  212.1920  147.7520 C   0  0  2  0  0  3  0  0  0  0  0  0
  162.6950  214.2800  147.4540 C   0  0  0  0  0  1  0  0  0  0  0  0
  162.8470  213.1780  148.2970 O   0  0  0  0  0  0  0  0  0  0  0  0
  160.0090  212.2150  146.4320 O   0  0  0  0  0  1  0  0  0  0  0  0
  161.2950  212.7480  146.5290 C   0  0  0  0  0  2  0  0  0  0  0  0
  161.3210  210.0370  153.9270 C   0  0  0  0  0  0  0  0  0  0  0  0
  162.3200  210.6960  154.3260 O   0  0  0  0  0  0  0  0  0  0  0  0
  159.7420  210.3200  154.7380 S   0  0  0  0  0  0  0  0  0  0  0  0
  159.7690  212.0840  154.4190 C   0  0  0  0  0  0  0  0  0  0  0  0
  159.8740  212.8710  155.3450 O   0  0  0  0  0  0  0  0  0  0  0  0
  159.6640  212.5840  153.0140 C   0  0  0  0  0  2  0  0  0  0  0  0
  158.2230  212.5640  152.5300 C   0  0  0  0  0  2  0  0  0  0  0  0
  158.0150  213.5830  151.6000 O   0  0  0  0  0  1  0  0  0  0  0  0
  1  7  1  0  0  0  0
  1 10  2  0  0  0  0
  2  5  2  0  0  0  0
  4  2  1  0  0  0  0
  4 12  1  1  0  0  0
  5 14  1  0  0  0  0
  6 11  2  0  0  0  0
  6  2  1  0  0  0  0
  7  6  1  0  0  0  0
  8 10  1  0  0  0  0
  8 13  1  0  0  0  0
  9  3  1  6  0  0  0
  9 15  1  0  0  0  0
 10  4  1  0  0  0  0
 12  9  1  0  0  0  0
 13 17  1  6  0  0  0
 13  3  1  0  0  0  0
 15 14  2  0  0  0  0
 15 23  1  0  0  0  0
 17 16  1  1  0  0  0
 18 22  1  6  0  0  0
 18 20  1  0  0  0  0
 18 17  1  0  0  0  0
 19 20  1  0  0  0  0
 21 22  1  0  0  0  0
 23 24  2  0  0  0  0
 23 25  1  0  0  0  0
 26 25  1  0  0  0  0
 26 27  2  0  0  0  0
 28 26  1  0  0  0  0
 29 28  1  0  0  0  0
 30 29  1  0  0  0  0
M  END
>  <MODEL>
7

>  <REMARK>
 VINA RESULT:      -5.3      3.044      7.600
  Name = 
  9 active torsions:
  status: ('A' for Active; 'I' for Inactive)
    1  A    between atoms: C_3  and  C_28
    2  A    between atoms: C_3  and  S_29
    3  A    between atoms: C_8  and  C_22
    4  A    between atoms: C_11  and  C_24
    5  A    between atoms: C_11  and  C_26
    6  A    between atoms: C_17  and  C_22
    7  A    between atoms: C_17  and  S_29
    8  A    between atoms: O_18  and  C_26
    9  A    between atoms: C_26  and  C_30
                            x       y       z     vdW  Elec       q    Type
                         _______ _______ _______ _____ _____    ______ ____

>  <TORSDO>
F 9

$$$$
=
 OpenBabel11052410543D

 30 32  0  0  1  0  0  0  0  0999 V2000
  161.1780  203.4780  149.1870 C   0  0  0  0  0  3  0  0  0  0  0  0
  161.8560  205.7850  147.6710 C   0  0  0  0  0  0  0  0  0  0  0  0
  160.7510  207.5640  151.2850 C   0  0  0  0  0  2  0  0  0  0  0  0
  160.7030  205.7810  148.5970 C   0  0  1  0  0  3  0  0  0  0  0  0
  162.7110  206.8370  147.5340 C   0  0  0  0  0  3  0  0  0  0  0  0
  162.2320  204.4550  147.1490 C   0  0  0  0  0  0  0  0  0  0  0  0
  161.5810  203.2300  147.7480 C   0  0  0  0  0  2  0  0  0  0  0  0
  160.4590  204.9470  151.0560 C   0  0  0  0  0  2  0  0  0  0  0  0
  160.7770  207.9100  149.8120 C   0  0  2  0  0  3  0  0  0  0  0  0
  160.7150  204.6730  149.5790 C   0  0  0  0  0  0  0  0  0  0  0  0
  163.0820  204.3310  146.2280 O   0  0  0  0  0  0  0  0  0  0  0  0
  160.4490  206.9150  149.1020 C   0  0  0  0  0  2  0  0  0  0  0  0
  161.3040  206.1340  151.6140 C   0  0  2  0  0  3  0  0  0  0  0  0
  162.7060  208.1820  148.2230 C   0  0  0  0  0  3  0  0  0  0  0  0
  161.9160  208.6760  149.2280 C   0  0  0  0  0  0  0  0  0  0  0  0
  162.9580  205.8280  153.3060 O   0  0  0  0  0  1  0  0  0  0  0  0
  161.5810  205.9530  153.1090 C   0  0  1  0  0  3  0  0  0  0  0  0
  161.0190  207.0920  153.9770 C   0  0  2  0  0  3  0  0  0  0  0  0
  161.1430  209.2620  154.4050 C   0  0  0  0  0  1  0  0  0  0  0  0
  161.9180  208.1620  154.0310 O   0  0  0  0  0  0  0  0  0  0  0  0
  159.3890  206.9530  155.7390 O   0  0  0  0  0  1  0  0  0  0  0  0
  160.7000  206.6200  155.3930 C   0  0  0  0  0  2  0  0  0  0  0  0
  162.1760  210.0620  149.6880 C   0  0  0  0  0  0  0  0  0  0  0  0
  161.9610  210.3790  150.8900 O   0  0  0  0  0  0  0  0  0  0  0  0
  162.8570  211.3130  148.5930 S   0  0  0  0  0  0  0  0  0  0  0  0
  161.3000  212.1870  148.4410 C   0  0  0  0  0  0  0  0  0  0  0  0
  160.8670  212.8350  149.3800 O   0  0  0  0  0  0  0  0  0  0  0  0
  160.5360  212.1220  147.1560 C   0  0  0  0  0  2  0  0  0  0  0  0
  160.8620  213.3080  146.2630 C   0  0  0  0  0  2  0  0  0  0  0  0
  161.8370  212.9530  145.3300 O   0  0  0  0  0  1  0  0  0  0  0  0
  1 10  2  0  0  0  0
  2  4  1  0  0  0  0
  3 13  1  0  0  0  0
  4 12  1  1  0  0  0
  4 10  1  0  0  0  0
  5  2  2  0  0  0  0
  5 14  1  0  0  0  0
  6  2  1  0  0  0  0
  6  7  1  0  0  0  0
  7  1  1  0  0  0  0
  8 13  1  0  0  0  0
  9 12  1  6  0  0  0
  9  3  1  0  0  0  0
 10  8  1  0  0  0  0
 11  6  2  0  0  0  0
 13 17  1  1  0  0  0
 14 15  2  0  0  0  0
 15 23  1  0  0  0  0
 15  9  1  0  0  0  0
 17 16  1  6  0  0  0
 17 18  1  0  0  0  0
 18 20  1  0  0  0  0
 18 22  1  1  0  0  0
 20 19  1  0  0  0  0
 22 21  1  0  0  0  0
 23 24  2  0  0  0  0
 25 23  1  0  0  0  0
 26 25  1  0  0  0  0
 26 27  2  0  0  0  0
 28 26  1  0  0  0  0
 29 28  1  0  0  0  0
 30 29  1  0  0  0  0
M  END
>  <MODEL>
8

>  <REMARK>
 VINA RESULT:      -5.3      2.850      6.144
  Name = 
  9 active torsions:
  status: ('A' for Active; 'I' for Inactive)
    1  A    between atoms: C_3  and  C_28
    2  A    between atoms: C_3  and  S_29
    3  A    between atoms: C_8  and  C_22
    4  A    between atoms: C_11  and  C_24
    5  A    between atoms: C_11  and  C_26
    6  A    between atoms: C_17  and  C_22
    7  A    between atoms: C_17  and  S_29
    8  A    between atoms: O_18  and  C_26
    9  A    between atoms: C_26  and  C_30
                            x       y       z     vdW  Elec       q    Type
                         _______ _______ _______ _____ _____    ______ ____

>  <TORSDO>
F 9

$$$$
=
 OpenBabel11052410543D

 30 32  0  0  1  0  0  0  0  0999 V2000
  161.6180  207.3520  147.9310 C   0  0  0  0  0  3  0  0  0  0  0  0
  161.4550  206.8040  150.7160 C   0  0  0  0  0  0  0  0  0  0  0  0
  162.1000  210.9300  150.8030 C   0  0  0  0  0  2  0  0  0  0  0  0
  162.4240  207.7820  150.1780 C   0  0  1  0  0  3  0  0  0  0  0  0
  160.7490  206.9950  151.8660 C   0  0  0  0  0  3  0  0  0  0  0  0
  161.0380  205.7580  149.7600 C   0  0  0  0  0  0  0  0  0  0  0  0
  161.4460  205.8950  148.3110 C   0  0  0  0  0  2  0  0  0  0  0  0
  162.1540  209.7200  148.4540 C   0  0  0  0  0  2  0  0  0  0  0  0
  162.3630  209.7230  151.6760 C   0  0  2  0  0  3  0  0  0  0  0  0
  162.1290  208.2360  148.7990 C   0  0  0  0  0  0  0  0  0  0  0  0
  160.3520  204.7690  150.1300 O   0  0  0  0  0  0  0  0  0  0  0  0
  162.7040  208.7210  150.9810 C   0  0  0  0  0  2  0  0  0  0  0  0
  161.3520  210.5990  149.4640 C   0  0  2  0  0  3  0  0  0  0  0  0
  160.7750  208.1550  152.8340 C   0  0  0  0  0  3  0  0  0  0  0  0
  161.4270  209.3600  152.7790 C   0  0  0  0  0  0  0  0  0  0  0  0
  160.8460  212.9190  149.6890 O   0  0  0  0  0  1  0  0  0  0  0  0
  160.8060  211.8560  148.7830 C   0  0  1  0  0  3  0  0  0  0  0  0
  161.5540  212.2280  147.4920 C   0  0  2  0  0  3  0  0  0  0  0  0
  162.2850  214.2090  146.8220 C   0  0  0  0  0  1  0  0  0  0  0  0
  162.5320  213.1930  147.7480 O   0  0  0  0  0  0  0  0  0  0  0  0
  159.2740  212.5820  146.8150 O   0  0  0  0  0  1  0  0  0  0  0  0
  160.6020  212.7360  146.4130 C   0  0  0  0  0  2  0  0  0  0  0  0
  161.2370  210.2960  153.9140 C   0  0  0  0  0  0  0  0  0  0  0  0
  162.2300  210.6760  154.5920 O   0  0  0  0  0  0  0  0  0  0  0  0
  159.6230  210.9710  154.3260 S   0  0  0  0  0  0  0  0  0  0  0  0
  159.6460  210.3040  155.9900 C   0  0  0  0  0  0  0  0  0  0  0  0
  159.5790  211.0530  156.9500 O   0  0  0  0  0  0  0  0  0  0  0  0
  159.7430  208.8250  156.1930 C   0  0  0  0  0  2  0  0  0  0  0  0
  160.7730  208.4840  157.2570 C   0  0  0  0  0  2  0  0  0  0  0  0
  161.9690  208.0870  156.6580 O   0  0  0  0  0  1  0  0  0  0  0  0
  1  7  1  0  0  0  0
  1 10  2  0  0  0  0
  2  5  2  0  0  0  0
  4  2  1  0  0  0  0
  4 12  1  1  0  0  0
  5 14  1  0  0  0  0
  6 11  2  0  0  0  0
  6  2  1  0  0  0  0
  7  6  1  0  0  0  0
  8 10  1  0  0  0  0
  8 13  1  0  0  0  0
  9  3  1  6  0  0  0
  9 15  1  0  0  0  0
 10  4  1  0  0  0  0
 12  9  1  0  0  0  0
 13 17  1  6  0  0  0
 13  3  1  0  0  0  0
 15 14  2  0  0  0  0
 15 23  1  0  0  0  0
 17 16  1  1  0  0  0
 18 22  1  6  0  0  0
 18 20  1  0  0  0  0
 18 17  1  0  0  0  0
 19 20  1  0  0  0  0
 22 21  1  0  0  0  0
 23 25  1  0  0  0  0
 23 24  2  0  0  0  0
 25 26  1  0  0  0  0
 26 28  1  0  0  0  0
 26 27  2  0  0  0  0
 28 29  1  0  0  0  0
 30 29  1  0  0  0  0
M  END
>  <MODEL>
9

>  <REMARK>
 VINA RESULT:      -5.2      2.886      7.536
  Name = 
  9 active torsions:
  status: ('A' for Active; 'I' for Inactive)
    1  A    between atoms: C_3  and  C_28
    2  A    between atoms: C_3  and  S_29
    3  A    between atoms: C_8  and  C_22
    4  A    between atoms: C_11  and  C_24
    5  A    between atoms: C_11  and  C_26
    6  A    between atoms: C_17  and  C_22
    7  A    between atoms: C_17  and  S_29
    8  A    between atoms: O_18  and  C_26
    9  A    between atoms: C_26  and  C_30
                            x       y       z     vdW  Elec       q    Type
                         _______ _______ _______ _____ _____    ______ ____

>  <TORSDO>
F 9

$$$$
