=
 OpenBabel11052409463D

 63 69  0  0  1  0  0  0  0  0999 V2000
  161.0790  206.9750  148.3230 C   0  0  1  0  0  3  0  0  0  0  0  0
  161.8960  208.3000  150.4870 S   0  0  0  0  0  0  0  0  0  0  0  0
  161.5660  209.2600  148.9830 C   0  0  2  0  0  3  0  0  0  0  0  0
  161.4610  206.6610  149.7300 C   0  0  1  0  0  3  0  0  0  0  0  0
  161.6170  208.2750  147.8270 C   0  0  0  0  0  2  0  0  0  0  0  0
  160.8760  206.3690  146.1400 C   0  0  0  0  0  1  0  0  0  0  0  0
  161.1940  205.9060  147.4730 O   0  0  0  0  0  0  0  0  0  0  0  0
  160.5720  205.5890  150.4890 C   0  0  2  0  0  3  0  0  0  0  0  0
  160.2430  206.1190  151.8140 N   0  0  0  0  0  2  0  0  0  0  0  0
  161.2900  206.2440  152.7620 C   0  0  2  0  0  3  0  0  0  0  0  0
  160.9180  205.4870  154.0000 C   0  0  0  0  0  2  0  0  0  0  0  0
  160.8250  207.0050  153.9310 N   0  0  0  0  0  0  0  0  0  0  0  0
  161.8550  207.6450  154.8450 C   0  0  0  0  0  2  0  0  0  0  0  0
  160.5160  209.7370  154.0360 C   0  0  0  0  0  0  0  0  0  0  0  0
  161.6520  209.1620  154.8770 C   0  0  1  0  0  3  0  0  0  0  0  0
  159.9990  211.3150  155.7830 C   0  0  0  0  0  2  0  0  0  0  0  0
  161.4050  209.4380  156.2540 O   0  0  0  0  0  0  0  0  0  0  0  0
  160.0520  211.0040  154.3500 N   0  0  0  0  0  0  0  0  0  0  0  0
  159.9690  209.0990  153.0620 O   0  0  0  0  0  0  0  0  0  0  0  0
  161.2960  210.8220  156.4250 C   0  0  0  0  0  2  0  0  0  0  0  0
  159.9610  212.0610  153.3310 C   0  0  0  0  0  2  0  0  0  0  0  0
  158.4250  212.3710  151.5730 F   0  0  0  0  0  0  0  0  0  0  0  0
  158.5030  212.3420  152.9380 C   0  0  0  0  0  0  0  0  0  0  0  0
  158.0740  213.5410  153.4560 F   0  0  0  0  0  0  0  0  0  0  0  0
  157.6900  211.3410  153.4030 F   0  0  0  0  0  0  0  0  0  0  0  0
  161.3120  204.3140  150.6570 C   0  0  0  0  0  2  0  0  0  0  0  0
  160.8740  203.2150  149.6550 C   0  0  2  0  0  3  0  0  0  0  0  0
  160.3730  203.0670  147.3040 N   0  0  0  0  0  0  0  0  0  0  0  0
  161.0430  201.9710  147.1880 C   0  0  0  0  0  0  0  0  0  0  0  0
  161.6380  199.9610  147.9530 N   0  0  0  0  0  0  0  0  0  0  0  0
  161.4880  201.2870  148.3390 N   0  0  0  0  0  0  0  0  0  0  0  0
  161.5240  198.4620  146.0290 C   0  0  0  0  0  1  0  0  0  0  0  0
  161.0760  201.6940  149.6700 C   0  0  1  0  0  3  0  0  0  0  0  0
  161.3650  199.8300  146.7010 C   0  0  0  0  0  0  0  0  0  0  0  0
  162.0570  201.1650  150.7080 C   0  0  0  0  0  1  0  0  0  0  0  0
  160.9760  201.0720  146.0330 N   0  0  0  0  0  2  0  0  0  0  0  0
  160.3460  203.7760  148.5520 C   0  0  0  0  0  2  0  0  0  0  0  0
  162.5160  210.4240  148.5810 C   0  0  0  0  0  2  0  0  0  0  0  0
  161.4560  212.1520  149.7460 F   0  0  0  0  0  0  0  0  0  0  0  0
  163.3020  212.7530  148.5840 F   0  0  0  0  0  0  0  0  0  0  0  0
  162.1730  211.9090  148.6170 C   0  0  0  0  0  0  0  0  0  0  0  0
  161.3470  212.0270  147.3570 C   0  0  0  0  0  2  0  0  0  0  0  0
  161.4080  214.2580  146.4200 O   0  0  0  0  0  0  0  0  0  0  0  0
  161.6470  213.0610  146.2790 C   0  0  0  0  0  0  0  0  0  0  0  0
  162.4890  212.6670  145.1110 C   0  0  0  0  0  2  0  0  0  0  0  0
  161.5560  213.2470  141.3940 C   0  0  2  0  0  3  0  0  0  0  0  0
  160.1300  212.9940  140.8550 C   0  0  1  0  0  3  0  0  0  0  0  0
  162.5170  212.0860  141.0800 C   0  0  0  0  0  2  0  0  0  0  0  0
  162.1980  211.4700  139.7580 C   0  0  2  0  0  3  0  0  0  0  0  0
  163.2200  214.4510  143.6910 O   0  0  0  0  0  0  0  0  0  0  0  0
  160.9160  210.6180  140.0440 C   0  0  1  0  0  3  0  0  0  0  0  0
  161.3630  213.3750  142.8120 N   0  0  0  0  0  0  0  0  0  0  0  0
  163.3260  210.7600  139.3200 O   0  0  0  0  0  1  0  0  0  0  0  0
  162.3920  213.5040  143.8410 C   0  0  0  0  0  0  0  0  0  0  0  0
  159.7410  211.5720  140.3430 C   0  0  0  0  0  2  0  0  0  0  0  0
  158.0640  213.9980  141.7820 O   0  0  0  0  0  0  0  0  0  0  0  0
  159.9910  213.5710  143.1470 N   0  0  0  0  0  2  0  0  0  0  0  0
  159.2630  213.5290  141.9350 C   0  0  0  0  0  0  0  0  0  0  0  0
  160.5950  209.7800  138.9470 O   0  0  0  0  0  0  0  0  0  0  0  0
  160.9530  208.3960  139.1470 C   0  0  1  0  0  3  0  0  0  0  0  0
  161.5480  207.7340  137.9130 C   0  0  0  0  0  1  0  0  0  0  0  0
  161.7820  208.1120  140.3340 N   0  0  0  0  0  2  0  0  0  0  0  0
  162.6730  207.1190  140.0810 O   0  0  0  0  0  1  0  0  0  0  0  0
  1  7  1  6  0  0  0
  1  4  1  0  0  0  0
  3 38  1  6  0  0  0
  3  2  1  0  0  0  0
  4  2  1  0  0  0  0
  4  8  1  1  0  0  0
  5  1  1  0  0  0  0
  5  3  1  0  0  0  0
  6  7  1  0  0  0  0
  8 26  1  1  0  0  0
  8  9  1  0  0  0  0
 10  9  1  6  0  0  0
 10 12  1  0  0  0  0
 10 11  1  0  0  0  0
 12 11  1  0  0  0  0
 12 13  1  0  0  0  0
 14 18  1  0  0  0  0
 14 15  1  0  0  0  0
 15 13  1  1  0  0  0
 15 17  1  0  0  0  0
 16 20  1  0  0  0  0
 17 20  1  0  0  0  0
 18 16  1  0  0  0  0
 19 14  2  0  0  0  0
 21 18  1  0  0  0  0
 22 23  1  0  0  0  0
 23 21  1  0  0  0  0
 23 25  1  0  0  0  0
 23 24  1  0  0  0  0
 27 33  1  0  0  0  0
 27 26  1  6  0  0  0
 28 37  1  0  0  0  0
 29 28  2  0  0  0  0
 29 31  1  0  0  0  0
 30 31  1  0  0  0  0
 31 33  1  0  0  0  0
 32 34  1  0  0  0  0
 33 35  1  1  0  0  0
 34 30  2  0  0  0  0
 36 34  1  0  0  0  0
 36 29  1  0  0  0  0
 37 27  1  0  0  0  0
 38 41  1  0  0  0  0
 40 41  1  0  0  0  0
 41 39  1  0  0  0  0
 42 41  1  0  0  0  0
 44 43  2  0  0  0  0
 44 42  1  0  0  0  0
 45 44  1  0  0  0  0
 46 48  1  1  0  0  0
 46 52  1  0  0  0  0
 47 55  1  1  0  0  0
 47 46  1  0  0  0  0
 47 58  1  0  0  0  0
 49 53  1  1  0  0  0
 49 51  1  0  0  0  0
 49 48  1  0  0  0  0
 50 54  2  0  0  0  0
 51 59  1  6  0  0  0
 51 55  1  0  0  0  0
 52 57  1  0  0  0  0
 52 54  1  0  0  0  0
 54 45  1  0  0  0  0
 56 58  2  0  0  0  0
 58 57  1  0  0  0  0
 59 60  1  0  0  0  0
 60 61  1  6  0  0  0
 60 62  1  0  0  0  0
 63 62  1  0  0  0  0
M  END
>  <MODEL>
1

>  <REMARK>
 VINA RESULT:      -5.3      0.000      0.000
  Name = 
  19 active torsions:
  status: ('A' for Active; 'I' for Inactive)
    1  A    between atoms: N_1  and  C_2
    2  A    between atoms: C_2  and  O_29
    3  A    between atoms: C_3  and  O_36
    4  A    between atoms: C_4  and  C_55
    5  A    between atoms: C_7  and  C_35
    6  A    between atoms: C_7  and  N_44
    7  A    between atoms: N_9  and  C_23
    8  A    between atoms: N_9  and  C_37
    9  A    between atoms: C_22  and  O_29
   10  A    between atoms: C_24  and  C_39
   11  A    between atoms: C_30  and  C_48
   12  A    between atoms: C_32  and  C_62
   13  A    between atoms: C_37  and  C_54
   14  A    between atoms: C_37  and  C_55
   15  A    between atoms: C_39  and  N_45
   16  A    between atoms: C_48  and  C_63
   17  A    between atoms: C_52  and  C_53
   18  A    between atoms: C_52  and  C_62
   19  A    between atoms: C_53  and  C_63
                            x       y       z     vdW  Elec       q    Type
                         _______ _______ _______ _____ _____    ______ ____

>  <TORSDO>
F 19

$$$$
=
 OpenBabel11052409463D

 63 69  0  0  1  0  0  0  0  0999 V2000
  161.8730  211.5440  150.1650 C   0  0  1  0  0  3  0  0  0  0  0  0
  160.1730  211.2430  152.1970 S   0  0  0  0  0  0  0  0  0  0  0  0
  161.8030  210.4600  152.3360 C   0  0  2  0  0  3  0  0  0  0  0  0
  160.4860  211.9690  150.5170 C   0  0  1  0  0  3  0  0  0  0  0  0
  162.3470  210.3500  150.9220 C   0  0  0  0  0  2  0  0  0  0  0  0
  161.3940  210.4440  148.2340 C   0  0  0  0  0  1  0  0  0  0  0  0
  162.1210  211.5490  148.8180 O   0  0  0  0  0  0  0  0  0  0  0  0
  160.0820  213.4580  150.1510 C   0  0  2  0  0  3  0  0  0  0  0  0
  159.5310  214.0930  151.3500 N   0  0  0  0  0  2  0  0  0  0  0  0
  158.3760  213.5200  151.9390 C   0  0  2  0  0  3  0  0  0  0  0  0
  157.2190  214.4530  151.7480 C   0  0  0  0  0  2  0  0  0  0  0  0
  157.9370  214.3300  153.0840 N   0  0  0  0  0  0  0  0  0  0  0  0
  157.0280  213.6980  154.1230 C   0  0  0  0  0  2  0  0  0  0  0  0
  158.4760  211.8970  155.3410 C   0  0  0  0  0  0  0  0  0  0  0  0
  157.8450  213.2860  155.3500 C   0  0  1  0  0  3  0  0  0  0  0  0
  160.4590  212.7720  156.3930 C   0  0  0  0  0  2  0  0  0  0  0  0
  158.8750  214.2710  155.4110 O   0  0  0  0  0  0  0  0  0  0  0  0
  159.5270  211.6540  156.2100 N   0  0  0  0  0  0  0  0  0  0  0  0
  158.0840  210.9520  154.5610 O   0  0  0  0  0  0  0  0  0  0  0  0
  159.6420  214.0520  156.5610 C   0  0  0  0  0  2  0  0  0  0  0  0
  159.5080  210.5110  157.1350 C   0  0  0  0  0  2  0  0  0  0  0  0
  160.6020  209.5990  155.2600 F   0  0  0  0  0  0  0  0  0  0  0  0
  160.1260  209.2580  156.4960 C   0  0  0  0  0  0  0  0  0  0  0  0
  159.1940  208.2540  156.3770 F   0  0  0  0  0  0  0  0  0  0  0  0
  161.1700  208.8070  157.2610 F   0  0  0  0  0  0  0  0  0  0  0  0
  159.0500  213.4780  149.0860 C   0  0  0  0  0  2  0  0  0  0  0  0
  159.6340  213.7290  147.6710 C   0  0  2  0  0  3  0  0  0  0  0  0
  161.8020  214.1220  146.7000 N   0  0  0  0  0  0  0  0  0  0  0  0
  161.5620  213.3070  145.7300 C   0  0  0  0  0  0  0  0  0  0  0  0
  160.1890  212.4740  144.1810 N   0  0  0  0  0  0  0  0  0  0  0  0
  160.2550  212.8150  145.5250 N   0  0  0  0  0  0  0  0  0  0  0  0
  161.5170  212.3190  142.1380 C   0  0  0  0  0  1  0  0  0  0  0  0
  159.1250  213.3240  146.2810 C   0  0  1  0  0  3  0  0  0  0  0  0
  161.3270  212.6830  143.6130 C   0  0  0  0  0  0  0  0  0  0  0  0
  157.9820  212.3190  146.2590 C   0  0  0  0  0  1  0  0  0  0  0  0
  162.3600  213.2120  144.5050 N   0  0  0  0  0  2  0  0  0  0  0  0
  160.8530  214.2880  147.7650 C   0  0  0  0  0  2  0  0  0  0  0  0
  161.9290  209.0330  152.9440 C   0  0  0  0  0  2  0  0  0  0  0  0
  162.2500  206.7460  152.5810 F   0  0  0  0  0  0  0  0  0  0  0  0
  160.0980  207.3970  152.8340 F   0  0  0  0  0  0  0  0  0  0  0  0
  161.3690  207.7520  152.3380 C   0  0  0  0  0  0  0  0  0  0  0  0
  161.3110  208.1450  150.8790 C   0  0  0  0  0  2  0  0  0  0  0  0
  160.0440  206.2660  150.0270 O   0  0  0  0  0  0  0  0  0  0  0  0
  160.8180  207.1930  149.7970 C   0  0  0  0  0  0  0  0  0  0  0  0
  161.0700  207.5300  148.3650 C   0  0  0  0  0  2  0  0  0  0  0  0
  162.3730  204.4500  146.4060 C   0  0  2  0  0  3  0  0  0  0  0  0
  161.6620  203.9190  145.1410 C   0  0  1  0  0  3  0  0  0  0  0  0
  162.0230  203.6330  147.6630 C   0  0  0  0  0  2  0  0  0  0  0  0
  161.8350  202.1910  147.3300 C   0  0  2  0  0  3  0  0  0  0  0  0
  163.3480  206.9640  147.8980 O   0  0  0  0  0  0  0  0  0  0  0  0
  160.4270  202.1470  146.6440 C   0  0  1  0  0  3  0  0  0  0  0  0
  161.8870  205.7970  146.5260 N   0  0  0  0  0  0  0  0  0  0  0  0
  161.9700  201.4440  148.5090 O   0  0  0  0  0  1  0  0  0  0  0  0
  162.1340  206.7370  147.6160 C   0  0  0  0  0  0  0  0  0  0  0  0
  160.5130  202.8720  145.2860 C   0  0  0  0  0  2  0  0  0  0  0  0
  161.1330  205.2740  143.1360 O   0  0  0  0  0  0  0  0  0  0  0  0
  161.2570  206.2440  145.3280 N   0  0  0  0  0  2  0  0  0  0  0  0
  161.2900  205.1610  144.4190 C   0  0  0  0  0  0  0  0  0  0  0  0
  159.9820  200.8150  146.4580 O   0  0  0  0  0  0  0  0  0  0  0  0
  161.0150  199.9120  146.0080 C   0  0  1  0  0  3  0  0  0  0  0  0
  161.6740  199.1290  147.1340 C   0  0  0  0  0  1  0  0  0  0  0  0
  160.6430  199.0110  144.9020 N   0  0  0  0  0  2  0  0  0  0  0  0
  161.6940  198.2350  144.5300 O   0  0  0  0  0  1  0  0  0  0  0  0
  1  7  1  6  0  0  0
  1  4  1  0  0  0  0
  1  5  1  0  0  0  0
  2  3  1  0  0  0  0
  3 38  1  6  0  0  0
  4  8  1  1  0  0  0
  4  2  1  0  0  0  0
  5  3  1  0  0  0  0
  6  7  1  0  0  0  0
  8 26  1  6  0  0  0
  8  9  1  0  0  0  0
 10  9  1  6  0  0  0
 10 12  1  0  0  0  0
 11 10  1  0  0  0  0
 11 12  1  0  0  0  0
 12 13  1  0  0  0  0
 14 15  1  0  0  0  0
 14 18  1  0  0  0  0
 15 13  1  6  0  0  0
 15 17  1  0  0  0  0
 16 20  1  0  0  0  0
 17 20  1  0  0  0  0
 18 16  1  0  0  0  0
 18 21  1  0  0  0  0
 19 14  2  0  0  0  0
 22 23  1  0  0  0  0
 23 21  1  0  0  0  0
 23 25  1  0  0  0  0
 24 23  1  0  0  0  0
 27 37  1  0  0  0  0
 27 26  1  1  0  0  0
 28 37  1  0  0  0  0
 29 28  2  0  0  0  0
 30 31  1  0  0  0  0
 31 29  1  0  0  0  0
 31 33  1  0  0  0  0
 32 34  1  0  0  0  0
 33 35  1  1  0  0  0
 33 27  1  0  0  0  0
 34 30  2  0  0  0  0
 34 36  1  0  0  0  0
 36 29  1  0  0  0  0
 41 39  1  0  0  0  0
 41 40  1  0  0  0  0
 41 38  1  0  0  0  0
 42 41  1  0  0  0  0
 44 43  2  0  0  0  0
 44 42  1  0  0  0  0
 45 44  1  0  0  0  0
 46 52  1  0  0  0  0
 46 48  1  1  0  0  0
 47 55  1  1  0  0  0
 47 46  1  0  0  0  0
 49 48  1  0  0  0  0
 49 53  1  1  0  0  0
 51 59  1  6  0  0  0
 51 49  1  0  0  0  0
 52 54  1  0  0  0  0
 54 50  2  0  0  0  0
 54 45  1  0  0  0  0
 55 51  1  0  0  0  0
 56 58  2  0  0  0  0
 57 52  1  0  0  0  0
 58 47  1  0  0  0  0
 58 57  1  0  0  0  0
 60 59  1  0  0  0  0
 60 61  1  1  0  0  0
 62 60  1  0  0  0  0
 63 62  1  0  0  0  0
M  END
>  <MODEL>
2

>  <REMARK>
 VINA RESULT:      -3.7      3.489      8.717
  Name = 
  19 active torsions:
  status: ('A' for Active; 'I' for Inactive)
    1  A    between atoms: N_1  and  C_2
    2  A    between atoms: C_2  and  O_29
    3  A    between atoms: C_3  and  O_36
    4  A    between atoms: C_4  and  C_55
    5  A    between atoms: C_7  and  C_35
    6  A    between atoms: C_7  and  N_44
    7  A    between atoms: N_9  and  C_23
    8  A    between atoms: N_9  and  C_37
    9  A    between atoms: C_22  and  O_29
   10  A    between atoms: C_24  and  C_39
   11  A    between atoms: C_30  and  C_48
   12  A    between atoms: C_32  and  C_62
   13  A    between atoms: C_37  and  C_54
   14  A    between atoms: C_37  and  C_55
   15  A    between atoms: C_39  and  N_45
   16  A    between atoms: C_48  and  C_63
   17  A    between atoms: C_52  and  C_53
   18  A    between atoms: C_52  and  C_62
   19  A    between atoms: C_53  and  C_63
                            x       y       z     vdW  Elec       q    Type
                         _______ _______ _______ _____ _____    ______ ____

>  <TORSDO>
F 19

$$$$
=
 OpenBabel11052409463D

 63 69  0  0  1  0  0  0  0  0999 V2000
  160.0230  211.9160  151.9880 C   0  0  1  0  0  3  0  0  0  0  0  0
  161.6360  211.5400  149.8990 S   0  0  0  0  0  0  0  0  0  0  0  0
  161.1970  210.0910  150.8990 C   0  0  2  0  0  3  0  0  0  0  0  0
  160.6450  212.7410  150.9120 C   0  0  1  0  0  3  0  0  0  0  0  0
  160.7250  210.6250  152.2410 C   0  0  0  0  0  2  0  0  0  0  0  0
  160.6300  212.3610  154.1340 C   0  0  0  0  0  1  0  0  0  0  0  0
  159.6640  212.6400  153.0940 O   0  0  0  0  0  0  0  0  0  0  0  0
  159.7330  213.8550  150.2480 C   0  0  2  0  0  3  0  0  0  0  0  0
  158.7670  214.3150  151.2480 N   0  0  0  0  0  2  0  0  0  0  0  0
  157.5870  213.5530  151.4380 C   0  0  2  0  0  3  0  0  0  0  0  0
  156.4280  214.2930  150.8440 C   0  0  0  0  0  2  0  0  0  0  0  0
  156.6720  214.2560  152.3470 N   0  0  0  0  0  0  0  0  0  0  0  0
  155.5800  213.4640  153.0450 C   0  0  0  0  0  2  0  0  0  0  0  0
  157.0620  212.1350  154.7360 C   0  0  0  0  0  0  0  0  0  0  0  0
  155.9840  213.1870  154.4950 C   0  0  1  0  0  3  0  0  0  0  0  0
  158.0140  213.4870  156.4900 C   0  0  0  0  0  2  0  0  0  0  0  0
  156.4480  214.4530  154.9610 O   0  0  0  0  0  0  0  0  0  0  0  0
  157.7280  212.1530  155.9500 N   0  0  0  0  0  0  0  0  0  0  0  0
  157.3850  211.2460  153.8650 O   0  0  0  0  0  0  0  0  0  0  0  0
  156.7620  214.3470  156.3200 C   0  0  0  0  0  2  0  0  0  0  0  0
  157.8200  210.9490  156.7920 C   0  0  0  0  0  2  0  0  0  0  0  0
  159.2680  209.9550  155.2220 F   0  0  0  0  0  0  0  0  0  0  0  0
  159.1420  210.2010  156.5620 C   0  0  0  0  0  0  0  0  0  0  0  0
  159.1660  209.0170  157.2590 F   0  0  0  0  0  0  0  0  0  0  0  0
  160.1970  210.9760  156.9680 F   0  0  0  0  0  0  0  0  0  0  0  0
  158.9910  213.3050  149.0870 C   0  0  0  0  0  2  0  0  0  0  0  0
  159.6470  213.6430  147.7240 C   0  0  2  0  0  3  0  0  0  0  0  0
  161.8760  213.9440  146.8630 N   0  0  0  0  0  0  0  0  0  0  0  0
  161.6080  213.2510  145.8090 C   0  0  0  0  0  0  0  0  0  0  0  0
  160.2320  212.6960  144.1420 N   0  0  0  0  0  0  0  0  0  0  0  0
  160.2740  212.8950  145.5160 N   0  0  0  0  0  0  0  0  0  0  0  0
  161.6220  212.6290  142.1350 C   0  0  0  0  0  1  0  0  0  0  0  0
  159.1610  213.4220  146.2850 C   0  0  1  0  0  3  0  0  0  0  0  0
  161.4050  212.8610  143.6330 C   0  0  0  0  0  0  0  0  0  0  0  0
  157.9420  212.5250  146.1270 C   0  0  0  0  0  1  0  0  0  0  0  0
  162.4420  213.2110  144.6050 N   0  0  0  0  0  2  0  0  0  0  0  0
  160.9040  214.0840  147.9100 C   0  0  0  0  0  2  0  0  0  0  0  0
  162.2760  209.0210  151.2310 C   0  0  0  0  0  2  0  0  0  0  0  0
  160.7910  207.2600  150.8380 F   0  0  0  0  0  0  0  0  0  0  0  0
  162.9330  206.8800  150.2170 F   0  0  0  0  0  0  0  0  0  0  0  0
  162.0880  207.5100  151.1540 C   0  0  0  0  0  0  0  0  0  0  0  0
  162.4350  207.1210  152.5730 C   0  0  0  0  0  2  0  0  0  0  0  0
  160.9140  206.2630  154.2490 O   0  0  0  0  0  0  0  0  0  0  0  0
  161.6880  206.0270  153.3240 C   0  0  0  0  0  0  0  0  0  0  0  0
  161.6870  204.6400  152.7720 C   0  0  0  0  0  2  0  0  0  0  0  0
  160.3160  204.1150  149.1850 C   0  0  2  0  0  3  0  0  0  0  0  0
  161.0210  203.1970  148.1600 C   0  0  1  0  0  3  0  0  0  0  0  0
  160.6350  205.6030  148.9570 C   0  0  0  0  0  2  0  0  0  0  0  0
  160.7870  205.9020  147.5020 C   0  0  2  0  0  3  0  0  0  0  0  0
  159.3970  204.4110  152.1110 O   0  0  0  0  0  0  0  0  0  0  0  0
  162.1970  205.3220  147.1480 C   0  0  1  0  0  3  0  0  0  0  0  0
  160.8370  203.6730  150.4490 N   0  0  0  0  0  0  0  0  0  0  0  0
  160.6230  207.2830  147.3160 O   0  0  0  0  0  1  0  0  0  0  0  0
  160.6070  204.2700  151.7620 C   0  0  0  0  0  0  0  0  0  0  0  0
  162.1410  203.7840  147.2450 C   0  0  0  0  0  2  0  0  0  0  0  0
  161.6010  200.8210  148.5480 O   0  0  0  0  0  0  0  0  0  0  0  0
  161.4870  202.4080  150.3440 N   0  0  0  0  0  2  0  0  0  0  0  0
  161.4320  202.0310  148.9820 C   0  0  0  0  0  0  0  0  0  0  0  0
  162.6080  205.7140  145.8490 O   0  0  0  0  0  0  0  0  0  0  0  0
  161.7050  205.3000  144.8030 C   0  0  1  0  0  3  0  0  0  0  0  0
  160.3460  205.9820  144.8650 C   0  0  0  0  0  1  0  0  0  0  0  0
  162.2450  205.3510  143.4310 N   0  0  0  0  0  2  0  0  0  0  0  0
  161.3440  205.8940  142.5720 O   0  0  0  0  0  1  0  0  0  0  0  0
  1  5  1  0  0  0  0
  1  7  1  1  0  0  0
  2  3  1  0  0  0  0
  2  4  1  0  0  0  0
  3 38  1  1  0  0  0
  3  5  1  0  0  0  0
  4  8  1  6  0  0  0
  4  1  1  0  0  0  0
  7  6  1  0  0  0  0
  8 26  1  6  0  0  0
  8  9  1  0  0  0  0
 10  9  1  6  0  0  0
 10 12  1  0  0  0  0
 11 10  1  0  0  0  0
 11 12  1  0  0  0  0
 12 13  1  0  0  0  0
 14 18  1  0  0  0  0
 15 13  1  6  0  0  0
 15 14  1  0  0  0  0
 15 17  1  0  0  0  0
 17 20  1  0  0  0  0
 18 16  1  0  0  0  0
 18 21  1  0  0  0  0
 19 14  2  0  0  0  0
 20 16  1  0  0  0  0
 22 23  1  0  0  0  0
 23 21  1  0  0  0  0
 23 25  1  0  0  0  0
 23 24  1  0  0  0  0
 27 37  1  0  0  0  0
 27 26  1  1  0  0  0
 28 37  1  0  0  0  0
 29 28  2  0  0  0  0
 30 31  1  0  0  0  0
 31 29  1  0  0  0  0
 31 33  1  0  0  0  0
 32 34  1  0  0  0  0
 33 35  1  1  0  0  0
 33 27  1  0  0  0  0
 34 30  2  0  0  0  0
 34 36  1  0  0  0  0
 36 29  1  0  0  0  0
 39 41  1  0  0  0  0
 40 41  1  0  0  0  0
 41 38  1  0  0  0  0
 41 42  1  0  0  0  0
 42 44  1  0  0  0  0
 44 43  2  0  0  0  0
 45 44  1  0  0  0  0
 46 48  1  6  0  0  0
 46 52  1  0  0  0  0
 47 55  1  1  0  0  0
 47 58  1  0  0  0  0
 47 46  1  0  0  0  0
 49 53  1  1  0  0  0
 49 48  1  0  0  0  0
 51 59  1  6  0  0  0
 51 55  1  0  0  0  0
 51 49  1  0  0  0  0
 52 54  1  0  0  0  0
 54 50  2  0  0  0  0
 54 45  1  0  0  0  0
 56 58  2  0  0  0  0
 57 52  1  0  0  0  0
 58 57  1  0  0  0  0
 60 61  1  6  0  0  0
 60 59  1  0  0  0  0
 62 60  1  0  0  0  0
 63 62  1  0  0  0  0
M  END
>  <MODEL>
3

>  <REMARK>
 VINA RESULT:      -3.6      3.462      9.219
  Name = 
  19 active torsions:
  status: ('A' for Active; 'I' for Inactive)
    1  A    between atoms: N_1  and  C_2
    2  A    between atoms: C_2  and  O_29
    3  A    between atoms: C_3  and  O_36
    4  A    between atoms: C_4  and  C_55
    5  A    between atoms: C_7  and  C_35
    6  A    between atoms: C_7  and  N_44
    7  A    between atoms: N_9  and  C_23
    8  A    between atoms: N_9  and  C_37
    9  A    between atoms: C_22  and  O_29
   10  A    between atoms: C_24  and  C_39
   11  A    between atoms: C_30  and  C_48
   12  A    between atoms: C_32  and  C_62
   13  A    between atoms: C_37  and  C_54
   14  A    between atoms: C_37  and  C_55
   15  A    between atoms: C_39  and  N_45
   16  A    between atoms: C_48  and  C_63
   17  A    between atoms: C_52  and  C_53
   18  A    between atoms: C_52  and  C_62
   19  A    between atoms: C_53  and  C_63
                            x       y       z     vdW  Elec       q    Type
                         _______ _______ _______ _____ _____    ______ ____

>  <TORSDO>
F 19

$$$$
=
 OpenBabel11052409463D

 63 69  0  0  1  0  0  0  0  0999 V2000
  162.2790  208.7610  148.9750 C   0  0  1  0  0  3  0  0  0  0  0  0
  160.5820  206.7450  149.3800 S   0  0  0  0  0  0  0  0  0  0  0  0
  161.5310  206.7520  147.8340 C   0  0  2  0  0  3  0  0  0  0  0  0
  161.3190  208.3210  150.0290 C   0  0  1  0  0  3  0  0  0  0  0  0
  162.0030  208.1820  147.6290 C   0  0  0  0  0  2  0  0  0  0  0  0
  161.5680  210.7810  148.2100 C   0  0  0  0  0  1  0  0  0  0  0  0
  162.5590  210.1010  149.0160 O   0  0  0  0  0  0  0  0  0  0  0  0
  161.7930  208.4750  151.5350 C   0  0  2  0  0  3  0  0  0  0  0  0
  160.6470  208.2040  152.4070 N   0  0  0  0  0  2  0  0  0  0  0  0
  160.6760  207.0310  153.2030 C   0  0  2  0  0  3  0  0  0  0  0  0
  162.1030  206.6580  153.4690 C   0  0  0  0  0  2  0  0  0  0  0  0
  161.2580  205.9170  152.4420 N   0  0  0  0  0  0  0  0  0  0  0  0
  160.9860  204.4950  152.9000 C   0  0  0  0  0  2  0  0  0  0  0  0
  161.5280  203.6670  150.4820 C   0  0  0  0  0  0  0  0  0  0  0  0
  160.6090  203.6240  151.6990 C   0  0  1  0  0  3  0  0  0  0  0  0
  161.2470  201.2940  150.1660 C   0  0  0  0  0  2  0  0  0  0  0  0
  160.5970  202.3020  152.2360 O   0  0  0  0  0  0  0  0  0  0  0  0
  161.4560  202.6210  149.5770 N   0  0  0  0  0  0  0  0  0  0  0  0
  162.3670  204.6180  150.2670 O   0  0  0  0  0  0  0  0  0  0  0  0
  160.1690  201.4160  151.2420 C   0  0  0  0  0  2  0  0  0  0  0  0
  161.2500  202.8650  148.1400 C   0  0  0  0  0  2  0  0  0  0  0  0
  160.7030  201.8480  146.0870 F   0  0  0  0  0  0  0  0  0  0  0  0
  160.6710  201.6280  147.4370 C   0  0  0  0  0  0  0  0  0  0  0  0
  159.3780  201.3910  147.8400 F   0  0  0  0  0  0  0  0  0  0  0  0
  161.4330  200.5250  147.7210 F   0  0  0  0  0  0  0  0  0  0  0  0
  162.2760  209.8520  151.7980 C   0  0  0  0  0  2  0  0  0  0  0  0
  161.2770  210.7050  152.6220 C   0  0  2  0  0  3  0  0  0  0  0  0
  159.0360  211.5450  152.3590 N   0  0  0  0  0  0  0  0  0  0  0  0
  158.7270  211.2200  153.5690 C   0  0  0  0  0  0  0  0  0  0  0  0
  159.2290  211.0950  155.7390 N   0  0  0  0  0  0  0  0  0  0  0  0
  159.7340  210.8250  154.4740 N   0  0  0  0  0  0  0  0  0  0  0  0
  157.2400  211.8760  156.9210 C   0  0  0  0  0  1  0  0  0  0  0  0
  161.1430  210.9240  154.1350 C   0  0  1  0  0  3  0  0  0  0  0  0
  158.0310  211.5630  155.6480 C   0  0  0  0  0  0  0  0  0  0  0  0
  161.9620  209.9910  155.0160 C   0  0  0  0  0  1  0  0  0  0  0  0
  157.5330  211.6880  154.2770 N   0  0  0  0  0  2  0  0  0  0  0  0
  160.3220  211.2060  151.8190 C   0  0  0  0  0  2  0  0  0  0  0  0
  160.8450  206.3430  146.4990 C   0  0  0  0  0  2  0  0  0  0  0  0
  162.8120  205.4330  145.6250 F   0  0  0  0  0  0  0  0  0  0  0  0
  160.9400  204.2100  145.2830 F   0  0  0  0  0  0  0  0  0  0  0  0
  161.4760  205.5090  145.3910 C   0  0  0  0  0  0  0  0  0  0  0  0
  161.1370  206.3580  144.1860 C   0  0  0  0  0  2  0  0  0  0  0  0
  163.2300  206.3370  142.9710 O   0  0  0  0  0  0  0  0  0  0  0  0
  162.0030  206.3780  142.9330 C   0  0  0  0  0  0  0  0  0  0  0  0
  161.3550  206.1860  141.6020 C   0  0  0  0  0  2  0  0  0  0  0  0
  161.2600  209.0310  138.9710 C   0  0  2  0  0  3  0  0  0  0  0  0
  161.1180  210.5170  139.3700 C   0  0  1  0  0  3  0  0  0  0  0  0
  159.9260  208.4170  138.5080 C   0  0  0  0  0  2  0  0  0  0  0  0
  159.0970  209.4230  137.7820 C   0  0  2  0  0  3  0  0  0  0  0  0
  162.6600  206.3590  139.6020 O   0  0  0  0  0  0  0  0  0  0  0  0
  158.5320  210.3350  138.9230 C   0  0  1  0  0  3  0  0  0  0  0  0
  161.7170  208.3990  140.1780 N   0  0  0  0  0  0  0  0  0  0  0  0
  158.1470  208.7380  137.0120 O   0  0  0  0  0  1  0  0  0  0  0  0
  161.9050  206.9700  140.4160 C   0  0  0  0  0  0  0  0  0  0  0  0
  159.6950  211.1350  139.5420 C   0  0  0  0  0  2  0  0  0  0  0  0
  162.6000  211.7070  140.9590 O   0  0  0  0  0  0  0  0  0  0  0  0
  162.1870  209.3490  141.1310 N   0  0  0  0  0  2  0  0  0  0  0  0
  161.9970  210.6290  140.5610 C   0  0  0  0  0  0  0  0  0  0  0  0
  157.5370  211.2180  138.4360 O   0  0  0  0  0  0  0  0  0  0  0  0
  156.1880  210.7650  138.6750 C   0  0  1  0  0  3  0  0  0  0  0  0
  155.4120  211.6420  139.6460 C   0  0  0  0  0  1  0  0  0  0  0  0
  155.3800  210.4900  137.4720 N   0  0  0  0  0  2  0  0  0  0  0  0
  154.1170  210.9690  137.6110 O   0  0  0  0  0  1  0  0  0  0  0  0
  1  7  1  6  0  0  0
  1  4  1  0  0  0  0
  2  4  1  0  0  0  0
  3 38  1  6  0  0  0
  3  2  1  0  0  0  0
  4  8  1  1  0  0  0
  5  3  1  0  0  0  0
  5  1  1  0  0  0  0
  6  7  1  0  0  0  0
  8 26  1  6  0  0  0
  8  9  1  0  0  0  0
 10  9  1  6  0  0  0
 10 11  1  0  0  0  0
 12 13  1  0  0  0  0
 12 10  1  0  0  0  0
 12 11  1  0  0  0  0
 14 15  1  0  0  0  0
 15 17  1  0  0  0  0
 15 13  1  1  0  0  0
 16 20  1  0  0  0  0
 18 16  1  0  0  0  0
 18 14  1  0  0  0  0
 19 14  2  0  0  0  0
 20 17  1  0  0  0  0
 21 18  1  0  0  0  0
 22 23  1  0  0  0  0
 23 25  1  0  0  0  0
 23 24  1  0  0  0  0
 23 21  1  0  0  0  0
 27 26  1  1  0  0  0
 27 33  1  0  0  0  0
 28 29  2  0  0  0  0
 29 36  1  0  0  0  0
 29 31  1  0  0  0  0
 31 30  1  0  0  0  0
 33 31  1  0  0  0  0
 33 35  1  1  0  0  0
 34 30  2  0  0  0  0
 34 32  1  0  0  0  0
 36 34  1  0  0  0  0
 37 28  1  0  0  0  0
 37 27  1  0  0  0  0
 40 41  1  0  0  0  0
 41 39  1  0  0  0  0
 41 38  1  0  0  0  0
 42 41  1  0  0  0  0
 44 43  2  0  0  0  0
 44 42  1  0  0  0  0
 45 44  1  0  0  0  0
 46 48  1  1  0  0  0
 46 47  1  0  0  0  0
 46 52  1  0  0  0  0
 47 55  1  1  0  0  0
 47 58  1  0  0  0  0
 49 53  1  1  0  0  0
 49 48  1  0  0  0  0
 49 51  1  0  0  0  0
 50 54  2  0  0  0  0
 51 59  1  6  0  0  0
 51 55  1  0  0  0  0
 52 54  1  0  0  0  0
 52 57  1  0  0  0  0
 54 45  1  0  0  0  0
 58 56  2  0  0  0  0
 58 57  1  0  0  0  0
 59 60  1  0  0  0  0
 60 61  1  6  0  0  0
 62 63  1  0  0  0  0
 62 60  1  0  0  0  0
M  END
>  <MODEL>
4

>  <REMARK>
 VINA RESULT:      -2.4      3.787      8.088
  Name = 
  19 active torsions:
  status: ('A' for Active; 'I' for Inactive)
    1  A    between atoms: N_1  and  C_2
    2  A    between atoms: C_2  and  O_29
    3  A    between atoms: C_3  and  O_36
    4  A    between atoms: C_4  and  C_55
    5  A    between atoms: C_7  and  C_35
    6  A    between atoms: C_7  and  N_44
    7  A    between atoms: N_9  and  C_23
    8  A    between atoms: N_9  and  C_37
    9  A    between atoms: C_22  and  O_29
   10  A    between atoms: C_24  and  C_39
   11  A    between atoms: C_30  and  C_48
   12  A    between atoms: C_32  and  C_62
   13  A    between atoms: C_37  and  C_54
   14  A    between atoms: C_37  and  C_55
   15  A    between atoms: C_39  and  N_45
   16  A    between atoms: C_48  and  C_63
   17  A    between atoms: C_52  and  C_53
   18  A    between atoms: C_52  and  C_62
   19  A    between atoms: C_53  and  C_63
                            x       y       z     vdW  Elec       q    Type
                         _______ _______ _______ _____ _____    ______ ____

>  <TORSDO>
F 19

$$$$
