=
 OpenBabel11042420153D

 25 28  0  0  1  0  0  0  0  0999 V2000
  161.3700  207.1180  150.3280 C   0  0  0  0  0  3  0  0  0  0  0  0
  161.7670  208.3660  149.8050 C   0  0  0  0  0  0  0  0  0  0  0  0
  161.0620  208.0950  153.7840 C   0  0  1  0  0  3  0  0  0  0  0  0
  161.9130  209.4700  150.6710 C   0  0  0  0  0  0  0  0  0  0  0  0
  161.2720  208.0400  152.4860 C   0  0  0  0  0  0  0  0  0  0  0  0
  160.6580  206.9790  154.6320 C   0  0  0  0  0  3  0  0  0  0  0  0
  160.2040  210.0920  154.8660 N   0  0  0  0  0  0  0  0  0  0  0  0
  162.3270  210.8080  150.1550 C   0  0  0  0  0  1  0  0  0  0  0  0
  160.1330  207.1070  155.8500 C   0  0  0  0  0  3  0  0  0  0  0  0
  161.6550  209.2670  152.0280 C   0  0  0  0  0  0  0  0  0  0  0  0
  162.0110  208.4950  148.4430 O   0  0  0  0  0  1  0  0  0  0  0  0
  161.3810  209.4850  154.2320 C   0  0  2  0  0  3  0  0  0  0  0  0
  161.1250  206.9700  151.6630 N   0  0  0  0  0  0  0  0  0  0  0  0
  159.7620  208.3450  156.5680 C   0  0  0  0  0  3  0  0  0  0  0  0
  161.7300  210.1500  152.9660 N   0  0  0  0  0  2  0  0  0  0  0  0
  159.7620  209.6170  156.1450 C   0  0  0  0  0  3  0  0  0  0  0  0
  159.7410  211.4000  154.4890 C   0  0  0  0  0  0  0  0  0  0  0  0
  158.8140  213.9330  153.8110 C   0  0  0  0  0  3  0  0  0  0  0  0
  158.6270  212.8760  152.9190 C   0  0  0  0  0  0  0  0  0  0  0  0
  159.4390  213.7210  154.9990 N   0  0  0  0  0  0  0  0  0  0  0  0
  159.0890  211.5990  153.2620 C   0  0  0  0  0  0  0  0  0  0  0  0
  159.8990  212.4920  155.3530 C   0  0  0  0  0  3  0  0  0  0  0  0
  158.9230  210.5580  152.4050 F   0  0  0  0  0  0  0  0  0  0  0  0
  157.4300  213.3010  150.6560 N   0  0  0  0  0  0  0  0  0  0  0  0
  157.9630  213.1110  151.6650 C   0  0  0  0  0  0  0  0  0  0  0  0
  1 13  1  0  0  0  0
  2  1  2  0  0  0  0
  2  4  1  0  0  0  0
  3 12  1  0  0  0  0
  3  6  1  1  0  0  0
  4 10  2  0  0  0  0
  5  3  1  0  0  0  0
  6  9  2  0  0  0  0
  7 16  1  0  0  0  0
  8  4  1  0  0  0  0
  9 14  1  0  0  0  0
 10  5  1  0  0  0  0
 10 15  1  0  0  0  0
 11  2  1  0  0  0  0
 12 15  1  6  0  0  0
 12  7  1  0  0  0  0
 13  5  2  0  0  0  0
 16 14  2  0  0  0  0
 17  7  1  0  0  0  0
 17 22  1  0  0  0  0
 18 20  1  0  0  0  0
 19 21  1  0  0  0  0
 19 18  2  0  0  0  0
 20 22  2  0  0  0  0
 21 17  2  0  0  0  0
 23 21  1  0  0  0  0
 24 25  3  0  0  0  0
 25 19  1  0  0  0  0
M  END
>  <MODEL>
1

>  <REMARK>
 VINA RESULT:      -6.5      0.000      0.000
  Name = 
  2 active torsions:
  status: ('A' for Active; 'I' for Inactive)
    1  A    between atoms: C_4  and  N_10
    2  A    between atoms: C_13  and  C_20
                            x       y       z     vdW  Elec       q    Type
                         _______ _______ _______ _____ _____    ______ ____

>  <TORSDO>
F 2

$$$$
=
 OpenBabel11042420153D

 25 28  0  0  1  0  0  0  0  0999 V2000
  159.7950  210.6430  153.8080 C   0  0  0  0  0  3  0  0  0  0  0  0
  159.9540  209.6220  154.7690 C   0  0  0  0  0  0  0  0  0  0  0  0
  161.6970  209.1280  151.1470 C   0  0  1  0  0  3  0  0  0  0  0  0
  160.7110  208.4770  154.4500 C   0  0  0  0  0  0  0  0  0  0  0  0
  161.0950  209.4210  152.2790 C   0  0  0  0  0  0  0  0  0  0  0  0
  161.7400  209.9720  149.9580 C   0  0  0  0  0  3  0  0  0  0  0  0
  161.8840  206.8440  150.3430 N   0  0  0  0  0  0  0  0  0  0  0  0
  160.8970  207.3730  155.4380 C   0  0  0  0  0  1  0  0  0  0  0  0
  162.0510  209.5420  148.7360 C   0  0  0  0  0  3  0  0  0  0  0  0
  161.2780  208.4090  153.1760 C   0  0  0  0  0  0  0  0  0  0  0  0
  159.3620  209.7580  156.0190 O   0  0  0  0  0  1  0  0  0  0  0  0
  162.3810  207.8110  151.3300 C   0  0  2  0  0  3  0  0  0  0  0  0
  160.3670  210.5290  152.5730 N   0  0  0  0  0  0  0  0  0  0  0  0
  162.3240  208.1600  148.2880 C   0  0  0  0  0  3  0  0  0  0  0  0
  161.9950  207.4460  152.7030 N   0  0  0  0  0  2  0  0  0  0  0  0
  162.2260  207.0030  148.9590 C   0  0  0  0  0  3  0  0  0  0  0  0
  161.4470  205.5310  150.7340 C   0  0  0  0  0  0  0  0  0  0  0  0
  160.6490  202.9880  151.5240 C   0  0  0  0  0  3  0  0  0  0  0  0
  160.7530  203.2790  150.1630 C   0  0  0  0  0  0  0  0  0  0  0  0
  160.9410  203.9390  152.4500 N   0  0  0  0  0  0  0  0  0  0  0  0
  161.1590  204.5580  149.7650 C   0  0  0  0  0  0  0  0  0  0  0  0
  161.3350  205.1880  152.0880 C   0  0  0  0  0  3  0  0  0  0  0  0
  161.2590  204.8640  148.4450 F   0  0  0  0  0  0  0  0  0  0  0  0
  160.1940  201.4470  148.4120 N   0  0  0  0  0  0  0  0  0  0  0  0
  160.4430  202.2640  149.1930 C   0  0  0  0  0  0  0  0  0  0  0  0
  1  2  1  0  0  0  0
  2 11  1  0  0  0  0
  3  6  1  1  0  0  0
  3 12  1  0  0  0  0
  3  5  1  0  0  0  0
  4  2  2  0  0  0  0
  4  8  1  0  0  0  0
  5 13  1  0  0  0  0
  5 10  2  0  0  0  0
  7 17  1  0  0  0  0
  7 12  1  0  0  0  0
  9  6  2  0  0  0  0
 10  4  1  0  0  0  0
 12 15  1  1  0  0  0
 13  1  2  0  0  0  0
 14  9  1  0  0  0  0
 14 16  2  0  0  0  0
 15 10  1  0  0  0  0
 16  7  1  0  0  0  0
 17 22  1  0  0  0  0
 18 20  1  0  0  0  0
 19 18  2  0  0  0  0
 21 19  1  0  0  0  0
 21 17  2  0  0  0  0
 22 20  2  0  0  0  0
 23 21  1  0  0  0  0
 24 25  3  0  0  0  0
 25 19  1  0  0  0  0
M  END
>  <MODEL>
2

>  <REMARK>
 VINA RESULT:      -6.4      3.293      7.350
  Name = 
  2 active torsions:
  status: ('A' for Active; 'I' for Inactive)
    1  A    between atoms: C_4  and  N_10
    2  A    between atoms: C_13  and  C_20
                            x       y       z     vdW  Elec       q    Type
                         _______ _______ _______ _____ _____    ______ ____

>  <TORSDO>
F 2

$$$$
=
 OpenBabel11042420153D

 25 28  0  0  1  0  0  0  0  0999 V2000
  162.5250  209.3250  151.2690 C   0  0  0  0  0  3  0  0  0  0  0  0
  162.2080  209.6600  149.9360 C   0  0  0  0  0  0  0  0  0  0  0  0
  161.0980  206.0150  151.3070 C   0  0  1  0  0  3  0  0  0  0  0  0
  161.5160  208.7330  149.1300 C   0  0  0  0  0  0  0  0  0  0  0  0
  161.5010  207.2280  150.9970 C   0  0  0  0  0  0  0  0  0  0  0  0
  161.2550  205.3680  152.6050 C   0  0  0  0  0  3  0  0  0  0  0  0
  161.0510  204.2170  149.6750 N   0  0  0  0  0  0  0  0  0  0  0  0
  161.1670  209.0500  147.7130 C   0  0  0  0  0  1  0  0  0  0  0  0
  161.1540  204.0560  152.8140 C   0  0  0  0  0  3  0  0  0  0  0  0
  161.1710  207.5070  149.7030 C   0  0  0  0  0  0  0  0  0  0  0  0
  162.5800  210.9010  149.4330 O   0  0  0  0  0  1  0  0  0  0  0  0
  160.3950  205.4560  150.1120 C   0  0  2  0  0  3  0  0  0  0  0  0
  162.1690  208.1110  151.7840 N   0  0  0  0  0  0  0  0  0  0  0  0
  160.9620  202.9780  151.8210 C   0  0  0  0  0  3  0  0  0  0  0  0
  160.5450  206.5380  149.1260 N   0  0  0  0  0  2  0  0  0  0  0  0
  160.9470  203.0350  150.4820 C   0  0  0  0  0  3  0  0  0  0  0  0
  161.4170  204.0080  148.3010 C   0  0  0  0  0  0  0  0  0  0  0  0
  162.1140  203.6600  145.6310 C   0  0  0  0  0  3  0  0  0  0  0  0
  161.1700  202.8090  146.2070 C   0  0  0  0  0  0  0  0  0  0  0  0
  162.6810  204.6510  146.3700 N   0  0  0  0  0  0  0  0  0  0  0  0
  160.8150  202.9870  147.5500 C   0  0  0  0  0  0  0  0  0  0  0  0
  162.3550  204.8420  147.6750 C   0  0  0  0  0  3  0  0  0  0  0  0
  159.9040  202.1640  148.1320 F   0  0  0  0  0  0  0  0  0  0  0  0
  160.0990  200.9260  144.7790 N   0  0  0  0  0  0  0  0  0  0  0  0
  160.5770  201.7650  145.4160 C   0  0  0  0  0  0  0  0  0  0  0  0
  1 13  1  0  0  0  0
  2  1  2  0  0  0  0
  3  6  1  1  0  0  0
  4 10  2  0  0  0  0
  4  2  1  0  0  0  0
  5  3  1  0  0  0  0
  5 13  2  0  0  0  0
  6  9  2  0  0  0  0
  7 12  1  0  0  0  0
  7 16  1  0  0  0  0
  8  4  1  0  0  0  0
 10  5  1  0  0  0  0
 11  2  1  0  0  0  0
 12 15  1  6  0  0  0
 12  3  1  0  0  0  0
 14  9  1  0  0  0  0
 15 10  1  0  0  0  0
 16 14  2  0  0  0  0
 17  7  1  0  0  0  0
 18 19  2  0  0  0  0
 18 20  1  0  0  0  0
 19 21  1  0  0  0  0
 20 22  2  0  0  0  0
 21 23  1  0  0  0  0
 21 17  2  0  0  0  0
 22 17  1  0  0  0  0
 24 25  3  0  0  0  0
 25 19  1  0  0  0  0
M  END
>  <MODEL>
3

>  <REMARK>
 VINA RESULT:      -6.3      4.519      8.068
  Name = 
  2 active torsions:
  status: ('A' for Active; 'I' for Inactive)
    1  A    between atoms: C_4  and  N_10
    2  A    between atoms: C_13  and  C_20
                            x       y       z     vdW  Elec       q    Type
                         _______ _______ _______ _____ _____    ______ ____

>  <TORSDO>
F 2

$$$$
=
 OpenBabel11042420153D

 25 28  0  0  1  0  0  0  0  0999 V2000
  161.0240  205.7980  149.8690 C   0  0  0  0  0  3  0  0  0  0  0  0
  161.3600  206.8770  149.0240 C   0  0  0  0  0  0  0  0  0  0  0  0
  161.0920  207.5770  153.0030 C   0  0  1  0  0  3  0  0  0  0  0  0
  161.5960  208.1500  149.5800 C   0  0  0  0  0  0  0  0  0  0  0  0
  161.1590  207.2100  151.7420 C   0  0  0  0  0  0  0  0  0  0  0  0
  160.7850  206.7060  154.1320 C   0  0  0  0  0  3  0  0  0  0  0  0
  160.3520  209.7950  153.6600 N   0  0  0  0  0  0  0  0  0  0  0  0
  161.9490  209.3170  148.7170 C   0  0  0  0  0  1  0  0  0  0  0  0
  160.3940  207.1320  155.3330 C   0  0  0  0  0  3  0  0  0  0  0  0
  161.4880  208.2830  150.9650 C   0  0  0  0  0  0  0  0  0  0  0  0
  161.4530  206.6710  147.6530 O   0  0  0  0  0  1  0  0  0  0  0  0
  161.4540  209.0270  153.0690 C   0  0  2  0  0  3  0  0  0  0  0  0
  160.9260  205.9780  151.2190 N   0  0  0  0  0  0  0  0  0  0  0  0
  160.1010  208.5140  155.7680 C   0  0  0  0  0  3  0  0  0  0  0  0
  161.6630  209.3620  151.6510 N   0  0  0  0  0  2  0  0  0  0  0  0
  160.0520  209.6480  155.0560 C   0  0  0  0  0  3  0  0  0  0  0  0
  159.8470  210.9860  153.0330 C   0  0  0  0  0  0  0  0  0  0  0  0
  158.9220  213.3160  151.8310 C   0  0  0  0  0  3  0  0  0  0  0  0
  158.1530  212.7090  152.8240 C   0  0  0  0  0  0  0  0  0  0  0  0
  160.1120  212.7740  151.4610 N   0  0  0  0  0  0  0  0  0  0  0  0
  158.6200  211.5370  153.4340 C   0  0  0  0  0  0  0  0  0  0  0  0
  160.5860  211.6370  152.0350 C   0  0  0  0  0  3  0  0  0  0  0  0
  157.8840  210.9260  154.3970 F   0  0  0  0  0  0  0  0  0  0  0  0
  155.8840  213.7610  153.5170 N   0  0  0  0  0  0  0  0  0  0  0  0
  156.8960  213.2920  153.2080 C   0  0  0  0  0  0  0  0  0  0  0  0
  1 13  1  0  0  0  0
  2  4  1  0  0  0  0
  2  1  2  0  0  0  0
  3 12  1  0  0  0  0
  3  6  1  1  0  0  0
  4 10  2  0  0  0  0
  5  3  1  0  0  0  0
  6  9  2  0  0  0  0
  7 16  1  0  0  0  0
  8  4  1  0  0  0  0
  9 14  1  0  0  0  0
 10 15  1  0  0  0  0
 10  5  1  0  0  0  0
 11  2  1  0  0  0  0
 12 15  1  6  0  0  0
 12  7  1  0  0  0  0
 13  5  2  0  0  0  0
 16 14  2  0  0  0  0
 17 21  1  0  0  0  0
 17  7  1  0  0  0  0
 18 19  1  0  0  0  0
 19 25  1  0  0  0  0
 19 21  2  0  0  0  0
 20 18  2  0  0  0  0
 20 22  1  0  0  0  0
 21 23  1  0  0  0  0
 22 17  2  0  0  0  0
 25 24  3  0  0  0  0
M  END
>  <MODEL>
4

>  <REMARK>
 VINA RESULT:      -6.2      1.604      1.824
  Name = 
  2 active torsions:
  status: ('A' for Active; 'I' for Inactive)
    1  A    between atoms: C_4  and  N_10
    2  A    between atoms: C_13  and  C_20
                            x       y       z     vdW  Elec       q    Type
                         _______ _______ _______ _____ _____    ______ ____

>  <TORSDO>
F 2

$$$$
=
 OpenBabel11042420153D

 25 28  0  0  1  0  0  0  0  0999 V2000
  160.0710  209.3560  154.7000 C   0  0  0  0  0  3  0  0  0  0  0  0
  160.3790  208.0060  154.9700 C   0  0  0  0  0  0  0  0  0  0  0  0
  161.6660  209.6000  151.4770 C   0  0  1  0  0  3  0  0  0  0  0  0
  161.1230  207.2600  154.0330 C   0  0  0  0  0  0  0  0  0  0  0  0
  161.2030  209.2150  152.6460 C   0  0  0  0  0  0  0  0  0  0  0  0
  161.5350  210.9340  150.9030 C   0  0  0  0  0  3  0  0  0  0  0  0
  161.8170  208.0800  149.5890 N   0  0  0  0  0  0  0  0  0  0  0  0
  161.4650  205.8280  154.2820 C   0  0  0  0  0  1  0  0  0  0  0  0
  161.7020  211.2220  149.6120 C   0  0  0  0  0  3  0  0  0  0  0  0
  161.5270  207.9070  152.8640 C   0  0  0  0  0  0  0  0  0  0  0  0
  159.9460  207.4280  156.1570 O   0  0  0  0  0  1  0  0  0  0  0  0
  162.4060  208.4430  150.8840 C   0  0  2  0  0  3  0  0  0  0  0  0
  160.4860  209.9440  153.5390 N   0  0  0  0  0  0  0  0  0  0  0  0
  161.9560  210.2970  148.4880 C   0  0  0  0  0  3  0  0  0  0  0  0
  162.2070  207.3920  151.8950 N   0  0  0  0  0  2  0  0  0  0  0  0
  161.9770  208.9570  148.4650 C   0  0  0  0  0  3  0  0  0  0  0  0
  161.4710  206.7190  149.2780 C   0  0  0  0  0  0  0  0  0  0  0  0
  160.8310  204.0700  148.7260 C   0  0  0  0  0  3  0  0  0  0  0  0
  161.4420  204.8450  147.7390 C   0  0  0  0  0  0  0  0  0  0  0  0
  160.5580  204.6070  149.9440 N   0  0  0  0  0  0  0  0  0  0  0  0
  161.7690  206.1780  148.0180 C   0  0  0  0  0  0  0  0  0  0  0  0
  160.8630  205.8980  150.2380 C   0  0  0  0  0  3  0  0  0  0  0  0
  162.3570  206.9520  147.0690 F   0  0  0  0  0  0  0  0  0  0  0  0
  161.9560  203.8000  145.4200 N   0  0  0  0  0  0  0  0  0  0  0  0
  161.7270  204.2660  146.4540 C   0  0  0  0  0  0  0  0  0  0  0  0
  1  2  1  0  0  0  0
  2 11  1  0  0  0  0
  3  6  1  1  0  0  0
  3  5  1  0  0  0  0
  4  8  1  0  0  0  0
  4  2  2  0  0  0  0
  5 10  2  0  0  0  0
  5 13  1  0  0  0  0
  7 12  1  0  0  0  0
  9  6  2  0  0  0  0
 10  4  1  0  0  0  0
 12  3  1  0  0  0  0
 12 15  1  1  0  0  0
 13  1  2  0  0  0  0
 14  9  1  0  0  0  0
 15 10  1  0  0  0  0
 16 14  2  0  0  0  0
 16  7  1  0  0  0  0
 17  7  1  0  0  0  0
 17 22  1  0  0  0  0
 18 20  1  0  0  0  0
 19 21  1  0  0  0  0
 19 18  2  0  0  0  0
 20 22  2  0  0  0  0
 21 17  2  0  0  0  0
 23 21  1  0  0  0  0
 24 25  3  0  0  0  0
 25 19  1  0  0  0  0
M  END
>  <MODEL>
5

>  <REMARK>
 VINA RESULT:      -6.1      3.259      7.270
  Name = 
  2 active torsions:
  status: ('A' for Active; 'I' for Inactive)
    1  A    between atoms: C_4  and  N_10
    2  A    between atoms: C_13  and  C_20
                            x       y       z     vdW  Elec       q    Type
                         _______ _______ _______ _____ _____    ______ ____

>  <TORSDO>
F 2

$$$$
=
 OpenBabel11042420153D

 25 28  0  0  1  0  0  0  0  0999 V2000
  161.9560  202.5900  147.2390 C   0  0  0  0  0  3  0  0  0  0  0  0
  161.2230  201.9490  148.2610 C   0  0  0  0  0  0  0  0  0  0  0  0
  161.3230  205.9980  148.2270 C   0  0  1  0  0  3  0  0  0  0  0  0
  160.5490  202.7250  149.2250 C   0  0  0  0  0  0  0  0  0  0  0  0
  161.3610  204.6880  148.1120 C   0  0  0  0  0  0  0  0  0  0  0  0
  161.9600  206.9530  147.3280 C   0  0  0  0  0  3  0  0  0  0  0  0
  161.2100  207.0970  150.3890 N   0  0  0  0  0  0  0  0  0  0  0  0
  159.7680  202.0840  150.3240 C   0  0  0  0  0  1  0  0  0  0  0  0
  162.1980  208.2300  147.6270 C   0  0  0  0  0  3  0  0  0  0  0  0
  160.6390  204.1150  149.1180 C   0  0  0  0  0  0  0  0  0  0  0  0
  161.1750  200.5610  148.3040 O   0  0  0  0  0  1  0  0  0  0  0  0
  160.4530  206.3200  149.4000 C   0  0  2  0  0  3  0  0  0  0  0  0
  162.0170  203.9520  147.1780 N   0  0  0  0  0  0  0  0  0  0  0  0
  161.9730  208.9330  148.9080 C   0  0  0  0  0  3  0  0  0  0  0  0
  160.0970  204.9840  149.9030 N   0  0  0  0  0  2  0  0  0  0  0  0
  161.5810  208.4520  150.0960 C   0  0  0  0  0  3  0  0  0  0  0  0
  161.2230  206.7310  151.7800 C   0  0  0  0  0  0  0  0  0  0  0  0
  161.2130  205.9760  154.4550 C   0  0  0  0  0  3  0  0  0  0  0  0
  160.8310  207.2730  154.1110 C   0  0  0  0  0  0  0  0  0  0  0  0
  161.5810  205.0930  153.4900 N   0  0  0  0  0  0  0  0  0  0  0  0
  160.8310  207.6530  152.7620 C   0  0  0  0  0  0  0  0  0  0  0  0
  161.5910  205.4380  152.1760 C   0  0  0  0  0  3  0  0  0  0  0  0
  160.4700  208.9130  152.4060 F   0  0  0  0  0  0  0  0  0  0  0  0
  160.1310  208.9430  155.9700 N   0  0  0  0  0  0  0  0  0  0  0  0
  160.4430  208.1980  155.1410 C   0  0  0  0  0  0  0  0  0  0  0  0
  1  2  1  0  0  0  0
  2 11  1  0  0  0  0
  2  4  2  0  0  0  0
  3  6  1  6  0  0  0
  3 12  1  0  0  0  0
  4  8  1  0  0  0  0
  5  3  1  0  0  0  0
  5 10  2  0  0  0  0
  6  9  2  0  0  0  0
  7 17  1  0  0  0  0
  9 14  1  0  0  0  0
 10  4  1  0  0  0  0
 10 15  1  0  0  0  0
 12 15  1  1  0  0  0
 12  7  1  0  0  0  0
 13  1  2  0  0  0  0
 13  5  1  0  0  0  0
 14 16  2  0  0  0  0
 16  7  1  0  0  0  0
 17 22  2  0  0  0  0
 17 21  1  0  0  0  0
 19 18  1  0  0  0  0
 19 25  1  0  0  0  0
 20 18  2  0  0  0  0
 21 19  2  0  0  0  0
 22 20  1  0  0  0  0
 23 21  1  0  0  0  0
 25 24  3  0  0  0  0
M  END
>  <MODEL>
6

>  <REMARK>
 VINA RESULT:      -5.7      3.687      6.757
  Name = 
  2 active torsions:
  status: ('A' for Active; 'I' for Inactive)
    1  A    between atoms: C_4  and  N_10
    2  A    between atoms: C_13  and  C_20
                            x       y       z     vdW  Elec       q    Type
                         _______ _______ _______ _____ _____    ______ ____

>  <TORSDO>
F 2

$$$$
=
 OpenBabel11042420153D

 25 28  0  0  1  0  0  0  0  0999 V2000
  160.5980  204.5110  150.0060 C   0  0  0  0  0  3  0  0  0  0  0  0
  161.1300  205.2210  148.9080 C   0  0  0  0  0  0  0  0  0  0  0  0
  161.4270  206.8860  152.5880 C   0  0  1  0  0  3  0  0  0  0  0  0
  161.7480  206.4700  149.1200 C   0  0  0  0  0  0  0  0  0  0  0  0
  161.2770  206.2280  151.4590 C   0  0  0  0  0  0  0  0  0  0  0  0
  161.0040  206.4270  153.9060 C   0  0  0  0  0  3  0  0  0  0  0  0
  161.3690  209.3120  152.6820 N   0  0  0  0  0  0  0  0  0  0  0  0
  162.3180  207.2530  147.9830 C   0  0  0  0  0  1  0  0  0  0  0  0
  160.8540  207.2170  154.9690 C   0  0  0  0  0  3  0  0  0  0  0  0
  161.8070  206.9510  150.4290 C   0  0  0  0  0  0  0  0  0  0  0  0
  161.0380  204.6800  147.6310 O   0  0  0  0  0  1  0  0  0  0  0  0
  162.1670  208.1480  152.2780 C   0  0  2  0  0  3  0  0  0  0  0  0
  160.6770  205.0250  151.2690 N   0  0  0  0  0  0  0  0  0  0  0  0
  160.9810  208.6870  155.0500 C   0  0  0  0  0  3  0  0  0  0  0  0
  162.3250  208.0670  150.8170 N   0  0  0  0  0  2  0  0  0  0  0  0
  161.1710  209.5880  154.0760 C   0  0  0  0  0  3  0  0  0  0  0  0
  161.1440  210.4140  151.7860 C   0  0  0  0  0  0  0  0  0  0  0  0
  160.7660  212.5620  150.0610 C   0  0  0  0  0  3  0  0  0  0  0  0
  159.8930  212.3870  151.1370 C   0  0  0  0  0  0  0  0  0  0  0  0
  161.7910  211.6910  149.8660 N   0  0  0  0  0  0  0  0  0  0  0  0
  160.0860  211.3080  152.0080 C   0  0  0  0  0  0  0  0  0  0  0  0
  161.9970  210.6350  150.6960 C   0  0  0  0  0  3  0  0  0  0  0  0
  159.2440  211.1160  153.0570 F   0  0  0  0  0  0  0  0  0  0  0  0
  157.9440  214.0630  151.4940 N   0  0  0  0  0  0  0  0  0  0  0  0
  158.8130  213.3150  151.3340 C   0  0  0  0  0  0  0  0  0  0  0  0
  1 13  1  0  0  0  0
  2  4  1  0  0  0  0
  2  1  2  0  0  0  0
  3  6  1  1  0  0  0
  4 10  2  0  0  0  0
  5  3  1  0  0  0  0
  6  9  2  0  0  0  0
  7 16  1  0  0  0  0
  8  4  1  0  0  0  0
  9 14  1  0  0  0  0
 10 15  1  0  0  0  0
 10  5  1  0  0  0  0
 11  2  1  0  0  0  0
 12 15  1  6  0  0  0
 12  3  1  0  0  0  0
 12  7  1  0  0  0  0
 13  5  2  0  0  0  0
 16 14  2  0  0  0  0
 17 21  1  0  0  0  0
 17  7  1  0  0  0  0
 18 19  1  0  0  0  0
 19 25  1  0  0  0  0
 19 21  2  0  0  0  0
 20 18  2  0  0  0  0
 20 22  1  0  0  0  0
 21 23  1  0  0  0  0
 22 17  2  0  0  0  0
 25 24  3  0  0  0  0
M  END
>  <MODEL>
7

>  <REMARK>
 VINA RESULT:      -5.5      1.919      2.994
  Name = 
  2 active torsions:
  status: ('A' for Active; 'I' for Inactive)
    1  A    between atoms: C_4  and  N_10
    2  A    between atoms: C_13  and  C_20
                            x       y       z     vdW  Elec       q    Type
                         _______ _______ _______ _____ _____    ______ ____

>  <TORSDO>
F 2

$$$$
=
 OpenBabel11042420153D

 25 28  0  0  1  0  0  0  0  0999 V2000
  160.4390  203.2220  144.7030 C   0  0  0  0  0  3  0  0  0  0  0  0
  161.1670  204.4260  144.6000 C   0  0  0  0  0  0  0  0  0  0  0  0
  161.0910  202.5370  148.1810 C   0  0  1  0  0  3  0  0  0  0  0  0
  161.8440  204.9300  145.7290 C   0  0  0  0  0  0  0  0  0  0  0  0
  161.0450  203.0360  146.9650 C   0  0  0  0  0  0  0  0  0  0  0  0
  160.4600  201.2970  148.6200 C   0  0  0  0  0  3  0  0  0  0  0  0
  161.2060  203.9530  150.1500 N   0  0  0  0  0  0  0  0  0  0  0  0
  162.6200  206.2030  145.6610 C   0  0  0  0  0  1  0  0  0  0  0  0
  160.2290  200.9750  149.8920 C   0  0  0  0  0  3  0  0  0  0  0  0
  161.7620  204.1960  146.9140 C   0  0  0  0  0  0  0  0  0  0  0  0
  161.2070  205.1030  143.3870 O   0  0  0  0  0  1  0  0  0  0  0  0
  161.9600  203.4340  149.0020 C   0  0  2  0  0  3  0  0  0  0  0  0
  160.3860  202.5410  145.8850 N   0  0  0  0  0  0  0  0  0  0  0  0
  160.4560  201.7900  151.1040 C   0  0  0  0  0  3  0  0  0  0  0  0
  162.3080  204.4960  148.0440 N   0  0  0  0  0  2  0  0  0  0  0  0
  160.8440  203.0680  151.2200 C   0  0  0  0  0  3  0  0  0  0  0  0
  161.1890  205.3560  150.4640 C   0  0  0  0  0  0  0  0  0  0  0  0
  161.2040  208.0770  151.0350 C   0  0  0  0  0  3  0  0  0  0  0  0
  161.2030  207.1580  152.0860 C   0  0  0  0  0  0  0  0  0  0  0  0
  161.2030  207.6410  149.7480 N   0  0  0  0  0  0  0  0  0  0  0  0
  161.2010  205.7880  151.7990 C   0  0  0  0  0  0  0  0  0  0  0  0
  161.1980  206.3170  149.4430 C   0  0  0  0  0  3  0  0  0  0  0  0
  161.1920  204.8770  152.8070 F   0  0  0  0  0  0  0  0  0  0  0  0
  161.2080  208.0100  154.5370 N   0  0  0  0  0  0  0  0  0  0  0  0
  161.2060  207.6310  153.4440 C   0  0  0  0  0  0  0  0  0  0  0  0
  1 13  1  0  0  0  0
  2  1  2  0  0  0  0
  2  4  1  0  0  0  0
  3  6  1  6  0  0  0
  3 12  1  0  0  0  0
  4 10  2  0  0  0  0
  5  3  1  0  0  0  0
  6  9  2  0  0  0  0
  7 17  1  0  0  0  0
  7 16  1  0  0  0  0
  8  4  1  0  0  0  0
  9 14  1  0  0  0  0
 10  5  1  0  0  0  0
 10 15  1  0  0  0  0
 11  2  1  0  0  0  0
 12 15  1  6  0  0  0
 12  7  1  0  0  0  0
 13  5  2  0  0  0  0
 14 16  2  0  0  0  0
 17 21  1  0  0  0  0
 18 19  1  0  0  0  0
 19 25  1  0  0  0  0
 20 18  2  0  0  0  0
 21 19  2  0  0  0  0
 21 23  1  0  0  0  0
 22 20  1  0  0  0  0
 22 17  2  0  0  0  0
 25 24  3  0  0  0  0
M  END
>  <MODEL>
8

>  <REMARK>
 VINA RESULT:      -5.3      4.614      7.395
  Name = 
  2 active torsions:
  status: ('A' for Active; 'I' for Inactive)
    1  A    between atoms: C_4  and  N_10
    2  A    between atoms: C_13  and  C_20
                            x       y       z     vdW  Elec       q    Type
                         _______ _______ _______ _____ _____    ______ ____

>  <TORSDO>
F 2

$$$$
=
 OpenBabel11042420153D

 25 28  0  0  1  0  0  0  0  0999 V2000
  155.9310  210.9820  139.2610 C   0  0  0  0  0  3  0  0  0  0  0  0
  155.9830  212.3540  139.5870 C   0  0  0  0  0  0  0  0  0  0  0  0
  159.4740  210.4080  138.9350 C   0  0  1  0  0  3  0  0  0  0  0  0
  157.2320  213.0040  139.6690 C   0  0  0  0  0  0  0  0  0  0  0  0
  158.2740  210.9180  139.1060 C   0  0  0  0  0  0  0  0  0  0  0  0
  159.7720  209.0260  138.5760 C   0  0  0  0  0  3  0  0  0  0  0  0
  161.3980  211.1940  140.1920 N   0  0  0  0  0  0  0  0  0  0  0  0
  157.3280  214.4530  140.0150 C   0  0  0  0  0  1  0  0  0  0  0  0
  160.9610  208.4440  138.7310 C   0  0  0  0  0  3  0  0  0  0  0  0
  158.3760  212.2430  139.4160 C   0  0  0  0  0  0  0  0  0  0  0  0
  154.8030  213.0490  139.8230 O   0  0  0  0  0  1  0  0  0  0  0  0
  160.4630  211.5170  139.1070 C   0  0  2  0  0  3  0  0  0  0  0  0
  157.0780  210.2800  139.0260 N   0  0  0  0  0  0  0  0  0  0  0  0
  162.1810  208.9950  139.3580 C   0  0  0  0  0  3  0  0  0  0  0  0
  159.5970  212.6580  139.4460 N   0  0  0  0  0  2  0  0  0  0  0  0
  162.3670  210.1520  140.0070 C   0  0  0  0  0  3  0  0  0  0  0  0
  161.6800  212.1340  141.2430 C   0  0  0  0  0  0  0  0  0  0  0  0
  162.2840  213.9370  143.2710 C   0  0  0  0  0  3  0  0  0  0  0  0
  161.3210  212.9520  143.4970 C   0  0  0  0  0  0  0  0  0  0  0  0
  162.9200  214.0080  142.0720 N   0  0  0  0  0  0  0  0  0  0  0  0
  161.0200  212.0400  142.4780 C   0  0  0  0  0  0  0  0  0  0  0  0
  162.6430  213.1360  141.0670 C   0  0  0  0  0  3  0  0  0  0  0  0
  160.0820  211.0780  142.6750 F   0  0  0  0  0  0  0  0  0  0  0  0
  160.1200  212.8330  145.7950 N   0  0  0  0  0  0  0  0  0  0  0  0
  160.6550  212.8870  144.7700 C   0  0  0  0  0  0  0  0  0  0  0  0
  1  2  1  0  0  0  0
  2  4  2  0  0  0  0
  2 11  1  0  0  0  0
  3  6  1  6  0  0  0
  3  5  1  0  0  0  0
  3 12  1  0  0  0  0
  4  8  1  0  0  0  0
  5 10  2  0  0  0  0
  6  9  2  0  0  0  0
  7 17  1  0  0  0  0
  9 14  1  0  0  0  0
 10 15  1  0  0  0  0
 10  4  1  0  0  0  0
 12 15  1  1  0  0  0
 12  7  1  0  0  0  0
 13  5  1  0  0  0  0
 13  1  2  0  0  0  0
 14 16  2  0  0  0  0
 16  7  1  0  0  0  0
 17 21  1  0  0  0  0
 18 19  1  0  0  0  0
 19 25  1  0  0  0  0
 20 18  2  0  0  0  0
 21 23  1  0  0  0  0
 21 19  2  0  0  0  0
 22 17  2  0  0  0  0
 22 20  1  0  0  0  0
 25 24  3  0  0  0  0
M  END
>  <MODEL>
9

>  <REMARK>
 VINA RESULT:      -5.0     10.436     13.298
  Name = 
  2 active torsions:
  status: ('A' for Active; 'I' for Inactive)
    1  A    between atoms: C_4  and  N_10
    2  A    between atoms: C_13  and  C_20
                            x       y       z     vdW  Elec       q    Type
                         _______ _______ _______ _____ _____    ______ ____

>  <TORSDO>
F 2

$$$$
