=
 OpenBabel11042420123D

 30 32  0  0  1  0  0  0  0  0999 V2000
  161.0410  207.9200  154.0700 C   0  0  0  0  0  0  0  0  0  0  0  0
  161.3050  208.6430  152.8570 N   0  0  0  0  0  0  0  0  0  0  0  0
  159.9050  210.5060  153.5390 C   0  0  0  0  0  0  0  0  0  0  0  0
  159.5900  209.7970  154.8090 C   0  0  0  0  0  0  0  0  0  0  0  0
  160.7290  209.9430  152.6510 C   0  0  0  0  0  3  0  0  0  0  0  0
  158.6900  210.2830  155.6590 C   0  0  0  0  0  2  0  0  0  0  0  0
  161.3740  206.7080  154.1760 O   0  0  0  0  0  0  0  0  0  0  0  0
  160.4160  208.6160  155.2420 C   0  0  2  0  0  3  0  0  0  0  0  0
  158.6650  212.0160  152.0090 C   0  0  0  0  0  3  0  0  0  0  0  0
  160.0600  212.7680  155.3840 N   0  0  0  0  0  1  0  0  0  0  0  0
  158.1140  213.2570  151.6930 C   0  0  0  0  0  0  0  0  0  0  0  0
  159.3380  211.8320  153.2210 C   0  0  0  0  0  0  0  0  0  0  0  0
  158.8890  214.1200  153.7790 N   0  0  0  0  0  0  0  0  0  0  0  0
  158.2430  214.3110  152.5980 C   0  0  0  0  0  3  0  0  0  0  0  0
  159.4320  212.9180  154.1130 C   0  0  0  0  0  0  0  0  0  0  0  0
  157.2680  213.5000  150.1380 S   0  0  0  0  0  0  0  0  0  0  0  0
  158.8150  213.8380  149.2490 C   0  0  0  0  0  1  0  0  0  0  0  0
  161.9730  206.5030  151.8060 C   0  0  0  0  0  2  0  0  0  0  0  0
  162.4040  207.9440  149.4150 O   0  0  0  0  0  0  0  0  0  0  0  0
  162.1260  208.0340  151.8130 C   0  0  1  0  0  3  0  0  0  0  0  0
  161.2940  207.2840  148.8730 C   0  0  2  0  0  3  0  0  0  0  0  0
  161.1370  205.9040  149.5150 C   0  0  0  0  0  2  0  0  0  0  0  0
  160.7780  206.0130  150.9920 C   0  0  0  0  0  2  0  0  0  0  0  0
  161.8840  208.7150  150.4610 C   0  0  0  0  0  2  0  0  0  0  0  0
  160.8150  206.2660  146.7910 C   0  0  0  0  0  2  0  0  0  0  0  0
  161.4680  207.1520  147.4500 N   0  0  0  0  0  0  0  0  0  0  0  0
  162.2730  210.1900  155.9650 N   0  0  0  0  0  2  0  0  0  0  0  0
  161.4750  209.0320  156.2170 C   0  0  0  0  0  0  0  0  0  0  0  0
  161.6540  208.3480  157.2600 O   0  0  0  0  0  0  0  0  0  0  0  0
  163.3090  210.6280  156.8850 C   0  0  0  0  0  1  0  0  0  0  0  0
  1  7  2  0  0  0  0
  1  8  1  0  0  0  0
  2  1  1  0  0  0  0
  3  4  1  0  0  0  0
  4  8  1  0  0  0  0
  4  6  2  0  0  0  0
  5  2  1  0  0  0  0
  5  3  2  0  0  0  0
  8 28  1  1  0  0  0
  9 12  1  0  0  0  0
 11  9  2  0  0  0  0
 11 14  1  0  0  0  0
 12  3  1  0  0  0  0
 12 15  2  0  0  0  0
 13 15  1  0  0  0  0
 14 13  2  0  0  0  0
 15 10  1  0  0  0  0
 16 11  1  0  0  0  0
 17 16  1  0  0  0  0
 18 20  1  0  0  0  0
 19 24  1  0  0  0  0
 20 24  1  6  0  0  0
 20  2  1  0  0  0  0
 21 26  1  6  0  0  0
 21 19  1  0  0  0  0
 21 22  1  0  0  0  0
 22 23  1  0  0  0  0
 23 18  1  0  0  0  0
 25 26  2  0  0  0  0
 27 28  1  0  0  0  0
 27 30  1  0  0  0  0
 28 29  2  0  0  0  0
M  END
>  <MODEL>
1

>  <REMARK>
 VINA RESULT:      -7.1      0.000      0.000
  Name = 
  5 active torsions:
  status: ('A' for Active; 'I' for Inactive)
    1  A    between atoms: C_2  and  C_27
    2  A    between atoms: N_4  and  C_10
    3  A    between atoms: C_9  and  C_21
    4  A    between atoms: C_14  and  S_17
    5  A    between atoms: C_18  and  N_25
                            x       y       z     vdW  Elec       q    Type
                         _______ _______ _______ _____ _____    ______ ____

>  <TORSDO>
F 5

$$$$
=
 OpenBabel11042420123D

 30 32  0  0  1  0  0  0  0  0999 V2000
  159.2910  213.0870  153.8750 C   0  0  0  0  0  0  0  0  0  0  0  0
  159.2490  212.7490  152.4790 N   0  0  0  0  0  0  0  0  0  0  0  0
  160.5010  210.6980  152.8280 C   0  0  0  0  0  0  0  0  0  0  0  0
  160.5830  211.0030  154.2820 C   0  0  0  0  0  0  0  0  0  0  0  0
  159.8510  211.5310  152.0110 C   0  0  0  0  0  3  0  0  0  0  0  0
  161.3130  210.2500  155.1000 C   0  0  0  0  0  2  0  0  0  0  0  0
  158.9460  214.2350  154.2640 O   0  0  0  0  0  0  0  0  0  0  0  0
  159.6940  212.0560  154.8870 C   0  0  2  0  0  3  0  0  0  0  0  0
  160.9220  208.2530  152.8780 C   0  0  0  0  0  3  0  0  0  0  0  0
  162.0490  210.7510  150.3490 N   0  0  0  0  0  1  0  0  0  0  0  0
  161.4840  207.0960  152.3420 C   0  0  0  0  0  0  0  0  0  0  0  0
  161.1130  209.4870  152.2470 C   0  0  0  0  0  0  0  0  0  0  0  0
  162.4100  208.3840  150.5600 N   0  0  0  0  0  0  0  0  0  0  0  0
  162.2390  207.1820  151.1720 C   0  0  0  0  0  3  0  0  0  0  0  0
  161.8690  209.5280  151.0600 C   0  0  0  0  0  0  0  0  0  0  0  0
  161.2550  205.5200  153.1550 S   0  0  0  0  0  0  0  0  0  0  0  0
  161.6180  204.5880  151.6390 C   0  0  0  0  0  1  0  0  0  0  0  0
  159.6930  214.4530  150.7380 C   0  0  0  0  0  2  0  0  0  0  0  0
  157.2340  213.7230  149.5570 O   0  0  0  0  0  0  0  0  0  0  0  0
  158.6300  213.6700  151.5280 C   0  0  1  0  0  3  0  0  0  0  0  0
  157.9610  213.1730  148.4930 C   0  0  2  0  0  3  0  0  0  0  0  0
  159.2830  213.9250  148.3170 C   0  0  0  0  0  2  0  0  0  0  0  0
  160.2090  213.7100  149.5080 C   0  0  0  0  0  2  0  0  0  0  0  0
  157.5870  212.9480  150.6670 C   0  0  0  0  0  2  0  0  0  0  0  0
  157.5040  212.5820  146.2480 C   0  0  0  0  0  2  0  0  0  0  0  0
  157.1780  213.2580  147.2880 N   0  0  0  0  0  0  0  0  0  0  0  0
  157.2820  211.2740  154.7360 N   0  0  0  0  0  2  0  0  0  0  0  0
  158.4760  211.4400  155.5050 C   0  0  0  0  0  0  0  0  0  0  0  0
  158.5160  211.0710  156.7090 O   0  0  0  0  0  0  0  0  0  0  0  0
  156.0810  210.6810  155.2970 C   0  0  0  0  0  1  0  0  0  0  0  0
  1  7  2  0  0  0  0
  1  8  1  0  0  0  0
  2  1  1  0  0  0  0
  3  4  1  0  0  0  0
  4  8  1  0  0  0  0
  4  6  2  0  0  0  0
  5  2  1  0  0  0  0
  5  3  2  0  0  0  0
  8 28  1  6  0  0  0
 10 15  1  0  0  0  0
 11  9  1  0  0  0  0
 11 16  1  0  0  0  0
 12  3  1  0  0  0  0
 12  9  2  0  0  0  0
 13 15  2  0  0  0  0
 13 14  1  0  0  0  0
 14 11  2  0  0  0  0
 15 12  1  0  0  0  0
 17 16  1  0  0  0  0
 18 20  1  0  0  0  0
 19 24  1  0  0  0  0
 20 24  1  6  0  0  0
 20  2  1  0  0  0  0
 21 26  1  6  0  0  0
 21 19  1  0  0  0  0
 22 21  1  0  0  0  0
 22 23  1  0  0  0  0
 23 18  1  0  0  0  0
 25 26  2  0  0  0  0
 27 30  1  0  0  0  0
 27 28  1  0  0  0  0
 28 29  2  0  0  0  0
M  END
>  <MODEL>
2

>  <REMARK>
 VINA RESULT:      -7.0      3.376      6.329
  Name = 
  5 active torsions:
  status: ('A' for Active; 'I' for Inactive)
    1  A    between atoms: C_2  and  C_27
    2  A    between atoms: N_4  and  C_10
    3  A    between atoms: C_9  and  C_21
    4  A    between atoms: C_14  and  S_17
    5  A    between atoms: C_18  and  N_25
                            x       y       z     vdW  Elec       q    Type
                         _______ _______ _______ _____ _____    ______ ____

>  <TORSDO>
F 5

$$$$
=
 OpenBabel11042420123D

 30 32  0  0  1  0  0  0  0  0999 V2000
  161.1980  207.7400  153.9780 C   0  0  0  0  0  0  0  0  0  0  0  0
  161.3250  208.3390  152.6790 N   0  0  0  0  0  0  0  0  0  0  0  0
  159.9150  210.2190  153.2910 C   0  0  0  0  0  0  0  0  0  0  0  0
  159.7420  209.6390  154.6500 C   0  0  0  0  0  0  0  0  0  0  0  0
  160.6810  209.5920  152.3940 C   0  0  0  0  0  3  0  0  0  0  0  0
  158.9010  210.1830  155.5250 C   0  0  0  0  0  2  0  0  0  0  0  0
  161.5880  206.5580  154.1770 O   0  0  0  0  0  0  0  0  0  0  0  0
  160.6500  208.5360  155.1250 C   0  0  2  0  0  3  0  0  0  0  0  0
  158.1080  211.8990  153.5550 C   0  0  0  0  0  3  0  0  0  0  0  0
  161.0080  211.9600  151.2120 N   0  0  0  0  0  1  0  0  0  0  0  0
  157.4870  213.0960  153.2010 C   0  0  0  0  0  0  0  0  0  0  0  0
  159.2690  211.4860  152.8930 C   0  0  0  0  0  0  0  0  0  0  0  0
  159.1700  213.4700  151.5520 N   0  0  0  0  0  0  0  0  0  0  0  0
  158.0350  213.8740  152.1810 C   0  0  0  0  0  3  0  0  0  0  0  0
  159.7980  212.3080  151.8800 C   0  0  0  0  0  0  0  0  0  0  0  0
  155.9940  213.6190  154.0340 S   0  0  0  0  0  0  0  0  0  0  0  0
  155.8370  212.0450  154.9260 C   0  0  0  0  0  1  0  0  0  0  0  0
  161.7910  206.1380  151.6460 C   0  0  0  0  0  2  0  0  0  0  0  0
  162.3120  207.5090  149.2320 O   0  0  0  0  0  0  0  0  0  0  0  0
  162.0760  207.6500  151.6320 C   0  0  1  0  0  3  0  0  0  0  0  0
  161.1410  206.9420  148.7120 C   0  0  2  0  0  3  0  0  0  0  0  0
  160.8740  205.5880  149.3730 C   0  0  0  0  0  2  0  0  0  0  0  0
  160.5460  205.7450  150.8530 C   0  0  0  0  0  2  0  0  0  0  0  0
  161.8750  208.3340  150.2750 C   0  0  0  0  0  2  0  0  0  0  0  0
  162.1860  206.0070  146.8050 C   0  0  0  0  0  2  0  0  0  0  0  0
  161.2830  206.7800  147.2880 N   0  0  0  0  0  0  0  0  0  0  0  0
  162.3680  210.3410  155.6170 N   0  0  0  0  0  2  0  0  0  0  0  0
  161.7720  209.0850  155.9520 C   0  0  0  0  0  0  0  0  0  0  0  0
  162.1850  208.4280  156.9440 O   0  0  0  0  0  0  0  0  0  0  0  0
  163.4580  210.9080  156.3920 C   0  0  0  0  0  1  0  0  0  0  0  0
  1  7  2  0  0  0  0
  1  8  1  0  0  0  0
  2  1  1  0  0  0  0
  3  4  1  0  0  0  0
  4  8  1  0  0  0  0
  4  6  2  0  0  0  0
  5  2  1  0  0  0  0
  5  3  2  0  0  0  0
  8 28  1  6  0  0  0
 10 15  1  0  0  0  0
 11  9  1  0  0  0  0
 11 16  1  0  0  0  0
 12  3  1  0  0  0  0
 12  9  2  0  0  0  0
 13 15  2  0  0  0  0
 13 14  1  0  0  0  0
 14 11  2  0  0  0  0
 15 12  1  0  0  0  0
 16 17  1  0  0  0  0
 19 24  1  0  0  0  0
 20 24  1  6  0  0  0
 20 18  1  0  0  0  0
 20  2  1  0  0  0  0
 21 26  1  6  0  0  0
 21 19  1  0  0  0  0
 21 22  1  0  0  0  0
 22 23  1  0  0  0  0
 23 18  1  0  0  0  0
 25 26  2  0  0  0  0
 27 28  1  0  0  0  0
 27 30  1  0  0  0  0
 28 29  2  0  0  0  0
M  END
>  <MODEL>
3

>  <REMARK>
 VINA RESULT:      -7.0      1.405      1.847
  Name = 
  5 active torsions:
  status: ('A' for Active; 'I' for Inactive)
    1  A    between atoms: C_2  and  C_27
    2  A    between atoms: N_4  and  C_10
    3  A    between atoms: C_9  and  C_21
    4  A    between atoms: C_14  and  S_17
    5  A    between atoms: C_18  and  N_25
                            x       y       z     vdW  Elec       q    Type
                         _______ _______ _______ _____ _____    ______ ____

>  <TORSDO>
F 5

$$$$
=
 OpenBabel11042420123D

 30 32  0  0  1  0  0  0  0  0999 V2000
  161.8700  211.7030  149.1510 C   0  0  0  0  0  0  0  0  0  0  0  0
  161.6350  210.6610  150.1120 N   0  0  0  0  0  0  0  0  0  0  0  0
  160.2660  212.1080  151.5020 C   0  0  0  0  0  0  0  0  0  0  0  0
  160.4840  213.2250  150.5440 C   0  0  0  0  0  0  0  0  0  0  0  0
  160.8060  210.9100  151.2600 C   0  0  0  0  0  3  0  0  0  0  0  0
  160.0510  214.4530  150.8130 C   0  0  0  0  0  2  0  0  0  0  0  0
  162.7460  211.5590  148.2560 O   0  0  0  0  0  0  0  0  0  0  0  0
  161.0360  212.9490  149.1710 C   0  0  2  0  0  3  0  0  0  0  0  0
  158.1780  212.8330  152.6280 C   0  0  0  0  0  3  0  0  0  0  0  0
  161.1920  211.2370  154.1340 N   0  0  0  0  0  1  0  0  0  0  0  0
  157.3920  212.9910  153.7690 C   0  0  0  0  0  0  0  0  0  0  0  0
  159.4560  212.2730  152.7250 C   0  0  0  0  0  0  0  0  0  0  0  0
  159.1330  212.0310  155.0880 N   0  0  0  0  0  0  0  0  0  0  0  0
  157.8950  212.5850  155.0050 C   0  0  0  0  0  3  0  0  0  0  0  0
  159.9190  211.8630  153.9890 C   0  0  0  0  0  0  0  0  0  0  0  0
  155.7650  213.7220  153.6510 S   0  0  0  0  0  0  0  0  0  0  0  0
  156.0740  214.3510  151.9760 C   0  0  0  0  0  1  0  0  0  0  0  0
  162.2760  208.5640  151.2600 C   0  0  0  0  0  2  0  0  0  0  0  0
  162.0550  207.2630  148.7630 O   0  0  0  0  0  0  0  0  0  0  0  0
  162.2760  209.3590  149.9430 C   0  0  1  0  0  3  0  0  0  0  0  0
  160.9260  206.6000  149.2610 C   0  0  2  0  0  3  0  0  0  0  0  0
  161.0430  206.4290  150.7770 C   0  0  0  0  0  2  0  0  0  0  0  0
  160.9910  207.7730  151.4950 C   0  0  0  0  0  2  0  0  0  0  0  0
  161.6910  208.6140  148.7370 C   0  0  0  0  0  2  0  0  0  0  0  0
  161.1290  204.2420  149.2530 C   0  0  0  0  0  2  0  0  0  0  0  0
  160.8110  205.3130  148.6240 N   0  0  0  0  0  0  0  0  0  0  0  0
  158.6240  213.3250  148.4720 N   0  0  0  0  0  2  0  0  0  0  0  0
  159.9340  212.8450  148.1610 C   0  0  0  0  0  0  0  0  0  0  0  0
  160.1740  212.3300  147.0370 O   0  0  0  0  0  0  0  0  0  0  0  0
  157.5280  213.2440  147.5220 C   0  0  0  0  0  1  0  0  0  0  0  0
  1  8  1  0  0  0  0
  1  2  1  0  0  0  0
  2  5  1  0  0  0  0
  3 12  1  0  0  0  0
  4  6  2  0  0  0  0
  4  3  1  0  0  0  0
  5  3  2  0  0  0  0
  7  1  2  0  0  0  0
  8 28  1  6  0  0  0
  8  4  1  0  0  0  0
  9 12  2  0  0  0  0
  9 11  1  0  0  0  0
 11 14  2  0  0  0  0
 12 15  1  0  0  0  0
 14 13  1  0  0  0  0
 15 10  1  0  0  0  0
 15 13  2  0  0  0  0
 16 11  1  0  0  0  0
 17 16  1  0  0  0  0
 18 23  1  0  0  0  0
 19 21  1  0  0  0  0
 20 24  1  6  0  0  0
 20  2  1  0  0  0  0
 20 18  1  0  0  0  0
 21 26  1  6  0  0  0
 21 22  1  0  0  0  0
 22 23  1  0  0  0  0
 24 19  1  0  0  0  0
 26 25  2  0  0  0  0
 28 27  1  0  0  0  0
 29 28  2  0  0  0  0
 30 27  1  0  0  0  0
M  END
>  <MODEL>
4

>  <REMARK>
 VINA RESULT:      -6.3      2.823      5.019
  Name = 
  5 active torsions:
  status: ('A' for Active; 'I' for Inactive)
    1  A    between atoms: C_2  and  C_27
    2  A    between atoms: N_4  and  C_10
    3  A    between atoms: C_9  and  C_21
    4  A    between atoms: C_14  and  S_17
    5  A    between atoms: C_18  and  N_25
                            x       y       z     vdW  Elec       q    Type
                         _______ _______ _______ _____ _____    ______ ____

>  <TORSDO>
F 5

$$$$
=
 OpenBabel11042420123D

 30 32  0  0  1  0  0  0  0  0999 V2000
  162.0440  208.5190  149.3330 C   0  0  0  0  0  0  0  0  0  0  0  0
  161.0790  207.6010  149.8710 N   0  0  0  0  0  0  0  0  0  0  0  0
  161.2940  208.5190  152.1080 C   0  0  0  0  0  0  0  0  0  0  0  0
  162.3070  209.4880  151.6070 C   0  0  0  0  0  0  0  0  0  0  0  0
  160.7230  207.6570  151.2620 C   0  0  0  0  0  3  0  0  0  0  0  0
  162.9690  210.2810  152.4440 C   0  0  0  0  0  2  0  0  0  0  0  0
  162.5070  208.3520  148.1720 O   0  0  0  0  0  0  0  0  0  0  0  0
  162.4670  209.7180  150.1280 C   0  0  2  0  0  3  0  0  0  0  0  0
  160.3090  209.6150  154.1050 C   0  0  0  0  0  3  0  0  0  0  0  0
  161.5660  206.1220  153.7590 N   0  0  0  0  0  1  0  0  0  0  0  0
  159.9080  209.5970  155.4400 C   0  0  0  0  0  0  0  0  0  0  0  0
  160.8850  208.4790  153.5270 C   0  0  0  0  0  0  0  0  0  0  0  0
  160.6380  207.3320  155.6170 N   0  0  0  0  0  0  0  0  0  0  0  0
  160.0880  208.4350  156.1900 C   0  0  0  0  0  3  0  0  0  0  0  0
  161.0350  207.3220  154.3150 C   0  0  0  0  0  0  0  0  0  0  0  0
  159.1870  211.0520  156.1860 S   0  0  0  0  0  0  0  0  0  0  0  0
  160.0800  212.1730  155.0710 C   0  0  0  0  0  1  0  0  0  0  0  0
  161.0680  206.6510  147.5840 C   0  0  0  0  0  2  0  0  0  0  0  0
  160.3150  204.1840  148.7350 O   0  0  0  0  0  0  0  0  0  0  0  0
  160.4910  206.5780  149.0080 C   0  0  1  0  0  3  0  0  0  0  0  0
  161.5810  203.6920  148.3920 C   0  0  2  0  0  3  0  0  0  0  0  0
  162.1020  204.4050  147.1420 C   0  0  0  0  0  2  0  0  0  0  0  0
  162.3750  205.8800  147.4160 C   0  0  0  0  0  2  0  0  0  0  0  0
  160.5680  205.1960  149.6680 C   0  0  0  0  0  2  0  0  0  0  0  0
  160.8040  201.5220  148.9320 C   0  0  0  0  0  2  0  0  0  0  0  0
  161.4900  202.2750  148.1520 N   0  0  0  0  0  0  0  0  0  0  0  0
  161.9020  211.4760  148.3840 N   0  0  0  0  0  2  0  0  0  0  0  0
  161.6970  210.9250  149.6870 C   0  0  0  0  0  0  0  0  0  0  0  0
  160.8680  211.4500  150.4780 O   0  0  0  0  0  0  0  0  0  0  0  0
  161.1760  212.6440  147.9180 C   0  0  0  0  0  1  0  0  0  0  0  0
  1  2  1  0  0  0  0
  1  8  1  0  0  0  0
  2  5  1  0  0  0  0
  3 12  1  0  0  0  0
  4  3  1  0  0  0  0
  4  6  2  0  0  0  0
  5  3  2  0  0  0  0
  7  1  2  0  0  0  0
  8 28  1  6  0  0  0
  8  4  1  0  0  0  0
  9 11  1  0  0  0  0
 10 15  1  0  0  0  0
 11 16  1  0  0  0  0
 11 14  2  0  0  0  0
 12  9  2  0  0  0  0
 12 15  1  0  0  0  0
 13 14  1  0  0  0  0
 15 13  2  0  0  0  0
 17 16  1  0  0  0  0
 19 24  1  0  0  0  0
 20 18  1  6  0  0  0
 20 24  1  0  0  0  0
 20  2  1  0  0  0  0
 21 26  1  6  0  0  0
 21 19  1  0  0  0  0
 22 23  1  0  0  0  0
 22 21  1  0  0  0  0
 23 18  1  0  0  0  0
 26 25  2  0  0  0  0
 27 28  1  0  0  0  0
 28 29  2  0  0  0  0
 30 27  1  0  0  0  0
M  END
>  <MODEL>
5

>  <REMARK>
 VINA RESULT:      -6.1      3.328      5.476
  Name = 
  5 active torsions:
  status: ('A' for Active; 'I' for Inactive)
    1  A    between atoms: C_2  and  C_27
    2  A    between atoms: N_4  and  C_10
    3  A    between atoms: C_9  and  C_21
    4  A    between atoms: C_14  and  S_17
    5  A    between atoms: C_18  and  N_25
                            x       y       z     vdW  Elec       q    Type
                         _______ _______ _______ _____ _____    ______ ____

>  <TORSDO>
F 5

$$$$
=
 OpenBabel11042420123D

 30 32  0  0  1  0  0  0  0  0999 V2000
  162.0540  207.8800  149.4050 C   0  0  0  0  0  0  0  0  0  0  0  0
  160.9600  207.2780  150.1170 N   0  0  0  0  0  0  0  0  0  0  0  0
  161.1920  208.8140  151.9840 C   0  0  0  0  0  0  0  0  0  0  0  0
  162.3370  209.4690  151.2950 C   0  0  0  0  0  0  0  0  0  0  0  0
  160.5550  207.7980  151.3940 C   0  0  0  0  0  3  0  0  0  0  0  0
  163.0560  210.4070  151.9040 C   0  0  0  0  0  2  0  0  0  0  0  0
  162.5410  207.3150  148.3890 O   0  0  0  0  0  0  0  0  0  0  0  0
  162.5880  209.2140  149.8330 C   0  0  2  0  0  3  0  0  0  0  0  0
  161.1960  208.6070  154.4570 C   0  0  0  0  0  3  0  0  0  0  0  0
  159.3520  211.0580  152.3350 N   0  0  0  0  0  1  0  0  0  0  0  0
  160.7710  209.0140  155.7210 C   0  0  0  0  0  0  0  0  0  0  0  0
  160.7210  209.2560  153.3120 C   0  0  0  0  0  0  0  0  0  0  0  0
  159.4210  210.7030  154.7110 N   0  0  0  0  0  0  0  0  0  0  0  0
  159.8680  210.0720  155.8290 C   0  0  0  0  0  3  0  0  0  0  0  0
  159.8230  210.3290  153.4660 C   0  0  0  0  0  0  0  0  0  0  0  0
  161.3620  208.1770  157.1850 S   0  0  0  0  0  0  0  0  0  0  0  0
  160.0470  206.9270  157.1070 C   0  0  0  0  0  1  0  0  0  0  0  0
  160.3380  206.1160  148.0210 C   0  0  0  0  0  2  0  0  0  0  0  0
  160.4110  203.6960  149.4750 O   0  0  0  0  0  0  0  0  0  0  0  0
  160.2870  206.1070  149.5590 C   0  0  1  0  0  3  0  0  0  0  0  0
  161.5510  203.3440  148.7410 C   0  0  2  0  0  3  0  0  0  0  0  0
  161.5060  203.9940  147.3570 C   0  0  0  0  0  2  0  0  0  0  0  0
  161.6180  205.5120  147.4490 C   0  0  0  0  0  2  0  0  0  0  0  0
  160.7970  204.8190  150.2150 C   0  0  0  0  0  2  0  0  0  0  0  0
  160.9240  201.1570  149.3920 C   0  0  0  0  0  2  0  0  0  0  0  0
  161.6100  201.9110  148.6140 N   0  0  0  0  0  0  0  0  0  0  0  0
  162.1880  211.6730  149.3390 N   0  0  0  0  0  2  0  0  0  0  0  0
  161.9930  210.3000  148.9900 C   0  0  0  0  0  0  0  0  0  0  0  0
  161.3180  209.9900  147.9730 O   0  0  0  0  0  0  0  0  0  0  0  0
  161.6290  212.7560  148.5480 C   0  0  0  0  0  1  0  0  0  0  0  0
  1  8  1  0  0  0  0
  1  2  1  0  0  0  0
  2  5  1  0  0  0  0
  3 12  1  0  0  0  0
  4  6  2  0  0  0  0
  4  3  1  0  0  0  0
  5  3  2  0  0  0  0
  7  1  2  0  0  0  0
  8 28  1  6  0  0  0
  8  4  1  0  0  0  0
  9 11  1  0  0  0  0
 10 15  1  0  0  0  0
 11 14  2  0  0  0  0
 11 16  1  0  0  0  0
 12 15  1  0  0  0  0
 12  9  2  0  0  0  0
 13 14  1  0  0  0  0
 15 13  2  0  0  0  0
 17 16  1  0  0  0  0
 19 24  1  0  0  0  0
 20 18  1  6  0  0  0
 20  2  1  0  0  0  0
 20 24  1  0  0  0  0
 21 26  1  6  0  0  0
 21 19  1  0  0  0  0
 22 23  1  0  0  0  0
 22 21  1  0  0  0  0
 23 18  1  0  0  0  0
 26 25  2  0  0  0  0
 28 27  1  0  0  0  0
 29 28  2  0  0  0  0
 30 27  1  0  0  0  0
M  END
>  <MODEL>
6

>  <REMARK>
 VINA RESULT:      -5.4      3.367      5.612
  Name = 
  5 active torsions:
  status: ('A' for Active; 'I' for Inactive)
    1  A    between atoms: C_2  and  C_27
    2  A    between atoms: N_4  and  C_10
    3  A    between atoms: C_9  and  C_21
    4  A    between atoms: C_14  and  S_17
    5  A    between atoms: C_18  and  N_25
                            x       y       z     vdW  Elec       q    Type
                         _______ _______ _______ _____ _____    ______ ____

>  <TORSDO>
F 5

$$$$
=
 OpenBabel11042420123D

 30 32  0  0  1  0  0  0  0  0999 V2000
  160.0590  211.8270  154.5630 C   0  0  0  0  0  0  0  0  0  0  0  0
  159.1680  211.1100  153.6930 N   0  0  0  0  0  0  0  0  0  0  0  0
  160.9830  209.8200  152.7240 C   0  0  0  0  0  0  0  0  0  0  0  0
  161.9510  210.5390  153.5950 C   0  0  0  0  0  0  0  0  0  0  0  0
  159.6790  210.1000  152.8080 C   0  0  0  0  0  3  0  0  0  0  0  0
  163.2620  210.3590  153.4570 C   0  0  0  0  0  2  0  0  0  0  0  0
  159.6560  212.8420  155.1930 O   0  0  0  0  0  0  0  0  0  0  0  0
  161.4620  211.3410  154.7710 C   0  0  2  0  0  3  0  0  0  0  0  0
  161.3280  207.4390  152.1190 C   0  0  0  0  0  3  0  0  0  0  0  0
  161.9490  210.4730  150.0430 N   0  0  0  0  0  1  0  0  0  0  0  0
  161.7210  206.4470  151.2210 C   0  0  0  0  0  0  0  0  0  0  0  0
  161.4140  208.7880  151.7600 C   0  0  0  0  0  0  0  0  0  0  0  0
  162.2720  208.1290  149.6210 N   0  0  0  0  0  0  0  0  0  0  0  0
  162.2030  206.8160  149.9650 C   0  0  0  0  0  3  0  0  0  0  0  0
  161.8910  209.1170  150.4770 C   0  0  0  0  0  0  0  0  0  0  0  0
  161.6270  204.7230  151.6820 S   0  0  0  0  0  0  0  0  0  0  0  0
  161.1140  204.2160  150.0160 C   0  0  0  0  0  1  0  0  0  0  0  0
  156.9570  210.5510  154.6570 C   0  0  0  0  0  2  0  0  0  0  0  0
  156.1970  213.2280  154.1740 O   0  0  0  0  0  0  0  0  0  0  0  0
  157.7450  211.4400  153.6790 C   0  0  1  0  0  3  0  0  0  0  0  0
  156.1910  213.4270  155.5600 C   0  0  2  0  0  3  0  0  0  0  0  0
  155.8510  212.1190  156.2780 C   0  0  0  0  0  2  0  0  0  0  0  0
  156.9490  211.0790  156.0900 C   0  0  0  0  0  2  0  0  0  0  0  0
  157.5320  212.9480  153.8610 C   0  0  0  0  0  2  0  0  0  0  0  0
  154.3490  214.2360  156.8080 C   0  0  0  0  0  2  0  0  0  0  0  0
  155.2220  214.4400  155.8900 N   0  0  0  0  0  0  0  0  0  0  0  0
  161.1500  209.1690  156.0510 N   0  0  0  0  0  2  0  0  0  0  0  0
  161.5460  210.5430  156.0360 C   0  0  0  0  0  0  0  0  0  0  0  0
  161.9680  211.0950  157.0870 O   0  0  0  0  0  0  0  0  0  0  0  0
  161.2170  208.3600  157.2550 C   0  0  0  0  0  1  0  0  0  0  0  0
  1  8  1  0  0  0  0
  1  7  2  0  0  0  0
  2  1  1  0  0  0  0
  3  5  2  0  0  0  0
  3  4  1  0  0  0  0
  4  8  1  0  0  0  0
  5  2  1  0  0  0  0
  6  4  2  0  0  0  0
  8 28  1  1  0  0  0
 10 15  1  0  0  0  0
 11 16  1  0  0  0  0
 11  9  2  0  0  0  0
 12  9  1  0  0  0  0
 12  3  1  0  0  0  0
 13 14  2  0  0  0  0
 13 15  1  0  0  0  0
 14 11  1  0  0  0  0
 15 12  2  0  0  0  0
 17 16  1  0  0  0  0
 18 23  1  0  0  0  0
 19 21  1  0  0  0  0
 20  2  1  1  0  0  0
 20 24  1  0  0  0  0
 20 18  1  0  0  0  0
 21 26  1  6  0  0  0
 21 22  1  0  0  0  0
 23 22  1  0  0  0  0
 24 19  1  0  0  0  0
 26 25  2  0  0  0  0
 27 30  1  0  0  0  0
 28 27  1  0  0  0  0
 28 29  2  0  0  0  0
M  END
>  <MODEL>
7

>  <REMARK>
 VINA RESULT:      -5.3      3.385      7.140
  Name = 
  5 active torsions:
  status: ('A' for Active; 'I' for Inactive)
    1  A    between atoms: C_2  and  C_27
    2  A    between atoms: N_4  and  C_10
    3  A    between atoms: C_9  and  C_21
    4  A    between atoms: C_14  and  S_17
    5  A    between atoms: C_18  and  N_25
                            x       y       z     vdW  Elec       q    Type
                         _______ _______ _______ _____ _____    ______ ____

>  <TORSDO>
F 5

$$$$
=
 OpenBabel11042420123D

 30 32  0  0  1  0  0  0  0  0999 V2000
  160.3710  211.8400  154.5430 C   0  0  0  0  0  0  0  0  0  0  0  0
  159.8820  212.1670  153.2320 N   0  0  0  0  0  0  0  0  0  0  0  0
  160.9920  210.2550  152.2270 C   0  0  0  0  0  0  0  0  0  0  0  0
  161.5340  209.8760  153.5600 C   0  0  0  0  0  0  0  0  0  0  0  0
  160.2040  211.3280  152.1110 C   0  0  0  0  0  3  0  0  0  0  0  0
  162.4060  208.8800  153.6870 C   0  0  0  0  0  2  0  0  0  0  0  0
  160.2630  212.6670  155.4890 O   0  0  0  0  0  0  0  0  0  0  0  0
  160.9650  210.4900  154.8110 C   0  0  2  0  0  3  0  0  0  0  0  0
  160.9840  208.1100  150.9800 C   0  0  0  0  0  3  0  0  0  0  0  0
  162.1420  211.4610  149.8250 N   0  0  0  0  0  1  0  0  0  0  0  0
  161.2500  207.3550  149.8380 C   0  0  0  0  0  0  0  0  0  0  0  0
  161.2920  209.4740  151.0100 C   0  0  0  0  0  0  0  0  0  0  0  0
  162.1120  209.3040  148.7640 N   0  0  0  0  0  0  0  0  0  0  0  0
  161.8270  207.9750  148.7300 C   0  0  0  0  0  3  0  0  0  0  0  0
  161.8590  210.0640  149.8640 C   0  0  0  0  0  0  0  0  0  0  0  0
  160.8720  205.6090  149.8020 S   0  0  0  0  0  0  0  0  0  0  0  0
  161.5390  205.3420  151.4700 C   0  0  0  0  0  1  0  0  0  0  0  0
  159.5410  214.1370  151.7720 C   0  0  0  0  0  2  0  0  0  0  0  0
  156.8400  214.1380  152.5960 O   0  0  0  0  0  0  0  0  0  0  0  0
  159.0920  213.3790  153.0330 C   0  0  1  0  0  3  0  0  0  0  0  0
  156.4930  213.7440  151.2970 C   0  0  2  0  0  3  0  0  0  0  0  0
  157.5160  214.2810  150.2940 C   0  0  0  0  0  2  0  0  0  0  0  0
  158.8820  213.6330  150.4900 C   0  0  0  0  0  2  0  0  0  0  0  0
  157.5920  213.0710  153.1020 C   0  0  0  0  0  2  0  0  0  0  0  0
  154.8110  214.3950  149.7650 C   0  0  0  0  0  2  0  0  0  0  0  0
  155.1800  214.2460  150.9840 N   0  0  0  0  0  0  0  0  0  0  0  0
  160.2800  208.2530  155.8010 N   0  0  0  0  0  2  0  0  0  0  0  0
  159.9390  209.5910  155.4300 C   0  0  0  0  0  0  0  0  0  0  0  0
  158.7710  210.0270  155.6190 O   0  0  0  0  0  0  0  0  0  0  0  0
  159.3150  207.3500  156.4040 C   0  0  0  0  0  1  0  0  0  0  0  0
  1  8  1  0  0  0  0
  1  7  2  0  0  0  0
  2  1  1  0  0  0  0
  3  4  1  0  0  0  0
  4  6  2  0  0  0  0
  4  8  1  0  0  0  0
  5  3  2  0  0  0  0
  5  2  1  0  0  0  0
  8 28  1  6  0  0  0
  9 12  1  0  0  0  0
 10 15  1  0  0  0  0
 11  9  2  0  0  0  0
 12  3  1  0  0  0  0
 13 15  1  0  0  0  0
 14 13  2  0  0  0  0
 14 11  1  0  0  0  0
 15 12  2  0  0  0  0
 16 11  1  0  0  0  0
 16 17  1  0  0  0  0
 19 24  1  0  0  0  0
 20 18  1  6  0  0  0
 20 24  1  0  0  0  0
 20  2  1  0  0  0  0
 21 26  1  6  0  0  0
 21 19  1  0  0  0  0
 22 23  1  0  0  0  0
 22 21  1  0  0  0  0
 23 18  1  0  0  0  0
 25 26  2  0  0  0  0
 27 30  1  0  0  0  0
 28 29  2  0  0  0  0
 28 27  1  0  0  0  0
M  END
>  <MODEL>
8

>  <REMARK>
 VINA RESULT:      -5.0      3.183      6.460
  Name = 
  5 active torsions:
  status: ('A' for Active; 'I' for Inactive)
    1  A    between atoms: C_2  and  C_27
    2  A    between atoms: N_4  and  C_10
    3  A    between atoms: C_9  and  C_21
    4  A    between atoms: C_14  and  S_17
    5  A    between atoms: C_18  and  N_25
                            x       y       z     vdW  Elec       q    Type
                         _______ _______ _______ _____ _____    ______ ____

>  <TORSDO>
F 5

$$$$
=
 OpenBabel11042420123D

 30 32  0  0  1  0  0  0  0  0999 V2000
  160.7520  209.3880  154.6400 C   0  0  0  0  0  0  0  0  0  0  0  0
  159.6780  210.3340  154.5150 N   0  0  0  0  0  0  0  0  0  0  0  0
  160.5610  211.2230  152.4350 C   0  0  0  0  0  0  0  0  0  0  0  0
  161.7010  210.2690  152.5180 C   0  0  0  0  0  0  0  0  0  0  0  0
  159.6180  211.2150  153.3810 C   0  0  0  0  0  3  0  0  0  0  0  0
  162.7080  210.3280  151.6520 C   0  0  0  0  0  2  0  0  0  0  0  0
  160.9240  208.7560  155.7170 O   0  0  0  0  0  0  0  0  0  0  0  0
  161.6460  209.1040  153.4700 C   0  0  2  0  0  3  0  0  0  0  0  0
  161.0730  211.9260  150.1110 C   0  0  0  0  0  3  0  0  0  0  0  0
  158.9280  213.6390  152.6340 N   0  0  0  0  0  1  0  0  0  0  0  0
  160.9530  212.8180  149.0460 C   0  0  0  0  0  0  0  0  0  0  0  0
  160.4280  212.1860  151.3240 C   0  0  0  0  0  0  0  0  0  0  0  0
  159.5520  214.2100  150.3840 N   0  0  0  0  0  0  0  0  0  0  0  0
  160.1850  213.9710  149.2050 C   0  0  0  0  0  3  0  0  0  0  0  0
  159.6490  213.3540  151.4380 C   0  0  0  0  0  0  0  0  0  0  0  0
  161.7900  212.4960  147.5000 S   0  0  0  0  0  0  0  0  0  0  0  0
  162.7060  214.0620  147.5690 C   0  0  0  0  0  1  0  0  0  0  0  0
  159.2280  211.1430  156.8110 C   0  0  0  0  0  2  0  0  0  0  0  0
  156.5180  211.4100  156.0630 O   0  0  0  0  0  0  0  0  0  0  0  0
  158.6690  210.4300  155.5670 C   0  0  1  0  0  3  0  0  0  0  0  0
  156.6810  212.7990  156.1460 C   0  0  2  0  0  3  0  0  0  0  0  0
  157.7530  213.1410  157.1830 C   0  0  0  0  0  2  0  0  0  0  0  0
  159.1310  212.6650  156.7370 C   0  0  0  0  0  2  0  0  0  0  0  0
  157.3620  211.0150  155.0200 C   0  0  0  0  0  2  0  0  0  0  0  0
  154.9820  214.4250  155.8750 C   0  0  0  0  0  2  0  0  0  0  0  0
  155.4260  213.4040  156.5130 N   0  0  0  0  0  0  0  0  0  0  0  0
  161.5950  206.5750  153.2460 N   0  0  0  0  0  2  0  0  0  0  0  0
  161.1930  207.8610  152.7680 C   0  0  0  0  0  0  0  0  0  0  0  0
  160.4560  207.9610  151.7510 O   0  0  0  0  0  0  0  0  0  0  0  0
  161.1780  205.3450  152.5950 C   0  0  0  0  0  1  0  0  0  0  0  0
  1  7  2  0  0  0  0
  2  1  1  0  0  0  0
  3  4  1  0  0  0  0
  3  5  2  0  0  0  0
  4  8  1  0  0  0  0
  5  2  1  0  0  0  0
  6  4  2  0  0  0  0
  8 28  1  6  0  0  0
  8  1  1  0  0  0  0
  9 12  1  0  0  0  0
 11 14  1  0  0  0  0
 11  9  2  0  0  0  0
 12 15  2  0  0  0  0
 12  3  1  0  0  0  0
 13 15  1  0  0  0  0
 14 13  2  0  0  0  0
 15 10  1  0  0  0  0
 16 17  1  0  0  0  0
 16 11  1  0  0  0  0
 19 21  1  0  0  0  0
 20  2  1  6  0  0  0
 20 18  1  0  0  0  0
 21 26  1  1  0  0  0
 21 22  1  0  0  0  0
 23 18  1  0  0  0  0
 23 22  1  0  0  0  0
 24 20  1  0  0  0  0
 24 19  1  0  0  0  0
 25 26  2  0  0  0  0
 28 27  1  0  0  0  0
 29 28  2  0  0  0  0
 30 27  1  0  0  0  0
M  END
>  <MODEL>
9

>  <REMARK>
 VINA RESULT:      -4.8      2.792      6.269
  Name = 
  5 active torsions:
  status: ('A' for Active; 'I' for Inactive)
    1  A    between atoms: C_2  and  C_27
    2  A    between atoms: N_4  and  C_10
    3  A    between atoms: C_9  and  C_21
    4  A    between atoms: C_14  and  S_17
    5  A    between atoms: C_18  and  N_25
                            x       y       z     vdW  Elec       q    Type
                         _______ _______ _______ _____ _____    ______ ____

>  <TORSDO>
F 5

$$$$
