=
 OpenBabel11052410463D

 37 39  0  0  1  0  0  0  0  0999 V2000
  161.7260  208.9900  152.6340 N   0  0  0  0  0  0  0  0  0  0  0  0
  163.1920  206.0190  151.2830 O   0  0  0  0  0  0  0  0  0  0  0  0
  161.0210  208.4700  153.6050 C   0  0  0  0  0  0  0  0  0  0  0  0
  160.8090  207.0480  153.6510 N   0  0  0  0  0  0  0  0  0  0  0  0
  162.2480  208.2200  151.4990 C   0  0  1  0  0  3  0  0  0  0  0  0
  162.3560  206.7650  151.8590 C   0  0  0  0  0  0  0  0  0  0  0  0
  161.4320  206.2260  152.8580 C   0  0  0  0  0  0  0  0  0  0  0  0
  159.2470  211.0990  156.5110 C   0  0  0  0  0  3  0  0  0  0  0  0
  160.1450  210.1230  156.9430 C   0  0  0  0  0  3  0  0  0  0  0  0
  161.9080  208.1070  156.6880 Cl  0  0  0  0  0  0  0  0  0  0  0  0
  157.8290  212.4450  154.6080 Cl  0  0  0  0  0  0  0  0  0  0  0  0
  160.4450  209.3590  154.6460 C   0  0  0  0  0  0  0  0  0  0  0  0
  158.9500  211.2180  155.1550 C   0  0  0  0  0  0  0  0  0  0  0  0
  160.7480  209.2530  156.0290 C   0  0  0  0  0  0  0  0  0  0  0  0
  159.5440  210.3550  154.2330 C   0  0  0  0  0  3  0  0  0  0  0  0
  161.2360  204.8460  152.9510 O   0  0  0  0  0  0  0  0  0  0  0  0
  160.3110  204.1550  152.1240 C   0  0  0  0  0  2  0  0  0  0  0  0
  160.9790  202.9380  151.5190 C   0  0  2  0  0  3  0  0  0  0  0  0
  162.3360  202.9350  151.8470 O   0  0  0  0  0  1  0  0  0  0  0  0
  160.8120  202.9720  150.0100 C   0  0  0  0  0  2  0  0  0  0  0  0
  159.1780  201.3620  149.3820 O   0  0  0  0  0  0  0  0  0  0  0  0
  160.4020  201.6310  149.4960 C   0  0  0  0  0  0  0  0  0  0  0  0
  161.5090  200.3330  147.8380 O   0  0  0  0  0  1  0  0  0  0  0  0
  161.3530  200.6820  149.1210 O   0  0  0  0  0  0  0  0  0  0  0  0
  161.3010  208.4030  150.3160 C   0  0  0  0  0  2  0  0  0  0  0  0
  162.2620  209.4770  148.3940 O   0  0  0  0  0  1  0  0  0  0  0  0
  162.0110  208.2320  148.9760 C   0  0  2  0  0  3  0  0  0  0  0  0
  160.4590  206.2490  148.7770 C   0  0  0  0  0  1  0  0  0  0  0  0
  161.2250  207.3250  148.0220 C   0  0  2  0  0  3  0  0  0  0  0  0
  162.0990  206.7180  147.1110 O   0  0  0  0  0  0  0  0  0  0  0  0
  161.4500  205.5680  146.6500 C   0  0  1  0  0  3  0  0  0  0  0  0
  159.9960  203.6060  144.4320 O   0  0  0  0  0  0  0  0  0  0  0  0
  160.6790  205.8960  145.3730 C   0  0  1  0  0  3  0  0  0  0  0  0
  161.5120  205.8350  144.2530 N   0  0  0  0  0  2  0  0  0  0  0  0
  160.5250  204.7280  144.6350 C   0  0  0  0  0  0  0  0  0  0  0  0
  163.6630  204.7410  146.4520 O   0  0  0  0  0  0  0  0  0  0  0  0
  162.4680  204.4920  146.4120 C   0  0  0  0  0  3  0  0  0  0  0  0
  1  3  2  0  0  0  0
  2  6  2  0  0  0  0
  3  4  1  0  0  0  0
  3 12  1  0  0  0  0
  5 25  1  6  0  0  0
  5  6  1  0  0  0  0
  5  1  1  0  0  0  0
  6  7  1  0  0  0  0
  7 16  1  0  0  0  0
  7  4  2  0  0  0  0
  8  9  1  0  0  0  0
 11 13  1  0  0  0  0
 12 14  1  0  0  0  0
 13  8  2  0  0  0  0
 14 10  1  0  0  0  0
 14  9  2  0  0  0  0
 15 12  2  0  0  0  0
 15 13  1  0  0  0  0
 17 16  1  0  0  0  0
 18 19  1  6  0  0  0
 18 17  1  0  0  0  0
 20 18  1  0  0  0  0
 21 22  2  0  0  0  0
 22 20  1  0  0  0  0
 23 24  1  0  0  0  0
 24 22  1  0  0  0  0
 27 26  1  6  0  0  0
 27 25  1  0  0  0  0
 29 28  1  1  0  0  0
 29 27  1  0  0  0  0
 30 29  1  0  0  0  0
 31 37  1  6  0  0  0
 31 30  1  0  0  0  0
 32 35  2  0  0  0  0
 33 31  1  1  0  0  0
 34 35  1  0  0  0  0
 34 33  1  0  0  0  0
 35 33  1  0  0  0  0
 37 36  2  0  0  0  0
M  END
>  <MODEL>
1

>  <REMARK>
 VINA RESULT:      -7.2      0.000      0.000
  Name = 
  14 active torsions:
  status: ('A' for Active; 'I' for Inactive)
    1  A    between atoms: C_7  and  C_10
    2  A    between atoms: C_7  and  O_25
    3  A    between atoms: C_8  and  C_29
    4  A    between atoms: C_8  and  C_31
    5  A    between atoms: C_9  and  C_12
    6  A    between atoms: C_10  and  C_32
    7  A    between atoms: C_12  and  CA_17
    8  A    between atoms: C_12  and  O_20
    9  A    between atoms: C_14  and  C_24
   10  A    between atoms: C_19  and  C_29
   11  A    between atoms: O_20  and  C_31
   12  A    between atoms: C_22  and  C_32
   13  A    between atoms: C_22  and  O_33
   14  A    between atoms: O_25  and  C_27
                            x       y       z     vdW  Elec       q    Type
                         _______ _______ _______ _____ _____    ______ ____

>  <TORSDO>
F 14

$$$$
=
 OpenBabel11052410463D

 37 39  0  0  1  0  0  0  0  0999 V2000
  162.1640  209.4440  148.7730 N   0  0  0  0  0  0  0  0  0  0  0  0
  163.0300  207.0930  151.3270 O   0  0  0  0  0  0  0  0  0  0  0  0
  161.8280  210.4670  149.5140 C   0  0  0  0  0  0  0  0  0  0  0  0
  161.6220  210.2870  150.9270 N   0  0  0  0  0  0  0  0  0  0  0  0
  162.2530  208.0660  149.2700 C   0  0  1  0  0  3  0  0  0  0  0  0
  162.4550  208.0590  150.7590 C   0  0  0  0  0  0  0  0  0  0  0  0
  161.9210  209.1780  151.5380 C   0  0  0  0  0  0  0  0  0  0  0  0
  161.3980  214.2720  147.5550 C   0  0  0  0  0  3  0  0  0  0  0  0
  160.8020  214.0830  148.8010 C   0  0  0  0  0  3  0  0  0  0  0  0
  160.1790  212.7690  151.0650 Cl  0  0  0  0  0  0  0  0  0  0  0  0
  162.8850  213.4730  145.4110 Cl  0  0  0  0  0  0  0  0  0  0  0  0
  161.6590  211.8010  148.8850 C   0  0  0  0  0  0  0  0  0  0  0  0
  162.1300  213.2390  146.9720 C   0  0  0  0  0  0  0  0  0  0  0  0
  160.9230  212.8630  149.4750 C   0  0  0  0  0  0  0  0  0  0  0  0
  162.2580  212.0170  147.6320 C   0  0  0  0  0  3  0  0  0  0  0  0
  161.7480  209.0440  152.9170 O   0  0  0  0  0  0  0  0  0  0  0  0
  160.6400  208.3540  153.4780 C   0  0  0  0  0  2  0  0  0  0  0  0
  161.1370  207.2300  154.3630 C   0  0  2  0  0  3  0  0  0  0  0  0
  160.9520  206.0060  153.7180 O   0  0  0  0  0  1  0  0  0  0  0  0
  160.3680  207.2450  155.6730 C   0  0  0  0  0  2  0  0  0  0  0  0
  159.9930  209.2460  156.9020 O   0  0  0  0  0  0  0  0  0  0  0  0
  160.8240  208.3740  156.5380 C   0  0  0  0  0  0  0  0  0  0  0  0
  162.7820  209.6450  156.9970 O   0  0  0  0  0  1  0  0  0  0  0  0
  162.1480  208.4650  156.9640 O   0  0  0  0  0  0  0  0  0  0  0  0
  160.9600  207.3390  148.9080 C   0  0  0  0  0  2  0  0  0  0  0  0
  160.5280  206.4200  146.7310 O   0  0  0  0  0  1  0  0  0  0  0  0
  161.1980  206.1880  147.9350 C   0  0  2  0  0  3  0  0  0  0  0  0
  160.8150  204.8750  150.0580 C   0  0  0  0  0  1  0  0  0  0  0  0
  160.8000  204.8360  148.5380 C   0  0  2  0  0  3  0  0  0  0  0  0
  161.6740  203.8370  148.0910 O   0  0  0  0  0  0  0  0  0  0  0  0
  160.8700  202.7720  147.6680 C   0  0  1  0  0  3  0  0  0  0  0  0
  160.8490  204.1320  144.6620 O   0  0  0  0  0  0  0  0  0  0  0  0
  161.3820  202.2500  146.3270 C   0  0  1  0  0  3  0  0  0  0  0  0
  160.3560  201.6460  145.5980 N   0  0  0  0  0  2  0  0  0  0  0  0
  160.8770  203.0570  145.3150 C   0  0  0  0  0  0  0  0  0  0  0  0
  159.8780  201.4150  149.3390 O   0  0  0  0  0  0  0  0  0  0  0  0
  160.8880  201.6980  148.7150 C   0  0  0  0  0  3  0  0  0  0  0  0
  1  5  1  0  0  0  0
  1  3  2  0  0  0  0
  3  4  1  0  0  0  0
  4  7  2  0  0  0  0
  5 25  1  1  0  0  0
  5  6  1  0  0  0  0
  6  2  2  0  0  0  0
  6  7  1  0  0  0  0
  7 16  1  0  0  0  0
  8  9  1  0  0  0  0
  9 14  2  0  0  0  0
 11 13  1  0  0  0  0
 12 14  1  0  0  0  0
 12  3  1  0  0  0  0
 13  8  2  0  0  0  0
 13 15  1  0  0  0  0
 14 10  1  0  0  0  0
 15 12  2  0  0  0  0
 16 17  1  0  0  0  0
 17 18  1  0  0  0  0
 18 19  1  6  0  0  0
 18 20  1  0  0  0  0
 20 22  1  0  0  0  0
 22 21  2  0  0  0  0
 22 24  1  0  0  0  0
 24 23  1  0  0  0  0
 27 26  1  6  0  0  0
 27 29  1  0  0  0  0
 27 25  1  0  0  0  0
 29 28  1  1  0  0  0
 30 29  1  0  0  0  0
 31 30  1  0  0  0  0
 31 37  1  1  0  0  0
 32 35  2  0  0  0  0
 33 31  1  1  0  0  0
 34 33  1  0  0  0  0
 35 34  1  0  0  0  0
 35 33  1  0  0  0  0
 37 36  2  0  0  0  0
M  END
>  <MODEL>
2

>  <REMARK>
 VINA RESULT:      -7.0      3.667      6.222
  Name = 
  14 active torsions:
  status: ('A' for Active; 'I' for Inactive)
    1  A    between atoms: C_7  and  C_10
    2  A    between atoms: C_7  and  O_25
    3  A    between atoms: C_8  and  C_29
    4  A    between atoms: C_8  and  C_31
    5  A    between atoms: C_9  and  C_12
    6  A    between atoms: C_10  and  C_32
    7  A    between atoms: C_12  and  CA_17
    8  A    between atoms: C_12  and  O_20
    9  A    between atoms: C_14  and  C_24
   10  A    between atoms: C_19  and  C_29
   11  A    between atoms: O_20  and  C_31
   12  A    between atoms: C_22  and  C_32
   13  A    between atoms: C_22  and  O_33
   14  A    between atoms: O_25  and  C_27
                            x       y       z     vdW  Elec       q    Type
                         _______ _______ _______ _____ _____    ______ ____

>  <TORSDO>
F 14

$$$$
=
 OpenBabel11052410463D

 37 39  0  0  1  0  0  0  0  0999 V2000
  161.9830  206.3850  151.2580 N   0  0  0  0  0  0  0  0  0  0  0  0
  162.7640  209.8280  151.8370 O   0  0  0  0  0  0  0  0  0  0  0  0
  161.6120  206.4480  150.0060 C   0  0  0  0  0  0  0  0  0  0  0  0
  161.3520  207.7270  149.4010 N   0  0  0  0  0  0  0  0  0  0  0  0
  162.0610  207.5500  152.1470 C   0  0  1  0  0  3  0  0  0  0  0  0
  162.2060  208.8130  151.3450 C   0  0  0  0  0  0  0  0  0  0  0  0
  161.6350  208.8480  149.9980 C   0  0  0  0  0  0  0  0  0  0  0  0
  161.0960  202.7470  147.8740 C   0  0  0  0  0  3  0  0  0  0  0  0
  161.5040  203.8800  147.1710 C   0  0  0  0  0  3  0  0  0  0  0  0
  162.2670  206.4390  146.8440 Cl  0  0  0  0  0  0  0  0  0  0  0  0
  160.3680  201.4050  150.1360 Cl  0  0  0  0  0  0  0  0  0  0  0  0
  161.4590  205.1930  149.2260 C   0  0  0  0  0  0  0  0  0  0  0  0
  160.8750  202.8250  149.2480 C   0  0  0  0  0  0  0  0  0  0  0  0
  161.6900  205.1010  147.8280 C   0  0  0  0  0  0  0  0  0  0  0  0
  161.0550  204.0370  149.9160 C   0  0  0  0  0  3  0  0  0  0  0  0
  161.4090  210.0760  149.3710 O   0  0  0  0  0  0  0  0  0  0  0  0
  162.3040  210.6080  148.4040 C   0  0  0  0  0  2  0  0  0  0  0  0
  162.3620  212.1160  148.5410 C   0  0  2  0  0  3  0  0  0  0  0  0
  161.2000  212.5760  149.1620 O   0  0  0  0  0  1  0  0  0  0  0  0
  162.4950  212.7400  147.1620 C   0  0  0  0  0  2  0  0  0  0  0  0
  160.8490  214.3670  146.6170 O   0  0  0  0  0  0  0  0  0  0  0  0
  161.1570  213.1470  146.6380 C   0  0  0  0  0  0  0  0  0  0  0  0
  158.9420  212.4630  146.1070 O   0  0  0  0  0  1  0  0  0  0  0  0
  160.2550  212.2010  146.1550 O   0  0  0  0  0  0  0  0  0  0  0  0
  160.7880  207.6000  152.9880 C   0  0  0  0  0  2  0  0  0  0  0  0
  160.0660  207.0320  155.2080 O   0  0  0  0  0  1  0  0  0  0  0  0
  161.0860  207.6540  154.4840 C   0  0  2  0  0  3  0  0  0  0  0  0
  161.9130  209.1160  156.3700 C   0  0  0  0  0  1  0  0  0  0  0  0
  161.3140  209.0890  154.9720 C   0  0  2  0  0  3  0  0  0  0  0  0
  160.1030  209.7920  154.9720 O   0  0  0  0  0  0  0  0  0  0  0  0
  160.3330  210.9730  154.2590 C   0  0  1  0  0  3  0  0  0  0  0  0
  159.8670  213.3020  151.9700 O   0  0  0  0  0  0  0  0  0  0  0  0
  159.4700  210.9830  152.9990 C   0  0  1  0  0  3  0  0  0  0  0  0
  158.2290  211.5720  153.2440 N   0  0  0  0  0  2  0  0  0  0  0  0
  159.3800  212.2890  152.5330 C   0  0  0  0  0  0  0  0  0  0  0  0
  159.8290  211.9970  156.3360 O   0  0  0  0  0  0  0  0  0  0  0  0
  160.0260  212.1470  155.1400 C   0  0  0  0  0  3  0  0  0  0  0  0
  1  5  1  0  0  0  0
  3  1  2  0  0  0  0
  4  7  2  0  0  0  0
  4  3  1  0  0  0  0
  5 25  1  6  0  0  0
  6  2  2  0  0  0  0
  6  5  1  0  0  0  0
  7  6  1  0  0  0  0
  8 13  1  0  0  0  0
  9 14  1  0  0  0  0
  9  8  2  0  0  0  0
 10 14  1  0  0  0  0
 12 15  1  0  0  0  0
 12  3  1  0  0  0  0
 13 15  2  0  0  0  0
 13 11  1  0  0  0  0
 14 12  2  0  0  0  0
 16  7  1  0  0  0  0
 17 18  1  0  0  0  0
 17 16  1  0  0  0  0
 18 19  1  6  0  0  0
 20 18  1  0  0  0  0
 21 22  2  0  0  0  0
 22 20  1  0  0  0  0
 23 24  1  0  0  0  0
 24 22  1  0  0  0  0
 25 27  1  0  0  0  0
 27 29  1  0  0  0  0
 27 26  1  1  0  0  0
 29 30  1  0  0  0  0
 29 28  1  1  0  0  0
 31 30  1  0  0  0  0
 31 37  1  1  0  0  0
 32 35  2  0  0  0  0
 33 34  1  0  0  0  0
 33 31  1  1  0  0  0
 35 33  1  0  0  0  0
 35 34  1  0  0  0  0
 37 36  2  0  0  0  0
M  END
>  <MODEL>
3

>  <REMARK>
 VINA RESULT:      -6.9      4.480      9.162
  Name = 
  14 active torsions:
  status: ('A' for Active; 'I' for Inactive)
    1  A    between atoms: C_7  and  C_10
    2  A    between atoms: C_7  and  O_25
    3  A    between atoms: C_8  and  C_29
    4  A    between atoms: C_8  and  C_31
    5  A    between atoms: C_9  and  C_12
    6  A    between atoms: C_10  and  C_32
    7  A    between atoms: C_12  and  CA_17
    8  A    between atoms: C_12  and  O_20
    9  A    between atoms: C_14  and  C_24
   10  A    between atoms: C_19  and  C_29
   11  A    between atoms: O_20  and  C_31
   12  A    between atoms: C_22  and  C_32
   13  A    between atoms: C_22  and  O_33
   14  A    between atoms: O_25  and  C_27
                            x       y       z     vdW  Elec       q    Type
                         _______ _______ _______ _____ _____    ______ ____

>  <TORSDO>
F 14

$$$$
=
 OpenBabel11052410463D

 37 39  0  0  1  0  0  0  0  0999 V2000
  162.0210  206.5660  151.1020 N   0  0  0  0  0  0  0  0  0  0  0  0
  162.8170  210.0000  151.7110 O   0  0  0  0  0  0  0  0  0  0  0  0
  161.6520  206.6400  149.8500 C   0  0  0  0  0  0  0  0  0  0  0  0
  161.4000  207.9260  149.2560 N   0  0  0  0  0  0  0  0  0  0  0  0
  162.1030  207.7230  152.0010 C   0  0  1  0  0  3  0  0  0  0  0  0
  162.2540  208.9920  151.2100 C   0  0  0  0  0  0  0  0  0  0  0  0
  161.6870  209.0410  149.8620 C   0  0  0  0  0  0  0  0  0  0  0  0
  161.2740  203.0990  147.4380 C   0  0  0  0  0  3  0  0  0  0  0  0
  160.9550  203.0290  148.7930 C   0  0  0  0  0  3  0  0  0  0  0  0
  160.5680  203.9610  151.2880 Cl  0  0  0  0  0  0  0  0  0  0  0  0
  162.0920  204.4000  145.1830 Cl  0  0  0  0  0  0  0  0  0  0  0  0
  161.4950  205.3930  149.0600 C   0  0  0  0  0  0  0  0  0  0  0  0
  161.6950  204.3070  146.8850 C   0  0  0  0  0  0  0  0  0  0  0  0
  161.0580  204.1600  149.6110 C   0  0  0  0  0  0  0  0  0  0  0  0
  161.8040  205.4420  147.6890 C   0  0  0  0  0  3  0  0  0  0  0  0
  161.4670  210.2750  149.2450 O   0  0  0  0  0  0  0  0  0  0  0  0
  162.4840  210.9480  148.5160 C   0  0  0  0  0  2  0  0  0  0  0  0
  161.9950  212.3240  148.1140 C   0  0  2  0  0  3  0  0  0  0  0  0
  163.0850  213.1800  147.9500 O   0  0  0  0  0  1  0  0  0  0  0  0
  161.0720  212.8640  149.1930 C   0  0  0  0  0  2  0  0  0  0  0  0
  159.7020  213.4370  147.3350 O   0  0  0  0  0  0  0  0  0  0  0  0
  159.8460  213.4630  148.5850 C   0  0  0  0  0  0  0  0  0  0  0  0
  157.8790  213.2770  149.9100 O   0  0  0  0  0  1  0  0  0  0  0  0
  158.8520  214.0300  149.3800 O   0  0  0  0  0  0  0  0  0  0  0  0
  160.8290  207.7720  152.8410 C   0  0  0  0  0  2  0  0  0  0  0  0
  160.2060  207.0490  155.0450 O   0  0  0  0  0  1  0  0  0  0  0  0
  161.1250  207.8260  154.3370 C   0  0  2  0  0  3  0  0  0  0  0  0
  161.8860  209.3620  156.1930 C   0  0  0  0  0  1  0  0  0  0  0  0
  161.1520  209.2660  154.8630 C   0  0  2  0  0  3  0  0  0  0  0  0
  159.8450  209.7430  155.0200 O   0  0  0  0  0  0  0  0  0  0  0  0
  159.9080  211.1290  154.8420 C   0  0  1  0  0  3  0  0  0  0  0  0
  159.1300  213.7750  153.0320 O   0  0  0  0  0  0  0  0  0  0  0  0
  160.1510  211.4430  153.3670 C   0  0  1  0  0  3  0  0  0  0  0  0
  159.0370  211.1110  152.5930 N   0  0  0  0  0  2  0  0  0  0  0  0
  159.3790  212.5420  153.0150 C   0  0  0  0  0  0  0  0  0  0  0  0
  157.7910  211.0730  155.9080 O   0  0  0  0  0  0  0  0  0  0  0  0
  158.6300  211.7450  155.3280 C   0  0  0  0  0  3  0  0  0  0  0  0
  1  5  1  0  0  0  0
  3  1  2  0  0  0  0
  4  3  1  0  0  0  0
  4  7  2  0  0  0  0
  5 25  1  6  0  0  0
  6  2  2  0  0  0  0
  6  5  1  0  0  0  0
  7  6  1  0  0  0  0
  8  9  1  0  0  0  0
  9 14  2  0  0  0  0
 11 13  1  0  0  0  0
 12 14  1  0  0  0  0
 12  3  1  0  0  0  0
 13  8  2  0  0  0  0
 13 15  1  0  0  0  0
 14 10  1  0  0  0  0
 15 12  2  0  0  0  0
 16  7  1  0  0  0  0
 17 16  1  0  0  0  0
 18 19  1  1  0  0  0
 18 17  1  0  0  0  0
 18 20  1  0  0  0  0
 21 22  2  0  0  0  0
 22 20  1  0  0  0  0
 22 24  1  0  0  0  0
 24 23  1  0  0  0  0
 25 27  1  0  0  0  0
 27 29  1  0  0  0  0
 27 26  1  1  0  0  0
 29 30  1  0  0  0  0
 29 28  1  1  0  0  0
 31 30  1  0  0  0  0
 31 37  1  6  0  0  0
 33 31  1  1  0  0  0
 34 35  1  0  0  0  0
 34 33  1  0  0  0  0
 35 32  2  0  0  0  0
 35 33  1  0  0  0  0
 37 36  2  0  0  0  0
M  END
>  <MODEL>
4

>  <REMARK>
 VINA RESULT:      -6.9      4.257      9.268
  Name = 
  14 active torsions:
  status: ('A' for Active; 'I' for Inactive)
    1  A    between atoms: C_7  and  C_10
    2  A    between atoms: C_7  and  O_25
    3  A    between atoms: C_8  and  C_29
    4  A    between atoms: C_8  and  C_31
    5  A    between atoms: C_9  and  C_12
    6  A    between atoms: C_10  and  C_32
    7  A    between atoms: C_12  and  CA_17
    8  A    between atoms: C_12  and  O_20
    9  A    between atoms: C_14  and  C_24
   10  A    between atoms: C_19  and  C_29
   11  A    between atoms: O_20  and  C_31
   12  A    between atoms: C_22  and  C_32
   13  A    between atoms: C_22  and  O_33
   14  A    between atoms: O_25  and  C_27
                            x       y       z     vdW  Elec       q    Type
                         _______ _______ _______ _____ _____    ______ ____

>  <TORSDO>
F 14

$$$$
=
 OpenBabel11052410463D

 37 39  0  0  1  0  0  0  0  0999 V2000
  162.1490  206.7700  150.6380 N   0  0  0  0  0  0  0  0  0  0  0  0
  162.9270  210.1090  151.6570 O   0  0  0  0  0  0  0  0  0  0  0  0
  161.7640  206.9950  149.4090 C   0  0  0  0  0  0  0  0  0  0  0  0
  161.4940  208.3420  148.9810 N   0  0  0  0  0  0  0  0  0  0  0  0
  162.2340  207.8080  151.6720 C   0  0  1  0  0  3  0  0  0  0  0  0
  162.3660  209.1650  151.0420 C   0  0  0  0  0  0  0  0  0  0  0  0
  161.7810  209.3760  149.7170 C   0  0  0  0  0  0  0  0  0  0  0  0
  161.3570  203.7840  146.5760 C   0  0  0  0  0  3  0  0  0  0  0  0
  161.2560  203.5000  147.9370 C   0  0  0  0  0  3  0  0  0  0  0  0
  161.1690  204.0420  150.5710 Cl  0  0  0  0  0  0  0  0  0  0  0  0
  161.6930  205.4570  144.4470 Cl  0  0  0  0  0  0  0  0  0  0  0  0
  161.6050  205.8540  148.4720 C   0  0  0  0  0  0  0  0  0  0  0  0
  161.5720  205.0950  146.1540 C   0  0  0  0  0  0  0  0  0  0  0  0
  161.3760  204.5160  148.8910 C   0  0  0  0  0  0  0  0  0  0  0  0
  161.6950  206.1180  147.0940 C   0  0  0  0  0  3  0  0  0  0  0  0
  161.5450  210.6740  149.2590 O   0  0  0  0  0  0  0  0  0  0  0  0
  162.4580  211.3560  148.4100 C   0  0  0  0  0  2  0  0  0  0  0  0
  161.8580  212.6760  147.9740 C   0  0  2  0  0  3  0  0  0  0  0  0
  161.3640  213.3590  149.0870 O   0  0  0  0  0  1  0  0  0  0  0  0
  160.7340  212.4150  146.9860 C   0  0  0  0  0  2  0  0  0  0  0  0
  160.3450  212.6480  144.6510 O   0  0  0  0  0  0  0  0  0  0  0  0
  161.1210  212.8690  145.6170 C   0  0  0  0  0  0  0  0  0  0  0  0
  163.2480  213.0570  144.5700 O   0  0  0  0  0  1  0  0  0  0  0  0
  162.3160  213.5510  145.3960 O   0  0  0  0  0  0  0  0  0  0  0  0
  160.9700  207.7410  152.5260 C   0  0  0  0  0  2  0  0  0  0  0  0
  160.7360  205.9600  154.1200 O   0  0  0  0  0  1  0  0  0  0  0  0
  161.2540  207.2450  153.9400 C   0  0  2  0  0  3  0  0  0  0  0  0
  159.7450  207.5200  155.9470 C   0  0  0  0  0  1  0  0  0  0  0  0
  160.7190  208.2100  155.0050 C   0  0  2  0  0  3  0  0  0  0  0  0
  160.0810  209.2940  154.3900 O   0  0  0  0  0  0  0  0  0  0  0  0
  160.9480  210.3850  154.5160 C   0  0  1  0  0  3  0  0  0  0  0  0
  157.8620  211.5450  154.4160 O   0  0  0  0  0  0  0  0  0  0  0  0
  160.3540  211.5940  153.7960 C   0  0  1  0  0  3  0  0  0  0  0  0
  159.8050  211.2270  152.5660 N   0  0  0  0  0  2  0  0  0  0  0  0
  158.9690  211.4880  153.8220 C   0  0  0  0  0  0  0  0  0  0  0  0
  161.0710  211.8060  156.4090 O   0  0  0  0  0  0  0  0  0  0  0  0
  161.1690  210.6700  155.9720 C   0  0  0  0  0  3  0  0  0  0  0  0
  1  5  1  0  0  0  0
  3  1  2  0  0  0  0
  4  3  1  0  0  0  0
  4  7  2  0  0  0  0
  5 25  1  6  0  0  0
  6  2  2  0  0  0  0
  6  5  1  0  0  0  0
  7  6  1  0  0  0  0
  8  9  1  0  0  0  0
  9 14  2  0  0  0  0
 11 13  1  0  0  0  0
 12 14  1  0  0  0  0
 12  3  1  0  0  0  0
 13  8  2  0  0  0  0
 13 15  1  0  0  0  0
 14 10  1  0  0  0  0
 15 12  2  0  0  0  0
 16  7  1  0  0  0  0
 17 16  1  0  0  0  0
 18 17  1  0  0  0  0
 18 19  1  1  0  0  0
 20 18  1  0  0  0  0
 21 22  2  0  0  0  0
 22 20  1  0  0  0  0
 23 24  1  0  0  0  0
 24 22  1  0  0  0  0
 25 27  1  0  0  0  0
 27 26  1  1  0  0  0
 27 29  1  0  0  0  0
 29 28  1  1  0  0  0
 30 31  1  0  0  0  0
 30 29  1  0  0  0  0
 31 37  1  1  0  0  0
 33 35  1  0  0  0  0
 33 31  1  1  0  0  0
 34 33  1  0  0  0  0
 34 35  1  0  0  0  0
 35 32  2  0  0  0  0
 37 36  2  0  0  0  0
M  END
>  <MODEL>
5

>  <REMARK>
 VINA RESULT:      -6.9      4.100      9.211
  Name = 
  14 active torsions:
  status: ('A' for Active; 'I' for Inactive)
    1  A    between atoms: C_7  and  C_10
    2  A    between atoms: C_7  and  O_25
    3  A    between atoms: C_8  and  C_29
    4  A    between atoms: C_8  and  C_31
    5  A    between atoms: C_9  and  C_12
    6  A    between atoms: C_10  and  C_32
    7  A    between atoms: C_12  and  CA_17
    8  A    between atoms: C_12  and  O_20
    9  A    between atoms: C_14  and  C_24
   10  A    between atoms: C_19  and  C_29
   11  A    between atoms: O_20  and  C_31
   12  A    between atoms: C_22  and  C_32
   13  A    between atoms: C_22  and  O_33
   14  A    between atoms: O_25  and  C_27
                            x       y       z     vdW  Elec       q    Type
                         _______ _______ _______ _____ _____    ______ ____

>  <TORSDO>
F 14

$$$$
=
 OpenBabel11052410463D

 37 39  0  0  1  0  0  0  0  0999 V2000
  161.9390  205.9420  150.4240 N   0  0  0  0  0  0  0  0  0  0  0  0
  162.5450  208.7290  148.2640 O   0  0  0  0  0  0  0  0  0  0  0  0
  161.3850  205.1170  149.5740 C   0  0  0  0  0  0  0  0  0  0  0  0
  160.9480  205.6000  148.2910 N   0  0  0  0  0  0  0  0  0  0  0  0
  162.0620  207.3870  150.1990 C   0  0  1  0  0  3  0  0  0  0  0  0
  161.9950  207.6960  148.7310 C   0  0  0  0  0  0  0  0  0  0  0  0
  161.2330  206.7960  147.8650 C   0  0  0  0  0  0  0  0  0  0  0  0
  160.9270  200.9430  150.5110 C   0  0  0  0  0  3  0  0  0  0  0  0
  160.8600  201.8780  151.5430 C   0  0  0  0  0  3  0  0  0  0  0  0
  160.8310  204.3280  152.6560 Cl  0  0  0  0  0  0  0  0  0  0  0  0
  161.2060  200.2010  147.9000 Cl  0  0  0  0  0  0  0  0  0  0  0  0
  161.2100  203.6900  149.9490 C   0  0  0  0  0  0  0  0  0  0  0  0
  161.1270  201.3700  149.2000 C   0  0  0  0  0  0  0  0  0  0  0  0
  160.9970  203.2450  151.2800 C   0  0  0  0  0  0  0  0  0  0  0  0
  161.2660  202.7310  148.9230 C   0  0  0  0  0  3  0  0  0  0  0  0
  160.8300  207.2250  146.5980 O   0  0  0  0  0  0  0  0  0  0  0  0
  160.0820  206.3950  145.7200 C   0  0  0  0  0  2  0  0  0  0  0  0
  161.0280  205.5770  144.8650 C   0  0  2  0  0  3  0  0  0  0  0  0
  161.2060  206.2050  143.6310 O   0  0  0  0  0  1  0  0  0  0  0  0
  160.4470  204.1890  144.6600 C   0  0  0  0  0  2  0  0  0  0  0  0
  162.3590  203.4990  145.8950 O   0  0  0  0  0  0  0  0  0  0  0  0
  161.2530  203.1680  145.3950 C   0  0  0  0  0  0  0  0  0  0  0  0
  159.7120  201.4290  144.8860 O   0  0  0  0  0  1  0  0  0  0  0  0
  160.7890  201.8630  145.5540 O   0  0  0  0  0  0  0  0  0  0  0  0
  160.9250  208.0870  150.9400 C   0  0  0  0  0  2  0  0  0  0  0  0
  160.9400  207.3160  153.2150 O   0  0  0  0  0  1  0  0  0  0  0  0
  161.2830  208.3920  152.3920 C   0  0  2  0  0  3  0  0  0  0  0  0
  160.8240  210.8230  151.8830 C   0  0  0  0  0  1  0  0  0  0  0  0
  160.6340  209.6910  152.8820 C   0  0  2  0  0  3  0  0  0  0  0  0
  161.1820  210.0640  154.1150 O   0  0  0  0  0  0  0  0  0  0  0  0
  160.1660  209.8980  155.0630 C   0  0  1  0  0  3  0  0  0  0  0  0
  163.0890  210.7030  156.3650 O   0  0  0  0  0  0  0  0  0  0  0  0
  160.7860  209.5680  156.4200 C   0  0  1  0  0  3  0  0  0  0  0  0
  161.6080  208.4430  156.3370 N   0  0  0  0  0  2  0  0  0  0  0  0
  162.1390  209.8790  156.3770 C   0  0  0  0  0  0  0  0  0  0  0  0
  158.2160  211.1380  155.5920 O   0  0  0  0  0  0  0  0  0  0  0  0
  159.3460  211.1520  155.1280 C   0  0  0  0  0  3  0  0  0  0  0  0
  2  6  2  0  0  0  0
  3 12  1  0  0  0  0
  3  1  2  0  0  0  0
  4  3  1  0  0  0  0
  5  1  1  0  0  0  0
  5 25  1  1  0  0  0
  6  5  1  0  0  0  0
  7  4  2  0  0  0  0
  7  6  1  0  0  0  0
  8  9  1  0  0  0  0
 11 13  1  0  0  0  0
 12 14  1  0  0  0  0
 13  8  2  0  0  0  0
 14  9  2  0  0  0  0
 14 10  1  0  0  0  0
 15 13  1  0  0  0  0
 15 12  2  0  0  0  0
 16  7  1  0  0  0  0
 17 16  1  0  0  0  0
 18 19  1  6  0  0  0
 18 17  1  0  0  0  0
 20 18  1  0  0  0  0
 20 22  1  0  0  0  0
 22 24  1  0  0  0  0
 22 21  2  0  0  0  0
 23 24  1  0  0  0  0
 25 27  1  0  0  0  0
 27 29  1  0  0  0  0
 27 26  1  1  0  0  0
 29 28  1  6  0  0  0
 29 30  1  0  0  0  0
 30 31  1  0  0  0  0
 31 37  1  1  0  0  0
 32 35  2  0  0  0  0
 33 31  1  6  0  0  0
 34 35  1  0  0  0  0
 34 33  1  0  0  0  0
 35 33  1  0  0  0  0
 37 36  2  0  0  0  0
M  END
>  <MODEL>
6

>  <REMARK>
 VINA RESULT:      -6.6      3.311      8.171
  Name = 
  14 active torsions:
  status: ('A' for Active; 'I' for Inactive)
    1  A    between atoms: C_7  and  C_10
    2  A    between atoms: C_7  and  O_25
    3  A    between atoms: C_8  and  C_29
    4  A    between atoms: C_8  and  C_31
    5  A    between atoms: C_9  and  C_12
    6  A    between atoms: C_10  and  C_32
    7  A    between atoms: C_12  and  CA_17
    8  A    between atoms: C_12  and  O_20
    9  A    between atoms: C_14  and  C_24
   10  A    between atoms: C_19  and  C_29
   11  A    between atoms: O_20  and  C_31
   12  A    between atoms: C_22  and  C_32
   13  A    between atoms: C_22  and  O_33
   14  A    between atoms: O_25  and  C_27
                            x       y       z     vdW  Elec       q    Type
                         _______ _______ _______ _____ _____    ______ ____

>  <TORSDO>
F 14

$$$$
=
 OpenBabel11052410463D

 37 39  0  0  1  0  0  0  0  0999 V2000
  162.3220  209.4360  148.6360 N   0  0  0  0  0  0  0  0  0  0  0  0
  163.0790  207.0420  151.1840 O   0  0  0  0  0  0  0  0  0  0  0  0
  161.9190  210.4340  149.3780 C   0  0  0  0  0  0  0  0  0  0  0  0
  161.6310  210.2160  150.7710 N   0  0  0  0  0  0  0  0  0  0  0  0
  162.4090  208.0490  149.1060 C   0  0  1  0  0  3  0  0  0  0  0  0
  162.5200  208.0100  150.6040 C   0  0  0  0  0  0  0  0  0  0  0  0
  161.9170  209.0990  151.3740 C   0  0  0  0  0  0  0  0  0  0  0  0
  161.5140  214.2720  147.4790 C   0  0  0  0  0  3  0  0  0  0  0  0
  160.9510  214.0800  148.7400 C   0  0  0  0  0  3  0  0  0  0  0  0
  160.3680  212.7510  151.0060 Cl  0  0  0  0  0  0  0  0  0  0  0  0
  162.9190  213.4690  145.2820 Cl  0  0  0  0  0  0  0  0  0  0  0  0
  161.7600  211.7800  148.7710 C   0  0  0  0  0  0  0  0  0  0  0  0
  162.2060  213.2320  146.8620 C   0  0  0  0  0  0  0  0  0  0  0  0
  161.0660  212.8500  149.3950 C   0  0  0  0  0  0  0  0  0  0  0  0
  162.3270  211.9980  147.5030 C   0  0  0  0  0  3  0  0  0  0  0  0
  161.6620  208.9290  152.7370 O   0  0  0  0  0  0  0  0  0  0  0  0
  160.6210  208.0890  153.2140 C   0  0  0  0  0  2  0  0  0  0  0  0
  161.1750  207.1250  154.2410 C   0  0  2  0  0  3  0  0  0  0  0  0
  161.0080  205.8130  153.7940 O   0  0  0  0  0  1  0  0  0  0  0  0
  160.4440  207.3190  155.5590 C   0  0  0  0  0  2  0  0  0  0  0  0
  161.9610  208.8870  156.5060 O   0  0  0  0  0  0  0  0  0  0  0  0
  160.7770  208.6480  156.1540 C   0  0  0  0  0  0  0  0  0  0  0  0
  160.0070  210.6870  157.1060 O   0  0  0  0  0  1  0  0  0  0  0  0
  159.8020  209.6320  156.3060 O   0  0  0  0  0  0  0  0  0  0  0  0
  161.1560  207.3060  148.6490 C   0  0  0  0  0  2  0  0  0  0  0  0
  160.1510  206.5680  146.5960 O   0  0  0  0  0  1  0  0  0  0  0  0
  161.3540  206.6140  147.3030 C   0  0  2  0  0  3  0  0  0  0  0  0
  163.0050  204.9290  146.3980 C   0  0  0  0  0  1  0  0  0  0  0  0
  161.9550  205.2120  147.4620 C   0  0  2  0  0  3  0  0  0  0  0  0
  160.9430  204.2470  147.3850 O   0  0  0  0  0  0  0  0  0  0  0  0
  161.3120  203.2190  148.2600 C   0  0  1  0  0  3  0  0  0  0  0  0
  161.9680  203.9600  151.4070 O   0  0  0  0  0  0  0  0  0  0  0  0
  160.4100  203.2520  149.4920 C   0  0  1  0  0  3  0  0  0  0  0  0
  160.4840  202.0510  150.2010 N   0  0  0  0  0  2  0  0  0  0  0  0
  161.2100  203.3310  150.6250 C   0  0  0  0  0  0  0  0  0  0  0  0
  160.9250  201.8580  146.3580 O   0  0  0  0  0  0  0  0  0  0  0  0
  161.2110  201.9050  147.5440 C   0  0  0  0  0  3  0  0  0  0  0  0
  1  5  1  0  0  0  0
  1  3  2  0  0  0  0
  3  4  1  0  0  0  0
  4  7  2  0  0  0  0
  5 25  1  1  0  0  0
  5  6  1  0  0  0  0
  6  2  2  0  0  0  0
  6  7  1  0  0  0  0
  7 16  1  0  0  0  0
  8  9  1  0  0  0  0
  9 14  2  0  0  0  0
 11 13  1  0  0  0  0
 12  3  1  0  0  0  0
 12 14  1  0  0  0  0
 13  8  2  0  0  0  0
 13 15  1  0  0  0  0
 14 10  1  0  0  0  0
 15 12  2  0  0  0  0
 16 17  1  0  0  0  0
 17 18  1  0  0  0  0
 18 19  1  6  0  0  0
 18 20  1  0  0  0  0
 20 22  1  0  0  0  0
 22 24  1  0  0  0  0
 22 21  2  0  0  0  0
 24 23  1  0  0  0  0
 27 26  1  1  0  0  0
 27 29  1  0  0  0  0
 27 25  1  0  0  0  0
 29 28  1  6  0  0  0
 30 29  1  0  0  0  0
 30 31  1  0  0  0  0
 31 37  1  6  0  0  0
 33 31  1  6  0  0  0
 33 34  1  0  0  0  0
 33 35  1  0  0  0  0
 34 35  1  0  0  0  0
 35 32  2  0  0  0  0
 36 37  2  0  0  0  0
M  END
>  <MODEL>
7

>  <REMARK>
 VINA RESULT:      -6.6      3.761      6.535
  Name = 
  14 active torsions:
  status: ('A' for Active; 'I' for Inactive)
    1  A    between atoms: C_7  and  C_10
    2  A    between atoms: C_7  and  O_25
    3  A    between atoms: C_8  and  C_29
    4  A    between atoms: C_8  and  C_31
    5  A    between atoms: C_9  and  C_12
    6  A    between atoms: C_10  and  C_32
    7  A    between atoms: C_12  and  CA_17
    8  A    between atoms: C_12  and  O_20
    9  A    between atoms: C_14  and  C_24
   10  A    between atoms: C_19  and  C_29
   11  A    between atoms: O_20  and  C_31
   12  A    between atoms: C_22  and  C_32
   13  A    between atoms: C_22  and  O_33
   14  A    between atoms: O_25  and  C_27
                            x       y       z     vdW  Elec       q    Type
                         _______ _______ _______ _____ _____    ______ ____

>  <TORSDO>
F 14

$$$$
=
 OpenBabel11052410463D

 37 39  0  0  1  0  0  0  0  0999 V2000
  160.4560  206.7330  151.2650 N   0  0  0  0  0  0  0  0  0  0  0  0
  160.7380  207.3270  147.7490 O   0  0  0  0  0  0  0  0  0  0  0  0
  161.0700  207.7930  151.7210 C   0  0  0  0  0  0  0  0  0  0  0  0
  161.8470  208.6090  150.8250 N   0  0  0  0  0  0  0  0  0  0  0  0
  160.5850  206.2420  149.8880 C   0  0  1  0  0  3  0  0  0  0  0  0
  161.0220  207.3520  148.9750 C   0  0  0  0  0  0  0  0  0  0  0  0
  161.8310  208.4350  149.5360 C   0  0  0  0  0  0  0  0  0  0  0  0
  160.7100  208.9440  155.8500 C   0  0  0  0  0  3  0  0  0  0  0  0
  160.8490  207.5930  155.5360 C   0  0  0  0  0  3  0  0  0  0  0  0
  161.2070  205.4540  153.9420 Cl  0  0  0  0  0  0  0  0  0  0  0  0
  160.5350  211.5930  155.2230 Cl  0  0  0  0  0  0  0  0  0  0  0  0
  160.9600  208.1390  153.1610 C   0  0  0  0  0  0  0  0  0  0  0  0
  160.7030  209.8960  154.8330 C   0  0  0  0  0  0  0  0  0  0  0  0
  160.9760  207.1770  154.2060 C   0  0  0  0  0  0  0  0  0  0  0  0
  160.8280  209.4960  153.5020 C   0  0  0  0  0  3  0  0  0  0  0  0
  162.5640  209.2670  148.6870 O   0  0  0  0  0  0  0  0  0  0  0  0
  162.0090  210.4420  148.1130 C   0  0  0  0  0  2  0  0  0  0  0  0
  162.3330  211.6370  148.9860 C   0  0  2  0  0  3  0  0  0  0  0  0
  161.2240  211.9620  149.7680 O   0  0  0  0  0  1  0  0  0  0  0  0
  162.7080  212.8160  148.1050 C   0  0  0  0  0  2  0  0  0  0  0  0
  161.9670  212.9530  145.8490 O   0  0  0  0  0  0  0  0  0  0  0  0
  161.6610  213.0500  147.0660 C   0  0  0  0  0  0  0  0  0  0  0  0
  159.3300  212.5800  147.0280 O   0  0  0  0  0  1  0  0  0  0  0  0
  160.3490  213.3550  147.4230 O   0  0  0  0  0  0  0  0  0  0  0  0
  161.6090  205.1100  149.8740 C   0  0  0  0  0  2  0  0  0  0  0  0
  161.7580  203.1770  151.2920 O   0  0  0  0  0  1  0  0  0  0  0  0
  160.9980  203.7730  150.2830 C   0  0  2  0  0  3  0  0  0  0  0  0
  160.8200  201.3710  149.5200 C   0  0  0  0  0  1  0  0  0  0  0  0
  160.8310  202.8290  149.0860 C   0  0  2  0  0  3  0  0  0  0  0  0
  161.8690  203.0320  148.1690 O   0  0  0  0  0  0  0  0  0  0  0  0
  161.2650  203.4500  146.9770 C   0  0  1  0  0  3  0  0  0  0  0  0
  160.3770  205.8240  144.8660 O   0  0  0  0  0  0  0  0  0  0  0  0
  162.0570  204.6150  146.3870 C   0  0  1  0  0  3  0  0  0  0  0  0
  162.5810  204.2840  145.1360 N   0  0  0  0  0  2  0  0  0  0  0  0
  161.3340  205.1510  145.3290 C   0  0  0  0  0  0  0  0  0  0  0  0
  160.1350  201.8030  145.7010 O   0  0  0  0  0  0  0  0  0  0  0  0
  161.2050  202.2920  146.0250 C   0  0  0  0  0  3  0  0  0  0  0  0
  1  3  2  0  0  0  0
  2  6  2  0  0  0  0
  3 12  1  0  0  0  0
  4  3  1  0  0  0  0
  5 25  1  1  0  0  0
  5  1  1  0  0  0  0
  6  7  1  0  0  0  0
  6  5  1  0  0  0  0
  7  4  2  0  0  0  0
  9  8  1  0  0  0  0
 10 14  1  0  0  0  0
 12 15  2  0  0  0  0
 12 14  1  0  0  0  0
 13 11  1  0  0  0  0
 13  8  2  0  0  0  0
 14  9  2  0  0  0  0
 15 13  1  0  0  0  0
 16  7  1  0  0  0  0
 17 16  1  0  0  0  0
 17 18  1  0  0  0  0
 18 19  1  6  0  0  0
 20 18  1  0  0  0  0
 21 22  2  0  0  0  0
 22 24  1  0  0  0  0
 22 20  1  0  0  0  0
 23 24  1  0  0  0  0
 25 27  1  0  0  0  0
 27 26  1  1  0  0  0
 29 28  1  1  0  0  0
 29 27  1  0  0  0  0
 30 29  1  0  0  0  0
 31 37  1  6  0  0  0
 31 30  1  0  0  0  0
 32 35  2  0  0  0  0
 33 31  1  6  0  0  0
 34 35  1  0  0  0  0
 34 33  1  0  0  0  0
 35 33  1  0  0  0  0
 36 37  2  0  0  0  0
M  END
>  <MODEL>
8

>  <REMARK>
 VINA RESULT:      -6.6      2.434      5.963
  Name = 
  14 active torsions:
  status: ('A' for Active; 'I' for Inactive)
    1  A    between atoms: C_7  and  C_10
    2  A    between atoms: C_7  and  O_25
    3  A    between atoms: C_8  and  C_29
    4  A    between atoms: C_8  and  C_31
    5  A    between atoms: C_9  and  C_12
    6  A    between atoms: C_10  and  C_32
    7  A    between atoms: C_12  and  CA_17
    8  A    between atoms: C_12  and  O_20
    9  A    between atoms: C_14  and  C_24
   10  A    between atoms: C_19  and  C_29
   11  A    between atoms: O_20  and  C_31
   12  A    between atoms: C_22  and  C_32
   13  A    between atoms: C_22  and  O_33
   14  A    between atoms: O_25  and  C_27
                            x       y       z     vdW  Elec       q    Type
                         _______ _______ _______ _____ _____    ______ ____

>  <TORSDO>
F 14

$$$$
=
 OpenBabel11052410463D

 37 39  0  0  1  0  0  0  0  0999 V2000
  161.9090  206.1400  150.5170 N   0  0  0  0  0  0  0  0  0  0  0  0
  162.4670  208.8550  148.2560 O   0  0  0  0  0  0  0  0  0  0  0  0
  161.3650  205.2760  149.7010 C   0  0  0  0  0  0  0  0  0  0  0  0
  160.9180  205.7060  148.4020 N   0  0  0  0  0  0  0  0  0  0  0  0
  162.0090  207.5780  150.2400 C   0  0  1  0  0  3  0  0  0  0  0  0
  161.9350  207.8320  148.7610 C   0  0  0  0  0  0  0  0  0  0  0  0
  161.1840  206.8890  147.9310 C   0  0  0  0  0  0  0  0  0  0  0  0
  160.9710  201.1340  150.7900 C   0  0  0  0  0  3  0  0  0  0  0  0
  160.9190  202.1030  151.7910 C   0  0  0  0  0  3  0  0  0  0  0  0
  160.8920  204.5890  152.8190 Cl  0  0  0  0  0  0  0  0  0  0  0  0
  161.1950  200.3050  148.2000 Cl  0  0  0  0  0  0  0  0  0  0  0  0
  161.2140  203.8620  150.1280 C   0  0  0  0  0  0  0  0  0  0  0  0
  161.1350  201.5170  149.4600 C   0  0  0  0  0  0  0  0  0  0  0  0
  161.0360  203.4610  151.4780 C   0  0  0  0  0  0  0  0  0  0  0  0
  161.2550  202.8680  149.1340 C   0  0  0  0  0  3  0  0  0  0  0  0
  160.7720  207.2650  146.6510 O   0  0  0  0  0  0  0  0  0  0  0  0
  160.4580  206.3110  145.6460 C   0  0  0  0  0  2  0  0  0  0  0  0
  161.7350  205.8130  145.0010 C   0  0  2  0  0  3  0  0  0  0  0  0
  161.5970  205.8300  143.6120 O   0  0  0  0  0  1  0  0  0  0  0  0
  162.0180  204.3980  145.4760 C   0  0  0  0  0  2  0  0  0  0  0  0
  160.0460  203.8800  144.2530 O   0  0  0  0  0  0  0  0  0  0  0  0
  160.9220  203.4740  145.0600 C   0  0  0  0  0  0  0  0  0  0  0  0
  160.0450  201.2640  144.9770 O   0  0  0  0  0  1  0  0  0  0  0  0
  160.8650  202.1650  145.5360 O   0  0  0  0  0  0  0  0  0  0  0  0
  160.8640  208.2880  150.9570 C   0  0  0  0  0  2  0  0  0  0  0  0
  162.6850  209.7800  151.4330 O   0  0  0  0  0  1  0  0  0  0  0  0
  161.3210  209.5700  151.6470 C   0  0  2  0  0  3  0  0  0  0  0  0
  161.0710  208.1640  153.7300 C   0  0  0  0  0  1  0  0  0  0  0  0
  160.9910  209.5650  153.1440 C   0  0  2  0  0  3  0  0  0  0  0  0
  159.7060  210.0820  153.3530 O   0  0  0  0  0  0  0  0  0  0  0  0
  159.8340  211.4750  153.3290 C   0  0  1  0  0  3  0  0  0  0  0  0
  160.0020  213.2880  150.5790 O   0  0  0  0  0  0  0  0  0  0  0  0
  158.7350  212.0720  152.4530 C   0  0  1  0  0  3  0  0  0  0  0  0
  158.4760  213.3980  152.8060 N   0  0  0  0  0  2  0  0  0  0  0  0
  159.3100  212.9940  151.5880 C   0  0  0  0  0  0  0  0  0  0  0  0
  159.2520  211.3310  155.6230 O   0  0  0  0  0  0  0  0  0  0  0  0
  159.7570  211.9980  154.7330 C   0  0  0  0  0  3  0  0  0  0  0  0
  2  6  2  0  0  0  0
  3 12  1  0  0  0  0
  3  1  2  0  0  0  0
  4  3  1  0  0  0  0
  5  1  1  0  0  0  0
  5 25  1  1  0  0  0
  6  5  1  0  0  0  0
  7  4  2  0  0  0  0
  7  6  1  0  0  0  0
  8  9  1  0  0  0  0
 11 13  1  0  0  0  0
 12 14  1  0  0  0  0
 13  8  2  0  0  0  0
 14  9  2  0  0  0  0
 14 10  1  0  0  0  0
 15 13  1  0  0  0  0
 15 12  2  0  0  0  0
 16  7  1  0  0  0  0
 17 16  1  0  0  0  0
 18 19  1  6  0  0  0
 18 20  1  0  0  0  0
 18 17  1  0  0  0  0
 21 22  2  0  0  0  0
 22 20  1  0  0  0  0
 22 24  1  0  0  0  0
 23 24  1  0  0  0  0
 25 27  1  0  0  0  0
 27 26  1  1  0  0  0
 27 29  1  0  0  0  0
 29 30  1  0  0  0  0
 29 28  1  6  0  0  0
 31 30  1  0  0  0  0
 31 37  1  1  0  0  0
 32 35  2  0  0  0  0
 33 34  1  0  0  0  0
 33 31  1  1  0  0  0
 35 33  1  0  0  0  0
 35 34  1  0  0  0  0
 37 36  2  0  0  0  0
M  END
>  <MODEL>
9

>  <REMARK>
 VINA RESULT:      -6.5      3.300      7.722
  Name = 
  14 active torsions:
  status: ('A' for Active; 'I' for Inactive)
    1  A    between atoms: C_7  and  C_10
    2  A    between atoms: C_7  and  O_25
    3  A    between atoms: C_8  and  C_29
    4  A    between atoms: C_8  and  C_31
    5  A    between atoms: C_9  and  C_12
    6  A    between atoms: C_10  and  C_32
    7  A    between atoms: C_12  and  CA_17
    8  A    between atoms: C_12  and  O_20
    9  A    between atoms: C_14  and  C_24
   10  A    between atoms: C_19  and  C_29
   11  A    between atoms: O_20  and  C_31
   12  A    between atoms: C_22  and  C_32
   13  A    between atoms: C_22  and  O_33
   14  A    between atoms: O_25  and  C_27
                            x       y       z     vdW  Elec       q    Type
                         _______ _______ _______ _____ _____    ______ ____

>  <TORSDO>
F 14

$$$$
