=
 OpenBabel11042421463D

 51 59  0  0  1  0  0  0  0  0999 V2000
  159.4700  209.1830  155.2700 C   0  0  0  0  0  0  0  0  0  0  0  0
  162.1940  211.3650  148.9990 C   0  0  0  0  0  2  0  0  0  0  0  0
  162.2420  206.1400  152.9500 C   0  0  0  0  0  2  0  0  0  0  0  0
  162.6330  206.2750  150.4830 C   0  0  0  0  0  2  0  0  0  0  0  0
  158.2350  211.2730  155.3160 C   0  0  0  0  0  3  0  0  0  0  0  0
  161.2790  212.5070  149.4220 C   0  0  1  0  0  3  0  0  0  0  0  0
  160.6660  211.8160  147.1950 C   0  0  2  0  0  3  0  0  0  0  0  0
  162.0860  205.9510  149.0780 C   0  0  1  0  0  3  0  0  0  0  0  0
  158.4000  209.9500  155.7480 C   0  0  0  0  0  3  0  0  0  0  0  0
  158.9460  206.8980  154.5920 C   0  0  0  0  0  2  0  0  0  0  0  0
  160.7520  207.2040  156.1770 C   0  0  1  0  0  3  0  0  0  0  0  0
  161.2170  206.0920  153.9960 N   0  0  1  0  0  0  0  0  0  0  0  0
  161.9680  203.6390  150.0540 C   0  0  1  0  0  3  0  0  0  0  0  0
  159.1250  211.8230  154.3860 C   0  0  0  0  0  0  0  0  0  0  0  0
  161.6060  210.7480  147.7380 C   0  0  2  0  0  3  0  0  0  0  0  0
  161.5710  202.1220  148.2040 C   0  0  2  0  0  3  0  0  0  0  0  0
  160.2050  211.0600  153.9270 C   0  0  0  0  0  3  0  0  0  0  0  0
  159.5490  207.7810  155.5740 N   0  0  0  0  0  0  0  0  0  0  0  0
  160.1560  212.5730  148.3990 C   0  0  0  0  0  2  0  0  0  0  0  0
  160.1230  213.1280  151.4370 C   0  0  0  0  0  0  0  0  0  0  0  0
  159.4250  213.4940  152.6120 N   0  0  0  0  0  0  0  0  0  0  0  0
  160.3780  209.7520  154.3680 C   0  0  0  0  0  3  0  0  0  0  0  0
  161.6950  204.1210  151.4930 C   0  0  1  0  0  3  0  0  0  0  0  0
  161.7610  205.6580  151.5830 C   0  0  1  0  0  3  0  0  0  0  0  0
  160.7390  212.2280  150.7420 N   0  0  0  0  0  0  0  0  0  0  0  0
  160.8750  209.4520  148.0910 C   0  0  0  0  0  2  0  0  0  0  0  0
  159.6040  211.2760  146.4640 O   0  0  0  0  0  1  0  0  0  0  0  0
  158.8910  213.1290  153.8560 N   0  0  0  0  0  2  0  0  0  0  0  0
  161.7750  206.9260  155.0740 C   0  0  0  0  0  2  0  0  0  0  0  0
  161.4440  202.2650  149.7170 C   0  0  0  0  0  2  0  0  0  0  0  0
  161.3780  204.5880  149.0360 C   0  0  2  0  0  3  0  0  0  0  0  0
  161.1200  207.0400  148.6320 C   0  0  0  0  0  2  0  0  0  0  0  0
  161.5160  203.7770  147.4220 S   0  0  0  0  0  0  0  0  0  0  0  0
  159.9670  206.6840  153.4770 C   0  0  0  0  0  2  0  0  0  0  0  0
  159.6350  214.4480  151.5970 N   0  0  0  0  0  2  0  0  0  0  0  0
  160.4400  203.6940  151.9310 O   0  0  0  0  0  1  0  0  0  0  0  0
  161.8670  208.3300  148.3340 C   0  0  0  0  0  2  0  0  0  0  0  0
  160.3990  201.0910  146.4250 C   0  0  0  0  0  2  0  0  0  0  0  0
  160.5070  201.3030  147.6850 N   0  0  0  0  0  0  0  0  0  0  0  0
  161.3550  208.0970  157.2530 C   0  0  0  0  0  2  0  0  0  0  0  0
  162.5410  208.8650  156.6950 C   0  0  0  0  0  2  0  0  0  0  0  0
  162.3460  210.3590  156.8910 C   0  0  0  0  0  2  0  0  0  0  0  0
  165.1630  212.4260  156.5360 C   0  0  0  0  0  0  0  0  0  0  0  0
  165.3020  211.6640  155.4710 C   0  0  0  0  0  0  0  0  0  0  0  0
  166.7790  211.2560  153.6640 N   0  0  0  0  0  1  0  0  0  0  0  0
  167.2450  212.9090  155.2410 N   0  0  0  0  0  0  0  0  0  0  0  0
  164.0840  212.1260  157.2600 N   0  0  0  0  0  0  0  0  0  0  0  0
  163.5750  211.1080  156.4980 C   0  0  0  0  0  0  0  0  0  0  0  0
  166.4640  213.4520  156.6360 S   0  0  0  0  0  0  0  0  0  0  0  0
  166.4580  211.9140  154.7270 C   0  0  0  0  0  0  0  0  0  0  0  0
  164.3050  210.7780  155.3860 N   0  0  0  0  0  2  0  0  0  0  0  0
  1 18  1  0  0  0  0
  1  9  1  0  0  0  0
  2  6  1  0  0  0  0
  5  9  2  0  0  0  0
  6 19  1  6  0  0  0
  6 25  1  0  0  0  0
  7 27  1  1  0  0  0
  7 15  1  0  0  0  0
  7 19  1  0  0  0  0
  8 32  1  1  0  0  0
  8  4  1  0  0  0  0
 10 18  1  0  0  0  0
 11 40  1  1  0  0  0
 12  3  1  6  0  0  0
 12 29  1  0  0  0  0
 13 30  1  1  0  0  0
 13 23  1  0  0  0  0
 14  5  1  0  0  0  0
 15 26  1  1  0  0  0
 15  2  1  0  0  0  0
 16 39  1  6  0  0  0
 16 30  1  0  0  0  0
 17 22  1  0  0  0  0
 17 14  2  0  0  0  0
 18 11  1  0  0  0  0
 20 35  1  0  0  0  0
 20 21  1  0  0  0  0
 21 28  1  0  0  0  0
 22  1  2  0  0  0  0
 23 24  1  0  0  0  0
 23 36  1  6  0  0  0
 24  4  1  6  0  0  0
 24  3  1  0  0  0  0
 25 20  2  0  0  0  0
 26 37  1  0  0  0  0
 28 14  1  0  0  0  0
 29 11  1  0  0  0  0
 31 33  1  6  0  0  0
 31  8  1  0  0  0  0
 31 13  1  0  0  0  0
 33 16  1  0  0  0  0
 34 12  1  0  0  0  0
 34 10  1  0  0  0  0
 35 21  1  0  0  0  0
 37 32  1  0  0  0  0
 38 39  2  0  0  0  0
 41 42  1  0  0  0  0
 41 40  1  0  0  0  0
 43 49  1  0  0  0  0
 43 47  1  0  0  0  0
 44 43  2  0  0  0  0
 45 50  1  0  0  0  0
 46 49  1  0  0  0  0
 48 42  1  0  0  0  0
 48 47  2  0  0  0  0
 50 46  2  0  0  0  0
 50 44  1  0  0  0  0
 51 44  1  0  0  0  0
 51 48  1  0  0  0  0
M  END
>  <MODEL>
1

>  <REMARK>
 VINA RESULT:       4.4      0.000      0.000
  Name = 
  5 active torsions:
  status: ('A' for Active; 'I' for Inactive)
    1  A    between atoms: C_12  and  C_35
    2  A    between atoms: C_15  and  C_35
    3  A    between atoms: C_15  and  C_36
    4  A    between atoms: C_20  and  N_51
    5  A    between atoms: C_34  and  C_36
                            x       y       z     vdW  Elec       q    Type
                         _______ _______ _______ _____ _____    ______ ____

>  <TORSDO>
F 5

$$$$
=
 OpenBabel11042421463D

 51 59  0  0  1  0  0  0  0  0999 V2000
  160.5220  211.8180  147.8220 C   0  0  0  0  0  0  0  0  0  0  0  0
  162.2780  207.6580  153.4010 C   0  0  0  0  0  2  0  0  0  0  0  0
  160.2510  213.7550  152.1240 C   0  0  0  0  0  2  0  0  0  0  0  0
  159.9940  212.3950  154.2060 C   0  0  0  0  0  2  0  0  0  0  0  0
  160.8210  209.8540  146.4260 C   0  0  0  0  0  3  0  0  0  0  0  0
  162.3600  206.7230  152.2020 C   0  0  1  0  0  3  0  0  0  0  0  0
  160.9090  205.7310  153.8520 C   0  0  2  0  0  3  0  0  0  0  0  0
  159.0220  211.6280  155.1260 C   0  0  1  0  0  3  0  0  0  0  0  0
  160.2790  211.1310  146.6260 C   0  0  0  0  0  3  0  0  0  0  0  0
  158.5990  212.9100  148.8540 C   0  0  0  0  0  2  0  0  0  0  0  0
  160.5700  214.2630  148.4620 C   0  0  1  0  0  3  0  0  0  0  0  0
  159.7080  214.0060  150.7850 N   0  0  1  0  0  0  0  0  0  0  0  0
  157.8200  213.8340  155.0900 C   0  0  1  0  0  3  0  0  0  0  0  0
  161.5870  209.2520  147.4310 C   0  0  0  0  0  0  0  0  0  0  0  0
  161.1390  207.1720  154.2850 C   0  0  2  0  0  3  0  0  0  0  0  0
  156.1450  213.7420  156.8410 C   0  0  2  0  0  3  0  0  0  0  0  0
  161.8460  209.9520  148.6160 C   0  0  0  0  0  3  0  0  0  0  0  0
  159.8350  213.0480  148.1040 N   0  0  0  0  0  0  0  0  0  0  0  0
  161.2760  205.6730  152.3870 C   0  0  0  0  0  2  0  0  0  0  0  0
  162.3610  206.9870  149.8110 C   0  0  0  0  0  0  0  0  0  0  0  0
  162.3450  207.1290  148.4040 N   0  0  0  0  0  0  0  0  0  0  0  0
  161.3200  211.2250  148.8090 C   0  0  0  0  0  3  0  0  0  0  0  0
  158.2660  214.1990  153.6610 C   0  0  1  0  0  3  0  0  0  0  0  0
  159.2460  213.1500  153.1010 C   0  0  1  0  0  3  0  0  0  0  0  0
  162.1220  207.4790  150.9840 N   0  0  0  0  0  0  0  0  0  0  0  0
  159.9060  208.0500  154.0680 C   0  0  0  0  0  2  0  0  0  0  0  0
  159.5900  205.3140  154.0490 O   0  0  0  0  0  1  0  0  0  0  0  0
  162.0420  207.9070  147.2770 N   0  0  0  0  0  2  0  0  0  0  0  0
  160.9040  214.2180  149.9540 C   0  0  0  0  0  2  0  0  0  0  0  0
  156.5220  214.4530  155.5460 C   0  0  0  0  0  2  0  0  0  0  0  0
  157.6660  212.3380  155.2510 C   0  0  2  0  0  3  0  0  0  0  0  0
  158.8100  210.2160  154.5960 C   0  0  0  0  0  2  0  0  0  0  0  0
  156.8770  212.0630  156.8590 S   0  0  0  0  0  0  0  0  0  0  0  0
  158.9670  212.8120  150.3330 C   0  0  0  0  0  2  0  0  0  0  0  0
  162.8070  205.9300  148.9810 N   0  0  0  0  0  2  0  0  0  0  0  0
  157.1670  214.2950  152.8050 O   0  0  0  0  0  1  0  0  0  0  0  0
  160.0660  209.3800  154.7820 C   0  0  0  0  0  2  0  0  0  0  0  0
  153.9440  214.2300  156.1200 C   0  0  0  0  0  2  0  0  0  0  0  0
  154.7140  213.6490  156.9660 N   0  0  0  0  0  0  0  0  0  0  0  0
  161.8350  214.4470  147.6350 C   0  0  0  0  0  2  0  0  0  0  0  0
  161.4980  214.4530  146.1530 C   0  0  0  0  0  2  0  0  0  0  0  0
  162.4260  213.5190  145.3940 C   0  0  0  0  0  2  0  0  0  0  0  0
  162.5960  213.9030  141.9070 C   0  0  0  0  0  0  0  0  0  0  0  0
  161.3130  213.6380  142.0460 C   0  0  0  0  0  0  0  0  0  0  0  0
  159.3460  213.2800  140.7760 N   0  0  0  0  0  1  0  0  0  0  0  0
  161.3760  213.7550  139.7310 N   0  0  0  0  0  0  0  0  0  0  0  0
  163.2580  213.9200  143.0640 N   0  0  0  0  0  0  0  0  0  0  0  0
  162.2230  213.6560  143.9220 C   0  0  0  0  0  0  0  0  0  0  0  0
  162.9440  214.0370  140.2900 S   0  0  0  0  0  0  0  0  0  0  0  0
  160.6060  213.5520  140.8450 C   0  0  0  0  0  0  0  0  0  0  0  0
  161.0010  213.4610  143.3340 N   0  0  0  0  0  2  0  0  0  0  0  0
  1 18  1  0  0  0  0
  1 22  1  0  0  0  0
  5  9  1  0  0  0  0
  5 14  2  0  0  0  0
  6 19  1  1  0  0  0
  6  2  1  0  0  0  0
  7 27  1  6  0  0  0
  7 15  1  0  0  0  0
  8  4  1  6  0  0  0
  8 31  1  0  0  0  0
  9  1  2  0  0  0  0
 10 34  1  0  0  0  0
 11 40  1  6  0  0  0
 11 29  1  0  0  0  0
 12 29  1  6  0  0  0
 12  3  1  0  0  0  0
 13 31  1  0  0  0  0
 13 30  1  6  0  0  0
 14 17  1  0  0  0  0
 15  2  1  6  0  0  0
 16 33  1  0  0  0  0
 16 39  1  6  0  0  0
 17 22  2  0  0  0  0
 18 11  1  0  0  0  0
 18 10  1  0  0  0  0
 19  7  1  0  0  0  0
 20 25  2  0  0  0  0
 21 35  1  0  0  0  0
 21 20  1  0  0  0  0
 23 36  1  6  0  0  0
 23 13  1  0  0  0  0
 24  3  1  6  0  0  0
 24 23  1  0  0  0  0
 24  4  1  0  0  0  0
 25  6  1  0  0  0  0
 26 15  1  0  0  0  0
 26 37  1  0  0  0  0
 28 14  1  0  0  0  0
 28 21  1  0  0  0  0
 30 16  1  0  0  0  0
 31 33  1  1  0  0  0
 32 37  1  0  0  0  0
 32  8  1  0  0  0  0
 34 12  1  0  0  0  0
 35 20  1  0  0  0  0
 38 39  2  0  0  0  0
 41 40  1  0  0  0  0
 42 41  1  0  0  0  0
 43 44  2  0  0  0  0
 43 47  1  0  0  0  0
 44 51  1  0  0  0  0
 45 50  1  0  0  0  0
 46 49  1  0  0  0  0
 46 50  2  0  0  0  0
 47 48  2  0  0  0  0
 48 42  1  0  0  0  0
 49 43  1  0  0  0  0
 50 44  1  0  0  0  0
 51 48  1  0  0  0  0
M  END
>  <MODEL>
2

>  <REMARK>
 VINA RESULT:       6.8      4.571     10.849
  Name = 
  5 active torsions:
  status: ('A' for Active; 'I' for Inactive)
    1  A    between atoms: C_12  and  C_35
    2  A    between atoms: C_15  and  C_35
    3  A    between atoms: C_15  and  C_36
    4  A    between atoms: C_20  and  N_51
    5  A    between atoms: C_34  and  C_36
                            x       y       z     vdW  Elec       q    Type
                         _______ _______ _______ _____ _____    ______ ____

>  <TORSDO>
F 5

$$$$
