=
 OpenBabel11042421293D

 69 77  0  0  1  0  0  0  0  0999 V2000
  161.9060  211.4780  148.5960 C   0  0  2  0  0  3  0  0  0  0  0  0
  158.5220  214.0910  153.3030 C   0  0  0  0  0  2  0  0  0  0  0  0
  159.7690  214.4520  150.1230 S   0  0  0  0  0  0  0  0  0  0  0  0
  161.1750  212.4280  149.4930 C   0  0  0  0  0  0  0  0  0  0  0  0
  160.7460  212.2030  150.8020 C   0  0  0  0  0  0  0  0  0  0  0  0
  160.7170  213.6310  148.9900 C   0  0  0  0  0  0  0  0  0  0  0  0
  160.4990  211.0220  152.9120 C   0  0  0  0  0  3  0  0  0  0  0  0
  161.0350  211.0840  151.6060 C   0  0  0  0  0  3  0  0  0  0  0  0
  159.4170  213.1690  152.5650 C   0  0  0  0  0  0  0  0  0  0  0  0
  159.9450  213.2410  151.2850 C   0  0  0  0  0  0  0  0  0  0  0  0
  157.5970  213.7580  155.6840 N   0  0  0  0  0  2  0  0  0  0  0  0
  159.6960  212.0830  153.3570 C   0  0  0  0  0  0  0  0  0  0  0  0
  162.4290  212.1770  147.4520 O   0  0  0  0  0  0  0  0  0  0  0  0
  161.9100  213.3960  146.9710 C   0  0  0  0  0  0  0  0  0  0  0  0
  158.4000  213.3130  154.5890 C   0  0  0  0  0  0  0  0  0  0  0  0
  159.0610  212.1930  154.6160 N   0  0  0  0  0  0  0  0  0  0  0  0
  161.0850  214.1000  147.6950 N   0  0  0  0  0  0  0  0  0  0  0  0
  157.5520  213.0570  156.9630 C   0  0  2  0  0  3  0  0  0  0  0  0
  158.9200  212.4520  157.2580 C   0  0  0  0  0  1  0  0  0  0  0  0
  155.7130  210.3550  155.3260 C   0  0  0  0  0  2  0  0  0  0  0  0
  155.1610  212.5010  156.2680 C   0  0  0  0  0  2  0  0  0  0  0  0
  154.9940  211.6530  155.0210 C   0  0  0  0  0  2  0  0  0  0  0  0
  156.8680  210.7370  156.2260 C   0  0  0  0  0  2  0  0  0  0  0  0
  156.4330  212.0040  156.9490 C   0  0  0  0  0  3  0  0  0  0  0  0
  162.3370  213.9050  145.6380 C   0  0  0  0  0  2  0  0  0  0  0  0
  161.1450  213.9520  144.6990 C   0  0  0  0  0  2  0  0  0  0  0  0
  160.3840  212.6360  144.7880 C   0  0  0  0  0  2  0  0  0  0  0  0
  159.4160  212.5010  143.6180 C   0  0  0  0  0  2  0  0  0  0  0  0
  159.9700  213.1350  142.3490 C   0  0  0  0  0  2  0  0  0  0  0  0
  160.3870  212.1000  141.4180 N   0  0  0  0  0  2  0  0  0  0  0  0
  159.2030  211.6870  140.6790 C   0  0  0  0  0  2  0  0  0  0  0  0
  158.7300  213.7090  139.5020 O   0  0  0  0  0  1  0  0  0  0  0  0
  159.1420  212.3850  139.3250 C   0  0  1  0  0  3  0  0  0  0  0  0
  160.4970  212.3330  138.6120 C   0  0  2  0  0  3  0  0  0  0  0  0
  162.5110  211.8090  139.8190 O   0  0  0  0  0  1  0  0  0  0  0  0
  161.3930  211.2390  139.2010 C   0  0  2  0  0  3  0  0  0  0  0  0
  161.8250  208.8340  138.6740 C   0  0  0  0  0  2  0  0  0  0  0  0
  160.8200  208.0740  137.9530 N   0  0  0  0  0  0  0  0  0  0  0  0
  160.8850  210.2660  137.0150 N   0  0  0  0  0  2  0  0  0  0  0  0
  161.5360  207.1790  137.0560 C   0  0  0  0  0  1  0  0  0  0  0  0
  161.8230  210.2440  138.1250 C   0  0  1  0  0  3  0  0  0  0  0  0
  160.1050  209.0370  137.1230 C   0  0  0  0  0  2  0  0  0  0  0  0
  161.3910  213.9090  137.4490 O   0  0  0  0  0  1  0  0  0  0  0  0
  161.1370  213.5740  138.6980 O   0  0  0  0  0  0  0  0  0  0  0  0
  160.9260  210.4020  148.1420 C   0  0  0  0  0  2  0  0  0  0  0  0
  161.1370  207.6110  151.6820 C   0  0  1  0  0  3  0  0  0  0  0  0
  162.2320  208.6130  151.3580 C   0  0  0  0  0  2  0  0  0  0  0  0
  163.3830  207.5040  147.6550 C   0  0  0  0  0  2  0  0  0  0  0  0
  161.4400  208.9740  148.2940 C   0  0  1  0  0  3  0  0  0  0  0  0
  161.7190  207.6900  150.2700 C   0  0  1  0  0  0  0  0  0  0  0  0
  162.9660  208.8830  148.1740 C   0  0  0  0  0  2  0  0  0  0  0  0
  162.8000  206.3600  148.3730 N   0  0  0  0  0  0  0  0  0  0  0  0
  162.6610  206.5410  149.8270 C   0  0  0  0  0  2  0  0  0  0  0  0
  160.8040  208.2730  149.3600 O   0  0  0  0  0  0  0  0  0  0  0  0
  161.5400  205.9520  147.7690 C   0  0  0  0  0  2  0  0  0  0  0  0
  162.4860  204.3810  146.2640 O   0  0  0  0  0  0  0  0  0  0  0  0
  160.9450  203.5050  147.8090 N   0  0  0  0  0  2  0  0  0  0  0  0
  161.6820  204.5810  147.2130 C   0  0  0  0  0  0  0  0  0  0  0  0
  160.8280  201.6590  146.2240 C   0  0  0  0  0  3  0  0  0  0  0  0
  161.6140  199.8300  148.1840 C   0  0  0  0  0  3  0  0  0  0  0  0
  160.9430  200.3030  145.9090 C   0  0  0  0  0  3  0  0  0  0  0  0
  161.4910  201.1850  148.5000 C   0  0  0  0  0  3  0  0  0  0  0  0
  161.0970  202.1090  147.5190 C   0  0  0  0  0  0  0  0  0  0  0  0
  161.3380  199.3900  146.8890 C   0  0  0  0  0  3  0  0  0  0  0  0
  161.7250  206.4870  152.5240 C   0  0  0  0  0  2  0  0  0  0  0  0
  160.7600  205.4080  152.6420 N   0  0  0  0  0  2  0  0  0  0  0  0
  162.0280  203.9910  151.1040 O   0  0  0  0  0  0  0  0  0  0  0  0
  160.1260  203.2280  152.1380 O   0  0  0  0  0  1  0  0  0  0  0  0
  160.9470  204.1680  151.9610 C   0  0  0  0  0  0  0  0  0  0  0  0
  1 45  1  6  0  0  0
  1  4  1  0  0  0  0
  2 15  1  0  0  0  0
  3 10  1  0  0  0  0
  4  5  1  0  0  0  0
  5 10  2  0  0  0  0
  5  8  1  0  0  0  0
  6  4  2  0  0  0  0
  6  3  1  0  0  0  0
  7 12  1  0  0  0  0
  8  7  2  0  0  0  0
  9  2  1  0  0  0  0
  9 12  2  0  0  0  0
 10  9  1  0  0  0  0
 11 18  1  0  0  0  0
 12 16  1  0  0  0  0
 13  1  1  0  0  0  0
 14 13  1  0  0  0  0
 14 17  2  0  0  0  0
 15 16  2  0  0  0  0
 15 11  1  0  0  0  0
 17  6  1  0  0  0  0
 18 19  1  6  0  0  0
 20 23  1  0  0  0  0
 21 24  1  0  0  0  0
 22 20  1  0  0  0  0
 22 21  1  0  0  0  0
 23 24  1  0  0  0  0
 24 18  1  0  0  0  0
 25 14  1  0  0  0  0
 26 27  1  0  0  0  0
 26 25  1  0  0  0  0
 28 27  1  0  0  0  0
 29 28  1  0  0  0  0
 30 29  1  0  0  0  0
 31 30  1  0  0  0  0
 33 32  1  1  0  0  0
 33 31  1  0  0  0  0
 34 44  1  1  0  0  0
 34 36  1  0  0  0  0
 34 33  1  0  0  0  0
 36 35  1  6  0  0  0
 38 37  1  0  0  0  0
 39 42  1  0  0  0  0
 39 41  1  0  0  0  0
 40 38  1  0  0  0  0
 41 37  1  0  0  0  0
 41 36  1  1  0  0  0
 42 38  1  0  0  0  0
 43 44  1  0  0  0  0
 46 65  1  1  0  0  0
 47 46  1  0  0  0  0
 48 51  1  0  0  0  0
 48 52  1  0  0  0  0
 49 45  1  1  0  0  0
 49 54  1  0  0  0  0
 50 53  1  6  0  0  0
 50 47  1  0  0  0  0
 50 46  1  0  0  0  0
 51 49  1  0  0  0  0
 52 53  1  0  0  0  0
 54 50  1  0  0  0  0
 55 52  1  0  0  0  0
 56 58  2  0  0  0  0
 58 55  1  0  0  0  0
 58 57  1  0  0  0  0
 59 63  1  0  0  0  0
 60 62  1  0  0  0  0
 61 59  2  0  0  0  0
 61 64  1  0  0  0  0
 63 57  1  0  0  0  0
 63 62  2  0  0  0  0
 64 60  2  0  0  0  0
 65 66  1  0  0  0  0
 67 69  2  0  0  0  0
 69 68  1  0  0  0  0
 69 66  1  0  0  0  0
M  END
>  <MODEL>
1

>  <REMARK>
 VINA RESULT:      -2.4      0.000      0.000
  Name = 
  21 active torsions:
  status: ('A' for Active; 'I' for Inactive)
    1  A    between atoms: C_1  and  C_32
    2  A    between atoms: C_2  and  C_8
    3  A    between atoms: C_8  and  N_16
    4  A    between atoms: C_12  and  C_35
    5  A    between atoms: C_12  and  O_58
    6  A    between atoms: C_12  and  C_61
    7  A    between atoms: C_15  and  C_32
    8  A    between atoms: N_25  and  C_49
    9  A    between atoms: C_28  and  N_50
   10  A    between atoms: C_28  and  C_52
   11  A    between atoms: C_29  and  N_46
   12  A    between atoms: C_29  and  C_61
   13  A    between atoms: C_33  and  N_44
   14  A    between atoms: C_33  and  C_67
   15  A    between atoms: C_34  and  C_40
   16  A    between atoms: C_34  and  N_46
   17  A    between atoms: C_35  and  C_59
   18  A    between atoms: C_40  and  C_56
   19  A    between atoms: C_55  and  C_62
   20  A    between atoms: C_56  and  C_69
   21  A    between atoms: C_62  and  C_69
                            x       y       z     vdW  Elec       q    Type
                         _______ _______ _______ _____ _____    ______ ____

>  <TORSDO>
F 21

$$$$
=
 OpenBabel11042421293D

 69 77  0  0  1  0  0  0  0  0999 V2000
  162.0020  211.3530  148.6420 C   0  0  2  0  0  3  0  0  0  0  0  0
  158.5530  214.1350  153.2010 C   0  0  0  0  0  2  0  0  0  0  0  0
  159.9210  214.4170  150.0630 S   0  0  0  0  0  0  0  0  0  0  0  0
  161.2750  212.3380  149.5040 C   0  0  0  0  0  0  0  0  0  0  0  0
  160.7930  212.1430  150.7980 C   0  0  0  0  0  0  0  0  0  0  0  0
  160.8780  213.5510  148.9730 C   0  0  0  0  0  0  0  0  0  0  0  0
  160.4310  210.9940  152.9100 C   0  0  0  0  0  3  0  0  0  0  0  0
  161.0140  211.0220  151.6220 C   0  0  0  0  0  3  0  0  0  0  0  0
  159.4390  213.1730  152.5040 C   0  0  0  0  0  0  0  0  0  0  0  0
  160.0130  213.2120  151.2430 C   0  0  0  0  0  0  0  0  0  0  0  0
  157.5340  213.8600  155.5530 N   0  0  0  0  0  2  0  0  0  0  0  0
  159.6510  212.0870  153.3160 C   0  0  0  0  0  0  0  0  0  0  0  0
  162.5880  212.0200  147.5100 O   0  0  0  0  0  0  0  0  0  0  0  0
  162.1300  213.2510  147.0000 C   0  0  0  0  0  0  0  0  0  0  0  0
  158.3580  213.3750  154.4900 C   0  0  0  0  0  0  0  0  0  0  0  0
  158.9780  212.2340  154.5510 N   0  0  0  0  0  0  0  0  0  0  0  0
  161.3070  213.9920  147.6870 N   0  0  0  0  0  0  0  0  0  0  0  0
  157.4200  213.1750  156.8350 C   0  0  2  0  0  3  0  0  0  0  0  0
  158.7290  212.4570  157.1450 C   0  0  0  0  0  1  0  0  0  0  0  0
  155.7050  210.1950  155.5930 C   0  0  0  0  0  2  0  0  0  0  0  0
  155.2150  212.5500  155.7150 C   0  0  0  0  0  2  0  0  0  0  0  0
  155.2480  211.3740  154.7570 C   0  0  0  0  0  2  0  0  0  0  0  0
  156.6500  210.7760  156.6240 C   0  0  0  0  0  2  0  0  0  0  0  0
  156.2150  212.2220  156.8210 C   0  0  0  0  0  3  0  0  0  0  0  0
  162.6210  213.7310  145.6770 C   0  0  0  0  0  2  0  0  0  0  0  0
  161.4420  214.0310  144.7690 C   0  0  0  0  0  2  0  0  0  0  0  0
  160.9950  212.7460  144.0850 C   0  0  0  0  0  2  0  0  0  0  0  0
  160.3410  213.0560  142.7440 C   0  0  0  0  0  2  0  0  0  0  0  0
  160.7690  212.0700  141.6650 C   0  0  0  0  0  2  0  0  0  0  0  0
  159.8080  212.0800  140.5740 N   0  0  0  0  0  2  0  0  0  0  0  0
  160.5420  211.7740  139.3550 C   0  0  0  0  0  2  0  0  0  0  0  0
  159.4100  209.9790  138.2600 O   0  0  0  0  0  1  0  0  0  0  0  0
  159.5850  211.3660  138.2390 C   0  0  1  0  0  3  0  0  0  0  0  0
  158.2380  212.0820  138.3730 C   0  0  2  0  0  3  0  0  0  0  0  0
  157.2100  210.3810  137.0170 O   0  0  0  0  0  1  0  0  0  0  0  0
  157.0710  211.1050  138.2060 C   0  0  2  0  0  3  0  0  0  0  0  0
  154.7930  211.2750  137.1900 C   0  0  0  0  0  2  0  0  0  0  0  0
  153.6610  210.6860  137.8820 N   0  0  0  0  0  0  0  0  0  0  0  0
  155.0870  211.6660  139.5240 N   0  0  0  0  0  2  0  0  0  0  0  0
  152.5320  211.5810  137.6740 C   0  0  0  0  0  1  0  0  0  0  0  0
  155.7320  211.8410  138.2330 C   0  0  1  0  0  3  0  0  0  0  0  0
  153.9910  210.7280  139.3020 C   0  0  0  0  0  2  0  0  0  0  0  0
  158.5340  214.1930  138.0670 O   0  0  0  0  0  1  0  0  0  0  0  0
  158.1400  213.1090  137.4280 O   0  0  0  0  0  0  0  0  0  0  0  0
  161.0000  210.3060  148.1640 C   0  0  0  0  0  2  0  0  0  0  0  0
  160.2950  206.6990  150.7820 C   0  0  1  0  0  3  0  0  0  0  0  0
  161.3580  207.7400  151.0860 C   0  0  0  0  0  2  0  0  0  0  0  0
  163.6960  207.6090  147.8010 C   0  0  0  0  0  2  0  0  0  0  0  0
  161.5470  208.8840  148.1180 C   0  0  1  0  0  3  0  0  0  0  0  0
  161.2850  207.1320  149.6990 C   0  0  1  0  0  0  0  0  0  0  0  0
  163.0340  208.8120  148.4800 C   0  0  0  0  0  2  0  0  0  0  0  0
  163.0030  206.3240  147.9880 N   0  0  0  0  0  0  0  0  0  0  0  0
  162.4010  206.1270  149.3170 C   0  0  0  0  0  2  0  0  0  0  0  0
  160.6610  207.9380  148.7150 O   0  0  0  0  0  0  0  0  0  0  0  0
  162.0320  206.0960  146.9280 C   0  0  0  0  0  2  0  0  0  0  0  0
  163.2250  204.2820  145.9730 O   0  0  0  0  0  0  0  0  0  0  0  0
  161.0150  203.8120  146.6250 N   0  0  0  0  0  2  0  0  0  0  0  0
  162.1370  204.6900  146.4590 C   0  0  0  0  0  0  0  0  0  0  0  0
  160.3190  201.9010  145.2840 C   0  0  0  0  0  3  0  0  0  0  0  0
  161.6000  200.1250  147.0170 C   0  0  0  0  0  3  0  0  0  0  0  0
  160.2670  200.5280  145.0400 C   0  0  0  0  0  3  0  0  0  0  0  0
  161.6450  201.4990  147.2640 C   0  0  0  0  0  3  0  0  0  0  0  0
  161.0040  202.3970  146.3960 C   0  0  0  0  0  0  0  0  0  0  0  0
  160.9090  199.6410  145.9060 C   0  0  0  0  0  3  0  0  0  0  0  0
  160.6710  205.3920  151.4660 C   0  0  0  0  0  2  0  0  0  0  0  0
  160.3680  204.2750  150.5860 N   0  0  0  0  0  2  0  0  0  0  0  0
  161.6140  202.7130  151.9960 O   0  0  0  0  0  1  0  0  0  0  0  0
  160.4740  201.9960  150.1370 O   0  0  0  0  0  0  0  0  0  0  0  0
  160.8120  202.9530  150.8860 C   0  0  0  0  0  0  0  0  0  0  0  0
  1 45  1  6  0  0  0
  1  4  1  0  0  0  0
  2 15  1  0  0  0  0
  3 10  1  0  0  0  0
  4  5  1  0  0  0  0
  5 10  2  0  0  0  0
  5  8  1  0  0  0  0
  6  4  2  0  0  0  0
  6  3  1  0  0  0  0
  7 12  1  0  0  0  0
  8  7  2  0  0  0  0
  9  2  1  0  0  0  0
  9 12  2  0  0  0  0
 10  9  1  0  0  0  0
 11 18  1  0  0  0  0
 12 16  1  0  0  0  0
 13  1  1  0  0  0  0
 14 13  1  0  0  0  0
 14 17  2  0  0  0  0
 15 16  2  0  0  0  0
 15 11  1  0  0  0  0
 17  6  1  0  0  0  0
 18 19  1  6  0  0  0
 20 23  1  0  0  0  0
 21 24  1  0  0  0  0
 22 20  1  0  0  0  0
 22 21  1  0  0  0  0
 23 24  1  0  0  0  0
 24 18  1  0  0  0  0
 25 14  1  0  0  0  0
 26 25  1  0  0  0  0
 27 26  1  0  0  0  0
 28 27  1  0  0  0  0
 29 28  1  0  0  0  0
 30 29  1  0  0  0  0
 31 30  1  0  0  0  0
 33 32  1  1  0  0  0
 33 34  1  0  0  0  0
 33 31  1  0  0  0  0
 34 44  1  6  0  0  0
 36 35  1  6  0  0  0
 36 34  1  0  0  0  0
 37 38  1  0  0  0  0
 37 41  1  0  0  0  0
 38 42  1  0  0  0  0
 40 38  1  0  0  0  0
 41 36  1  1  0  0  0
 41 39  1  0  0  0  0
 42 39  1  0  0  0  0
 44 43  1  0  0  0  0
 46 47  1  0  0  0  0
 46 65  1  1  0  0  0
 48 52  1  0  0  0  0
 48 51  1  0  0  0  0
 49 45  1  1  0  0  0
 49 51  1  0  0  0  0
 49 54  1  0  0  0  0
 50 53  1  6  0  0  0
 50 46  1  0  0  0  0
 50 47  1  0  0  0  0
 52 53  1  0  0  0  0
 54 50  1  0  0  0  0
 55 52  1  0  0  0  0
 56 58  2  0  0  0  0
 58 57  1  0  0  0  0
 58 55  1  0  0  0  0
 59 63  1  0  0  0  0
 60 62  1  0  0  0  0
 61 59  2  0  0  0  0
 61 64  1  0  0  0  0
 63 57  1  0  0  0  0
 63 62  2  0  0  0  0
 64 60  2  0  0  0  0
 66 69  1  0  0  0  0
 66 65  1  0  0  0  0
 68 69  2  0  0  0  0
 69 67  1  0  0  0  0
M  END
>  <MODEL>
2

>  <REMARK>
 VINA RESULT:      -2.3      2.055      2.674
  Name = 
  21 active torsions:
  status: ('A' for Active; 'I' for Inactive)
    1  A    between atoms: C_1  and  C_32
    2  A    between atoms: C_2  and  C_8
    3  A    between atoms: C_8  and  N_16
    4  A    between atoms: C_12  and  C_35
    5  A    between atoms: C_12  and  O_58
    6  A    between atoms: C_12  and  C_61
    7  A    between atoms: C_15  and  C_32
    8  A    between atoms: N_25  and  C_49
    9  A    between atoms: C_28  and  N_50
   10  A    between atoms: C_28  and  C_52
   11  A    between atoms: C_29  and  N_46
   12  A    between atoms: C_29  and  C_61
   13  A    between atoms: C_33  and  N_44
   14  A    between atoms: C_33  and  C_67
   15  A    between atoms: C_34  and  C_40
   16  A    between atoms: C_34  and  N_46
   17  A    between atoms: C_35  and  C_59
   18  A    between atoms: C_40  and  C_56
   19  A    between atoms: C_55  and  C_62
   20  A    between atoms: C_56  and  C_69
   21  A    between atoms: C_62  and  C_69
                            x       y       z     vdW  Elec       q    Type
                         _______ _______ _______ _____ _____    ______ ____

>  <TORSDO>
F 21

$$$$
=
 OpenBabel11042421293D

 69 77  0  0  1  0  0  0  0  0999 V2000
  161.8960  211.2590  148.6150 C   0  0  2  0  0  3  0  0  0  0  0  0
  158.7190  214.3280  153.1890 C   0  0  0  0  0  2  0  0  0  0  0  0
  159.9950  214.4530  150.0020 S   0  0  0  0  0  0  0  0  0  0  0  0
  161.2400  212.3010  149.4670 C   0  0  0  0  0  0  0  0  0  0  0  0
  160.7920  212.1670  150.7820 C   0  0  0  0  0  0  0  0  0  0  0  0
  160.8780  213.5130  148.9110 C   0  0  0  0  0  0  0  0  0  0  0  0
  160.4510  211.1000  152.9390 C   0  0  0  0  0  3  0  0  0  0  0  0
  160.9920  211.0640  151.6340 C   0  0  0  0  0  3  0  0  0  0  0  0
  159.5400  213.3080  152.4950 C   0  0  0  0  0  0  0  0  0  0  0  0
  160.0740  213.2830  151.2170 C   0  0  0  0  0  0  0  0  0  0  0  0
  157.7670  214.1700  155.5780 N   0  0  0  0  0  2  0  0  0  0  0  0
  159.7320  212.2380  153.3350 C   0  0  0  0  0  0  0  0  0  0  0  0
  162.4730  211.8650  147.4450 O   0  0  0  0  0  0  0  0  0  0  0  0
  162.0510  213.0980  146.9100 C   0  0  0  0  0  0  0  0  0  0  0  0
  158.5340  213.6170  154.5070 C   0  0  0  0  0  0  0  0  0  0  0  0
  159.1060  212.4520  154.5850 N   0  0  0  0  0  0  0  0  0  0  0  0
  161.2830  213.8950  147.5980 N   0  0  0  0  0  0  0  0  0  0  0  0
  157.6650  213.5310  156.8850 C   0  0  2  0  0  3  0  0  0  0  0  0
  159.0140  212.9280  157.2610 C   0  0  0  0  0  1  0  0  0  0  0  0
  155.8590  210.7730  155.3060 C   0  0  0  0  0  2  0  0  0  0  0  0
  155.2970  212.9660  156.1270 C   0  0  0  0  0  2  0  0  0  0  0  0
  155.1670  212.0630  154.9140 C   0  0  0  0  0  2  0  0  0  0  0  0
  156.9840  211.1850  156.2310 C   0  0  0  0  0  2  0  0  0  0  0  0
  156.5370  212.4890  156.8780 C   0  0  0  0  0  3  0  0  0  0  0  0
  162.5190  213.5150  145.5580 C   0  0  0  0  0  2  0  0  0  0  0  0
  161.3260  213.7250  144.6430 C   0  0  0  0  0  2  0  0  0  0  0  0
  160.9260  212.3930  144.0250 C   0  0  0  0  0  2  0  0  0  0  0  0
  160.3390  212.6040  142.6340 C   0  0  0  0  0  2  0  0  0  0  0  0
  161.1020  211.8210  141.5740 C   0  0  0  0  0  2  0  0  0  0  0  0
  160.1770  211.3070  140.5760 N   0  0  0  0  0  2  0  0  0  0  0  0
  158.8440  211.7460  140.9630 C   0  0  0  0  0  2  0  0  0  0  0  0
  158.7640  213.6250  139.4900 O   0  0  0  0  0  1  0  0  0  0  0  0
  158.1350  212.4120  139.7880 C   0  0  1  0  0  3  0  0  0  0  0  0
  158.1170  211.4970  138.5600 C   0  0  2  0  0  3  0  0  0  0  0  0
  158.4670  209.1200  138.6850 O   0  0  0  0  0  1  0  0  0  0  0  0
  157.5190  210.1280  138.8960 C   0  0  2  0  0  3  0  0  0  0  0  0
  155.0240  209.9830  138.9350 C   0  0  0  0  0  2  0  0  0  0  0  0
  154.2400  211.0980  138.4380 N   0  0  0  0  0  0  0  0  0  0  0  0
  156.1350  210.8480  137.0110 N   0  0  0  0  0  2  0  0  0  0  0  0
  153.0860  210.5290  137.7580 C   0  0  0  0  0  1  0  0  0  0  0  0
  156.2600  209.8620  138.0720 C   0  0  1  0  0  3  0  0  0  0  0  0
  155.0630  211.7490  137.4240 C   0  0  0  0  0  2  0  0  0  0  0  0
  159.6420  212.4500  137.3760 O   0  0  0  0  0  1  0  0  0  0  0  0
  159.4120  211.3430  138.0520 O   0  0  0  0  0  0  0  0  0  0  0  0
  160.8350  210.2430  148.2030 C   0  0  0  0  0  2  0  0  0  0  0  0
  160.9960  207.4560  151.7480 C   0  0  1  0  0  3  0  0  0  0  0  0
  162.1390  208.3870  151.3810 C   0  0  0  0  0  2  0  0  0  0  0  0
  163.0910  207.1980  147.6460 C   0  0  0  0  0  2  0  0  0  0  0  0
  161.2660  208.7870  148.3440 C   0  0  1  0  0  3  0  0  0  0  0  0
  161.5330  207.4940  150.3160 C   0  0  1  0  0  0  0  0  0  0  0  0
  162.7780  208.6020  148.1730 C   0  0  0  0  0  2  0  0  0  0  0  0
  162.4630  206.0940  148.3900 N   0  0  0  0  0  0  0  0  0  0  0  0
  162.3870  206.2880  149.8470 C   0  0  0  0  0  2  0  0  0  0  0  0
  160.6250  208.1300  149.4350 O   0  0  0  0  0  0  0  0  0  0  0  0
  161.1610  205.7630  147.8310 C   0  0  0  0  0  2  0  0  0  0  0  0
  161.8900  204.4810  145.9730 O   0  0  0  0  0  0  0  0  0  0  0  0
  160.6960  203.2970  147.6170 N   0  0  0  0  0  2  0  0  0  0  0  0
  161.2630  204.4940  147.0660 C   0  0  0  0  0  0  0  0  0  0  0  0
  161.6850  201.0780  147.7930 C   0  0  0  0  0  3  0  0  0  0  0  0
  160.4130  200.2450  145.4500 C   0  0  0  0  0  3  0  0  0  0  0  0
  161.8840  199.7820  147.3130 C   0  0  0  0  0  3  0  0  0  0  0  0
  160.2210  201.5440  145.9270 C   0  0  0  0  0  3  0  0  0  0  0  0
  160.8560  201.9680  147.1040 C   0  0  0  0  0  0  0  0  0  0  0  0
  161.2460  199.3660  146.1430 C   0  0  0  0  0  3  0  0  0  0  0  0
  161.5430  206.3000  152.5750 C   0  0  0  0  0  2  0  0  0  0  0  0
  162.1030  206.8100  153.8150 N   0  0  0  0  0  2  0  0  0  0  0  0
  159.9820  207.8500  154.4480 O   0  0  0  0  0  0  0  0  0  0  0  0
  161.8050  207.9110  155.8420 O   0  0  0  0  0  1  0  0  0  0  0  0
  161.3050  207.5410  154.7440 C   0  0  0  0  0  0  0  0  0  0  0  0
  1 45  1  6  0  0  0
  1  4  1  0  0  0  0
  2 15  1  0  0  0  0
  3 10  1  0  0  0  0
  4  5  1  0  0  0  0
  5 10  2  0  0  0  0
  5  8  1  0  0  0  0
  6  4  2  0  0  0  0
  6  3  1  0  0  0  0
  7 12  1  0  0  0  0
  8  7  2  0  0  0  0
  9  2  1  0  0  0  0
  9 12  2  0  0  0  0
 10  9  1  0  0  0  0
 11 18  1  0  0  0  0
 12 16  1  0  0  0  0
 13  1  1  0  0  0  0
 14 13  1  0  0  0  0
 14 17  2  0  0  0  0
 15 16  2  0  0  0  0
 15 11  1  0  0  0  0
 17  6  1  0  0  0  0
 18 19  1  6  0  0  0
 20 23  1  0  0  0  0
 21 24  1  0  0  0  0
 22 20  1  0  0  0  0
 22 21  1  0  0  0  0
 23 24  1  0  0  0  0
 24 18  1  0  0  0  0
 25 14  1  0  0  0  0
 26 25  1  0  0  0  0
 27 26  1  0  0  0  0
 28 27  1  0  0  0  0
 29 28  1  0  0  0  0
 30 31  1  0  0  0  0
 30 29  1  0  0  0  0
 33 32  1  6  0  0  0
 33 31  1  0  0  0  0
 34 44  1  1  0  0  0
 34 36  1  0  0  0  0
 34 33  1  0  0  0  0
 36 35  1  6  0  0  0
 38 37  1  0  0  0  0
 39 42  1  0  0  0  0
 39 41  1  0  0  0  0
 40 38  1  0  0  0  0
 41 36  1  1  0  0  0
 41 37  1  0  0  0  0
 42 38  1  0  0  0  0
 43 44  1  0  0  0  0
 46 65  1  1  0  0  0
 47 46  1  0  0  0  0
 48 51  1  0  0  0  0
 48 52  1  0  0  0  0
 49 45  1  1  0  0  0
 49 54  1  0  0  0  0
 50 53  1  6  0  0  0
 50 47  1  0  0  0  0
 50 46  1  0  0  0  0
 51 49  1  0  0  0  0
 52 53  1  0  0  0  0
 54 50  1  0  0  0  0
 55 52  1  0  0  0  0
 56 58  2  0  0  0  0
 58 57  1  0  0  0  0
 58 55  1  0  0  0  0
 60 62  2  0  0  0  0
 60 64  1  0  0  0  0
 61 59  1  0  0  0  0
 62 63  1  0  0  0  0
 63 57  1  0  0  0  0
 63 59  2  0  0  0  0
 64 61  2  0  0  0  0
 65 66  1  0  0  0  0
 66 69  1  0  0  0  0
 67 69  2  0  0  0  0
 69 68  1  0  0  0  0
M  END
>  <MODEL>
3

>  <REMARK>
 VINA RESULT:      -1.8      2.118      2.592
  Name = 
  21 active torsions:
  status: ('A' for Active; 'I' for Inactive)
    1  A    between atoms: C_1  and  C_32
    2  A    between atoms: C_2  and  C_8
    3  A    between atoms: C_8  and  N_16
    4  A    between atoms: C_12  and  C_35
    5  A    between atoms: C_12  and  O_58
    6  A    between atoms: C_12  and  C_61
    7  A    between atoms: C_15  and  C_32
    8  A    between atoms: N_25  and  C_49
    9  A    between atoms: C_28  and  N_50
   10  A    between atoms: C_28  and  C_52
   11  A    between atoms: C_29  and  N_46
   12  A    between atoms: C_29  and  C_61
   13  A    between atoms: C_33  and  N_44
   14  A    between atoms: C_33  and  C_67
   15  A    between atoms: C_34  and  C_40
   16  A    between atoms: C_34  and  N_46
   17  A    between atoms: C_35  and  C_59
   18  A    between atoms: C_40  and  C_56
   19  A    between atoms: C_55  and  C_62
   20  A    between atoms: C_56  and  C_69
   21  A    between atoms: C_62  and  C_69
                            x       y       z     vdW  Elec       q    Type
                         _______ _______ _______ _____ _____    ______ ____

>  <TORSDO>
F 21

$$$$
=
 OpenBabel11042421293D

 69 77  0  0  1  0  0  0  0  0999 V2000
  160.9960  210.0840  150.6980 C   0  0  2  0  0  3  0  0  0  0  0  0
  162.0010  205.1350  146.8350 C   0  0  0  0  0  2  0  0  0  0  0  0
  162.4090  208.5070  147.3430 S   0  0  0  0  0  0  0  0  0  0  0  0
  161.2990  209.2100  149.5210 C   0  0  0  0  0  0  0  0  0  0  0  0
  161.0520  207.8430  149.3890 C   0  0  0  0  0  0  0  0  0  0  0  0
  162.0340  209.7140  148.4640 C   0  0  0  0  0  0  0  0  0  0  0  0
  160.1930  205.6500  149.9890 C   0  0  0  0  0  3  0  0  0  0  0  0
  160.3330  207.0250  150.2820 C   0  0  0  0  0  3  0  0  0  0  0  0
  161.4810  205.9570  147.9530 C   0  0  0  0  0  0  0  0  0  0  0  0
  161.6160  207.3090  148.2290 C   0  0  0  0  0  0  0  0  0  0  0  0
  161.6820  202.5970  146.5160 N   0  0  0  0  0  2  0  0  0  0  0  0
  160.7790  205.1520  148.8150 C   0  0  0  0  0  0  0  0  0  0  0  0
  161.1240  211.4700  150.3340 O   0  0  0  0  0  0  0  0  0  0  0  0
  161.9020  211.9300  149.2530 C   0  0  0  0  0  0  0  0  0  0  0  0
  161.4480  203.7960  147.2580 C   0  0  0  0  0  0  0  0  0  0  0  0
  160.7620  203.8120  148.3630 N   0  0  0  0  0  0  0  0  0  0  0  0
  162.3500  211.1000  148.3530 N   0  0  0  0  0  0  0  0  0  0  0  0
  161.0710  201.3210  146.8700 C   0  0  2  0  0  3  0  0  0  0  0  0
  161.4710  200.9440  148.2920 C   0  0  0  0  0  1  0  0  0  0  0  0
  160.2420  198.4520  144.7610 C   0  0  0  0  0  2  0  0  0  0  0  0
  161.8460  198.9200  146.4950 C   0  0  0  0  0  2  0  0  0  0  0  0
  160.7850  197.9210  146.0720 C   0  0  0  0  0  2  0  0  0  0  0  0
  160.3220  199.9600  144.8750 C   0  0  0  0  0  2  0  0  0  0  0  0
  161.4610  200.2460  145.8440 C   0  0  0  0  0  3  0  0  0  0  0  0
  162.1870  213.3870  149.1160 C   0  0  0  0  0  2  0  0  0  0  0  0
  161.5010  213.9300  147.8750 C   0  0  0  0  0  2  0  0  0  0  0  0
  162.5540  214.4230  146.8930 C   0  0  0  0  0  2  0  0  0  0  0  0
  162.8030  213.3800  145.8100 C   0  0  0  0  0  2  0  0  0  0  0  0
  161.7950  213.4930  144.6740 C   0  0  0  0  0  2  0  0  0  0  0  0
  162.4870  213.5030  143.3960 N   0  0  0  0  0  2  0  0  0  0  0  0
  161.5070  213.1520  142.3770 C   0  0  0  0  0  2  0  0  0  0  0  0
  163.0980  214.4480  141.1550 O   0  0  0  0  0  1  0  0  0  0  0  0
  161.8740  213.7830  141.0370 C   0  0  1  0  0  3  0  0  0  0  0  0
  161.9360  212.7300  139.9270 C   0  0  2  0  0  3  0  0  0  0  0  0
  163.3500  210.7880  140.0690 O   0  0  0  0  0  1  0  0  0  0  0  0
  162.1330  211.3250  140.5040 C   0  0  2  0  0  3  0  0  0  0  0  0
  159.7180  211.2140  139.8670 C   0  0  0  0  0  2  0  0  0  0  0  0
  159.3590  211.0540  138.4710 N   0  0  0  0  0  0  0  0  0  0  0  0
  161.2780  209.6990  138.8880 N   0  0  0  0  0  2  0  0  0  0  0  0
  158.1930  210.1830  138.4350 C   0  0  0  0  0  1  0  0  0  0  0  0
  160.9730  210.4070  140.1200 C   0  0  1  0  0  3  0  0  0  0  0  0
  160.4610  210.3250  137.8520 C   0  0  0  0  0  2  0  0  0  0  0  0
  162.3820  213.1320  137.8590 O   0  0  0  0  0  1  0  0  0  0  0  0
  162.9710  213.0290  139.0330 O   0  0  0  0  0  0  0  0  0  0  0  0
  161.9850  209.7470  151.8090 C   0  0  0  0  0  2  0  0  0  0  0  0
  158.9220  212.3330  153.8790 C   0  0  1  0  0  3  0  0  0  0  0  0
  160.4070  212.6520  153.8870 C   0  0  0  0  0  2  0  0  0  0  0  0
  162.0070  209.3800  155.6220 C   0  0  0  0  0  2  0  0  0  0  0  0
  161.3730  209.6940  153.2050 C   0  0  1  0  0  3  0  0  0  0  0  0
  159.9400  211.2600  154.2660 C   0  0  1  0  0  0  0  0  0  0  0  0
  162.3770  210.0640  154.3020 C   0  0  0  0  0  2  0  0  0  0  0  0
  160.6090  209.5530  156.0480 N   0  0  0  0  0  0  0  0  0  0  0  0
  160.0300  210.8770  155.7660 C   0  0  0  0  0  2  0  0  0  0  0  0
  160.0730  210.2780  153.2540 O   0  0  0  0  0  0  0  0  0  0  0  0
  159.7680  208.4860  155.5250 C   0  0  0  0  0  2  0  0  0  0  0  0
  161.3780  206.7830  155.8910 O   0  0  0  0  0  0  0  0  0  0  0  0
  160.5390  206.9310  153.7000 N   0  0  0  0  0  2  0  0  0  0  0  0
  160.6270  207.3650  155.0640 C   0  0  0  0  0  0  0  0  0  0  0  0
  162.4330  205.8790  152.5870 C   0  0  0  0  0  3  0  0  0  0  0  0
  161.1310  203.4090  152.5430 C   0  0  0  0  0  3  0  0  0  0  0  0
  163.0570  204.7710  152.0110 C   0  0  0  0  0  3  0  0  0  0  0  0
  160.5050  204.5210  153.1120 C   0  0  0  0  0  3  0  0  0  0  0  0
  161.1550  205.7640  153.1390 C   0  0  0  0  0  0  0  0  0  0  0  0
  162.4050  203.5360  151.9910 C   0  0  0  0  0  3  0  0  0  0  0  0
  158.2630  213.0100  155.0740 C   0  0  0  0  0  2  0  0  0  0  0  0
  157.1360  212.2120  155.5270 N   0  0  0  0  0  2  0  0  0  0  0  0
  155.7700  212.8980  153.6180 O   0  0  0  0  0  0  0  0  0  0  0  0
  154.9940  211.3850  155.1600 O   0  0  0  0  0  1  0  0  0  0  0  0
  155.9270  212.1400  154.7740 C   0  0  0  0  0  0  0  0  0  0  0  0
  1 45  1  1  0  0  0
  2 15  1  0  0  0  0
  2  9  1  0  0  0  0
  3 10  1  0  0  0  0
  3  6  1  0  0  0  0
  4  1  1  0  0  0  0
  5  4  1  0  0  0  0
  5  8  1  0  0  0  0
  6  4  2  0  0  0  0
  7  8  2  0  0  0  0
  9 10  1  0  0  0  0
  9 12  2  0  0  0  0
 10  5  2  0  0  0  0
 11 18  1  0  0  0  0
 11 15  1  0  0  0  0
 12  7  1  0  0  0  0
 13  1  1  0  0  0  0
 14 13  1  0  0  0  0
 15 16  2  0  0  0  0
 16 12  1  0  0  0  0
 17  6  1  0  0  0  0
 17 14  2  0  0  0  0
 18 19  1  1  0  0  0
 20 23  1  0  0  0  0
 20 22  1  0  0  0  0
 22 21  1  0  0  0  0
 23 24  1  0  0  0  0
 24 21  1  0  0  0  0
 24 18  1  0  0  0  0
 25 14  1  0  0  0  0
 26 25  1  0  0  0  0
 27 26  1  0  0  0  0
 28 27  1  0  0  0  0
 29 28  1  0  0  0  0
 30 29  1  0  0  0  0
 31 30  1  0  0  0  0
 33 32  1  1  0  0  0
 33 31  1  0  0  0  0
 34 44  1  6  0  0  0
 34 36  1  0  0  0  0
 34 33  1  0  0  0  0
 36 35  1  6  0  0  0
 37 41  1  0  0  0  0
 38 37  1  0  0  0  0
 39 41  1  0  0  0  0
 40 38  1  0  0  0  0
 41 36  1  6  0  0  0
 42 38  1  0  0  0  0
 42 39  1  0  0  0  0
 43 44  1  0  0  0  0
 46 47  1  0  0  0  0
 46 50  1  0  0  0  0
 46 65  1  1  0  0  0
 48 52  1  0  0  0  0
 49 45  1  6  0  0  0
 49 54  1  0  0  0  0
 49 51  1  0  0  0  0
 50 47  1  6  0  0  0
 50 53  1  0  0  0  0
 51 48  1  0  0  0  0
 53 52  1  0  0  0  0
 54 50  1  0  0  0  0
 55 52  1  0  0  0  0
 57 58  1  0  0  0  0
 58 55  1  0  0  0  0
 58 56  2  0  0  0  0
 59 63  1  0  0  0  0
 60 62  1  0  0  0  0
 61 59  2  0  0  0  0
 62 63  2  0  0  0  0
 63 57  1  0  0  0  0
 64 61  1  0  0  0  0
 64 60  2  0  0  0  0
 65 66  1  0  0  0  0
 67 69  2  0  0  0  0
 69 68  1  0  0  0  0
 69 66  1  0  0  0  0
M  END
>  <MODEL>
4

>  <REMARK>
 VINA RESULT:      -0.7      2.548      8.095
  Name = 
  21 active torsions:
  status: ('A' for Active; 'I' for Inactive)
    1  A    between atoms: C_1  and  C_32
    2  A    between atoms: C_2  and  C_8
    3  A    between atoms: C_8  and  N_16
    4  A    between atoms: C_12  and  C_35
    5  A    between atoms: C_12  and  O_58
    6  A    between atoms: C_12  and  C_61
    7  A    between atoms: C_15  and  C_32
    8  A    between atoms: N_25  and  C_49
    9  A    between atoms: C_28  and  N_50
   10  A    between atoms: C_28  and  C_52
   11  A    between atoms: C_29  and  N_46
   12  A    between atoms: C_29  and  C_61
   13  A    between atoms: C_33  and  N_44
   14  A    between atoms: C_33  and  C_67
   15  A    between atoms: C_34  and  C_40
   16  A    between atoms: C_34  and  N_46
   17  A    between atoms: C_35  and  C_59
   18  A    between atoms: C_40  and  C_56
   19  A    between atoms: C_55  and  C_62
   20  A    between atoms: C_56  and  C_69
   21  A    between atoms: C_62  and  C_69
                            x       y       z     vdW  Elec       q    Type
                         _______ _______ _______ _____ _____    ______ ____

>  <TORSDO>
F 21

$$$$
=
 OpenBabel11042421293D

 69 77  0  0  1  0  0  0  0  0999 V2000
  161.9740  211.2740  148.6500 C   0  0  2  0  0  3  0  0  0  0  0  0
  158.7440  214.3600  153.1740 C   0  0  0  0  0  2  0  0  0  0  0  0
  160.0110  214.4530  149.9830 S   0  0  0  0  0  0  0  0  0  0  0  0
  161.2990  212.3170  149.4840 C   0  0  0  0  0  0  0  0  0  0  0  0
  160.8570  212.1980  150.8030 C   0  0  0  0  0  0  0  0  0  0  0  0
  160.9110  213.5120  148.9070 C   0  0  0  0  0  0  0  0  0  0  0  0
  160.5420  211.1650  152.9800 C   0  0  0  0  0  3  0  0  0  0  0  0
  161.0800  211.1150  151.6740 C   0  0  0  0  0  3  0  0  0  0  0  0
  159.5850  213.3440  152.4980 C   0  0  0  0  0  0  0  0  0  0  0  0
  160.1160  213.3070  151.2180 C   0  0  0  0  0  0  0  0  0  0  0  0
  157.8000  214.2270  155.5680 N   0  0  0  0  0  2  0  0  0  0  0  0
  159.8000  212.2950  153.3560 C   0  0  0  0  0  0  0  0  0  0  0  0
  162.5360  211.8700  147.4670 O   0  0  0  0  0  0  0  0  0  0  0  0
  162.0890  213.0840  146.9110 C   0  0  0  0  0  0  0  0  0  0  0  0
  158.5760  213.6700  154.5050 C   0  0  0  0  0  0  0  0  0  0  0  0
  159.1730  212.5190  154.6040 N   0  0  0  0  0  0  0  0  0  0  0  0
  161.3060  213.8780  147.5870 N   0  0  0  0  0  0  0  0  0  0  0  0
  157.7140  213.6090  156.8870 C   0  0  2  0  0  3  0  0  0  0  0  0
  159.0690  213.0180  157.2590 C   0  0  0  0  0  1  0  0  0  0  0  0
  155.9860  210.7300  155.4430 C   0  0  0  0  0  2  0  0  0  0  0  0
  155.3820  212.9750  156.0700 C   0  0  0  0  0  2  0  0  0  0  0  0
  155.3090  211.9820  154.9250 C   0  0  0  0  0  2  0  0  0  0  0  0
  157.0680  211.2170  156.3830 C   0  0  0  0  0  2  0  0  0  0  0  0
  156.5890  212.5630  156.9090 C   0  0  0  0  0  3  0  0  0  0  0  0
  162.5450  213.4860  145.5500 C   0  0  0  0  0  2  0  0  0  0  0  0
  161.8830  212.6060  144.5050 C   0  0  0  0  0  2  0  0  0  0  0  0
  160.6610  213.3200  143.9480 C   0  0  0  0  0  2  0  0  0  0  0  0
  160.6440  213.2400  142.4260 C   0  0  0  0  0  2  0  0  0  0  0  0
  161.7890  212.3890  141.8920 C   0  0  0  0  0  2  0  0  0  0  0  0
  161.2630  211.1890  141.2620 N   0  0  0  0  0  2  0  0  0  0  0  0
  161.9060  211.0730  139.9610 C   0  0  0  0  0  2  0  0  0  0  0  0
  161.3720  208.7940  140.4350 O   0  0  0  0  0  1  0  0  0  0  0  0
  162.1540  209.6090  139.6110 C   0  0  1  0  0  3  0  0  0  0  0  0
  161.8520  209.3320  138.1350 C   0  0  2  0  0  3  0  0  0  0  0  0
  161.7540  211.7350  138.0600 O   0  0  0  0  0  1  0  0  0  0  0  0
  161.2780  210.5730  137.4440 C   0  0  2  0  0  3  0  0  0  0  0  0
  159.2310  210.2430  138.8400 C   0  0  0  0  0  2  0  0  0  0  0  0
  158.4940  211.4030  139.3050 N   0  0  0  0  0  0  0  0  0  0  0  0
  159.2230  211.8490  137.0780 N   0  0  0  0  0  2  0  0  0  0  0  0
  157.0830  211.0500  139.2550 C   0  0  0  0  0  1  0  0  0  0  0  0
  159.7500  210.5480  137.4520 C   0  0  1  0  0  3  0  0  0  0  0  0
  158.7150  212.4460  138.3100 C   0  0  0  0  0  2  0  0  0  0  0  0
  160.1720  208.5900  137.0110 O   0  0  0  0  0  1  0  0  0  0  0  0
  160.9580  208.2620  138.0160 O   0  0  0  0  0  0  0  0  0  0  0  0
  160.9340  210.2290  148.2590 C   0  0  0  0  0  2  0  0  0  0  0  0
  160.8830  207.1090  151.5180 C   0  0  1  0  0  3  0  0  0  0  0  0
  161.9990  208.1280  151.3730 C   0  0  0  0  0  2  0  0  0  0  0  0
  163.4170  207.3720  147.6730 C   0  0  0  0  0  2  0  0  0  0  0  0
  161.4340  208.7900  148.3090 C   0  0  1  0  0  3  0  0  0  0  0  0
  161.5670  207.3180  150.1660 C   0  0  1  0  0  0  0  0  0  0  0  0
  162.9640  208.6980  148.2920 C   0  0  0  0  0  2  0  0  0  0  0  0
  162.7810  206.1690  148.2330 N   0  0  0  0  0  0  0  0  0  0  0  0
  162.5370  206.2100  149.6840 C   0  0  0  0  0  2  0  0  0  0  0  0
  160.7210  207.9940  149.2530 O   0  0  0  0  0  0  0  0  0  0  0  0
  161.5680  205.8310  147.5020 C   0  0  0  0  0  2  0  0  0  0  0  0
  162.6920  204.2330  146.1570 O   0  0  0  0  0  0  0  0  0  0  0  0
  160.7640  203.4570  147.2570 N   0  0  0  0  0  2  0  0  0  0  0  0
  161.7120  204.4760  146.9100 C   0  0  0  0  0  0  0  0  0  0  0  0
  161.4190  201.1880  147.8520 C   0  0  0  0  0  3  0  0  0  0  0  0
  160.5250  200.2060  145.3940 C   0  0  0  0  0  3  0  0  0  0  0  0
  161.5440  199.8290  147.5550 C   0  0  0  0  0  3  0  0  0  0  0  0
  160.4070  201.5670  145.6900 C   0  0  0  0  0  3  0  0  0  0  0  0
  160.8540  202.0660  146.9240 C   0  0  0  0  0  0  0  0  0  0  0  0
  161.0940  199.3400  146.3270 C   0  0  0  0  0  3  0  0  0  0  0  0
  161.4070  205.9040  152.2880 C   0  0  0  0  0  2  0  0  0  0  0  0
  160.5690  204.7480  152.0170 N   0  0  0  0  0  2  0  0  0  0  0  0
  162.5120  203.2720  151.8500 O   0  0  0  0  0  1  0  0  0  0  0  0
  160.3720  202.4570  151.6740 O   0  0  0  0  0  0  0  0  0  0  0  0
  161.1320  203.4500  151.8400 C   0  0  0  0  0  0  0  0  0  0  0  0
  1 45  1  6  0  0  0
  1  4  1  0  0  0  0
  2 15  1  0  0  0  0
  3 10  1  0  0  0  0
  4  5  1  0  0  0  0
  5 10  2  0  0  0  0
  5  8  1  0  0  0  0
  6  4  2  0  0  0  0
  6  3  1  0  0  0  0
  7 12  1  0  0  0  0
  8  7  2  0  0  0  0
  9  2  1  0  0  0  0
  9 12  2  0  0  0  0
 10  9  1  0  0  0  0
 11 18  1  0  0  0  0
 12 16  1  0  0  0  0
 13  1  1  0  0  0  0
 14 13  1  0  0  0  0
 14 17  2  0  0  0  0
 15 16  2  0  0  0  0
 15 11  1  0  0  0  0
 17  6  1  0  0  0  0
 18 24  1  0  0  0  0
 18 19  1  6  0  0  0
 20 23  1  0  0  0  0
 21 24  1  0  0  0  0
 22 20  1  0  0  0  0
 22 21  1  0  0  0  0
 23 24  1  0  0  0  0
 25 14  1  0  0  0  0
 26 25  1  0  0  0  0
 27 26  1  0  0  0  0
 28 27  1  0  0  0  0
 29 28  1  0  0  0  0
 30 29  1  0  0  0  0
 31 30  1  0  0  0  0
 33 31  1  0  0  0  0
 33 32  1  1  0  0  0
 34 44  1  1  0  0  0
 34 33  1  0  0  0  0
 36 35  1  1  0  0  0
 36 34  1  0  0  0  0
 37 38  1  0  0  0  0
 39 41  1  0  0  0  0
 39 42  1  0  0  0  0
 40 38  1  0  0  0  0
 41 36  1  1  0  0  0
 41 37  1  0  0  0  0
 42 38  1  0  0  0  0
 43 44  1  0  0  0  0
 46 65  1  1  0  0  0
 47 46  1  0  0  0  0
 48 52  1  0  0  0  0
 48 51  1  0  0  0  0
 49 45  1  1  0  0  0
 49 54  1  0  0  0  0
 50 53  1  6  0  0  0
 50 47  1  0  0  0  0
 50 46  1  0  0  0  0
 51 49  1  0  0  0  0
 52 53  1  0  0  0  0
 54 50  1  0  0  0  0
 55 52  1  0  0  0  0
 56 58  2  0  0  0  0
 58 57  1  0  0  0  0
 58 55  1  0  0  0  0
 60 62  2  0  0  0  0
 60 64  1  0  0  0  0
 61 59  1  0  0  0  0
 62 63  1  0  0  0  0
 63 57  1  0  0  0  0
 63 59  2  0  0  0  0
 64 61  2  0  0  0  0
 66 65  1  0  0  0  0
 68 69  2  0  0  0  0
 69 67  1  0  0  0  0
 69 66  1  0  0  0  0
M  END
>  <MODEL>
5

>  <REMARK>
 VINA RESULT:      -0.4      1.266      1.993
  Name = 
  21 active torsions:
  status: ('A' for Active; 'I' for Inactive)
    1  A    between atoms: C_1  and  C_32
    2  A    between atoms: C_2  and  C_8
    3  A    between atoms: C_8  and  N_16
    4  A    between atoms: C_12  and  C_35
    5  A    between atoms: C_12  and  O_58
    6  A    between atoms: C_12  and  C_61
    7  A    between atoms: C_15  and  C_32
    8  A    between atoms: N_25  and  C_49
    9  A    between atoms: C_28  and  N_50
   10  A    between atoms: C_28  and  C_52
   11  A    between atoms: C_29  and  N_46
   12  A    between atoms: C_29  and  C_61
   13  A    between atoms: C_33  and  N_44
   14  A    between atoms: C_33  and  C_67
   15  A    between atoms: C_34  and  C_40
   16  A    between atoms: C_34  and  N_46
   17  A    between atoms: C_35  and  C_59
   18  A    between atoms: C_40  and  C_56
   19  A    between atoms: C_55  and  C_62
   20  A    between atoms: C_56  and  C_69
   21  A    between atoms: C_62  and  C_69
                            x       y       z     vdW  Elec       q    Type
                         _______ _______ _______ _____ _____    ______ ____

>  <TORSDO>
F 21

$$$$
