=
 OpenBabel11042420053D

 42 44  0  0  1  0  0  0  0  0999 V2000
  161.8090  209.6540  152.7590 C   0  0  0  0  0  2  0  0  0  0  0  0
  158.4230  211.7250  155.2300 C   0  0  0  0  0  0  0  0  0  0  0  0
  161.0730  210.9390  155.6500 C   0  0  0  0  0  0  0  0  0  0  0  0
  160.3240  211.5010  152.0260 N   0  0  0  0  0  0  0  0  0  0  0  0
  159.0440  211.7530  152.7090 C   0  0  0  0  0  3  0  0  0  0  0  0
  159.3000  211.5430  154.1510 C   0  0  0  0  0  0  0  0  0  0  0  0
  162.4870  210.5400  155.8950 C   0  0  0  0  0  1  0  0  0  0  0  0
  158.9160  211.4790  156.5200 C   0  0  0  0  0  3  0  0  0  0  0  0
  160.5920  211.1690  154.3540 C   0  0  0  0  0  0  0  0  0  0  0  0
  160.2170  211.0940  156.7000 N   0  0  0  0  0  0  0  0  0  0  0  0
  161.2960  211.0720  153.0490 C   0  0  1  0  0  3  0  0  0  0  0  0
  157.0130  212.1730  155.0390 C   0  0  0  0  0  2  0  0  0  0  0  0
  156.9690  213.6770  154.8020 C   0  0  0  0  0  2  0  0  0  0  0  0
  154.3500  214.0370  153.7290 O   0  0  0  0  0  0  0  0  0  0  0  0
  155.3160  214.0540  152.9180 C   0  0  0  0  0  0  0  0  0  0  0  0
  156.0120  214.2070  150.4630 C   0  0  0  0  0  0  0  0  0  0  0  0
  156.6650  213.9600  153.4080 N   0  0  0  0  0  2  0  0  0  0  0  0
  155.0430  214.2100  151.5190 N   0  0  0  0  0  2  0  0  0  0  0  0
  157.2180  213.9280  150.6890 O   0  0  0  0  0  0  0  0  0  0  0  0
  155.5800  214.4530  149.0540 C   0  0  0  0  0  2  0  0  0  0  0  0
  156.6000  214.0670  148.1760 O   0  0  0  0  0  1  0  0  0  0  0  0
  161.8640  209.3190  151.2680 C   0  0  0  0  0  2  0  0  0  0  0  0
  160.8450  208.2490  150.9150 C   0  0  0  0  0  2  0  0  0  0  0  0
  162.8290  206.9550  149.6700 O   0  0  0  0  0  0  0  0  0  0  0  0
  161.2620  208.2170  148.2750 O   0  0  0  0  0  0  0  0  0  0  0  0
  161.3900  207.3430  149.4890 S   0  0  0  0  0  0  0  0  0  0  0  0
  160.4110  205.9190  149.3130 N   0  0  0  0  0  2  0  0  0  0  0  0
  161.2010  204.7680  149.7280 C   0  0  2  0  0  3  0  0  0  0  0  0
  161.1270  203.6690  148.7040 C   0  0  0  0  0  0  0  0  0  0  0  0
  160.9960  201.5060  146.9110 C   0  0  0  0  0  0  0  0  0  0  0  0
  160.9530  200.4520  146.0520 F   0  0  0  0  0  0  0  0  0  0  0  0
  162.0940  205.1120  146.8620 C   0  0  0  0  0  1  0  0  0  0  0  0
  160.6150  202.4310  149.1200 C   0  0  0  0  0  3  0  0  0  0  0  0
  160.5460  201.3540  148.2310 C   0  0  0  0  0  3  0  0  0  0  0  0
  161.4970  202.7360  146.4840 C   0  0  0  0  0  3  0  0  0  0  0  0
  161.5640  203.8210  147.3690 C   0  0  0  0  0  0  0  0  0  0  0  0
  160.7870  204.2890  151.1170 C   0  0  0  0  0  2  0  0  0  0  0  0
  162.7820  204.9880  152.2200 O   0  0  0  0  0  0  0  0  0  0  0  0
  161.5230  205.0590  152.1620 C   0  0  0  0  0  0  0  0  0  0  0  0
  160.8000  205.8480  153.1100 N   0  0  0  0  0  2  0  0  0  0  0  0
  160.4850  207.0330  155.2200 C   0  0  0  0  0  1  0  0  0  0  0  0
  161.4550  206.6830  154.1070 C   0  0  0  0  0  2  0  0  0  0  0  0
  2  8  1  0  0  0  0
  3  7  1  0  0  0  0
  3 10  1  0  0  0  0
  4  5  2  0  0  0  0
  4 11  1  0  0  0  0
  5  6  1  0  0  0  0
  6  9  1  0  0  0  0
  6  2  2  0  0  0  0
  8 10  2  0  0  0  0
  9  3  2  0  0  0  0
 11  1  1  6  0  0  0
 11  9  1  0  0  0  0
 12  2  1  0  0  0  0
 13 12  1  0  0  0  0
 15 17  1  0  0  0  0
 15 14  2  0  0  0  0
 16 19  2  0  0  0  0
 16 18  1  0  0  0  0
 17 13  1  0  0  0  0
 18 15  1  0  0  0  0
 20 16  1  0  0  0  0
 21 20  1  0  0  0  0
 22  1  1  0  0  0  0
 23 22  1  0  0  0  0
 25 26  2  0  0  0  0
 26 24  2  0  0  0  0
 26 23  1  0  0  0  0
 27 26  1  0  0  0  0
 27 28  1  0  0  0  0
 28 37  1  1  0  0  0
 29 33  1  0  0  0  0
 29 28  1  0  0  0  0
 30 34  1  0  0  0  0
 31 30  1  0  0  0  0
 32 36  1  0  0  0  0
 34 33  2  0  0  0  0
 35 30  2  0  0  0  0
 35 36  1  0  0  0  0
 36 29  2  0  0  0  0
 37 39  1  0  0  0  0
 39 38  2  0  0  0  0
 39 40  1  0  0  0  0
 40 42  1  0  0  0  0
 42 41  1  0  0  0  0
M  END
>  <MODEL>
1

>  <REMARK>
 VINA RESULT:      -7.3      0.000      0.000
  Name = 
  14 active torsions:
  status: ('A' for Active; 'I' for Inactive)
    1  A    between atoms: C_1  and  C_39
    2  A    between atoms: C_2  and  C_15
    3  A    between atoms: C_2  and  C_40
    4  A    between atoms: C_5  and  C_29
    5  A    between atoms: C_8  and  C_37
    6  A    between atoms: C_12  and  N_26
    7  A    between atoms: C_14  and  C_15
    8  A    between atoms: C_14  and  S_36
    9  A    between atoms: C_23  and  C_24
   10  A    between atoms: C_23  and  C_37
   11  A    between atoms: N_32  and  C_38
   12  A    between atoms: S_36  and  N_41
   13  A    between atoms: C_37  and  N_41
   14  A    between atoms: C_38  and  C_39
                            x       y       z     vdW  Elec       q    Type
                         _______ _______ _______ _____ _____    ______ ____

>  <TORSDO>
F 14

$$$$
=
 OpenBabel11042420053D

 42 44  0  0  1  0  0  0  0  0999 V2000
  161.1620  211.6560  149.0170 C   0  0  0  0  0  2  0  0  0  0  0  0
  161.0790  213.9460  144.9410 C   0  0  0  0  0  0  0  0  0  0  0  0
  159.4410  213.7230  147.1950 C   0  0  0  0  0  0  0  0  0  0  0  0
  163.0160  212.9250  147.9640 N   0  0  0  0  0  0  0  0  0  0  0  0
  163.0060  213.2110  146.5190 C   0  0  0  0  0  3  0  0  0  0  0  0
  161.6040  213.5350  146.1750 C   0  0  0  0  0  0  0  0  0  0  0  0
  158.5560  213.6300  148.3900 C   0  0  0  0  0  1  0  0  0  0  0  0
  159.7050  214.2180  144.8750 C   0  0  0  0  0  3  0  0  0  0  0  0
  160.8100  213.4340  147.2750 C   0  0  0  0  0  0  0  0  0  0  0  0
  158.9240  214.1010  145.9920 N   0  0  0  0  0  0  0  0  0  0  0  0
  161.6220  213.0040  148.4420 C   0  0  1  0  0  3  0  0  0  0  0  0
  161.9350  214.1030  143.7290 C   0  0  0  0  0  2  0  0  0  0  0  0
  162.5310  212.7600  143.3300 C   0  0  0  0  0  2  0  0  0  0  0  0
  160.1060  211.3410  142.8350 O   0  0  0  0  0  0  0  0  0  0  0  0
  160.8500  211.5780  141.8460 C   0  0  0  0  0  0  0  0  0  0  0  0
  161.2050  211.2350  139.3370 C   0  0  0  0  0  0  0  0  0  0  0  0
  162.0440  212.3600  142.0180 N   0  0  0  0  0  2  0  0  0  0  0  0
  160.4600  211.0940  140.5540 N   0  0  0  0  0  2  0  0  0  0  0  0
  162.3700  211.7080  139.3410 O   0  0  0  0  0  0  0  0  0  0  0  0
  160.6320  210.7350  138.0500 C   0  0  0  0  0  2  0  0  0  0  0  0
  160.0200  211.7940  137.3670 O   0  0  0  0  0  1  0  0  0  0  0  0
  162.3160  210.7160  149.3650 C   0  0  0  0  0  2  0  0  0  0  0  0
  162.0930  209.3390  148.7650 C   0  0  0  0  0  2  0  0  0  0  0  0
  161.2560  208.9020  151.2690 O   0  0  0  0  0  0  0  0  0  0  0  0
  162.9980  207.4210  150.3920 O   0  0  0  0  0  0  0  0  0  0  0  0
  161.7410  208.1680  150.0520 S   0  0  0  0  0  0  0  0  0  0  0  0
  160.5160  207.0670  149.4990 N   0  0  0  0  0  2  0  0  0  0  0  0
  161.1380  205.7690  149.2750 C   0  0  2  0  0  3  0  0  0  0  0  0
  161.1400  205.4220  147.8110 C   0  0  0  0  0  0  0  0  0  0  0  0
  161.0340  204.8910  145.0520 C   0  0  0  0  0  0  0  0  0  0  0  0
  160.9610  204.6300  143.7180 F   0  0  0  0  0  0  0  0  0  0  0  0
  161.8710  203.0330  148.2230 C   0  0  0  0  0  1  0  0  0  0  0  0
  160.7810  206.4320  146.9070 C   0  0  0  0  0  3  0  0  0  0  0  0
  160.7300  206.1720  145.5340 C   0  0  0  0  0  3  0  0  0  0  0  0
  161.4030  203.8820  145.9420 C   0  0  0  0  0  3  0  0  0  0  0  0
  161.4620  204.1370  147.3190 C   0  0  0  0  0  0  0  0  0  0  0  0
  160.4710  204.6880  150.1210 C   0  0  0  0  0  2  0  0  0  0  0  0
  161.8110  203.6870  151.8200 O   0  0  0  0  0  0  0  0  0  0  0  0
  161.0800  204.6590  151.4830 C   0  0  0  0  0  0  0  0  0  0  0  0
  160.8090  205.7140  152.4090 N   0  0  0  0  0  2  0  0  0  0  0  0
  160.9290  207.0110  154.4720 C   0  0  0  0  0  1  0  0  0  0  0  0
  161.4290  205.7890  153.7250 C   0  0  0  0  0  2  0  0  0  0  0  0
  1 22  1  0  0  0  0
  2  6  1  0  0  0  0
  3  9  1  0  0  0  0
  3  7  1  0  0  0  0
  4 11  1  0  0  0  0
  5  4  2  0  0  0  0
  6  5  1  0  0  0  0
  6  9  2  0  0  0  0
  8  2  2  0  0  0  0
  8 10  1  0  0  0  0
  9 11  1  0  0  0  0
 10  3  2  0  0  0  0
 11  1  1  6  0  0  0
 12  2  1  0  0  0  0
 13 12  1  0  0  0  0
 15 17  1  0  0  0  0
 15 14  2  0  0  0  0
 16 19  2  0  0  0  0
 16 18  1  0  0  0  0
 17 13  1  0  0  0  0
 18 15  1  0  0  0  0
 20 16  1  0  0  0  0
 21 20  1  0  0  0  0
 23 22  1  0  0  0  0
 23 26  1  0  0  0  0
 26 25  2  0  0  0  0
 26 24  2  0  0  0  0
 27 26  1  0  0  0  0
 28 27  1  0  0  0  0
 28 37  1  1  0  0  0
 29 28  1  0  0  0  0
 30 34  2  0  0  0  0
 30 35  1  0  0  0  0
 31 30  1  0  0  0  0
 33 29  2  0  0  0  0
 34 33  1  0  0  0  0
 35 36  2  0  0  0  0
 36 29  1  0  0  0  0
 36 32  1  0  0  0  0
 37 39  1  0  0  0  0
 39 38  2  0  0  0  0
 39 40  1  0  0  0  0
 40 42  1  0  0  0  0
 42 41  1  0  0  0  0
M  END
>  <MODEL>
2

>  <REMARK>
 VINA RESULT:      -7.1      5.528      7.743
  Name = 
  14 active torsions:
  status: ('A' for Active; 'I' for Inactive)
    1  A    between atoms: C_1  and  C_39
    2  A    between atoms: C_2  and  C_15
    3  A    between atoms: C_2  and  C_40
    4  A    between atoms: C_5  and  C_29
    5  A    between atoms: C_8  and  C_37
    6  A    between atoms: C_12  and  N_26
    7  A    between atoms: C_14  and  C_15
    8  A    between atoms: C_14  and  S_36
    9  A    between atoms: C_23  and  C_24
   10  A    between atoms: C_23  and  C_37
   11  A    between atoms: N_32  and  C_38
   12  A    between atoms: S_36  and  N_41
   13  A    between atoms: C_37  and  N_41
   14  A    between atoms: C_38  and  C_39
                            x       y       z     vdW  Elec       q    Type
                         _______ _______ _______ _____ _____    ______ ____

>  <TORSDO>
F 14

$$$$
=
 OpenBabel11042420053D

 42 44  0  0  1  0  0  0  0  0999 V2000
  161.2970  211.7900  149.9990 C   0  0  0  0  0  2  0  0  0  0  0  0
  158.5470  213.1480  146.4710 C   0  0  0  0  0  0  0  0  0  0  0  0
  158.8580  213.7710  149.1780 C   0  0  0  0  0  0  0  0  0  0  0  0
  161.9870  212.3610  147.6860 N   0  0  0  0  0  0  0  0  0  0  0  0
  161.0120  212.3380  146.5820 C   0  0  0  0  0  3  0  0  0  0  0  0
  159.7550  212.8930  147.1340 C   0  0  0  0  0  0  0  0  0  0  0  0
  159.0110  214.1290  150.6160 C   0  0  0  0  0  1  0  0  0  0  0  0
  157.4980  213.7050  147.2170 C   0  0  0  0  0  3  0  0  0  0  0  0
  159.9120  213.2030  148.4490 C   0  0  0  0  0  0  0  0  0  0  0  0
  157.6740  214.0000  148.5410 N   0  0  0  0  0  0  0  0  0  0  0  0
  161.2860  212.8500  148.8880 C   0  0  1  0  0  3  0  0  0  0  0  0
  158.3620  212.8550  145.0190 C   0  0  0  0  0  2  0  0  0  0  0  0
  158.9790  213.9640  144.1780 C   0  0  0  0  0  2  0  0  0  0  0  0
  158.3860  213.1550  141.5070 O   0  0  0  0  0  0  0  0  0  0  0  0
  159.5560  212.9490  141.9280 C   0  0  0  0  0  0  0  0  0  0  0  0
  161.8470  211.9450  141.3990 C   0  0  0  0  0  0  0  0  0  0  0  0
  159.9390  213.4090  143.2350 N   0  0  0  0  0  2  0  0  0  0  0  0
  160.4960  212.2940  141.0660 N   0  0  0  0  0  2  0  0  0  0  0  0
  162.2840  212.0830  142.5700 O   0  0  0  0  0  0  0  0  0  0  0  0
  162.7310  211.3240  140.3660 C   0  0  0  0  0  2  0  0  0  0  0  0
  162.0830  211.3370  139.1250 O   0  0  0  0  0  1  0  0  0  0  0  0
  161.9720  210.4820  149.5870 C   0  0  0  0  0  2  0  0  0  0  0  0
  162.3740  209.6710  150.8070 C   0  0  0  0  0  2  0  0  0  0  0  0
  160.6500  207.7570  151.5330 O   0  0  0  0  0  0  0  0  0  0  0  0
  162.9400  207.0660  151.0090 O   0  0  0  0  0  0  0  0  0  0  0  0
  161.8230  207.9930  150.6250 S   0  0  0  0  0  0  0  0  0  0  0  0
  161.3560  207.7240  148.9730 N   0  0  0  0  0  2  0  0  0  0  0  0
  161.4590  206.2980  148.6980 C   0  0  2  0  0  3  0  0  0  0  0  0
  161.4550  206.0380  147.2160 C   0  0  0  0  0  0  0  0  0  0  0  0
  161.2840  205.5560  144.4500 C   0  0  0  0  0  0  0  0  0  0  0  0
  161.1890  205.3060  143.1160 F   0  0  0  0  0  0  0  0  0  0  0  0
  163.6940  204.8580  147.2630 C   0  0  0  0  0  1  0  0  0  0  0  0
  160.3500  206.4940  146.4820 C   0  0  0  0  0  3  0  0  0  0  0  0
  160.2630  206.2590  145.1060 C   0  0  0  0  0  3  0  0  0  0  0  0
  162.3920  205.1080  145.1680 C   0  0  0  0  0  3  0  0  0  0  0  0
  162.4890  205.3450  146.5470 C   0  0  0  0  0  0  0  0  0  0  0  0
  160.3640  205.5190  149.4210 C   0  0  0  0  0  2  0  0  0  0  0  0
  161.4730  204.1260  151.0070 O   0  0  0  0  0  0  0  0  0  0  0  0
  160.8970  204.2050  149.8870 C   0  0  0  0  0  0  0  0  0  0  0  0
  160.7800  203.0500  149.0520 N   0  0  0  0  0  2  0  0  0  0  0  0
  161.2020  200.7690  148.2940 C   0  0  0  0  0  1  0  0  0  0  0  0
  161.2080  201.7230  149.4730 C   0  0  0  0  0  2  0  0  0  0  0  0
  2  6  2  0  0  0  0
  2  8  1  0  0  0  0
  3  7  1  0  0  0  0
  4 11  1  0  0  0  0
  5  6  1  0  0  0  0
  5  4  2  0  0  0  0
  6  9  1  0  0  0  0
  8 10  2  0  0  0  0
  9 11  1  0  0  0  0
  9  3  2  0  0  0  0
 10  3  1  0  0  0  0
 11  1  1  1  0  0  0
 12  2  1  0  0  0  0
 13 12  1  0  0  0  0
 14 15  2  0  0  0  0
 15 17  1  0  0  0  0
 16 19  2  0  0  0  0
 17 13  1  0  0  0  0
 18 16  1  0  0  0  0
 18 15  1  0  0  0  0
 20 16  1  0  0  0  0
 21 20  1  0  0  0  0
 22  1  1  0  0  0  0
 22 23  1  0  0  0  0
 26 23  1  0  0  0  0
 26 25  2  0  0  0  0
 26 24  2  0  0  0  0
 27 26  1  0  0  0  0
 28 27  1  0  0  0  0
 28 37  1  1  0  0  0
 29 28  1  0  0  0  0
 30 34  2  0  0  0  0
 30 35  1  0  0  0  0
 31 30  1  0  0  0  0
 33 29  2  0  0  0  0
 34 33  1  0  0  0  0
 35 36  2  0  0  0  0
 36 29  1  0  0  0  0
 36 32  1  0  0  0  0
 37 39  1  0  0  0  0
 39 38  2  0  0  0  0
 40 42  1  0  0  0  0
 40 39  1  0  0  0  0
 41 42  1  0  0  0  0
M  END
>  <MODEL>
3

>  <REMARK>
 VINA RESULT:      -7.1      4.766      7.157
  Name = 
  14 active torsions:
  status: ('A' for Active; 'I' for Inactive)
    1  A    between atoms: C_1  and  C_39
    2  A    between atoms: C_2  and  C_15
    3  A    between atoms: C_2  and  C_40
    4  A    between atoms: C_5  and  C_29
    5  A    between atoms: C_8  and  C_37
    6  A    between atoms: C_12  and  N_26
    7  A    between atoms: C_14  and  C_15
    8  A    between atoms: C_14  and  S_36
    9  A    between atoms: C_23  and  C_24
   10  A    between atoms: C_23  and  C_37
   11  A    between atoms: N_32  and  C_38
   12  A    between atoms: S_36  and  N_41
   13  A    between atoms: C_37  and  N_41
   14  A    between atoms: C_38  and  C_39
                            x       y       z     vdW  Elec       q    Type
                         _______ _______ _______ _____ _____    ______ ____

>  <TORSDO>
F 14

$$$$
=
 OpenBabel11042420053D

 42 44  0  0  1  0  0  0  0  0999 V2000
  160.8310  207.3170  153.2170 C   0  0  0  0  0  2  0  0  0  0  0  0
  159.4500  211.6430  154.3310 C   0  0  0  0  0  0  0  0  0  0  0  0
  159.7620  209.1940  155.6420 C   0  0  0  0  0  0  0  0  0  0  0  0
  161.9320  209.4550  152.6040 N   0  0  0  0  0  0  0  0  0  0  0  0
  161.1810  210.7220  152.6290 C   0  0  0  0  0  3  0  0  0  0  0  0
  160.3090  210.6590  153.8230 C   0  0  0  0  0  0  0  0  0  0  0  0
  159.9300  207.9040  156.3670 C   0  0  0  0  0  1  0  0  0  0  0  0
  158.7400  211.3480  155.5040 C   0  0  0  0  0  3  0  0  0  0  0  0
  160.4690  209.4700  154.4640 C   0  0  0  0  0  0  0  0  0  0  0  0
  158.9090  210.1410  156.1270 N   0  0  0  0  0  0  0  0  0  0  0  0
  161.4470  208.6290  153.7260 C   0  0  1  0  0  3  0  0  0  0  0  0
  159.2870  212.9710  153.6690 C   0  0  0  0  0  2  0  0  0  0  0  0
  158.2420  212.8810  152.5660 C   0  0  0  0  0  2  0  0  0  0  0  0
  156.8250  213.6050  150.1970 O   0  0  0  0  0  0  0  0  0  0  0  0
  158.0700  213.4310  150.0970 C   0  0  0  0  0  0  0  0  0  0  0  0
  160.0740  213.3620  148.5110 C   0  0  0  0  0  0  0  0  0  0  0  0
  158.8510  213.1470  151.2710 N   0  0  0  0  0  2  0  0  0  0  0  0
  158.6870  213.5660  148.8090 N   0  0  0  0  0  2  0  0  0  0  0  0
  160.8640  212.9040  149.3760 O   0  0  0  0  0  0  0  0  0  0  0  0
  160.5830  213.6090  147.1280 C   0  0  0  0  0  2  0  0  0  0  0  0
  161.5490  212.6490  146.8040 O   0  0  0  0  0  1  0  0  0  0  0  0
  161.1650  207.0150  151.7560 C   0  0  0  0  0  2  0  0  0  0  0  0
  161.7820  205.6340  151.6160 C   0  0  0  0  0  2  0  0  0  0  0  0
  159.9250  205.5790  149.6890 O   0  0  0  0  0  0  0  0  0  0  0  0
  160.0510  203.6430  151.1830 O   0  0  0  0  0  0  0  0  0  0  0  0
  160.8550  204.6740  150.4450 S   0  0  0  0  0  0  0  0  0  0  0  0
  161.9570  203.9050  149.3420 N   0  0  0  0  0  2  0  0  0  0  0  0
  161.3830  203.9700  148.0060 C   0  0  2  0  0  3  0  0  0  0  0  0
  161.2480  202.5930  147.4140 C   0  0  0  0  0  0  0  0  0  0  0  0
  161.1020  199.9660  146.4210 C   0  0  0  0  0  0  0  0  0  0  0  0
  161.0530  198.6940  145.9390 F   0  0  0  0  0  0  0  0  0  0  0  0
  160.6500  203.4730  145.1170 C   0  0  0  0  0  1  0  0  0  0  0  0
  161.4800  201.5000  148.2620 C   0  0  0  0  0  3  0  0  0  0  0  0
  161.4050  200.1920  147.7720 C   0  0  0  0  0  3  0  0  0  0  0  0
  160.8600  201.0450  145.5730 C   0  0  0  0  0  3  0  0  0  0  0  0
  160.9280  202.3590  146.0580 C   0  0  0  0  0  0  0  0  0  0  0  0
  162.1860  204.9060  147.1070 C   0  0  0  0  0  2  0  0  0  0  0  0
  160.6020  206.5340  146.3830 O   0  0  0  0  0  0  0  0  0  0  0  0
  161.5860  206.2720  147.1290 C   0  0  0  0  0  0  0  0  0  0  0  0
  162.1450  207.2850  147.9690 N   0  0  0  0  0  2  0  0  0  0  0  0
  162.2280  209.3690  149.2340 C   0  0  0  0  0  1  0  0  0  0  0  0
  161.5650  208.6140  148.0980 C   0  0  0  0  0  2  0  0  0  0  0  0
  2  8  1  0  0  0  0
  3 10  1  0  0  0  0
  3  7  1  0  0  0  0
  4  5  2  0  0  0  0
  4 11  1  0  0  0  0
  5  6  1  0  0  0  0
  6  2  2  0  0  0  0
  6  9  1  0  0  0  0
  8 10  2  0  0  0  0
  9  3  2  0  0  0  0
 11  1  1  6  0  0  0
 11  9  1  0  0  0  0
 12  2  1  0  0  0  0
 13 12  1  0  0  0  0
 15 14  2  0  0  0  0
 15 17  1  0  0  0  0
 16 18  1  0  0  0  0
 16 19  2  0  0  0  0
 17 13  1  0  0  0  0
 18 15  1  0  0  0  0
 20 16  1  0  0  0  0
 21 20  1  0  0  0  0
 22  1  1  0  0  0  0
 23 22  1  0  0  0  0
 24 26  2  0  0  0  0
 26 25  2  0  0  0  0
 26 23  1  0  0  0  0
 27 26  1  0  0  0  0
 28 37  1  6  0  0  0
 28 27  1  0  0  0  0
 29 28  1  0  0  0  0
 29 33  1  0  0  0  0
 30 34  1  0  0  0  0
 31 30  1  0  0  0  0
 32 36  1  0  0  0  0
 34 33  2  0  0  0  0
 35 36  1  0  0  0  0
 35 30  2  0  0  0  0
 36 29  2  0  0  0  0
 37 39  1  0  0  0  0
 38 39  2  0  0  0  0
 39 40  1  0  0  0  0
 40 42  1  0  0  0  0
 42 41  1  0  0  0  0
M  END
>  <MODEL>
4

>  <REMARK>
 VINA RESULT:      -7.0      2.334      3.568
  Name = 
  14 active torsions:
  status: ('A' for Active; 'I' for Inactive)
    1  A    between atoms: C_1  and  C_39
    2  A    between atoms: C_2  and  C_15
    3  A    between atoms: C_2  and  C_40
    4  A    between atoms: C_5  and  C_29
    5  A    between atoms: C_8  and  C_37
    6  A    between atoms: C_12  and  N_26
    7  A    between atoms: C_14  and  C_15
    8  A    between atoms: C_14  and  S_36
    9  A    between atoms: C_23  and  C_24
   10  A    between atoms: C_23  and  C_37
   11  A    between atoms: N_32  and  C_38
   12  A    between atoms: S_36  and  N_41
   13  A    between atoms: C_37  and  N_41
   14  A    between atoms: C_38  and  C_39
                            x       y       z     vdW  Elec       q    Type
                         _______ _______ _______ _____ _____    ______ ____

>  <TORSDO>
F 14

$$$$
=
 OpenBabel11042420053D

 42 44  0  0  1  0  0  0  0  0999 V2000
  161.0870  211.3740  150.3510 C   0  0  0  0  0  2  0  0  0  0  0  0
  160.0860  213.3280  146.2230 C   0  0  0  0  0  0  0  0  0  0  0  0
  159.2480  213.6080  148.8750 C   0  0  0  0  0  0  0  0  0  0  0  0
  162.6890  212.1590  148.6280 N   0  0  0  0  0  0  0  0  0  0  0  0
  162.2640  212.3340  147.2290 C   0  0  0  0  0  3  0  0  0  0  0  0
  160.9020  212.9110  147.2840 C   0  0  0  0  0  0  0  0  0  0  0  0
  158.7920  213.7840  150.2820 C   0  0  0  0  0  1  0  0  0  0  0  0
  158.8310  213.8690  146.5390 C   0  0  0  0  0  3  0  0  0  0  0  0
  160.5000  213.0540  148.5760 C   0  0  0  0  0  0  0  0  0  0  0  0
  158.4430  213.9940  147.8450 N   0  0  0  0  0  0  0  0  0  0  0  0
  161.5590  212.5540  149.4890 C   0  0  1  0  0  3  0  0  0  0  0  0
  160.5200  213.2190  144.7990 C   0  0  0  0  0  2  0  0  0  0  0  0
  159.6660  212.1910  144.0690 C   0  0  0  0  0  2  0  0  0  0  0  0
  158.5890  213.2850  141.6650 O   0  0  0  0  0  0  0  0  0  0  0  0
  159.5510  212.4790  141.5530 C   0  0  0  0  0  0  0  0  0  0  0  0
  161.0650  211.2040  139.9330 C   0  0  0  0  0  0  0  0  0  0  0  0
  160.1900  211.9580  142.7310 N   0  0  0  0  0  2  0  0  0  0  0  0
  160.0160  212.1330  140.2410 N   0  0  0  0  0  2  0  0  0  0  0  0
  161.5920  210.4990  140.8320 O   0  0  0  0  0  0  0  0  0  0  0  0
  161.4850  211.0000  138.5140 C   0  0  0  0  0  2  0  0  0  0  0  0
  161.8200  209.6550  138.3140 O   0  0  0  0  0  1  0  0  0  0  0  0
  162.0880  210.2200  150.4060 C   0  0  0  0  0  2  0  0  0  0  0  0
  161.3830  208.9030  150.6780 C   0  0  0  0  0  2  0  0  0  0  0  0
  163.0590  207.3030  149.3390 O   0  0  0  0  0  0  0  0  0  0  0  0
  161.3820  208.5180  148.0330 O   0  0  0  0  0  0  0  0  0  0  0  0
  161.6390  207.7890  149.3200 S   0  0  0  0  0  0  0  0  0  0  0  0
  160.5520  206.4420  149.4770 N   0  0  0  0  0  2  0  0  0  0  0  0
  161.3170  205.2900  149.9330 C   0  0  2  0  0  3  0  0  0  0  0  0
  161.1850  204.1430  148.9690 C   0  0  0  0  0  0  0  0  0  0  0  0
  160.9440  201.8970  147.2930 C   0  0  0  0  0  0  0  0  0  0  0  0
  160.8460  200.8020  146.4910 F   0  0  0  0  0  0  0  0  0  0  0  0
  162.2070  205.4400  147.0500 C   0  0  0  0  0  1  0  0  0  0  0  0
  160.6190  202.9540  149.4520 C   0  0  0  0  0  3  0  0  0  0  0  0
  160.4950  201.8360  148.6210 C   0  0  0  0  0  3  0  0  0  0  0  0
  161.4990  203.0780  146.8000 C   0  0  0  0  0  3  0  0  0  0  0  0
  161.6210  204.2040  147.6260 C   0  0  0  0  0  0  0  0  0  0  0  0
  160.9200  204.8950  151.3530 C   0  0  0  0  0  2  0  0  0  0  0  0
  162.8340  206.0340  152.2050 O   0  0  0  0  0  0  0  0  0  0  0  0
  161.6040  205.7830  152.3390 C   0  0  0  0  0  0  0  0  0  0  0  0
  160.8740  206.3190  153.4440 N   0  0  0  0  0  2  0  0  0  0  0  0
  160.8590  208.6340  154.2160 C   0  0  0  0  0  1  0  0  0  0  0  0
  161.4570  207.2510  154.3990 C   0  0  0  0  0  2  0  0  0  0  0  0
  1 22  1  0  0  0  0
  2  8  2  0  0  0  0
  2  6  1  0  0  0  0
  3  7  1  0  0  0  0
  4 11  1  0  0  0  0
  5  6  1  0  0  0  0
  5  4  2  0  0  0  0
  6  9  2  0  0  0  0
  8 10  1  0  0  0  0
  9  3  1  0  0  0  0
  9 11  1  0  0  0  0
 10  3  2  0  0  0  0
 11  1  1  6  0  0  0
 12  2  1  0  0  0  0
 13 12  1  0  0  0  0
 15 14  2  0  0  0  0
 15 17  1  0  0  0  0
 16 18  1  0  0  0  0
 16 19  2  0  0  0  0
 17 13  1  0  0  0  0
 18 15  1  0  0  0  0
 20 16  1  0  0  0  0
 21 20  1  0  0  0  0
 22 23  1  0  0  0  0
 25 26  2  0  0  0  0
 26 24  2  0  0  0  0
 26 27  1  0  0  0  0
 26 23  1  0  0  0  0
 27 28  1  0  0  0  0
 28 37  1  1  0  0  0
 29 33  1  0  0  0  0
 29 28  1  0  0  0  0
 30 34  1  0  0  0  0
 31 30  1  0  0  0  0
 32 36  1  0  0  0  0
 34 33  2  0  0  0  0
 35 30  2  0  0  0  0
 35 36  1  0  0  0  0
 36 29  2  0  0  0  0
 37 39  1  0  0  0  0
 38 39  2  0  0  0  0
 39 40  1  0  0  0  0
 40 42  1  0  0  0  0
 41 42  1  0  0  0  0
M  END
>  <MODEL>
5

>  <REMARK>
 VINA RESULT:      -7.0      4.847      6.894
  Name = 
  14 active torsions:
  status: ('A' for Active; 'I' for Inactive)
    1  A    between atoms: C_1  and  C_39
    2  A    between atoms: C_2  and  C_15
    3  A    between atoms: C_2  and  C_40
    4  A    between atoms: C_5  and  C_29
    5  A    between atoms: C_8  and  C_37
    6  A    between atoms: C_12  and  N_26
    7  A    between atoms: C_14  and  C_15
    8  A    between atoms: C_14  and  S_36
    9  A    between atoms: C_23  and  C_24
   10  A    between atoms: C_23  and  C_37
   11  A    between atoms: N_32  and  C_38
   12  A    between atoms: S_36  and  N_41
   13  A    between atoms: C_37  and  N_41
   14  A    between atoms: C_38  and  C_39
                            x       y       z     vdW  Elec       q    Type
                         _______ _______ _______ _____ _____    ______ ____

>  <TORSDO>
F 14

$$$$
=
 OpenBabel11042420053D

 42 44  0  0  1  0  0  0  0  0999 V2000
  160.8900  208.6280  153.9350 C   0  0  0  0  0  2  0  0  0  0  0  0
  158.6770  212.6400  154.8670 C   0  0  0  0  0  0  0  0  0  0  0  0
  159.5940  210.4280  156.3090 C   0  0  0  0  0  0  0  0  0  0  0  0
  161.4600  210.8920  153.0980 N   0  0  0  0  0  0  0  0  0  0  0  0
  160.4560  211.9690  153.0970 C   0  0  0  0  0  3  0  0  0  0  0  0
  159.6950  211.8210  154.3590 C   0  0  0  0  0  0  0  0  0  0  0  0
  160.0850  209.2660  157.1010 C   0  0  0  0  0  1  0  0  0  0  0  0
  158.1230  212.2980  156.1090 C   0  0  0  0  0  3  0  0  0  0  0  0
  160.1500  210.7500  155.0630 C   0  0  0  0  0  0  0  0  0  0  0  0
  158.5890  211.2090  156.7960 N   0  0  0  0  0  0  0  0  0  0  0  0
  161.2370  210.0770  154.3070 C   0  0  1  0  0  3  0  0  0  0  0  0
  158.1880  213.8450  154.1340 C   0  0  0  0  0  2  0  0  0  0  0  0
  157.2040  213.4330  153.0480 C   0  0  0  0  0  2  0  0  0  0  0  0
  155.7560  214.0770  150.6750 O   0  0  0  0  0  0  0  0  0  0  0  0
  156.9950  213.8760  150.5600 C   0  0  0  0  0  0  0  0  0  0  0  0
  158.9670  213.7000  148.9430 C   0  0  0  0  0  0  0  0  0  0  0  0
  157.7920  213.6300  151.7310 N   0  0  0  0  0  2  0  0  0  0  0  0
  157.5890  213.9430  149.2570 N   0  0  0  0  0  2  0  0  0  0  0  0
  159.7650  213.2670  149.8130 O   0  0  0  0  0  0  0  0  0  0  0  0
  159.4540  213.8770  147.5410 C   0  0  0  0  0  2  0  0  0  0  0  0
  160.0460  212.6890  147.0970 O   0  0  0  0  0  1  0  0  0  0  0  0
  160.4410  208.4620  152.4830 C   0  0  0  0  0  2  0  0  0  0  0  0
  160.9870  207.1730  151.8920 C   0  0  0  0  0  2  0  0  0  0  0  0
  163.3680  206.5820  150.8230 O   0  0  0  0  0  0  0  0  0  0  0  0
  162.7230  208.9440  150.8930 O   0  0  0  0  0  0  0  0  0  0  0  0
  162.2240  207.5440  150.6740 S   0  0  0  0  0  0  0  0  0  0  0  0
  161.5270  207.3920  149.0900 N   0  0  0  0  0  2  0  0  0  0  0  0
  161.5160  205.9810  148.7310 C   0  0  2  0  0  3  0  0  0  0  0  0
  161.4580  205.8100  147.2370 C   0  0  0  0  0  0  0  0  0  0  0  0
  161.1880  205.4940  144.4560 C   0  0  0  0  0  0  0  0  0  0  0  0
  161.0440  205.3230  143.1130 F   0  0  0  0  0  0  0  0  0  0  0  0
  163.6980  204.6350  147.1320 C   0  0  0  0  0  1  0  0  0  0  0  0
  160.3270  206.3060  146.5730 C   0  0  0  0  0  3  0  0  0  0  0  0
  160.1900  206.1530  145.1890 C   0  0  0  0  0  3  0  0  0  0  0  0
  162.3220  205.0060  145.1050 C   0  0  0  0  0  3  0  0  0  0  0  0
  162.4680  205.1610  146.4910 C   0  0  0  0  0  0  0  0  0  0  0  0
  160.3830  205.2430  149.4380 C   0  0  0  0  0  2  0  0  0  0  0  0
  161.5890  203.7560  150.8590 O   0  0  0  0  0  0  0  0  0  0  0  0
  160.8400  203.8840  149.8510 C   0  0  0  0  0  0  0  0  0  0  0  0
  160.4540  202.7380  149.0880 N   0  0  0  0  0  2  0  0  0  0  0  0
  161.5810  200.6970  148.3680 C   0  0  0  0  0  1  0  0  0  0  0  0
  160.7990  201.3770  149.4760 C   0  0  0  0  0  2  0  0  0  0  0  0
  2  8  1  0  0  0  0
  3 10  1  0  0  0  0
  3  7  1  0  0  0  0
  4 11  1  0  0  0  0
  5  4  2  0  0  0  0
  5  6  1  0  0  0  0
  6  2  2  0  0  0  0
  6  9  1  0  0  0  0
  8 10  2  0  0  0  0
  9  3  2  0  0  0  0
 11  1  1  6  0  0  0
 11  9  1  0  0  0  0
 12  2  1  0  0  0  0
 13 12  1  0  0  0  0
 15 14  2  0  0  0  0
 15 17  1  0  0  0  0
 16 18  1  0  0  0  0
 16 19  2  0  0  0  0
 17 13  1  0  0  0  0
 18 15  1  0  0  0  0
 20 16  1  0  0  0  0
 21 20  1  0  0  0  0
 22  1  1  0  0  0  0
 23 22  1  0  0  0  0
 26 24  2  0  0  0  0
 26 25  2  0  0  0  0
 26 23  1  0  0  0  0
 27 26  1  0  0  0  0
 28 27  1  0  0  0  0
 28 37  1  1  0  0  0
 29 28  1  0  0  0  0
 30 35  2  0  0  0  0
 30 34  1  0  0  0  0
 31 30  1  0  0  0  0
 33 29  1  0  0  0  0
 34 33  2  0  0  0  0
 35 36  1  0  0  0  0
 36 32  1  0  0  0  0
 36 29  2  0  0  0  0
 37 39  1  0  0  0  0
 39 38  2  0  0  0  0
 40 42  1  0  0  0  0
 40 39  1  0  0  0  0
 41 42  1  0  0  0  0
M  END
>  <MODEL>
6

>  <REMARK>
 VINA RESULT:      -6.8      2.166      3.307
  Name = 
  14 active torsions:
  status: ('A' for Active; 'I' for Inactive)
    1  A    between atoms: C_1  and  C_39
    2  A    between atoms: C_2  and  C_15
    3  A    between atoms: C_2  and  C_40
    4  A    between atoms: C_5  and  C_29
    5  A    between atoms: C_8  and  C_37
    6  A    between atoms: C_12  and  N_26
    7  A    between atoms: C_14  and  C_15
    8  A    between atoms: C_14  and  S_36
    9  A    between atoms: C_23  and  C_24
   10  A    between atoms: C_23  and  C_37
   11  A    between atoms: N_32  and  C_38
   12  A    between atoms: S_36  and  N_41
   13  A    between atoms: C_37  and  N_41
   14  A    between atoms: C_38  and  C_39
                            x       y       z     vdW  Elec       q    Type
                         _______ _______ _______ _____ _____    ______ ____

>  <TORSDO>
F 14

$$$$
=
 OpenBabel11042420053D

 42 44  0  0  1  0  0  0  0  0999 V2000
  161.2060  211.6350  149.3760 C   0  0  0  0  0  2  0  0  0  0  0  0
  161.4140  213.0270  144.9170 C   0  0  0  0  0  0  0  0  0  0  0  0
  159.5730  213.1590  147.0170 C   0  0  0  0  0  0  0  0  0  0  0  0
  163.0890  212.7850  148.2430 N   0  0  0  0  0  0  0  0  0  0  0  0
  163.2090  212.7670  146.7750 C   0  0  0  0  0  3  0  0  0  0  0  0
  161.8330  212.9160  146.2500 C   0  0  0  0  0  0  0  0  0  0  0  0
  158.5800  213.2520  148.1230 C   0  0  0  0  0  1  0  0  0  0  0  0
  160.0410  213.1840  144.6750 C   0  0  0  0  0  3  0  0  0  0  0  0
  160.9400  212.9890  147.2740 C   0  0  0  0  0  0  0  0  0  0  0  0
  159.1590  213.2450  145.7200 N   0  0  0  0  0  0  0  0  0  0  0  0
  161.6530  212.8640  148.5710 C   0  0  1  0  0  3  0  0  0  0  0  0
  162.3770  212.9910  143.7770 C   0  0  0  0  0  2  0  0  0  0  0  0
  161.6820  213.4180  142.4910 C   0  0  0  0  0  2  0  0  0  0  0  0
  159.3810  212.4290  141.1250 O   0  0  0  0  0  0  0  0  0  0  0  0
  160.4700  211.8240  140.9360 C   0  0  0  0  0  0  0  0  0  0  0  0
  161.6190  209.8420  139.8010 C   0  0  0  0  0  0  0  0  0  0  0  0
  161.6800  212.3250  141.5310 N   0  0  0  0  0  2  0  0  0  0  0  0
  160.4820  210.6680  140.0880 N   0  0  0  0  0  2  0  0  0  0  0  0
  162.7110  210.0090  140.4020 O   0  0  0  0  0  0  0  0  0  0  0  0
  161.4900  208.7060  138.8390 C   0  0  0  0  0  2  0  0  0  0  0  0
  161.9360  207.5250  139.4450 O   0  0  0  0  0  1  0  0  0  0  0  0
  161.9840  210.3650  149.0320 C   0  0  0  0  0  2  0  0  0  0  0  0
  161.8300  209.3230  150.1260 C   0  0  0  0  0  2  0  0  0  0  0  0
  163.4340  207.1840  150.2630 O   0  0  0  0  0  0  0  0  0  0  0  0
  162.6270  207.8440  148.0470 O   0  0  0  0  0  0  0  0  0  0  0  0
  162.2580  207.7190  149.4970 S   0  0  0  0  0  0  0  0  0  0  0  0
  160.8970  206.6540  149.6830 N   0  0  0  0  0  2  0  0  0  0  0  0
  161.2840  205.5730  150.5790 C   0  0  2  0  0  3  0  0  0  0  0  0
  161.2040  204.2440  149.8800 C   0  0  0  0  0  0  0  0  0  0  0  0
  160.9980  201.8370  148.4400 C   0  0  0  0  0  0  0  0  0  0  0  0
  160.8770  200.6760  147.7390 F   0  0  0  0  0  0  0  0  0  0  0  0
  160.9310  202.9520  152.0390 C   0  0  0  0  0  1  0  0  0  0  0  0
  161.2990  204.2430  148.4800 C   0  0  0  0  0  3  0  0  0  0  0  0
  161.2000  203.0470  147.7610 C   0  0  0  0  0  3  0  0  0  0  0  0
  160.9130  201.8250  149.8320 C   0  0  0  0  0  3  0  0  0  0  0  0
  161.0170  203.0190  150.5590 C   0  0  0  0  0  0  0  0  0  0  0  0
  160.4560  205.6000  151.8600 C   0  0  0  0  0  2  0  0  0  0  0  0
  162.3900  206.1510  153.1420 O   0  0  0  0  0  0  0  0  0  0  0  0
  161.1700  206.3810  152.9130 C   0  0  0  0  0  0  0  0  0  0  0  0
  160.4650  207.3630  153.6750 N   0  0  0  0  0  2  0  0  0  0  0  0
  160.7510  207.7630  156.0650 C   0  0  0  0  0  1  0  0  0  0  0  0
  161.1140  208.2130  154.6630 C   0  0  0  0  0  2  0  0  0  0  0  0
  2  6  1  0  0  0  0
  3  9  1  0  0  0  0
  3  7  1  0  0  0  0
  4 11  1  0  0  0  0
  5  4  2  0  0  0  0
  6  5  1  0  0  0  0
  6  9  2  0  0  0  0
  8  2  2  0  0  0  0
  8 10  1  0  0  0  0
  9 11  1  0  0  0  0
 10  3  2  0  0  0  0
 11  1  1  6  0  0  0
 12  2  1  0  0  0  0
 13 12  1  0  0  0  0
 15 14  2  0  0  0  0
 15 17  1  0  0  0  0
 16 18  1  0  0  0  0
 16 19  2  0  0  0  0
 17 13  1  0  0  0  0
 18 15  1  0  0  0  0
 20 21  1  0  0  0  0
 20 16  1  0  0  0  0
 22  1  1  0  0  0  0
 22 23  1  0  0  0  0
 25 26  2  0  0  0  0
 26 27  1  0  0  0  0
 26 23  1  0  0  0  0
 26 24  2  0  0  0  0
 27 28  1  0  0  0  0
 28 37  1  1  0  0  0
 29 36  1  0  0  0  0
 29 28  1  0  0  0  0
 30 35  1  0  0  0  0
 31 30  1  0  0  0  0
 33 29  2  0  0  0  0
 34 30  2  0  0  0  0
 34 33  1  0  0  0  0
 35 36  2  0  0  0  0
 36 32  1  0  0  0  0
 37 39  1  0  0  0  0
 39 38  2  0  0  0  0
 39 40  1  0  0  0  0
 40 42  1  0  0  0  0
 42 41  1  0  0  0  0
M  END
>  <MODEL>
7

>  <REMARK>
 VINA RESULT:      -6.8      5.263      7.810
  Name = 
  14 active torsions:
  status: ('A' for Active; 'I' for Inactive)
    1  A    between atoms: C_1  and  C_39
    2  A    between atoms: C_2  and  C_15
    3  A    between atoms: C_2  and  C_40
    4  A    between atoms: C_5  and  C_29
    5  A    between atoms: C_8  and  C_37
    6  A    between atoms: C_12  and  N_26
    7  A    between atoms: C_14  and  C_15
    8  A    between atoms: C_14  and  S_36
    9  A    between atoms: C_23  and  C_24
   10  A    between atoms: C_23  and  C_37
   11  A    between atoms: N_32  and  C_38
   12  A    between atoms: S_36  and  N_41
   13  A    between atoms: C_37  and  N_41
   14  A    between atoms: C_38  and  C_39
                            x       y       z     vdW  Elec       q    Type
                         _______ _______ _______ _____ _____    ______ ____

>  <TORSDO>
F 14

$$$$
=
 OpenBabel11042420053D

 42 44  0  0  1  0  0  0  0  0999 V2000
  160.7770  208.6180  154.1670 C   0  0  0  0  0  2  0  0  0  0  0  0
  157.6050  211.9530  154.9840 C   0  0  0  0  0  0  0  0  0  0  0  0
  159.7140  210.7530  156.3720 C   0  0  0  0  0  0  0  0  0  0  0  0
  160.1280  210.4800  152.6620 N   0  0  0  0  0  0  0  0  0  0  0  0
  158.8410  211.1750  152.8370 C   0  0  0  0  0  3  0  0  0  0  0  0
  158.6410  211.3060  154.2980 C   0  0  0  0  0  0  0  0  0  0  0  0
  160.8400  210.1370  157.1280 C   0  0  0  0  0  1  0  0  0  0  0  0
  157.6530  211.9590  156.3860 C   0  0  0  0  0  3  0  0  0  0  0  0
  159.6740  210.7280  154.9710 C   0  0  0  0  0  0  0  0  0  0  0  0
  158.6960  211.3630  157.0420 N   0  0  0  0  0  0  0  0  0  0  0  0
  160.6350  210.1380  154.0040 C   0  0  1  0  0  3  0  0  0  0  0  0
  156.4820  212.6300  154.2700 C   0  0  0  0  0  2  0  0  0  0  0  0
  156.8710  214.0600  153.9200 C   0  0  0  0  0  2  0  0  0  0  0  0
  155.1190  214.4530  151.7030 O   0  0  0  0  0  0  0  0  0  0  0  0
  156.3400  214.2670  151.4500 C   0  0  0  0  0  0  0  0  0  0  0  0
  158.1000  213.9810  149.6180 C   0  0  0  0  0  0  0  0  0  0  0  0
  157.2840  214.1460  152.5280 N   0  0  0  0  0  2  0  0  0  0  0  0
  156.7650  214.2250  150.0820 N   0  0  0  0  0  2  0  0  0  0  0  0
  159.0130  213.6460  150.4150 O   0  0  0  0  0  0  0  0  0  0  0  0
  158.4030  214.0370  148.1560 C   0  0  0  0  0  2  0  0  0  0  0  0
  157.7410  212.9930  147.4990 O   0  0  0  0  0  1  0  0  0  0  0  0
  161.7190  207.9810  153.1440 C   0  0  0  0  0  2  0  0  0  0  0  0
  160.9430  207.1500  152.1370 C   0  0  0  0  0  2  0  0  0  0  0  0
  160.8410  204.4900  152.4090 O   0  0  0  0  0  0  0  0  0  0  0  0
  163.0240  205.5640  152.6860 O   0  0  0  0  0  0  0  0  0  0  0  0
  161.7410  205.5810  151.9060 S   0  0  0  0  0  0  0  0  0  0  0  0
  162.0600  205.3500  150.2130 N   0  0  0  0  0  2  0  0  0  0  0  0
  160.8060  205.0140  149.5550 C   0  0  2  0  0  3  0  0  0  0  0  0
  160.9380  203.7370  148.7700 C   0  0  0  0  0  0  0  0  0  0  0  0
  161.1390  201.4330  147.1710 C   0  0  0  0  0  0  0  0  0  0  0  0
  161.2160  200.3210  146.3900 F   0  0  0  0  0  0  0  0  0  0  0  0
  160.5250  202.2720  150.7930 C   0  0  0  0  0  1  0  0  0  0  0  0
  161.2040  203.8470  147.3980 C   0  0  0  0  0  3  0  0  0  0  0  0
  161.3080  202.7030  146.5990 C   0  0  0  0  0  3  0  0  0  0  0  0
  160.8850  201.3130  148.5360 C   0  0  0  0  0  3  0  0  0  0  0  0
  160.7850  202.4550  149.3440 C   0  0  0  0  0  0  0  0  0  0  0  0
  160.3120  206.1710  148.6900 C   0  0  0  0  0  2  0  0  0  0  0  0
  162.4380  206.8010  147.8140 O   0  0  0  0  0  0  0  0  0  0  0  0
  161.4170  207.1490  148.4690 C   0  0  0  0  0  0  0  0  0  0  0  0
  161.3290  208.4640  149.0240 N   0  0  0  0  0  2  0  0  0  0  0  0
  162.0790  210.6920  149.6780 C   0  0  0  0  0  1  0  0  0  0  0  0
  162.3320  209.4920  148.7840 C   0  0  0  0  0  2  0  0  0  0  0  0
  2  8  1  0  0  0  0
  3 10  1  0  0  0  0
  3  7  1  0  0  0  0
  4  5  2  0  0  0  0
  4 11  1  0  0  0  0
  5  6  1  0  0  0  0
  6  9  1  0  0  0  0
  6  2  2  0  0  0  0
  8 10  2  0  0  0  0
  9  3  2  0  0  0  0
 11  1  1  6  0  0  0
 11  9  1  0  0  0  0
 12  2  1  0  0  0  0
 13 12  1  0  0  0  0
 15 14  2  0  0  0  0
 15 17  1  0  0  0  0
 16 18  1  0  0  0  0
 16 19  2  0  0  0  0
 17 13  1  0  0  0  0
 18 15  1  0  0  0  0
 20 16  1  0  0  0  0
 21 20  1  0  0  0  0
 22  1  1  0  0  0  0
 23 22  1  0  0  0  0
 26 23  1  0  0  0  0
 26 24  2  0  0  0  0
 26 25  2  0  0  0  0
 27 26  1  0  0  0  0
 28 37  1  6  0  0  0
 28 27  1  0  0  0  0
 29 36  1  0  0  0  0
 29 28  1  0  0  0  0
 30 35  1  0  0  0  0
 31 30  1  0  0  0  0
 33 29  2  0  0  0  0
 34 30  2  0  0  0  0
 34 33  1  0  0  0  0
 35 36  2  0  0  0  0
 36 32  1  0  0  0  0
 38 39  2  0  0  0  0
 39 37  1  0  0  0  0
 39 40  1  0  0  0  0
 42 40  1  0  0  0  0
 42 41  1  0  0  0  0
M  END
>  <MODEL>
8

>  <REMARK>
 VINA RESULT:      -6.7      1.632      2.823
  Name = 
  14 active torsions:
  status: ('A' for Active; 'I' for Inactive)
    1  A    between atoms: C_1  and  C_39
    2  A    between atoms: C_2  and  C_15
    3  A    between atoms: C_2  and  C_40
    4  A    between atoms: C_5  and  C_29
    5  A    between atoms: C_8  and  C_37
    6  A    between atoms: C_12  and  N_26
    7  A    between atoms: C_14  and  C_15
    8  A    between atoms: C_14  and  S_36
    9  A    between atoms: C_23  and  C_24
   10  A    between atoms: C_23  and  C_37
   11  A    between atoms: N_32  and  C_38
   12  A    between atoms: S_36  and  N_41
   13  A    between atoms: C_37  and  N_41
   14  A    between atoms: C_38  and  C_39
                            x       y       z     vdW  Elec       q    Type
                         _______ _______ _______ _____ _____    ______ ____

>  <TORSDO>
F 14

$$$$
=
 OpenBabel11042420053D

 42 44  0  0  1  0  0  0  0  0999 V2000
  161.1820  206.8320  154.2840 C   0  0  0  0  0  2  0  0  0  0  0  0
  159.0660  210.9630  153.7200 C   0  0  0  0  0  0  0  0  0  0  0  0
  159.9920  209.4140  155.8550 C   0  0  0  0  0  0  0  0  0  0  0  0
  161.7620  208.6120  152.6570 N   0  0  0  0  0  0  0  0  0  0  0  0
  160.7760  209.6400  152.2820 C   0  0  0  0  0  3  0  0  0  0  0  0
  160.0540  209.9880  153.5260 C   0  0  0  0  0  0  0  0  0  0  0  0
  160.4880  208.6130  157.0090 C   0  0  0  0  0  1  0  0  0  0  0  0
  158.5460  211.1180  155.0140 C   0  0  0  0  0  3  0  0  0  0  0  0
  160.5130  209.2390  154.5660 C   0  0  0  0  0  0  0  0  0  0  0  0
  159.0150  210.3470  156.0420 N   0  0  0  0  0  0  0  0  0  0  0  0
  161.5650  208.3060  154.0860 C   0  0  1  0  0  3  0  0  0  0  0  0
  158.5740  211.8260  152.6060 C   0  0  0  0  0  2  0  0  0  0  0  0
  159.4850  213.0350  152.4390 C   0  0  0  0  0  2  0  0  0  0  0  0
  158.0920  214.1380  150.2060 O   0  0  0  0  0  0  0  0  0  0  0  0
  159.2090  213.5970  149.9820 C   0  0  0  0  0  0  0  0  0  0  0  0
  160.9110  212.9200  148.1980 C   0  0  0  0  0  0  0  0  0  0  0  0
  159.9960  213.0980  151.0770 N   0  0  0  0  0  2  0  0  0  0  0  0
  159.6900  213.5340  148.6330 N   0  0  0  0  0  2  0  0  0  0  0  0
  161.6200  212.2510  148.9930 O   0  0  0  0  0  0  0  0  0  0  0  0
  161.3120  212.9960  146.7600 C   0  0  0  0  0  2  0  0  0  0  0  0
  162.7080  212.9580  146.6610 O   0  0  0  0  0  1  0  0  0  0  0  0
  161.5290  205.9460  153.0880 C   0  0  0  0  0  2  0  0  0  0  0  0
  160.5010  204.8410  152.9160 C   0  0  0  0  0  2  0  0  0  0  0  0
  160.9830  202.2670  152.3640 O   0  0  0  0  0  0  0  0  0  0  0  0
  162.5410  203.9220  151.4520 O   0  0  0  0  0  0  0  0  0  0  0  0
  161.0990  203.6360  151.7570 S   0  0  0  0  0  0  0  0  0  0  0  0
  160.1460  203.7210  150.3060 N   0  0  0  0  0  2  0  0  0  0  0  0
  161.0520  203.8220  149.1720 C   0  0  2  0  0  3  0  0  0  0  0  0
  161.3180  205.2620  148.8260 C   0  0  0  0  0  0  0  0  0  0  0  0
  161.6790  207.9940  148.2620 C   0  0  0  0  0  0  0  0  0  0  0  0
  161.8330  209.3160  147.9790 F   0  0  0  0  0  0  0  0  0  0  0  0
  162.6410  204.6790  146.7480 C   0  0  0  0  0  1  0  0  0  0  0  0
  160.7940  206.2400  149.6840 C   0  0  0  0  0  3  0  0  0  0  0  0
  160.9730  207.5990  149.4080 C   0  0  0  0  0  3  0  0  0  0  0  0
  162.2130  207.0300  147.4080 C   0  0  0  0  0  3  0  0  0  0  0  0
  162.0420  205.6650  147.6810 C   0  0  0  0  0  0  0  0  0  0  0  0
  160.5270  203.0320  147.9760 C   0  0  0  0  0  2  0  0  0  0  0  0
  161.2260  201.0990  149.1840 O   0  0  0  0  0  0  0  0  0  0  0  0
  160.9930  201.6170  148.0570 C   0  0  0  0  0  0  0  0  0  0  0  0
  161.2030  200.8650  146.8590 N   0  0  0  0  0  2  0  0  0  0  0  0
  161.2050  198.8070  145.5470 C   0  0  0  0  0  1  0  0  0  0  0  0
  161.5820  199.4590  146.8650 C   0  0  0  0  0  2  0  0  0  0  0  0
  2  8  1  0  0  0  0
  3 10  1  0  0  0  0
  3  7  1  0  0  0  0
  4 11  1  0  0  0  0
  5  4  2  0  0  0  0
  5  6  1  0  0  0  0
  6  2  2  0  0  0  0
  6  9  1  0  0  0  0
  8 10  2  0  0  0  0
  9  3  2  0  0  0  0
 11  1  1  6  0  0  0
 11  9  1  0  0  0  0
 12  2  1  0  0  0  0
 13 12  1  0  0  0  0
 15 14  2  0  0  0  0
 15 17  1  0  0  0  0
 16 18  1  0  0  0  0
 16 19  2  0  0  0  0
 17 13  1  0  0  0  0
 18 15  1  0  0  0  0
 20 16  1  0  0  0  0
 21 20  1  0  0  0  0
 22  1  1  0  0  0  0
 23 22  1  0  0  0  0
 25 26  2  0  0  0  0
 26 24  2  0  0  0  0
 26 23  1  0  0  0  0
 27 26  1  0  0  0  0
 28 37  1  6  0  0  0
 28 27  1  0  0  0  0
 29 28  1  0  0  0  0
 29 33  1  0  0  0  0
 30 34  1  0  0  0  0
 31 30  1  0  0  0  0
 32 36  1  0  0  0  0
 34 33  2  0  0  0  0
 35 36  1  0  0  0  0
 35 30  2  0  0  0  0
 36 29  2  0  0  0  0
 37 39  1  0  0  0  0
 39 38  2  0  0  0  0
 40 42  1  0  0  0  0
 40 39  1  0  0  0  0
 41 42  1  0  0  0  0
M  END
>  <MODEL>
9

>  <REMARK>
 VINA RESULT:      -6.6      3.025      4.996
  Name = 
  14 active torsions:
  status: ('A' for Active; 'I' for Inactive)
    1  A    between atoms: C_1  and  C_39
    2  A    between atoms: C_2  and  C_15
    3  A    between atoms: C_2  and  C_40
    4  A    between atoms: C_5  and  C_29
    5  A    between atoms: C_8  and  C_37
    6  A    between atoms: C_12  and  N_26
    7  A    between atoms: C_14  and  C_15
    8  A    between atoms: C_14  and  S_36
    9  A    between atoms: C_23  and  C_24
   10  A    between atoms: C_23  and  C_37
   11  A    between atoms: N_32  and  C_38
   12  A    between atoms: S_36  and  N_41
   13  A    between atoms: C_37  and  N_41
   14  A    between atoms: C_38  and  C_39
                            x       y       z     vdW  Elec       q    Type
                         _______ _______ _______ _____ _____    ______ ____

>  <TORSDO>
F 14

$$$$
