=
 OpenBabel11042421503D

 42 44  0  0  1  0  0  0  0  0999 V2000
  157.0790  212.7020  153.6820 C   0  0  0  0  0  0  0  0  0  0  0  0
  158.8440  211.2580  154.6200 C   0  0  0  0  0  0  0  0  0  0  0  0
  156.4280  211.3970  155.3330 N   0  0  0  0  0  0  0  0  0  0  0  0
  157.5460  214.4530  151.9530 C   0  0  0  0  0  1  0  0  0  0  0  0
  159.2290  210.5570  155.6490 N   0  0  0  0  0  0  0  0  0  0  0  0
  157.4650  211.7450  154.5550 C   0  0  1  0  0  3  0  0  0  0  0  0
  155.4180  212.1820  154.8780 C   0  0  0  0  0  3  0  0  0  0  0  0
  155.7860  213.0090  153.8650 N   0  0  0  0  0  0  0  0  0  0  0  0
  157.9870  213.3470  152.7870 N   0  0  0  0  0  0  0  0  0  0  0  0
  159.3650  212.9180  152.7930 C   0  0  0  0  0  0  0  0  0  0  0  0
  159.7690  211.6160  153.4680 C   0  0  2  0  0  3  0  0  0  0  0  0
  160.2450  213.6010  152.2040 O   0  0  0  0  0  0  0  0  0  0  0  0
  160.9020  208.9880  154.8310 C   0  0  0  0  0  2  0  0  0  0  0  0
  160.5650  210.0130  155.9040 C   0  0  1  0  0  0  0  0  0  0  0  0
  161.3730  207.7390  155.5680 C   0  0  1  0  0  3  0  0  0  0  0  0
  161.6190  211.1070  155.8880 C   0  0  0  0  0  1  0  0  0  0  0  0
  160.6160  209.2410  157.1800 C   0  0  0  0  0  3  0  0  0  0  0  0
  161.0550  208.0070  156.9970 C   0  0  0  0  0  3  0  0  0  0  0  0
  160.6520  206.6300  155.1250 O   0  0  0  0  0  0  0  0  0  0  0  0
  160.8350  206.6140  153.7420 C   0  0  0  0  0  2  0  0  0  0  0  0
  161.3740  205.2630  153.3160 C   0  0  0  0  0  2  0  0  0  0  0  0
  161.6200  205.2740  151.8850 N   0  0  0  0  0  2  0  0  0  0  0  0
  160.4650  204.6770  151.2320 C   0  0  0  0  0  2  0  0  0  0  0  0
  160.8760  203.9130  149.9720 C   0  0  0  0  0  2  0  0  0  0  0  0
  160.5190  202.4240  150.0150 C   0  0  2  0  0  3  0  0  0  0  0  0
  161.3890  201.7390  150.8650 O   0  0  0  0  0  1  0  0  0  0  0  0
  160.5070  201.7900  148.6250 C   0  0  2  0  0  3  0  0  0  0  0  0
  161.1640  200.5590  148.6600 O   0  0  0  0  0  1  0  0  0  0  0  0
  161.3120  202.0510  146.3920 O   0  0  0  0  0  1  0  0  0  0  0  0
  161.1980  202.6990  147.6210 C   0  0  0  0  0  2  0  0  0  0  0  0
  159.7400  210.4960  152.4390 C   0  0  0  0  0  2  0  0  0  0  0  0
  160.9710  210.5610  151.5510 C   0  0  0  0  0  2  0  0  0  0  0  0
  161.3660  209.1650  151.0990 C   0  0  2  0  0  3  0  0  0  0  0  0
  162.5590  208.6770  151.9010 C   0  0  0  0  0  1  0  0  0  0  0  0
  161.6520  209.1100  149.5970 C   0  0  0  0  0  2  0  0  0  0  0  0
  162.1320  207.7360  149.1460 C   0  0  0  0  0  2  0  0  0  0  0  0
  161.0990  207.0660  148.4870 O   0  0  0  0  0  0  0  0  0  0  0  0
  161.6810  206.6000  147.3080 C   0  0  0  0  0  2  0  0  0  0  0  0
  160.6130  206.3320  146.2610 C   0  0  0  0  0  2  0  0  0  0  0  0
  162.4920  205.5000  144.8550 O   0  0  0  0  0  1  0  0  0  0  0  0
  161.1440  205.4560  145.1780 C   0  0  0  0  0  0  0  0  0  0  0  0
  160.3800  204.6640  144.5700 O   0  0  0  0  0  0  0  0  0  0  0  0
  1  8  2  0  0  0  0
  2  5  2  0  0  0  0
  4  9  1  0  0  0  0
  5 14  1  0  0  0  0
  6  1  1  1  0  0  0
  6  2  1  0  0  0  0
  6  3  1  0  0  0  0
  7  3  2  0  0  0  0
  8  7  1  0  0  0  0
  9 10  1  0  0  0  0
  9  1  1  0  0  0  0
 10 11  1  0  0  0  0
 11 31  1  6  0  0  0
 11  2  1  0  0  0  0
 12 10  2  0  0  0  0
 13 15  1  0  0  0  0
 13 14  1  0  0  0  0
 14 16  1  1  0  0  0
 14 17  1  0  0  0  0
 15 19  1  6  0  0  0
 15 18  1  0  0  0  0
 18 17  2  0  0  0  0
 20 19  1  0  0  0  0
 21 20  1  0  0  0  0
 22 21  1  0  0  0  0
 23 22  1  0  0  0  0
 24 25  1  0  0  0  0
 24 23  1  0  0  0  0
 25 26  1  1  0  0  0
 27 28  1  1  0  0  0
 27 25  1  0  0  0  0
 29 30  1  0  0  0  0
 30 27  1  0  0  0  0
 32 31  1  0  0  0  0
 33 32  1  0  0  0  0
 33 34  1  1  0  0  0
 35 33  1  0  0  0  0
 36 35  1  0  0  0  0
 37 36  1  0  0  0  0
 38 37  1  0  0  0  0
 39 38  1  0  0  0  0
 40 41  1  0  0  0  0
 41 39  1  0  0  0  0
 42 41  2  0  0  0  0
M  END
>  <MODEL>
1

>  <REMARK>
 VINA RESULT:      -5.5      0.000      0.000
  Name = 
  19 active torsions:
  status: ('A' for Active; 'I' for Inactive)
    1  A    between atoms: C_2  and  N_13
    2  A    between atoms: C_3  and  C_16
    3  A    between atoms: C_3  and  C_22
    4  A    between atoms: C_4  and  O_34
    5  A    between atoms: C_6  and  C_25
    6  A    between atoms: C_6  and  C_31
    7  A    between atoms: C_8  and  C_24
    8  A    between atoms: C_8  and  O_38
    9  A    between atoms: C_15  and  C_25
   10  A    between atoms: C_15  and  C_33
   11  A    between atoms: C_16  and  C_40
   12  A    between atoms: C_17  and  C_21
   13  A    between atoms: C_17  and  O_34
   14  A    between atoms: C_19  and  C_24
   15  A    between atoms: C_21  and  N_29
   16  A    between atoms: C_22  and  C_23
   17  A    between atoms: C_23  and  O_38
   18  A    between atoms: N_29  and  C_33
   19  A    between atoms: C_36  and  C_40
                            x       y       z     vdW  Elec       q    Type
                         _______ _______ _______ _____ _____    ______ ____

>  <TORSDO>
F 19

$$$$
=
 OpenBabel11042421503D

 42 44  0  0  1  0  0  0  0  0999 V2000
  160.9110  212.6770  150.2280 C   0  0  0  0  0  0  0  0  0  0  0  0
  161.5650  210.3010  150.1430 C   0  0  0  0  0  0  0  0  0  0  0  0
  162.2860  212.1530  148.5870 N   0  0  0  0  0  0  0  0  0  0  0  0
  159.1940  213.5470  151.8310 C   0  0  0  0  0  1  0  0  0  0  0  0
  162.0280  209.3370  149.3970 N   0  0  0  0  0  0  0  0  0  0  0  0
  161.6190  211.6800  149.6530 C   0  0  1  0  0  3  0  0  0  0  0  0
  161.9460  213.4670  148.5650 C   0  0  0  0  0  3  0  0  0  0  0  0
  161.0910  213.8250  149.5580 N   0  0  0  0  0  0  0  0  0  0  0  0
  160.0210  212.4630  151.3250 N   0  0  0  0  0  0  0  0  0  0  0  0
  159.9160  211.1290  151.8640 C   0  0  0  0  0  0  0  0  0  0  0  0
  160.9480  210.0670  151.5120 C   0  0  2  0  0  3  0  0  0  0  0  0
  158.9880  210.8380  152.6640 O   0  0  0  0  0  0  0  0  0  0  0  0
  162.6520  207.1470  148.5360 C   0  0  0  0  0  2  0  0  0  0  0  0
  162.0320  207.9030  149.7010 C   0  0  1  0  0  0  0  0  0  0  0  0
  161.6780  206.0270  148.1880 C   0  0  1  0  0  3  0  0  0  0  0  0
  162.8280  207.6070  150.9600 C   0  0  0  0  0  1  0  0  0  0  0  0
  160.6480  207.3540  149.8030 C   0  0  0  0  0  3  0  0  0  0  0  0
  160.4570  206.3350  148.9810 C   0  0  0  0  0  3  0  0  0  0  0  0
  161.3780  206.0680  146.8260 O   0  0  0  0  0  0  0  0  0  0  0  0
  162.2550  205.1560  146.2390 C   0  0  0  0  0  2  0  0  0  0  0  0
  161.6810  204.6730  144.9220 C   0  0  0  0  0  2  0  0  0  0  0  0
  160.7370  203.6000  145.1730 N   0  0  0  0  0  2  0  0  0  0  0  0
  161.4080  202.6040  145.9950 C   0  0  0  0  0  2  0  0  0  0  0  0
  160.4910  202.1000  147.1110 C   0  0  0  0  0  2  0  0  0  0  0  0
  161.2450  201.4600  148.2810 C   0  0  2  0  0  3  0  0  0  0  0  0
  161.6190  200.1520  147.9640 O   0  0  0  0  0  1  0  0  0  0  0  0
  160.4400  201.4950  149.5780 C   0  0  2  0  0  3  0  0  0  0  0  0
  159.0780  201.3860  149.2940 O   0  0  0  0  0  1  0  0  0  0  0  0
  161.4020  202.5370  151.4990 O   0  0  0  0  0  1  0  0  0  0  0  0
  160.6930  202.7940  150.3260 C   0  0  0  0  0  2  0  0  0  0  0  0
  162.0480  210.0780  152.5620 C   0  0  0  0  0  2  0  0  0  0  0  0
  161.5570  209.4360  153.8490 C   0  0  0  0  0  2  0  0  0  0  0  0
  161.9480  210.2910  155.0440 C   0  0  2  0  0  3  0  0  0  0  0  0
  162.0660  209.4270  156.2860 C   0  0  0  0  0  1  0  0  0  0  0  0
  160.9690  211.4450  155.2650 C   0  0  0  0  0  2  0  0  0  0  0  0
  159.9810  211.1620  156.3900 C   0  0  0  0  0  2  0  0  0  0  0  0
  159.4760  212.3630  156.8890 O   0  0  0  0  0  0  0  0  0  0  0  0
  158.1300  212.0970  157.1460 C   0  0  0  0  0  2  0  0  0  0  0  0
  157.3180  212.1920  155.8660 C   0  0  0  0  0  2  0  0  0  0  0  0
  155.1900  211.6200  157.0260 O   0  0  0  0  0  1  0  0  0  0  0  0
  156.0660  211.3910  155.9750 C   0  0  0  0  0  0  0  0  0  0  0  0
  155.7900  210.5220  155.1080 O   0  0  0  0  0  0  0  0  0  0  0  0
  1  9  1  0  0  0  0
  2 11  1  0  0  0  0
  5 14  1  0  0  0  0
  5  2  2  0  0  0  0
  6  3  1  6  0  0  0
  6  2  1  0  0  0  0
  6  1  1  0  0  0  0
  7  3  2  0  0  0  0
  7  8  1  0  0  0  0
  8  1  2  0  0  0  0
  9  4  1  0  0  0  0
  9 10  1  0  0  0  0
 10 12  2  0  0  0  0
 11 10  1  0  0  0  0
 11 31  1  1  0  0  0
 13 14  1  0  0  0  0
 14 17  1  0  0  0  0
 14 16  1  1  0  0  0
 15 19  1  6  0  0  0
 15 13  1  0  0  0  0
 15 18  1  0  0  0  0
 18 17  2  0  0  0  0
 20 19  1  0  0  0  0
 21 22  1  0  0  0  0
 21 20  1  0  0  0  0
 22 23  1  0  0  0  0
 23 24  1  0  0  0  0
 24 25  1  0  0  0  0
 25 26  1  6  0  0  0
 25 27  1  0  0  0  0
 27 28  1  6  0  0  0
 27 30  1  0  0  0  0
 30 29  1  0  0  0  0
 31 32  1  0  0  0  0
 32 33  1  0  0  0  0
 33 35  1  0  0  0  0
 33 34  1  1  0  0  0
 35 36  1  0  0  0  0
 36 37  1  0  0  0  0
 37 38  1  0  0  0  0
 39 41  1  0  0  0  0
 39 38  1  0  0  0  0
 41 40  1  0  0  0  0
 42 41  2  0  0  0  0
M  END
>  <MODEL>
2

>  <REMARK>
 VINA RESULT:      -5.2      2.882      7.185
  Name = 
  19 active torsions:
  status: ('A' for Active; 'I' for Inactive)
    1  A    between atoms: C_2  and  N_13
    2  A    between atoms: C_3  and  C_16
    3  A    between atoms: C_3  and  C_22
    4  A    between atoms: C_4  and  O_34
    5  A    between atoms: C_6  and  C_25
    6  A    between atoms: C_6  and  C_31
    7  A    between atoms: C_8  and  C_24
    8  A    between atoms: C_8  and  O_38
    9  A    between atoms: C_15  and  C_25
   10  A    between atoms: C_15  and  C_33
   11  A    between atoms: C_16  and  C_40
   12  A    between atoms: C_17  and  C_21
   13  A    between atoms: C_17  and  O_34
   14  A    between atoms: C_19  and  C_24
   15  A    between atoms: C_21  and  N_29
   16  A    between atoms: C_22  and  C_23
   17  A    between atoms: C_23  and  O_38
   18  A    between atoms: N_29  and  C_33
   19  A    between atoms: C_36  and  C_40
                            x       y       z     vdW  Elec       q    Type
                         _______ _______ _______ _____ _____    ______ ____

>  <TORSDO>
F 19

$$$$
=
 OpenBabel11042421503D

 42 44  0  0  1  0  0  0  0  0999 V2000
  160.6710  208.9360  156.0340 C   0  0  0  0  0  0  0  0  0  0  0  0
  161.0440  207.7820  153.8860 C   0  0  0  0  0  0  0  0  0  0  0  0
  159.9560  206.8530  155.9650 N   0  0  0  0  0  0  0  0  0  0  0  0
  161.5630  211.2280  156.5060 C   0  0  0  0  0  1  0  0  0  0  0  0
  161.1530  206.6290  153.2870 N   0  0  0  0  0  0  0  0  0  0  0  0
  160.5400  207.8360  155.2600 C   0  0  0  0  0  0  0  0  0  0  0  0
  159.7430  207.4240  157.1780 C   0  0  0  0  0  3  0  0  0  0  0  0
  160.1800  208.7070  157.2610 N   0  0  0  0  0  2  0  0  0  0  0  0
  161.3470  210.1160  155.5950 N   0  0  0  0  0  0  0  0  0  0  0  0
  161.8700  210.1380  154.2500 C   0  0  0  0  0  0  0  0  0  0  0  0
  161.4320  209.0970  153.2300 C   0  0  2  0  0  3  0  0  0  0  0  0
  162.6670  211.0460  153.8940 O   0  0  0  0  0  0  0  0  0  0  0  0
  160.5190  205.8910  151.0550 C   0  0  0  0  0  2  0  0  0  0  0  0
  161.6610  206.3750  151.9370 C   0  0  1  0  0  0  0  0  0  0  0  0
  161.0150  204.6210  150.3740 C   0  0  1  0  0  3  0  0  0  0  0  0
  162.2580  207.6300  151.3250 C   0  0  0  0  0  1  0  0  0  0  0  0
  162.6430  205.2520  151.9170 C   0  0  0  0  0  3  0  0  0  0  0  0
  162.2920  204.3000  151.0680 C   0  0  0  0  0  3  0  0  0  0  0  0
  160.0980  203.5890  150.5740 O   0  0  0  0  0  0  0  0  0  0  0  0
  160.8760  202.4710  150.8710 C   0  0  0  0  0  2  0  0  0  0  0  0
  160.5970  201.3730  149.8640 C   0  0  0  0  0  2  0  0  0  0  0  0
  159.9580  201.9460  148.6930 N   0  0  0  0  0  2  0  0  0  0  0  0
  160.8550  201.7590  147.5630 C   0  0  0  0  0  2  0  0  0  0  0  0
  161.7640  202.9740  147.3710 C   0  0  0  0  0  2  0  0  0  0  0  0
  161.2530  203.9610  146.3180 C   0  0  2  0  0  3  0  0  0  0  0  0
  160.9870  203.2990  145.1170 O   0  0  0  0  0  1  0  0  0  0  0  0
  162.2200  205.1220  146.0940 C   0  0  2  0  0  3  0  0  0  0  0  0
  163.5360  204.6770  146.2300 O   0  0  0  0  0  1  0  0  0  0  0  0
  160.6060  206.5650  147.1020 O   0  0  0  0  0  1  0  0  0  0  0  0
  161.9590  206.2320  147.1000 C   0  0  0  0  0  2  0  0  0  0  0  0
  160.2410  209.6360  152.4520 C   0  0  0  0  0  2  0  0  0  0  0  0
  159.4210  210.5730  153.3220 C   0  0  0  0  0  2  0  0  0  0  0  0
  159.6530  212.0160  152.9020 C   0  0  2  0  0  3  0  0  0  0  0  0
  159.3250  212.9520  154.0510 C   0  0  0  0  0  1  0  0  0  0  0  0
  158.8570  212.3810  151.6490 C   0  0  0  0  0  2  0  0  0  0  0  0
  158.3880  213.8320  151.6590 C   0  0  0  0  0  2  0  0  0  0  0  0
  158.7470  214.4530  150.4620 O   0  0  0  0  0  0  0  0  0  0  0  0
  160.1050  214.1710  150.3150 C   0  0  0  0  0  2  0  0  0  0  0  0
  160.5190  214.3000  148.8590 C   0  0  0  0  0  2  0  0  0  0  0  0
  162.7780  213.8900  147.8970 O   0  0  0  0  0  0  0  0  0  0  0  0
  161.6610  213.3940  148.5520 C   0  0  0  0  0  0  0  0  0  0  0  0
  161.6250  212.1860  148.9020 O   0  0  0  0  0  1  0  0  0  0  0  0
  1  8  1  0  0  0  0
  2  6  1  0  0  0  0
  3  7  2  0  0  0  0
  5  2  2  0  0  0  0
  6  3  1  0  0  0  0
  6  1  2  0  0  0  0
  7  8  1  0  0  0  0
  9  1  1  0  0  0  0
  9  4  1  0  0  0  0
 10  9  1  0  0  0  0
 11 31  1  1  0  0  0
 11  2  1  0  0  0  0
 11 10  1  0  0  0  0
 12 10  2  0  0  0  0
 13 14  1  0  0  0  0
 14 16  1  6  0  0  0
 14  5  1  0  0  0  0
 15 19  1  1  0  0  0
 15 13  1  0  0  0  0
 15 18  1  0  0  0  0
 17 14  1  0  0  0  0
 18 17  2  0  0  0  0
 19 20  1  0  0  0  0
 21 20  1  0  0  0  0
 22 21  1  0  0  0  0
 23 22  1  0  0  0  0
 24 23  1  0  0  0  0
 25 26  1  6  0  0  0
 25 24  1  0  0  0  0
 27 28  1  1  0  0  0
 27 25  1  0  0  0  0
 27 30  1  0  0  0  0
 30 29  1  0  0  0  0
 31 32  1  0  0  0  0
 33 32  1  0  0  0  0
 33 34  1  1  0  0  0
 35 36  1  0  0  0  0
 35 33  1  0  0  0  0
 37 36  1  0  0  0  0
 38 37  1  0  0  0  0
 39 38  1  0  0  0  0
 40 41  2  0  0  0  0
 41 39  1  0  0  0  0
 41 42  1  0  0  0  0
M  END
>  <MODEL>
3

>  <REMARK>
 VINA RESULT:      -4.7      2.386      5.798
  Name = 
  19 active torsions:
  status: ('A' for Active; 'I' for Inactive)
    1  A    between atoms: C_2  and  N_13
    2  A    between atoms: C_3  and  C_16
    3  A    between atoms: C_3  and  C_22
    4  A    between atoms: C_4  and  O_34
    5  A    between atoms: C_6  and  C_25
    6  A    between atoms: C_6  and  C_31
    7  A    between atoms: C_8  and  C_24
    8  A    between atoms: C_8  and  O_38
    9  A    between atoms: C_15  and  C_25
   10  A    between atoms: C_15  and  C_33
   11  A    between atoms: C_16  and  C_40
   12  A    between atoms: C_17  and  C_21
   13  A    between atoms: C_17  and  O_34
   14  A    between atoms: C_19  and  C_24
   15  A    between atoms: C_21  and  N_29
   16  A    between atoms: C_22  and  C_23
   17  A    between atoms: C_23  and  O_38
   18  A    between atoms: N_29  and  C_33
   19  A    between atoms: C_36  and  C_40
                            x       y       z     vdW  Elec       q    Type
                         _______ _______ _______ _____ _____    ______ ____

>  <TORSDO>
F 19

$$$$
=
 OpenBabel11042421503D

 42 44  0  0  1  0  0  0  0  0999 V2000
  157.4250  212.8770  153.0660 C   0  0  0  0  0  0  0  0  0  0  0  0
  159.0750  211.5310  154.3090 C   0  0  0  0  0  0  0  0  0  0  0  0
  156.6280  211.8410  154.8400 N   0  0  0  0  0  0  0  0  0  0  0  0
  158.0600  214.3480  151.1410 C   0  0  0  0  0  1  0  0  0  0  0  0
  159.3710  210.9730  155.4500 N   0  0  0  0  0  0  0  0  0  0  0  0
  157.7220  212.0440  154.0880 C   0  0  1  0  0  3  0  0  0  0  0  0
  155.6780  212.5820  154.2150 C   0  0  0  0  0  3  0  0  0  0  0  0
  156.1360  213.2440  153.1210 N   0  0  0  0  0  0  0  0  0  0  0  0
  158.4090  213.3610  152.1500 N   0  0  0  0  0  0  0  0  0  0  0  0
  159.7670  212.8970  152.3040 C   0  0  0  0  0  0  0  0  0  0  0  0
  160.0800  211.6930  153.1800 C   0  0  2  0  0  3  0  0  0  0  0  0
  160.7050  213.4630  151.6820 O   0  0  0  0  0  0  0  0  0  0  0  0
  161.0750  209.3190  154.9110 C   0  0  0  0  0  2  0  0  0  0  0  0
  160.6690  210.4330  155.8640 C   0  0  1  0  0  0  0  0  0  0  0  0
  161.4530  208.1270  155.7840 C   0  0  1  0  0  3  0  0  0  0  0  0
  161.7440  211.5060  155.8530 C   0  0  0  0  0  1  0  0  0  0  0  0
  160.5930  209.7680  157.1980 C   0  0  0  0  0  3  0  0  0  0  0  0
  161.0190  208.5160  157.1530 C   0  0  0  0  0  3  0  0  0  0  0  0
  160.7490  206.9960  155.3700 O   0  0  0  0  0  0  0  0  0  0  0  0
  160.7300  207.0770  153.9780 C   0  0  0  0  0  2  0  0  0  0  0  0
  161.4020  205.8540  153.3860 C   0  0  0  0  0  2  0  0  0  0  0  0
  161.8780  206.1660  152.0510 N   0  0  0  0  0  2  0  0  0  0  0  0
  160.8630  205.7280  151.1060 C   0  0  0  0  0  2  0  0  0  0  0  0
  161.0990  204.2800  150.6720 C   0  0  0  0  0  2  0  0  0  0  0  0
  161.2580  204.1130  149.1570 C   0  0  2  0  0  3  0  0  0  0  0  0
  160.7750  205.2410  148.4890 O   0  0  0  0  0  1  0  0  0  0  0  0
  160.5820  202.8450  148.6400 C   0  0  2  0  0  3  0  0  0  0  0  0
  160.4820  201.9070  149.6690 O   0  0  0  0  0  1  0  0  0  0  0  0
  160.6660  201.1990  146.9120 O   0  0  0  0  0  1  0  0  0  0  0  0
  161.3800  202.2470  147.4920 C   0  0  0  0  0  2  0  0  0  0  0  0
  160.0700  210.4390  152.3200 C   0  0  0  0  0  2  0  0  0  0  0  0
  161.4720  210.1220  151.8300 C   0  0  0  0  0  2  0  0  0  0  0  0
  161.5120  210.1360  150.3100 C   0  0  2  0  0  3  0  0  0  0  0  0
  161.9620  208.7830  149.7890 C   0  0  0  0  0  1  0  0  0  0  0  0
  162.4020  211.2580  149.7730 C   0  0  0  0  0  2  0  0  0  0  0  0
  162.0130  211.6840  148.3620 C   0  0  0  0  0  2  0  0  0  0  0  0
  160.7070  212.1770  148.3610 O   0  0  0  0  0  0  0  0  0  0  0  0
  160.3230  212.1450  147.0200 C   0  0  0  0  0  2  0  0  0  0  0  0
  159.3200  213.2500  146.7300 C   0  0  0  0  0  2  0  0  0  0  0  0
  157.2050  212.1380  146.0280 O   0  0  0  0  0  0  0  0  0  0  0  0
  157.9310  212.7880  147.0140 C   0  0  0  0  0  0  0  0  0  0  0  0
  157.4220  212.9700  148.1500 O   0  0  0  0  0  1  0  0  0  0  0  0
  1  8  2  0  0  0  0
  2  5  2  0  0  0  0
  4  9  1  0  0  0  0
  5 14  1  0  0  0  0
  6  1  1  1  0  0  0
  6  2  1  0  0  0  0
  6  3  1  0  0  0  0
  7  3  2  0  0  0  0
  8  7  1  0  0  0  0
  9 10  1  0  0  0  0
  9  1  1  0  0  0  0
 10 11  1  0  0  0  0
 11 31  1  6  0  0  0
 11  2  1  0  0  0  0
 12 10  2  0  0  0  0
 13 15  1  0  0  0  0
 13 14  1  0  0  0  0
 14 16  1  1  0  0  0
 14 17  1  0  0  0  0
 15 19  1  6  0  0  0
 15 18  1  0  0  0  0
 18 17  2  0  0  0  0
 20 19  1  0  0  0  0
 21 20  1  0  0  0  0
 22 21  1  0  0  0  0
 23 22  1  0  0  0  0
 24 23  1  0  0  0  0
 25 26  1  6  0  0  0
 25 24  1  0  0  0  0
 27 25  1  0  0  0  0
 27 28  1  1  0  0  0
 29 30  1  0  0  0  0
 30 27  1  0  0  0  0
 32 31  1  0  0  0  0
 33 34  1  1  0  0  0
 33 32  1  0  0  0  0
 35 33  1  0  0  0  0
 36 35  1  0  0  0  0
 37 36  1  0  0  0  0
 38 37  1  0  0  0  0
 39 41  1  0  0  0  0
 39 38  1  0  0  0  0
 40 41  2  0  0  0  0
 41 42  1  0  0  0  0
M  END
>  <MODEL>
4

>  <REMARK>
 VINA RESULT:      -4.6      2.185      3.116
  Name = 
  19 active torsions:
  status: ('A' for Active; 'I' for Inactive)
    1  A    between atoms: C_2  and  N_13
    2  A    between atoms: C_3  and  C_16
    3  A    between atoms: C_3  and  C_22
    4  A    between atoms: C_4  and  O_34
    5  A    between atoms: C_6  and  C_25
    6  A    between atoms: C_6  and  C_31
    7  A    between atoms: C_8  and  C_24
    8  A    between atoms: C_8  and  O_38
    9  A    between atoms: C_15  and  C_25
   10  A    between atoms: C_15  and  C_33
   11  A    between atoms: C_16  and  C_40
   12  A    between atoms: C_17  and  C_21
   13  A    between atoms: C_17  and  O_34
   14  A    between atoms: C_19  and  C_24
   15  A    between atoms: C_21  and  N_29
   16  A    between atoms: C_22  and  C_23
   17  A    between atoms: C_23  and  O_38
   18  A    between atoms: N_29  and  C_33
   19  A    between atoms: C_36  and  C_40
                            x       y       z     vdW  Elec       q    Type
                         _______ _______ _______ _____ _____    ______ ____

>  <TORSDO>
F 19

$$$$
=
 OpenBabel11042421503D

 42 44  0  0  1  0  0  0  0  0999 V2000
  160.2410  208.9710  156.1130 C   0  0  0  0  0  0  0  0  0  0  0  0
  160.8520  208.7290  153.7360 C   0  0  0  0  0  0  0  0  0  0  0  0
  160.4570  206.8910  155.4190 N   0  0  0  0  0  0  0  0  0  0  0  0
  160.1370  211.1950  157.2600 C   0  0  0  0  0  1  0  0  0  0  0  0
  161.3730  207.9490  152.8310 N   0  0  0  0  0  0  0  0  0  0  0  0
  160.5070  208.1810  155.0490 C   0  0  0  0  0  0  0  0  0  0  0  0
  160.1440  206.9560  156.7380 C   0  0  0  0  0  3  0  0  0  0  0  0
  160.0130  208.2250  157.2040 N   0  0  0  0  0  2  0  0  0  0  0  0
  160.3170  210.3970  156.0580 N   0  0  0  0  0  0  0  0  0  0  0  0
  160.6500  211.0110  154.7950 C   0  0  0  0  0  0  0  0  0  0  0  0
  160.5900  210.2090  153.5030 C   0  0  2  0  0  3  0  0  0  0  0  0
  160.9570  212.2310  154.7440 O   0  0  0  0  0  0  0  0  0  0  0  0
  160.6680  208.0760  150.5040 C   0  0  0  0  0  2  0  0  0  0  0  0
  161.8080  208.3190  151.4820 C   0  0  1  0  0  0  0  0  0  0  0  0
  161.2560  207.2570  149.3600 C   0  0  1  0  0  3  0  0  0  0  0  0
  162.2110  209.7820  151.4130 C   0  0  0  0  0  1  0  0  0  0  0  0
  162.9080  207.4380  150.9930 C   0  0  0  0  0  3  0  0  0  0  0  0
  162.6080  206.8620  149.8400 C   0  0  0  0  0  3  0  0  0  0  0  0
  160.4790  206.1170  149.1480 O   0  0  0  0  0  0  0  0  0  0  0  0
  160.6090  205.3730  150.3200 C   0  0  0  0  0  2  0  0  0  0  0  0
  161.3400  204.0790  150.0240 C   0  0  0  0  0  2  0  0  0  0  0  0
  160.3820  202.9910  149.9540 N   0  0  0  0  0  2  0  0  0  0  0  0
  160.3650  202.5050  148.5830 C   0  0  0  0  0  2  0  0  0  0  0  0
  161.5620  203.0360  147.7920 C   0  0  0  0  0  2  0  0  0  0  0  0
  161.1900  203.5830  146.4110 C   0  0  2  0  0  3  0  0  0  0  0  0
  161.0780  202.5400  145.4880 O   0  0  0  0  0  1  0  0  0  0  0  0
  162.1770  204.6390  145.9200 C   0  0  2  0  0  3  0  0  0  0  0  0
  163.1250  204.9000  146.9110 O   0  0  0  0  0  1  0  0  0  0  0  0
  160.1800  205.6360  145.0710 O   0  0  0  0  0  1  0  0  0  0  0  0
  161.4490  205.9270  145.5710 C   0  0  0  0  0  2  0  0  0  0  0  0
  159.2140  210.3790  152.8790 C   0  0  0  0  0  2  0  0  0  0  0  0
  158.4380  211.4690  153.5960 C   0  0  0  0  0  2  0  0  0  0  0  0
  158.4260  212.7400  152.7630 C   0  0  2  0  0  3  0  0  0  0  0  0
  157.2200  213.5880  153.1230 C   0  0  0  0  0  1  0  0  0  0  0  0
  158.4610  212.4410  151.2640 C   0  0  0  0  0  2  0  0  0  0  0  0
  157.8870  213.5790  150.4290 C   0  0  0  0  0  2  0  0  0  0  0  0
  156.9850  213.0710  149.4920 O   0  0  0  0  0  0  0  0  0  0  0  0
  157.3970  213.6190  148.2770 C   0  0  0  0  0  2  0  0  0  0  0  0
  157.3650  212.5660  147.1830 C   0  0  0  0  0  2  0  0  0  0  0  0
  159.8410  212.6400  146.9350 O   0  0  0  0  0  1  0  0  0  0  0  0
  158.5900  212.6450  146.3380 C   0  0  0  0  0  0  0  0  0  0  0  0
  158.4940  212.6970  145.0850 O   0  0  0  0  0  0  0  0  0  0  0  0
  1  8  1  0  0  0  0
  2  6  1  0  0  0  0
  3  7  2  0  0  0  0
  5  2  2  0  0  0  0
  6  3  1  0  0  0  0
  6  1  2  0  0  0  0
  7  8  1  0  0  0  0
  9  1  1  0  0  0  0
  9  4  1  0  0  0  0
 10  9  1  0  0  0  0
 11 31  1  1  0  0  0
 11  2  1  0  0  0  0
 11 10  1  0  0  0  0
 12 10  2  0  0  0  0
 13 14  1  0  0  0  0
 14 16  1  6  0  0  0
 14  5  1  0  0  0  0
 15 19  1  1  0  0  0
 15 18  1  0  0  0  0
 15 13  1  0  0  0  0
 17 14  1  0  0  0  0
 18 17  2  0  0  0  0
 19 20  1  0  0  0  0
 21 20  1  0  0  0  0
 22 21  1  0  0  0  0
 23 22  1  0  0  0  0
 24 23  1  0  0  0  0
 25 26  1  6  0  0  0
 25 24  1  0  0  0  0
 27 25  1  0  0  0  0
 27 28  1  1  0  0  0
 29 30  1  0  0  0  0
 30 27  1  0  0  0  0
 31 32  1  0  0  0  0
 33 34  1  6  0  0  0
 33 32  1  0  0  0  0
 35 33  1  0  0  0  0
 36 35  1  0  0  0  0
 37 36  1  0  0  0  0
 38 37  1  0  0  0  0
 39 38  1  0  0  0  0
 41 40  1  0  0  0  0
 41 39  1  0  0  0  0
 42 41  2  0  0  0  0
M  END
>  <MODEL>
5

>  <REMARK>
 VINA RESULT:      -4.6      2.541      5.480
  Name = 
  19 active torsions:
  status: ('A' for Active; 'I' for Inactive)
    1  A    between atoms: C_2  and  N_13
    2  A    between atoms: C_3  and  C_16
    3  A    between atoms: C_3  and  C_22
    4  A    between atoms: C_4  and  O_34
    5  A    between atoms: C_6  and  C_25
    6  A    between atoms: C_6  and  C_31
    7  A    between atoms: C_8  and  C_24
    8  A    between atoms: C_8  and  O_38
    9  A    between atoms: C_15  and  C_25
   10  A    between atoms: C_15  and  C_33
   11  A    between atoms: C_16  and  C_40
   12  A    between atoms: C_17  and  C_21
   13  A    between atoms: C_17  and  O_34
   14  A    between atoms: C_19  and  C_24
   15  A    between atoms: C_21  and  N_29
   16  A    between atoms: C_22  and  C_23
   17  A    between atoms: C_23  and  O_38
   18  A    between atoms: N_29  and  C_33
   19  A    between atoms: C_36  and  C_40
                            x       y       z     vdW  Elec       q    Type
                         _______ _______ _______ _____ _____    ______ ____

>  <TORSDO>
F 19

$$$$
=
 OpenBabel11042421503D

 42 44  0  0  1  0  0  0  0  0999 V2000
  159.2910  212.5930  151.4820 C   0  0  0  0  0  0  0  0  0  0  0  0
  160.2530  211.1030  153.1970 C   0  0  0  0  0  0  0  0  0  0  0  0
  158.1410  212.4750  153.3580 N   0  0  0  0  0  0  0  0  0  0  0  0
  160.4690  213.1140  149.3340 C   0  0  0  0  0  1  0  0  0  0  0  0
  160.2960  210.8080  154.4650 N   0  0  0  0  0  0  0  0  0  0  0  0
  159.2240  212.0220  152.7050 C   0  0  1  0  0  3  0  0  0  0  0  0
  157.5740  213.3280  152.4670 C   0  0  0  0  0  3  0  0  0  0  0  0
  158.2620  213.4330  151.3000 N   0  0  0  0  0  0  0  0  0  0  0  0
  160.3870  212.3840  150.5890 N   0  0  0  0  0  0  0  0  0  0  0  0
  161.4400  211.4890  151.0040 C   0  0  0  0  0  0  0  0  0  0  0  0
  161.2370  210.5460  152.1810 C   0  0  2  0  0  3  0  0  0  0  0  0
  162.5270  211.4500  150.3690 O   0  0  0  0  0  0  0  0  0  0  0  0
  161.5020  208.7000  154.2940 C   0  0  0  0  0  2  0  0  0  0  0  0
  161.2630  209.9400  155.1420 C   0  0  1  0  0  0  0  0  0  0  0  0
  161.3250  207.5050  155.2250 C   0  0  1  0  0  3  0  0  0  0  0  0
  162.5870  210.6500  155.3600 C   0  0  0  0  0  1  0  0  0  0  0  0
  160.7250  209.4080  156.4290 C   0  0  0  0  0  3  0  0  0  0  0  0
  160.7590  208.0860  156.4730 C   0  0  0  0  0  3  0  0  0  0  0  0
  160.4150  206.6050  154.6690 O   0  0  0  0  0  0  0  0  0  0  0  0
  160.8040  206.4810  153.3360 C   0  0  0  0  0  2  0  0  0  0  0  0
  161.6270  205.2200  153.1610 C   0  0  0  0  0  2  0  0  0  0  0  0
  160.8010  204.1870  152.5620 N   0  0  0  0  0  2  0  0  0  0  0  0
  161.6600  203.3660  151.7210 C   0  0  0  0  0  2  0  0  0  0  0  0
  160.8380  202.3890  150.8780 C   0  0  0  0  0  2  0  0  0  0  0  0
  161.1480  202.4620  149.3800 C   0  0  2  0  0  3  0  0  0  0  0  0
  161.3020  203.7910  148.9780 O   0  0  0  0  0  1  0  0  0  0  0  0
  160.0890  201.7580  148.5340 C   0  0  2  0  0  3  0  0  0  0  0  0
  159.0530  201.3040  149.3520 O   0  0  0  0  0  1  0  0  0  0  0  0
  162.0640  200.5010  148.0630 O   0  0  0  0  0  1  0  0  0  0  0  0
  160.6980  200.5780  147.7940 C   0  0  0  0  0  2  0  0  0  0  0  0
  160.7200  209.2130  151.6650 C   0  0  0  0  0  2  0  0  0  0  0  0
  161.8200  208.4680  150.9280 C   0  0  0  0  0  2  0  0  0  0  0  0
  161.2910  207.9200  149.6120 C   0  0  2  0  0  3  0  0  0  0  0  0
  160.6870  206.5440  149.8260 C   0  0  0  0  0  1  0  0  0  0  0  0
  162.3730  207.8850  148.5320 C   0  0  0  0  0  2  0  0  0  0  0  0
  162.2350  206.6800  147.6090 C   0  0  0  0  0  2  0  0  0  0  0  0
  161.5470  207.0470  146.4520 O   0  0  0  0  0  0  0  0  0  0  0  0
  160.6260  206.0190  146.2520 C   0  0  0  0  0  2  0  0  0  0  0  0
  160.7740  205.4390  144.8550 C   0  0  0  0  0  2  0  0  0  0  0  0
  161.5890  203.2260  145.6550 O   0  0  0  0  0  1  0  0  0  0  0  0
  160.6880  203.9510  144.8900 C   0  0  0  0  0  0  0  0  0  0  0  0
  159.7910  203.3520  144.2430 O   0  0  0  0  0  0  0  0  0  0  0  0
  2  5  2  0  0  0  0
  4  9  1  0  0  0  0
  5 14  1  0  0  0  0
  6  1  1  1  0  0  0
  6  2  1  0  0  0  0
  6  3  1  0  0  0  0
  7  3  2  0  0  0  0
  8  1  2  0  0  0  0
  8  7  1  0  0  0  0
  9 10  1  0  0  0  0
  9  1  1  0  0  0  0
 10 11  1  0  0  0  0
 11 31  1  6  0  0  0
 11  2  1  0  0  0  0
 12 10  2  0  0  0  0
 13 14  1  0  0  0  0
 13 15  1  0  0  0  0
 14 16  1  1  0  0  0
 14 17  1  0  0  0  0
 15 19  1  6  0  0  0
 15 18  1  0  0  0  0
 17 18  2  0  0  0  0
 20 19  1  0  0  0  0
 21 20  1  0  0  0  0
 22 21  1  0  0  0  0
 23 22  1  0  0  0  0
 24 23  1  0  0  0  0
 25 26  1  6  0  0  0
 25 24  1  0  0  0  0
 27 28  1  1  0  0  0
 27 25  1  0  0  0  0
 30 29  1  0  0  0  0
 30 27  1  0  0  0  0
 32 31  1  0  0  0  0
 33 34  1  1  0  0  0
 33 32  1  0  0  0  0
 35 33  1  0  0  0  0
 36 35  1  0  0  0  0
 37 36  1  0  0  0  0
 38 37  1  0  0  0  0
 39 41  1  0  0  0  0
 39 38  1  0  0  0  0
 41 40  1  0  0  0  0
 42 41  2  0  0  0  0
M  END
>  <MODEL>
6

>  <REMARK>
 VINA RESULT:      -4.4      1.582      2.199
  Name = 
  19 active torsions:
  status: ('A' for Active; 'I' for Inactive)
    1  A    between atoms: C_2  and  N_13
    2  A    between atoms: C_3  and  C_16
    3  A    between atoms: C_3  and  C_22
    4  A    between atoms: C_4  and  O_34
    5  A    between atoms: C_6  and  C_25
    6  A    between atoms: C_6  and  C_31
    7  A    between atoms: C_8  and  C_24
    8  A    between atoms: C_8  and  O_38
    9  A    between atoms: C_15  and  C_25
   10  A    between atoms: C_15  and  C_33
   11  A    between atoms: C_16  and  C_40
   12  A    between atoms: C_17  and  C_21
   13  A    between atoms: C_17  and  O_34
   14  A    between atoms: C_19  and  C_24
   15  A    between atoms: C_21  and  N_29
   16  A    between atoms: C_22  and  C_23
   17  A    between atoms: C_23  and  O_38
   18  A    between atoms: N_29  and  C_33
   19  A    between atoms: C_36  and  C_40
                            x       y       z     vdW  Elec       q    Type
                         _______ _______ _______ _____ _____    ______ ____

>  <TORSDO>
F 19

$$$$
=
 OpenBabel11042421503D

 42 44  0  0  1  0  0  0  0  0999 V2000
  161.2580  205.6720  149.7020 C   0  0  0  0  0  0  0  0  0  0  0  0
  161.6100  208.1120  149.7890 C   0  0  0  0  0  0  0  0  0  0  0  0
  160.8780  206.7300  147.8080 N   0  0  0  0  0  0  0  0  0  0  0  0
  161.8170  204.1600  151.6200 C   0  0  0  0  0  1  0  0  0  0  0  0
  161.8440  209.1910  149.0970 N   0  0  0  0  0  0  0  0  0  0  0  0
  161.2320  206.8790  149.0940 C   0  0  1  0  0  3  0  0  0  0  0  0
  160.6900  205.3910  147.6880 C   0  0  0  0  0  3  0  0  0  0  0  0
  160.9250  204.7040  148.8360 N   0  0  0  0  0  0  0  0  0  0  0  0
  161.6960  205.4930  151.0510 N   0  0  0  0  0  0  0  0  0  0  0  0
  162.0830  206.6640  151.8000 C   0  0  0  0  0  0  0  0  0  0  0  0
  161.7230  208.0560  151.3040 C   0  0  2  0  0  3  0  0  0  0  0  0
  162.6910  206.5430  152.8970 O   0  0  0  0  0  0  0  0  0  0  0  0
  161.0270  211.3630  149.8370 C   0  0  0  0  0  2  0  0  0  0  0  0
  162.2600  210.5000  149.6080 C   0  0  1  0  0  0  0  0  0  0  0  0
  161.3010  212.6910  149.1400 C   0  0  1  0  0  3  0  0  0  0  0  0
  163.0180  210.3680  150.9170 C   0  0  0  0  0  1  0  0  0  0  0  0
  163.0590  211.2600  148.6020 C   0  0  0  0  0  3  0  0  0  0  0  0
  162.5380  212.4490  148.3480 C   0  0  0  0  0  3  0  0  0  0  0  0
  160.2450  212.9990  148.2810 O   0  0  0  0  0  0  0  0  0  0  0  0
  160.7010  214.0800  147.5270 C   0  0  0  0  0  2  0  0  0  0  0  0
  160.0350  214.0690  146.1660 C   0  0  0  0  0  2  0  0  0  0  0  0
  160.1670  212.7480  145.5770 N   0  0  0  0  0  2  0  0  0  0  0  0
  159.3720  212.7250  144.3590 C   0  0  0  0  0  2  0  0  0  0  0  0
  160.0530  211.8950  143.2690 C   0  0  0  0  0  2  0  0  0  0  0  0
  160.3470  212.6860  141.9900 C   0  0  2  0  0  3  0  0  0  0  0  0
  159.7240  212.0870  140.8930 O   0  0  0  0  0  1  0  0  0  0  0  0
  161.8440  212.8510  141.7410 C   0  0  2  0  0  3  0  0  0  0  0  0
  162.5640  212.3210  142.8130 O   0  0  0  0  0  1  0  0  0  0  0  0
  163.3250  214.4530  140.7690 O   0  0  0  0  0  1  0  0  0  0  0  0
  162.1970  214.3210  141.5790 C   0  0  0  0  0  2  0  0  0  0  0  0
  160.3960  208.4740  151.9180 C   0  0  0  0  0  2  0  0  0  0  0  0
  160.5730  209.7250  152.7610 C   0  0  0  0  0  2  0  0  0  0  0  0
  161.2290  209.3750  154.0870 C   0  0  2  0  0  3  0  0  0  0  0  0
  160.4030  208.3310  154.8170 C   0  0  0  0  0  1  0  0  0  0  0  0
  161.4490  210.6120  154.9590 C   0  0  0  0  0  2  0  0  0  0  0  0
  160.1550  211.1260  155.5780 C   0  0  0  0  0  2  0  0  0  0  0  0
  159.9920  212.4790  155.2770 O   0  0  0  0  0  0  0  0  0  0  0  0
  158.6100  212.6590  155.2150 C   0  0  0  0  0  2  0  0  0  0  0  0
  158.0390  211.9590  153.9930 C   0  0  0  0  0  2  0  0  0  0  0  0
  156.7850  213.8100  152.8970 O   0  0  0  0  0  1  0  0  0  0  0  0
  157.8520  212.9240  152.8730 C   0  0  0  0  0  0  0  0  0  0  0  0
  158.6670  212.9510  151.9150 O   0  0  0  0  0  0  0  0  0  0  0  0
  1  9  1  0  0  0  0
  2 11  1  0  0  0  0
  5 14  1  0  0  0  0
  5  2  2  0  0  0  0
  6  3  1  6  0  0  0
  6  1  1  0  0  0  0
  6  2  1  0  0  0  0
  7  3  2  0  0  0  0
  7  8  1  0  0  0  0
  8  1  2  0  0  0  0
  9  4  1  0  0  0  0
  9 10  1  0  0  0  0
 10 12  2  0  0  0  0
 11 10  1  0  0  0  0
 11 31  1  1  0  0  0
 14 13  1  0  0  0  0
 14 16  1  1  0  0  0
 15 19  1  6  0  0  0
 15 13  1  0  0  0  0
 17 14  1  0  0  0  0
 18 17  2  0  0  0  0
 18 15  1  0  0  0  0
 20 19  1  0  0  0  0
 21 20  1  0  0  0  0
 22 21  1  0  0  0  0
 23 22  1  0  0  0  0
 24 23  1  0  0  0  0
 25 26  1  6  0  0  0
 25 24  1  0  0  0  0
 27 25  1  0  0  0  0
 27 28  1  1  0  0  0
 29 30  1  0  0  0  0
 30 27  1  0  0  0  0
 31 32  1  0  0  0  0
 32 33  1  0  0  0  0
 33 34  1  1  0  0  0
 33 35  1  0  0  0  0
 35 36  1  0  0  0  0
 37 36  1  0  0  0  0
 38 37  1  0  0  0  0
 39 38  1  0  0  0  0
 41 40  1  0  0  0  0
 41 39  1  0  0  0  0
 42 41  2  0  0  0  0
M  END
>  <MODEL>
7

>  <REMARK>
 VINA RESULT:      -4.3      4.395      9.512
  Name = 
  19 active torsions:
  status: ('A' for Active; 'I' for Inactive)
    1  A    between atoms: C_2  and  N_13
    2  A    between atoms: C_3  and  C_16
    3  A    between atoms: C_3  and  C_22
    4  A    between atoms: C_4  and  O_34
    5  A    between atoms: C_6  and  C_25
    6  A    between atoms: C_6  and  C_31
    7  A    between atoms: C_8  and  C_24
    8  A    between atoms: C_8  and  O_38
    9  A    between atoms: C_15  and  C_25
   10  A    between atoms: C_15  and  C_33
   11  A    between atoms: C_16  and  C_40
   12  A    between atoms: C_17  and  C_21
   13  A    between atoms: C_17  and  O_34
   14  A    between atoms: C_19  and  C_24
   15  A    between atoms: C_21  and  N_29
   16  A    between atoms: C_22  and  C_23
   17  A    between atoms: C_23  and  O_38
   18  A    between atoms: N_29  and  C_33
   19  A    between atoms: C_36  and  C_40
                            x       y       z     vdW  Elec       q    Type
                         _______ _______ _______ _____ _____    ______ ____

>  <TORSDO>
F 19

$$$$
=
 OpenBabel11042421503D

 42 44  0  0  1  0  0  0  0  0999 V2000
  161.2480  205.7420  149.8370 C   0  0  0  0  0  0  0  0  0  0  0  0
  161.6620  208.1730  149.7720 C   0  0  0  0  0  0  0  0  0  0  0  0
  160.9720  206.6760  147.8610 N   0  0  0  0  0  0  0  0  0  0  0  0
  161.6900  204.3530  151.8740 C   0  0  0  0  0  1  0  0  0  0  0  0
  161.9510  209.1960  149.0190 N   0  0  0  0  0  0  0  0  0  0  0  0
  161.2790  206.9040  149.1480 C   0  0  1  0  0  3  0  0  0  0  0  0
  160.7530  205.3370  147.8250 C   0  0  0  0  0  3  0  0  0  0  0  0
  160.9240  204.7250  149.0260 N   0  0  0  0  0  0  0  0  0  0  0  0
  161.6280  205.6460  151.2120 N   0  0  0  0  0  0  0  0  0  0  0  0
  162.0160  206.8560  151.8950 C   0  0  0  0  0  0  0  0  0  0  0  0
  161.7130  208.2190  151.2910 C   0  0  2  0  0  3  0  0  0  0  0  0
  162.5760  206.7970  153.0220 O   0  0  0  0  0  0  0  0  0  0  0  0
  161.1720  211.4480  149.5200 C   0  0  0  0  0  2  0  0  0  0  0  0
  162.3810  210.5270  149.4560 C   0  0  1  0  0  0  0  0  0  0  0  0
  161.5510  212.7040  148.7440 C   0  0  1  0  0  3  0  0  0  0  0  0
  163.0330  210.4750  150.8270 C   0  0  0  0  0  1  0  0  0  0  0  0
  163.2840  211.1730  148.4590 C   0  0  0  0  0  3  0  0  0  0  0  0
  162.8330  212.3560  148.0730 C   0  0  0  0  0  3  0  0  0  0  0  0
  160.5760  212.9790  147.7840 O   0  0  0  0  0  0  0  0  0  0  0  0
  161.0350  214.1180  147.1240 C   0  0  0  0  0  2  0  0  0  0  0  0
  160.3690  214.2240  145.7670 C   0  0  0  0  0  2  0  0  0  0  0  0
  160.9730  213.2650  144.8590 N   0  0  0  0  0  2  0  0  0  0  0  0
  160.1340  213.1890  143.6730 C   0  0  0  0  0  2  0  0  0  0  0  0
  160.4080  211.9080  142.8820 C   0  0  0  0  0  2  0  0  0  0  0  0
  161.2440  212.1350  141.6190 C   0  0  2  0  0  3  0  0  0  0  0  0
  161.0710  213.4390  141.1480 O   0  0  0  0  0  1  0  0  0  0  0  0
  160.9310  211.1170  140.5260 C   0  0  2  0  0  3  0  0  0  0  0  0
  161.9100  210.1220  140.5100 O   0  0  0  0  0  1  0  0  0  0  0  0
  161.5280  211.0030  138.2160 O   0  0  0  0  0  1  0  0  0  0  0  0
  160.8830  211.7950  139.1650 C   0  0  0  0  0  2  0  0  0  0  0  0
  160.3740  208.7090  151.8200 C   0  0  0  0  0  2  0  0  0  0  0  0
  160.5400  209.3120  153.2040 C   0  0  0  0  0  2  0  0  0  0  0  0
  160.3260  210.8160  153.1510 C   0  0  2  0  0  3  0  0  0  0  0  0
  160.7160  211.4440  154.4770 C   0  0  0  0  0  1  0  0  0  0  0  0
  158.8890  211.1750  152.7720 C   0  0  0  0  0  2  0  0  0  0  0  0
  158.7840  212.5500  152.1230 C   0  0  0  0  0  2  0  0  0  0  0  0
  158.0420  213.4040  152.9410 O   0  0  0  0  0  0  0  0  0  0  0  0
  156.9730  213.8100  152.1420 C   0  0  0  0  0  2  0  0  0  0  0  0
  157.4600  214.1650  150.7470 C   0  0  0  0  0  2  0  0  0  0  0  0
  156.7750  212.8200  148.7660 O   0  0  0  0  0  0  0  0  0  0  0  0
  156.4520  213.7720  149.7210 C   0  0  0  0  0  0  0  0  0  0  0  0
  155.3040  214.2860  149.7300 O   0  0  0  0  0  1  0  0  0  0  0  0
  1  9  1  0  0  0  0
  2 11  1  0  0  0  0
  5 14  1  0  0  0  0
  5  2  2  0  0  0  0
  6  3  1  6  0  0  0
  6  2  1  0  0  0  0
  6  1  1  0  0  0  0
  7  3  2  0  0  0  0
  7  8  1  0  0  0  0
  8  1  2  0  0  0  0
  9  4  1  0  0  0  0
  9 10  1  0  0  0  0
 10 12  2  0  0  0  0
 11 31  1  1  0  0  0
 11 10  1  0  0  0  0
 14 13  1  0  0  0  0
 14 16  1  1  0  0  0
 15 19  1  6  0  0  0
 15 13  1  0  0  0  0
 17 14  1  0  0  0  0
 18 17  2  0  0  0  0
 18 15  1  0  0  0  0
 20 19  1  0  0  0  0
 21 20  1  0  0  0  0
 22 21  1  0  0  0  0
 23 22  1  0  0  0  0
 24 23  1  0  0  0  0
 25 26  1  6  0  0  0
 25 24  1  0  0  0  0
 27 28  1  6  0  0  0
 27 25  1  0  0  0  0
 29 30  1  0  0  0  0
 30 27  1  0  0  0  0
 31 32  1  0  0  0  0
 33 32  1  0  0  0  0
 33 34  1  1  0  0  0
 35 33  1  0  0  0  0
 36 35  1  0  0  0  0
 36 37  1  0  0  0  0
 38 37  1  0  0  0  0
 39 38  1  0  0  0  0
 40 41  2  0  0  0  0
 41 42  1  0  0  0  0
 41 39  1  0  0  0  0
M  END
>  <MODEL>
8

>  <REMARK>
 VINA RESULT:      -4.2      4.484      9.359
  Name = 
  19 active torsions:
  status: ('A' for Active; 'I' for Inactive)
    1  A    between atoms: C_2  and  N_13
    2  A    between atoms: C_3  and  C_16
    3  A    between atoms: C_3  and  C_22
    4  A    between atoms: C_4  and  O_34
    5  A    between atoms: C_6  and  C_25
    6  A    between atoms: C_6  and  C_31
    7  A    between atoms: C_8  and  C_24
    8  A    between atoms: C_8  and  O_38
    9  A    between atoms: C_15  and  C_25
   10  A    between atoms: C_15  and  C_33
   11  A    between atoms: C_16  and  C_40
   12  A    between atoms: C_17  and  C_21
   13  A    between atoms: C_17  and  O_34
   14  A    between atoms: C_19  and  C_24
   15  A    between atoms: C_21  and  N_29
   16  A    between atoms: C_22  and  C_23
   17  A    between atoms: C_23  and  O_38
   18  A    between atoms: N_29  and  C_33
   19  A    between atoms: C_36  and  C_40
                            x       y       z     vdW  Elec       q    Type
                         _______ _______ _______ _____ _____    ______ ____

>  <TORSDO>
F 19

$$$$
=
 OpenBabel11042421503D

 42 44  0  0  1  0  0  0  0  0999 V2000
  160.9690  207.8530  155.0090 C   0  0  0  0  0  0  0  0  0  0  0  0
  161.3000  208.1280  152.5800 C   0  0  0  0  0  0  0  0  0  0  0  0
  160.5510  206.0540  153.8070 N   0  0  0  0  0  0  0  0  0  0  0  0
  161.5710  209.6360  156.6620 C   0  0  0  0  0  1  0  0  0  0  0  0
  161.5140  207.5220  151.4470 N   0  0  0  0  0  0  0  0  0  0  0  0
  160.9240  207.3430  153.7580 C   0  0  0  0  0  0  0  0  0  0  0  0
  160.3740  205.8310  155.1340 C   0  0  0  0  0  3  0  0  0  0  0  0
  160.6330  206.9170  155.9080 N   0  0  0  0  0  2  0  0  0  0  0  0
  161.4300  209.1770  155.2900 N   0  0  0  0  0  0  0  0  0  0  0  0
  161.8170  210.0110  154.1780 C   0  0  0  0  0  0  0  0  0  0  0  0
  161.4360  209.6320  152.7540 C   0  0  2  0  0  3  0  0  0  0  0  0
  162.4420  211.0860  154.3790 O   0  0  0  0  0  0  0  0  0  0  0  0
  160.8320  207.9120  149.1420 C   0  0  0  0  0  2  0  0  0  0  0  0
  161.9250  208.1290  150.1780 C   0  0  1  0  0  0  0  0  0  0  0  0
  161.5210  207.3350  147.9100 C   0  0  1  0  0  3  0  0  0  0  0  0
  162.1690  209.6200  150.3320 C   0  0  0  0  0  1  0  0  0  0  0  0
  163.1210  207.4490  149.6000 C   0  0  0  0  0  3  0  0  0  0  0  0
  162.9010  207.0190  148.3680 C   0  0  0  0  0  3  0  0  0  0  0  0
  160.8760  206.1630  147.5140 O   0  0  0  0  0  0  0  0  0  0  0  0
  161.7120  205.6040  146.5480 C   0  0  0  0  0  2  0  0  0  0  0  0
  160.9530  204.5510  145.7660 C   0  0  0  0  0  2  0  0  0  0  0  0
  161.6300  203.2730  145.8970 N   0  0  0  0  0  2  0  0  0  0  0  0
  160.9210  202.4980  146.9030 C   0  0  0  0  0  2  0  0  0  0  0  0
  161.5430  202.6890  148.2880 C   0  0  0  0  0  2  0  0  0  0  0  0
  160.6830  202.1330  149.4280 C   0  0  2  0  0  3  0  0  0  0  0  0
  159.4620  201.6680  148.9340 O   0  0  0  0  0  1  0  0  0  0  0  0
  160.4650  203.1560  150.5410 C   0  0  2  0  0  3  0  0  0  0  0  0
  160.4390  204.4440  150.0040 O   0  0  0  0  0  1  0  0  0  0  0  0
  162.2190  204.2970  151.6900 O   0  0  0  0  0  1  0  0  0  0  0  0
  161.5780  203.0650  151.5720 C   0  0  0  0  0  2  0  0  0  0  0  0
  160.1150  210.2960  152.4010 C   0  0  0  0  0  2  0  0  0  0  0  0
  159.7420  211.3260  153.4530 C   0  0  0  0  0  2  0  0  0  0  0  0
  159.7110  212.7170  152.8390 C   0  0  2  0  0  3  0  0  0  0  0  0
  158.6130  213.5450  153.4810 C   0  0  0  0  0  1  0  0  0  0  0  0
  159.5470  212.6660  151.3200 C   0  0  0  0  0  2  0  0  0  0  0  0
  159.4590  214.0540  150.6970 C   0  0  0  0  0  2  0  0  0  0  0  0
  160.7090  214.4310  150.2030 O   0  0  0  0  0  0  0  0  0  0  0  0
  160.8220  213.7560  148.9870 C   0  0  0  0  0  2  0  0  0  0  0  0
  162.1340  214.1080  148.3060 C   0  0  0  0  0  2  0  0  0  0  0  0
  163.5750  212.1880  147.6450 O   0  0  0  0  0  1  0  0  0  0  0  0
  162.5280  213.0450  147.3390 C   0  0  0  0  0  0  0  0  0  0  0  0
  161.9040  212.9090  146.2560 O   0  0  0  0  0  0  0  0  0  0  0  0
  1  9  1  0  0  0  0
  1  8  1  0  0  0  0
  2 11  1  0  0  0  0
  2  6  1  0  0  0  0
  3  7  2  0  0  0  0
  5  2  2  0  0  0  0
  6  3  1  0  0  0  0
  6  1  2  0  0  0  0
  7  8  1  0  0  0  0
  9  4  1  0  0  0  0
 10 12  2  0  0  0  0
 10  9  1  0  0  0  0
 11 31  1  1  0  0  0
 11 10  1  0  0  0  0
 13 14  1  0  0  0  0
 14 16  1  1  0  0  0
 14  5  1  0  0  0  0
 15 19  1  1  0  0  0
 15 18  1  0  0  0  0
 15 13  1  0  0  0  0
 17 14  1  0  0  0  0
 18 17  2  0  0  0  0
 20 19  1  0  0  0  0
 21 22  1  0  0  0  0
 21 20  1  0  0  0  0
 22 23  1  0  0  0  0
 23 24  1  0  0  0  0
 24 25  1  0  0  0  0
 25 26  1  6  0  0  0
 25 27  1  0  0  0  0
 27 28  1  6  0  0  0
 27 30  1  0  0  0  0
 30 29  1  0  0  0  0
 31 32  1  0  0  0  0
 33 32  1  0  0  0  0
 33 34  1  1  0  0  0
 35 33  1  0  0  0  0
 36 35  1  0  0  0  0
 37 36  1  0  0  0  0
 38 37  1  0  0  0  0
 39 38  1  0  0  0  0
 41 40  1  0  0  0  0
 41 39  1  0  0  0  0
 42 41  2  0  0  0  0
M  END
>  <MODEL>
9

>  <REMARK>
 VINA RESULT:      -3.9      2.626      6.119
  Name = 
  19 active torsions:
  status: ('A' for Active; 'I' for Inactive)
    1  A    between atoms: C_2  and  N_13
    2  A    between atoms: C_3  and  C_16
    3  A    between atoms: C_3  and  C_22
    4  A    between atoms: C_4  and  O_34
    5  A    between atoms: C_6  and  C_25
    6  A    between atoms: C_6  and  C_31
    7  A    between atoms: C_8  and  C_24
    8  A    between atoms: C_8  and  O_38
    9  A    between atoms: C_15  and  C_25
   10  A    between atoms: C_15  and  C_33
   11  A    between atoms: C_16  and  C_40
   12  A    between atoms: C_17  and  C_21
   13  A    between atoms: C_17  and  O_34
   14  A    between atoms: C_19  and  C_24
   15  A    between atoms: C_21  and  N_29
   16  A    between atoms: C_22  and  C_23
   17  A    between atoms: C_23  and  O_38
   18  A    between atoms: N_29  and  C_33
   19  A    between atoms: C_36  and  C_40
                            x       y       z     vdW  Elec       q    Type
                         _______ _______ _______ _____ _____    ______ ____

>  <TORSDO>
F 19

$$$$
