=
 OpenBabel11042421033D

 28 30  0  0  1  0  0  0  0  0999 V2000
  161.2470  204.8180  151.9210 S   0  0  0  0  0  0  0  0  0  0  0  0
  161.1560  206.4940  151.7610 C   0  0  0  0  0  0  0  0  0  0  0  0
  160.9790  204.5520  150.2840 C   0  0  0  0  0  0  0  0  0  0  0  0
  160.9140  206.8600  150.4810 N   0  0  0  0  0  0  0  0  0  0  0  0
  160.8030  205.7840  149.6600 C   0  0  0  0  0  0  0  0  0  0  0  0
  161.0370  207.0440  154.2010 N   0  0  0  0  0  2  0  0  0  0  0  0
  161.6830  208.6330  152.6170 O   0  0  0  0  0  0  0  0  0  0  0  0
  161.3090  207.4540  152.8580 C   0  0  0  0  0  0  0  0  0  0  0  0
  161.2230  207.9240  155.3460 C   0  0  0  0  0  2  0  0  0  0  0  0
  159.9660  208.5750  155.6890 N   0  0  0  0  0  2  0  0  0  0  0  0
  159.7130  209.9630  155.4550 C   0  0  0  0  0  0  0  0  0  0  0  0
  158.1970  211.8680  155.5900 C   0  0  2  0  0  3  0  0  0  0  0  0
  160.7820  210.8560  154.8890 C   0  0  0  0  0  2  0  0  0  0  0  0
  156.7680  211.9590  155.3430 N   0  0  0  0  0  1  0  0  0  0  0  0
  158.9910  212.5100  154.4620 C   0  0  0  0  0  0  0  0  0  0  0  0
  158.5490  210.4540  155.7610 N   0  0  0  0  0  0  0  0  0  0  0  0
  160.1800  212.0010  154.1320 C   0  0  0  0  0  3  0  0  0  0  0  0
  158.8600  213.9100  152.4140 C   0  0  0  0  0  1  0  0  0  0  0  0
  158.5600  213.6520  153.7780 O   0  0  0  0  0  0  0  0  0  0  0  0
  160.5530  205.9380  148.1990 C   0  0  0  0  0  2  0  0  0  0  0  0
  161.7640  206.1940  147.5400 O   0  0  0  0  0  0  0  0  0  0  0  0
  160.5430  206.0330  145.3380 C   0  0  0  0  0  1  0  0  0  0  0  0
  162.8990  204.9410  145.7070 C   0  0  0  0  0  2  0  0  0  0  0  0
  161.6580  205.6000  146.2750 C   0  0  0  0  0  0  0  0  0  0  0  0
  161.8050  204.0980  146.3470 C   0  0  0  0  0  2  0  0  0  0  0  0
  160.8780  203.2110  149.6420 C   0  0  0  0  0  2  0  0  0  0  0  0
  160.9010  202.2190  150.6210 O   0  0  0  0  0  0  0  0  0  0  0  0
  161.0320  201.0630  149.9290 N   0  0  0  0  0  1  0  0  0  0  0  0
  2  1  1  0  0  0  0
  2  8  1  0  0  0  0
  3  1  1  0  0  0  0
  4  2  2  0  0  0  0
  5  3  2  0  0  0  0
  5  4  1  0  0  0  0
  6  9  1  0  0  0  0
  7  8  2  0  0  0  0
  8  6  1  0  0  0  0
  9 10  1  0  0  0  0
 11 10  1  0  0  0  0
 11 16  2  0  0  0  0
 12 14  1  6  0  0  0
 12 16  1  0  0  0  0
 13 11  1  0  0  0  0
 15 12  1  0  0  0  0
 17 15  2  0  0  0  0
 17 13  1  0  0  0  0
 18 19  1  0  0  0  0
 19 15  1  0  0  0  0
 20  5  1  0  0  0  0
 21 20  1  0  0  0  0
 22 24  1  0  0  0  0
 23 24  1  0  0  0  0
 23 25  1  0  0  0  0
 24 25  1  0  0  0  0
 24 21  1  0  0  0  0
 26  3  1  0  0  0  0
 26 27  1  0  0  0  0
 28 27  1  0  0  0  0
M  END
>  <MODEL>
1

>  <REMARK>
 VINA RESULT:      -6.9      0.000      0.000
  Name = 
  9 active torsions:
  status: ('A' for Active; 'I' for Inactive)
    1  A    between atoms: N_2  and  C_22
    2  A    between atoms: O_4  and  C_13
    3  A    between atoms: O_4  and  C_15
    4  A    between atoms: O_9  and  C_17
    5  A    between atoms: C_10  and  C_25
    6  A    between atoms: N_12  and  C_22
    7  A    between atoms: C_13  and  C_24
    8  A    between atoms: C_14  and  C_17
    9  A    between atoms: C_19  and  O_28
                            x       y       z     vdW  Elec       q    Type
                         _______ _______ _______ _____ _____    ______ ____

>  <TORSDO>
F 9

$$$$
=
 OpenBabel11042421033D

 28 30  0  0  1  0  0  0  0  0999 V2000
  160.8390  203.9600  151.7230 S   0  0  0  0  0  0  0  0  0  0  0  0
  161.3650  205.4370  151.1050 C   0  0  0  0  0  0  0  0  0  0  0  0
  160.7790  203.2380  150.2070 C   0  0  0  0  0  0  0  0  0  0  0  0
  161.4880  205.3980  149.7580 N   0  0  0  0  0  0  0  0  0  0  0  0
  161.1500  204.1830  149.2550 C   0  0  0  0  0  0  0  0  0  0  0  0
  161.8570  207.8880  151.2570 N   0  0  0  0  0  2  0  0  0  0  0  0
  161.7160  206.5450  153.1620 O   0  0  0  0  0  0  0  0  0  0  0  0
  161.6530  206.6300  151.9060 C   0  0  0  0  0  0  0  0  0  0  0  0
  162.0890  209.1230  151.9910 C   0  0  0  0  0  2  0  0  0  0  0  0
  160.9340  210.0030  151.8710 N   0  0  0  0  0  2  0  0  0  0  0  0
  160.0890  210.3420  152.9740 C   0  0  0  0  0  0  0  0  0  0  0  0
  158.1560  211.5510  153.8380 C   0  0  2  0  0  3  0  0  0  0  0  0
  160.3180  209.7400  154.3320 C   0  0  0  0  0  2  0  0  0  0  0  0
  157.6720  212.8910  153.5510 N   0  0  0  0  0  1  0  0  0  0  0  0
  158.7970  211.4810  155.2160 C   0  0  0  0  0  0  0  0  0  0  0  0
  159.0990  211.1620  152.7840 N   0  0  0  0  0  0  0  0  0  0  0  0
  159.8250  210.6530  155.4140 C   0  0  0  0  0  3  0  0  0  0  0  0
  157.0740  211.9750  156.9350 C   0  0  0  0  0  1  0  0  0  0  0  0
  158.3290  212.2110  156.3140 O   0  0  0  0  0  0  0  0  0  0  0  0
  161.2240  203.8940  147.7940 C   0  0  0  0  0  2  0  0  0  0  0  0
  161.0610  205.0840  147.0720 O   0  0  0  0  0  0  0  0  0  0  0  0
  163.1570  204.8230  145.6930 C   0  0  0  0  0  1  0  0  0  0  0  0
  160.7870  204.2050  144.7540 C   0  0  0  0  0  2  0  0  0  0  0  0
  161.6440  204.8660  145.8150 C   0  0  0  0  0  0  0  0  0  0  0  0
  160.9980  205.7130  144.7440 C   0  0  0  0  0  2  0  0  0  0  0  0
  160.3290  201.8420  149.9430 C   0  0  0  0  0  2  0  0  0  0  0  0
  161.4360  200.9990  149.8620 O   0  0  0  0  0  0  0  0  0  0  0  0
  161.4210  200.5400  148.5880 N   0  0  0  0  0  1  0  0  0  0  0  0
  2  1  1  0  0  0  0
  2  8  1  0  0  0  0
  3  1  1  0  0  0  0
  4  2  2  0  0  0  0
  5  4  1  0  0  0  0
  5  3  2  0  0  0  0
  6  8  1  0  0  0  0
  6  9  1  0  0  0  0
  8  7  2  0  0  0  0
 10  9  1  0  0  0  0
 10 11  1  0  0  0  0
 11 13  1  0  0  0  0
 12 14  1  6  0  0  0
 12 15  1  0  0  0  0
 13 17  1  0  0  0  0
 15 17  2  0  0  0  0
 15 19  1  0  0  0  0
 16 11  2  0  0  0  0
 16 12  1  0  0  0  0
 19 18  1  0  0  0  0
 20  5  1  0  0  0  0
 21 20  1  0  0  0  0
 22 24  1  0  0  0  0
 23 24  1  0  0  0  0
 24 21  1  0  0  0  0
 25 23  1  0  0  0  0
 25 24  1  0  0  0  0
 26  3  1  0  0  0  0
 27 26  1  0  0  0  0
 28 27  1  0  0  0  0
M  END
>  <MODEL>
2

>  <REMARK>
 VINA RESULT:      -6.8      1.865      2.384
  Name = 
  9 active torsions:
  status: ('A' for Active; 'I' for Inactive)
    1  A    between atoms: N_2  and  C_22
    2  A    between atoms: O_4  and  C_13
    3  A    between atoms: O_4  and  C_15
    4  A    between atoms: O_9  and  C_17
    5  A    between atoms: C_10  and  C_25
    6  A    between atoms: N_12  and  C_22
    7  A    between atoms: C_13  and  C_24
    8  A    between atoms: C_14  and  C_17
    9  A    between atoms: C_19  and  O_28
                            x       y       z     vdW  Elec       q    Type
                         _______ _______ _______ _____ _____    ______ ____

>  <TORSDO>
F 9

$$$$
=
 OpenBabel11042421033D

 28 30  0  0  1  0  0  0  0  0999 V2000
  161.6190  208.0300  148.7180 S   0  0  0  0  0  0  0  0  0  0  0  0
  161.5010  207.5720  150.3360 C   0  0  0  0  0  0  0  0  0  0  0  0
  161.1930  206.5050  148.1560 C   0  0  0  0  0  0  0  0  0  0  0  0
  161.1520  206.2710  150.4610 N   0  0  0  0  0  0  0  0  0  0  0  0
  160.9930  205.6720  149.2520 C   0  0  0  0  0  0  0  0  0  0  0  0
  161.1200  208.1780  152.7360 N   0  0  0  0  0  2  0  0  0  0  0  0
  162.5110  209.4490  151.3560 O   0  0  0  0  0  0  0  0  0  0  0  0
  161.7470  208.4540  151.4810 C   0  0  0  0  0  0  0  0  0  0  0  0
  161.3640  208.9750  153.9290 C   0  0  0  0  0  2  0  0  0  0  0  0
  160.1110  209.5280  154.4290 N   0  0  0  0  0  2  0  0  0  0  0  0
  159.6130  210.8110  154.0430 C   0  0  0  0  0  0  0  0  0  0  0  0
  157.8820  212.5210  154.2040 C   0  0  2  0  0  3  0  0  0  0  0  0
  160.4080  211.7040  153.1320 C   0  0  0  0  0  2  0  0  0  0  0  0
  156.4340  212.3990  154.2560 N   0  0  0  0  0  1  0  0  0  0  0  0
  158.3410  213.0350  152.8470 C   0  0  0  0  0  0  0  0  0  0  0  0
  158.4690  211.2120  154.5110 N   0  0  0  0  0  0  0  0  0  0  0  0
  159.5080  212.6160  152.3530 C   0  0  0  0  0  3  0  0  0  0  0  0
  157.3610  213.8460  150.7140 C   0  0  0  0  0  1  0  0  0  0  0  0
  157.6200  213.9770  152.1040 O   0  0  0  0  0  0  0  0  0  0  0  0
  160.5910  204.2410  149.1370 C   0  0  0  0  0  2  0  0  0  0  0  0
  161.6480  203.4990  148.5910 O   0  0  0  0  0  0  0  0  0  0  0  0
  160.8070  201.9580  146.7800 C   0  0  0  0  0  1  0  0  0  0  0  0
  161.3240  201.1040  149.2060 C   0  0  0  0  0  2  0  0  0  0  0  0
  161.1140  202.2520  148.2390 C   0  0  0  0  0  0  0  0  0  0  0  0
  159.9920  201.8410  149.1630 C   0  0  0  0  0  2  0  0  0  0  0  0
  161.1210  206.1140  146.7200 C   0  0  0  0  0  2  0  0  0  0  0  0
  162.4030  205.8460  146.2420 O   0  0  0  0  0  0  0  0  0  0  0  0
  162.2300  204.8420  145.3510 N   0  0  0  0  0  1  0  0  0  0  0  0
  1  2  1  0  0  0  0
  2  4  2  0  0  0  0
  2  8  1  0  0  0  0
  3  1  1  0  0  0  0
  3  5  2  0  0  0  0
  5  4  1  0  0  0  0
  6  9  1  0  0  0  0
  7  8  2  0  0  0  0
  8  6  1  0  0  0  0
  9 10  1  0  0  0  0
 11 10  1  0  0  0  0
 11 16  2  0  0  0  0
 12 14  1  6  0  0  0
 12 16  1  0  0  0  0
 13 11  1  0  0  0  0
 15 12  1  0  0  0  0
 17 15  2  0  0  0  0
 17 13  1  0  0  0  0
 18 19  1  0  0  0  0
 19 15  1  0  0  0  0
 20  5  1  0  0  0  0
 21 20  1  0  0  0  0
 22 24  1  0  0  0  0
 24 21  1  0  0  0  0
 24 25  1  0  0  0  0
 24 23  1  0  0  0  0
 25 23  1  0  0  0  0
 26  3  1  0  0  0  0
 27 26  1  0  0  0  0
 28 27  1  0  0  0  0
M  END
>  <MODEL>
3

>  <REMARK>
 VINA RESULT:      -6.8      2.068      3.032
  Name = 
  9 active torsions:
  status: ('A' for Active; 'I' for Inactive)
    1  A    between atoms: N_2  and  C_22
    2  A    between atoms: O_4  and  C_13
    3  A    between atoms: O_4  and  C_15
    4  A    between atoms: O_9  and  C_17
    5  A    between atoms: C_10  and  C_25
    6  A    between atoms: N_12  and  C_22
    7  A    between atoms: C_13  and  C_24
    8  A    between atoms: C_14  and  C_17
    9  A    between atoms: C_19  and  O_28
                            x       y       z     vdW  Elec       q    Type
                         _______ _______ _______ _____ _____    ______ ____

>  <TORSDO>
F 9

$$$$
=
 OpenBabel11042421033D

 28 30  0  0  1  0  0  0  0  0999 V2000
  162.1350  207.4550  148.2960 S   0  0  0  0  0  0  0  0  0  0  0  0
  161.4980  206.9280  149.7660 C   0  0  0  0  0  0  0  0  0  0  0  0
  161.8100  205.9980  147.5240 C   0  0  0  0  0  0  0  0  0  0  0  0
  161.0490  205.6550  149.6870 N   0  0  0  0  0  0  0  0  0  0  0  0
  161.2330  205.1300  148.4470 C   0  0  0  0  0  0  0  0  0  0  0  0
  162.1050  208.9920  151.0470 N   0  0  0  0  0  2  0  0  0  0  0  0
  160.7880  207.3090  151.9880 O   0  0  0  0  0  0  0  0  0  0  0  0
  161.4340  207.7310  150.9910 C   0  0  0  0  0  0  0  0  0  0  0  0
  162.0370  209.8680  152.2080 C   0  0  0  0  0  2  0  0  0  0  0  0
  160.8760  210.7430  152.1100 N   0  0  0  0  0  2  0  0  0  0  0  0
  159.8910  210.8560  153.1400 C   0  0  0  0  0  0  0  0  0  0  0  0
  157.8270  211.8580  153.9640 C   0  0  2  0  0  3  0  0  0  0  0  0
  159.9720  210.0080  154.3790 C   0  0  0  0  0  2  0  0  0  0  0  0
  157.3360  213.2230  153.8760 N   0  0  0  0  0  1  0  0  0  0  0  0
  158.2960  211.5330  155.3740 C   0  0  0  0  0  0  0  0  0  0  0  0
  158.9040  211.6870  152.9840 N   0  0  0  0  0  0  0  0  0  0  0  0
  159.3200  210.6920  155.5420 C   0  0  0  0  0  3  0  0  0  0  0  0
  156.3110  211.7900  156.8440 C   0  0  0  0  0  1  0  0  0  0  0  0
  157.6720  212.0340  156.5220 O   0  0  0  0  0  0  0  0  0  0  0  0
  160.8000  203.7440  148.1140 C   0  0  0  0  0  2  0  0  0  0  0  0
  161.8260  202.8430  148.4260 O   0  0  0  0  0  0  0  0  0  0  0  0
  161.2990  200.5370  147.5480 C   0  0  0  0  0  1  0  0  0  0  0  0
  160.9300  201.1880  150.0620 C   0  0  0  0  0  2  0  0  0  0  0  0
  161.2130  201.5990  148.6310 C   0  0  0  0  0  0  0  0  0  0  0  0
  159.8160  201.7490  149.1890 C   0  0  0  0  0  2  0  0  0  0  0  0
  162.1590  205.6840  146.1100 C   0  0  0  0  0  2  0  0  0  0  0  0
  161.0430  205.8770  145.2970 O   0  0  0  0  0  0  0  0  0  0  0  0
  161.3950  205.3420  144.1050 N   0  0  0  0  0  1  0  0  0  0  0  0
  1  2  1  0  0  0  0
  2  8  1  0  0  0  0
  3  1  1  0  0  0  0
  3  5  2  0  0  0  0
  4  2  2  0  0  0  0
  5  4  1  0  0  0  0
  6  9  1  0  0  0  0
  8  6  1  0  0  0  0
  8  7  2  0  0  0  0
 10  9  1  0  0  0  0
 10 11  1  0  0  0  0
 11 13  1  0  0  0  0
 12 14  1  1  0  0  0
 12 15  1  0  0  0  0
 13 17  1  0  0  0  0
 15 17  2  0  0  0  0
 15 19  1  0  0  0  0
 16 11  2  0  0  0  0
 16 12  1  0  0  0  0
 19 18  1  0  0  0  0
 20 21  1  0  0  0  0
 20  5  1  0  0  0  0
 21 24  1  0  0  0  0
 22 24  1  0  0  0  0
 24 25  1  0  0  0  0
 24 23  1  0  0  0  0
 25 23  1  0  0  0  0
 26  3  1  0  0  0  0
 27 26  1  0  0  0  0
 28 27  1  0  0  0  0
M  END
>  <MODEL>
4

>  <REMARK>
 VINA RESULT:      -6.7      2.540      3.823
  Name = 
  9 active torsions:
  status: ('A' for Active; 'I' for Inactive)
    1  A    between atoms: N_2  and  C_22
    2  A    between atoms: O_4  and  C_13
    3  A    between atoms: O_4  and  C_15
    4  A    between atoms: O_9  and  C_17
    5  A    between atoms: C_10  and  C_25
    6  A    between atoms: N_12  and  C_22
    7  A    between atoms: C_13  and  C_24
    8  A    between atoms: C_14  and  C_17
    9  A    between atoms: C_19  and  O_28
                            x       y       z     vdW  Elec       q    Type
                         _______ _______ _______ _____ _____    ______ ____

>  <TORSDO>
F 9

$$$$
=
 OpenBabel11042421033D

 28 30  0  0  1  0  0  0  0  0999 V2000
  162.1070  209.6970  151.1060 S   0  0  0  0  0  0  0  0  0  0  0  0
  162.0200  210.2120  149.5030 C   0  0  0  0  0  0  0  0  0  0  0  0
  162.1330  208.0710  150.6830 C   0  0  0  0  0  0  0  0  0  0  0  0
  161.9990  209.1670  148.6450 N   0  0  0  0  0  0  0  0  0  0  0  0
  162.0480  207.9760  149.2970 C   0  0  0  0  0  0  0  0  0  0  0  0
  162.7630  212.0430  147.9660 N   0  0  0  0  0  2  0  0  0  0  0  0
  161.2170  212.4280  149.6730 O   0  0  0  0  0  0  0  0  0  0  0  0
  161.9660  211.6120  149.0720 C   0  0  0  0  0  0  0  0  0  0  0  0
  162.7160  213.4020  147.4450 C   0  0  0  0  0  2  0  0  0  0  0  0
  161.5290  213.5830  146.6200 N   0  0  0  0  0  2  0  0  0  0  0  0
  161.5560  213.5400  145.1900 C   0  0  0  0  0  0  0  0  0  0  0  0
  160.3640  213.6780  143.0680 C   0  0  2  0  0  3  0  0  0  0  0  0
  162.8520  213.3650  144.4490 C   0  0  0  0  0  2  0  0  0  0  0  0
  159.0630  213.1610  142.6780 N   0  0  0  0  0  1  0  0  0  0  0  0
  161.4880  212.8630  142.4460 C   0  0  0  0  0  0  0  0  0  0  0  0
  160.4440  213.6780  144.5330 N   0  0  0  0  0  0  0  0  0  0  0  0
  162.6280  212.7040  143.1230 C   0  0  0  0  0  3  0  0  0  0  0  0
  161.2630  210.9160  140.9200 C   0  0  0  0  0  1  0  0  0  0  0  0
  161.4100  212.3070  141.1640 O   0  0  0  0  0  0  0  0  0  0  0  0
  162.0550  206.6820  148.5580 C   0  0  0  0  0  2  0  0  0  0  0  0
  161.1760  206.7570  147.4690 O   0  0  0  0  0  0  0  0  0  0  0  0
  161.5450  204.2610  147.4810 C   0  0  0  0  0  1  0  0  0  0  0  0
  160.8490  205.5560  145.3080 C   0  0  0  0  0  2  0  0  0  0  0  0
  161.3480  205.5730  146.7390 C   0  0  0  0  0  0  0  0  0  0  0  0
  162.3300  205.7510  145.6050 C   0  0  0  0  0  2  0  0  0  0  0  0
  162.1650  206.9370  151.6480 C   0  0  0  0  0  2  0  0  0  0  0  0
  161.0960  207.0460  152.5360 O   0  0  0  0  0  0  0  0  0  0  0  0
  161.3810  206.1620  153.5210 N   0  0  0  0  0  1  0  0  0  0  0  0
  2  1  1  0  0  0  0
  3  1  1  0  0  0  0
  3 26  1  0  0  0  0
  4  5  1  0  0  0  0
  4  2  2  0  0  0  0
  5  3  2  0  0  0  0
  6  8  1  0  0  0  0
  8  2  1  0  0  0  0
  8  7  2  0  0  0  0
  9  6  1  0  0  0  0
 10  9  1  0  0  0  0
 11 10  1  0  0  0  0
 12 14  1  1  0  0  0
 12 16  1  0  0  0  0
 13 11  1  0  0  0  0
 15 12  1  0  0  0  0
 15 17  2  0  0  0  0
 16 11  2  0  0  0  0
 17 13  1  0  0  0  0
 18 19  1  0  0  0  0
 19 15  1  0  0  0  0
 20  5  1  0  0  0  0
 21 20  1  0  0  0  0
 23 25  1  0  0  0  0
 23 24  1  0  0  0  0
 24 21  1  0  0  0  0
 24 22  1  0  0  0  0
 25 24  1  0  0  0  0
 26 27  1  0  0  0  0
 27 28  1  0  0  0  0
M  END
>  <MODEL>
5

>  <REMARK>
 VINA RESULT:      -6.7      5.550      8.053
  Name = 
  9 active torsions:
  status: ('A' for Active; 'I' for Inactive)
    1  A    between atoms: N_2  and  C_22
    2  A    between atoms: O_4  and  C_13
    3  A    between atoms: O_4  and  C_15
    4  A    between atoms: O_9  and  C_17
    5  A    between atoms: C_10  and  C_25
    6  A    between atoms: N_12  and  C_22
    7  A    between atoms: C_13  and  C_24
    8  A    between atoms: C_14  and  C_17
    9  A    between atoms: C_19  and  O_28
                            x       y       z     vdW  Elec       q    Type
                         _______ _______ _______ _____ _____    ______ ____

>  <TORSDO>
F 9

$$$$
=
 OpenBabel11042421033D

 28 30  0  0  1  0  0  0  0  0999 V2000
  161.9560  206.8580  147.1370 S   0  0  0  0  0  0  0  0  0  0  0  0
  161.7200  207.2220  148.7660 C   0  0  0  0  0  0  0  0  0  0  0  0
  161.5690  205.2360  147.3460 C   0  0  0  0  0  0  0  0  0  0  0  0
  161.3600  206.1270  149.4750 N   0  0  0  0  0  0  0  0  0  0  0  0
  161.2880  205.0200  148.6920 C   0  0  0  0  0  0  0  0  0  0  0  0
  161.9680  208.6830  150.7850 N   0  0  0  0  0  2  0  0  0  0  0  0
  161.9550  209.5690  148.6250 O   0  0  0  0  0  0  0  0  0  0  0  0
  161.8850  208.5500  149.3640 C   0  0  0  0  0  0  0  0  0  0  0  0
  162.1900  209.9620  151.4440 C   0  0  0  0  0  2  0  0  0  0  0  0
  162.0610  209.8120  152.8880 N   0  0  0  0  0  2  0  0  0  0  0  0
  161.0300  210.4420  153.6520 C   0  0  0  0  0  0  0  0  0  0  0  0
  159.9720  210.8460  155.8110 C   0  0  2  0  0  3  0  0  0  0  0  0
  160.0420  211.3660  152.9960 C   0  0  0  0  0  2  0  0  0  0  0  0
  159.7150  209.9450  156.9220 N   0  0  0  0  0  1  0  0  0  0  0  0
  158.6890  211.1720  155.0600 C   0  0  0  0  0  0  0  0  0  0  0  0
  160.9700  210.2260  154.9320 N   0  0  0  0  0  0  0  0  0  0  0  0
  158.7420  211.3790  153.7420 C   0  0  0  0  0  3  0  0  0  0  0  0
  156.2520  211.6480  155.0040 C   0  0  0  0  0  1  0  0  0  0  0  0
  157.4490  211.3180  155.6920 O   0  0  0  0  0  0  0  0  0  0  0  0
  160.8930  203.6940  149.2480 C   0  0  0  0  0  2  0  0  0  0  0  0
  161.8040  202.7170  148.8250 O   0  0  0  0  0  0  0  0  0  0  0  0
  161.2070  200.5470  147.6840 C   0  0  0  0  0  1  0  0  0  0  0  0
  160.7480  200.9520  150.2350 C   0  0  0  0  0  2  0  0  0  0  0  0
  161.1200  201.4940  148.8700 C   0  0  0  0  0  0  0  0  0  0  0  0
  159.7080  201.6600  149.3780 C   0  0  0  0  0  2  0  0  0  0  0  0
  161.6010  204.2050  146.2700 C   0  0  0  0  0  2  0  0  0  0  0  0
  161.6380  204.8280  145.0240 O   0  0  0  0  0  0  0  0  0  0  0  0
  160.4550  204.5080  144.4490 N   0  0  0  0  0  1  0  0  0  0  0  0
  1  3  1  0  0  0  0
  1  2  1  0  0  0  0
  2  8  1  0  0  0  0
  2  4  2  0  0  0  0
  3  5  2  0  0  0  0
  5 20  1  0  0  0  0
  5  4  1  0  0  0  0
  6  9  1  0  0  0  0
  7  8  2  0  0  0  0
  8  6  1  0  0  0  0
  9 10  1  0  0  0  0
 10 11  1  0  0  0  0
 11 16  2  0  0  0  0
 12 14  1  1  0  0  0
 13 11  1  0  0  0  0
 13 17  1  0  0  0  0
 15 19  1  0  0  0  0
 15 12  1  0  0  0  0
 16 12  1  0  0  0  0
 17 15  2  0  0  0  0
 18 19  1  0  0  0  0
 21 24  1  0  0  0  0
 21 20  1  0  0  0  0
 22 24  1  0  0  0  0
 24 25  1  0  0  0  0
 24 23  1  0  0  0  0
 25 23  1  0  0  0  0
 26  3  1  0  0  0  0
 27 26  1  0  0  0  0
 28 27  1  0  0  0  0
M  END
>  <MODEL>
6

>  <REMARK>
 VINA RESULT:      -6.3      2.600      3.937
  Name = 
  9 active torsions:
  status: ('A' for Active; 'I' for Inactive)
    1  A    between atoms: N_2  and  C_22
    2  A    between atoms: O_4  and  C_13
    3  A    between atoms: O_4  and  C_15
    4  A    between atoms: O_9  and  C_17
    5  A    between atoms: C_10  and  C_25
    6  A    between atoms: N_12  and  C_22
    7  A    between atoms: C_13  and  C_24
    8  A    between atoms: C_14  and  C_17
    9  A    between atoms: C_19  and  O_28
                            x       y       z     vdW  Elec       q    Type
                         _______ _______ _______ _____ _____    ______ ____

>  <TORSDO>
F 9

$$$$
=
 OpenBabel11042421033D

 28 30  0  0  1  0  0  0  0  0999 V2000
  161.1960  206.3910  152.2140 S   0  0  0  0  0  0  0  0  0  0  0  0
  161.4310  207.8530  151.4070 C   0  0  0  0  0  0  0  0  0  0  0  0
  160.8570  205.5540  150.7970 C   0  0  0  0  0  0  0  0  0  0  0  0
  161.2460  207.7220  150.0740 N   0  0  0  0  0  0  0  0  0  0  0  0
  160.9140  206.4490  149.7320 C   0  0  0  0  0  0  0  0  0  0  0  0
  161.1610  209.4890  153.2840 N   0  0  0  0  0  2  0  0  0  0  0  0
  162.6390  209.8810  151.5190 O   0  0  0  0  0  0  0  0  0  0  0  0
  161.7850  209.1210  152.0510 C   0  0  0  0  0  0  0  0  0  0  0  0
  161.5060  210.7040  154.0080 C   0  0  0  0  0  2  0  0  0  0  0  0
  160.2960  211.4090  154.4100 N   0  0  0  0  0  2  0  0  0  0  0  0
  159.5770  212.2880  153.5410 C   0  0  0  0  0  0  0  0  0  0  0  0
  157.6920  213.7890  153.1740 C   0  0  2  0  0  3  0  0  0  0  0  0
  160.0820  212.5860  152.1570 C   0  0  0  0  0  2  0  0  0  0  0  0
  156.3030  213.6830  153.5880 N   0  0  0  0  0  1  0  0  0  0  0  0
  157.8420  213.5250  151.6830 C   0  0  0  0  0  0  0  0  0  0  0  0
  158.4870  212.8500  153.9720 N   0  0  0  0  0  0  0  0  0  0  0  0
  158.9520  212.9330  151.2360 C   0  0  0  0  0  3  0  0  0  0  0  0
  156.8140  213.3770  149.4260 C   0  0  0  0  0  1  0  0  0  0  0  0
  156.8890  213.9190  150.7370 O   0  0  0  0  0  0  0  0  0  0  0  0
  160.6770  206.0580  148.3140 C   0  0  0  0  0  2  0  0  0  0  0  0
  161.9050  205.9000  147.6580 O   0  0  0  0  0  0  0  0  0  0  0  0
  160.4600  206.2030  145.6120 C   0  0  0  0  0  1  0  0  0  0  0  0
  162.6990  204.8370  145.5470 C   0  0  0  0  0  2  0  0  0  0  0  0
  161.6050  205.5210  146.3420 C   0  0  0  0  0  0  0  0  0  0  0  0
  161.5830  204.0190  146.1830 C   0  0  0  0  0  2  0  0  0  0  0  0
  160.4860  204.1130  150.7240 C   0  0  0  0  0  2  0  0  0  0  0  0
  161.6390  203.3300  150.7480 O   0  0  0  0  0  0  0  0  0  0  0  0
  161.2070  202.1030  151.1240 N   0  0  0  0  0  1  0  0  0  0  0  0
  2  8  1  0  0  0  0
  2  1  1  0  0  0  0
  3  1  1  0  0  0  0
  4  2  2  0  0  0  0
  5  4  1  0  0  0  0
  5  3  2  0  0  0  0
  6  9  1  0  0  0  0
  7  8  2  0  0  0  0
  8  6  1  0  0  0  0
  9 10  1  0  0  0  0
 11 16  2  0  0  0  0
 11 10  1  0  0  0  0
 12 14  1  1  0  0  0
 12 16  1  0  0  0  0
 13 11  1  0  0  0  0
 15 12  1  0  0  0  0
 17 15  2  0  0  0  0
 17 13  1  0  0  0  0
 18 19  1  0  0  0  0
 19 15  1  0  0  0  0
 20  5  1  0  0  0  0
 21 20  1  0  0  0  0
 22 24  1  0  0  0  0
 23 25  1  0  0  0  0
 23 24  1  0  0  0  0
 24 21  1  0  0  0  0
 25 24  1  0  0  0  0
 26 27  1  0  0  0  0
 26  3  1  0  0  0  0
 27 28  1  0  0  0  0
M  END
>  <MODEL>
7

>  <REMARK>
 VINA RESULT:      -6.3      1.739      2.230
  Name = 
  9 active torsions:
  status: ('A' for Active; 'I' for Inactive)
    1  A    between atoms: N_2  and  C_22
    2  A    between atoms: O_4  and  C_13
    3  A    between atoms: O_4  and  C_15
    4  A    between atoms: O_9  and  C_17
    5  A    between atoms: C_10  and  C_25
    6  A    between atoms: N_12  and  C_22
    7  A    between atoms: C_13  and  C_24
    8  A    between atoms: C_14  and  C_17
    9  A    between atoms: C_19  and  O_28
                            x       y       z     vdW  Elec       q    Type
                         _______ _______ _______ _____ _____    ______ ____

>  <TORSDO>
F 9

$$$$
=
 OpenBabel11042421033D

 28 30  0  0  1  0  0  0  0  0999 V2000
  161.2070  208.4210  155.0100 S   0  0  0  0  0  0  0  0  0  0  0  0
  160.8720  208.2340  153.3690 C   0  0  0  0  0  0  0  0  0  0  0  0
  160.8370  210.0600  154.9960 C   0  0  0  0  0  0  0  0  0  0  0  0
  160.4920  209.4010  152.8010 N   0  0  0  0  0  0  0  0  0  0  0  0
  160.4840  210.4210  153.6990 C   0  0  0  0  0  0  0  0  0  0  0  0
  160.9690  206.9900  151.1980 N   0  0  0  0  0  2  0  0  0  0  0  0
  161.0830  205.8830  153.2500 O   0  0  0  0  0  0  0  0  0  0  0  0
  160.9790  206.9740  152.6270 C   0  0  0  0  0  0  0  0  0  0  0  0
  161.1300  205.7850  150.3960 C   0  0  0  0  0  2  0  0  0  0  0  0
  161.2400  206.1320  148.9850 N   0  0  0  0  0  2  0  0  0  0  0  0
  161.4240  205.1610  147.9520 C   0  0  0  0  0  0  0  0  0  0  0  0
  161.6930  204.6470  145.5830 C   0  0  2  0  0  3  0  0  0  0  0  0
  161.5800  203.7030  148.2840 C   0  0  0  0  0  2  0  0  0  0  0  0
  161.0370  205.2060  144.4130 N   0  0  0  0  0  1  0  0  0  0  0  0
  161.1790  203.2470  145.8850 C   0  0  0  0  0  0  0  0  0  0  0  0
  161.4780  205.5560  146.7150 N   0  0  0  0  0  0  0  0  0  0  0  0
  161.1050  202.8400  147.1540 C   0  0  0  0  0  3  0  0  0  0  0  0
  159.8090  201.3520  145.0480 C   0  0  0  0  0  1  0  0  0  0  0  0
  160.8230  202.3320  144.8870 O   0  0  0  0  0  0  0  0  0  0  0  0
  160.0810  211.8010  153.3080 C   0  0  0  0  0  2  0  0  0  0  0  0
  158.7450  211.7990  152.8850 O   0  0  0  0  0  0  0  0  0  0  0  0
  157.0130  211.3990  154.6750 C   0  0  0  0  0  1  0  0  0  0  0  0
  158.5160  213.5490  154.6470 C   0  0  0  0  0  2  0  0  0  0  0  0
  157.9910  212.3090  153.9510 C   0  0  0  0  0  0  0  0  0  0  0  0
  157.3950  213.6580  153.6210 C   0  0  0  0  0  2  0  0  0  0  0  0
  160.9480  210.9710  156.1700 C   0  0  0  0  0  2  0  0  0  0  0  0
  161.8960  210.4740  157.0620 O   0  0  0  0  0  0  0  0  0  0  0  0
  163.0740  210.9760  156.6200 N   0  0  0  0  0  1  0  0  0  0  0  0
  2  1  1  0  0  0  0
  3  1  1  0  0  0  0
  3 26  1  0  0  0  0
  4  2  2  0  0  0  0
  4  5  1  0  0  0  0
  5  3  2  0  0  0  0
  6  8  1  0  0  0  0
  8  7  2  0  0  0  0
  8  2  1  0  0  0  0
  9  6  1  0  0  0  0
 10  9  1  0  0  0  0
 11 13  1  0  0  0  0
 11 10  1  0  0  0  0
 12 14  1  6  0  0  0
 12 15  1  0  0  0  0
 12 16  1  0  0  0  0
 15 17  2  0  0  0  0
 16 11  2  0  0  0  0
 17 13  1  0  0  0  0
 19 18  1  0  0  0  0
 19 15  1  0  0  0  0
 20  5  1  0  0  0  0
 21 20  1  0  0  0  0
 21 24  1  0  0  0  0
 24 23  1  0  0  0  0
 24 22  1  0  0  0  0
 25 24  1  0  0  0  0
 25 23  1  0  0  0  0
 26 27  1  0  0  0  0
 28 27  1  0  0  0  0
M  END
>  <MODEL>
8

>  <REMARK>
 VINA RESULT:      -6.2      2.687      9.758
  Name = 
  9 active torsions:
  status: ('A' for Active; 'I' for Inactive)
    1  A    between atoms: N_2  and  C_22
    2  A    between atoms: O_4  and  C_13
    3  A    between atoms: O_4  and  C_15
    4  A    between atoms: O_9  and  C_17
    5  A    between atoms: C_10  and  C_25
    6  A    between atoms: N_12  and  C_22
    7  A    between atoms: C_13  and  C_24
    8  A    between atoms: C_14  and  C_17
    9  A    between atoms: C_19  and  O_28
                            x       y       z     vdW  Elec       q    Type
                         _______ _______ _______ _____ _____    ______ ____

>  <TORSDO>
F 9

$$$$
=
 OpenBabel11042421033D

 28 30  0  0  1  0  0  0  0  0999 V2000
  162.2680  206.5800  146.9490 S   0  0  0  0  0  0  0  0  0  0  0  0
  161.7290  206.8720  148.5200 C   0  0  0  0  0  0  0  0  0  0  0  0
  161.8450  204.9550  147.0050 C   0  0  0  0  0  0  0  0  0  0  0  0
  161.2380  205.7510  149.0950 N   0  0  0  0  0  0  0  0  0  0  0  0
  161.3140  204.6810  148.2620 C   0  0  0  0  0  0  0  0  0  0  0  0
  161.6640  208.2310  150.6220 N   0  0  0  0  0  2  0  0  0  0  0  0
  161.9290  209.2270  148.5270 O   0  0  0  0  0  0  0  0  0  0  0  0
  161.7800  208.1710  149.1980 C   0  0  0  0  0  0  0  0  0  0  0  0
  161.7650  209.4770  151.3680 C   0  0  0  0  0  2  0  0  0  0  0  0
  160.7110  209.5490  152.3710 N   0  0  0  0  0  2  0  0  0  0  0  0
  160.0430  210.7640  152.7200 C   0  0  0  0  0  0  0  0  0  0  0  0
  158.3620  211.9220  154.0530 C   0  0  2  0  0  3  0  0  0  0  0  0
  160.4500  212.0720  152.1000 C   0  0  0  0  0  2  0  0  0  0  0  0
  157.0180  211.5230  154.4360 N   0  0  0  0  0  1  0  0  0  0  0  0
  158.3300  212.9980  152.9780 C   0  0  0  0  0  0  0  0  0  0  0  0
  159.0900  210.7310  153.6030 N   0  0  0  0  0  0  0  0  0  0  0  0
  159.2970  213.0290  152.0590 C   0  0  0  0  0  3  0  0  0  0  0  0
  156.5570  214.2670  151.7870 C   0  0  0  0  0  1  0  0  0  0  0  0
  157.3560  214.0030  152.9310 O   0  0  0  0  0  0  0  0  0  0  0  0
  160.8170  203.3360  148.6710 C   0  0  0  0  0  2  0  0  0  0  0  0
  160.1220  203.4400  149.8830 O   0  0  0  0  0  0  0  0  0  0  0  0
  161.2160  201.3270  150.7220 C   0  0  0  0  0  1  0  0  0  0  0  0
  161.8360  203.6900  151.6780 C   0  0  0  0  0  2  0  0  0  0  0  0
  160.9180  202.8120  150.8510 C   0  0  0  0  0  0  0  0  0  0  0  0
  160.5120  203.2040  152.2520 C   0  0  0  0  0  2  0  0  0  0  0  0
  162.0780  203.9730  145.9080 C   0  0  0  0  0  2  0  0  0  0  0  0
  160.9300  203.8640  145.1250 O   0  0  0  0  0  0  0  0  0  0  0  0
  160.5530  202.5700  145.2540 N   0  0  0  0  0  1  0  0  0  0  0  0
  1  3  1  0  0  0  0
  1  2  1  0  0  0  0
  2  4  2  0  0  0  0
  2  8  1  0  0  0  0
  3  5  2  0  0  0  0
  5 20  1  0  0  0  0
  5  4  1  0  0  0  0
  6  9  1  0  0  0  0
  7  8  2  0  0  0  0
  8  6  1  0  0  0  0
  9 10  1  0  0  0  0
 10 11  1  0  0  0  0
 11 16  2  0  0  0  0
 12 14  1  6  0  0  0
 13 11  1  0  0  0  0
 15 12  1  0  0  0  0
 16 12  1  0  0  0  0
 17 13  1  0  0  0  0
 17 15  2  0  0  0  0
 18 19  1  0  0  0  0
 19 15  1  0  0  0  0
 20 21  1  0  0  0  0
 21 24  1  0  0  0  0
 22 24  1  0  0  0  0
 23 25  1  0  0  0  0
 24 23  1  0  0  0  0
 24 25  1  0  0  0  0
 26  3  1  0  0  0  0
 27 28  1  0  0  0  0
 27 26  1  0  0  0  0
M  END
>  <MODEL>
9

>  <REMARK>
 VINA RESULT:      -6.0      2.550      3.923
  Name = 
  9 active torsions:
  status: ('A' for Active; 'I' for Inactive)
    1  A    between atoms: N_2  and  C_22
    2  A    between atoms: O_4  and  C_13
    3  A    between atoms: O_4  and  C_15
    4  A    between atoms: O_9  and  C_17
    5  A    between atoms: C_10  and  C_25
    6  A    between atoms: N_12  and  C_22
    7  A    between atoms: C_13  and  C_24
    8  A    between atoms: C_14  and  C_17
    9  A    between atoms: C_19  and  O_28
                            x       y       z     vdW  Elec       q    Type
                         _______ _______ _______ _____ _____    ______ ____

>  <TORSDO>
F 9

$$$$
