=
 OpenBabel11052410033D

 68 74  0  0  1  0  0  0  0  0999 V2000
  160.6290  211.7620  147.1790 C   0  0  2  0  0  0  0  0  0  0  0  0
  159.3710  211.7170  146.5650 O   0  0  0  0  0  1  0  0  0  0  0  0
  161.4550  209.2960  150.0670 C   0  0  0  0  0  0  0  0  0  0  0  0
  161.6970  206.7510  149.8750 C   0  0  2  0  0  3  0  0  0  0  0  0
  161.7680  207.8700  152.0910 C   0  0  0  0  0  2  0  0  0  0  0  0
  162.1410  208.2430  147.9720 N   0  0  0  0  0  2  0  0  0  0  0  0
  161.1350  206.7410  151.2910 C   0  0  0  0  0  2  0  0  0  0  0  0
  161.5980  209.2060  151.4100 C   0  0  0  0  0  0  0  0  0  0  0  0
  161.7640  209.4350  147.1890 C   0  0  0  0  0  2  0  0  0  0  0  0
  161.3040  210.6320  149.3890 C   0  0  0  0  0  2  0  0  0  0  0  0
  160.8590  210.4400  147.9370 C   0  0  1  0  0  3  0  0  0  0  0  0
  161.3250  208.0650  149.1790 C   0  0  2  0  0  3  0  0  0  0  0  0
  161.6680  210.4360  152.2640 C   0  0  0  0  0  2  0  0  0  0  0  0
  162.0800  210.0830  153.6130 N   0  0  0  0  0  2  0  0  0  0  0  0
  161.2810  210.8320  154.4860 N   0  0  0  0  0  2  0  0  0  0  0  0
  161.3630  210.2060  155.7380 N   0  0  0  0  0  2  0  0  0  0  0  0
  161.7410  208.8220  155.5060 C   0  0  0  0  0  2  0  0  0  0  0  0
  160.0690  207.0070  155.5750 C   0  0  0  0  0  2  0  0  0  0  0  0
  160.9530  207.9020  156.4200 C   0  0  0  0  0  3  0  0  0  0  0  0
  159.4750  208.2040  156.2880 C   0  0  0  0  0  2  0  0  0  0  0  0
  161.1090  205.5870  149.0910 C   0  0  0  0  0  2  0  0  0  0  0  0
  161.6770  204.2680  149.5830 C   0  0  0  0  0  2  0  0  0  0  0  0
  160.6070  203.2860  149.6660 N   0  0  0  0  0  2  0  0  0  0  0  0
  160.9230  200.9850  149.9830 O   0  0  0  0  0  1  0  0  0  0  0  0
  161.0960  202.0430  149.0790 C   0  0  1  0  0  3  0  0  0  0  0  0
  161.5340  199.7920  146.6180 O   0  0  0  0  0  0  0  0  0  0  0  0
  160.3940  201.7940  147.7340 C   0  0  1  0  0  3  0  0  0  0  0  0
  161.0470  202.4200  146.7060 O   0  0  0  0  0  0  0  0  0  0  0  0
  161.1140  200.9380  146.9260 C   0  0  0  0  0  0  0  0  0  0  0  0
  160.6540  212.9310  148.1290 C   0  0  0  0  0  3  0  0  0  0  0  0
  159.5980  213.2200  148.8910 C   0  0  0  0  0  3  0  0  0  0  0  0
  159.6380  214.3410  149.8660 C   0  0  0  0  0  2  0  0  0  0  0  0
  158.3260  214.3620  150.6300 C   0  0  0  0  0  2  0  0  0  0  0  0
  159.7250  214.4500  152.6940 C   0  0  0  0  0  3  0  0  0  0  0  0
  157.7880  212.9960  154.1410 C   0  0  0  0  0  0  0  0  0  0  0  0
  158.9860  213.4320  154.7680 C   0  0  0  0  0  0  0  0  0  0  0  0
  159.2360  213.1990  156.1510 N   0  0  0  0  0  1  0  0  0  0  0  0
  157.5910  213.3170  152.7850 C   0  0  0  0  0  3  0  0  0  0  0  0
  158.5500  214.0330  152.0640 C   0  0  0  0  0  0  0  0  0  0  0  0
  159.9370  214.1510  154.0390 C   0  0  0  0  0  3  0  0  0  0  0  0
  156.4780  210.8830  154.4760 C   0  0  0  0  0  3  0  0  0  0  0  0
  156.7350  212.2140  154.8500 C   0  0  0  0  0  0  0  0  0  0  0  0
  154.7680  210.6990  156.1780 C   0  0  0  0  0  0  0  0  0  0  0  0
  155.5000  210.1310  155.1340 C   0  0  0  0  0  3  0  0  0  0  0  0
  155.0140  212.0190  156.5640 C   0  0  0  0  0  3  0  0  0  0  0  0
  155.9930  212.7680  155.9060 C   0  0  0  0  0  3  0  0  0  0  0  0
  153.7930  209.9540  156.8260 O   0  0  0  0  0  1  0  0  0  0  0  0
  161.7280  211.9640  146.1150 C   0  0  0  0  0  2  0  0  0  0  0  0
  161.3780  212.8700  144.9280 C   0  0  1  0  0  3  0  0  0  0  0  0
  160.5980  213.9650  145.3060 O   0  0  0  0  0  0  0  0  0  0  0  0
  159.9200  214.3340  144.1390 C   0  0  0  0  0  1  0  0  0  0  0  0
  162.6420  213.3360  144.2280 C   0  0  0  0  0  2  0  0  0  0  0  0
  162.3620  213.5330  142.7800 C   0  0  0  0  0  3  0  0  0  0  0  0
  163.3230  213.9560  141.9620 C   0  0  0  0  0  3  0  0  0  0  0  0
  163.0460  214.1600  140.5100 C   0  0  0  0  0  2  0  0  0  0  0  0
  162.0440  213.2060  140.0570 N   0  0  0  0  0  2  0  0  0  0  0  0
  162.4990  212.7550  137.7860 O   0  0  0  0  0  0  0  0  0  0  0  0
  162.6770  212.3030  139.1040 C   0  0  2  0  0  0  0  0  0  0  0  0
  161.8790  211.5290  138.1170 C   0  0  1  0  0  3  0  0  0  0  0  0
  164.0080  211.9530  139.3330 O   0  0  0  0  0  1  0  0  0  0  0  0
  160.3730  211.7480  138.2470 C   0  0  2  0  0  3  0  0  0  0  0  0
  159.5670  210.5470  137.7260 C   0  0  2  0  0  3  0  0  0  0  0  0
  158.1970  210.7750  137.8340 O   0  0  0  0  0  1  0  0  0  0  0  0
  159.9260  209.2520  138.4470 C   0  0  0  0  0  2  0  0  0  0  0  0
  160.8840  208.5320  137.7260 O   0  0  0  0  0  0  0  0  0  0  0  0
  161.5480  207.7710  138.6860 C   0  0  0  0  0  1  0  0  0  0  0  0
  158.1600  213.1700  137.2810 S   0  0  0  0  0  1  0  0  0  0  0  0
  159.9350  213.1110  137.6970 C   0  0  0  0  0  2  0  0  0  0  0  0
  1  2  1  6  0  0  0
  1 30  1  0  0  0  0
  3  8  2  0  0  0  0
  4 21  1  6  0  0  0
  4  7  1  0  0  0  0
  7  5  1  0  0  0  0
  8  5  1  0  0  0  0
  8 13  1  0  0  0  0
  9 11  1  0  0  0  0
  9  6  1  0  0  0  0
 10  3  1  0  0  0  0
 11  1  1  6  0  0  0
 11 10  1  0  0  0  0
 12  6  1  6  0  0  0
 12  4  1  0  0  0  0
 12  3  1  0  0  0  0
 13 14  1  0  0  0  0
 14 15  1  0  0  0  0
 15 16  1  0  0  0  0
 17 16  1  0  0  0  0
 17 19  1  0  0  0  0
 18 20  1  0  0  0  0
 18 19  1  0  0  0  0
 20 19  1  0  0  0  0
 21 22  1  0  0  0  0
 22 23  1  0  0  0  0
 25 23  1  0  0  0  0
 25 24  1  1  0  0  0
 26 29  2  0  0  0  0
 27 25  1  1  0  0  0
 28 29  1  0  0  0  0
 28 27  1  0  0  0  0
 29 27  1  0  0  0  0
 30 31  2  0  0  0  0
 31 32  1  0  0  0  0
 32 33  1  0  0  0  0
 33 39  1  0  0  0  0
 34 40  1  0  0  0  0
 35 36  1  0  0  0  0
 35 42  1  0  0  0  0
 36 37  1  0  0  0  0
 38 35  2  0  0  0  0
 39 34  2  0  0  0  0
 39 38  1  0  0  0  0
 40 36  2  0  0  0  0
 41 42  2  0  0  0  0
 41 44  1  0  0  0  0
 42 46  1  0  0  0  0
 43 45  1  0  0  0  0
 43 47  1  0  0  0  0
 44 43  2  0  0  0  0
 46 45  2  0  0  0  0
 48  1  1  0  0  0  0
 49 52  1  1  0  0  0
 49 50  1  0  0  0  0
 49 48  1  0  0  0  0
 51 50  1  0  0  0  0
 53 52  1  0  0  0  0
 54 53  2  0  0  0  0
 55 54  1  0  0  0  0
 56 55  1  0  0  0  0
 57 59  1  0  0  0  0
 57 58  1  0  0  0  0
 58 60  1  1  0  0  0
 58 56  1  0  0  0  0
 59 61  1  1  0  0  0
 59 58  1  0  0  0  0
 61 68  1  6  0  0  0
 62 63  1  1  0  0  0
 62 61  1  0  0  0  0
 62 64  1  0  0  0  0
 65 64  1  0  0  0  0
 65 66  1  0  0  0  0
 67 68  1  0  0  0  0
M  END
>  <MODEL>
1

>  <REMARK>
 VINA RESULT:      -1.3      0.000      0.000
  Name = 
  30 active torsions:
  status: ('A' for Active; 'I' for Inactive)
    1  A    between atoms: C_4  and  C_25
    2  A    between atoms: C_4  and  N_65
    3  A    between atoms: O_6  and  C_38
    4  A    between atoms: N_7  and  N_22
    5  A    between atoms: N_7  and  N_68
    6  A    between atoms: C_8  and  C_12
    7  A    between atoms: C_9  and  C_25
    8  A    between atoms: C_13  and  N_24
    9  A    between atoms: O_14  and  C_63
   10  A    between atoms: C_17  and  C_43
   11  A    between atoms: C_20  and  C_50
   12  A    between atoms: C_20  and  C_63
   13  A    between atoms: C_21  and  C_44
   14  A    between atoms: C_21  and  N_65
   15  A    between atoms: N_22  and  C_49
   16  A    between atoms: N_24  and  C_56
   17  A    between atoms: C_26  and  C_34
   18  A    between atoms: C_26  and  C_38
   19  A    between atoms: C_30  and  C_59
   20  A    between atoms: C_32  and  C_56
   21  A    between atoms: C_34  and  C_55
   22  A    between atoms: C_34  and  C_64
   23  A    between atoms: C_35  and  C_50
   24  A    between atoms: C_36  and  C_54
   25  A    between atoms: C_36  and  C_60
   26  A    between atoms: C_38  and  C_43
   27  A    between atoms: C_40  and  C_49
   28  A    between atoms: C_48  and  C_50
   29  A    between atoms: C_54  and  C_67
   30  A    between atoms: C_59  and  N_68
                            x       y       z     vdW  Elec       q    Type
                         _______ _______ _______ _____ _____    ______ ____

>  <TORSDO>
F 30

$$$$
=
 OpenBabel11052410033D

 68 74  0  0  1  0  0  0  0  0999 V2000
  161.6090  209.8590  149.3380 C   0  0  2  0  0  0  0  0  0  0  0  0
  160.4360  209.2410  148.8840 O   0  0  0  0  0  1  0  0  0  0  0  0
  160.4550  211.4650  152.6830 C   0  0  0  0  0  0  0  0  0  0  0  0
  161.3560  210.9280  155.0220 C   0  0  2  0  0  3  0  0  0  0  0  0
  159.4180  212.4520  154.7270 C   0  0  0  0  0  2  0  0  0  0  0  0
  162.7300  210.6340  153.0050 N   0  0  0  0  0  2  0  0  0  0  0  0
  159.9340  211.2320  155.4760 C   0  0  0  0  0  2  0  0  0  0  0  0
  159.5230  212.2800  153.2320 C   0  0  0  0  0  0  0  0  0  0  0  0
  162.8270  210.2040  151.5970 C   0  0  0  0  0  2  0  0  0  0  0  0
  160.5690  211.3100  151.1890 C   0  0  0  0  0  2  0  0  0  0  0  0
  161.4760  210.1240  150.8500 C   0  0  1  0  0  3  0  0  0  0  0  0
  161.3600  210.5800  153.5290 C   0  0  2  0  0  3  0  0  0  0  0  0
  158.6090  213.0980  152.3710 C   0  0  0  0  0  2  0  0  0  0  0  0
  157.9150  214.0870  153.1810 N   0  0  0  0  0  2  0  0  0  0  0  0
  156.5560  213.9910  152.8550 N   0  0  0  0  0  2  0  0  0  0  0  0
  155.8520  214.0490  154.0650 N   0  0  0  0  0  2  0  0  0  0  0  0
  156.3950  213.0180  154.9330 C   0  0  0  0  0  2  0  0  0  0  0  0
  156.3600  212.1830  157.2560 C   0  0  0  0  0  2  0  0  0  0  0  0
  156.2340  213.4190  156.3890 C   0  0  0  0  0  3  0  0  0  0  0  0
  154.9940  212.7640  156.9590 C   0  0  0  0  0  2  0  0  0  0  0  0
  161.8960  209.7450  155.8130 C   0  0  0  0  0  2  0  0  0  0  0  0
  160.7730  208.7970  156.1920 C   0  0  0  0  0  2  0  0  0  0  0  0
  161.2840  207.4350  156.2140 N   0  0  0  0  0  2  0  0  0  0  0  0
  159.0980  206.9510  155.5180 O   0  0  0  0  0  1  0  0  0  0  0  0
  160.4500  206.6310  155.3270 C   0  0  1  0  0  3  0  0  0  0  0  0
  160.9140  204.5280  152.7420 O   0  0  0  0  0  0  0  0  0  0  0  0
  160.9050  206.8260  153.8710 C   0  0  1  0  0  3  0  0  0  0  0  0
  162.2520  206.6200  153.7360 O   0  0  0  0  0  0  0  0  0  0  0  0
  161.2290  205.6290  153.2660 C   0  0  0  0  0  0  0  0  0  0  0  0
  161.7900  211.1510  148.5860 C   0  0  0  0  0  3  0  0  0  0  0  0
  163.0050  211.6450  148.3500 C   0  0  0  0  0  3  0  0  0  0  0  0
  163.1890  212.8940  147.5630 C   0  0  0  0  0  2  0  0  0  0  0  0
  163.4070  212.5190  146.1090 C   0  0  0  0  0  2  0  0  0  0  0  0
  161.0420  213.2860  145.9060 C   0  0  0  0  0  3  0  0  0  0  0  0
  161.2380  213.3460  143.0930 C   0  0  0  0  0  0  0  0  0  0  0  0
  160.0300  213.7120  143.7430 C   0  0  0  0  0  0  0  0  0  0  0  0
  158.8930  214.1670  143.0140 N   0  0  0  0  0  1  0  0  0  0  0  0
  162.3340  212.9630  143.8890 C   0  0  0  0  0  3  0  0  0  0  0  0
  162.2380  212.9280  145.2820 C   0  0  0  0  0  0  0  0  0  0  0  0
  159.9460  213.6770  145.1380 C   0  0  0  0  0  3  0  0  0  0  0  0
  160.6970  212.4090  140.8290 C   0  0  0  0  0  3  0  0  0  0  0  0
  161.3980  213.3450  141.6100 C   0  0  0  0  0  0  0  0  0  0  0  0
  161.6580  213.3260  138.8070 C   0  0  0  0  0  0  0  0  0  0  0  0
  160.8270  212.3980  139.4370 C   0  0  0  0  0  3  0  0  0  0  0  0
  162.3590  214.2640  139.5680 C   0  0  0  0  0  3  0  0  0  0  0  0
  162.2250  214.2740  140.9590 C   0  0  0  0  0  3  0  0  0  0  0  0
  161.7920  213.3090  137.4250 O   0  0  0  0  0  1  0  0  0  0  0  0
  162.8250  208.9500  149.0610 C   0  0  0  0  0  2  0  0  0  0  0  0
  162.5240  207.4890  148.7040 C   0  0  1  0  0  3  0  0  0  0  0  0
  162.0730  206.7540  149.8020 O   0  0  0  0  0  0  0  0  0  0  0  0
  163.0270  206.9850  150.7980 C   0  0  0  0  0  1  0  0  0  0  0  0
  161.5170  207.4180  147.5700 C   0  0  0  0  0  2  0  0  0  0  0  0
  161.7330  206.1680  146.7930 C   0  0  0  0  0  3  0  0  0  0  0  0
  162.9200  205.9160  146.2460 C   0  0  0  0  0  3  0  0  0  0  0  0
  163.1410  204.6650  145.4610 C   0  0  0  0  0  2  0  0  0  0  0  0
  162.5670  203.5290  146.1670 N   0  0  0  0  0  2  0  0  0  0  0  0
  160.2270  203.6790  146.4310 O   0  0  0  0  0  0  0  0  0  0  0  0
  161.2610  203.2460  145.5840 C   0  0  2  0  0  0  0  0  0  0  0  0
  160.3180  202.2850  146.2150 C   0  0  1  0  0  3  0  0  0  0  0  0
  161.0360  203.6650  144.2720 O   0  0  0  0  0  1  0  0  0  0  0  0
  160.8780  201.6200  147.4700 C   0  0  2  0  0  3  0  0  0  0  0  0
  161.1530  200.1220  147.2570 C   0  0  2  0  0  3  0  0  0  0  0  0
  162.4540  199.7910  147.6300 O   0  0  0  0  0  1  0  0  0  0  0  0
  160.9120  199.6890  145.8150 C   0  0  0  0  0  2  0  0  0  0  0  0
  161.1060  198.3120  145.6720 O   0  0  0  0  0  0  0  0  0  0  0  0
  161.9520  198.1890  144.5700 C   0  0  0  0  0  1  0  0  0  0  0  0
  160.9030  203.1310  149.8310 S   0  0  0  0  0  1  0  0  0  0  0  0
  160.0570  201.9560  148.7210 C   0  0  0  0  0  2  0  0  0  0  0  0
  1  2  1  6  0  0  0
  3  8  2  0  0  0  0
  4  7  1  0  0  0  0
  4 21  1  1  0  0  0
  5  7  1  0  0  0  0
  6 12  1  0  0  0  0
  8  5  1  0  0  0  0
  9  6  1  0  0  0  0
 10  3  1  0  0  0  0
 11  1  1  6  0  0  0
 11 10  1  0  0  0  0
 11  9  1  0  0  0  0
 12  3  1  6  0  0  0
 12  4  1  0  0  0  0
 13 14  1  0  0  0  0
 13  8  1  0  0  0  0
 15 14  1  0  0  0  0
 15 16  1  0  0  0  0
 16 17  1  0  0  0  0
 17 19  1  0  0  0  0
 19 20  1  0  0  0  0
 19 18  1  0  0  0  0
 20 18  1  0  0  0  0
 21 22  1  0  0  0  0
 22 23  1  0  0  0  0
 25 24  1  6  0  0  0
 25 23  1  0  0  0  0
 26 29  2  0  0  0  0
 27 25  1  1  0  0  0
 28 27  1  0  0  0  0
 29 28  1  0  0  0  0
 29 27  1  0  0  0  0
 30  1  1  0  0  0  0
 31 30  2  0  0  0  0
 32 31  1  0  0  0  0
 33 32  1  0  0  0  0
 35 36  2  0  0  0  0
 35 38  1  0  0  0  0
 36 40  1  0  0  0  0
 37 36  1  0  0  0  0
 38 39  2  0  0  0  0
 39 34  1  0  0  0  0
 39 33  1  0  0  0  0
 40 34  2  0  0  0  0
 41 42  1  0  0  0  0
 42 35  1  0  0  0  0
 43 44  1  0  0  0  0
 43 45  2  0  0  0  0
 44 41  2  0  0  0  0
 45 46  1  0  0  0  0
 46 42  2  0  0  0  0
 47 43  1  0  0  0  0
 48  1  1  0  0  0  0
 49 52  1  6  0  0  0
 49 48  1  0  0  0  0
 49 50  1  0  0  0  0
 50 51  1  0  0  0  0
 53 52  1  0  0  0  0
 54 53  2  0  0  0  0
 55 56  1  0  0  0  0
 55 54  1  0  0  0  0
 58 60  1  6  0  0  0
 58 56  1  0  0  0  0
 58 59  1  0  0  0  0
 58 57  1  0  0  0  0
 59 57  1  0  0  0  0
 59 61  1  1  0  0  0
 61 68  1  1  0  0  0
 62 61  1  0  0  0  0
 62 63  1  6  0  0  0
 64 62  1  0  0  0  0
 65 64  1  0  0  0  0
 66 65  1  0  0  0  0
 68 67  1  0  0  0  0
M  END
>  <MODEL>
2

>  <REMARK>
 VINA RESULT:      -1.3      3.158     10.057
  Name = 
  30 active torsions:
  status: ('A' for Active; 'I' for Inactive)
    1  A    between atoms: C_4  and  C_25
    2  A    between atoms: C_4  and  N_65
    3  A    between atoms: O_6  and  C_38
    4  A    between atoms: N_7  and  N_22
    5  A    between atoms: N_7  and  N_68
    6  A    between atoms: C_8  and  C_12
    7  A    between atoms: C_9  and  C_25
    8  A    between atoms: C_13  and  N_24
    9  A    between atoms: O_14  and  C_63
   10  A    between atoms: C_17  and  C_43
   11  A    between atoms: C_20  and  C_50
   12  A    between atoms: C_20  and  C_63
   13  A    between atoms: C_21  and  C_44
   14  A    between atoms: C_21  and  N_65
   15  A    between atoms: N_22  and  C_49
   16  A    between atoms: N_24  and  C_56
   17  A    between atoms: C_26  and  C_34
   18  A    between atoms: C_26  and  C_38
   19  A    between atoms: C_30  and  C_59
   20  A    between atoms: C_32  and  C_56
   21  A    between atoms: C_34  and  C_55
   22  A    between atoms: C_34  and  C_64
   23  A    between atoms: C_35  and  C_50
   24  A    between atoms: C_36  and  C_54
   25  A    between atoms: C_36  and  C_60
   26  A    between atoms: C_38  and  C_43
   27  A    between atoms: C_40  and  C_49
   28  A    between atoms: C_48  and  C_50
   29  A    between atoms: C_54  and  C_67
   30  A    between atoms: C_59  and  N_68
                            x       y       z     vdW  Elec       q    Type
                         _______ _______ _______ _____ _____    ______ ____

>  <TORSDO>
F 30

$$$$
=
 OpenBabel11052410033D

 68 74  0  0  1  0  0  0  0  0999 V2000
  161.1310  206.6180  147.1680 C   0  0  2  0  0  0  0  0  0  0  0  0
  160.0150  206.5460  146.3240 O   0  0  0  0  0  1  0  0  0  0  0  0
  161.0030  204.6880  150.5390 C   0  0  0  0  0  0  0  0  0  0  0  0
  161.1470  202.1470  150.8470 C   0  0  2  0  0  3  0  0  0  0  0  0
  160.6740  203.6360  152.7780 C   0  0  0  0  0  2  0  0  0  0  0  0
  162.1730  203.2810  148.9220 N   0  0  0  0  0  2  0  0  0  0  0  0
  160.2210  202.3890  152.0320 C   0  0  0  0  0  2  0  0  0  0  0  0
  160.7700  204.8330  151.8650 C   0  0  0  0  0  0  0  0  0  0  0  0
  162.0900  204.3200  147.8790 C   0  0  0  0  0  2  0  0  0  0  0  0
  161.1160  205.8870  149.6350 C   0  0  0  0  0  2  0  0  0  0  0  0
  161.0720  205.4470  148.1680 C   0  0  1  0  0  3  0  0  0  0  0  0
  161.0520  203.3220  149.8670 C   0  0  2  0  0  3  0  0  0  0  0  0
  160.6720  206.1920  152.4890 C   0  0  0  0  0  2  0  0  0  0  0  0
  161.5350  207.1270  151.7840 N   0  0  0  0  0  2  0  0  0  0  0  0
  162.0750  207.9830  152.7530 N   0  0  0  0  0  2  0  0  0  0  0  0
  161.5010  207.6120  153.9770 N   0  0  0  0  0  2  0  0  0  0  0  0
  161.5860  208.7620  154.8610 C   0  0  0  0  0  2  0  0  0  0  0  0
  159.2300  208.9620  155.5750 C   0  0  0  0  0  2  0  0  0  0  0  0
  160.6290  208.5980  156.0290 C   0  0  0  0  0  3  0  0  0  0  0  0
  160.0420  209.9450  156.3940 C   0  0  0  0  0  2  0  0  0  0  0  0
  160.7310  200.8680  150.1350 C   0  0  0  0  0  2  0  0  0  0  0  0
  161.1220  200.9180  148.6700 C   0  0  0  0  0  2  0  0  0  0  0  0
  159.9790  201.3580  147.8840 N   0  0  0  0  0  2  0  0  0  0  0  0
  161.8040  201.4440  146.4160 O   0  0  0  0  0  1  0  0  0  0  0  0
  160.4040  201.4500  146.4910 C   0  0  1  0  0  3  0  0  0  0  0  0
  161.3080  198.2780  145.8240 O   0  0  0  0  0  0  0  0  0  0  0  0
  159.7620  200.3140  145.6770 C   0  0  1  0  0  3  0  0  0  0  0  0
  160.2510  200.2790  144.3980 O   0  0  0  0  0  0  0  0  0  0  0  0
  160.6470  199.2810  145.4450 C   0  0  0  0  0  0  0  0  0  0  0  0
  161.0960  207.9380  147.8930 C   0  0  0  0  0  3  0  0  0  0  0  0
  162.2050  208.4710  148.4060 C   0  0  0  0  0  3  0  0  0  0  0  0
  162.1830  209.7970  149.0760 C   0  0  0  0  0  2  0  0  0  0  0  0
  162.0280  210.8710  148.0150 C   0  0  0  0  0  2  0  0  0  0  0  0
  160.2540  212.5000  147.3670 C   0  0  0  0  0  3  0  0  0  0  0  0
  159.5270  212.8760  150.0660 C   0  0  0  0  0  0  0  0  0  0  0  0
  158.8460  213.5680  149.0290 C   0  0  0  0  0  0  0  0  0  0  0  0
  157.7490  214.4350  149.3010 N   0  0  0  0  0  1  0  0  0  0  0  0
  160.5630  211.9930  149.7090 C   0  0  0  0  0  3  0  0  0  0  0  0
  160.9290  211.8080  148.3740 C   0  0  0  0  0  0  0  0  0  0  0  0
  159.2180  213.3730  147.6960 C   0  0  0  0  0  3  0  0  0  0  0  0
  159.0310  211.9110  152.3290 C   0  0  0  0  0  3  0  0  0  0  0  0
  159.1970  213.0430  151.5110 C   0  0  0  0  0  0  0  0  0  0  0  0
  158.5940  213.3190  154.2470 C   0  0  0  0  0  0  0  0  0  0  0  0
  158.7300  212.0470  153.6870 C   0  0  0  0  0  3  0  0  0  0  0  0
  158.7590  214.4530  153.4490 C   0  0  0  0  0  3  0  0  0  0  0  0
  159.0620  214.3140  152.0920 C   0  0  0  0  0  3  0  0  0  0  0  0
  158.2880  213.4530  155.5940 O   0  0  0  0  0  1  0  0  0  0  0  0
  162.4280  206.5430  146.3360 C   0  0  0  0  0  2  0  0  0  0  0  0
  162.3550  205.7610  145.0190 C   0  0  1  0  0  3  0  0  0  0  0  0
  162.2790  204.3810  145.2240 O   0  0  0  0  0  0  0  0  0  0  0  0
  163.5910  203.9260  145.0560 C   0  0  0  0  0  1  0  0  0  0  0  0
  161.1810  206.2380  144.1830 C   0  0  0  0  0  2  0  0  0  0  0  0
  161.6820  206.7960  142.8990 C   0  0  0  0  0  3  0  0  0  0  0  0
  161.6590  206.0560  141.7920 C   0  0  0  0  0  3  0  0  0  0  0  0
  162.1650  206.6100  140.5010 C   0  0  0  0  0  2  0  0  0  0  0  0
  161.3810  207.7760  140.1200 N   0  0  0  0  0  2  0  0  0  0  0  0
  162.1810  209.1800  138.4010 O   0  0  0  0  0  0  0  0  0  0  0  0
  161.5270  207.9690  138.6830 C   0  0  2  0  0  0  0  0  0  0  0  0
  160.8380  209.0790  137.9730 C   0  0  1  0  0  3  0  0  0  0  0  0
  162.0810  206.9220  137.9440 O   0  0  0  0  0  1  0  0  0  0  0  0
  159.9560  209.9280  138.8840 C   0  0  2  0  0  3  0  0  0  0  0  0
  158.4820  209.9030  138.4490 C   0  0  2  0  0  3  0  0  0  0  0  0
  158.3660  209.8790  137.0610 O   0  0  0  0  0  1  0  0  0  0  0  0
  157.6940  211.0850  139.0050 C   0  0  0  0  0  2  0  0  0  0  0  0
  156.5130  211.2770  138.2820 O   0  0  0  0  0  0  0  0  0  0  0  0
  156.6900  212.5000  137.6380 C   0  0  0  0  0  1  0  0  0  0  0  0
  160.8690  212.2250  137.5630 S   0  0  0  0  0  1  0  0  0  0  0  0
  160.5400  211.3280  139.1160 C   0  0  0  0  0  2  0  0  0  0  0  0
  1  2  1  6  0  0  0
  1 30  1  0  0  0  0
  3  8  2  0  0  0  0
  4 21  1  6  0  0  0
  4  7  1  0  0  0  0
  7  5  1  0  0  0  0
  8 13  1  0  0  0  0
  8  5  1  0  0  0  0
  9 11  1  0  0  0  0
  9  6  1  0  0  0  0
 10  3  1  0  0  0  0
 11  1  1  6  0  0  0
 11 10  1  0  0  0  0
 12  6  1  6  0  0  0
 12  3  1  0  0  0  0
 12  4  1  0  0  0  0
 14 13  1  0  0  0  0
 14 15  1  0  0  0  0
 15 16  1  0  0  0  0
 16 17  1  0  0  0  0
 17 19  1  0  0  0  0
 18 19  1  0  0  0  0
 18 20  1  0  0  0  0
 19 20  1  0  0  0  0
 22 21  1  0  0  0  0
 23 22  1  0  0  0  0
 25 24  1  1  0  0  0
 25 23  1  0  0  0  0
 27 25  1  1  0  0  0
 28 29  1  0  0  0  0
 28 27  1  0  0  0  0
 29 27  1  0  0  0  0
 29 26  2  0  0  0  0
 30 31  2  0  0  0  0
 31 32  1  0  0  0  0
 33 39  1  0  0  0  0
 33 32  1  0  0  0  0
 34 40  2  0  0  0  0
 34 39  1  0  0  0  0
 35 42  1  0  0  0  0
 36 37  1  0  0  0  0
 36 35  2  0  0  0  0
 38 35  1  0  0  0  0
 39 38  2  0  0  0  0
 40 36  1  0  0  0  0
 41 44  1  0  0  0  0
 42 46  1  0  0  0  0
 42 41  2  0  0  0  0
 43 47  1  0  0  0  0
 44 43  2  0  0  0  0
 45 43  1  0  0  0  0
 46 45  2  0  0  0  0
 48  1  1  0  0  0  0
 49 52  1  1  0  0  0
 49 50  1  0  0  0  0
 49 48  1  0  0  0  0
 51 50  1  0  0  0  0
 53 52  1  0  0  0  0
 54 53  2  0  0  0  0
 55 54  1  0  0  0  0
 56 55  1  0  0  0  0
 57 58  1  0  0  0  0
 58 60  1  6  0  0  0
 58 56  1  0  0  0  0
 59 57  1  0  0  0  0
 59 58  1  0  0  0  0
 59 61  1  1  0  0  0
 61 68  1  6  0  0  0
 62 63  1  6  0  0  0
 62 61  1  0  0  0  0
 62 64  1  0  0  0  0
 65 64  1  0  0  0  0
 66 65  1  0  0  0  0
 67 68  1  0  0  0  0
M  END
>  <MODEL>
3

>  <REMARK>
 VINA RESULT:      -0.8      2.834      4.936
  Name = 
  30 active torsions:
  status: ('A' for Active; 'I' for Inactive)
    1  A    between atoms: C_4  and  C_25
    2  A    between atoms: C_4  and  N_65
    3  A    between atoms: O_6  and  C_38
    4  A    between atoms: N_7  and  N_22
    5  A    between atoms: N_7  and  N_68
    6  A    between atoms: C_8  and  C_12
    7  A    between atoms: C_9  and  C_25
    8  A    between atoms: C_13  and  N_24
    9  A    between atoms: O_14  and  C_63
   10  A    between atoms: C_17  and  C_43
   11  A    between atoms: C_20  and  C_50
   12  A    between atoms: C_20  and  C_63
   13  A    between atoms: C_21  and  C_44
   14  A    between atoms: C_21  and  N_65
   15  A    between atoms: N_22  and  C_49
   16  A    between atoms: N_24  and  C_56
   17  A    between atoms: C_26  and  C_34
   18  A    between atoms: C_26  and  C_38
   19  A    between atoms: C_30  and  C_59
   20  A    between atoms: C_32  and  C_56
   21  A    between atoms: C_34  and  C_55
   22  A    between atoms: C_34  and  C_64
   23  A    between atoms: C_35  and  C_50
   24  A    between atoms: C_36  and  C_54
   25  A    between atoms: C_36  and  C_60
   26  A    between atoms: C_38  and  C_43
   27  A    between atoms: C_40  and  C_49
   28  A    between atoms: C_48  and  C_50
   29  A    between atoms: C_54  and  C_67
   30  A    between atoms: C_59  and  N_68
                            x       y       z     vdW  Elec       q    Type
                         _______ _______ _______ _____ _____    ______ ____

>  <TORSDO>
F 30

$$$$
