=
 OpenBabel11052410383D

 25 28  0  0  1  0  0  0  0  0999 V2000
  162.2440  208.1900  150.8780 C   0  0  0  0  0  3  0  0  0  0  0  0
  161.8710  208.1570  149.5900 C   0  0  0  0  0  0  0  0  0  0  0  0
  161.8340  204.7670  151.7020 O   0  0  0  0  0  0  0  0  0  0  0  0
  161.8030  207.3010  151.9820 C   0  0  0  0  0  0  0  0  0  0  0  0
  161.8210  205.9980  151.8370 C   0  0  0  0  0  0  0  0  0  0  0  0
  159.9830  206.9230  156.5770 N   0  0  0  0  0  1  0  0  0  0  0  0
  160.8760  207.1210  154.3150 C   0  0  0  0  0  3  0  0  0  0  0  0
  160.8680  209.2710  153.2180 C   0  0  0  0  0  3  0  0  0  0  0  0
  160.2800  209.8270  154.3560 C   0  0  0  0  0  3  0  0  0  0  0  0
  161.1710  207.9010  153.1850 C   0  0  0  0  0  0  0  0  0  0  0  0
  160.0040  209.0430  155.4330 N   0  0  0  0  0  0  0  0  0  0  0  0
  160.2870  207.7120  155.4340 C   0  0  0  0  0  0  0  0  0  0  0  0
  161.6740  206.1800  148.2240 N   0  0  1  0  0  0  0  0  0  0  0  0
  160.9170  207.1980  147.6680 O   0  0  0  0  0  0  0  0  0  0  0  0
  160.9350  207.1260  149.0280 C   0  0  2  0  0  3  0  0  0  0  0  0
  160.8700  204.9720  148.1440 C   0  0  2  0  0  3  0  0  0  0  0  0
  161.6400  203.8430  148.5620 C   0  0  2  0  0  3  0  0  0  0  0  0
  161.6160  203.7440  145.8970 O   0  0  0  0  0  0  0  0  0  0  0  0
  161.4440  204.0590  147.0620 C   0  0  0  0  0  0  0  0  0  0  0  0
  160.7600  202.7790  149.0040 N   0  0  0  0  0  1  0  0  0  0  0  0
  162.3740  209.2390  148.6940 C   0  0  0  0  0  2  0  0  0  0  0  0
  162.3110  211.5170  148.2360 C   0  0  1  0  0  3  0  0  0  0  0  0
  161.8950  212.8540  148.8190 C   0  0  0  0  0  1  0  0  0  0  0  0
  161.6140  210.4570  148.9210 N   0  0  0  0  0  0  0  0  0  0  0  0
  161.2290  210.9160  147.6730 O   0  0  0  0  0  0  0  0  0  0  0  0
  1  4  1  0  0  0  0
  2  1  2  0  0  0  0
  3  5  2  0  0  0  0
  4 10  1  0  0  0  0
  5  4  2  0  0  0  0
  7 12  1  0  0  0  0
  8  9  2  0  0  0  0
  9 11  1  0  0  0  0
 10  8  1  0  0  0  0
 10  7  2  0  0  0  0
 11 12  2  0  0  0  0
 12  6  1  0  0  0  0
 13 14  1  6  0  0  0
 13 15  1  0  0  0  0
 14 15  1  0  0  0  0
 15  2  1  1  0  0  0
 16 19  1  6  0  0  0
 16 13  1  0  0  0  0
 16 17  1  0  0  0  0
 17 20  1  1  0  0  0
 18 19  2  0  0  0  0
 19 17  1  0  0  0  0
 21 24  1  0  0  0  0
 21  2  1  0  0  0  0
 22 23  1  1  0  0  0
 22 24  1  0  0  0  0
 25 22  1  0  0  0  0
 25 24  1  0  0  0  0
M  END
>  <MODEL>
1

>  <REMARK>
 VINA RESULT:      -6.8      0.000      0.000
  Name = 
  6 active torsions:
  status: ('A' for Active; 'I' for Inactive)
    1  A    between atoms: N_6  and  C_7
    2  A    between atoms: C_11  and  C_12
    3  A    between atoms: C_12  and  C_15
    4  A    between atoms: C_16  and  C_25
    5  A    between atoms: N_21  and  C_23
    6  A    between atoms: C_23  and  C_25
                            x       y       z     vdW  Elec       q    Type
                         _______ _______ _______ _____ _____    ______ ____

>  <TORSDO>
F 6

$$$$
=
 OpenBabel11052410383D

 25 28  0  0  1  0  0  0  0  0999 V2000
  161.6240  205.9370  150.3690 C   0  0  0  0  0  3  0  0  0  0  0  0
  161.6110  206.8460  151.3550 C   0  0  0  0  0  0  0  0  0  0  0  0
  160.5430  203.4150  152.6130 O   0  0  0  0  0  0  0  0  0  0  0  0
  161.1040  204.5470  150.3990 C   0  0  0  0  0  0  0  0  0  0  0  0
  160.8150  203.9670  151.5390 C   0  0  0  0  0  0  0  0  0  0  0  0
  161.8270  204.1400  145.5120 N   0  0  0  0  0  1  0  0  0  0  0  0
  161.4670  204.3290  147.9180 C   0  0  0  0  0  3  0  0  0  0  0  0
  160.6970  202.4070  149.1590 C   0  0  0  0  0  3  0  0  0  0  0  0
  160.6900  201.6690  147.9740 C   0  0  0  0  0  3  0  0  0  0  0  0
  161.0860  203.7550  149.1420 C   0  0  0  0  0  0  0  0  0  0  0  0
  161.0620  202.2550  146.8040 N   0  0  0  0  0  0  0  0  0  0  0  0
  161.4460  203.5590  146.7530 C   0  0  0  0  0  0  0  0  0  0  0  0
  161.6490  207.4050  153.7010 N   0  0  1  0  0  0  0  0  0  0  0  0
  161.9050  206.0520  153.5480 O   0  0  0  0  0  0  0  0  0  0  0  0
  160.9890  206.5970  152.7000 C   0  0  2  0  0  3  0  0  0  0  0  0
  160.7280  207.5300  154.8170 C   0  0  2  0  0  3  0  0  0  0  0  0
  160.4830  208.9100  155.0970 C   0  0  2  0  0  3  0  0  0  0  0  0
  162.2310  208.1060  156.9440 O   0  0  0  0  0  0  0  0  0  0  0  0
  161.4590  208.1600  156.0010 C   0  0  0  0  0  0  0  0  0  0  0  0
  159.2180  209.0590  155.7890 N   0  0  0  0  0  1  0  0  0  0  0  0
  162.3040  208.1450  151.1110 C   0  0  0  0  0  2  0  0  0  0  0  0
  161.7520  210.2830  151.8390 C   0  0  1  0  0  3  0  0  0  0  0  0
  160.5720  211.1850  152.1490 C   0  0  0  0  0  1  0  0  0  0  0  0
  161.3220  209.2080  150.9790 N   0  0  0  0  0  0  0  0  0  0  0  0
  162.0050  210.3150  150.5040 O   0  0  0  0  0  0  0  0  0  0  0  0
  1  4  1  0  0  0  0
  1  2  2  0  0  0  0
  4  5  2  0  0  0  0
  5  3  2  0  0  0  0
  6 12  1  0  0  0  0
  7 10  1  0  0  0  0
  9  8  1  0  0  0  0
 10  8  2  0  0  0  0
 10  4  1  0  0  0  0
 11  9  2  0  0  0  0
 12 11  1  0  0  0  0
 12  7  2  0  0  0  0
 13 14  1  1  0  0  0
 13 16  1  0  0  0  0
 15  2  1  6  0  0  0
 15 14  1  0  0  0  0
 15 13  1  0  0  0  0
 16 17  1  0  0  0  0
 16 19  1  1  0  0  0
 17 20  1  1  0  0  0
 17 19  1  0  0  0  0
 19 18  2  0  0  0  0
 21  2  1  0  0  0  0
 22 23  1  6  0  0  0
 24 21  1  0  0  0  0
 24 22  1  0  0  0  0
 25 24  1  0  0  0  0
 25 22  1  0  0  0  0
M  END
>  <MODEL>
2

>  <REMARK>
 VINA RESULT:      -6.7      2.554      6.971
  Name = 
  6 active torsions:
  status: ('A' for Active; 'I' for Inactive)
    1  A    between atoms: N_6  and  C_7
    2  A    between atoms: C_11  and  C_12
    3  A    between atoms: C_12  and  C_15
    4  A    between atoms: C_16  and  C_25
    5  A    between atoms: N_21  and  C_23
    6  A    between atoms: C_23  and  C_25
                            x       y       z     vdW  Elec       q    Type
                         _______ _______ _______ _____ _____    ______ ____

>  <TORSDO>
F 6

$$$$
=
 OpenBabel11052410383D

 25 28  0  0  1  0  0  0  0  0999 V2000
  161.9020  207.6340  150.9730 C   0  0  0  0  0  3  0  0  0  0  0  0
  161.5850  208.8770  151.3650 C   0  0  0  0  0  0  0  0  0  0  0  0
  161.2050  205.9940  154.0370 O   0  0  0  0  0  0  0  0  0  0  0  0
  161.4050  206.3470  151.5200 C   0  0  0  0  0  0  0  0  0  0  0  0
  161.3020  206.1670  152.8150 C   0  0  0  0  0  0  0  0  0  0  0  0
  161.4910  204.3560  146.9820 N   0  0  0  0  0  1  0  0  0  0  0  0
  161.4440  205.3250  149.2200 C   0  0  0  0  0  3  0  0  0  0  0  0
  160.7660  203.9610  151.0920 C   0  0  0  0  0  3  0  0  0  0  0  0
  160.5820  202.8880  150.2180 C   0  0  0  0  0  3  0  0  0  0  0  0
  161.1990  205.2010  150.5980 C   0  0  0  0  0  0  0  0  0  0  0  0
  160.8260  203.0420  148.8890 N   0  0  0  0  0  0  0  0  0  0  0  0
  161.2480  204.2290  148.3770 C   0  0  0  0  0  0  0  0  0  0  0  0
  160.8490  210.4730  153.0160 N   0  0  1  0  0  0  0  0  0  0  0  0
  161.2140  209.2960  153.6480 O   0  0  0  0  0  0  0  0  0  0  0  0
  160.5850  209.1710  152.4470 C   0  0  2  0  0  3  0  0  0  0  0  0
  159.6170  210.9180  153.6450 C   0  0  2  0  0  3  0  0  0  0  0  0
  159.2990  212.2430  153.2140 C   0  0  2  0  0  3  0  0  0  0  0  0
  160.3550  212.5170  155.6480 O   0  0  0  0  0  0  0  0  0  0  0  0
  159.9290  212.0730  154.5950 C   0  0  0  0  0  0  0  0  0  0  0  0
  157.8780  212.4880  153.3710 N   0  0  0  0  0  1  0  0  0  0  0  0
  162.3110  210.0130  150.7270 C   0  0  0  0  0  2  0  0  0  0  0  0
  162.3790  211.4480  148.8990 C   0  0  1  0  0  3  0  0  0  0  0  0
  161.5280  212.4010  148.0820 C   0  0  0  0  0  1  0  0  0  0  0  0
  161.5220  210.5450  149.6280 N   0  0  0  0  0  0  0  0  0  0  0  0
  162.1750  210.1770  148.4640 O   0  0  0  0  0  0  0  0  0  0  0  0
  1  2  2  0  0  0  0
  1  4  1  0  0  0  0
  4  5  2  0  0  0  0
  5  3  2  0  0  0  0
  6 12  1  0  0  0  0
  7 10  1  0  0  0  0
  9  8  1  0  0  0  0
 10  8  2  0  0  0  0
 10  4  1  0  0  0  0
 11  9  2  0  0  0  0
 12 11  1  0  0  0  0
 12  7  2  0  0  0  0
 13 16  1  0  0  0  0
 13 14  1  1  0  0  0
 15  2  1  6  0  0  0
 15 13  1  0  0  0  0
 15 14  1  0  0  0  0
 16 19  1  1  0  0  0
 17 20  1  1  0  0  0
 17 16  1  0  0  0  0
 17 19  1  0  0  0  0
 19 18  2  0  0  0  0
 21  2  1  0  0  0  0
 22 23  1  6  0  0  0
 22 24  1  0  0  0  0
 24 21  1  0  0  0  0
 25 22  1  0  0  0  0
 25 24  1  0  0  0  0
M  END
>  <MODEL>
3

>  <REMARK>
 VINA RESULT:      -6.5      2.645      6.601
  Name = 
  6 active torsions:
  status: ('A' for Active; 'I' for Inactive)
    1  A    between atoms: N_6  and  C_7
    2  A    between atoms: C_11  and  C_12
    3  A    between atoms: C_12  and  C_15
    4  A    between atoms: C_16  and  C_25
    5  A    between atoms: N_21  and  C_23
    6  A    between atoms: C_23  and  C_25
                            x       y       z     vdW  Elec       q    Type
                         _______ _______ _______ _____ _____    ______ ____

>  <TORSDO>
F 6

$$$$
=
 OpenBabel11052410383D

 25 28  0  0  1  0  0  0  0  0999 V2000
  161.9060  207.5770  150.8090 C   0  0  0  0  0  3  0  0  0  0  0  0
  161.6040  208.7900  151.2940 C   0  0  0  0  0  0  0  0  0  0  0  0
  161.2520  205.7850  153.7960 O   0  0  0  0  0  0  0  0  0  0  0  0
  161.4430  206.2540  151.2980 C   0  0  0  0  0  0  0  0  0  0  0  0
  161.3440  206.0150  152.5830 C   0  0  0  0  0  0  0  0  0  0  0  0
  160.5490  201.4910  150.2590 N   0  0  0  0  0  1  0  0  0  0  0  0
  160.9910  203.8370  150.7590 C   0  0  0  0  0  3  0  0  0  0  0  0
  161.3610  205.3890  148.9470 C   0  0  0  0  0  3  0  0  0  0  0  0
  161.1860  204.3410  148.0400 C   0  0  0  0  0  3  0  0  0  0  0  0
  161.2670  205.1450  150.3250 C   0  0  0  0  0  0  0  0  0  0  0  0
  160.9230  203.0850  148.4930 N   0  0  0  0  0  0  0  0  0  0  0  0
  160.8240  202.8160  149.8220 C   0  0  0  0  0  0  0  0  0  0  0  0
  160.9000  210.3040  153.0330 N   0  0  1  0  0  0  0  0  0  0  0  0
  161.3510  209.1270  153.6060 O   0  0  0  0  0  0  0  0  0  0  0  0
  160.6580  209.0090  152.4390 C   0  0  2  0  0  3  0  0  0  0  0  0
  159.6900  210.6760  153.7460 C   0  0  2  0  0  3  0  0  0  0  0  0
  159.2820  211.9920  153.3640 C   0  0  2  0  0  3  0  0  0  0  0  0
  160.4730  212.2730  155.7330 O   0  0  0  0  0  0  0  0  0  0  0  0
  160.0040  211.8270  154.6990 C   0  0  0  0  0  0  0  0  0  0  0  0
  157.8640  212.1630  153.6120 N   0  0  0  0  0  1  0  0  0  0  0  0
  162.2930  209.9690  150.6930 C   0  0  0  0  0  2  0  0  0  0  0  0
  162.2990  211.5070  148.9490 C   0  0  1  0  0  3  0  0  0  0  0  0
  161.3980  212.4310  148.1530 C   0  0  0  0  0  1  0  0  0  0  0  0
  161.4980  210.4960  149.5960 N   0  0  0  0  0  0  0  0  0  0  0  0
  162.2180  210.2490  148.4380 O   0  0  0  0  0  0  0  0  0  0  0  0
  1  2  2  0  0  0  0
  1  4  1  0  0  0  0
  4  5  2  0  0  0  0
  5  3  2  0  0  0  0
  8 10  2  0  0  0  0
  9 11  2  0  0  0  0
  9  8  1  0  0  0  0
 10  7  1  0  0  0  0
 10  4  1  0  0  0  0
 11 12  1  0  0  0  0
 12  6  1  0  0  0  0
 12  7  2  0  0  0  0
 13 14  1  1  0  0  0
 13 16  1  0  0  0  0
 15  2  1  6  0  0  0
 15 13  1  0  0  0  0
 15 14  1  0  0  0  0
 16 19  1  1  0  0  0
 17 20  1  1  0  0  0
 17 16  1  0  0  0  0
 17 19  1  0  0  0  0
 19 18  2  0  0  0  0
 21  2  1  0  0  0  0
 22 23  1  6  0  0  0
 22 24  1  0  0  0  0
 24 21  1  0  0  0  0
 25 22  1  0  0  0  0
 25 24  1  0  0  0  0
M  END
>  <MODEL>
4

>  <REMARK>
 VINA RESULT:      -6.4      2.543      6.446
  Name = 
  6 active torsions:
  status: ('A' for Active; 'I' for Inactive)
    1  A    between atoms: N_6  and  C_7
    2  A    between atoms: C_11  and  C_12
    3  A    between atoms: C_12  and  C_15
    4  A    between atoms: C_16  and  C_25
    5  A    between atoms: N_21  and  C_23
    6  A    between atoms: C_23  and  C_25
                            x       y       z     vdW  Elec       q    Type
                         _______ _______ _______ _____ _____    ______ ____

>  <TORSDO>
F 6

$$$$
=
 OpenBabel11052410383D

 25 28  0  0  1  0  0  0  0  0999 V2000
  161.9430  205.2630  149.4380 C   0  0  0  0  0  3  0  0  0  0  0  0
  161.4300  205.5900  150.6330 C   0  0  0  0  0  0  0  0  0  0  0  0
  162.3310  208.5840  148.2610 O   0  0  0  0  0  0  0  0  0  0  0  0
  161.9380  206.0660  148.1890 C   0  0  0  0  0  0  0  0  0  0  0  0
  162.1420  207.3610  148.2270 C   0  0  0  0  0  0  0  0  0  0  0  0
  160.8310  202.0400  145.5190 N   0  0  0  0  0  1  0  0  0  0  0  0
  161.3740  204.0290  146.8230 C   0  0  0  0  0  3  0  0  0  0  0  0
  161.2480  206.2030  145.7830 C   0  0  0  0  0  3  0  0  0  0  0  0
  160.8480  205.5890  144.5940 C   0  0  0  0  0  3  0  0  0  0  0  0
  161.5190  205.4230  146.9170 C   0  0  0  0  0  0  0  0  0  0  0  0
  160.7200  204.2360  144.5360 N   0  0  0  0  0  0  0  0  0  0  0  0
  160.9740  203.4510  145.6170 C   0  0  0  0  0  0  0  0  0  0  0  0
  161.6450  207.7150  151.7520 N   0  0  1  0  0  0  0  0  0  0  0  0
  160.5430  207.0430  152.2540 O   0  0  0  0  0  0  0  0  0  0  0  0
  160.7780  206.9130  150.9190 C   0  0  2  0  0  3  0  0  0  0  0  0
  161.2410  209.0990  151.5730 C   0  0  2  0  0  3  0  0  0  0  0  0
  162.3730  209.8960  151.2180 C   0  0  2  0  0  3  0  0  0  0  0  0
  161.9560  210.3650  153.8100 O   0  0  0  0  0  0  0  0  0  0  0  0
  161.8850  209.9530  152.6640 C   0  0  0  0  0  0  0  0  0  0  0  0
  161.9380  211.0940  150.5250 N   0  0  0  0  0  1  0  0  0  0  0  0
  161.4630  204.5560  151.7080 C   0  0  0  0  0  2  0  0  0  0  0  0
  161.3600  202.3410  151.0080 C   0  0  1  0  0  3  0  0  0  0  0  0
  160.5290  201.3730  150.1880 C   0  0  0  0  0  1  0  0  0  0  0  0
  160.5490  203.4750  151.3780 N   0  0  0  0  0  0  0  0  0  0  0  0
  160.8310  202.4420  152.2570 O   0  0  0  0  0  0  0  0  0  0  0  0
  1  2  2  0  0  0  0
  2 21  1  0  0  0  0
  4  5  2  0  0  0  0
  4  1  1  0  0  0  0
  5  3  2  0  0  0  0
  6 12  1  0  0  0  0
  7 10  1  0  0  0  0
  8 10  2  0  0  0  0
  9  8  1  0  0  0  0
 10  4  1  0  0  0  0
 11  9  2  0  0  0  0
 11 12  1  0  0  0  0
 12  7  2  0  0  0  0
 13 14  1  1  0  0  0
 15  2  1  1  0  0  0
 15 13  1  0  0  0  0
 15 14  1  0  0  0  0
 16 13  1  0  0  0  0
 16 19  1  1  0  0  0
 17 20  1  6  0  0  0
 17 16  1  0  0  0  0
 17 19  1  0  0  0  0
 19 18  2  0  0  0  0
 22 23  1  6  0  0  0
 22 24  1  0  0  0  0
 22 25  1  0  0  0  0
 24 21  1  0  0  0  0
 24 25  1  0  0  0  0
M  END
>  <MODEL>
5

>  <REMARK>
 VINA RESULT:      -6.4      2.833      7.843
  Name = 
  6 active torsions:
  status: ('A' for Active; 'I' for Inactive)
    1  A    between atoms: N_6  and  C_7
    2  A    between atoms: C_11  and  C_12
    3  A    between atoms: C_12  and  C_15
    4  A    between atoms: C_16  and  C_25
    5  A    between atoms: N_21  and  C_23
    6  A    between atoms: C_23  and  C_25
                            x       y       z     vdW  Elec       q    Type
                         _______ _______ _______ _____ _____    ______ ____

>  <TORSDO>
F 6

$$$$
=
 OpenBabel11052410383D

 25 28  0  0  1  0  0  0  0  0999 V2000
  162.1220  208.5330  150.9830 C   0  0  0  0  0  3  0  0  0  0  0  0
  162.1160  208.2490  149.6720 C   0  0  0  0  0  0  0  0  0  0  0  0
  162.0040  205.1120  151.9030 O   0  0  0  0  0  0  0  0  0  0  0  0
  161.7630  207.6410  152.1140 C   0  0  0  0  0  0  0  0  0  0  0  0
  161.8890  206.3400  152.0050 C   0  0  0  0  0  0  0  0  0  0  0  0
  159.9190  207.2150  156.6950 N   0  0  0  0  0  1  0  0  0  0  0  0
  160.8230  207.4360  154.4400 C   0  0  0  0  0  3  0  0  0  0  0  0
  160.7120  209.5720  153.3190 C   0  0  0  0  0  3  0  0  0  0  0  0
  160.0850  210.1080  154.4460 C   0  0  0  0  0  3  0  0  0  0  0  0
  161.0880  208.2200  153.3040 C   0  0  0  0  0  0  0  0  0  0  0  0
  159.8400  209.3210  155.5290 N   0  0  0  0  0  0  0  0  0  0  0  0
  160.1930  208.0080  155.5470 C   0  0  0  0  0  0  0  0  0  0  0  0
  161.2320  207.0320  147.7880 N   0  0  1  0  0  0  0  0  0  0  0  0
  160.4320  206.8060  148.8960 O   0  0  0  0  0  0  0  0  0  0  0  0
  161.7720  206.8950  149.1220 C   0  0  2  0  0  3  0  0  0  0  0  0
  161.4020  205.7480  147.1290 C   0  0  2  0  0  3  0  0  0  0  0  0
  162.3400  205.8690  146.0580 C   0  0  2  0  0  3  0  0  0  0  0  0
  159.9360  205.8690  144.9040 O   0  0  0  0  0  0  0  0  0  0  0  0
  160.8540  205.8400  145.7060 C   0  0  0  0  0  0  0  0  0  0  0  0
  162.9210  204.5740  145.7600 N   0  0  0  0  0  1  0  0  0  0  0  0
  162.4120  209.3600  148.7210 C   0  0  0  0  0  2  0  0  0  0  0  0
  162.1610  211.6440  148.3660 C   0  0  1  0  0  3  0  0  0  0  0  0
  161.6640  212.9190  149.0210 C   0  0  0  0  0  1  0  0  0  0  0  0
  161.5700  210.5050  149.0250 N   0  0  0  0  0  0  0  0  0  0  0  0
  161.1100  210.9850  147.8100 O   0  0  0  0  0  0  0  0  0  0  0  0
  1  4  1  0  0  0  0
  2  1  2  0  0  0  0
  3  5  2  0  0  0  0
  4 10  1  0  0  0  0
  5  4  2  0  0  0  0
  7 12  1  0  0  0  0
  8  9  2  0  0  0  0
  9 11  1  0  0  0  0
 10  8  1  0  0  0  0
 10  7  2  0  0  0  0
 11 12  2  0  0  0  0
 12  6  1  0  0  0  0
 13 14  1  1  0  0  0
 13 15  1  0  0  0  0
 14 15  1  0  0  0  0
 15  2  1  1  0  0  0
 16 19  1  6  0  0  0
 16 13  1  0  0  0  0
 17 20  1  6  0  0  0
 17 16  1  0  0  0  0
 18 19  2  0  0  0  0
 19 17  1  0  0  0  0
 21 24  1  0  0  0  0
 21  2  1  0  0  0  0
 22 23  1  1  0  0  0
 22 24  1  0  0  0  0
 25 22  1  0  0  0  0
 25 24  1  0  0  0  0
M  END
>  <MODEL>
6

>  <REMARK>
 VINA RESULT:      -6.2      1.308      1.420
  Name = 
  6 active torsions:
  status: ('A' for Active; 'I' for Inactive)
    1  A    between atoms: N_6  and  C_7
    2  A    between atoms: C_11  and  C_12
    3  A    between atoms: C_12  and  C_15
    4  A    between atoms: C_16  and  C_25
    5  A    between atoms: N_21  and  C_23
    6  A    between atoms: C_23  and  C_25
                            x       y       z     vdW  Elec       q    Type
                         _______ _______ _______ _____ _____    ______ ____

>  <TORSDO>
F 6

$$$$
=
 OpenBabel11052410383D

 25 28  0  0  1  0  0  0  0  0999 V2000
  161.3110  205.4610  151.4900 C   0  0  0  0  0  3  0  0  0  0  0  0
  161.0780  204.6560  150.4430 C   0  0  0  0  0  0  0  0  0  0  0  0
  162.3350  208.2480  149.5550 O   0  0  0  0  0  0  0  0  0  0  0  0
  161.3520  206.9450  151.5120 C   0  0  0  0  0  0  0  0  0  0  0  0
  161.8560  207.6140  150.5040 C   0  0  0  0  0  0  0  0  0  0  0  0
  160.3140  206.9630  156.3590 N   0  0  0  0  0  1  0  0  0  0  0  0
  160.8220  206.9660  153.9730 C   0  0  0  0  0  3  0  0  0  0  0  0
  160.8010  209.0500  152.7560 C   0  0  0  0  0  3  0  0  0  0  0  0
  160.4630  209.7140  153.9370 C   0  0  0  0  0  3  0  0  0  0  0  0
  160.9830  207.6590  152.7620 C   0  0  0  0  0  0  0  0  0  0  0  0
  160.3110  209.0130  155.0930 N   0  0  0  0  0  0  0  0  0  0  0  0
  160.4820  207.6640  155.1330 C   0  0  0  0  0  0  0  0  0  0  0  0
  161.6330  204.5450  148.0990 N   0  0  1  0  0  0  0  0  0  0  0  0
  161.8200  205.8390  148.5530 O   0  0  0  0  0  0  0  0  0  0  0  0
  160.7550  205.1630  149.0670 C   0  0  2  0  0  3  0  0  0  0  0  0
  160.9770  204.6480  146.8070 C   0  0  2  0  0  3  0  0  0  0  0  0
  161.4470  203.6160  145.9360 C   0  0  2  0  0  3  0  0  0  0  0  0
  162.7390  205.8250  145.1860 O   0  0  0  0  0  0  0  0  0  0  0  0
  162.0140  205.0220  145.7490 C   0  0  0  0  0  0  0  0  0  0  0  0
  160.4670  203.3600  144.8980 N   0  0  0  0  0  1  0  0  0  0  0  0
  161.2050  203.1850  150.6570 C   0  0  0  0  0  2  0  0  0  0  0  0
  161.3060  201.1780  149.4870 C   0  0  1  0  0  3  0  0  0  0  0  0
  161.2020  200.5880  148.0930 C   0  0  0  0  0  1  0  0  0  0  0  0
  160.6700  202.4730  149.5080 N   0  0  0  0  0  0  0  0  0  0  0  0
  160.0580  201.3340  150.0030 O   0  0  0  0  0  0  0  0  0  0  0  0
  1  4  1  0  0  0  0
  2 21  1  0  0  0  0
  2  1  2  0  0  0  0
  3  5  2  0  0  0  0
  4 10  1  0  0  0  0
  5  4  2  0  0  0  0
  7 12  1  0  0  0  0
  8 10  1  0  0  0  0
  8  9  2  0  0  0  0
  9 11  1  0  0  0  0
 10  7  2  0  0  0  0
 11 12  2  0  0  0  0
 12  6  1  0  0  0  0
 13 14  1  6  0  0  0
 13 15  1  0  0  0  0
 14 15  1  0  0  0  0
 15  2  1  1  0  0  0
 16 19  1  6  0  0  0
 16 13  1  0  0  0  0
 17 20  1  6  0  0  0
 17 16  1  0  0  0  0
 18 19  2  0  0  0  0
 19 17  1  0  0  0  0
 22 23  1  6  0  0  0
 22 24  1  0  0  0  0
 22 25  1  0  0  0  0
 24 25  1  0  0  0  0
 24 21  1  0  0  0  0
M  END
>  <MODEL>
7

>  <REMARK>
 VINA RESULT:      -6.2      2.368      4.721
  Name = 
  6 active torsions:
  status: ('A' for Active; 'I' for Inactive)
    1  A    between atoms: N_6  and  C_7
    2  A    between atoms: C_11  and  C_12
    3  A    between atoms: C_12  and  C_15
    4  A    between atoms: C_16  and  C_25
    5  A    between atoms: N_21  and  C_23
    6  A    between atoms: C_23  and  C_25
                            x       y       z     vdW  Elec       q    Type
                         _______ _______ _______ _____ _____    ______ ____

>  <TORSDO>
F 6

$$$$
=
 OpenBabel11052410383D

 25 28  0  0  1  0  0  0  0  0999 V2000
  162.5350  207.3190  148.0750 C   0  0  0  0  0  3  0  0  0  0  0  0
  162.0500  206.0940  147.8200 C   0  0  0  0  0  0  0  0  0  0  0  0
  161.8160  210.7530  148.5800 O   0  0  0  0  0  0  0  0  0  0  0  0
  162.0970  208.2770  149.1210 C   0  0  0  0  0  0  0  0  0  0  0  0
  161.9510  209.5500  148.8410 C   0  0  0  0  0  0  0  0  0  0  0  0
  160.2380  208.6650  153.6990 N   0  0  0  0  0  1  0  0  0  0  0  0
  161.1600  208.4650  151.4490 C   0  0  0  0  0  3  0  0  0  0  0  0
  162.7430  206.7080  150.9650 C   0  0  0  0  0  3  0  0  0  0  0  0
  162.6400  206.2780  152.2900 C   0  0  0  0  0  3  0  0  0  0  0  0
  162.0000  207.8160  150.5300 C   0  0  0  0  0  0  0  0  0  0  0  0
  161.8190  206.9300  153.1570 N   0  0  0  0  0  0  0  0  0  0  0  0
  161.0840  208.0060  152.7660 C   0  0  0  0  0  0  0  0  0  0  0  0
  161.3770  204.1320  149.0500 N   0  0  1  0  0  0  0  0  0  0  0  0
  160.4990  204.3380  147.9990 O   0  0  0  0  0  0  0  0  0  0  0  0
  160.9610  205.4520  148.6310 C   0  0  2  0  0  3  0  0  0  0  0  0
  160.5680  203.7810  150.2050 C   0  0  2  0  0  3  0  0  0  0  0  0
  161.3970  203.2330  151.2320 C   0  0  2  0  0  3  0  0  0  0  0  0
  160.2170  201.1400  150.0740 O   0  0  0  0  0  0  0  0  0  0  0  0
  160.5800  202.2630  150.3800 C   0  0  0  0  0  0  0  0  0  0  0  0
  160.7510  203.3850  152.5220 N   0  0  0  0  0  1  0  0  0  0  0  0
  162.5880  205.3690  146.6330 C   0  0  0  0  0  2  0  0  0  0  0  0
  161.4390  205.1550  144.6230 C   0  0  1  0  0  3  0  0  0  0  0  0
  161.4460  205.6080  143.1750 C   0  0  0  0  0  1  0  0  0  0  0  0
  162.2170  206.0740  145.4170 N   0  0  0  0  0  0  0  0  0  0  0  0
  160.8330  206.1010  145.3880 O   0  0  0  0  0  0  0  0  0  0  0  0
  1  4  1  0  0  0  0
  2  1  2  0  0  0  0
  3  5  2  0  0  0  0
  4 10  1  0  0  0  0
  5  4  2  0  0  0  0
  7 12  1  0  0  0  0
  8  9  2  0  0  0  0
  9 11  1  0  0  0  0
 10  8  1  0  0  0  0
 10  7  2  0  0  0  0
 12 11  2  0  0  0  0
 12  6  1  0  0  0  0
 13 14  1  6  0  0  0
 13 16  1  0  0  0  0
 14 15  1  0  0  0  0
 15  2  1  6  0  0  0
 15 13  1  0  0  0  0
 16 19  1  6  0  0  0
 16 17  1  0  0  0  0
 17 20  1  1  0  0  0
 18 19  2  0  0  0  0
 19 17  1  0  0  0  0
 21  2  1  0  0  0  0
 22 23  1  6  0  0  0
 22 25  1  0  0  0  0
 22 24  1  0  0  0  0
 24 21  1  0  0  0  0
 25 24  1  0  0  0  0
M  END
>  <MODEL>
8

>  <REMARK>
 VINA RESULT:      -6.1      2.280      4.392
  Name = 
  6 active torsions:
  status: ('A' for Active; 'I' for Inactive)
    1  A    between atoms: N_6  and  C_7
    2  A    between atoms: C_11  and  C_12
    3  A    between atoms: C_12  and  C_15
    4  A    between atoms: C_16  and  C_25
    5  A    between atoms: N_21  and  C_23
    6  A    between atoms: C_23  and  C_25
                            x       y       z     vdW  Elec       q    Type
                         _______ _______ _______ _____ _____    ______ ____

>  <TORSDO>
F 6

$$$$
=
 OpenBabel11052410383D

 25 28  0  0  1  0  0  0  0  0999 V2000
  161.9550  209.1940  152.4300 C   0  0  0  0  0  3  0  0  0  0  0  0
  161.0480  209.7350  153.2580 C   0  0  0  0  0  0  0  0  0  0  0  0
  162.1530  211.1620  149.4890 O   0  0  0  0  0  0  0  0  0  0  0  0
  161.8960  209.0890  150.9500 C   0  0  0  0  0  0  0  0  0  0  0  0
  162.0300  210.1560  150.2000 C   0  0  0  0  0  0  0  0  0  0  0  0
  160.7040  204.2910  151.3050 N   0  0  0  0  0  1  0  0  0  0  0  0
  161.2900  206.6520  151.1180 C   0  0  0  0  0  3  0  0  0  0  0  0
  161.3220  207.7010  148.9440 C   0  0  0  0  0  3  0  0  0  0  0  0
  160.9450  206.4830  148.3730 C   0  0  0  0  0  3  0  0  0  0  0  0
  161.5020  207.7970  150.3320 C   0  0  0  0  0  0  0  0  0  0  0  0
  160.7500  205.3920  149.1620 N   0  0  0  0  0  0  0  0  0  0  0  0
  160.9140  205.4520  150.5110 C   0  0  0  0  0  0  0  0  0  0  0  0
  159.9690  211.8300  152.7490 N   0  0  1  0  0  0  0  0  0  0  0  0
  159.2740  211.1910  153.7620 O   0  0  0  0  0  0  0  0  0  0  0  0
  159.7870  210.3970  152.7820 C   0  0  2  0  0  3  0  0  0  0  0  0
  158.9740  212.3620  151.8340 C   0  0  2  0  0  3  0  0  0  0  0  0
  159.4900  213.5160  151.1670 C   0  0  2  0  0  3  0  0  0  0  0  0
  157.8800  214.4530  153.0770 O   0  0  0  0  0  0  0  0  0  0  0  0
  158.5210  213.7340  152.3290 C   0  0  0  0  0  0  0  0  0  0  0  0
  158.7830  213.7250  149.9180 N   0  0  0  0  0  1  0  0  0  0  0  0
  161.2900  209.6140  154.7250 C   0  0  0  0  0  2  0  0  0  0  0  0
  160.8160  208.4170  156.6610 C   0  0  1  0  0  3  0  0  0  0  0  0
  160.3450  207.0630  157.1570 C   0  0  0  0  0  1  0  0  0  0  0  0
  160.4290  208.5830  155.2810 N   0  0  0  0  0  0  0  0  0  0  0  0
  159.7370  209.1730  156.3250 O   0  0  0  0  0  0  0  0  0  0  0  0
  1  2  2  0  0  0  0
  2 21  1  0  0  0  0
  3  5  2  0  0  0  0
  4  1  1  0  0  0  0
  5  4  2  0  0  0  0
  8 10  1  0  0  0  0
  9  8  2  0  0  0  0
  9 11  1  0  0  0  0
 10  4  1  0  0  0  0
 10  7  2  0  0  0  0
 11 12  2  0  0  0  0
 12  7  1  0  0  0  0
 12  6  1  0  0  0  0
 13 15  1  0  0  0  0
 13 14  1  1  0  0  0
 15  2  1  1  0  0  0
 15 14  1  0  0  0  0
 16 19  1  1  0  0  0
 16 13  1  0  0  0  0
 17 20  1  6  0  0  0
 17 16  1  0  0  0  0
 17 19  1  0  0  0  0
 19 18  2  0  0  0  0
 21 24  1  0  0  0  0
 22 23  1  1  0  0  0
 24 25  1  0  0  0  0
 24 22  1  0  0  0  0
 25 22  1  0  0  0  0
M  END
>  <MODEL>
9

>  <REMARK>
 VINA RESULT:      -6.1      3.219      7.472
  Name = 
  6 active torsions:
  status: ('A' for Active; 'I' for Inactive)
    1  A    between atoms: N_6  and  C_7
    2  A    between atoms: C_11  and  C_12
    3  A    between atoms: C_12  and  C_15
    4  A    between atoms: C_16  and  C_25
    5  A    between atoms: N_21  and  C_23
    6  A    between atoms: C_23  and  C_25
                            x       y       z     vdW  Elec       q    Type
                         _______ _______ _______ _____ _____    ______ ____

>  <TORSDO>
F 6

$$$$
