=
 OpenBabel11042421433D

 47 53  0  0  1  0  0  0  0  0999 V2000
  162.1670  210.4900  149.1410 C   0  0  2  0  0  3  0  0  0  0  0  0
  160.3620  213.4950  150.0280 C   0  0  0  0  0  2  0  0  0  0  0  0
  161.1490  211.1450  150.0590 C   0  0  2  0  0  3  0  0  0  0  0  0
  161.0810  212.5000  149.5060 C   0  0  0  0  0  0  0  0  0  0  0  0
  162.7760  211.4480  148.2930 O   0  0  0  0  0  0  0  0  0  0  0  0
  162.0980  212.6740  148.4430 C   0  0  1  0  0  3  0  0  0  0  0  0
  161.8570  213.0660  142.4370 N   0  0  0  0  0  0  0  0  0  0  0  0
  160.7430  212.8810  144.4600 C   0  0  0  0  0  0  0  0  0  0  0  0
  162.5130  213.0940  146.0200 N   0  0  0  0  0  0  0  0  0  0  0  0
  163.6180  214.4330  143.4420 C   0  0  0  0  0  1  0  0  0  0  0  0
  160.2500  212.2690  146.7220 C   0  0  0  0  0  2  0  0  0  0  0  0
  159.8540  212.5010  145.3210 N   0  0  0  0  0  0  0  0  0  0  0  0
  161.5080  213.0870  147.0980 C   0  0  1  0  0  3  0  0  0  0  0  0
  162.0920  213.0730  144.7940 C   0  0  0  0  0  0  0  0  0  0  0  0
  162.8670  213.1220  143.5260 C   0  0  1  0  0  3  0  0  0  0  0  0
  160.6020  212.8850  143.0620 N   0  0  0  0  0  2  0  0  0  0  0  0
  162.1170  211.8620  141.6660 C   0  0  0  0  0  2  0  0  0  0  0  0
  162.6360  212.2320  140.2940 C   0  0  0  0  0  2  0  0  0  0  0  0
  163.1650  211.1010  139.6610 O   0  0  0  0  0  0  0  0  0  0  0  0
  161.3890  209.1540  138.7970 O   0  0  0  0  0  1  0  0  0  0  0  0
  160.7720  211.8220  138.4600 O   0  0  0  0  0  1  0  0  0  0  0  0
  162.7010  210.6800  137.1190 O   0  0  0  0  0  0  0  0  0  0  0  0
  162.0290  210.6870  138.4720 P   0  0  0  0  0  0  0  0  0  0  0  0
  161.5170  209.4580  148.3470 N   0  0  0  0  0  2  0  0  0  0  0  0
  162.1860  208.1930  148.5970 C   0  0  1  0  0  3  0  0  0  0  0  0
  162.2890  207.9170  150.0960 C   0  0  0  0  0  2  0  0  0  0  0  0
  161.1700  207.1080  150.5510 N   0  0  0  0  0  2  0  0  0  0  0  0
  161.5720  205.0670  152.0470 N   0  0  0  0  0  0  0  0  0  0  0  0
  161.3880  205.9890  151.3700 C   0  0  0  0  0  0  0  0  0  0  0  0
  161.4190  207.0830  147.9040 C   0  0  0  0  0  2  0  0  0  0  0  0
  161.6770  204.7210  147.2000 C   0  0  0  0  0  2  0  0  0  0  0  0
  162.3710  206.0670  147.3120 C   0  0  0  0  0  3  0  0  0  0  0  0
  161.8160  205.6110  145.9780 C   0  0  0  0  0  2  0  0  0  0  0  0
  161.6920  211.1830  151.4880 C   0  0  0  0  0  2  0  0  0  0  0  0
  160.8020  210.4870  152.4000 N   0  0  0  0  0  2  0  0  0  0  0  0
  157.7340  211.5840  153.8260 O   0  0  0  0  0  0  0  0  0  0  0  0
  160.0500  211.4920  153.1380 C   0  0  1  0  0  3  0  0  0  0  0  0
  159.9080  213.6150  156.1290 C   0  0  0  0  0  2  0  0  0  0  0  0
  158.5920  211.8340  154.9060 C   0  0  2  0  0  0  0  0  0  0  0  0
  158.5860  211.5130  152.6890 C   0  0  0  0  0  2  0  0  0  0  0  0
  159.3150  211.4760  157.2600 C   0  0  0  0  0  2  0  0  0  0  0  0
  160.9810  211.6020  155.4230 O   0  0  0  0  0  0  0  0  0  0  0  0
  158.1300  211.3040  156.2650 C   0  0  0  0  0  2  0  0  0  0  0  0
  159.7930  209.7520  154.7390 O   0  0  0  0  0  1  0  0  0  0  0  0
  160.4820  212.2690  156.5860 C   0  0  1  0  0  3  0  0  0  0  0  0
  158.8170  213.3550  155.0750 C   0  0  0  0  0  2  0  0  0  0  0  0
  159.9150  211.1400  154.5940 C   0  0  2  0  0  0  0  0  0  0  0  0
  1 24  1  6  0  0  0
  1  3  1  0  0  0  0
  3 34  1  1  0  0  0
  4  2  2  0  0  0  0
  4  3  1  0  0  0  0
  5  1  1  0  0  0  0
  6  5  1  6  0  0  0
  6  4  1  0  0  0  0
  7 16  1  0  0  0  0
  7 15  1  0  0  0  0
  8 14  1  0  0  0  0
  8 12  2  0  0  0  0
  9 13  1  0  0  0  0
 12 11  1  0  0  0  0
 13 11  1  6  0  0  0
 13  6  1  0  0  0  0
 14  9  2  0  0  0  0
 15 10  1  1  0  0  0
 15 14  1  0  0  0  0
 16  8  1  0  0  0  0
 17  7  1  0  0  0  0
 18 17  1  0  0  0  0
 19 18  1  0  0  0  0
 21 23  1  0  0  0  0
 22 23  2  0  0  0  0
 23 20  1  0  0  0  0
 23 19  1  0  0  0  0
 24 25  1  0  0  0  0
 25 30  1  6  0  0  0
 25 26  1  0  0  0  0
 26 27  1  0  0  0  0
 27 29  1  0  0  0  0
 29 28  3  0  0  0  0
 31 32  1  0  0  0  0
 32 30  1  0  0  0  0
 33 31  1  0  0  0  0
 33 32  1  0  0  0  0
 34 35  1  0  0  0  0
 36 39  1  0  0  0  0
 37 35  1  6  0  0  0
 37 47  1  0  0  0  0
 39 46  1  1  0  0  0
 39 43  1  0  0  0  0
 40 37  1  0  0  0  0
 40 36  1  0  0  0  0
 42 45  1  0  0  0  0
 43 41  1  0  0  0  0
 45 38  1  6  0  0  0
 45 41  1  0  0  0  0
 46 38  1  0  0  0  0
 47 44  1  1  0  0  0
 47 39  1  0  0  0  0
 47 42  1  0  0  0  0
M  END
>  <MODEL>
1

>  <REMARK>
 VINA RESULT:      -6.2      0.000      0.000
  Name = 
  15 active torsions:
  status: ('A' for Active; 'I' for Inactive)
    1  A    between atoms: C_1  and  N_5
    2  A    between atoms: C_1  and  C_10
    3  A    between atoms: N_3  and  C_14
    4  A    between atoms: N_3  and  C_17
    5  A    between atoms: C_4  and  N_7
    6  A    between atoms: N_5  and  C_38
    7  A    between atoms: N_7  and  C_10
    8  A    between atoms: N_8  and  C_22
    9  A    between atoms: C_10  and  C_47
   10  A    between atoms: C_14  and  C_18
   11  A    between atoms: C_22  and  C_45
   12  A    between atoms: O_24  and  C_45
   13  A    between atoms: O_24  and  P_46
   14  A    between atoms: C_33  and  C_36
   15  A    between atoms: C_34  and  C_47
                            x       y       z     vdW  Elec       q    Type
                         _______ _______ _______ _____ _____    ______ ____

>  <TORSDO>
F 15

$$$$
=
 OpenBabel11042421433D

 47 53  0  0  1  0  0  0  0  0999 V2000
  161.0810  209.3700  152.1270 C   0  0  2  0  0  3  0  0  0  0  0  0
  161.2360  206.2610  153.9670 C   0  0  0  0  0  2  0  0  0  0  0  0
  161.4130  208.6760  153.4370 C   0  0  2  0  0  3  0  0  0  0  0  0
  161.1560  207.2730  153.1020 C   0  0  0  0  0  0  0  0  0  0  0  0
  160.4830  208.4690  151.2130 O   0  0  0  0  0  0  0  0  0  0  0  0
  160.5670  207.1680  151.7470 C   0  0  1  0  0  3  0  0  0  0  0  0
  161.4440  202.6980  147.8060 N   0  0  0  0  0  0  0  0  0  0  0  0
  161.9780  204.8290  148.5410 C   0  0  0  0  0  0  0  0  0  0  0  0
  160.7290  204.9880  150.5470 N   0  0  0  0  0  0  0  0  0  0  0  0
  161.0310  201.9280  150.0900 C   0  0  0  0  0  1  0  0  0  0  0  0
  161.7520  207.0170  149.4860 C   0  0  0  0  0  2  0  0  0  0  0  0
  162.3000  206.0820  148.4860 N   0  0  0  0  0  0  0  0  0  0  0  0
  161.3740  206.2890  150.7980 C   0  0  1  0  0  3  0  0  0  0  0  0
  161.1080  204.3080  149.5100 C   0  0  0  0  0  0  0  0  0  0  0  0
  160.6710  202.9640  149.0480 C   0  0  1  0  0  3  0  0  0  0  0  0
  162.1840  203.8710  147.5340 N   0  0  0  0  0  2  0  0  0  0  0  0
  160.4860  202.5480  146.7230 C   0  0  0  0  0  2  0  0  0  0  0  0
  161.1270  202.9450  145.4100 C   0  0  0  0  0  2  0  0  0  0  0  0
  160.2910  203.8300  144.7180 O   0  0  0  0  0  0  0  0  0  0  0  0
  161.3040  205.7050  142.9430 O   0  0  0  0  0  0  0  0  0  0  0  0
  160.4220  206.5060  145.4310 O   0  0  0  0  0  1  0  0  0  0  0  0
  162.5700  205.0480  145.1410 O   0  0  0  0  0  1  0  0  0  0  0  0
  161.1870  205.2630  144.5720 P   0  0  0  0  0  0  0  0  0  0  0  0
  162.2920  209.9380  151.5530 N   0  0  0  0  0  2  0  0  0  0  0  0
  161.9330  211.1280  150.8030 C   0  0  1  0  0  3  0  0  0  0  0  0
  161.8030  210.8160  149.3130 C   0  0  0  0  0  2  0  0  0  0  0  0
  162.8030  211.5390  148.5440 N   0  0  0  0  0  2  0  0  0  0  0  0
  162.0990  213.4110  146.9410 N   0  0  0  0  0  0  0  0  0  0  0  0
  162.4190  212.5660  147.6660 C   0  0  0  0  0  0  0  0  0  0  0  0
  160.6290  211.6810  151.3450 C   0  0  0  0  0  2  0  0  0  0  0  0
  158.7220  213.2070  150.9250 C   0  0  0  0  0  2  0  0  0  0  0  0
  160.0920  212.7670  150.4390 C   0  0  0  0  0  3  0  0  0  0  0  0
  159.9490  214.0400  151.2480 C   0  0  0  0  0  2  0  0  0  0  0  0
  160.4500  209.1440  154.5290 C   0  0  0  0  0  2  0  0  0  0  0  0
  160.5950  210.5680  154.7740 N   0  0  0  0  0  2  0  0  0  0  0  0
  159.3390  212.7860  157.2530 O   0  0  0  0  0  0  0  0  0  0  0  0
  159.5130  210.9780  155.6570 C   0  0  1  0  0  3  0  0  0  0  0  0
  155.9500  211.8090  155.9430 C   0  0  0  0  0  2  0  0  0  0  0  0
  158.2460  212.7790  156.3740 C   0  0  2  0  0  0  0  0  0  0  0  0
  160.0690  211.6070  156.9400 C   0  0  0  0  0  2  0  0  0  0  0  0
  156.6570  213.9280  154.8410 C   0  0  0  0  0  2  0  0  0  0  0  0
  157.6280  211.7220  154.2460 O   0  0  0  0  0  0  0  0  0  0  0  0
  157.6910  214.1510  155.9850 C   0  0  0  0  0  2  0  0  0  0  0  0
  159.5580  212.9730  154.3640 O   0  0  0  0  0  1  0  0  0  0  0  0
  156.4220  212.4000  154.6100 C   0  0  1  0  0  3  0  0  0  0  0  0
  157.0700  211.9810  156.9850 C   0  0  0  0  0  2  0  0  0  0  0  0
  158.7150  212.1160  155.0830 C   0  0  2  0  0  0  0  0  0  0  0  0
  1 24  1  6  0  0  0
  1  3  1  0  0  0  0
  3 34  1  1  0  0  0
  4  3  1  0  0  0  0
  4  2  2  0  0  0  0
  5  1  1  0  0  0  0
  6  5  1  6  0  0  0
  6  4  1  0  0  0  0
  7 15  1  0  0  0  0
  8 14  1  0  0  0  0
  9 13  1  0  0  0  0
 12  8  2  0  0  0  0
 12 11  1  0  0  0  0
 13 11  1  6  0  0  0
 13  6  1  0  0  0  0
 14  9  2  0  0  0  0
 15 14  1  0  0  0  0
 15 10  1  1  0  0  0
 16  7  1  0  0  0  0
 16  8  1  0  0  0  0
 17  7  1  0  0  0  0
 18 17  1  0  0  0  0
 19 18  1  0  0  0  0
 20 23  2  0  0  0  0
 23 19  1  0  0  0  0
 23 22  1  0  0  0  0
 23 21  1  0  0  0  0
 25 26  1  6  0  0  0
 25 30  1  0  0  0  0
 25 24  1  0  0  0  0
 27 26  1  0  0  0  0
 28 29  3  0  0  0  0
 29 27  1  0  0  0  0
 31 33  1  0  0  0  0
 32 31  1  0  0  0  0
 32 33  1  0  0  0  0
 32 30  1  0  0  0  0
 34 35  1  0  0  0  0
 37 35  1  6  0  0  0
 37 40  1  0  0  0  0
 38 46  1  0  0  0  0
 39 43  1  6  0  0  0
 39 46  1  0  0  0  0
 39 36  1  0  0  0  0
 40 36  1  0  0  0  0
 41 43  1  0  0  0  0
 42 45  1  0  0  0  0
 42 47  1  0  0  0  0
 45 41  1  1  0  0  0
 45 38  1  0  0  0  0
 47 44  1  6  0  0  0
 47 37  1  0  0  0  0
 47 39  1  0  0  0  0
M  END
>  <MODEL>
2

>  <REMARK>
 VINA RESULT:      -5.8      3.464      7.257
  Name = 
  15 active torsions:
  status: ('A' for Active; 'I' for Inactive)
    1  A    between atoms: C_1  and  N_5
    2  A    between atoms: C_1  and  C_10
    3  A    between atoms: N_3  and  C_14
    4  A    between atoms: N_3  and  C_17
    5  A    between atoms: C_4  and  N_7
    6  A    between atoms: N_5  and  C_38
    7  A    between atoms: N_7  and  C_10
    8  A    between atoms: N_8  and  C_22
    9  A    between atoms: C_10  and  C_47
   10  A    between atoms: C_14  and  C_18
   11  A    between atoms: C_22  and  C_45
   12  A    between atoms: O_24  and  C_45
   13  A    between atoms: O_24  and  P_46
   14  A    between atoms: C_33  and  C_36
   15  A    between atoms: C_34  and  C_47
                            x       y       z     vdW  Elec       q    Type
                         _______ _______ _______ _____ _____    ______ ____

>  <TORSDO>
F 15

$$$$
=
 OpenBabel11042421433D

 47 53  0  0  1  0  0  0  0  0999 V2000
  161.9170  208.4200  151.4290 C   0  0  2  0  0  3  0  0  0  0  0  0
  160.2180  207.9160  154.5810 C   0  0  0  0  0  2  0  0  0  0  0  0
  160.8940  207.6180  152.2140 C   0  0  2  0  0  3  0  0  0  0  0  0
  160.9110  208.3040  153.5090 C   0  0  0  0  0  0  0  0  0  0  0  0
  162.6040  209.3290  152.2700 O   0  0  0  0  0  0  0  0  0  0  0  0
  161.9780  209.3320  153.5320 C   0  0  1  0  0  3  0  0  0  0  0  0
  158.0250  213.8750  153.4310 N   0  0  0  0  0  0  0  0  0  0  0  0
  159.6950  212.7220  154.5480 C   0  0  0  0  0  0  0  0  0  0  0  0
  160.3890  211.1520  152.9150 N   0  0  0  0  0  0  0  0  0  0  0  0
  159.0530  213.4170  151.2590 C   0  0  0  0  0  1  0  0  0  0  0  0
  161.0720  210.9210  155.3180 C   0  0  0  0  0  2  0  0  0  0  0  0
  160.3440  212.1860  155.5310 N   0  0  0  0  0  0  0  0  0  0  0  0
  161.4650  210.7360  153.8330 C   0  0  1  0  0  3  0  0  0  0  0  0
  159.6340  212.1450  153.2710 C   0  0  0  0  0  0  0  0  0  0  0  0
  158.5210  212.7990  152.5330 C   0  0  1  0  0  3  0  0  0  0  0  0
  158.7460  213.7540  154.6400 N   0  0  0  0  0  2  0  0  0  0  0  0
  156.6370  213.5760  153.7400 C   0  0  0  0  0  2  0  0  0  0  0  0
  156.4230  213.6150  155.2380 C   0  0  0  0  0  2  0  0  0  0  0  0
  155.1970  213.0220  155.5620 O   0  0  0  0  0  0  0  0  0  0  0  0
  154.5200  210.9360  157.2610 O   0  0  0  0  0  1  0  0  0  0  0  0
  155.4550  210.3920  154.7240 O   0  0  0  0  0  0  0  0  0  0  0  0
  157.0010  211.4110  156.5650 O   0  0  0  0  0  1  0  0  0  0  0  0
  155.5830  211.4420  156.0450 P   0  0  0  0  0  0  0  0  0  0  0  0
  161.2540  209.1380  150.3500 N   0  0  0  0  0  2  0  0  0  0  0  0
  161.9660  208.8740  149.1130 C   0  0  1  0  0  3  0  0  0  0  0  0
  161.3350  207.7060  148.3570 C   0  0  0  0  0  2  0  0  0  0  0  0
  162.3600  206.8270  147.8160 N   0  0  0  0  0  2  0  0  0  0  0  0
  161.9780  205.6060  145.5950 N   0  0  0  0  0  0  0  0  0  0  0  0
  162.1510  206.1560  146.6000 C   0  0  0  0  0  0  0  0  0  0  0  0
  161.9550  210.1270  148.2580 C   0  0  0  0  0  2  0  0  0  0  0  0
  162.7620  212.4690  148.1810 C   0  0  0  0  0  2  0  0  0  0  0  0
  162.2990  211.3430  149.0890 C   0  0  0  0  0  3  0  0  0  0  0  0
  161.3440  212.4610  148.7230 C   0  0  0  0  0  2  0  0  0  0  0  0
  161.3780  206.1770  152.3730 C   0  0  0  0  0  2  0  0  0  0  0  0
  162.0460  205.7180  151.1680 N   0  0  0  0  0  2  0  0  0  0  0  0
  160.2470  202.7610  151.9850 O   0  0  0  0  0  0  0  0  0  0  0  0
  161.9300  204.2680  151.1220 C   0  0  1  0  0  3  0  0  0  0  0  0
  162.0090  201.2610  149.0190 C   0  0  0  0  0  2  0  0  0  0  0  0
  160.5090  202.5050  150.6320 C   0  0  2  0  0  0  0  0  0  0  0  0
  161.2050  203.7420  152.3650 C   0  0  0  0  0  2  0  0  0  0  0  0
  159.7630  202.0630  148.2990 C   0  0  0  0  0  2  0  0  0  0  0  0
  161.6520  203.6070  148.7590 O   0  0  0  0  0  0  0  0  0  0  0  0
  159.3110  202.0630  149.7890 C   0  0  0  0  0  2  0  0  0  0  0  0
  159.9660  204.7220  149.8620 O   0  0  0  0  0  1  0  0  0  0  0  0
  161.2980  202.3400  148.1960 C   0  0  1  0  0  3  0  0  0  0  0  0
  161.5830  201.4000  150.4910 C   0  0  0  0  0  2  0  0  0  0  0  0
  161.0150  203.8090  150.0200 C   0  0  2  0  0  0  0  0  0  0  0  0
  1 24  1  6  0  0  0
  1  3  1  0  0  0  0
  1  5  1  0  0  0  0
  3 34  1  1  0  0  0
  3  4  1  0  0  0  0
  4  6  1  0  0  0  0
  4  2  2  0  0  0  0
  6  5  1  6  0  0  0
  6 13  1  0  0  0  0
  7 17  1  0  0  0  0
  7 16  1  0  0  0  0
  8 16  1  0  0  0  0
  8 12  2  0  0  0  0
  9 14  2  0  0  0  0
  9 13  1  0  0  0  0
 11 12  1  0  0  0  0
 13 11  1  1  0  0  0
 14  8  1  0  0  0  0
 15 10  1  6  0  0  0
 15 14  1  0  0  0  0
 15  7  1  0  0  0  0
 17 18  1  0  0  0  0
 18 19  1  0  0  0  0
 19 23  1  0  0  0  0
 21 23  2  0  0  0  0
 23 22  1  0  0  0  0
 23 20  1  0  0  0  0
 25 30  1  6  0  0  0
 25 24  1  0  0  0  0
 26 25  1  0  0  0  0
 27 26  1  0  0  0  0
 28 29  3  0  0  0  0
 29 27  1  0  0  0  0
 30 32  1  0  0  0  0
 31 33  1  0  0  0  0
 31 32  1  0  0  0  0
 33 32  1  0  0  0  0
 35 34  1  0  0  0  0
 36 40  1  0  0  0  0
 37 35  1  1  0  0  0
 37 40  1  0  0  0  0
 38 46  1  0  0  0  0
 39 43  1  6  0  0  0
 39 36  1  0  0  0  0
 41 43  1  0  0  0  0
 42 47  1  0  0  0  0
 45 41  1  1  0  0  0
 45 42  1  0  0  0  0
 45 38  1  0  0  0  0
 46 39  1  0  0  0  0
 47 44  1  6  0  0  0
 47 39  1  0  0  0  0
 47 37  1  0  0  0  0
M  END
>  <MODEL>
3

>  <REMARK>
 VINA RESULT:      -5.7      5.645     10.319
  Name = 
  15 active torsions:
  status: ('A' for Active; 'I' for Inactive)
    1  A    between atoms: C_1  and  N_5
    2  A    between atoms: C_1  and  C_10
    3  A    between atoms: N_3  and  C_14
    4  A    between atoms: N_3  and  C_17
    5  A    between atoms: C_4  and  N_7
    6  A    between atoms: N_5  and  C_38
    7  A    between atoms: N_7  and  C_10
    8  A    between atoms: N_8  and  C_22
    9  A    between atoms: C_10  and  C_47
   10  A    between atoms: C_14  and  C_18
   11  A    between atoms: C_22  and  C_45
   12  A    between atoms: O_24  and  C_45
   13  A    between atoms: O_24  and  P_46
   14  A    between atoms: C_33  and  C_36
   15  A    between atoms: C_34  and  C_47
                            x       y       z     vdW  Elec       q    Type
                         _______ _______ _______ _____ _____    ______ ____

>  <TORSDO>
F 15

$$$$
=
 OpenBabel11042421433D

 47 53  0  0  1  0  0  0  0  0999 V2000
  161.9860  210.3920  149.2720 C   0  0  2  0  0  3  0  0  0  0  0  0
  160.0860  213.2930  150.2950 C   0  0  0  0  0  2  0  0  0  0  0  0
  160.8940  210.9530  150.1650 C   0  0  2  0  0  3  0  0  0  0  0  0
  160.8530  212.3540  149.7390 C   0  0  0  0  0  0  0  0  0  0  0  0
  162.6490  211.4280  148.5680 O   0  0  0  0  0  0  0  0  0  0  0  0
  161.9470  212.6320  148.7790 C   0  0  1  0  0  3  0  0  0  0  0  0
  161.9620  213.2950  142.7930 N   0  0  0  0  0  0  0  0  0  0  0  0
  160.7650  213.1660  144.7720 C   0  0  0  0  0  0  0  0  0  0  0  0
  162.4930  213.0970  146.3910 N   0  0  0  0  0  0  0  0  0  0  0  0
  163.8400  214.3950  143.9090 C   0  0  0  0  0  1  0  0  0  0  0  0
  160.1250  212.5260  146.9890 C   0  0  0  0  0  2  0  0  0  0  0  0
  159.8070  212.8620  145.5890 N   0  0  0  0  0  0  0  0  0  0  0  0
  161.4590  213.1690  147.4380 C   0  0  1  0  0  3  0  0  0  0  0  0
  162.1150  213.1780  145.1530 C   0  0  0  0  0  0  0  0  0  0  0  0
  162.9340  213.1830  143.9120 C   0  0  1  0  0  3  0  0  0  0  0  0
  160.6740  213.2440  143.3730 N   0  0  0  0  0  2  0  0  0  0  0  0
  162.1010  212.1010  141.9760 C   0  0  0  0  0  2  0  0  0  0  0  0
  161.3620  212.2840  140.6680 C   0  0  0  0  0  2  0  0  0  0  0  0
  160.5070  211.1990  140.4460 O   0  0  0  0  0  0  0  0  0  0  0  0
  162.4700  211.0220  138.4950 O   0  0  0  0  0  0  0  0  0  0  0  0
  162.2370  209.0330  140.3920 O   0  0  0  0  0  1  0  0  0  0  0  0
  160.4180  209.3930  138.5520 O   0  0  0  0  0  1  0  0  0  0  0  0
  161.3790  210.1440  139.4440 P   0  0  0  0  0  0  0  0  0  0  0  0
  161.4120  209.4370  148.3360 N   0  0  0  0  0  2  0  0  0  0  0  0
  161.6030  208.0990  148.8650 C   0  0  1  0  0  3  0  0  0  0  0  0
  162.0820  207.1430  147.7740 C   0  0  0  0  0  2  0  0  0  0  0  0
  161.2760  205.9320  147.7580 N   0  0  0  0  0  2  0  0  0  0  0  0
  161.9240  203.9600  146.2550 N   0  0  0  0  0  0  0  0  0  0  0  0
  161.6310  204.8530  146.9320 C   0  0  0  0  0  0  0  0  0  0  0  0
  162.6070  208.1540  150.0010 C   0  0  0  0  0  2  0  0  0  0  0  0
  161.9000  207.2810  152.2100 C   0  0  0  0  0  2  0  0  0  0  0  0
  162.5040  206.9170  150.8650 C   0  0  0  0  0  3  0  0  0  0  0  0
  161.0390  206.6410  151.1350 C   0  0  0  0  0  2  0  0  0  0  0  0
  161.3250  210.8580  151.6300 C   0  0  0  0  0  2  0  0  0  0  0  0
  160.2590  210.3070  152.4490 N   0  0  0  0  0  2  0  0  0  0  0  0
  158.8360  210.9220  155.6490 O   0  0  0  0  0  0  0  0  0  0  0  0
  160.3540  210.9180  153.7670 C   0  0  1  0  0  3  0  0  0  0  0  0
  162.3950  211.3750  156.7830 C   0  0  0  0  0  2  0  0  0  0  0  0
  160.1260  210.5370  156.0410 C   0  0  2  0  0  0  0  0  0  0  0  0
  158.9660  211.3060  154.2860 C   0  0  0  0  0  2  0  0  0  0  0  0
  161.6910  209.0330  157.2590 C   0  0  0  0  0  2  0  0  0  0  0  0
  162.2200  209.8330  154.9680 O   0  0  0  0  0  0  0  0  0  0  0  0
  160.2040  209.4810  157.1450 C   0  0  0  0  0  2  0  0  0  0  0  0
  160.2830  208.6670  154.5310 O   0  0  0  0  0  1  0  0  0  0  0  0
  162.5980  209.9200  156.3460 C   0  0  1  0  0  3  0  0  0  0  0  0
  160.9250  211.7640  156.5420 C   0  0  0  0  0  2  0  0  0  0  0  0
  160.8050  209.9360  154.8130 C   0  0  2  0  0  0  0  0  0  0  0  0
  1 24  1  6  0  0  0
  1  3  1  0  0  0  0
  3 34  1  1  0  0  0
  4  3  1  0  0  0  0
  4  2  2  0  0  0  0
  5  1  1  0  0  0  0
  6  5  1  6  0  0  0
  6  4  1  0  0  0  0
  7 16  1  0  0  0  0
  7 15  1  0  0  0  0
  8 14  1  0  0  0  0
  8 12  2  0  0  0  0
  9 13  1  0  0  0  0
 12 11  1  0  0  0  0
 13 11  1  6  0  0  0
 13  6  1  0  0  0  0
 14  9  2  0  0  0  0
 15 10  1  1  0  0  0
 15 14  1  0  0  0  0
 16  8  1  0  0  0  0
 17  7  1  0  0  0  0
 18 17  1  0  0  0  0
 19 18  1  0  0  0  0
 20 23  2  0  0  0  0
 22 23  1  0  0  0  0
 23 21  1  0  0  0  0
 23 19  1  0  0  0  0
 24 25  1  0  0  0  0
 25 26  1  6  0  0  0
 25 30  1  0  0  0  0
 27 26  1  0  0  0  0
 28 29  3  0  0  0  0
 29 27  1  0  0  0  0
 30 32  1  0  0  0  0
 32 33  1  0  0  0  0
 32 31  1  0  0  0  0
 33 31  1  0  0  0  0
 34 35  1  0  0  0  0
 36 39  1  0  0  0  0
 37 35  1  6  0  0  0
 37 40  1  0  0  0  0
 37 47  1  0  0  0  0
 39 46  1  1  0  0  0
 39 43  1  0  0  0  0
 40 36  1  0  0  0  0
 42 45  1  0  0  0  0
 43 41  1  0  0  0  0
 45 38  1  1  0  0  0
 45 41  1  0  0  0  0
 46 38  1  0  0  0  0
 47 44  1  6  0  0  0
 47 42  1  0  0  0  0
 47 39  1  0  0  0  0
M  END
>  <MODEL>
4

>  <REMARK>
 VINA RESULT:      -5.3      1.520      2.383
  Name = 
  15 active torsions:
  status: ('A' for Active; 'I' for Inactive)
    1  A    between atoms: C_1  and  N_5
    2  A    between atoms: C_1  and  C_10
    3  A    between atoms: N_3  and  C_14
    4  A    between atoms: N_3  and  C_17
    5  A    between atoms: C_4  and  N_7
    6  A    between atoms: N_5  and  C_38
    7  A    between atoms: N_7  and  C_10
    8  A    between atoms: N_8  and  C_22
    9  A    between atoms: C_10  and  C_47
   10  A    between atoms: C_14  and  C_18
   11  A    between atoms: C_22  and  C_45
   12  A    between atoms: O_24  and  C_45
   13  A    between atoms: O_24  and  P_46
   14  A    between atoms: C_33  and  C_36
   15  A    between atoms: C_34  and  C_47
                            x       y       z     vdW  Elec       q    Type
                         _______ _______ _______ _____ _____    ______ ____

>  <TORSDO>
F 15

$$$$
=
 OpenBabel11042421433D

 47 53  0  0  1  0  0  0  0  0999 V2000
  161.9320  207.6610  150.9390 C   0  0  2  0  0  3  0  0  0  0  0  0
  161.7930  210.4970  148.7010 C   0  0  0  0  0  2  0  0  0  0  0  0
  161.4470  209.0810  150.7060 C   0  0  2  0  0  3  0  0  0  0  0  0
  161.9150  209.3330  149.3410 C   0  0  0  0  0  0  0  0  0  0  0  0
  162.7830  207.2350  149.8900 O   0  0  0  0  0  0  0  0  0  0  0  0
  162.7490  208.2040  148.8670 C   0  0  1  0  0  3  0  0  0  0  0  0
  161.4920  203.6550  145.1250 N   0  0  0  0  0  0  0  0  0  0  0  0
  160.9400  205.7400  145.9690 C   0  0  0  0  0  0  0  0  0  0  0  0
  162.7980  206.2180  147.3590 N   0  0  0  0  0  0  0  0  0  0  0  0
  163.8850  204.1100  145.3510 C   0  0  0  0  0  1  0  0  0  0  0  0
  160.6860  207.5640  147.4990 C   0  0  0  0  0  2  0  0  0  0  0  0
  160.2040  206.7170  146.3930 N   0  0  0  0  0  0  0  0  0  0  0  0
  162.2310  207.5590  147.5860 C   0  0  1  0  0  3  0  0  0  0  0  0
  162.1890  205.4300  146.5280 C   0  0  0  0  0  0  0  0  0  0  0  0
  162.5580  204.0630  146.0770 C   0  0  1  0  0  3  0  0  0  0  0  0
  160.5310  204.6900  145.1300 N   0  0  0  0  0  2  0  0  0  0  0  0
  160.8430  202.4780  145.6780 C   0  0  0  0  0  2  0  0  0  0  0  0
  161.6340  201.9620  146.8610 C   0  0  0  0  0  2  0  0  0  0  0  0
  160.9360  200.9230  147.4860 O   0  0  0  0  0  0  0  0  0  0  0  0
  160.7360  203.2120  149.0410 O   0  0  0  0  0  0  0  0  0  0  0  0
  158.8610  201.2070  149.3040 O   0  0  0  0  0  1  0  0  0  0  0  0
  161.3350  200.8790  150.0740 O   0  0  0  0  0  1  0  0  0  0  0  0
  160.4940  201.5370  149.0050 P   0  0  0  0  0  0  0  0  0  0  0  0
  160.7900  206.7650  151.0530 N   0  0  0  0  0  2  0  0  0  0  0  0
  160.8180  206.1460  152.3660 C   0  0  1  0  0  3  0  0  0  0  0  0
  162.1320  205.4010  152.5910 C   0  0  0  0  0  2  0  0  0  0  0  0
  162.0630  204.0540  152.0470 N   0  0  0  0  0  2  0  0  0  0  0  0
  160.0470  202.5510  152.5400 N   0  0  0  0  0  0  0  0  0  0  0  0
  160.9570  203.2320  152.3190 C   0  0  0  0  0  0  0  0  0  0  0  0
  160.6270  207.2160  153.4230 C   0  0  0  0  0  2  0  0  0  0  0  0
  161.2940  207.8070  155.7360 C   0  0  0  0  0  2  0  0  0  0  0  0
  160.9310  206.6680  154.8000 C   0  0  0  0  0  3  0  0  0  0  0  0
  159.9000  207.2070  155.7700 C   0  0  0  0  0  2  0  0  0  0  0  0
  162.1370  210.0310  151.6860 C   0  0  0  0  0  2  0  0  0  0  0  0
  161.2800  211.1590  152.0050 N   0  0  0  0  0  2  0  0  0  0  0  0
  161.0450  211.7290  155.5080 O   0  0  0  0  0  0  0  0  0  0  0  0
  160.6370  210.8790  153.2810 C   0  0  1  0  0  3  0  0  0  0  0  0
  157.4680  210.6300  155.1160 C   0  0  0  0  0  2  0  0  0  0  0  0
  159.6900  211.8380  155.1650 C   0  0  2  0  0  0  0  0  0  0  0  0
  161.6380  211.0100  154.4330 C   0  0  0  0  0  2  0  0  0  0  0  0
  157.5600  213.1180  155.0270 C   0  0  0  0  0  2  0  0  0  0  0  0
  158.3060  211.6820  153.1430 O   0  0  0  0  0  0  0  0  0  0  0  0
  158.9590  213.0680  155.7080 C   0  0  0  0  0  2  0  0  0  0  0  0
  160.0520  213.1820  153.1990 O   0  0  0  0  0  1  0  0  0  0  0  0
  157.3230  211.8290  154.1730 C   0  0  1  0  0  3  0  0  0  0  0  0
  158.9070  210.6000  155.6620 C   0  0  0  0  0  2  0  0  0  0  0  0
  159.6200  211.9260  153.6430 C   0  0  2  0  0  0  0  0  0  0  0  0
  1 24  1  6  0  0  0
  2  4  2  0  0  0  0
  3  1  1  0  0  0  0
  3 34  1  1  0  0  0
  4  3  1  0  0  0  0
  5  1  1  0  0  0  0
  6  4  1  1  0  0  0
  6  5  1  0  0  0  0
  7 16  1  0  0  0  0
  7 17  1  0  0  0  0
  7 15  1  0  0  0  0
  8 12  2  0  0  0  0
  8 14  1  0  0  0  0
  9 13  1  0  0  0  0
 12 11  1  0  0  0  0
 13 11  1  1  0  0  0
 13  6  1  0  0  0  0
 14  9  2  0  0  0  0
 15 10  1  6  0  0  0
 15 14  1  0  0  0  0
 16  8  1  0  0  0  0
 17 18  1  0  0  0  0
 18 19  1  0  0  0  0
 19 23  1  0  0  0  0
 23 20  2  0  0  0  0
 23 21  1  0  0  0  0
 23 22  1  0  0  0  0
 24 25  1  0  0  0  0
 25 26  1  1  0  0  0
 25 30  1  0  0  0  0
 27 29  1  0  0  0  0
 27 26  1  0  0  0  0
 29 28  3  0  0  0  0
 30 32  1  0  0  0  0
 31 33  1  0  0  0  0
 32 31  1  0  0  0  0
 32 33  1  0  0  0  0
 34 35  1  0  0  0  0
 37 35  1  6  0  0  0
 37 47  1  0  0  0  0
 37 40  1  0  0  0  0
 38 46  1  0  0  0  0
 39 36  1  0  0  0  0
 39 46  1  1  0  0  0
 39 43  1  0  0  0  0
 40 36  1  0  0  0  0
 41 43  1  0  0  0  0
 42 47  1  0  0  0  0
 42 45  1  0  0  0  0
 45 41  1  1  0  0  0
 45 38  1  0  0  0  0
 47 44  1  6  0  0  0
 47 39  1  0  0  0  0
M  END
>  <MODEL>
5

>  <REMARK>
 VINA RESULT:      -4.8      5.307      7.188
  Name = 
  15 active torsions:
  status: ('A' for Active; 'I' for Inactive)
    1  A    between atoms: C_1  and  N_5
    2  A    between atoms: C_1  and  C_10
    3  A    between atoms: N_3  and  C_14
    4  A    between atoms: N_3  and  C_17
    5  A    between atoms: C_4  and  N_7
    6  A    between atoms: N_5  and  C_38
    7  A    between atoms: N_7  and  C_10
    8  A    between atoms: N_8  and  C_22
    9  A    between atoms: C_10  and  C_47
   10  A    between atoms: C_14  and  C_18
   11  A    between atoms: C_22  and  C_45
   12  A    between atoms: O_24  and  C_45
   13  A    between atoms: O_24  and  P_46
   14  A    between atoms: C_33  and  C_36
   15  A    between atoms: C_34  and  C_47
                            x       y       z     vdW  Elec       q    Type
                         _______ _______ _______ _____ _____    ______ ____

>  <TORSDO>
F 15

$$$$
=
 OpenBabel11042421433D

 47 53  0  0  1  0  0  0  0  0999 V2000
  162.0400  207.9250  151.8840 C   0  0  2  0  0  3  0  0  0  0  0  0
  161.4800  210.6820  149.6120 C   0  0  0  0  0  2  0  0  0  0  0  0
  161.5090  209.3350  151.6930 C   0  0  2  0  0  3  0  0  0  0  0  0
  161.7240  209.5410  150.2590 C   0  0  0  0  0  0  0  0  0  0  0  0
  162.6950  207.4670  150.7140 O   0  0  0  0  0  0  0  0  0  0  0  0
  162.4710  208.3990  149.6820 C   0  0  1  0  0  3  0  0  0  0  0  0
  161.6400  204.2410  145.4040 N   0  0  0  0  0  0  0  0  0  0  0  0
  160.7340  205.6550  146.9990 C   0  0  0  0  0  0  0  0  0  0  0  0
  162.6340  206.8770  147.7130 N   0  0  0  0  0  0  0  0  0  0  0  0
  163.4280  205.8310  144.8960 C   0  0  0  0  0  1  0  0  0  0  0  0
  160.4870  206.9320  149.0100 C   0  0  0  0  0  2  0  0  0  0  0  0
  159.9480  206.0710  147.9410 N   0  0  0  0  0  0  0  0  0  0  0  0
  161.7380  207.7100  148.5350 C   0  0  1  0  0  3  0  0  0  0  0  0
  162.0990  205.9750  146.9500 C   0  0  0  0  0  0  0  0  0  0  0  0
  162.7460  205.0410  145.9920 C   0  0  1  0  0  3  0  0  0  0  0  0
  160.4600  204.6320  146.0760 N   0  0  0  0  0  2  0  0  0  0  0  0
  161.8770  202.8500  145.7520 C   0  0  0  0  0  2  0  0  0  0  0  0
  160.5690  202.1770  146.1050 C   0  0  0  0  0  2  0  0  0  0  0  0
  160.8150  200.9850  146.7960 O   0  0  0  0  0  0  0  0  0  0  0  0
  161.5490  202.9350  148.6270 O   0  0  0  0  0  0  0  0  0  0  0  0
  159.2360  201.4840  149.0200 O   0  0  0  0  0  1  0  0  0  0  0  0
  161.5960  200.3830  149.2210 O   0  0  0  0  0  1  0  0  0  0  0  0
  160.8240  201.4170  148.4360 P   0  0  0  0  0  0  0  0  0  0  0  0
  160.9450  207.0310  152.2290 N   0  0  0  0  0  2  0  0  0  0  0  0
  161.2080  206.4620  153.5380 C   0  0  1  0  0  3  0  0  0  0  0  0
  160.2330  207.0090  154.5780 C   0  0  0  0  0  2  0  0  0  0  0  0
  160.7890  206.8990  155.9180 N   0  0  0  0  0  2  0  0  0  0  0  0
  162.2350  208.7800  156.8840 N   0  0  0  0  0  0  0  0  0  0  0  0
  161.5830  207.9290  156.4450 C   0  0  0  0  0  0  0  0  0  0  0  0
  161.1010  204.9510  153.4520 C   0  0  0  0  0  2  0  0  0  0  0  0
  161.2100  202.9700  151.9680 C   0  0  0  0  0  2  0  0  0  0  0  0
  161.4080  204.4730  152.0510 C   0  0  0  0  0  3  0  0  0  0  0  0
  160.1380  203.9100  151.4470 C   0  0  0  0  0  2  0  0  0  0  0  0
  162.3540  210.3200  152.5020 C   0  0  0  0  0  2  0  0  0  0  0  0
  161.8560  210.4370  153.8610 N   0  0  0  0  0  2  0  0  0  0  0  0
  158.6920  211.8040  152.9850 O   0  0  0  0  0  0  0  0  0  0  0  0
  160.9180  211.5500  153.8950 C   0  0  1  0  0  3  0  0  0  0  0  0
  159.1900  214.0270  155.9790 C   0  0  0  0  0  2  0  0  0  0  0  0
  158.7270  212.1550  154.3420 C   0  0  2  0  0  0  0  0  0  0  0  0
  160.0490  211.5660  152.6330 C   0  0  0  0  0  2  0  0  0  0  0  0
  157.8120  212.0650  156.6540 C   0  0  0  0  0  2  0  0  0  0  0  0
  160.2570  211.9080  156.2470 O   0  0  0  0  0  0  0  0  0  0  0  0
  157.4770  211.8130  155.1550 C   0  0  0  0  0  2  0  0  0  0  0  0
  159.5560  210.0300  155.1140 O   0  0  0  0  0  1  0  0  0  0  0  0
  159.2200  212.7300  156.7940 C   0  0  1  0  0  3  0  0  0  0  0  0
  158.9560  213.6780  154.4980 C   0  0  0  0  0  2  0  0  0  0  0  0
  159.8830  211.3840  154.9730 C   0  0  2  0  0  0  0  0  0  0  0  0
  1 24  1  6  0  0  0
  2  4  2  0  0  0  0
  3  1  1  0  0  0  0
  3 34  1  1  0  0  0
  4  3  1  0  0  0  0
  5  1  1  0  0  0  0
  6  4  1  1  0  0  0
  6  5  1  0  0  0  0
  7 17  1  0  0  0  0
  7 15  1  0  0  0  0
  7 16  1  0  0  0  0
  8 12  2  0  0  0  0
  9 13  1  0  0  0  0
 12 11  1  0  0  0  0
 13 11  1  1  0  0  0
 13  6  1  0  0  0  0
 14  8  1  0  0  0  0
 14  9  2  0  0  0  0
 15 10  1  6  0  0  0
 15 14  1  0  0  0  0
 16  8  1  0  0  0  0
 17 18  1  0  0  0  0
 18 19  1  0  0  0  0
 19 23  1  0  0  0  0
 23 20  2  0  0  0  0
 23 21  1  0  0  0  0
 23 22  1  0  0  0  0
 24 25  1  0  0  0  0
 25 30  1  6  0  0  0
 25 26  1  0  0  0  0
 26 27  1  0  0  0  0
 27 29  1  0  0  0  0
 29 28  3  0  0  0  0
 31 32  1  0  0  0  0
 32 30  1  0  0  0  0
 33 31  1  0  0  0  0
 33 32  1  0  0  0  0
 34 35  1  0  0  0  0
 36 39  1  0  0  0  0
 37 35  1  6  0  0  0
 37 47  1  0  0  0  0
 39 46  1  1  0  0  0
 39 47  1  0  0  0  0
 39 43  1  0  0  0  0
 40 36  1  0  0  0  0
 40 37  1  0  0  0  0
 41 45  1  0  0  0  0
 42 45  1  0  0  0  0
 43 41  1  0  0  0  0
 45 38  1  6  0  0  0
 46 38  1  0  0  0  0
 47 44  1  1  0  0  0
 47 42  1  0  0  0  0
M  END
>  <MODEL>
6

>  <REMARK>
 VINA RESULT:      -4.5      5.484      6.791
  Name = 
  15 active torsions:
  status: ('A' for Active; 'I' for Inactive)
    1  A    between atoms: C_1  and  N_5
    2  A    between atoms: C_1  and  C_10
    3  A    between atoms: N_3  and  C_14
    4  A    between atoms: N_3  and  C_17
    5  A    between atoms: C_4  and  N_7
    6  A    between atoms: N_5  and  C_38
    7  A    between atoms: N_7  and  C_10
    8  A    between atoms: N_8  and  C_22
    9  A    between atoms: C_10  and  C_47
   10  A    between atoms: C_14  and  C_18
   11  A    between atoms: C_22  and  C_45
   12  A    between atoms: O_24  and  C_45
   13  A    between atoms: O_24  and  P_46
   14  A    between atoms: C_33  and  C_36
   15  A    between atoms: C_34  and  C_47
                            x       y       z     vdW  Elec       q    Type
                         _______ _______ _______ _____ _____    ______ ____

>  <TORSDO>
F 15

$$$$
=
 OpenBabel11042421433D

 47 53  0  0  1  0  0  0  0  0999 V2000
  159.8900  211.4460  153.0080 C   0  0  2  0  0  3  0  0  0  0  0  0
  162.5440  210.1910  155.1200 C   0  0  0  0  0  2  0  0  0  0  0  0
  160.9910  211.7680  154.0030 C   0  0  2  0  0  3  0  0  0  0  0  0
  161.5710  210.4440  154.2430 C   0  0  0  0  0  0  0  0  0  0  0  0
  159.7220  210.0460  152.8720 O   0  0  0  0  0  0  0  0  0  0  0  0
  160.7680  209.4010  153.5620 C   0  0  1  0  0  3  0  0  0  0  0  0
  161.5770  205.3660  149.1640 N   0  0  0  0  0  0  0  0  0  0  0  0
  162.2440  207.3240  150.2090 C   0  0  0  0  0  0  0  0  0  0  0  0
  160.8310  207.3750  152.1100 N   0  0  0  0  0  0  0  0  0  0  0  0
  160.8780  204.3780  151.2900 C   0  0  0  0  0  1  0  0  0  0  0  0
  162.1420  209.3950  151.4060 C   0  0  0  0  0  2  0  0  0  0  0  0
  162.6890  208.5320  150.3420 N   0  0  0  0  0  0  0  0  0  0  0  0
  161.5730  208.5600  152.5770 C   0  0  1  0  0  3  0  0  0  0  0  0
  161.2390  206.7870  151.0280 C   0  0  0  0  0  0  0  0  0  0  0  0
  160.7200  205.5630  150.3630 C   0  0  1  0  0  3  0  0  0  0  0  0
  162.4500  206.4760  149.1070 N   0  0  0  0  0  2  0  0  0  0  0  0
  160.7170  205.4500  147.9970 C   0  0  0  0  0  2  0  0  0  0  0  0
  161.4390  206.1640  146.8750 C   0  0  0  0  0  2  0  0  0  0  0  0
  160.6160  206.2360  145.7450 O   0  0  0  0  0  0  0  0  0  0  0  0
  161.5810  205.8040  143.1810 O   0  0  0  0  0  0  0  0  0  0  0  0
  162.6580  204.4130  145.3050 O   0  0  0  0  0  1  0  0  0  0  0  0
  160.2180  203.9800  144.4780 O   0  0  0  0  0  1  0  0  0  0  0  0
  161.2360  205.0790  144.6710 P   0  0  0  0  0  0  0  0  0  0  0  0
  160.2050  212.0410  151.7180 N   0  0  0  0  0  2  0  0  0  0  0  0
  159.4640  213.2830  151.5890 C   0  0  1  0  0  3  0  0  0  0  0  0
  160.1860  214.2560  150.6580 C   0  0  0  0  0  2  0  0  0  0  0  0
  160.7070  213.5640  149.4900 N   0  0  0  0  0  2  0  0  0  0  0  0
  159.3150  213.3990  147.3450 N   0  0  0  0  0  0  0  0  0  0  0  0
  159.9430  213.4760  148.3160 C   0  0  0  0  0  0  0  0  0  0  0  0
  158.0740  212.9790  151.0640 C   0  0  0  0  0  2  0  0  0  0  0  0
  156.1860  213.9870  149.8150 C   0  0  0  0  0  2  0  0  0  0  0  0
  157.3130  214.2580  150.7960 C   0  0  0  0  0  3  0  0  0  0  0  0
  155.8950  214.0880  151.3020 C   0  0  0  0  0  2  0  0  0  0  0  0
  160.3800  212.3200  155.2910 C   0  0  0  0  0  2  0  0  0  0  0  0
  159.7130  211.2680  156.0400 N   0  0  0  0  0  2  0  0  0  0  0  0
  157.4050  213.9660  156.2510 O   0  0  0  0  0  0  0  0  0  0  0  0
  158.4680  211.8160  156.5590 C   0  0  1  0  0  3  0  0  0  0  0  0
  154.8640  211.3030  157.0270 C   0  0  0  0  0  2  0  0  0  0  0  0
  156.5110  212.9180  155.9890 C   0  0  2  0  0  0  0  0  0  0  0  0
  158.5790  213.3330  156.7460 C   0  0  0  0  0  2  0  0  0  0  0  0
  154.7730  211.8160  154.5910 C   0  0  0  0  0  2  0  0  0  0  0  0
  156.6100  210.4940  155.6120 O   0  0  0  0  0  0  0  0  0  0  0  0
  155.4970  213.1660  154.8710 C   0  0  0  0  0  2  0  0  0  0  0  0
  157.8460  211.8940  154.2650 O   0  0  0  0  0  1  0  0  0  0  0  0
  155.2000  210.7400  155.6410 C   0  0  1  0  0  3  0  0  0  0  0  0
  155.6980  212.5750  157.2600 C   0  0  0  0  0  2  0  0  0  0  0  0
  157.3470  211.7150  155.5620 C   0  0  2  0  0  0  0  0  0  0  0  0
  1 24  1  6  0  0  0
  1  3  1  0  0  0  0
  3  4  1  0  0  0  0
  3 34  1  1  0  0  0
  4  2  2  0  0  0  0
  5  1  1  0  0  0  0
  6  5  1  6  0  0  0
  6  4  1  0  0  0  0
  7 15  1  0  0  0  0
  8 12  2  0  0  0  0
  8 14  1  0  0  0  0
  9 13  1  0  0  0  0
 12 11  1  0  0  0  0
 13 11  1  6  0  0  0
 13  6  1  0  0  0  0
 14  9  2  0  0  0  0
 15 14  1  0  0  0  0
 15 10  1  1  0  0  0
 16  7  1  0  0  0  0
 16  8  1  0  0  0  0
 17  7  1  0  0  0  0
 18 17  1  0  0  0  0
 19 18  1  0  0  0  0
 20 23  2  0  0  0  0
 22 23  1  0  0  0  0
 23 21  1  0  0  0  0
 23 19  1  0  0  0  0
 25 26  1  6  0  0  0
 25 24  1  0  0  0  0
 27 26  1  0  0  0  0
 28 29  3  0  0  0  0
 29 27  1  0  0  0  0
 30 25  1  0  0  0  0
 31 32  1  0  0  0  0
 31 33  1  0  0  0  0
 32 30  1  0  0  0  0
 32 33  1  0  0  0  0
 34 35  1  0  0  0  0
 36 40  1  0  0  0  0
 37 35  1  6  0  0  0
 37 40  1  0  0  0  0
 38 46  1  0  0  0  0
 39 43  1  6  0  0  0
 39 36  1  0  0  0  0
 39 46  1  0  0  0  0
 41 43  1  0  0  0  0
 42 45  1  0  0  0  0
 45 41  1  6  0  0  0
 45 38  1  0  0  0  0
 47 44  1  6  0  0  0
 47 42  1  0  0  0  0
 47 39  1  0  0  0  0
 47 37  1  0  0  0  0
M  END
>  <MODEL>
7

>  <REMARK>
 VINA RESULT:      -4.4      3.815      7.305
  Name = 
  15 active torsions:
  status: ('A' for Active; 'I' for Inactive)
    1  A    between atoms: C_1  and  N_5
    2  A    between atoms: C_1  and  C_10
    3  A    between atoms: N_3  and  C_14
    4  A    between atoms: N_3  and  C_17
    5  A    between atoms: C_4  and  N_7
    6  A    between atoms: N_5  and  C_38
    7  A    between atoms: N_7  and  C_10
    8  A    between atoms: N_8  and  C_22
    9  A    between atoms: C_10  and  C_47
   10  A    between atoms: C_14  and  C_18
   11  A    between atoms: C_22  and  C_45
   12  A    between atoms: O_24  and  C_45
   13  A    between atoms: O_24  and  P_46
   14  A    between atoms: C_33  and  C_36
   15  A    between atoms: C_34  and  C_47
                            x       y       z     vdW  Elec       q    Type
                         _______ _______ _______ _____ _____    ______ ____

>  <TORSDO>
F 15

$$$$
=
 OpenBabel11042421433D

 47 53  0  0  1  0  0  0  0  0999 V2000
  162.0160  210.3370  151.3360 C   0  0  2  0  0  3  0  0  0  0  0  0
  160.9900  207.0650  152.4810 C   0  0  0  0  0  2  0  0  0  0  0  0
  161.2850  209.0440  151.0190 C   0  0  2  0  0  3  0  0  0  0  0  0
  161.4170  208.3130  152.2820 C   0  0  0  0  0  0  0  0  0  0  0  0
  162.6850  210.2500  152.5810 O   0  0  0  0  0  0  0  0  0  0  0  0
  162.2940  209.0550  153.2160 C   0  0  1  0  0  3  0  0  0  0  0  0
  158.5060  211.9770  156.8750 N   0  0  0  0  0  0  0  0  0  0  0  0
  159.6090  210.0180  156.3150 C   0  0  0  0  0  0  0  0  0  0  0  0
  161.0150  210.7320  154.5460 N   0  0  0  0  0  0  0  0  0  0  0  0
  160.3790  213.3460  156.1020 C   0  0  0  0  0  1  0  0  0  0  0  0
  160.6310  208.2950  155.0040 C   0  0  0  0  0  2  0  0  0  0  0  0
  159.8120  208.7510  156.1420 N   0  0  0  0  0  0  0  0  0  0  0  0
  161.6240  209.3900  154.5450 C   0  0  1  0  0  3  0  0  0  0  0  0
  160.1260  210.9970  155.4520 C   0  0  0  0  0  0  0  0  0  0  0  0
  159.3940  212.2630  155.7180 C   0  0  1  0  0  3  0  0  0  0  0  0
  158.6540  210.6010  157.1650 N   0  0  0  0  0  2  0  0  0  0  0  0
  157.1360  212.1640  156.4270 C   0  0  0  0  0  2  0  0  0  0  0  0
  157.0240  211.8240  154.9570 C   0  0  0  0  0  2  0  0  0  0  0  0
  156.2370  212.7790  154.3030 O   0  0  0  0  0  0  0  0  0  0  0  0
  158.0980  212.0780  152.3690 O   0  0  0  0  0  1  0  0  0  0  0  0
  156.2190  214.0220  151.8250 O   0  0  0  0  0  0  0  0  0  0  0  0
  158.1380  214.4150  153.5520 O   0  0  0  0  0  1  0  0  0  0  0  0
  157.2010  213.3510  153.0300 P   0  0  0  0  0  0  0  0  0  0  0  0
  161.0710  211.4440  151.3500 N   0  0  0  0  0  2  0  0  0  0  0  0
  160.7390  211.7860  149.9790 C   0  0  1  0  0  3  0  0  0  0  0  0
  160.2840  213.2400  149.8730 C   0  0  0  0  0  2  0  0  0  0  0  0
  158.9370  213.3230  149.3320 N   0  0  0  0  0  2  0  0  0  0  0  0
  158.5650  213.4470  146.7990 N   0  0  0  0  0  0  0  0  0  0  0  0
  158.7300  213.3920  147.9440 C   0  0  0  0  0  0  0  0  0  0  0  0
  161.9520  211.5440  149.1010 C   0  0  0  0  0  2  0  0  0  0  0  0
  163.5670  212.5490  147.5130 C   0  0  0  0  0  2  0  0  0  0  0  0
  162.3950  212.8290  148.4360 C   0  0  0  0  0  3  0  0  0  0  0  0
  162.1680  212.7010  146.9440 C   0  0  0  0  0  2  0  0  0  0  0  0
  162.0130  208.3000  149.8980 C   0  0  0  0  0  2  0  0  0  0  0  0
  161.0700  207.6050  149.0400 N   0  0  0  0  0  2  0  0  0  0  0  0
  160.9460  204.0790  148.5950 O   0  0  0  0  0  0  0  0  0  0  0  0
  161.7050  206.3750  148.5890 C   0  0  1  0  0  3  0  0  0  0  0  0
  163.4590  204.6640  145.8570 C   0  0  0  0  0  2  0  0  0  0  0  0
  161.4110  204.4550  147.3270 C   0  0  2  0  0  0  0  0  0  0  0  0
  161.2450  205.1850  149.4380 C   0  0  0  0  0  2  0  0  0  0  0  0
  161.1820  204.5640  144.8510 C   0  0  0  0  0  2  0  0  0  0  0  0
  161.9900  206.5260  146.1410 O   0  0  0  0  0  0  0  0  0  0  0  0
  160.6720  203.8450  146.1350 C   0  0  0  0  0  2  0  0  0  0  0  0
  159.8890  206.3020  147.0560 O   0  0  0  0  0  1  0  0  0  0  0  0
  162.3700  205.5190  145.1980 C   0  0  1  0  0  3  0  0  0  0  0  0
  162.9030  204.0770  147.1660 C   0  0  0  0  0  2  0  0  0  0  0  0
  161.2390  205.9680  147.2190 C   0  0  2  0  0  0  0  0  0  0  0  0
  1 24  1  1  0  0  0
  1  5  1  0  0  0  0
  3 34  1  6  0  0  0
  3  1  1  0  0  0  0
  3  4  1  0  0  0  0
  4  2  2  0  0  0  0
  5  6  1  0  0  0  0
  6  4  1  6  0  0  0
  6 13  1  0  0  0  0
  7 16  1  0  0  0  0
  8 16  1  0  0  0  0
  9 14  2  0  0  0  0
 11 12  1  0  0  0  0
 12  8  2  0  0  0  0
 13  9  1  0  0  0  0
 13 11  1  6  0  0  0
 14 15  1  0  0  0  0
 14  8  1  0  0  0  0
 15 10  1  1  0  0  0
 15  7  1  0  0  0  0
 17  7  1  0  0  0  0
 18 17  1  0  0  0  0
 19 18  1  0  0  0  0
 20 23  1  0  0  0  0
 21 23  2  0  0  0  0
 23 22  1  0  0  0  0
 23 19  1  0  0  0  0
 25 30  1  6  0  0  0
 25 24  1  0  0  0  0
 26 25  1  0  0  0  0
 27 26  1  0  0  0  0
 28 29  3  0  0  0  0
 29 27  1  0  0  0  0
 31 32  1  0  0  0  0
 32 30  1  0  0  0  0
 33 31  1  0  0  0  0
 33 32  1  0  0  0  0
 35 34  1  0  0  0  0
 36 40  1  0  0  0  0
 37 35  1  1  0  0  0
 37 40  1  0  0  0  0
 38 46  1  0  0  0  0
 39 43  1  6  0  0  0
 39 36  1  0  0  0  0
 41 43  1  0  0  0  0
 42 47  1  0  0  0  0
 45 41  1  1  0  0  0
 45 38  1  0  0  0  0
 45 42  1  0  0  0  0
 46 39  1  0  0  0  0
 47 44  1  6  0  0  0
 47 39  1  0  0  0  0
 47 37  1  0  0  0  0
M  END
>  <MODEL>
8

>  <REMARK>
 VINA RESULT:      -4.2      4.263     10.571
  Name = 
  15 active torsions:
  status: ('A' for Active; 'I' for Inactive)
    1  A    between atoms: C_1  and  N_5
    2  A    between atoms: C_1  and  C_10
    3  A    between atoms: N_3  and  C_14
    4  A    between atoms: N_3  and  C_17
    5  A    between atoms: C_4  and  N_7
    6  A    between atoms: N_5  and  C_38
    7  A    between atoms: N_7  and  C_10
    8  A    between atoms: N_8  and  C_22
    9  A    between atoms: C_10  and  C_47
   10  A    between atoms: C_14  and  C_18
   11  A    between atoms: C_22  and  C_45
   12  A    between atoms: O_24  and  C_45
   13  A    between atoms: O_24  and  P_46
   14  A    between atoms: C_33  and  C_36
   15  A    between atoms: C_34  and  C_47
                            x       y       z     vdW  Elec       q    Type
                         _______ _______ _______ _____ _____    ______ ____

>  <TORSDO>
F 15

$$$$
=
 OpenBabel11042421433D

 47 53  0  0  1  0  0  0  0  0999 V2000
  160.5400  210.7840  153.8710 C   0  0  2  0  0  3  0  0  0  0  0  0
  162.0080  208.4520  156.2130 C   0  0  0  0  0  2  0  0  0  0  0  0
  161.3420  210.5880  155.1460 C   0  0  2  0  0  3  0  0  0  0  0  0
  161.4440  209.1280  155.2110 C   0  0  0  0  0  0  0  0  0  0  0  0
  160.0480  209.5480  153.3860 O   0  0  0  0  0  0  0  0  0  0  0  0
  160.6280  208.5080  154.1400 C   0  0  1  0  0  3  0  0  0  0  0  0
  161.4620  203.9820  150.2560 N   0  0  0  0  0  0  0  0  0  0  0  0
  162.0320  206.1080  150.9770 C   0  0  0  0  0  0  0  0  0  0  0  0
  160.7590  206.3130  152.9650 N   0  0  0  0  0  0  0  0  0  0  0  0
  161.0020  203.2440  152.5420 C   0  0  0  0  0  1  0  0  0  0  0  0
  161.8410  208.3090  151.8980 C   0  0  0  0  0  2  0  0  0  0  0  0
  162.3820  207.3530  150.9150 N   0  0  0  0  0  0  0  0  0  0  0  0
  161.4300  207.6020  153.2110 C   0  0  1  0  0  3  0  0  0  0  0  0
  161.1380  205.6150  151.9390 C   0  0  0  0  0  0  0  0  0  0  0  0
  160.6790  204.2760  151.4840 C   0  0  1  0  0  3  0  0  0  0  0  0
  162.2310  205.1350  149.9830 N   0  0  0  0  0  2  0  0  0  0  0  0
  160.5160  203.8410  149.1610 C   0  0  0  0  0  2  0  0  0  0  0  0
  161.1450  203.0480  148.0360 C   0  0  0  0  0  2  0  0  0  0  0  0
  162.2920  203.7020  147.5730 O   0  0  0  0  0  0  0  0  0  0  0  0
  160.9090  203.7250  145.1680 O   0  0  0  0  0  0  0  0  0  0  0  0
  160.7430  205.8910  146.8670 O   0  0  0  0  0  1  0  0  0  0  0  0
  162.9540  205.3020  145.6080 O   0  0  0  0  0  1  0  0  0  0  0  0
  161.7610  204.6700  146.2840 P   0  0  0  0  0  0  0  0  0  0  0  0
  161.3710  211.4240  152.8630 N   0  0  0  0  0  2  0  0  0  0  0  0
  160.5880  211.5830  151.6510 C   0  0  1  0  0  3  0  0  0  0  0  0
  159.4550  212.5860  151.8600 C   0  0  0  0  0  2  0  0  0  0  0  0
  159.1690  213.3080  150.6300 N   0  0  0  0  0  2  0  0  0  0  0  0
  156.7590  213.5420  149.7910 N   0  0  0  0  0  0  0  0  0  0  0  0
  157.8490  213.4340  150.1690 C   0  0  0  0  0  0  0  0  0  0  0  0
  161.5000  212.0390  150.5270 C   0  0  0  0  0  2  0  0  0  0  0  0
  161.9590  211.9450  148.0940 C   0  0  0  0  0  2  0  0  0  0  0  0
  161.0820  211.4150  149.2140 C   0  0  0  0  0  3  0  0  0  0  0  0
  162.2320  210.5770  148.6940 C   0  0  0  0  0  2  0  0  0  0  0  0
  160.5500  211.1170  156.3420 C   0  0  0  0  0  2  0  0  0  0  0  0
  160.0860  212.4720  156.0990 N   0  0  0  0  0  2  0  0  0  0  0  0
  157.2270  214.4530  156.8380 O   0  0  0  0  0  0  0  0  0  0  0  0
  158.7200  212.5670  156.5940 C   0  0  1  0  0  3  0  0  0  0  0  0
  155.2990  211.2530  156.3930 C   0  0  0  0  0  2  0  0  0  0  0  0
  156.6070  213.4040  156.1440 C   0  0  2  0  0  0  0  0  0  0  0  0
  158.4780  213.9250  157.2610 C   0  0  0  0  0  2  0  0  0  0  0  0
  155.2490  212.5260  154.2530 C   0  0  0  0  0  2  0  0  0  0  0  0
  157.2670  211.3110  155.0420 O   0  0  0  0  0  0  0  0  0  0  0  0
  155.6350  213.8140  155.0360 C   0  0  0  0  0  2  0  0  0  0  0  0
  158.2420  213.2890  154.3790 O   0  0  0  0  0  1  0  0  0  0  0  0
  155.8390  211.2610  154.9590 C   0  0  1  0  0  3  0  0  0  0  0  0
  155.8120  212.5070  157.1230 C   0  0  0  0  0  2  0  0  0  0  0  0
  157.7150  212.5950  155.4750 C   0  0  2  0  0  0  0  0  0  0  0  0
  1 24  1  6  0  0  0
  1  3  1  0  0  0  0
  3  4  1  0  0  0  0
  3 34  1  1  0  0  0
  4  2  2  0  0  0  0
  5  1  1  0  0  0  0
  6  5  1  6  0  0  0
  6  4  1  0  0  0  0
  7 15  1  0  0  0  0
  8 14  1  0  0  0  0
  9 13  1  0  0  0  0
 12  8  2  0  0  0  0
 12 11  1  0  0  0  0
 13 11  1  6  0  0  0
 13  6  1  0  0  0  0
 14  9  2  0  0  0  0
 15 14  1  0  0  0  0
 15 10  1  1  0  0  0
 16  7  1  0  0  0  0
 16  8  1  0  0  0  0
 17  7  1  0  0  0  0
 18 17  1  0  0  0  0
 19 18  1  0  0  0  0
 20 23  2  0  0  0  0
 22 23  1  0  0  0  0
 23 21  1  0  0  0  0
 23 19  1  0  0  0  0
 25 30  1  6  0  0  0
 25 26  1  0  0  0  0
 25 24  1  0  0  0  0
 27 26  1  0  0  0  0
 28 29  3  0  0  0  0
 29 27  1  0  0  0  0
 31 33  1  0  0  0  0
 31 32  1  0  0  0  0
 32 30  1  0  0  0  0
 33 32  1  0  0  0  0
 35 34  1  0  0  0  0
 36 40  1  0  0  0  0
 37 35  1  6  0  0  0
 37 40  1  0  0  0  0
 38 46  1  0  0  0  0
 39 43  1  6  0  0  0
 39 36  1  0  0  0  0
 39 46  1  0  0  0  0
 41 43  1  0  0  0  0
 42 47  1  0  0  0  0
 45 41  1  6  0  0  0
 45 42  1  0  0  0  0
 45 38  1  0  0  0  0
 47 44  1  6  0  0  0
 47 39  1  0  0  0  0
 47 37  1  0  0  0  0
M  END
>  <MODEL>
9

>  <REMARK>
 VINA RESULT:      -4.0      4.510      7.714
  Name = 
  15 active torsions:
  status: ('A' for Active; 'I' for Inactive)
    1  A    between atoms: C_1  and  N_5
    2  A    between atoms: C_1  and  C_10
    3  A    between atoms: N_3  and  C_14
    4  A    between atoms: N_3  and  C_17
    5  A    between atoms: C_4  and  N_7
    6  A    between atoms: N_5  and  C_38
    7  A    between atoms: N_7  and  C_10
    8  A    between atoms: N_8  and  C_22
    9  A    between atoms: C_10  and  C_47
   10  A    between atoms: C_14  and  C_18
   11  A    between atoms: C_22  and  C_45
   12  A    between atoms: O_24  and  C_45
   13  A    between atoms: O_24  and  P_46
   14  A    between atoms: C_33  and  C_36
   15  A    between atoms: C_34  and  C_47
                            x       y       z     vdW  Elec       q    Type
                         _______ _______ _______ _____ _____    ______ ____

>  <TORSDO>
F 15

$$$$
