=
 OpenBabel11042421083D

 36 39  0  0  1  0  0  0  0  0999 V2000
  157.8850  207.6500  155.9600 C   0  0  0  0  0  1  0  0  0  0  0  0
  161.6390  206.9930  149.3600 C   0  0  1  0  0  3  0  0  0  0  0  0
  161.5220  210.7050  152.2500 C   0  0  0  0  0  0  0  0  0  0  0  0
  159.9070  205.6020  150.1160 C   0  0  0  0  0  2  0  0  0  0  0  0
  161.3320  211.3600  149.8790 N   0  0  0  0  0  2  0  0  0  0  0  0
  161.5660  210.7450  148.6150 C   0  0  0  0  0  0  0  0  0  0  0  0
  162.2210  206.1110  150.2800 O   0  0  0  0  0  0  0  0  0  0  0  0
  159.6020  210.0120  153.5590 C   0  0  0  0  0  3  0  0  0  0  0  0
  159.8540  209.1670  155.9170 C   0  0  1  0  0  3  0  0  0  0  0  0
  160.8860  206.4550  152.2450 C   0  0  0  0  0  2  0  0  0  0  0  0
  160.1460  210.4690  152.3580 C   0  0  0  0  0  3  0  0  0  0  0  0
  161.1370  205.5890  151.0110 C   0  0  1  0  0  3  0  0  0  0  0  0
  162.6090  207.3520  148.2260 C   0  0  2  0  0  3  0  0  0  0  0  0
  160.3240  206.3960  148.9100 C   0  0  0  0  0  2  0  0  0  0  0  0
  161.2830  206.8240  154.6710 C   0  0  0  0  0  2  0  0  0  0  0  0
  162.4450  209.6210  148.5270 N   0  0  0  0  0  2  0  0  0  0  0  0
  162.2050  208.6060  147.5920 N   0  0  0  0  0  2  0  0  0  0  0  0
  161.8070  210.0970  154.5900 C   0  0  0  0  0  0  0  0  0  0  0  0
  159.0110  210.1810  156.6950 C   0  0  0  0  0  1  0  0  0  0  0  0
  159.8650  206.7690  154.9990 N   0  0  0  0  0  0  0  0  0  0  0  0
  159.1620  207.8410  155.6400 C   0  0  0  0  0  0  0  0  0  0  0  0
  163.1020  205.9100  153.2930 C   0  0  0  0  0  1  0  0  0  0  0  0
  162.3430  210.5130  153.3630 C   0  0  0  0  0  3  0  0  0  0  0  0
  160.9110  211.1230  147.6030 O   0  0  0  0  0  0  0  0  0  0  0  0
  161.5970  205.9190  153.4920 C   0  0  2  0  0  3  0  0  0  0  0  0
  162.1110  211.0080  150.9890 N   0  0  0  0  0  2  0  0  0  0  0  0
  160.4270  209.7910  154.6710 C   0  0  0  0  0  0  0  0  0  0  0  0
  163.7280  210.9120  155.9520 C   0  0  0  0  0  2  0  0  0  0  0  0
  162.7250  209.8600  155.7760 C   0  0  1  0  0  3  0  0  0  0  0  0
  161.7620  211.8870  156.4900 O   0  0  0  0  0  1  0  0  0  0  0  0
  162.5770  210.8670  156.8650 N   0  0  0  0  0  0  0  0  0  0  0  0
  161.9520  206.2510  146.1720 N   0  0  0  0  0  0  0  0  0  0  0  0
  162.7440  206.2720  147.1980 C   0  0  0  0  0  3  0  0  0  0  0  0
  161.2910  205.3390  143.9560 N   0  0  0  0  0  1  0  0  0  0  0  0
  162.0210  205.2280  145.1770 C   0  0  0  0  0  0  0  0  0  0  0  0
  162.7350  204.2130  145.3810 O   0  0  0  0  0  0  0  0  0  0  0  0
  2 14  1  6  0  0  0
  2  7  1  0  0  0  0
  3 11  2  0  0  0  0
  3 23  1  0  0  0  0
  5 26  1  0  0  0  0
  6  5  1  0  0  0  0
  7 12  1  0  0  0  0
  8 27  2  0  0  0  0
  9 19  1  6  0  0  0
 10 25  1  0  0  0  0
 11  8  1  0  0  0  0
 12  4  1  6  0  0  0
 12 10  1  0  0  0  0
 13 33  1  6  0  0  0
 13  2  1  0  0  0  0
 14  4  1  0  0  0  0
 15 20  1  0  0  0  0
 16  6  1  0  0  0  0
 17 13  1  0  0  0  0
 17 16  1  0  0  0  0
 18 27  1  0  0  0  0
 20 21  2  0  0  0  0
 21  9  1  0  0  0  0
 21  1  1  0  0  0  0
 23 18  2  0  0  0  0
 24  6  2  0  0  0  0
 25 22  1  6  0  0  0
 25 15  1  0  0  0  0
 26  3  1  0  0  0  0
 27  9  1  0  0  0  0
 28 31  1  0  0  0  0
 29 18  1  6  0  0  0
 29 28  1  0  0  0  0
 29 31  1  0  0  0  0
 30 31  1  0  0  0  0
 32 33  2  0  0  0  0
 34 35  1  0  0  0  0
 35 36  2  0  0  0  0
 35 32  1  0  0  0  0
M  END
>  <MODEL>
1

>  <REMARK>
 VINA RESULT:       0.9      0.000      0.000
  Name = 
  3 active torsions:
  status: ('A' for Active; 'I' for Inactive)
    1  A    between atoms: N_3  and  C_28
    2  A    between atoms: C_8  and  C_16
    3  A    between atoms: C_21  and  C_23
                            x       y       z     vdW  Elec       q    Type
                         _______ _______ _______ _____ _____    ______ ____

>  <TORSDO>
F 3

$$$$
