=
 OpenBabel11042420423D

 62 67  0  0  1  0  0  0  0  0999 V2000
  161.1380  209.8660  151.3590 C   0  0  2  0  0  3  0  0  0  0  0  0
  159.0740  211.0070  154.3610 C   0  0  0  0  0  0  0  0  0  0  0  0
  159.6810  211.5270  156.6470 C   0  0  0  0  0  3  0  0  0  0  0  0
  161.7560  210.4640  153.7690 C   0  0  0  0  0  3  0  0  0  0  0  0
  158.3740  211.8030  156.9120 N   0  0  0  0  0  0  0  0  0  0  0  0
  157.7390  211.2930  154.6610 C   0  0  0  0  0  3  0  0  0  0  0  0
  155.9950  212.0100  156.3010 C   0  0  0  0  0  1  0  0  0  0  0  0
  161.4000  210.8600  155.0640 C   0  0  0  0  0  3  0  0  0  0  0  0
  160.7800  210.3350  152.7610 C   0  0  0  0  0  0  0  0  0  0  0  0
  159.4350  210.5990  153.0790 C   0  0  0  0  0  3  0  0  0  0  0  0
  160.0620  211.1320  155.3600 C   0  0  0  0  0  0  0  0  0  0  0  0
  157.4070  211.6980  155.9590 C   0  0  0  0  0  0  0  0  0  0  0  0
  160.6050  205.6690  148.9910 N   0  0  0  0  0  2  0  0  0  0  0  0
  161.8440  205.6170  151.2060 C   0  0  0  0  0  0  0  0  0  0  0  0
  161.3490  204.7220  148.2190 C   0  0  0  0  0  0  0  0  0  0  0  0
  161.1620  206.3640  150.1130 C   0  0  0  0  0  0  0  0  0  0  0  0
  161.6420  207.6610  152.6000 C   0  0  2  0  0  3  0  0  0  0  0  0
  161.6610  208.4240  151.2630 C   0  0  1  0  0  3  0  0  0  0  0  0
  162.1120  206.2480  152.3590 C   0  0  0  0  0  3  0  0  0  0  0  0
  161.0140  207.6550  150.1970 N   0  0  0  0  0  0  0  0  0  0  0  0
  162.6130  204.7430  148.2450 O   0  0  0  0  0  0  0  0  0  0  0  0
  160.3480  207.6280  153.1280 O   0  0  0  0  0  0  0  0  0  0  0  0
  160.4800  207.0050  154.3700 C   0  0  0  0  0  1  0  0  0  0  0  0
  162.1690  204.2660  151.0270 O   0  0  0  0  0  0  0  0  0  0  0  0
  161.4630  203.2080  151.6570 C   0  0  0  0  0  1  0  0  0  0  0  0
  160.6310  203.6810  147.4100 C   0  0  1  0  0  3  0  0  0  0  0  0
  161.3980  203.3350  146.2910 O   0  0  0  0  0  0  0  0  0  0  0  0
  160.7660  203.9270  145.1860 C   0  0  0  0  0  2  0  0  0  0  0  0
  162.4650  205.7690  145.1270 O   0  0  0  0  0  1  0  0  0  0  0  0
  161.1330  205.3730  145.0830 C   0  0  0  0  0  0  0  0  0  0  0  0
  160.2290  206.2380  144.9260 O   0  0  0  0  0  0  0  0  0  0  0  0
  160.4040  202.4480  148.2850 C   0  0  0  0  0  2  0  0  0  0  0  0
  161.6600  201.5980  148.3550 C   0  0  0  0  0  2  0  0  0  0  0  0
  161.1440  200.1840  146.7340 C   0  0  0  0  0  1  0  0  0  0  0  0
  161.3350  200.2630  148.1170 O   0  0  0  0  0  0  0  0  0  0  0  0
  161.9370  210.8100  150.5540 N   0  0  0  0  0  0  0  0  0  0  0  0
  161.3800  212.1610  150.6120 C   0  0  0  0  0  1  0  0  0  0  0  0
  161.9190  210.3570  149.1700 C   0  0  0  0  0  2  0  0  0  0  0  0
  162.1040  211.5390  148.2150 C   0  0  0  0  0  2  0  0  0  0  0  0
  160.8050  211.9610  147.7060 N   0  0  0  0  0  2  0  0  0  0  0  0
  160.9910  212.6170  146.4130 C   0  0  0  0  0  2  0  0  0  0  0  0
  159.9670  212.1490  145.3780 C   0  0  0  0  0  2  0  0  0  0  0  0
  159.4350  213.3060  144.5580 C   0  0  0  0  0  2  0  0  0  0  0  0
  159.3410  212.9150  143.1970 O   0  0  0  0  0  0  0  0  0  0  0  0
  159.8240  213.6760  140.8610 C   0  0  2  0  0  3  0  0  0  0  0  0
  162.6470  213.7350  141.6950 C   0  0  0  0  0  2  0  0  0  0  0  0
  161.5640  213.2450  142.5520 N   0  0  0  0  0  0  0  0  0  0  0  0
  160.9050  214.4530  140.1040 C   0  0  0  0  0  2  0  0  0  0  0  0
  160.2950  213.2680  142.2440 C   0  0  0  0  0  0  0  0  0  0  0  0
  162.2410  213.7460  140.2300 C   0  0  0  0  0  2  0  0  0  0  0  0
  157.9800  212.4480  139.5350 C   0  0  0  0  0  0  0  0  0  0  0  0
  157.8500  211.2370  138.8830 C   0  0  0  0  0  0  0  0  0  0  0  0
  156.9260  209.2160  137.7600 C   0  0  0  0  0  2  0  0  0  0  0  0
  158.3650  208.9220  137.3070 C   0  0  0  0  0  2  0  0  0  0  0  0
  159.9090  211.3590  139.7350 N   0  0  0  0  0  0  0  0  0  0  0  0
  159.3710  209.2670  138.4120 C   0  0  0  0  0  2  0  0  0  0  0  0
  161.2320  211.0470  139.9540 O   0  0  0  0  0  1  0  0  0  0  0  0
  156.7230  210.7070  138.0390 C   0  0  1  0  0  3  0  0  0  0  0  0
  155.3840  210.9030  138.7150 C   0  0  0  0  0  1  0  0  0  0  0  0
  159.2550  212.4990  140.0860 C   0  0  0  0  0  0  0  0  0  0  0  0
  157.0100  213.4470  139.5950 O   0  0  0  0  0  1  0  0  0  0  0  0
  159.0720  210.6150  138.9910 C   0  0  0  0  0  0  0  0  0  0  0  0
  1 36  1  1  0  0  0
  1  9  1  0  0  0  0
  2  6  2  0  0  0  0
  2 11  1  0  0  0  0
  3  5  1  0  0  0  0
  4  8  2  0  0  0  0
  6 12  1  0  0  0  0
  8 11  1  0  0  0  0
  9 10  2  0  0  0  0
  9  4  1  0  0  0  0
 10  2  1  0  0  0  0
 11  3  2  0  0  0  0
 12  7  1  0  0  0  0
 12  5  2  0  0  0  0
 13 16  1  0  0  0  0
 14 19  2  0  0  0  0
 15 21  2  0  0  0  0
 15 13  1  0  0  0  0
 16 20  2  0  0  0  0
 16 14  1  0  0  0  0
 17 22  1  6  0  0  0
 18  1  1  1  0  0  0
 18 17  1  0  0  0  0
 19 17  1  0  0  0  0
 20 18  1  0  0  0  0
 22 23  1  0  0  0  0
 24 14  1  0  0  0  0
 24 25  1  0  0  0  0
 26 15  1  0  0  0  0
 26 32  1  1  0  0  0
 27 26  1  0  0  0  0
 28 27  1  0  0  0  0
 30 29  1  0  0  0  0
 30 28  1  0  0  0  0
 31 30  2  0  0  0  0
 32 33  1  0  0  0  0
 34 35  1  0  0  0  0
 35 33  1  0  0  0  0
 36 37  1  0  0  0  0
 38 36  1  0  0  0  0
 39 38  1  0  0  0  0
 40 39  1  0  0  0  0
 41 40  1  0  0  0  0
 42 41  1  0  0  0  0
 43 42  1  0  0  0  0
 44 43  1  0  0  0  0
 45 60  1  6  0  0  0
 45 49  1  0  0  0  0
 46 47  1  0  0  0  0
 48 50  1  0  0  0  0
 48 45  1  0  0  0  0
 49 47  2  0  0  0  0
 49 44  1  0  0  0  0
 50 46  1  0  0  0  0
 51 61  1  0  0  0  0
 51 60  2  0  0  0  0
 52 62  2  0  0  0  0
 52 51  1  0  0  0  0
 53 58  1  0  0  0  0
 54 53  1  0  0  0  0
 54 56  1  0  0  0  0
 55 57  1  0  0  0  0
 55 60  1  0  0  0  0
 56 62  1  0  0  0  0
 58 59  1  1  0  0  0
 58 52  1  0  0  0  0
 62 55  1  0  0  0  0
M  END
>  <MODEL>
1

>  <REMARK>
 VINA RESULT:      -6.1      0.000      0.000
  Name = 
  21 active torsions:
  status: ('A' for Active; 'I' for Inactive)
    1  A    between atoms: C_1  and  N_19
    2  A    between atoms: C_1  and  C_21
    3  A    between atoms: C_5  and  O_26
    4  A    between atoms: C_7  and  C_13
    5  A    between atoms: C_11  and  O_29
    6  A    between atoms: C_11  and  C_46
    7  A    between atoms: C_12  and  C_51
    8  A    between atoms: C_13  and  C_41
    9  A    between atoms: C_13  and  O_47
   10  A    between atoms: C_16  and  O_53
   11  A    between atoms: C_17  and  C_38
   12  A    between atoms: C_17  and  O_47
   13  A    between atoms: N_19  and  C_35
   14  A    between atoms: N_20  and  C_21
   15  A    between atoms: N_20  and  C_23
   16  A    between atoms: C_23  and  C_28
   17  A    between atoms: C_23  and  C_44
   18  A    between atoms: O_29  and  C_43
   19  A    between atoms: C_35  and  C_46
   20  A    between atoms: O_37  and  C_62
   21  A    between atoms: C_41  and  C_62
                            x       y       z     vdW  Elec       q    Type
                         _______ _______ _______ _____ _____    ______ ____

>  <TORSDO>
F 21

$$$$
=
 OpenBabel11042420423D

 62 67  0  0  1  0  0  0  0  0999 V2000
  160.0120  211.7090  151.7730 C   0  0  2  0  0  3  0  0  0  0  0  0
  157.6020  211.5750  154.7320 C   0  0  0  0  0  0  0  0  0  0  0  0
  157.7780  212.3820  157.0080 C   0  0  0  0  0  3  0  0  0  0  0  0
  160.1510  212.5890  154.1730 C   0  0  0  0  0  3  0  0  0  0  0  0
  156.5300  211.8970  157.2580 N   0  0  0  0  0  0  0  0  0  0  0  0
  156.3250  211.0840  155.0150 C   0  0  0  0  0  3  0  0  0  0  0  0
  154.4420  210.7490  156.6250 C   0  0  0  0  0  1  0  0  0  0  0  0
  159.6110  212.7450  155.4550 C   0  0  0  0  0  3  0  0  0  0  0  0
  159.4270  211.9270  153.1610 C   0  0  0  0  0  0  0  0  0  0  0  0
  158.1530  211.4120  153.4630 C   0  0  0  0  0  3  0  0  0  0  0  0
  158.3380  212.2400  155.7350 C   0  0  0  0  0  0  0  0  0  0  0  0
  155.8000  211.2610  156.3000 C   0  0  0  0  0  0  0  0  0  0  0  0
  161.0580  207.6490  149.3390 N   0  0  0  0  0  2  0  0  0  0  0  0
  162.2200  208.0140  151.5660 C   0  0  0  0  0  0  0  0  0  0  0  0
  162.1000  207.0530  148.5600 C   0  0  0  0  0  0  0  0  0  0  0  0
  161.3180  208.4800  150.4760 C   0  0  0  0  0  0  0  0  0  0  0  0
  161.2810  209.8190  152.9870 C   0  0  2  0  0  3  0  0  0  0  0  0
  161.0250  210.5600  151.6620 C   0  0  1  0  0  3  0  0  0  0  0  0
  162.2350  208.6800  152.7300 C   0  0  0  0  0  3  0  0  0  0  0  0
  160.7080  209.6260  150.5780 N   0  0  0  0  0  0  0  0  0  0  0  0
  163.2690  207.5330  148.6000 O   0  0  0  0  0  0  0  0  0  0  0  0
  160.0860  209.3070  153.5010 O   0  0  0  0  0  0  0  0  0  0  0  0
  160.4350  208.7340  154.7250 C   0  0  0  0  0  1  0  0  0  0  0  0
  163.0170  206.8790  151.3690 O   0  0  0  0  0  0  0  0  0  0  0  0
  162.7070  205.6080  151.9240 C   0  0  0  0  0  1  0  0  0  0  0  0
  161.8150  205.8360  147.7290 C   0  0  1  0  0  3  0  0  0  0  0  0
  161.9610  204.6830  148.5100 O   0  0  0  0  0  0  0  0  0  0  0  0
  160.8860  203.8450  148.1740 C   0  0  0  0  0  2  0  0  0  0  0  0
  160.5550  201.4630  148.8840 O   0  0  0  0  0  0  0  0  0  0  0  0
  160.6820  202.8040  149.2290 C   0  0  0  0  0  0  0  0  0  0  0  0
  160.6530  203.1420  150.4430 O   0  0  0  0  0  1  0  0  0  0  0  0
  160.3840  205.9260  147.1990 C   0  0  0  0  0  2  0  0  0  0  0  0
  160.3760  206.3290  145.7350 C   0  0  0  0  0  2  0  0  0  0  0  0
  161.4580  205.4040  144.0430 C   0  0  0  0  0  1  0  0  0  0  0  0
  160.4050  205.1870  144.9360 O   0  0  0  0  0  0  0  0  0  0  0  0
  160.4590  212.9270  151.0710 N   0  0  0  0  0  0  0  0  0  0  0  0
  159.3550  213.8640  150.8750 C   0  0  0  0  0  1  0  0  0  0  0  0
  160.9760  212.5360  149.7670 C   0  0  0  0  0  2  0  0  0  0  0  0
  160.7410  213.6460  148.7400 C   0  0  0  0  0  2  0  0  0  0  0  0
  160.0150  213.1070  147.5970 N   0  0  0  0  0  2  0  0  0  0  0  0
  160.7530  213.4160  146.3740 C   0  0  0  0  0  2  0  0  0  0  0  0
  160.3910  212.4710  145.2280 C   0  0  0  0  0  2  0  0  0  0  0  0
  160.0800  213.2320  143.9560 C   0  0  0  0  0  2  0  0  0  0  0  0
  159.7610  212.3120  142.9230 O   0  0  0  0  0  0  0  0  0  0  0  0
  159.8280  212.9910  140.5140 C   0  0  2  0  0  3  0  0  0  0  0  0
  162.4600  211.6710  140.4390 C   0  0  0  0  0  2  0  0  0  0  0  0
  161.5800  211.6500  141.6120 N   0  0  0  0  0  0  0  0  0  0  0  0
  160.8690  213.2580  139.4210 C   0  0  0  0  0  2  0  0  0  0  0  0
  160.4410  212.2810  141.7060 C   0  0  0  0  0  0  0  0  0  0  0  0
  161.6930  212.0090  139.1700 C   0  0  0  0  0  2  0  0  0  0  0  0
  157.3170  212.8650  139.9270 C   0  0  0  0  0  0  0  0  0  0  0  0
  156.4570  211.9230  139.3970 C   0  0  0  0  0  0  0  0  0  0  0  0
  154.4190  210.6640  138.7170 C   0  0  0  0  0  2  0  0  0  0  0  0
  155.3450  209.8310  137.8170 C   0  0  0  0  0  2  0  0  0  0  0  0
  158.4990  211.0290  139.5020 N   0  0  0  0  0  0  0  0  0  0  0  0
  156.6890  209.5630  138.5070 C   0  0  0  0  0  2  0  0  0  0  0  0
  159.5310  210.1470  139.2740 O   0  0  0  0  0  1  0  0  0  0  0  0
  155.0110  212.0470  138.9990 C   0  0  1  0  0  3  0  0  0  0  0  0
  154.1940  212.7200  140.0790 C   0  0  0  0  0  1  0  0  0  0  0  0
  158.5780  212.2860  140.0150 C   0  0  0  0  0  0  0  0  0  0  0  0
  156.9780  214.1710  140.2760 O   0  0  0  0  0  1  0  0  0  0  0  0
  157.2300  210.8230  139.1080 C   0  0  0  0  0  0  0  0  0  0  0  0
  1 36  1  1  0  0  0
  1  9  1  0  0  0  0
  2  6  2  0  0  0  0
  2 11  1  0  0  0  0
  3  5  1  0  0  0  0
  4  8  2  0  0  0  0
  6 12  1  0  0  0  0
  8 11  1  0  0  0  0
  9 10  2  0  0  0  0
  9  4  1  0  0  0  0
 10  2  1  0  0  0  0
 11  3  2  0  0  0  0
 12  7  1  0  0  0  0
 12  5  2  0  0  0  0
 13 16  1  0  0  0  0
 14 19  2  0  0  0  0
 15 21  2  0  0  0  0
 15 13  1  0  0  0  0
 16 20  2  0  0  0  0
 16 14  1  0  0  0  0
 17 22  1  6  0  0  0
 18  1  1  1  0  0  0
 18 17  1  0  0  0  0
 19 17  1  0  0  0  0
 20 18  1  0  0  0  0
 22 23  1  0  0  0  0
 24 14  1  0  0  0  0
 24 25  1  0  0  0  0
 26 32  1  1  0  0  0
 26 27  1  0  0  0  0
 26 15  1  0  0  0  0
 28 27  1  0  0  0  0
 28 30  1  0  0  0  0
 29 30  2  0  0  0  0
 30 31  1  0  0  0  0
 33 32  1  0  0  0  0
 34 35  1  0  0  0  0
 35 33  1  0  0  0  0
 37 36  1  0  0  0  0
 38 36  1  0  0  0  0
 39 38  1  0  0  0  0
 40 39  1  0  0  0  0
 41 40  1  0  0  0  0
 42 41  1  0  0  0  0
 43 42  1  0  0  0  0
 44 43  1  0  0  0  0
 45 60  1  6  0  0  0
 45 49  1  0  0  0  0
 46 47  1  0  0  0  0
 47 49  2  0  0  0  0
 48 45  1  0  0  0  0
 49 44  1  0  0  0  0
 50 48  1  0  0  0  0
 50 46  1  0  0  0  0
 51 60  2  0  0  0  0
 51 61  1  0  0  0  0
 52 51  1  0  0  0  0
 53 58  1  0  0  0  0
 54 56  1  0  0  0  0
 54 53  1  0  0  0  0
 55 60  1  0  0  0  0
 56 62  1  0  0  0  0
 57 55  1  0  0  0  0
 58 52  1  0  0  0  0
 58 59  1  1  0  0  0
 62 52  2  0  0  0  0
 62 55  1  0  0  0  0
M  END
>  <MODEL>
2

>  <REMARK>
 VINA RESULT:      -5.1      1.574      2.723
  Name = 
  21 active torsions:
  status: ('A' for Active; 'I' for Inactive)
    1  A    between atoms: C_1  and  N_19
    2  A    between atoms: C_1  and  C_21
    3  A    between atoms: C_5  and  O_26
    4  A    between atoms: C_7  and  C_13
    5  A    between atoms: C_11  and  O_29
    6  A    between atoms: C_11  and  C_46
    7  A    between atoms: C_12  and  C_51
    8  A    between atoms: C_13  and  C_41
    9  A    between atoms: C_13  and  O_47
   10  A    between atoms: C_16  and  O_53
   11  A    between atoms: C_17  and  C_38
   12  A    between atoms: C_17  and  O_47
   13  A    between atoms: N_19  and  C_35
   14  A    between atoms: N_20  and  C_21
   15  A    between atoms: N_20  and  C_23
   16  A    between atoms: C_23  and  C_28
   17  A    between atoms: C_23  and  C_44
   18  A    between atoms: O_29  and  C_43
   19  A    between atoms: C_35  and  C_46
   20  A    between atoms: O_37  and  C_62
   21  A    between atoms: C_41  and  C_62
                            x       y       z     vdW  Elec       q    Type
                         _______ _______ _______ _____ _____    ______ ____

>  <TORSDO>
F 21

$$$$
=
 OpenBabel11042420423D

 62 67  0  0  1  0  0  0  0  0999 V2000
  161.0100  209.6500  151.3820 C   0  0  2  0  0  3  0  0  0  0  0  0
  159.5980  211.0100  154.6580 C   0  0  0  0  0  0  0  0  0  0  0  0
  160.6400  211.5490  156.7760 C   0  0  0  0  0  3  0  0  0  0  0  0
  162.0900  210.2700  153.6180 C   0  0  0  0  0  3  0  0  0  0  0  0
  159.4220  211.9210  157.2610 N   0  0  0  0  0  0  0  0  0  0  0  0
  158.3600  211.3940  155.1810 C   0  0  0  0  0  3  0  0  0  0  0  0
  156.9890  212.2720  157.0770 C   0  0  0  0  0  1  0  0  0  0  0  0
  161.9990  210.7250  154.9400 C   0  0  0  0  0  3  0  0  0  0  0  0
  160.9420  210.1800  152.8070 C   0  0  0  0  0  0  0  0  0  0  0  0
  159.6950  210.5440  153.3490 C   0  0  0  0  0  3  0  0  0  0  0  0
  160.7560  211.0940  155.4590 C   0  0  0  0  0  0  0  0  0  0  0  0
  158.2940  211.8560  156.5000 C   0  0  0  0  0  0  0  0  0  0  0  0
  160.7270  205.5300  148.8430 N   0  0  0  0  0  2  0  0  0  0  0  0
  161.9480  205.4550  151.0670 C   0  0  0  0  0  0  0  0  0  0  0  0
  161.5280  204.6560  148.0410 C   0  0  0  0  0  0  0  0  0  0  0  0
  161.2360  206.2080  149.9970 C   0  0  0  0  0  0  0  0  0  0  0  0
  161.6240  207.4270  152.5390 C   0  0  2  0  0  3  0  0  0  0  0  0
  161.6120  208.2440  151.2340 C   0  0  1  0  0  3  0  0  0  0  0  0
  162.1720  206.0530  152.2470 C   0  0  0  0  0  3  0  0  0  0  0  0
  161.0160  207.4840  150.1310 N   0  0  0  0  0  0  0  0  0  0  0  0
  162.7880  204.7450  148.0810 O   0  0  0  0  0  0  0  0  0  0  0  0
  160.3300  207.3030  153.0530 O   0  0  0  0  0  0  0  0  0  0  0  0
  160.5020  206.8650  154.3670 C   0  0  0  0  0  1  0  0  0  0  0  0
  162.3480  204.1330  150.8370 O   0  0  0  0  0  0  0  0  0  0  0  0
  161.9540  203.0470  151.6640 C   0  0  0  0  0  1  0  0  0  0  0  0
  160.8740  203.6120  147.1840 C   0  0  1  0  0  3  0  0  0  0  0  0
  161.5900  203.4600  145.9900 O   0  0  0  0  0  0  0  0  0  0  0  0
  160.7350  203.8920  144.9640 C   0  0  0  0  0  2  0  0  0  0  0  0
  159.5990  206.0710  145.4590 O   0  0  0  0  0  1  0  0  0  0  0  0
  160.6820  205.3850  144.9190 C   0  0  0  0  0  0  0  0  0  0  0  0
  161.6400  206.0300  144.4140 O   0  0  0  0  0  0  0  0  0  0  0  0
  160.8540  202.2890  147.9500 C   0  0  0  0  0  2  0  0  0  0  0  0
  159.8770  202.3520  149.1100 C   0  0  0  0  0  2  0  0  0  0  0  0
  161.1660  200.5790  149.4070 C   0  0  0  0  0  1  0  0  0  0  0  0
  160.1710  201.3420  150.0250 O   0  0  0  0  0  0  0  0  0  0  0  0
  161.5280  210.5940  150.3740 N   0  0  0  0  0  0  0  0  0  0  0  0
  162.9720  210.7740  150.5060 C   0  0  0  0  0  1  0  0  0  0  0  0
  160.8770  211.8810  150.5800 C   0  0  0  0  0  2  0  0  0  0  0  0
  161.0600  212.7790  149.3540 C   0  0  0  0  0  2  0  0  0  0  0  0
  160.7180  212.0340  148.1490 N   0  0  0  0  0  2  0  0  0  0  0  0
  160.5650  212.9710  147.0370 C   0  0  0  0  0  2  0  0  0  0  0  0
  159.9900  212.2970  145.7910 C   0  0  0  0  0  2  0  0  0  0  0  0
  159.4950  213.3150  144.7850 C   0  0  0  0  0  2  0  0  0  0  0  0
  159.4450  212.7190  143.4980 O   0  0  0  0  0  0  0  0  0  0  0  0
  159.7600  213.7180  141.2240 C   0  0  2  0  0  3  0  0  0  0  0  0
  162.6390  213.2840  141.6690 C   0  0  0  0  0  2  0  0  0  0  0  0
  161.6020  212.8320  142.6010 N   0  0  0  0  0  0  0  0  0  0  0  0
  160.8500  214.4390  140.4240 C   0  0  0  0  0  2  0  0  0  0  0  0
  160.3240  213.0670  142.4730 C   0  0  0  0  0  0  0  0  0  0  0  0
  162.0700  213.5480  140.2840 C   0  0  0  0  0  2  0  0  0  0  0  0
  159.3690  211.4990  139.9640 C   0  0  0  0  0  0  0  0  0  0  0  0
  158.3270  210.9040  139.2810 C   0  0  0  0  0  0  0  0  0  0  0  0
  156.9770  209.4250  137.7990 C   0  0  0  0  0  2  0  0  0  0  0  0
  155.7390  210.0090  138.4990 C   0  0  0  0  0  2  0  0  0  0  0  0
  157.6330  212.8880  140.0300 N   0  0  0  0  0  0  0  0  0  0  0  0
  155.9190  211.5070  138.7770 C   0  0  0  0  0  2  0  0  0  0  0  0
  156.7710  213.9080  140.3640 O   0  0  0  0  0  1  0  0  0  0  0  0
  158.2180  209.5240  138.6890 C   0  0  1  0  0  3  0  0  0  0  0  0
  159.4400  209.1740  137.8690 C   0  0  0  0  0  1  0  0  0  0  0  0
  158.9340  212.7450  140.4000 C   0  0  0  0  0  0  0  0  0  0  0  0
  160.6190  210.9290  140.1990 O   0  0  0  0  0  1  0  0  0  0  0  0
  157.2630  211.7710  139.3810 C   0  0  0  0  0  0  0  0  0  0  0  0
  1 36  1  6  0  0  0
  1  9  1  0  0  0  0
  2  6  2  0  0  0  0
  2 11  1  0  0  0  0
  3  5  1  0  0  0  0
  4  8  2  0  0  0  0
  6 12  1  0  0  0  0
  8 11  1  0  0  0  0
  9 10  2  0  0  0  0
  9  4  1  0  0  0  0
 10  2  1  0  0  0  0
 11  3  2  0  0  0  0
 12  7  1  0  0  0  0
 12  5  2  0  0  0  0
 13 16  1  0  0  0  0
 14 19  2  0  0  0  0
 15 21  2  0  0  0  0
 15 13  1  0  0  0  0
 16 20  2  0  0  0  0
 16 14  1  0  0  0  0
 17 22  1  6  0  0  0
 18  1  1  1  0  0  0
 18 17  1  0  0  0  0
 19 17  1  0  0  0  0
 20 18  1  0  0  0  0
 22 23  1  0  0  0  0
 24 14  1  0  0  0  0
 24 25  1  0  0  0  0
 26 32  1  1  0  0  0
 26 15  1  0  0  0  0
 27 26  1  0  0  0  0
 28 27  1  0  0  0  0
 30 28  1  0  0  0  0
 30 29  1  0  0  0  0
 31 30  2  0  0  0  0
 32 33  1  0  0  0  0
 33 35  1  0  0  0  0
 34 35  1  0  0  0  0
 36 37  1  0  0  0  0
 36 38  1  0  0  0  0
 39 38  1  0  0  0  0
 40 39  1  0  0  0  0
 41 40  1  0  0  0  0
 42 41  1  0  0  0  0
 43 42  1  0  0  0  0
 44 43  1  0  0  0  0
 45 60  1  6  0  0  0
 45 49  1  0  0  0  0
 46 47  1  0  0  0  0
 48 45  1  0  0  0  0
 49 47  2  0  0  0  0
 49 44  1  0  0  0  0
 50 48  1  0  0  0  0
 50 46  1  0  0  0  0
 51 61  1  0  0  0  0
 51 60  2  0  0  0  0
 52 62  2  0  0  0  0
 52 51  1  0  0  0  0
 53 54  1  0  0  0  0
 53 58  1  0  0  0  0
 54 56  1  0  0  0  0
 55 57  1  0  0  0  0
 55 60  1  0  0  0  0
 56 62  1  0  0  0  0
 58 59  1  6  0  0  0
 58 52  1  0  0  0  0
 62 55  1  0  0  0  0
M  END
>  <MODEL>
3

>  <REMARK>
 VINA RESULT:      -5.0      0.896      1.649
  Name = 
  21 active torsions:
  status: ('A' for Active; 'I' for Inactive)
    1  A    between atoms: C_1  and  N_19
    2  A    between atoms: C_1  and  C_21
    3  A    between atoms: C_5  and  O_26
    4  A    between atoms: C_7  and  C_13
    5  A    between atoms: C_11  and  O_29
    6  A    between atoms: C_11  and  C_46
    7  A    between atoms: C_12  and  C_51
    8  A    between atoms: C_13  and  C_41
    9  A    between atoms: C_13  and  O_47
   10  A    between atoms: C_16  and  O_53
   11  A    between atoms: C_17  and  C_38
   12  A    between atoms: C_17  and  O_47
   13  A    between atoms: N_19  and  C_35
   14  A    between atoms: N_20  and  C_21
   15  A    between atoms: N_20  and  C_23
   16  A    between atoms: C_23  and  C_28
   17  A    between atoms: C_23  and  C_44
   18  A    between atoms: O_29  and  C_43
   19  A    between atoms: C_35  and  C_46
   20  A    between atoms: O_37  and  C_62
   21  A    between atoms: C_41  and  C_62
                            x       y       z     vdW  Elec       q    Type
                         _______ _______ _______ _____ _____    ______ ____

>  <TORSDO>
F 21

$$$$
=
 OpenBabel11042420423D

 62 67  0  0  1  0  0  0  0  0999 V2000
  160.6260  213.2390  148.2320 C   0  0  2  0  0  3  0  0  0  0  0  0
  160.4020  213.2940  144.4210 C   0  0  0  0  0  0  0  0  0  0  0  0
  158.7470  214.2010  142.9040 C   0  0  0  0  0  3  0  0  0  0  0  0
  158.9160  214.2260  146.6030 C   0  0  0  0  0  3  0  0  0  0  0  0
  159.4910  213.7560  141.8540 N   0  0  0  0  0  0  0  0  0  0  0  0
  161.1440  212.8450  143.3260 C   0  0  0  0  0  3  0  0  0  0  0  0
  161.4400  212.6250  140.8540 C   0  0  0  0  0  1  0  0  0  0  0  0
  158.4500  214.4530  145.3020 C   0  0  0  0  0  3  0  0  0  0  0  0
  160.1220  213.5340  146.8270 C   0  0  0  0  0  0  0  0  0  0  0  0
  160.8510  213.0610  145.7190 C   0  0  0  0  0  3  0  0  0  0  0  0
  159.1920  213.9890  144.2130 C   0  0  0  0  0  0  0  0  0  0  0  0
  160.6660  213.0920  142.0340 C   0  0  0  0  0  0  0  0  0  0  0  0
  159.3700  212.5210  152.8590 N   0  0  0  0  0  2  0  0  0  0  0  0
  157.8530  213.9870  151.4460 C   0  0  0  0  0  0  0  0  0  0  0  0
  159.3310  213.1940  154.1220 C   0  0  0  0  0  0  0  0  0  0  0  0
  159.0950  213.1830  151.6190 C   0  0  0  0  0  0  0  0  0  0  0  0
  158.2530  213.9030  148.9980 C   0  0  2  0  0  3  0  0  0  0  0  0
  159.7410  213.7710  149.3700 C   0  0  1  0  0  3  0  0  0  0  0  0
  157.4880  214.3660  150.2120 C   0  0  0  0  0  3  0  0  0  0  0  0
  159.9170  213.0260  150.6210 N   0  0  0  0  0  0  0  0  0  0  0  0
  159.4350  214.4530  154.1670 O   0  0  0  0  0  0  0  0  0  0  0  0
  157.7410  212.6730  148.5760 O   0  0  0  0  0  0  0  0  0  0  0  0
  156.3540  212.8270  148.6120 C   0  0  0  0  0  1  0  0  0  0  0  0
  157.0750  214.3110  152.5650 O   0  0  0  0  0  0  0  0  0  0  0  0
  155.6620  214.1670  152.5950 C   0  0  0  0  0  1  0  0  0  0  0  0
  159.1280  212.4100  155.3850 C   0  0  1  0  0  3  0  0  0  0  0  0
  158.0540  212.9440  156.1080 O   0  0  0  0  0  0  0  0  0  0  0  0
  157.1390  211.8940  156.2820 C   0  0  0  0  0  2  0  0  0  0  0  0
  155.5250  213.7880  156.5870 O   0  0  0  0  0  0  0  0  0  0  0  0
  155.7960  212.4260  156.6690 C   0  0  0  0  0  0  0  0  0  0  0  0
  154.8930  211.6310  157.0460 O   0  0  0  0  0  1  0  0  0  0  0  0
  158.8350  210.9550  155.0200 C   0  0  0  0  0  2  0  0  0  0  0  0
  160.0080  210.0610  155.3820 C   0  0  0  0  0  2  0  0  0  0  0  0
  161.8500  210.3350  154.1900 C   0  0  0  0  0  1  0  0  0  0  0  0
  161.1900  210.7980  155.3320 O   0  0  0  0  0  0  0  0  0  0  0  0
  162.0590  213.4990  148.4630 N   0  0  0  0  0  0  0  0  0  0  0  0
  162.6510  214.2440  147.3540 C   0  0  0  0  0  1  0  0  0  0  0  0
  162.7410  212.2170  148.5800 C   0  0  0  0  0  2  0  0  0  0  0  0
  161.7800  211.0670  148.2680 C   0  0  0  0  0  2  0  0  0  0  0  0
  162.3420  209.8160  148.7610 N   0  0  0  0  0  2  0  0  0  0  0  0
  162.2050  209.7730  150.2170 C   0  0  0  0  0  2  0  0  0  0  0  0
  161.8500  208.3740  150.7210 C   0  0  0  0  0  2  0  0  0  0  0  0
  161.3320  207.4940  149.6020 C   0  0  0  0  0  2  0  0  0  0  0  0
  160.3600  206.5990  150.1190 O   0  0  0  0  0  0  0  0  0  0  0  0
  161.7930  204.5500  150.2450 C   0  0  2  0  0  3  0  0  0  0  0  0
  160.4410  204.0240  152.8080 C   0  0  0  0  0  2  0  0  0  0  0  0
  160.0770  205.1300  151.9160 N   0  0  0  0  0  0  0  0  0  0  0  0
  162.3530  203.6000  151.3090 C   0  0  0  0  0  2  0  0  0  0  0  0
  160.6990  205.4350  150.8090 C   0  0  0  0  0  0  0  0  0  0  0  0
  161.2180  202.9440  152.0720 C   0  0  0  0  0  2  0  0  0  0  0  0
  161.5530  204.3480  147.6820 C   0  0  0  0  0  0  0  0  0  0  0  0
  161.0550  203.4180  146.7920 C   0  0  0  0  0  0  0  0  0  0  0  0
  160.1760  202.3000  144.7460 C   0  0  0  0  0  2  0  0  0  0  0  0
  160.3910  200.9720  145.4910 C   0  0  0  0  0  2  0  0  0  0  0  0
  160.7930  202.6210  148.8590 N   0  0  0  0  0  0  0  0  0  0  0  0
  160.0300  201.1090  146.9760 C   0  0  0  0  0  2  0  0  0  0  0  0
  160.5460  201.7180  149.8690 O   0  0  0  0  0  1  0  0  0  0  0  0
  161.0960  203.3980  145.2870 C   0  0  1  0  0  3  0  0  0  0  0  0
  160.6710  204.7260  144.7020 C   0  0  0  0  0  1  0  0  0  0  0  0
  161.3580  203.8530  148.9660 C   0  0  0  0  0  0  0  0  0  0  0  0
  162.1710  205.5510  147.3420 O   0  0  0  0  0  1  0  0  0  0  0  0
  160.6370  202.3510  147.5520 C   0  0  0  0  0  0  0  0  0  0  0  0
  1 36  1  6  0  0  0
  2 10  1  0  0  0  0
  3 11  1  0  0  0  0
  4  9  1  0  0  0  0
  5 12  1  0  0  0  0
  5  3  2  0  0  0  0
  6  2  1  0  0  0  0
  7 12  1  0  0  0  0
  8  4  2  0  0  0  0
  9  1  1  0  0  0  0
 10  9  2  0  0  0  0
 11  2  2  0  0  0  0
 11  8  1  0  0  0  0
 12  6  2  0  0  0  0
 13 15  1  0  0  0  0
 14 16  1  0  0  0  0
 14 24  1  0  0  0  0
 15 21  2  0  0  0  0
 15 26  1  0  0  0  0
 16 13  1  0  0  0  0
 17 22  1  1  0  0  0
 17 18  1  0  0  0  0
 17 19  1  0  0  0  0
 18  1  1  6  0  0  0
 18 20  1  0  0  0  0
 19 14  2  0  0  0  0
 20 16  2  0  0  0  0
 22 23  1  0  0  0  0
 24 25  1  0  0  0  0
 26 32  1  6  0  0  0
 26 27  1  0  0  0  0
 27 28  1  0  0  0  0
 28 30  1  0  0  0  0
 29 30  2  0  0  0  0
 30 31  1  0  0  0  0
 32 33  1  0  0  0  0
 34 35  1  0  0  0  0
 35 33  1  0  0  0  0
 36 38  1  0  0  0  0
 37 36  1  0  0  0  0
 39 38  1  0  0  0  0
 39 40  1  0  0  0  0
 40 41  1  0  0  0  0
 41 42  1  0  0  0  0
 43 44  1  0  0  0  0
 43 42  1  0  0  0  0
 44 49  1  0  0  0  0
 45 60  1  6  0  0  0
 45 49  1  0  0  0  0
 45 48  1  0  0  0  0
 47 46  1  0  0  0  0
 48 50  1  0  0  0  0
 49 47  2  0  0  0  0
 50 46  1  0  0  0  0
 51 60  2  0  0  0  0
 52 62  2  0  0  0  0
 52 51  1  0  0  0  0
 53 58  1  0  0  0  0
 53 54  1  0  0  0  0
 54 56  1  0  0  0  0
 55 60  1  0  0  0  0
 55 57  1  0  0  0  0
 56 62  1  0  0  0  0
 58 59  1  6  0  0  0
 58 52  1  0  0  0  0
 61 51  1  0  0  0  0
 62 55  1  0  0  0  0
M  END
>  <MODEL>
4

>  <REMARK>
 VINA RESULT:      -4.5      3.118     11.078
  Name = 
  21 active torsions:
  status: ('A' for Active; 'I' for Inactive)
    1  A    between atoms: C_1  and  N_19
    2  A    between atoms: C_1  and  C_21
    3  A    between atoms: C_5  and  O_26
    4  A    between atoms: C_7  and  C_13
    5  A    between atoms: C_11  and  O_29
    6  A    between atoms: C_11  and  C_46
    7  A    between atoms: C_12  and  C_51
    8  A    between atoms: C_13  and  C_41
    9  A    between atoms: C_13  and  O_47
   10  A    between atoms: C_16  and  O_53
   11  A    between atoms: C_17  and  C_38
   12  A    between atoms: C_17  and  O_47
   13  A    between atoms: N_19  and  C_35
   14  A    between atoms: N_20  and  C_21
   15  A    between atoms: N_20  and  C_23
   16  A    between atoms: C_23  and  C_28
   17  A    between atoms: C_23  and  C_44
   18  A    between atoms: O_29  and  C_43
   19  A    between atoms: C_35  and  C_46
   20  A    between atoms: O_37  and  C_62
   21  A    between atoms: C_41  and  C_62
                            x       y       z     vdW  Elec       q    Type
                         _______ _______ _______ _____ _____    ______ ____

>  <TORSDO>
F 21

$$$$
=
 OpenBabel11042420423D

 62 67  0  0  1  0  0  0  0  0999 V2000
  161.2180  209.9950  151.0070 C   0  0  2  0  0  3  0  0  0  0  0  0
  159.0590  211.0960  153.9570 C   0  0  0  0  0  0  0  0  0  0  0  0
  159.6080  211.6910  156.2390 C   0  0  0  0  0  3  0  0  0  0  0  0
  161.7720  210.6710  153.4130 C   0  0  0  0  0  3  0  0  0  0  0  0
  158.2850  211.9090  156.4820 N   0  0  0  0  0  0  0  0  0  0  0  0
  157.7080  211.3240  154.2340 C   0  0  0  0  0  3  0  0  0  0  0  0
  155.9080  211.9890  155.8350 C   0  0  0  0  0  1  0  0  0  0  0  0
  161.3790  211.0760  154.6940 C   0  0  0  0  0  3  0  0  0  0  0  0
  160.8180  210.4750  152.3950 C   0  0  0  0  0  0  0  0  0  0  0  0
  159.4570  210.6810  152.6890 C   0  0  0  0  0  3  0  0  0  0  0  0
  160.0250  211.2880  154.9670 C   0  0  0  0  0  0  0  0  0  0  0  0
  157.3390  211.7380  155.5180 C   0  0  0  0  0  0  0  0  0  0  0  0
  160.9820  205.7730  148.6360 N   0  0  0  0  0  2  0  0  0  0  0  0
  162.0990  205.7770  150.9150 C   0  0  0  0  0  0  0  0  0  0  0  0
  161.8040  204.8540  147.9100 C   0  0  0  0  0  0  0  0  0  0  0  0
  161.4490  206.4930  149.7820 C   0  0  0  0  0  0  0  0  0  0  0  0
  161.7410  207.8160  152.2850 C   0  0  2  0  0  3  0  0  0  0  0  0
  161.8020  208.5750  150.9470 C   0  0  1  0  0  3  0  0  0  0  0  0
  162.2800  206.4230  152.0770 C   0  0  0  0  0  3  0  0  0  0  0  0
  161.2450  207.7770  149.8520 N   0  0  0  0  0  0  0  0  0  0  0  0
  163.0630  204.9260  148.0050 O   0  0  0  0  0  0  0  0  0  0  0  0
  160.4230  207.7330  152.7430 O   0  0  0  0  0  0  0  0  0  0  0  0
  160.5100  207.0940  153.9810 C   0  0  0  0  0  1  0  0  0  0  0  0
  162.4880  204.4410  150.7600 O   0  0  0  0  0  0  0  0  0  0  0  0
  161.9060  203.3730  151.4960 C   0  0  0  0  0  1  0  0  0  0  0  0
  161.1720  203.7830  147.0700 C   0  0  1  0  0  3  0  0  0  0  0  0
  160.2500  203.0590  147.8360 O   0  0  0  0  0  0  0  0  0  0  0  0
  160.7860  201.7690  147.9770 C   0  0  0  0  0  2  0  0  0  0  0  0
  159.6250  201.8710  150.1970 O   0  0  0  0  0  1  0  0  0  0  0  0
  160.5430  201.2480  149.3580 C   0  0  0  0  0  0  0  0  0  0  0  0
  161.1530  200.2190  149.7540 O   0  0  0  0  0  0  0  0  0  0  0  0
  160.4620  204.4400  145.8870 C   0  0  0  0  0  2  0  0  0  0  0  0
  161.4160  205.3290  145.1100 C   0  0  0  0  0  2  0  0  0  0  0  0
  161.6040  205.8270  142.9640 C   0  0  0  0  0  1  0  0  0  0  0  0
  160.7370  205.9350  144.0550 O   0  0  0  0  0  0  0  0  0  0  0  0
  161.9880  210.9570  150.1970 N   0  0  0  0  0  0  0  0  0  0  0  0
  161.5480  212.3300  150.4400 C   0  0  0  0  0  1  0  0  0  0  0  0
  161.7750  210.6420  148.7910 C   0  0  0  0  0  2  0  0  0  0  0  0
  161.9200  211.8980  147.9300 C   0  0  0  0  0  2  0  0  0  0  0  0
  160.6380  212.2160  147.3130 N   0  0  0  0  0  2  0  0  0  0  0  0
  160.8280  212.3700  145.8710 C   0  0  0  0  0  2  0  0  0  0  0  0
  159.5190  212.2120  145.0980 C   0  0  0  0  0  2  0  0  0  0  0  0
  159.4430  213.1720  143.9290 C   0  0  0  0  0  2  0  0  0  0  0  0
  159.3870  212.4350  142.7170 O   0  0  0  0  0  0  0  0  0  0  0  0
  159.5040  213.2960  140.3700 C   0  0  2  0  0  3  0  0  0  0  0  0
  162.4200  212.9780  140.6270 C   0  0  0  0  0  2  0  0  0  0  0  0
  161.4690  212.5550  141.6590 N   0  0  0  0  0  0  0  0  0  0  0  0
  160.5080  213.9980  139.4490 C   0  0  0  0  0  2  0  0  0  0  0  0
  160.1770  212.7430  141.6110 C   0  0  0  0  0  0  0  0  0  0  0  0
  161.7450  213.1370  139.2740 C   0  0  0  0  0  2  0  0  0  0  0  0
  159.1340  211.0530  139.1470 C   0  0  0  0  0  0  0  0  0  0  0  0
  158.0580  210.3600  138.6270 C   0  0  0  0  0  0  0  0  0  0  0  0
  156.6390  208.7590  137.3520 C   0  0  0  0  0  2  0  0  0  0  0  0
  155.4780  209.2140  138.2500 C   0  0  0  0  0  2  0  0  0  0  0  0
  157.3040  212.2630  139.5140 N   0  0  0  0  0  0  0  0  0  0  0  0
  155.5540  210.7220  138.5250 C   0  0  0  0  0  2  0  0  0  0  0  0
  156.4110  213.1910  140.0000 O   0  0  0  0  0  1  0  0  0  0  0  0
  157.9910  208.9780  138.0350 C   0  0  1  0  0  3  0  0  0  0  0  0
  159.0940  208.7530  137.0230 C   0  0  0  0  0  1  0  0  0  0  0  0
  158.6550  212.2480  139.6690 C   0  0  0  0  0  0  0  0  0  0  0  0
  160.4540  210.6090  139.1680 O   0  0  0  0  0  1  0  0  0  0  0  0
  156.9450  211.1160  138.9110 C   0  0  0  0  0  0  0  0  0  0  0  0
  1 36  1  1  0  0  0
  1  9  1  0  0  0  0
  2  6  2  0  0  0  0
  2 11  1  0  0  0  0
  3  5  1  0  0  0  0
  4  8  2  0  0  0  0
  6 12  1  0  0  0  0
  8 11  1  0  0  0  0
  9 10  2  0  0  0  0
  9  4  1  0  0  0  0
 10  2  1  0  0  0  0
 11  3  2  0  0  0  0
 12  7  1  0  0  0  0
 12  5  2  0  0  0  0
 13 16  1  0  0  0  0
 14 19  2  0  0  0  0
 15 21  2  0  0  0  0
 15 13  1  0  0  0  0
 16 20  2  0  0  0  0
 16 14  1  0  0  0  0
 17 22  1  6  0  0  0
 18  1  1  1  0  0  0
 18 17  1  0  0  0  0
 19 17  1  0  0  0  0
 20 18  1  0  0  0  0
 22 23  1  0  0  0  0
 24 14  1  0  0  0  0
 24 25  1  0  0  0  0
 26 32  1  6  0  0  0
 26 27  1  0  0  0  0
 26 15  1  0  0  0  0
 27 28  1  0  0  0  0
 28 30  1  0  0  0  0
 30 31  2  0  0  0  0
 30 29  1  0  0  0  0
 33 32  1  0  0  0  0
 34 35  1  0  0  0  0
 35 33  1  0  0  0  0
 36 37  1  0  0  0  0
 38 36  1  0  0  0  0
 39 38  1  0  0  0  0
 40 39  1  0  0  0  0
 41 40  1  0  0  0  0
 42 41  1  0  0  0  0
 43 42  1  0  0  0  0
 44 43  1  0  0  0  0
 45 60  1  6  0  0  0
 45 49  1  0  0  0  0
 46 47  1  0  0  0  0
 48 45  1  0  0  0  0
 49 47  2  0  0  0  0
 49 44  1  0  0  0  0
 50 48  1  0  0  0  0
 50 46  1  0  0  0  0
 51 61  1  0  0  0  0
 51 60  2  0  0  0  0
 52 62  2  0  0  0  0
 52 51  1  0  0  0  0
 53 58  1  0  0  0  0
 53 54  1  0  0  0  0
 54 56  1  0  0  0  0
 55 60  1  0  0  0  0
 55 57  1  0  0  0  0
 56 62  1  0  0  0  0
 58 59  1  6  0  0  0
 58 52  1  0  0  0  0
 62 55  1  0  0  0  0
M  END
>  <MODEL>
5

>  <REMARK>
 VINA RESULT:      -3.9      0.950      2.611
  Name = 
  21 active torsions:
  status: ('A' for Active; 'I' for Inactive)
    1  A    between atoms: C_1  and  N_19
    2  A    between atoms: C_1  and  C_21
    3  A    between atoms: C_5  and  O_26
    4  A    between atoms: C_7  and  C_13
    5  A    between atoms: C_11  and  O_29
    6  A    between atoms: C_11  and  C_46
    7  A    between atoms: C_12  and  C_51
    8  A    between atoms: C_13  and  C_41
    9  A    between atoms: C_13  and  O_47
   10  A    between atoms: C_16  and  O_53
   11  A    between atoms: C_17  and  C_38
   12  A    between atoms: C_17  and  O_47
   13  A    between atoms: N_19  and  C_35
   14  A    between atoms: N_20  and  C_21
   15  A    between atoms: N_20  and  C_23
   16  A    between atoms: C_23  and  C_28
   17  A    between atoms: C_23  and  C_44
   18  A    between atoms: O_29  and  C_43
   19  A    between atoms: C_35  and  C_46
   20  A    between atoms: O_37  and  C_62
   21  A    between atoms: C_41  and  C_62
                            x       y       z     vdW  Elec       q    Type
                         _______ _______ _______ _____ _____    ______ ____

>  <TORSDO>
F 21

$$$$
