=
 OpenBabel11052411033D

 37 38  0  0  1  0  0  0  0  0999 V2000
  161.7110  209.0260  150.7790 C   0  0  0  0  0  0  0  0  0  0  0  0
  160.9580  210.2810  152.7900 C   0  0  2  0  0  3  0  0  0  0  0  0
  160.5080  209.4810  151.5790 C   0  0  2  0  0  3  0  0  0  0  0  0
  162.3520  207.8820  151.0680 C   0  0  0  0  0  3  0  0  0  0  0  0
  161.5480  207.9420  153.3750 C   0  0  2  0  0  3  0  0  0  0  0  0
  160.4010  208.8880  152.9970 C   0  0  1  0  0  3  0  0  0  0  0  0
  159.7070  211.4740  153.2020 Cl  0  0  0  0  0  0  0  0  0  0  0  0
  161.9200  207.0170  152.2110 C   0  0  1  0  0  3  0  0  0  0  0  0
  162.5270  207.9090  148.1810 O   0  0  0  0  0  1  0  0  0  0  0  0
  162.1570  209.8420  149.6390 C   0  0  0  0  0  0  0  0  0  0  0  0
  162.2770  211.0920  149.7870 O   0  0  0  0  0  0  0  0  0  0  0  0
  162.4790  209.2590  148.3710 N   0  0  0  0  0  2  0  0  0  0  0  0
  161.2050  207.1640  154.6400 C   0  0  0  0  0  2  0  0  0  0  0  0
  160.0600  207.8280  155.3950 C   0  0  0  0  0  2  0  0  0  0  0  0
  160.5660  208.9030  156.3040 C   0  0  0  0  0  3  0  0  0  0  0  0
  159.9070  210.0220  156.4530 C   0  0  0  0  0  0  0  0  0  0  0  0
  159.2220  211.1210  156.6060 C   0  0  0  0  0  3  0  0  0  0  0  0
  159.8360  212.3150  157.2600 C   0  0  0  0  0  2  0  0  0  0  0  0
  158.9400  213.5320  157.0970 C   0  0  0  0  0  2  0  0  0  0  0  0
  158.1060  213.4210  155.8230 C   0  0  0  0  0  1  0  0  0  0  0  0
  160.8070  206.2320  151.8270 O   0  0  0  0  0  0  0  0  0  0  0  0
  161.1580  204.9190  151.3860 C   0  0  1  0  0  0  0  0  0  0  0  0
  162.6720  204.6120  151.4470 C   0  0  0  0  0  1  0  0  0  0  0  0
  160.4470  203.9790  152.3660 C   0  0  0  0  0  2  0  0  0  0  0  0
  160.8570  202.6440  152.2310 O   0  0  0  0  0  1  0  0  0  0  0  0
  160.6050  204.6910  149.9530 C   0  0  1  0  0  3  0  0  0  0  0  0
  160.3570  206.0060  149.2310 C   0  0  0  0  0  1  0  0  0  0  0  0
  161.5270  203.8220  149.0880 C   0  0  0  0  0  2  0  0  0  0  0  0
  160.7740  202.8600  148.1580 C   0  0  2  0  0  3  0  0  0  0  0  0
  160.5900  201.5120  148.7870 C   0  0  0  0  0  0  0  0  0  0  0  0
  161.4990  200.5000  148.5100 O   0  0  0  0  0  0  0  0  0  0  0  0
  159.5850  201.2630  149.5100 O   0  0  0  0  0  1  0  0  0  0  0  0
  161.4110  202.7620  146.7770 C   0  0  0  0  0  2  0  0  0  0  0  0
  161.2950  204.6860  145.1560 C   0  0  0  0  0  0  0  0  0  0  0  0
  160.2800  204.1940  144.5860 O   0  0  0  0  0  0  0  0  0  0  0  0
  161.8870  205.8340  144.6450 O   0  0  0  0  0  1  0  0  0  0  0  0
  161.8360  204.0790  146.3240 N   0  0  0  0  0  2  0  0  0  0  0  0
  1  4  2  0  0  0  0
  2  6  1  0  0  0  0
  2  7  1  1  0  0  0
  3  1  1  6  0  0  0
  3  2  1  0  0  0  0
  3  6  1  0  0  0  0
  4  8  1  0  0  0  0
  5 13  1  1  0  0  0
  6  5  1  0  0  0  0
  8  5  1  0  0  0  0
  9 12  1  0  0  0  0
 10 11  2  0  0  0  0
 10  1  1  0  0  0  0
 12 10  1  0  0  0  0
 13 14  1  0  0  0  0
 14 15  1  0  0  0  0
 15 16  2  0  0  0  0
 16 17  2  0  0  0  0
 17 18  1  0  0  0  0
 19 18  1  0  0  0  0
 20 19  1  0  0  0  0
 21  8  1  0  0  0  0
 22 23  1  0  0  0  0
 22 21  1  0  0  0  0
 22 24  1  0  0  0  0
 25 24  1  0  0  0  0
 26 22  1  0  0  0  0
 27 26  1  0  0  0  0
 28 26  1  0  0  0  0
 29 30  1  0  0  0  0
 29 28  1  0  0  0  0
 30 32  1  0  0  0  0
 31 30  2  0  0  0  0
 33 29  1  0  0  0  0
 34 37  1  0  0  0  0
 35 34  2  0  0  0  0
 36 34  1  0  0  0  0
 37 33  1  0  0  0  0
M  END
>  <MODEL>
1

>  <REMARK>
 VINA RESULT:      -6.0      0.000      0.000
  Name = 
  15 active torsions:
  status: ('A' for Active; 'I' for Inactive)
    1  A    between atoms: C_1  and  C_10
    2  A    between atoms: C_3  and  C_16
    3  A    between atoms: C_6  and  C_8
    4  A    between atoms: C_8  and  C_20
    5  A    between atoms: C_8  and  O_34
    6  A    between atoms: C_13  and  C_23
    7  A    between atoms: C_13  and  C_24
    8  A    between atoms: C_13  and  C_37
    9  A    between atoms: C_15  and  C_26
   10  A    between atoms: C_16  and  C_26
   11  A    between atoms: C_19  and  C_29
   12  A    between atoms: C_20  and  C_23
   13  A    between atoms: C_25  and  O_34
   14  A    between atoms: N_27  and  C_37
   15  A    between atoms: C_29  and  C_30
                            x       y       z     vdW  Elec       q    Type
                         _______ _______ _______ _____ _____    ______ ____

>  <TORSDO>
F 15

$$$$
=
 OpenBabel11052411033D

 37 38  0  0  1  0  0  0  0  0999 V2000
  161.1300  210.7160  151.5450 C   0  0  0  0  0  0  0  0  0  0  0  0
  161.4230  208.4930  150.4700 C   0  0  2  0  0  3  0  0  0  0  0  0
  162.1330  209.6580  151.1380 C   0  0  2  0  0  3  0  0  0  0  0  0
  160.4960  210.6630  152.7270 C   0  0  0  0  0  3  0  0  0  0  0  0
  160.8330  208.2460  152.8690 C   0  0  2  0  0  3  0  0  0  0  0  0
  161.9900  208.3050  151.8620 C   0  0  1  0  0  3  0  0  0  0  0  0
  162.5160  207.7380  149.2900 Cl  0  0  0  0  0  0  0  0  0  0  0  0
  160.7350  209.5390  153.6870 C   0  0  1  0  0  3  0  0  0  0  0  0
  159.1290  212.8150  152.0500 O   0  0  0  0  0  1  0  0  0  0  0  0
  160.8770  211.8450  150.6350 C   0  0  0  0  0  0  0  0  0  0  0  0
  161.4900  211.8940  149.5300 O   0  0  0  0  0  0  0  0  0  0  0  0
  159.9410  212.8810  150.9560 N   0  0  0  0  0  2  0  0  0  0  0  0
  160.9590  207.0130  153.7560 C   0  0  0  0  0  2  0  0  0  0  0  0
  161.8200  205.9470  153.0880 C   0  0  0  0  0  2  0  0  0  0  0  0
  161.0030  204.7500  152.7150 C   0  0  0  0  0  3  0  0  0  0  0  0
  161.1630  204.1610  151.5600 C   0  0  0  0  0  0  0  0  0  0  0  0
  161.3560  203.5730  150.4130 C   0  0  0  0  0  3  0  0  0  0  0  0
  160.3710  202.5780  149.8920 C   0  0  0  0  0  2  0  0  0  0  0  0
  160.9410  201.8410  148.6920 C   0  0  0  0  0  2  0  0  0  0  0  0
  161.2950  202.8190  147.5760 C   0  0  0  0  0  1  0  0  0  0  0  0
  161.9350  209.7640  154.4030 O   0  0  0  0  0  0  0  0  0  0  0  0
  161.7420  209.9160  155.8100 C   0  0  1  0  0  0  0  0  0  0  0  0
  162.2440  208.7210  156.6530 C   0  0  0  0  0  1  0  0  0  0  0  0
  162.5810  211.1430  156.1850 C   0  0  0  0  0  2  0  0  0  0  0  0
  163.9300  210.8300  156.4050 O   0  0  0  0  0  1  0  0  0  0  0  0
  160.2440  210.2040  156.0970 C   0  0  1  0  0  3  0  0  0  0  0  0
  159.6660  209.2220  157.1030 C   0  0  0  0  0  1  0  0  0  0  0  0
  159.9960  211.6300  156.6050 C   0  0  0  0  0  2  0  0  0  0  0  0
  158.8350  212.3440  155.8970 C   0  0  2  0  0  3  0  0  0  0  0  0
  159.1340  213.7960  155.6700 C   0  0  0  0  0  0  0  0  0  0  0  0
  160.0400  214.4440  156.4970 O   0  0  0  0  0  1  0  0  0  0  0  0
  158.5220  214.4530  154.7820 O   0  0  0  0  0  0  0  0  0  0  0  0
  157.5030  212.1420  156.6100 C   0  0  0  0  0  2  0  0  0  0  0  0
  155.7710  211.2940  154.9890 C   0  0  0  0  0  0  0  0  0  0  0  0
  155.6510  212.4350  154.4620 O   0  0  0  0  0  0  0  0  0  0  0  0
  154.9400  210.2560  154.5900 O   0  0  0  0  0  1  0  0  0  0  0  0
  156.7590  211.0570  155.9870 N   0  0  0  0  0  2  0  0  0  0  0  0
  1  4  2  0  0  0  0
  2  7  1  6  0  0  0
  2  3  1  0  0  0  0
  2  6  1  0  0  0  0
  3  1  1  1  0  0  0
  3  6  1  0  0  0  0
  4  8  1  0  0  0  0
  5  8  1  0  0  0  0
  5 13  1  1  0  0  0
  6  5  1  0  0  0  0
  8 21  1  0  0  0  0
 10 12  1  0  0  0  0
 10  1  1  0  0  0  0
 11 10  2  0  0  0  0
 12  9  1  0  0  0  0
 14 13  1  0  0  0  0
 15 14  1  0  0  0  0
 16 15  2  0  0  0  0
 17 16  2  0  0  0  0
 18 17  1  0  0  0  0
 19 18  1  0  0  0  0
 20 19  1  0  0  0  0
 21 22  1  0  0  0  0
 22 26  1  0  0  0  0
 22 24  1  0  0  0  0
 22 23  1  0  0  0  0
 24 25  1  0  0  0  0
 26 28  1  0  0  0  0
 26 27  1  0  0  0  0
 29 28  1  0  0  0  0
 29 33  1  0  0  0  0
 30 29  1  0  0  0  0
 30 31  1  0  0  0  0
 32 30  2  0  0  0  0
 34 37  1  0  0  0  0
 35 34  2  0  0  0  0
 36 34  1  0  0  0  0
 37 33  1  0  0  0  0
M  END
>  <MODEL>
2

>  <REMARK>
 VINA RESULT:      -6.0      4.286      9.248
  Name = 
  15 active torsions:
  status: ('A' for Active; 'I' for Inactive)
    1  A    between atoms: C_1  and  C_10
    2  A    between atoms: C_3  and  C_16
    3  A    between atoms: C_6  and  C_8
    4  A    between atoms: C_8  and  C_20
    5  A    between atoms: C_8  and  O_34
    6  A    between atoms: C_13  and  C_23
    7  A    between atoms: C_13  and  C_24
    8  A    between atoms: C_13  and  C_37
    9  A    between atoms: C_15  and  C_26
   10  A    between atoms: C_16  and  C_26
   11  A    between atoms: C_19  and  C_29
   12  A    between atoms: C_20  and  C_23
   13  A    between atoms: C_25  and  O_34
   14  A    between atoms: N_27  and  C_37
   15  A    between atoms: C_29  and  C_30
                            x       y       z     vdW  Elec       q    Type
                         _______ _______ _______ _____ _____    ______ ____

>  <TORSDO>
F 15

$$$$
=
 OpenBabel11052411033D

 37 38  0  0  1  0  0  0  0  0999 V2000
  161.2110  208.3550  154.9030 C   0  0  0  0  0  0  0  0  0  0  0  0
  161.8200  206.5900  153.2610 C   0  0  2  0  0  3  0  0  0  0  0  0
  160.6740  207.2880  153.9730 C   0  0  2  0  0  3  0  0  0  0  0  0
  161.4600  209.6010  154.4700 C   0  0  0  0  0  3  0  0  0  0  0  0
  161.7170  208.8170  152.1690 C   0  0  2  0  0  3  0  0  0  0  0  0
  160.9340  207.5330  152.4740 C   0  0  1  0  0  3  0  0  0  0  0  0
  161.3510  204.9140  152.8990 Cl  0  0  0  0  0  0  0  0  0  0  0  0
  161.2400  209.9850  153.0400 C   0  0  1  0  0  3  0  0  0  0  0  0
  159.3710  206.7030  156.4990 O   0  0  0  0  0  1  0  0  0  0  0  0
  161.4270  208.0210  156.3200 C   0  0  0  0  0  0  0  0  0  0  0  0
  162.4150  208.5250  156.9270 O   0  0  0  0  0  0  0  0  0  0  0  0
  160.5390  207.1560  157.0380 N   0  0  0  0  0  2  0  0  0  0  0  0
  161.6510  209.1440  150.6830 C   0  0  0  0  0  2  0  0  0  0  0  0
  162.2740  208.0290  149.8510 C   0  0  0  0  0  2  0  0  0  0  0  0
  161.3570  207.6000  148.7500 C   0  0  0  0  0  3  0  0  0  0  0  0
  161.4430  206.4030  148.2310 C   0  0  0  0  0  0  0  0  0  0  0  0
  161.5290  205.1970  147.7450 C   0  0  0  0  0  3  0  0  0  0  0  0
  160.8440  204.8410  146.4660 C   0  0  0  0  0  2  0  0  0  0  0  0
  161.8640  204.5760  145.3710 C   0  0  0  0  0  2  0  0  0  0  0  0
  161.5000  205.3380  144.1000 C   0  0  0  0  0  1  0  0  0  0  0  0
  159.8660  210.2400  152.8150 O   0  0  0  0  0  0  0  0  0  0  0  0
  159.3760  211.3880  153.5120 C   0  0  1  0  0  0  0  0  0  0  0  0
  160.4600  212.1680  154.2920 C   0  0  0  0  0  1  0  0  0  0  0  0
  158.8350  212.3060  152.4110 C   0  0  0  0  0  2  0  0  0  0  0  0
  159.7410  212.4760  151.3530 O   0  0  0  0  0  1  0  0  0  0  0  0
  158.2160  210.9640  154.4520 C   0  0  1  0  0  3  0  0  0  0  0  0
  158.6620  210.9080  155.9050 C   0  0  0  0  0  1  0  0  0  0  0  0
  156.9950  211.8880  154.3480 C   0  0  0  0  0  2  0  0  0  0  0  0
  156.8070  212.8000  155.5680 C   0  0  2  0  0  3  0  0  0  0  0  0
  155.5980  212.4150  156.3660 C   0  0  0  0  0  0  0  0  0  0  0  0
  155.2620  211.0750  156.4930 O   0  0  0  0  0  0  0  0  0  0  0  0
  154.8430  213.2950  156.8670 O   0  0  0  0  0  1  0  0  0  0  0  0
  156.7960  214.2790  155.1970 C   0  0  0  0  0  2  0  0  0  0  0  0
  155.3690  214.4040  153.1250 C   0  0  0  0  0  0  0  0  0  0  0  0
  154.3100  214.4490  153.8110 O   0  0  0  0  0  1  0  0  0  0  0  0
  155.2940  214.3330  151.7400 O   0  0  0  0  0  0  0  0  0  0  0  0
  156.6450  214.4350  153.7570 N   0  0  0  0  0  2  0  0  0  0  0  0
  1 10  1  0  0  0  0
  2  7  1  6  0  0  0
  2  3  1  0  0  0  0
  3  1  1  1  0  0  0
  4  1  2  0  0  0  0
  5 13  1  6  0  0  0
  5  6  1  0  0  0  0
  5  8  1  0  0  0  0
  6  2  1  0  0  0  0
  6  3  1  0  0  0  0
  8  4  1  0  0  0  0
  9 12  1  0  0  0  0
 10 11  2  0  0  0  0
 10 12  1  0  0  0  0
 14 13  1  0  0  0  0
 15 14  1  0  0  0  0
 16 15  2  0  0  0  0
 17 16  2  0  0  0  0
 18 17  1  0  0  0  0
 19 18  1  0  0  0  0
 20 19  1  0  0  0  0
 21  8  1  0  0  0  0
 21 22  1  0  0  0  0
 22 23  1  0  0  0  0
 22 26  1  0  0  0  0
 24 22  1  0  0  0  0
 25 24  1  0  0  0  0
 26 27  1  0  0  0  0
 28 26  1  0  0  0  0
 28 29  1  0  0  0  0
 29 30  1  0  0  0  0
 30 31  2  0  0  0  0
 30 32  1  0  0  0  0
 33 29  1  0  0  0  0
 34 37  1  0  0  0  0
 34 35  1  0  0  0  0
 36 34  2  0  0  0  0
 37 33  1  0  0  0  0
M  END
>  <MODEL>
3

>  <REMARK>
 VINA RESULT:      -5.5      4.738      9.977
  Name = 
  15 active torsions:
  status: ('A' for Active; 'I' for Inactive)
    1  A    between atoms: C_1  and  C_10
    2  A    between atoms: C_3  and  C_16
    3  A    between atoms: C_6  and  C_8
    4  A    between atoms: C_8  and  C_20
    5  A    between atoms: C_8  and  O_34
    6  A    between atoms: C_13  and  C_23
    7  A    between atoms: C_13  and  C_24
    8  A    between atoms: C_13  and  C_37
    9  A    between atoms: C_15  and  C_26
   10  A    between atoms: C_16  and  C_26
   11  A    between atoms: C_19  and  C_29
   12  A    between atoms: C_20  and  C_23
   13  A    between atoms: C_25  and  O_34
   14  A    between atoms: N_27  and  C_37
   15  A    between atoms: C_29  and  C_30
                            x       y       z     vdW  Elec       q    Type
                         _______ _______ _______ _____ _____    ______ ____

>  <TORSDO>
F 15

$$$$
=
 OpenBabel11052411033D

 37 38  0  0  1  0  0  0  0  0999 V2000
  161.1070  205.5030  151.0510 C   0  0  0  0  0  0  0  0  0  0  0  0
  161.4670  206.2900  148.7190 C   0  0  2  0  0  3  0  0  0  0  0  0
  160.4490  206.1190  149.8340 C   0  0  2  0  0  3  0  0  0  0  0  0
  161.7200  206.2610  151.9750 C   0  0  0  0  0  3  0  0  0  0  0  0
  162.0810  208.0540  150.3540 C   0  0  2  0  0  3  0  0  0  0  0  0
  160.9650  207.5190  149.4480 C   0  0  1  0  0  3  0  0  0  0  0  0
  160.6430  206.1680  147.1500 Cl  0  0  0  0  0  0  0  0  0  0  0  0
  161.8010  207.7480  151.8300 C   0  0  1  0  0  3  0  0  0  0  0  0
  161.3820  203.5550  148.8620 O   0  0  0  0  0  1  0  0  0  0  0  0
  161.0370  204.0450  151.2360 C   0  0  0  0  0  0  0  0  0  0  0  0
  160.7670  203.5830  152.3820 O   0  0  0  0  0  0  0  0  0  0  0  0
  161.2450  203.1330  150.1510 N   0  0  0  0  0  2  0  0  0  0  0  0
  162.3030  209.5420  150.1080 C   0  0  0  0  0  2  0  0  0  0  0  0
  161.9990  209.9060  148.6600 C   0  0  0  0  0  2  0  0  0  0  0  0
  162.0260  211.3880  148.4590 C   0  0  0  0  0  3  0  0  0  0  0  0
  161.2220  211.9660  147.6060 C   0  0  0  0  0  0  0  0  0  0  0  0
  160.3940  212.5250  146.7690 C   0  0  0  0  0  3  0  0  0  0  0  0
  160.5940  213.9390  146.3310 C   0  0  0  0  0  2  0  0  0  0  0  0
  160.0070  214.1560  144.9450 C   0  0  0  0  0  2  0  0  0  0  0  0
  159.2510  212.9160  144.4790 C   0  0  0  0  0  1  0  0  0  0  0  0
  160.5800  208.3390  152.2350 O   0  0  0  0  0  0  0  0  0  0  0  0
  160.7430  209.3970  153.1810 C   0  0  1  0  0  0  0  0  0  0  0  0
  162.1870  209.9380  153.2870 C   0  0  0  0  0  1  0  0  0  0  0  0
  159.8530  210.5280  152.6530 C   0  0  0  0  0  2  0  0  0  0  0  0
  160.5600  211.7220  152.4460 O   0  0  0  0  0  1  0  0  0  0  0  0
  160.2240  208.9330  154.5680 C   0  0  1  0  0  3  0  0  0  0  0  0
  160.5220  207.4620  154.8160 C   0  0  0  0  0  1  0  0  0  0  0  0
  160.8030  209.7530  155.7280 C   0  0  0  0  0  2  0  0  0  0  0  0
  160.1360  211.1250  155.9070 C   0  0  2  0  0  3  0  0  0  0  0  0
  160.9310  212.0130  156.8160 C   0  0  0  0  0  0  0  0  0  0  0  0
  160.4580  213.2820  157.1150 O   0  0  0  0  0  0  0  0  0  0  0  0
  162.0570  211.6480  157.2590 O   0  0  0  0  0  1  0  0  0  0  0  0
  158.6810  211.0160  156.3470 C   0  0  0  0  0  2  0  0  0  0  0  0
  156.5610  211.6390  155.1390 C   0  0  0  0  0  0  0  0  0  0  0  0
  155.9890  210.5770  155.5140 O   0  0  0  0  0  1  0  0  0  0  0  0
  155.9140  212.5000  154.2610 O   0  0  0  0  0  0  0  0  0  0  0  0
  157.8610  211.9700  155.6150 N   0  0  0  0  0  2  0  0  0  0  0  0
  1 10  1  0  0  0  0
  1  4  2  0  0  0  0
  2  7  1  6  0  0  0
  2  6  1  0  0  0  0
  2  3  1  0  0  0  0
  3  1  1  1  0  0  0
  5 13  1  1  0  0  0
  5  8  1  0  0  0  0
  6  3  1  0  0  0  0
  6  5  1  0  0  0  0
  8  4  1  0  0  0  0
  8 21  1  0  0  0  0
  9 12  1  0  0  0  0
 10 11  2  0  0  0  0
 12 10  1  0  0  0  0
 14 13  1  0  0  0  0
 15 14  1  0  0  0  0
 16 15  2  0  0  0  0
 17 16  2  0  0  0  0
 18 17  1  0  0  0  0
 19 18  1  0  0  0  0
 20 19  1  0  0  0  0
 21 22  1  0  0  0  0
 22 23  1  0  0  0  0
 22 26  1  0  0  0  0
 24 22  1  0  0  0  0
 25 24  1  0  0  0  0
 26 27  1  0  0  0  0
 26 28  1  0  0  0  0
 28 29  1  0  0  0  0
 29 33  1  0  0  0  0
 29 30  1  0  0  0  0
 30 31  2  0  0  0  0
 30 32  1  0  0  0  0
 34 35  1  0  0  0  0
 34 37  1  0  0  0  0
 36 34  2  0  0  0  0
 37 33  1  0  0  0  0
M  END
>  <MODEL>
4

>  <REMARK>
 VINA RESULT:      -5.5      4.031      8.951
  Name = 
  15 active torsions:
  status: ('A' for Active; 'I' for Inactive)
    1  A    between atoms: C_1  and  C_10
    2  A    between atoms: C_3  and  C_16
    3  A    between atoms: C_6  and  C_8
    4  A    between atoms: C_8  and  C_20
    5  A    between atoms: C_8  and  O_34
    6  A    between atoms: C_13  and  C_23
    7  A    between atoms: C_13  and  C_24
    8  A    between atoms: C_13  and  C_37
    9  A    between atoms: C_15  and  C_26
   10  A    between atoms: C_16  and  C_26
   11  A    between atoms: C_19  and  C_29
   12  A    between atoms: C_20  and  C_23
   13  A    between atoms: C_25  and  O_34
   14  A    between atoms: N_27  and  C_37
   15  A    between atoms: C_29  and  C_30
                            x       y       z     vdW  Elec       q    Type
                         _______ _______ _______ _____ _____    ______ ____

>  <TORSDO>
F 15

$$$$
=
 OpenBabel11052411033D

 37 38  0  0  1  0  0  0  0  0999 V2000
  161.1040  209.6110  153.3340 C   0  0  0  0  0  0  0  0  0  0  0  0
  160.7670  207.6400  154.8120 C   0  0  2  0  0  3  0  0  0  0  0  0
  160.1380  208.5200  153.7450 C   0  0  2  0  0  3  0  0  0  0  0  0
  162.0170  209.4100  152.3700 C   0  0  0  0  0  3  0  0  0  0  0  0
  161.9610  206.9940  152.7340 C   0  0  2  0  0  3  0  0  0  0  0  0
  160.5890  207.0840  153.4140 C   0  0  1  0  0  3  0  0  0  0  0  0
  159.4900  206.9890  155.8630 Cl  0  0  0  0  0  0  0  0  0  0  0  0
  162.1370  208.0890  151.6760 C   0  0  1  0  0  3  0  0  0  0  0  0
  159.7350  211.9300  152.1460 O   0  0  0  0  0  1  0  0  0  0  0  0
  161.0090  210.9280  153.9830 C   0  0  0  0  0  0  0  0  0  0  0  0
  161.6080  211.1180  155.0800 O   0  0  0  0  0  0  0  0  0  0  0  0
  160.2730  212.0090  153.3970 N   0  0  0  0  0  2  0  0  0  0  0  0
  162.1830  205.6000  152.1600 C   0  0  0  0  0  2  0  0  0  0  0  0
  161.0480  204.6620  152.5530 C   0  0  0  0  0  2  0  0  0  0  0  0
  161.2520  203.2970  151.9760 C   0  0  0  0  0  3  0  0  0  0  0  0
  160.8920  203.0240  150.7500 C   0  0  0  0  0  0  0  0  0  0  0  0
  160.5470  202.7790  149.5170 C   0  0  0  0  0  3  0  0  0  0  0  0
  160.4620  201.3750  149.0140 C   0  0  0  0  0  2  0  0  0  0  0  0
  161.7900  200.9420  148.4150 C   0  0  0  0  0  2  0  0  0  0  0  0
  161.5820  199.8280  147.3940 C   0  0  0  0  0  1  0  0  0  0  0  0
  161.1390  207.9780  150.6780 O   0  0  0  0  0  0  0  0  0  0  0  0
  161.6640  207.7650  149.3660 C   0  0  1  0  0  0  0  0  0  0  0  0
  161.3870  208.9200  148.3760 C   0  0  0  0  0  1  0  0  0  0  0  0
  163.1810  207.6710  149.5670 C   0  0  0  0  0  2  0  0  0  0  0  0
  163.8190  206.9490  148.5480 O   0  0  0  0  0  1  0  0  0  0  0  0
  161.1300  206.4190  148.8090 C   0  0  1  0  0  3  0  0  0  0  0  0
  159.7420  206.1020  149.3430 C   0  0  0  0  0  1  0  0  0  0  0  0
  161.0850  206.3830  147.2750 C   0  0  0  0  0  2  0  0  0  0  0  0
  161.5150  205.0350  146.6780 C   0  0  2  0  0  3  0  0  0  0  0  0
  162.7870  205.1570  145.8940 C   0  0  0  0  0  0  0  0  0  0  0  0
  163.9510  204.5890  146.3900 O   0  0  0  0  0  1  0  0  0  0  0  0
  162.8290  205.8260  144.8240 O   0  0  0  0  0  0  0  0  0  0  0  0
  160.4060  204.3760  145.8650 C   0  0  0  0  0  2  0  0  0  0  0  0
  159.8780  202.1300  144.8560 C   0  0  0  0  0  0  0  0  0  0  0  0
  158.9650  202.6250  144.1360 O   0  0  0  0  0  0  0  0  0  0  0  0
  160.0820  200.7560  144.8660 O   0  0  0  0  0  1  0  0  0  0  0  0
  160.7080  202.9680  145.6530 N   0  0  0  0  0  2  0  0  0  0  0  0
  1 10  1  0  0  0  0
  2  7  1  1  0  0  0
  3  1  1  6  0  0  0
  3  2  1  0  0  0  0
  4  1  2  0  0  0  0
  5 13  1  6  0  0  0
  5  6  1  0  0  0  0
  6  3  1  0  0  0  0
  6  2  1  0  0  0  0
  8  4  1  0  0  0  0
  8  5  1  0  0  0  0
  9 12  1  0  0  0  0
 10 11  2  0  0  0  0
 12 10  1  0  0  0  0
 13 14  1  0  0  0  0
 15 14  1  0  0  0  0
 16 15  2  0  0  0  0
 17 16  2  0  0  0  0
 18 17  1  0  0  0  0
 19 18  1  0  0  0  0
 20 19  1  0  0  0  0
 21  8  1  0  0  0  0
 22 24  1  0  0  0  0
 22 21  1  0  0  0  0
 23 22  1  0  0  0  0
 25 24  1  0  0  0  0
 26 27  1  0  0  0  0
 26 22  1  0  0  0  0
 28 26  1  0  0  0  0
 29 28  1  0  0  0  0
 30 31  1  0  0  0  0
 30 29  1  0  0  0  0
 32 30  2  0  0  0  0
 33 29  1  0  0  0  0
 34 36  1  0  0  0  0
 34 37  1  0  0  0  0
 35 34  2  0  0  0  0
 37 33  1  0  0  0  0
M  END
>  <MODEL>
5

>  <REMARK>
 VINA RESULT:      -5.4      2.681      6.294
  Name = 
  15 active torsions:
  status: ('A' for Active; 'I' for Inactive)
    1  A    between atoms: C_1  and  C_10
    2  A    between atoms: C_3  and  C_16
    3  A    between atoms: C_6  and  C_8
    4  A    between atoms: C_8  and  C_20
    5  A    between atoms: C_8  and  O_34
    6  A    between atoms: C_13  and  C_23
    7  A    between atoms: C_13  and  C_24
    8  A    between atoms: C_13  and  C_37
    9  A    between atoms: C_15  and  C_26
   10  A    between atoms: C_16  and  C_26
   11  A    between atoms: C_19  and  C_29
   12  A    between atoms: C_20  and  C_23
   13  A    between atoms: C_25  and  O_34
   14  A    between atoms: N_27  and  C_37
   15  A    between atoms: C_29  and  C_30
                            x       y       z     vdW  Elec       q    Type
                         _______ _______ _______ _____ _____    ______ ____

>  <TORSDO>
F 15

$$$$
=
 OpenBabel11052411033D

 37 38  0  0  1  0  0  0  0  0999 V2000
  160.4560  211.3310  151.6430 C   0  0  0  0  0  0  0  0  0  0  0  0
  159.8380  210.7770  153.9870 C   0  0  2  0  0  3  0  0  0  0  0  0
  159.4390  210.6410  152.5270 C   0  0  2  0  0  3  0  0  0  0  0  0
  161.5560  210.6940  151.2120 C   0  0  0  0  0  3  0  0  0  0  0  0
  161.4580  209.1270  153.0850 C   0  0  2  0  0  3  0  0  0  0  0  0
  159.9710  209.4270  153.3140 C   0  0  1  0  0  3  0  0  0  0  0  0
  158.3750  210.7830  154.9960 Cl  0  0  0  0  0  0  0  0  0  0  0  0
  161.8400  209.2780  151.6080 C   0  0  1  0  0  3  0  0  0  0  0  0
  161.2100  212.4040  149.0080 O   0  0  0  0  0  1  0  0  0  0  0  0
  160.2070  212.7190  151.2200 C   0  0  0  0  0  0  0  0  0  0  0  0
  159.7090  213.5340  152.0480 O   0  0  0  0  0  0  0  0  0  0  0  0
  160.5290  213.1770  149.9020 N   0  0  0  0  0  2  0  0  0  0  0  0
  161.8150  207.7510  153.6330 C   0  0  0  0  0  2  0  0  0  0  0  0
  160.7430  206.7270  153.2790 C   0  0  0  0  0  2  0  0  0  0  0  0
  161.2690  205.3310  153.3980 C   0  0  0  0  0  3  0  0  0  0  0  0
  161.1100  204.4690  152.4290 C   0  0  0  0  0  0  0  0  0  0  0  0
  160.9630  203.6310  151.4420 C   0  0  0  0  0  3  0  0  0  0  0  0
  161.2050  202.1710  151.6390 C   0  0  0  0  0  2  0  0  0  0  0  0
  161.1970  201.4430  150.3050 C   0  0  0  0  0  2  0  0  0  0  0  0
  159.7780  201.3400  149.7560 C   0  0  0  0  0  1  0  0  0  0  0  0
  161.0800  208.3930  150.8070 O   0  0  0  0  0  0  0  0  0  0  0  0
  161.8150  207.8350  149.7160 C   0  0  1  0  0  0  0  0  0  0  0  0
  161.9570  208.7780  148.4980 C   0  0  0  0  0  1  0  0  0  0  0  0
  163.2160  207.5830  150.2830 C   0  0  0  0  0  2  0  0  0  0  0  0
  163.3280  206.3370  150.9170 O   0  0  0  0  0  1  0  0  0  0  0  0
  161.1730  206.4850  149.2980 C   0  0  1  0  0  3  0  0  0  0  0  0
  159.7120  206.4050  149.7140 C   0  0  0  0  0  1  0  0  0  0  0  0
  161.2690  206.2200  147.7900 C   0  0  0  0  0  2  0  0  0  0  0  0
  162.2000  205.0540  147.4270 C   0  0  2  0  0  3  0  0  0  0  0  0
  162.7120  205.1710  146.0220 C   0  0  0  0  0  0  0  0  0  0  0  0
  161.9730  205.8750  145.0830 O   0  0  0  0  0  0  0  0  0  0  0  0
  163.7700  204.5800  145.6650 O   0  0  0  0  0  1  0  0  0  0  0  0
  161.5650  203.6940  147.6900 C   0  0  0  0  0  2  0  0  0  0  0  0
  160.7110  201.9360  146.1010 C   0  0  0  0  0  0  0  0  0  0  0  0
  161.2040  201.0080  146.8020 O   0  0  0  0  0  1  0  0  0  0  0  0
  160.1100  201.6400  144.8840 O   0  0  0  0  0  0  0  0  0  0  0  0
  160.7580  203.2870  146.5490 N   0  0  0  0  0  2  0  0  0  0  0  0
  2  7  1  1  0  0  0
  3  1  1  6  0  0  0
  3  6  1  0  0  0  0
  3  2  1  0  0  0  0
  4  8  1  0  0  0  0
  4  1  2  0  0  0  0
  5  6  1  0  0  0  0
  5 13  1  6  0  0  0
  6  2  1  0  0  0  0
  8  5  1  0  0  0  0
  9 12  1  0  0  0  0
 10  1  1  0  0  0  0
 10 11  2  0  0  0  0
 12 10  1  0  0  0  0
 14 15  1  0  0  0  0
 14 13  1  0  0  0  0
 16 15  2  0  0  0  0
 17 18  1  0  0  0  0
 17 16  2  0  0  0  0
 19 18  1  0  0  0  0
 20 19  1  0  0  0  0
 21  8  1  0  0  0  0
 22 24  1  0  0  0  0
 22 21  1  0  0  0  0
 23 22  1  0  0  0  0
 24 25  1  0  0  0  0
 26 27  1  0  0  0  0
 26 22  1  0  0  0  0
 28 26  1  0  0  0  0
 29 33  1  0  0  0  0
 29 28  1  0  0  0  0
 30 29  1  0  0  0  0
 31 30  2  0  0  0  0
 32 30  1  0  0  0  0
 34 37  1  0  0  0  0
 34 35  1  0  0  0  0
 36 34  2  0  0  0  0
 37 33  1  0  0  0  0
M  END
>  <MODEL>
6

>  <REMARK>
 VINA RESULT:      -5.3      2.295      5.363
  Name = 
  15 active torsions:
  status: ('A' for Active; 'I' for Inactive)
    1  A    between atoms: C_1  and  C_10
    2  A    between atoms: C_3  and  C_16
    3  A    between atoms: C_6  and  C_8
    4  A    between atoms: C_8  and  C_20
    5  A    between atoms: C_8  and  O_34
    6  A    between atoms: C_13  and  C_23
    7  A    between atoms: C_13  and  C_24
    8  A    between atoms: C_13  and  C_37
    9  A    between atoms: C_15  and  C_26
   10  A    between atoms: C_16  and  C_26
   11  A    between atoms: C_19  and  C_29
   12  A    between atoms: C_20  and  C_23
   13  A    between atoms: C_25  and  O_34
   14  A    between atoms: N_27  and  C_37
   15  A    between atoms: C_29  and  C_30
                            x       y       z     vdW  Elec       q    Type
                         _______ _______ _______ _____ _____    ______ ____

>  <TORSDO>
F 15

$$$$
=
 OpenBabel11052411033D

 37 38  0  0  1  0  0  0  0  0999 V2000
  161.2650  205.4420  149.8200 C   0  0  0  0  0  0  0  0  0  0  0  0
  161.6320  206.4010  147.5550 C   0  0  2  0  0  3  0  0  0  0  0  0
  160.6210  206.1830  148.6670 C   0  0  2  0  0  3  0  0  0  0  0  0
  161.9210  206.0950  150.7930 C   0  0  0  0  0  3  0  0  0  0  0  0
  162.3410  207.9980  149.3180 C   0  0  2  0  0  3  0  0  0  0  0  0
  161.1920  207.5860  148.3880 C   0  0  1  0  0  3  0  0  0  0  0  0
  160.7860  206.4420  145.9930 Cl  0  0  0  0  0  0  0  0  0  0  0  0
  162.0650  207.5840  150.7680 C   0  0  1  0  0  3  0  0  0  0  0  0
  160.5670  203.9680  152.2700 O   0  0  0  0  0  1  0  0  0  0  0  0
  161.1340  203.9770  149.8870 C   0  0  0  0  0  0  0  0  0  0  0  0
  161.4070  203.2870  148.8630 O   0  0  0  0  0  0  0  0  0  0  0  0
  160.7250  203.3090  151.0860 N   0  0  0  0  0  2  0  0  0  0  0  0
  162.6240  209.4890  149.1900 C   0  0  0  0  0  2  0  0  0  0  0  0
  161.4510  210.2130  148.5400 C   0  0  0  0  0  2  0  0  0  0  0  0
  161.7840  211.6470  148.2720 C   0  0  0  0  0  3  0  0  0  0  0  0
  161.3690  212.2420  147.1850 C   0  0  0  0  0  0  0  0  0  0  0  0
  160.9240  212.8230  146.1060 C   0  0  0  0  0  3  0  0  0  0  0  0
  161.4760  214.1400  145.6680 C   0  0  0  0  0  2  0  0  0  0  0  0
  161.8380  214.1020  144.1920 C   0  0  0  0  0  2  0  0  0  0  0  0
  163.2190  213.4860  143.9910 C   0  0  0  0  0  1  0  0  0  0  0  0
  160.8750  208.1910  151.2380 O   0  0  0  0  0  0  0  0  0  0  0  0
  161.0410  208.8970  152.4690 C   0  0  1  0  0  0  0  0  0  0  0  0
  162.4730  209.4270  152.7100 C   0  0  0  0  0  1  0  0  0  0  0  0
  160.1040  210.1040  152.3510 C   0  0  0  0  0  2  0  0  0  0  0  0
  160.7970  211.3210  152.2620 O   0  0  0  0  0  1  0  0  0  0  0  0
  160.5800  207.9950  153.6460 C   0  0  1  0  0  3  0  0  0  0  0  0
  161.6390  206.9680  154.0140 C   0  0  0  0  0  1  0  0  0  0  0  0
  160.2140  208.7950  154.9030 C   0  0  0  0  0  2  0  0  0  0  0  0
  161.3800  209.6170  155.4720 C   0  0  2  0  0  3  0  0  0  0  0  0
  161.9630  208.9770  156.6960 C   0  0  0  0  0  0  0  0  0  0  0  0
  161.3300  207.8780  157.2600 O   0  0  0  0  0  0  0  0  0  0  0  0
  162.9830  209.4630  157.2600 O   0  0  0  0  0  1  0  0  0  0  0  0
  161.0040  211.0740  155.7170 C   0  0  0  0  0  2  0  0  0  0  0  0
  158.6740  211.9650  156.0650 C   0  0  0  0  0  0  0  0  0  0  0  0
  158.6600  212.4850  154.9140 O   0  0  0  0  0  0  0  0  0  0  0  0
  157.6120  212.1790  156.9340 O   0  0  0  0  0  1  0  0  0  0  0  0
  159.7660  211.1520  156.4800 N   0  0  0  0  0  2  0  0  0  0  0  0
  1 10  1  0  0  0  0
  1  4  2  0  0  0  0
  2  7  1  6  0  0  0
  2  6  1  0  0  0  0
  2  3  1  0  0  0  0
  3  1  1  1  0  0  0
  5 13  1  1  0  0  0
  5  8  1  0  0  0  0
  6  3  1  0  0  0  0
  6  5  1  0  0  0  0
  8  4  1  0  0  0  0
  8 21  1  0  0  0  0
 10 12  1  0  0  0  0
 11 10  2  0  0  0  0
 12  9  1  0  0  0  0
 14 13  1  0  0  0  0
 15 14  1  0  0  0  0
 16 15  2  0  0  0  0
 17 16  2  0  0  0  0
 18 17  1  0  0  0  0
 19 18  1  0  0  0  0
 20 19  1  0  0  0  0
 21 22  1  0  0  0  0
 22 23  1  0  0  0  0
 22 26  1  0  0  0  0
 24 22  1  0  0  0  0
 25 24  1  0  0  0  0
 26 27  1  0  0  0  0
 26 28  1  0  0  0  0
 28 29  1  0  0  0  0
 29 33  1  0  0  0  0
 29 30  1  0  0  0  0
 30 31  2  0  0  0  0
 30 32  1  0  0  0  0
 33 37  1  0  0  0  0
 34 37  1  0  0  0  0
 34 36  1  0  0  0  0
 35 34  2  0  0  0  0
M  END
>  <MODEL>
7

>  <REMARK>
 VINA RESULT:      -5.3      4.013      8.806
  Name = 
  15 active torsions:
  status: ('A' for Active; 'I' for Inactive)
    1  A    between atoms: C_1  and  C_10
    2  A    between atoms: C_3  and  C_16
    3  A    between atoms: C_6  and  C_8
    4  A    between atoms: C_8  and  C_20
    5  A    between atoms: C_8  and  O_34
    6  A    between atoms: C_13  and  C_23
    7  A    between atoms: C_13  and  C_24
    8  A    between atoms: C_13  and  C_37
    9  A    between atoms: C_15  and  C_26
   10  A    between atoms: C_16  and  C_26
   11  A    between atoms: C_19  and  C_29
   12  A    between atoms: C_20  and  C_23
   13  A    between atoms: C_25  and  O_34
   14  A    between atoms: N_27  and  C_37
   15  A    between atoms: C_29  and  C_30
                            x       y       z     vdW  Elec       q    Type
                         _______ _______ _______ _____ _____    ______ ____

>  <TORSDO>
F 15

$$$$
=
 OpenBabel11052411033D

 37 38  0  0  1  0  0  0  0  0999 V2000
  161.3470  206.2550  152.1730 C   0  0  0  0  0  0  0  0  0  0  0  0
  161.4230  204.8680  150.1110 C   0  0  2  0  0  3  0  0  0  0  0  0
  160.5680  205.7940  150.9590 C   0  0  2  0  0  3  0  0  0  0  0  0
  162.1440  207.3350  152.1240 C   0  0  0  0  0  3  0  0  0  0  0  0
  162.4030  207.1120  149.7040 C   0  0  2  0  0  3  0  0  0  0  0  0
  161.1280  206.2630  149.6030 C   0  0  1  0  0  3  0  0  0  0  0  0
  160.3730  203.7080  149.2680 Cl  0  0  0  0  0  0  0  0  0  0  0  0
  162.3180  208.1160  150.8590 C   0  0  1  0  0  3  0  0  0  0  0  0
  161.1690  207.5520  154.8090 O   0  0  0  0  0  1  0  0  0  0  0  0
  161.1920  205.5220  153.4390 C   0  0  0  0  0  0  0  0  0  0  0  0
  161.2110  204.2580  153.4240 O   0  0  0  0  0  0  0  0  0  0  0  0
  161.0410  206.1990  154.6920 N   0  0  0  0  0  2  0  0  0  0  0  0
  162.7000  207.7910  148.3730 C   0  0  0  0  0  2  0  0  0  0  0  0
  161.7650  207.2850  147.2820 C   0  0  0  0  0  2  0  0  0  0  0  0
  162.3490  206.1000  146.5790 C   0  0  0  0  0  3  0  0  0  0  0  0
  161.5870  205.1230  146.1600 C   0  0  0  0  0  0  0  0  0  0  0  0
  160.8070  204.1720  145.7300 C   0  0  0  0  0  3  0  0  0  0  0  0
  161.3740  202.8590  145.2990 C   0  0  0  0  0  2  0  0  0  0  0  0
  160.5970  201.7120  145.9250 C   0  0  0  0  0  2  0  0  0  0  0  0
  159.7150  201.0280  144.8850 C   0  0  0  0  0  1  0  0  0  0  0  0
  161.2180  208.9880  150.6770 O   0  0  0  0  0  0  0  0  0  0  0  0
  161.4840  210.3350  151.0740 C   0  0  1  0  0  0  0  0  0  0  0  0
  162.9180  210.5700  151.6010 C   0  0  0  0  0  1  0  0  0  0  0  0
  161.3120  211.1570  149.7920 C   0  0  0  0  0  2  0  0  0  0  0  0
  162.5090  211.3020  149.0770 O   0  0  0  0  0  1  0  0  0  0  0  0
  160.4300  210.7810  152.1230 C   0  0  1  0  0  3  0  0  0  0  0  0
  160.8940  210.4950  153.5420 C   0  0  0  0  0  1  0  0  0  0  0  0
  160.0720  212.2690  152.0140 C   0  0  0  0  0  2  0  0  0  0  0  0
  158.5960  212.5710  152.3100 C   0  0  2  0  0  3  0  0  0  0  0  0
  157.9860  213.4400  151.2510 C   0  0  0  0  0  0  0  0  0  0  0  0
  157.0010  214.3530  151.6010 O   0  0  0  0  0  1  0  0  0  0  0  0
  158.3050  213.3050  150.0370 O   0  0  0  0  0  0  0  0  0  0  0  0
  158.3840  213.1440  153.7070 C   0  0  0  0  0  2  0  0  0  0  0  0
  156.3740  212.1410  154.8470 C   0  0  0  0  0  0  0  0  0  0  0  0
  155.5860  212.8770  154.1880 O   0  0  0  0  0  0  0  0  0  0  0  0
  155.8770  211.3130  155.8450 O   0  0  0  0  0  1  0  0  0  0  0  0
  157.7710  212.1450  154.5710 N   0  0  0  0  0  2  0  0  0  0  0  0
  1 10  1  0  0  0  0
  2  7  1  6  0  0  0
  2  3  1  0  0  0  0
  3  1  1  1  0  0  0
  4  1  2  0  0  0  0
  5 13  1  6  0  0  0
  5  8  1  0  0  0  0
  6  5  1  0  0  0  0
  6  2  1  0  0  0  0
  6  3  1  0  0  0  0
  8  4  1  0  0  0  0
 10 12  1  0  0  0  0
 11 10  2  0  0  0  0
 12  9  1  0  0  0  0
 14 13  1  0  0  0  0
 15 14  1  0  0  0  0
 16 15  2  0  0  0  0
 17 16  2  0  0  0  0
 18 17  1  0  0  0  0
 18 19  1  0  0  0  0
 20 19  1  0  0  0  0
 21  8  1  0  0  0  0
 21 22  1  0  0  0  0
 22 23  1  0  0  0  0
 22 26  1  0  0  0  0
 24 22  1  0  0  0  0
 25 24  1  0  0  0  0
 26 27  1  0  0  0  0
 28 26  1  0  0  0  0
 28 29  1  0  0  0  0
 29 33  1  0  0  0  0
 30 31  1  0  0  0  0
 30 29  1  0  0  0  0
 32 30  2  0  0  0  0
 33 37  1  0  0  0  0
 34 36  1  0  0  0  0
 35 34  2  0  0  0  0
 37 34  1  0  0  0  0
M  END
>  <MODEL>
8

>  <REMARK>
 VINA RESULT:      -5.0      3.741      9.805
  Name = 
  15 active torsions:
  status: ('A' for Active; 'I' for Inactive)
    1  A    between atoms: C_1  and  C_10
    2  A    between atoms: C_3  and  C_16
    3  A    between atoms: C_6  and  C_8
    4  A    between atoms: C_8  and  C_20
    5  A    between atoms: C_8  and  O_34
    6  A    between atoms: C_13  and  C_23
    7  A    between atoms: C_13  and  C_24
    8  A    between atoms: C_13  and  C_37
    9  A    between atoms: C_15  and  C_26
   10  A    between atoms: C_16  and  C_26
   11  A    between atoms: C_19  and  C_29
   12  A    between atoms: C_20  and  C_23
   13  A    between atoms: C_25  and  O_34
   14  A    between atoms: N_27  and  C_37
   15  A    between atoms: C_29  and  C_30
                            x       y       z     vdW  Elec       q    Type
                         _______ _______ _______ _____ _____    ______ ____

>  <TORSDO>
F 15

$$$$
=
 OpenBabel11052411033D

 37 38  0  0  1  0  0  0  0  0999 V2000
  161.3080  210.8150  150.8850 C   0  0  0  0  0  0  0  0  0  0  0  0
  161.6960  208.6940  149.6470 C   0  0  2  0  0  3  0  0  0  0  0  0
  162.3490  209.8020  150.4560 C   0  0  2  0  0  3  0  0  0  0  0  0
  160.6000  210.6570  152.0140 C   0  0  0  0  0  3  0  0  0  0  0  0
  160.9570  208.2390  151.9720 C   0  0  2  0  0  3  0  0  0  0  0  0
  162.1750  208.3910  151.0510 C   0  0  1  0  0  3  0  0  0  0  0  0
  162.8720  208.0490  148.4810 Cl  0  0  0  0  0  0  0  0  0  0  0  0
  160.7910  209.4570  152.8880 C   0  0  1  0  0  3  0  0  0  0  0  0
  163.1000  211.6320  148.6980 O   0  0  0  0  0  1  0  0  0  0  0  0
  161.1010  212.0160  150.0590 C   0  0  0  0  0  0  0  0  0  0  0  0
  160.1470  212.7970  150.3380 O   0  0  0  0  0  0  0  0  0  0  0  0
  161.9620  212.3370  148.9600 N   0  0  0  0  0  2  0  0  0  0  0  0
  161.0410  206.9360  152.7580 C   0  0  0  0  0  2  0  0  0  0  0  0
  160.4980  205.7710  151.9390 C   0  0  0  0  0  2  0  0  0  0  0  0
  161.5260  205.2620  150.9780 C   0  0  0  0  0  3  0  0  0  0  0  0
  161.2570  205.1470  149.7040 C   0  0  0  0  0  0  0  0  0  0  0  0
  160.9760  205.0630  148.4340 C   0  0  0  0  0  3  0  0  0  0  0  0
  161.8590  204.2930  147.5090 C   0  0  0  0  0  2  0  0  0  0  0  0
  161.5570  204.6510  146.0630 C   0  0  0  0  0  2  0  0  0  0  0  0
  160.8470  205.9980  145.9770 C   0  0  0  0  0  1  0  0  0  0  0  0
  161.9400  209.6280  153.6980 O   0  0  0  0  0  0  0  0  0  0  0  0
  161.6640  209.5860  155.0990 C   0  0  1  0  0  0  0  0  0  0  0  0
  161.6110  208.1600  155.6930 C   0  0  0  0  0  1  0  0  0  0  0  0
  162.8420  210.3220  155.7470 C   0  0  0  0  0  2  0  0  0  0  0  0
  163.1220  209.8630  157.0420 O   0  0  0  0  0  1  0  0  0  0  0  0
  160.3480  210.3560  155.3890 C   0  0  1  0  0  3  0  0  0  0  0  0
  159.4880  209.6310  156.4110 C   0  0  0  0  0  1  0  0  0  0  0  0
  160.5900  211.7890  155.8790 C   0  0  0  0  0  2  0  0  0  0  0  0
  159.4820  212.7740  155.4770 C   0  0  2  0  0  3  0  0  0  0  0  0
  158.7330  213.2820  156.6720 C   0  0  0  0  0  0  0  0  0  0  0  0
  157.7630  212.4840  157.2610 O   0  0  0  0  0  1  0  0  0  0  0  0
  158.9230  214.4530  157.1070 O   0  0  0  0  0  0  0  0  0  0  0  0
  158.5450  212.2000  154.4200 C   0  0  0  0  0  2  0  0  0  0  0  0
  156.1300  212.7760  153.9920 C   0  0  0  0  0  0  0  0  0  0  0  0
  155.7510  211.6300  154.3660 O   0  0  0  0  0  1  0  0  0  0  0  0
  155.2080  213.6750  153.4730 O   0  0  0  0  0  0  0  0  0  0  0  0
  157.4970  213.1600  154.1030 N   0  0  0  0  0  2  0  0  0  0  0  0
  1  4  2  0  0  0  0
  2  7  1  6  0  0  0
  2  3  1  0  0  0  0
  2  6  1  0  0  0  0
  3  1  1  1  0  0  0
  3  6  1  0  0  0  0
  4  8  1  0  0  0  0
  5 13  1  1  0  0  0
  5  8  1  0  0  0  0
  6  5  1  0  0  0  0
  8 21  1  0  0  0  0
  9 12  1  0  0  0  0
 10 11  2  0  0  0  0
 10  1  1  0  0  0  0
 12 10  1  0  0  0  0
 14 13  1  0  0  0  0
 15 14  1  0  0  0  0
 16 15  2  0  0  0  0
 17 16  2  0  0  0  0
 18 17  1  0  0  0  0
 19 18  1  0  0  0  0
 20 19  1  0  0  0  0
 21 22  1  0  0  0  0
 22 26  1  0  0  0  0
 22 23  1  0  0  0  0
 22 24  1  0  0  0  0
 24 25  1  0  0  0  0
 26 28  1  0  0  0  0
 26 27  1  0  0  0  0
 29 28  1  0  0  0  0
 29 30  1  0  0  0  0
 30 32  2  0  0  0  0
 30 31  1  0  0  0  0
 33 29  1  0  0  0  0
 34 37  1  0  0  0  0
 34 35  1  0  0  0  0
 36 34  2  0  0  0  0
 37 33  1  0  0  0  0
M  END
>  <MODEL>
9

>  <REMARK>
 VINA RESULT:      -5.0      4.023      9.049
  Name = 
  15 active torsions:
  status: ('A' for Active; 'I' for Inactive)
    1  A    between atoms: C_1  and  C_10
    2  A    between atoms: C_3  and  C_16
    3  A    between atoms: C_6  and  C_8
    4  A    between atoms: C_8  and  C_20
    5  A    between atoms: C_8  and  O_34
    6  A    between atoms: C_13  and  C_23
    7  A    between atoms: C_13  and  C_24
    8  A    between atoms: C_13  and  C_37
    9  A    between atoms: C_15  and  C_26
   10  A    between atoms: C_16  and  C_26
   11  A    between atoms: C_19  and  C_29
   12  A    between atoms: C_20  and  C_23
   13  A    between atoms: C_25  and  O_34
   14  A    between atoms: N_27  and  C_37
   15  A    between atoms: C_29  and  C_30
                            x       y       z     vdW  Elec       q    Type
                         _______ _______ _______ _____ _____    ______ ____

>  <TORSDO>
F 15

$$$$
