=
 OpenBabel11042423063D

 48 52  0  0  1  0  0  0  0  0999 V2000
  159.1930  213.1570  150.4820 S   0  0  0  0  0  0  0  0  0  0  0  0
  158.8480  211.0950  153.8000 O   0  0  0  0  0  0  0  0  0  0  0  0
  159.0890  212.8840  152.2450 C   0  0  0  0  0  0  0  0  0  0  0  0
  161.0650  211.1530  150.8830 C   0  0  0  0  0  0  0  0  0  0  0  0
  160.9320  212.6060  150.4490 C   0  0  1  0  0  3  0  0  0  0  0  0
  158.8000  213.9260  153.0290 C   0  0  0  0  0  3  0  0  0  0  0  0
  161.3820  208.4700  151.7270 C   0  0  0  0  0  0  0  0  0  0  0  0
  161.9940  210.3080  150.2580 C   0  0  0  0  0  3  0  0  0  0  0  0
  162.1520  208.9830  150.6740 C   0  0  0  0  0  3  0  0  0  0  0  0
  160.3270  210.6600  151.9900 C   0  0  0  0  0  0  0  0  0  0  0  0
  160.5020  209.3290  152.3970 C   0  0  0  0  0  3  0  0  0  0  0  0
  159.3900  211.5240  152.7430 C   0  0  0  0  0  0  0  0  0  0  0  0
  158.6580  213.8130  155.6220 N   0  0  0  0  0  0  0  0  0  0  0  0
  158.7170  213.8640  154.4670 C   0  0  0  0  0  0  0  0  0  0  0  0
  161.5750  212.9490  149.0990 C   0  0  0  0  0  2  0  0  0  0  0  0
  160.5890  212.8490  147.9390 C   0  0  0  0  0  2  0  0  0  0  0  0
  161.2630  213.2890  146.6510 C   0  0  2  0  0  3  0  0  0  0  0  0
  162.2660  214.3840  146.9890 C   0  0  0  0  0  1  0  0  0  0  0  0
  158.8130  213.5770  146.1680 C   0  0  0  0  0  1  0  0  0  0  0  0
  160.2230  213.7790  145.6310 C   0  0  2  0  0  3  0  0  0  0  0  0
  160.3500  213.0760  144.3110 C   0  0  0  0  0  0  0  0  0  0  0  0
  161.7360  212.2250  139.9730 C   0  0  0  0  0  1  0  0  0  0  0  0
  163.2560  214.4500  141.1450 O   0  0  0  0  0  0  0  0  0  0  0  0
  161.1700  211.8970  142.4480 C   0  0  1  0  0  3  0  0  0  0  0  0
  159.7650  212.1020  142.4610 O   0  0  0  0  0  0  0  0  0  0  0  0
  161.7650  212.6480  141.3620 N   0  0  0  0  0  0  0  0  0  0  0  0
  161.6440  212.5890  143.7490 C   0  0  1  0  0  3  0  0  0  0  0  0
  162.5670  213.6880  141.8740 C   0  0  0  0  0  0  0  0  0  0  0  0
  159.3390  212.7850  143.5690 N   0  0  0  0  0  0  0  0  0  0  0  0
  162.5320  213.7740  143.3440 C   0  0  0  0  0  2  0  0  0  0  0  0
  161.5960  207.0540  152.2300 C   0  0  1  0  0  3  0  0  0  0  0  0
  160.9070  206.2810  154.4940 C   0  0  0  0  0  2  0  0  0  0  0  0
  161.7500  206.9740  153.7310 C   0  0  0  0  0  3  0  0  0  0  0  0
  160.5320  206.0690  151.7260 C   0  0  0  0  0  2  0  0  0  0  0  0
  161.4190  202.3470  150.4550 C   0  0  1  0  0  3  0  0  0  0  0  0
  161.1430  203.7510  150.8900 N   0  0  0  0  0  0  0  0  0  0  0  0
  161.4940  205.6440  149.5920 O   0  0  0  0  0  0  0  0  0  0  0  0
  160.9480  202.5400  151.7380 C   0  0  0  0  0  2  0  0  0  0  0  0
  161.0620  205.1550  150.6670 C   0  0  0  0  0  0  0  0  0  0  0  0
  160.3120  201.9100  149.5060 C   0  0  0  0  0  2  0  0  0  0  0  0
  160.8470  201.2890  148.3750 O   0  0  0  0  0  0  0  0  0  0  0  0
  161.4700  202.3120  147.6590 C   0  0  0  0  0  2  0  0  0  0  0  0
  160.5180  201.2100  145.6420 C   0  0  0  0  0  1  0  0  0  0  0  0
  160.7380  202.5360  146.3440 C   0  0  2  0  0  3  0  0  0  0  0  0
  161.5410  203.4530  145.4370 C   0  0  0  0  0  2  0  0  0  0  0  0
  160.6190  204.3250  144.6020 C   0  0  0  0  0  2  0  0  0  0  0  0
  160.5310  206.3910  145.8680 N   0  0  0  0  0  1  0  0  0  0  0  0
  161.0810  205.7660  144.6790 C   0  0  0  0  0  2  0  0  0  0  0  0
  1  3  1  0  0  0  0
  3 12  1  0  0  0  0
  3  6  2  0  0  0  0
  4 10  1  0  0  0  0
  5 15  1  6  0  0  0
  5  1  1  0  0  0  0
  5  4  1  0  0  0  0
  6 14  1  0  0  0  0
  7 31  1  0  0  0  0
  7 11  1  0  0  0  0
  8  9  1  0  0  0  0
  8  4  2  0  0  0  0
  9  7  2  0  0  0  0
 10 11  2  0  0  0  0
 10 12  1  0  0  0  0
 12  2  2  0  0  0  0
 14 13  3  0  0  0  0
 16 15  1  0  0  0  0
 17 18  1  1  0  0  0
 17 16  1  0  0  0  0
 20 19  1  1  0  0  0
 20 17  1  0  0  0  0
 21 20  1  0  0  0  0
 22 26  1  0  0  0  0
 23 28  2  0  0  0  0
 24 25  1  6  0  0  0
 24 27  1  0  0  0  0
 25 29  1  0  0  0  0
 26 28  1  0  0  0  0
 26 24  1  0  0  0  0
 27 30  1  6  0  0  0
 27 21  1  0  0  0  0
 28 30  1  0  0  0  0
 29 21  2  0  0  0  0
 31 34  1  1  0  0  0
 31 33  1  0  0  0  0
 33 32  2  0  0  0  0
 35 40  1  6  0  0  0
 35 36  1  0  0  0  0
 35 38  1  0  0  0  0
 36 38  1  0  0  0  0
 37 39  2  0  0  0  0
 39 36  1  0  0  0  0
 39 34  1  0  0  0  0
 41 40  1  0  0  0  0
 42 41  1  0  0  0  0
 44 43  1  6  0  0  0
 44 42  1  0  0  0  0
 45 44  1  0  0  0  0
 46 48  1  0  0  0  0
 46 45  1  0  0  0  0
 48 47  1  0  0  0  0
M  END
>  <MODEL>
1

>  <REMARK>
 VINA RESULT:      -6.4      0.000      0.000
  Name = 
  17 active torsions:
  status: ('A' for Active; 'I' for Inactive)
    1  A    between atoms: C_1  and  C_11
    2  A    between atoms: C_5  and  C_8
    3  A    between atoms: C_5  and  O_37
    4  A    between atoms: C_11  and  C_24
    5  A    between atoms: C_19  and  C_44
    6  A    between atoms: C_20  and  C_25
    7  A    between atoms: C_21  and  C_24
    8  A    between atoms: C_21  and  C_44
    9  A    between atoms: C_26  and  C_36
   10  A    between atoms: C_26  and  C_47
   11  A    between atoms: C_27  and  C_33
   12  A    between atoms: C_32  and  C_33
   13  A    between atoms: C_32  and  C_48
   14  A    between atoms: C_33  and  C_42
   15  A    between atoms: C_36  and  C_46
   16  A    between atoms: O_37  and  C_43
   17  A    between atoms: C_43  and  C_47
                            x       y       z     vdW  Elec       q    Type
                         _______ _______ _______ _____ _____    ______ ____

>  <TORSDO>
F 17

$$$$
=
 OpenBabel11042423063D

 48 52  0  0  1  0  0  0  0  0999 V2000
  160.6340  205.5640  150.6510 S   0  0  0  0  0  0  0  0  0  0  0  0
  161.1530  206.8770  146.9930 O   0  0  0  0  0  0  0  0  0  0  0  0
  161.1940  205.5260  148.9540 C   0  0  0  0  0  0  0  0  0  0  0  0
  161.9120  208.0100  150.3950 C   0  0  0  0  0  0  0  0  0  0  0  0
  161.9970  206.6790  151.1290 C   0  0  1  0  0  3  0  0  0  0  0  0
  161.5360  204.3460  148.4280 C   0  0  0  0  0  3  0  0  0  0  0  0
  161.8340  210.4850  149.0250 C   0  0  0  0  0  0  0  0  0  0  0  0
  162.2470  209.2040  151.0490 C   0  0  0  0  0  3  0  0  0  0  0  0
  162.2100  210.4270  150.3740 C   0  0  0  0  0  3  0  0  0  0  0  0
  161.5910  208.0530  149.0130 C   0  0  0  0  0  0  0  0  0  0  0  0
  161.5630  209.2880  148.3500 C   0  0  0  0  0  3  0  0  0  0  0  0
  161.3070  206.8190  148.2450 C   0  0  0  0  0  0  0  0  0  0  0  0
  162.4330  204.0180  146.0110 N   0  0  0  0  0  0  0  0  0  0  0  0
  162.0360  204.1670  147.0880 C   0  0  0  0  0  0  0  0  0  0  0  0
  162.0960  206.7780  152.6570 C   0  0  0  0  0  2  0  0  0  0  0  0
  160.8700  207.4370  153.2800 C   0  0  0  0  0  2  0  0  0  0  0  0
  161.1930  207.8980  154.6900 C   0  0  2  0  0  3  0  0  0  0  0  0
  160.0790  207.4230  155.6140 C   0  0  0  0  0  1  0  0  0  0  0  0
  162.1280  209.8390  155.9840 C   0  0  0  0  0  1  0  0  0  0  0  0
  161.3500  209.4260  154.7430 C   0  0  2  0  0  3  0  0  0  0  0  0
  160.0260  210.1310  154.7380 C   0  0  0  0  0  0  0  0  0  0  0  0
  156.8720  213.4180  153.8920 C   0  0  0  0  0  1  0  0  0  0  0  0
  159.3620  213.9470  152.4230 O   0  0  0  0  0  0  0  0  0  0  0  0
  157.9970  211.1270  154.0830 C   0  0  1  0  0  3  0  0  0  0  0  0
  158.1830  211.0030  155.4850 O   0  0  0  0  0  0  0  0  0  0  0  0
  158.0030  212.5260  153.7100 N   0  0  0  0  0  0  0  0  0  0  0  0
  159.2990  210.5280  153.4970 C   0  0  1  0  0  3  0  0  0  0  0  0
  159.1460  212.8170  152.9380 C   0  0  0  0  0  0  0  0  0  0  0  0
  159.3740  210.4110  155.8130 N   0  0  0  0  0  0  0  0  0  0  0  0
  160.0450  211.6620  152.7780 C   0  0  0  0  0  2  0  0  0  0  0  0
  161.8570  211.7990  148.2660 C   0  0  1  0  0  3  0  0  0  0  0  0
  163.7590  213.4020  148.1440 C   0  0  0  0  0  2  0  0  0  0  0  0
  163.2450  212.2120  147.8340 C   0  0  0  0  0  3  0  0  0  0  0  0
  160.8750  211.8320  147.0870 C   0  0  0  0  0  2  0  0  0  0  0  0
  161.9430  214.3780  144.1500 C   0  0  1  0  0  3  0  0  0  0  0  0
  161.5430  213.4870  145.2820 N   0  0  0  0  0  0  0  0  0  0  0  0
  160.0980  214.0790  147.0010 O   0  0  0  0  0  0  0  0  0  0  0  0
  162.4970  213.1150  144.1980 C   0  0  0  0  0  2  0  0  0  0  0  0
  160.7930  213.1850  146.4540 C   0  0  0  0  0  0  0  0  0  0  0  0
  160.7870  214.4500  143.1620 C   0  0  0  0  0  2  0  0  0  0  0  0
  161.2560  214.4120  141.8470 O   0  0  0  0  0  0  0  0  0  0  0  0
  160.2310  213.8170  141.1110 C   0  0  0  0  0  2  0  0  0  0  0  0
  160.0530  213.2180  138.7030 C   0  0  0  0  0  1  0  0  0  0  0  0
  160.8260  212.9820  139.9870 C   0  0  2  0  0  3  0  0  0  0  0  0
  160.7740  211.5040  140.3360 C   0  0  0  0  0  2  0  0  0  0  0  0
  161.9410  210.7620  139.7080 C   0  0  0  0  0  2  0  0  0  0  0  0
  161.6050  208.5350  138.8100 N   0  0  0  0  0  1  0  0  0  0  0  0
  161.8330  209.2860  140.0310 C   0  0  0  0  0  2  0  0  0  0  0  0
  1  5  1  0  0  0  0
  2 12  2  0  0  0  0
  3  1  1  0  0  0  0
  4  8  1  0  0  0  0
  4  5  1  0  0  0  0
  5 15  1  1  0  0  0
  6  3  2  0  0  0  0
  7  9  1  0  0  0  0
  9  8  2  0  0  0  0
 10  4  2  0  0  0  0
 11 10  1  0  0  0  0
 11  7  2  0  0  0  0
 12  3  1  0  0  0  0
 12 10  1  0  0  0  0
 13 14  3  0  0  0  0
 14  6  1  0  0  0  0
 15 16  1  0  0  0  0
 16 17  1  0  0  0  0
 17 20  1  0  0  0  0
 17 18  1  1  0  0  0
 20 19  1  1  0  0  0
 21 20  1  0  0  0  0
 21 29  2  0  0  0  0
 23 28  2  0  0  0  0
 24 25  1  1  0  0  0
 25 29  1  0  0  0  0
 26 22  1  0  0  0  0
 26 24  1  0  0  0  0
 27 30  1  1  0  0  0
 27 24  1  0  0  0  0
 27 21  1  0  0  0  0
 28 26  1  0  0  0  0
 30 28  1  0  0  0  0
 31 34  1  6  0  0  0
 31  7  1  0  0  0  0
 33 32  2  0  0  0  0
 33 31  1  0  0  0  0
 35 40  1  6  0  0  0
 35 38  1  0  0  0  0
 35 36  1  0  0  0  0
 36 39  1  0  0  0  0
 38 36  1  0  0  0  0
 39 37  2  0  0  0  0
 39 34  1  0  0  0  0
 41 40  1  0  0  0  0
 42 41  1  0  0  0  0
 44 43  1  6  0  0  0
 44 45  1  0  0  0  0
 44 42  1  0  0  0  0
 46 48  1  0  0  0  0
 46 45  1  0  0  0  0
 47 48  1  0  0  0  0
M  END
>  <MODEL>
2

>  <REMARK>
 VINA RESULT:      -6.4      2.582     10.125
  Name = 
  17 active torsions:
  status: ('A' for Active; 'I' for Inactive)
    1  A    between atoms: C_1  and  C_11
    2  A    between atoms: C_5  and  C_8
    3  A    between atoms: C_5  and  O_37
    4  A    between atoms: C_11  and  C_24
    5  A    between atoms: C_19  and  C_44
    6  A    between atoms: C_20  and  C_25
    7  A    between atoms: C_21  and  C_24
    8  A    between atoms: C_21  and  C_44
    9  A    between atoms: C_26  and  C_36
   10  A    between atoms: C_26  and  C_47
   11  A    between atoms: C_27  and  C_33
   12  A    between atoms: C_32  and  C_33
   13  A    between atoms: C_32  and  C_48
   14  A    between atoms: C_33  and  C_42
   15  A    between atoms: C_36  and  C_46
   16  A    between atoms: O_37  and  C_43
   17  A    between atoms: C_43  and  C_47
                            x       y       z     vdW  Elec       q    Type
                         _______ _______ _______ _____ _____    ______ ____

>  <TORSDO>
F 17

$$$$
=
 OpenBabel11042423063D

 48 52  0  0  1  0  0  0  0  0999 V2000
  157.7910  213.0700  151.7740 S   0  0  0  0  0  0  0  0  0  0  0  0
  157.5080  211.1210  155.1640 O   0  0  0  0  0  0  0  0  0  0  0  0
  157.5130  212.8490  153.5260 C   0  0  0  0  0  0  0  0  0  0  0  0
  160.0260  211.6280  152.5510 C   0  0  0  0  0  0  0  0  0  0  0  0
  159.5990  212.9810  151.9980 C   0  0  1  0  0  3  0  0  0  0  0  0
  156.8690  213.8140  154.1890 C   0  0  0  0  0  3  0  0  0  0  0  0
  160.8770  209.1500  153.6230 C   0  0  0  0  0  0  0  0  0  0  0  0
  161.2130  211.0240  152.1100 C   0  0  0  0  0  3  0  0  0  0  0  0
  161.6350  209.8010  152.6390 C   0  0  0  0  0  3  0  0  0  0  0  0
  159.2870  211.0060  153.5900 C   0  0  0  0  0  0  0  0  0  0  0  0
  159.7270  209.7810  154.1130 C   0  0  0  0  0  3  0  0  0  0  0  0
  158.0690  211.6320  154.1560 C   0  0  0  0  0  0  0  0  0  0  0  0
  156.3900  213.7770  156.7430 N   0  0  0  0  0  0  0  0  0  0  0  0
  156.6040  213.7890  155.6060 C   0  0  0  0  0  0  0  0  0  0  0  0
  160.3190  213.4230  150.7180 C   0  0  0  0  0  2  0  0  0  0  0  0
  159.4520  213.2610  149.4740 C   0  0  0  0  0  2  0  0  0  0  0  0
  160.3120  213.3750  148.2270 C   0  0  2  0  0  3  0  0  0  0  0  0
  161.6250  214.0430  148.6150 C   0  0  0  0  0  1  0  0  0  0  0  0
  158.1460  214.4520  147.5450 C   0  0  0  0  0  1  0  0  0  0  0  0
  159.5830  214.1690  147.1320 C   0  0  2  0  0  3  0  0  0  0  0  0
  159.5810  213.4480  145.8160 C   0  0  0  0  0  0  0  0  0  0  0  0
  161.0280  212.0410  141.6460 C   0  0  0  0  0  1  0  0  0  0  0  0
  163.1460  213.5190  143.0500 O   0  0  0  0  0  0  0  0  0  0  0  0
  160.0910  212.0070  144.0270 C   0  0  1  0  0  3  0  0  0  0  0  0
  158.8860  212.7450  143.8830 O   0  0  0  0  0  0  0  0  0  0  0  0
  161.0550  212.4450  143.0400 N   0  0  0  0  0  0  0  0  0  0  0  0
  160.6390  212.4840  145.3940 C   0  0  1  0  0  3  0  0  0  0  0  0
  162.1320  213.1000  143.6720 C   0  0  0  0  0  0  0  0  0  0  0  0
  158.6320  213.5610  144.9530 N   0  0  0  0  0  0  0  0  0  0  0  0
  161.9600  213.2210  145.1290 C   0  0  0  0  0  2  0  0  0  0  0  0
  161.3620  207.8560  154.2510 C   0  0  1  0  0  3  0  0  0  0  0  0
  160.1110  206.9870  156.2200 C   0  0  0  0  0  2  0  0  0  0  0  0
  160.2540  207.0580  154.8970 C   0  0  0  0  0  3  0  0  0  0  0  0
  162.1840  206.9900  153.2870 C   0  0  0  0  0  2  0  0  0  0  0  0
  160.4260  206.5790  149.6830 C   0  0  1  0  0  3  0  0  0  0  0  0
  161.0250  206.6990  151.0480 N   0  0  0  0  0  0  0  0  0  0  0  0
  160.8040  205.1290  152.7450 O   0  0  0  0  0  0  0  0  0  0  0  0
  161.1400  207.7240  149.9710 C   0  0  0  0  0  2  0  0  0  0  0  0
  161.3200  206.2070  152.3510 C   0  0  0  0  0  0  0  0  0  0  0  0
  161.2520  205.5840  148.8800 C   0  0  0  0  0  2  0  0  0  0  0  0
  161.0800  205.7910  147.5090 O   0  0  0  0  0  0  0  0  0  0  0  0
  162.1400  205.1160  146.9030 C   0  0  0  0  0  2  0  0  0  0  0  0
  160.6350  205.6710  145.0010 C   0  0  0  0  0  1  0  0  0  0  0  0
  161.7810  204.7890  145.4610 C   0  0  2  0  0  3  0  0  0  0  0  0
  161.3730  203.3320  145.3300 C   0  0  0  0  0  2  0  0  0  0  0  0
  161.2570  202.6810  146.6970 C   0  0  0  0  0  2  0  0  0  0  0  0
  161.3830  200.4070  147.5300 N   0  0  0  0  0  1  0  0  0  0  0  0
  160.7540  201.2600  146.5380 C   0  0  0  0  0  2  0  0  0  0  0  0
  1  5  1  0  0  0  0
  1  3  1  0  0  0  0
  3 12  1  0  0  0  0
  3  6  2  0  0  0  0
  4 10  1  0  0  0  0
  5 15  1  6  0  0  0
  5  4  1  0  0  0  0
  6 14  1  0  0  0  0
  7 11  1  0  0  0  0
  7 31  1  0  0  0  0
  8  4  2  0  0  0  0
  8  9  1  0  0  0  0
  9  7  2  0  0  0  0
 10 11  2  0  0  0  0
 10 12  1  0  0  0  0
 12  2  2  0  0  0  0
 14 13  3  0  0  0  0
 16 15  1  0  0  0  0
 17 18  1  1  0  0  0
 17 16  1  0  0  0  0
 20 19  1  1  0  0  0
 20 17  1  0  0  0  0
 21 20  1  0  0  0  0
 22 26  1  0  0  0  0
 23 28  2  0  0  0  0
 24 25  1  6  0  0  0
 24 27  1  0  0  0  0
 25 29  1  0  0  0  0
 26 28  1  0  0  0  0
 26 24  1  0  0  0  0
 27 30  1  6  0  0  0
 27 21  1  0  0  0  0
 28 30  1  0  0  0  0
 29 21  2  0  0  0  0
 31 34  1  6  0  0  0
 31 33  1  0  0  0  0
 33 32  2  0  0  0  0
 35 40  1  6  0  0  0
 35 38  1  0  0  0  0
 35 36  1  0  0  0  0
 36 39  1  0  0  0  0
 38 36  1  0  0  0  0
 39 37  2  0  0  0  0
 39 34  1  0  0  0  0
 41 40  1  0  0  0  0
 42 41  1  0  0  0  0
 44 43  1  1  0  0  0
 44 42  1  0  0  0  0
 45 44  1  0  0  0  0
 45 46  1  0  0  0  0
 48 46  1  0  0  0  0
 48 47  1  0  0  0  0
M  END
>  <MODEL>
3

>  <REMARK>
 VINA RESULT:      -6.3      1.929      2.709
  Name = 
  17 active torsions:
  status: ('A' for Active; 'I' for Inactive)
    1  A    between atoms: C_1  and  C_11
    2  A    between atoms: C_5  and  C_8
    3  A    between atoms: C_5  and  O_37
    4  A    between atoms: C_11  and  C_24
    5  A    between atoms: C_19  and  C_44
    6  A    between atoms: C_20  and  C_25
    7  A    between atoms: C_21  and  C_24
    8  A    between atoms: C_21  and  C_44
    9  A    between atoms: C_26  and  C_36
   10  A    between atoms: C_26  and  C_47
   11  A    between atoms: C_27  and  C_33
   12  A    between atoms: C_32  and  C_33
   13  A    between atoms: C_32  and  C_48
   14  A    between atoms: C_33  and  C_42
   15  A    between atoms: C_36  and  C_46
   16  A    between atoms: O_37  and  C_43
   17  A    between atoms: C_43  and  C_47
                            x       y       z     vdW  Elec       q    Type
                         _______ _______ _______ _____ _____    ______ ____

>  <TORSDO>
F 17

$$$$
=
 OpenBabel11042423063D

 48 52  0  0  1  0  0  0  0  0999 V2000
  161.1260  210.3950  154.3670 S   0  0  0  0  0  0  0  0  0  0  0  0
  158.9040  213.2230  152.8040 O   0  0  0  0  0  0  0  0  0  0  0  0
  159.6380  211.3370  154.0590 C   0  0  0  0  0  0  0  0  0  0  0  0
  161.0660  210.5200  151.5990 C   0  0  0  0  0  0  0  0  0  0  0  0
  160.9780  209.5410  152.7610 C   0  0  1  0  0  3  0  0  0  0  0  0
  158.6180  211.2010  154.9110 C   0  0  0  0  0  3  0  0  0  0  0  0
  161.1740  212.2970  149.3980 C   0  0  0  0  0  0  0  0  0  0  0  0
  161.7340  210.1630  150.4180 C   0  0  0  0  0  3  0  0  0  0  0  0
  161.7880  211.0380  149.3310 C   0  0  0  0  0  3  0  0  0  0  0  0
  160.3890  211.7670  151.6510 C   0  0  0  0  0  0  0  0  0  0  0  0
  160.4500  212.6310  150.5490 C   0  0  0  0  0  3  0  0  0  0  0  0
  159.5990  212.1690  152.8370 C   0  0  0  0  0  0  0  0  0  0  0  0
  156.3270  212.4010  154.6540 N   0  0  0  0  0  0  0  0  0  0  0  0
  157.3480  211.8690  154.7720 C   0  0  0  0  0  0  0  0  0  0  0  0
  161.9490  208.3560  152.6950 C   0  0  0  0  0  2  0  0  0  0  0  0
  161.2300  207.0190  152.5400 C   0  0  0  0  0  2  0  0  0  0  0  0
  161.8330  206.2410  151.3840 C   0  0  2  0  0  3  0  0  0  0  0  0
  162.5910  207.2190  150.4960 C   0  0  0  0  0  1  0  0  0  0  0  0
  160.1320  204.3910  151.4390 C   0  0  0  0  0  1  0  0  0  0  0  0
  160.7410  205.5020  150.5940 C   0  0  2  0  0  3  0  0  0  0  0  0
  161.2650  204.9150  149.3170 C   0  0  0  0  0  0  0  0  0  0  0  0
  161.7360  204.1580  144.7710 C   0  0  0  0  0  1  0  0  0  0  0  0
  159.9950  206.4710  145.2770 O   0  0  0  0  0  0  0  0  0  0  0  0
  162.2990  204.6110  147.2260 C   0  0  1  0  0  3  0  0  0  0  0  0
  161.8550  203.4190  147.8580 O   0  0  0  0  0  0  0  0  0  0  0  0
  161.5210  204.8500  146.0290 N   0  0  0  0  0  0  0  0  0  0  0  0
  161.8880  205.7190  148.2250 C   0  0  1  0  0  3  0  0  0  0  0  0
  160.7180  205.9970  146.1940 C   0  0  0  0  0  0  0  0  0  0  0  0
  161.2680  203.6500  149.0730 N   0  0  0  0  0  0  0  0  0  0  0  0
  160.8320  206.5940  147.5350 C   0  0  0  0  0  2  0  0  0  0  0  0
  161.1690  213.2260  148.1980 C   0  0  1  0  0  3  0  0  0  0  0  0
  163.3550  214.4150  148.2720 C   0  0  0  0  0  2  0  0  0  0  0  0
  162.0290  214.4530  148.3930 C   0  0  0  0  0  3  0  0  0  0  0  0
  161.5070  212.5120  146.8820 C   0  0  0  0  0  2  0  0  0  0  0  0
  161.8180  213.6540  143.0280 C   0  0  1  0  0  3  0  0  0  0  0  0
  161.6670  213.2880  144.4700 N   0  0  0  0  0  0  0  0  0  0  0  0
  159.8310  213.8050  145.7940 O   0  0  0  0  0  0  0  0  0  0  0  0
  162.8630  212.9840  143.6310 C   0  0  0  0  0  2  0  0  0  0  0  0
  160.9390  213.2180  145.6920 C   0  0  0  0  0  0  0  0  0  0  0  0
  160.9490  212.7180  142.2000 C   0  0  0  0  0  2  0  0  0  0  0  0
  161.7120  211.6790  141.6620 O   0  0  0  0  0  0  0  0  0  0  0  0
  160.8560  211.0150  140.7830 C   0  0  0  0  0  2  0  0  0  0  0  0
  161.9100  208.9460  139.8900 C   0  0  0  0  0  1  0  0  0  0  0  0
  161.6600  210.4210  139.6370 C   0  0  2  0  0  3  0  0  0  0  0  0
  162.9940  211.1350  139.4940 C   0  0  0  0  0  2  0  0  0  0  0  0
  163.0920  211.8280  138.1470 C   0  0  0  0  0  2  0  0  0  0  0  0
  164.0950  213.5340  139.5470 N   0  0  0  0  0  1  0  0  0  0  0  0
  163.2940  213.3150  138.3580 C   0  0  0  0  0  2  0  0  0  0  0  0
  2 12  2  0  0  0  0
  3  1  1  0  0  0  0
  3  6  2  0  0  0  0
  4 10  1  0  0  0  0
  4  5  1  0  0  0  0
  5 15  1  6  0  0  0
  5  1  1  0  0  0  0
  7 11  1  0  0  0  0
  8  4  2  0  0  0  0
  9  7  2  0  0  0  0
  9  8  1  0  0  0  0
 10 12  1  0  0  0  0
 11 10  2  0  0  0  0
 12  3  1  0  0  0  0
 13 14  3  0  0  0  0
 14  6  1  0  0  0  0
 16 15  1  0  0  0  0
 17 18  1  6  0  0  0
 17 16  1  0  0  0  0
 20 17  1  0  0  0  0
 20 19  1  1  0  0  0
 21 20  1  0  0  0  0
 22 26  1  0  0  0  0
 23 28  2  0  0  0  0
 24 25  1  1  0  0  0
 24 27  1  0  0  0  0
 25 29  1  0  0  0  0
 26 28  1  0  0  0  0
 26 24  1  0  0  0  0
 27 30  1  6  0  0  0
 27 21  1  0  0  0  0
 28 30  1  0  0  0  0
 29 21  2  0  0  0  0
 31 34  1  6  0  0  0
 31 33  1  0  0  0  0
 31  7  1  0  0  0  0
 32 33  2  0  0  0  0
 35 40  1  6  0  0  0
 35 38  1  0  0  0  0
 35 36  1  0  0  0  0
 36 39  1  0  0  0  0
 38 36  1  0  0  0  0
 39 37  2  0  0  0  0
 39 34  1  0  0  0  0
 41 40  1  0  0  0  0
 42 41  1  0  0  0  0
 44 43  1  1  0  0  0
 44 42  1  0  0  0  0
 45 44  1  0  0  0  0
 46 48  1  0  0  0  0
 46 45  1  0  0  0  0
 48 47  1  0  0  0  0
M  END
>  <MODEL>
4

>  <REMARK>
 VINA RESULT:      -6.2      2.058      8.507
  Name = 
  17 active torsions:
  status: ('A' for Active; 'I' for Inactive)
    1  A    between atoms: C_1  and  C_11
    2  A    between atoms: C_5  and  C_8
    3  A    between atoms: C_5  and  O_37
    4  A    between atoms: C_11  and  C_24
    5  A    between atoms: C_19  and  C_44
    6  A    between atoms: C_20  and  C_25
    7  A    between atoms: C_21  and  C_24
    8  A    between atoms: C_21  and  C_44
    9  A    between atoms: C_26  and  C_36
   10  A    between atoms: C_26  and  C_47
   11  A    between atoms: C_27  and  C_33
   12  A    between atoms: C_32  and  C_33
   13  A    between atoms: C_32  and  C_48
   14  A    between atoms: C_33  and  C_42
   15  A    between atoms: C_36  and  C_46
   16  A    between atoms: O_37  and  C_43
   17  A    between atoms: C_43  and  C_47
                            x       y       z     vdW  Elec       q    Type
                         _______ _______ _______ _____ _____    ______ ____

>  <TORSDO>
F 17

$$$$
=
 OpenBabel11042423063D

 48 52  0  0  1  0  0  0  0  0999 V2000
  157.8320  213.3530  151.4360 S   0  0  0  0  0  0  0  0  0  0  0  0
  157.6690  211.6460  154.9620 O   0  0  0  0  0  0  0  0  0  0  0  0
  157.6530  213.2620  153.2120 C   0  0  0  0  0  0  0  0  0  0  0  0
  160.0400  211.8520  152.1750 C   0  0  0  0  0  0  0  0  0  0  0  0
  159.6450  213.1860  151.5580 C   0  0  1  0  0  3  0  0  0  0  0  0
  157.0990  214.2990  153.8450 C   0  0  0  0  0  3  0  0  0  0  0  0
  160.8380  209.4080  153.3610 C   0  0  0  0  0  0  0  0  0  0  0  0
  161.1670  211.1590  151.7080 C   0  0  0  0  0  3  0  0  0  0  0  0
  161.5620  209.9540  152.2920 C   0  0  0  0  0  3  0  0  0  0  0  0
  159.3380  211.3380  153.2970 C   0  0  0  0  0  0  0  0  0  0  0  0
  159.7520  210.1280  153.8740 C   0  0  0  0  0  3  0  0  0  0  0  0
  158.1900  212.0610  153.8890 C   0  0  0  0  0  0  0  0  0  0  0  0
  156.7820  214.4530  156.4200 N   0  0  0  0  0  0  0  0  0  0  0  0
  156.9230  214.3800  155.2730 C   0  0  0  0  0  0  0  0  0  0  0  0
  160.3030  213.5060  150.2100 C   0  0  0  0  0  2  0  0  0  0  0  0
  159.4510  214.4310  149.3480 C   0  0  0  0  0  2  0  0  0  0  0  0
  159.4720  213.9570  147.9060 C   0  0  2  0  0  3  0  0  0  0  0  0
  158.3150  212.9850  147.7080 C   0  0  0  0  0  1  0  0  0  0  0  0
  161.8800  213.7030  148.5810 C   0  0  0  0  0  1  0  0  0  0  0  0
  160.8190  213.2990  147.5670 C   0  0  2  0  0  3  0  0  0  0  0  0
  161.2940  213.6600  146.1900 C   0  0  0  0  0  0  0  0  0  0  0  0
  162.0440  213.2960  141.6330 C   0  0  0  0  0  1  0  0  0  0  0  0
  160.2240  211.1880  142.5700 O   0  0  0  0  0  0  0  0  0  0  0  0
  161.3920  214.2530  143.9150 C   0  0  1  0  0  3  0  0  0  0  0  0
  162.6380  214.2700  144.5980 O   0  0  0  0  0  0  0  0  0  0  0  0
  161.3900  213.1970  142.9250 N   0  0  0  0  0  0  0  0  0  0  0  0
  160.3930  213.8070  145.0100 C   0  0  1  0  0  3  0  0  0  0  0  0
  160.4750  212.1890  143.2930 C   0  0  0  0  0  0  0  0  0  0  0  0
  162.5250  213.9250  145.9180 N   0  0  0  0  0  0  0  0  0  0  0  0
  159.8290  212.4410  144.5920 C   0  0  0  0  0  2  0  0  0  0  0  0
  161.2990  208.1350  154.0460 C   0  0  1  0  0  3  0  0  0  0  0  0
  161.9760  209.0110  156.2760 C   0  0  0  0  0  2  0  0  0  0  0  0
  161.2030  208.2020  155.5520 C   0  0  0  0  0  3  0  0  0  0  0  0
  160.6150  206.8750  153.5000 C   0  0  0  0  0  2  0  0  0  0  0  0
  161.5690  203.5550  151.4210 C   0  0  1  0  0  3  0  0  0  0  0  0
  161.2790  204.8070  152.1860 N   0  0  0  0  0  0  0  0  0  0  0  0
  162.2970  206.8610  151.8180 O   0  0  0  0  0  0  0  0  0  0  0  0
  160.6490  203.4810  152.4470 C   0  0  0  0  0  2  0  0  0  0  0  0
  161.4300  206.1990  152.4430 C   0  0  0  0  0  0  0  0  0  0  0  0
  160.8920  203.6540  150.0610 C   0  0  0  0  0  2  0  0  0  0  0  0
  161.7140  204.3160  149.1460 O   0  0  0  0  0  0  0  0  0  0  0  0
  161.5780  203.6050  147.9530 C   0  0  0  0  0  2  0  0  0  0  0  0
  161.6380  203.8840  145.4820 C   0  0  0  0  0  1  0  0  0  0  0  0
  161.3520  204.5740  146.8020 C   0  0  2  0  0  3  0  0  0  0  0  0
  162.2590  205.7850  146.9390 C   0  0  0  0  0  2  0  0  0  0  0  0
  161.4620  207.0100  147.3520 C   0  0  0  0  0  2  0  0  0  0  0  0
  162.0980  209.0200  148.5500 N   0  0  0  0  0  1  0  0  0  0  0  0
  162.0330  207.5730  148.6380 C   0  0  0  0  0  2  0  0  0  0  0  0
  1  5  1  0  0  0  0
  1  3  1  0  0  0  0
  3  6  2  0  0  0  0
  3 12  1  0  0  0  0
  4 10  1  0  0  0  0
  5 15  1  6  0  0  0
  5  4  1  0  0  0  0
  6 14  1  0  0  0  0
  7 11  1  0  0  0  0
  7 31  1  0  0  0  0
  8  4  2  0  0  0  0
  8  9  1  0  0  0  0
  9  7  2  0  0  0  0
 10 11  2  0  0  0  0
 10 12  1  0  0  0  0
 12  2  2  0  0  0  0
 14 13  3  0  0  0  0
 16 15  1  0  0  0  0
 17 18  1  1  0  0  0
 17 16  1  0  0  0  0
 20 17  1  0  0  0  0
 20 19  1  1  0  0  0
 21 20  1  0  0  0  0
 22 26  1  0  0  0  0
 23 28  2  0  0  0  0
 24 25  1  1  0  0  0
 24 27  1  0  0  0  0
 25 29  1  0  0  0  0
 26 28  1  0  0  0  0
 26 24  1  0  0  0  0
 27 30  1  6  0  0  0
 27 21  1  0  0  0  0
 28 30  1  0  0  0  0
 29 21  2  0  0  0  0
 31 34  1  6  0  0  0
 31 33  1  0  0  0  0
 33 32  2  0  0  0  0
 35 40  1  6  0  0  0
 35 36  1  0  0  0  0
 35 38  1  0  0  0  0
 36 39  1  0  0  0  0
 36 38  1  0  0  0  0
 37 39  2  0  0  0  0
 39 34  1  0  0  0  0
 41 40  1  0  0  0  0
 42 41  1  0  0  0  0
 44 43  1  6  0  0  0
 44 45  1  0  0  0  0
 44 42  1  0  0  0  0
 45 46  1  0  0  0  0
 46 48  1  0  0  0  0
 47 48  1  0  0  0  0
M  END
>  <MODEL>
5

>  <REMARK>
 VINA RESULT:      -6.0      1.843      2.633
  Name = 
  17 active torsions:
  status: ('A' for Active; 'I' for Inactive)
    1  A    between atoms: C_1  and  C_11
    2  A    between atoms: C_5  and  C_8
    3  A    between atoms: C_5  and  O_37
    4  A    between atoms: C_11  and  C_24
    5  A    between atoms: C_19  and  C_44
    6  A    between atoms: C_20  and  C_25
    7  A    between atoms: C_21  and  C_24
    8  A    between atoms: C_21  and  C_44
    9  A    between atoms: C_26  and  C_36
   10  A    between atoms: C_26  and  C_47
   11  A    between atoms: C_27  and  C_33
   12  A    between atoms: C_32  and  C_33
   13  A    between atoms: C_32  and  C_48
   14  A    between atoms: C_33  and  C_42
   15  A    between atoms: C_36  and  C_46
   16  A    between atoms: O_37  and  C_43
   17  A    between atoms: C_43  and  C_47
                            x       y       z     vdW  Elec       q    Type
                         _______ _______ _______ _____ _____    ______ ____

>  <TORSDO>
F 17

$$$$
=
 OpenBabel11042423063D

 48 52  0  0  1  0  0  0  0  0999 V2000
  160.3760  211.6950  151.9740 S   0  0  0  0  0  0  0  0  0  0  0  0
  160.7530  208.5410  154.2740 O   0  0  0  0  0  0  0  0  0  0  0  0
  160.8280  210.7690  153.4350 C   0  0  0  0  0  0  0  0  0  0  0  0
  161.7880  209.5600  150.9090 C   0  0  0  0  0  0  0  0  0  0  0  0
  161.8330  211.0740  151.0680 C   0  0  1  0  0  3  0  0  0  0  0  0
  161.0610  211.4450  154.5630 C   0  0  0  0  0  3  0  0  0  0  0  0
  161.7830  206.7440  150.6240 C   0  0  0  0  0  0  0  0  0  0  0  0
  162.2370  208.9570  149.7250 C   0  0  0  0  0  3  0  0  0  0  0  0
  162.2360  207.5670  149.5830 C   0  0  0  0  0  3  0  0  0  0  0  0
  161.3870  208.7320  151.9900 C   0  0  0  0  0  0  0  0  0  0  0  0
  161.3970  207.3390  151.8310 C   0  0  0  0  0  3  0  0  0  0  0  0
  160.9790  209.3040  153.2940 C   0  0  0  0  0  0  0  0  0  0  0  0
  161.7880  210.3440  156.8030 N   0  0  0  0  0  0  0  0  0  0  0  0
  161.4670  210.8370  155.8060 C   0  0  0  0  0  0  0  0  0  0  0  0
  162.0310  211.8640  149.7680 C   0  0  0  0  0  2  0  0  0  0  0  0
  160.7120  212.1820  149.0710 C   0  0  0  0  0  2  0  0  0  0  0  0
  160.6870  213.6440  148.6590 C   0  0  2  0  0  3  0  0  0  0  0  0
  160.0080  214.4380  149.7680 C   0  0  0  0  0  1  0  0  0  0  0  0
  158.8950  212.7460  147.1430 C   0  0  0  0  0  1  0  0  0  0  0  0
  159.9580  213.8210  147.3180 C   0  0  2  0  0  3  0  0  0  0  0  0
  160.9010  213.7720  146.1510 C   0  0  0  0  0  0  0  0  0  0  0  0
  162.6560  212.5200  142.0510 C   0  0  0  0  0  1  0  0  0  0  0  0
  159.9400  211.4540  142.4010 O   0  0  0  0  0  0  0  0  0  0  0  0
  161.8630  213.9590  144.0120 C   0  0  1  0  0  3  0  0  0  0  0  0
  162.7590  213.5760  145.0450 O   0  0  0  0  0  0  0  0  0  0  0  0
  161.6920  212.8650  143.0800 N   0  0  0  0  0  0  0  0  0  0  0  0
  160.5090  214.1010  144.7500 C   0  0  1  0  0  3  0  0  0  0  0  0
  160.3770  212.3630  143.1570 C   0  0  0  0  0  0  0  0  0  0  0  0
  162.1520  213.4890  146.2690 N   0  0  0  0  0  0  0  0  0  0  0  0
  159.5650  213.0260  144.1910 C   0  0  0  0  0  2  0  0  0  0  0  0
  161.8430  205.2330  150.5040 C   0  0  1  0  0  3  0  0  0  0  0  0
  160.7570  203.5620  151.9980 C   0  0  0  0  0  2  0  0  0  0  0  0
  161.6630  204.5240  151.8260 C   0  0  0  0  0  3  0  0  0  0  0  0
  160.8890  204.6740  149.4390 C   0  0  0  0  0  2  0  0  0  0  0  0
  162.4270  205.7600  145.8740 C   0  0  1  0  0  3  0  0  0  0  0  0
  161.8360  205.4220  147.2050 N   0  0  0  0  0  0  0  0  0  0  0  0
  159.9370  206.4040  148.1110 O   0  0  0  0  0  0  0  0  0  0  0  0
  163.0760  204.8140  146.6420 C   0  0  0  0  0  2  0  0  0  0  0  0
  160.8390  205.5340  148.2160 C   0  0  0  0  0  0  0  0  0  0  0  0
  161.5710  205.1200  144.7900 C   0  0  0  0  0  2  0  0  0  0  0  0
  161.7160  203.7300  144.8010 O   0  0  0  0  0  0  0  0  0  0  0  0
  160.4370  203.2320  145.0520 C   0  0  0  0  0  2  0  0  0  0  0  0
  159.7560  200.8740  144.6480 C   0  0  0  0  0  1  0  0  0  0  0  0
  160.5360  201.8020  145.5610 C   0  0  2  0  0  3  0  0  0  0  0  0
  159.9790  201.6980  146.9710 C   0  0  0  0  0  2  0  0  0  0  0  0
  161.0220  202.1150  147.9930 C   0  0  0  0  0  2  0  0  0  0  0  0
  160.6870  200.5750  149.8360 N   0  0  0  0  0  1  0  0  0  0  0  0
  161.5460  200.8860  148.7090 C   0  0  0  0  0  2  0  0  0  0  0  0
  1  3  1  0  0  0  0
  3  6  2  0  0  0  0
  4  5  1  0  0  0  0
  4 10  1  0  0  0  0
  5 15  1  6  0  0  0
  5  1  1  0  0  0  0
  6 14  1  0  0  0  0
  7 11  1  0  0  0  0
  8  4  2  0  0  0  0
  9  8  1  0  0  0  0
  9  7  2  0  0  0  0
 10 12  1  0  0  0  0
 11 10  2  0  0  0  0
 12  3  1  0  0  0  0
 12  2  2  0  0  0  0
 14 13  3  0  0  0  0
 16 15  1  0  0  0  0
 17 16  1  0  0  0  0
 17 18  1  1  0  0  0
 20 19  1  6  0  0  0
 20 17  1  0  0  0  0
 21 29  2  0  0  0  0
 21 20  1  0  0  0  0
 22 26  1  0  0  0  0
 23 28  2  0  0  0  0
 24 27  1  0  0  0  0
 24 25  1  1  0  0  0
 25 29  1  0  0  0  0
 26 28  1  0  0  0  0
 26 24  1  0  0  0  0
 27 30  1  6  0  0  0
 27 21  1  0  0  0  0
 28 30  1  0  0  0  0
 31 34  1  6  0  0  0
 31  7  1  0  0  0  0
 31 33  1  0  0  0  0
 33 32  2  0  0  0  0
 35 40  1  6  0  0  0
 35 38  1  0  0  0  0
 35 36  1  0  0  0  0
 36 39  1  0  0  0  0
 37 39  2  0  0  0  0
 38 36  1  0  0  0  0
 39 34  1  0  0  0  0
 40 41  1  0  0  0  0
 41 42  1  0  0  0  0
 42 44  1  0  0  0  0
 44 43  1  6  0  0  0
 44 45  1  0  0  0  0
 45 46  1  0  0  0  0
 46 48  1  0  0  0  0
 48 47  1  0  0  0  0
M  END
>  <MODEL>
6

>  <REMARK>
 VINA RESULT:      -5.6      2.032      3.389
  Name = 
  17 active torsions:
  status: ('A' for Active; 'I' for Inactive)
    1  A    between atoms: C_1  and  C_11
    2  A    between atoms: C_5  and  C_8
    3  A    between atoms: C_5  and  O_37
    4  A    between atoms: C_11  and  C_24
    5  A    between atoms: C_19  and  C_44
    6  A    between atoms: C_20  and  C_25
    7  A    between atoms: C_21  and  C_24
    8  A    between atoms: C_21  and  C_44
    9  A    between atoms: C_26  and  C_36
   10  A    between atoms: C_26  and  C_47
   11  A    between atoms: C_27  and  C_33
   12  A    between atoms: C_32  and  C_33
   13  A    between atoms: C_32  and  C_48
   14  A    between atoms: C_33  and  C_42
   15  A    between atoms: C_36  and  C_46
   16  A    between atoms: O_37  and  C_43
   17  A    between atoms: C_43  and  C_47
                            x       y       z     vdW  Elec       q    Type
                         _______ _______ _______ _____ _____    ______ ____

>  <TORSDO>
F 17

$$$$
=
 OpenBabel11042423063D

 48 52  0  0  1  0  0  0  0  0999 V2000
  161.2000  208.9670  154.8800 S   0  0  0  0  0  0  0  0  0  0  0  0
  159.7100  212.3030  153.4560 O   0  0  0  0  0  0  0  0  0  0  0  0
  159.9790  210.2490  154.6310 C   0  0  0  0  0  0  0  0  0  0  0  0
  161.1500  209.2090  152.1190 C   0  0  0  0  0  0  0  0  0  0  0  0
  160.8380  208.2360  153.2480 C   0  0  1  0  0  3  0  0  0  0  0  0
  158.9640  210.3300  155.4950 C   0  0  0  0  0  3  0  0  0  0  0  0
  161.6640  210.9920  149.9820 C   0  0  0  0  0  0  0  0  0  0  0  0
  161.7030  208.7480  150.9160 C   0  0  0  0  0  3  0  0  0  0  0  0
  161.9570  209.6260  149.8600 C   0  0  0  0  0  3  0  0  0  0  0  0
  160.7930  210.5790  152.2280 C   0  0  0  0  0  0  0  0  0  0  0  0
  161.0510  211.4460  151.1560 C   0  0  0  0  0  3  0  0  0  0  0  0
  160.1320  211.1130  153.4400 C   0  0  0  0  0  0  0  0  0  0  0  0
  157.0260  212.0530  155.3190 N   0  0  0  0  0  0  0  0  0  0  0  0
  157.8900  211.2870  155.4010 C   0  0  0  0  0  0  0  0  0  0  0  0
  161.4950  206.8550  153.1230 C   0  0  0  0  0  2  0  0  0  0  0  0
  161.9840  206.5670  151.7070 C   0  0  0  0  0  2  0  0  0  0  0  0
  161.2000  205.4080  151.1170 C   0  0  2  0  0  3  0  0  0  0  0  0
  161.8120  204.1100  151.6280 C   0  0  0  0  0  1  0  0  0  0  0  0
  160.0840  206.3500  149.0720 C   0  0  0  0  0  1  0  0  0  0  0  0
  161.2130  205.4650  149.5810 C   0  0  2  0  0  3  0  0  0  0  0  0
  161.0850  204.1040  148.9640 C   0  0  0  0  0  0  0  0  0  0  0  0
  160.4020  200.8660  145.7210 C   0  0  0  0  0  1  0  0  0  0  0  0
  160.5900  203.5390  144.5140 O   0  0  0  0  0  0  0  0  0  0  0  0
  161.4250  202.1660  147.6740 C   0  0  1  0  0  3  0  0  0  0  0  0
  160.4120  202.0620  148.6640 O   0  0  0  0  0  0  0  0  0  0  0  0
  160.8300  202.1000  146.3560 N   0  0  0  0  0  0  0  0  0  0  0  0
  161.9330  203.6190  147.8360 C   0  0  1  0  0  3  0  0  0  0  0  0
  160.9600  203.3430  145.7030 C   0  0  0  0  0  0  0  0  0  0  0  0
  160.2600  203.2120  149.3910 N   0  0  0  0  0  0  0  0  0  0  0  0
  161.5900  204.3740  146.5440 C   0  0  0  0  0  2  0  0  0  0  0  0
  161.8730  211.9400  148.8150 C   0  0  1  0  0  3  0  0  0  0  0  0
  163.8190  212.9440  147.6300 C   0  0  0  0  0  2  0  0  0  0  0  0
  163.2800  211.9040  148.2650 C   0  0  0  0  0  3  0  0  0  0  0  0
  160.8340  211.7630  147.7000 C   0  0  0  0  0  2  0  0  0  0  0  0
  161.0540  214.1820  144.4830 C   0  0  1  0  0  3  0  0  0  0  0  0
  160.9710  213.3400  145.7160 N   0  0  0  0  0  0  0  0  0  0  0  0
  159.8340  213.9210  147.6560 O   0  0  0  0  0  0  0  0  0  0  0  0
  161.7310  212.9790  144.4850 C   0  0  0  0  0  2  0  0  0  0  0  0
  160.4970  213.0550  147.0280 C   0  0  0  0  0  0  0  0  0  0  0  0
  159.7280  214.0840  143.7430 C   0  0  0  0  0  2  0  0  0  0  0  0
  159.9200  214.2080  142.3650 O   0  0  0  0  0  0  0  0  0  0  0  0
  159.3000  213.0890  141.8080 C   0  0  0  0  0  2  0  0  0  0  0  0
  161.0700  211.3720  141.4860 C   0  0  0  0  0  1  0  0  0  0  0  0
  160.2330  212.4350  140.8000 C   0  0  2  0  0  3  0  0  0  0  0  0
  161.1550  213.4700  140.1770 C   0  0  0  0  0  2  0  0  0  0  0  0
  162.4850  212.8450  139.7950 C   0  0  0  0  0  2  0  0  0  0  0  0
  162.6940  211.0270  138.2040 N   0  0  0  0  0  1  0  0  0  0  0  0
  162.4570  212.4540  138.3320 C   0  0  0  0  0  2  0  0  0  0  0  0
  3  1  1  0  0  0  0
  3  6  2  0  0  0  0
  4 10  1  0  0  0  0
  4  5  1  0  0  0  0
  5 15  1  6  0  0  0
  5  1  1  0  0  0  0
  7 11  1  0  0  0  0
  8  4  2  0  0  0  0
  9  7  2  0  0  0  0
  9  8  1  0  0  0  0
 10 12  1  0  0  0  0
 11 10  2  0  0  0  0
 12  2  2  0  0  0  0
 12  3  1  0  0  0  0
 13 14  3  0  0  0  0
 14  6  1  0  0  0  0
 16 15  1  0  0  0  0
 17 18  1  6  0  0  0
 17 16  1  0  0  0  0
 20 19  1  6  0  0  0
 20 17  1  0  0  0  0
 21 29  2  0  0  0  0
 21 20  1  0  0  0  0
 22 26  1  0  0  0  0
 23 28  2  0  0  0  0
 24 27  1  0  0  0  0
 24 25  1  1  0  0  0
 25 29  1  0  0  0  0
 26 24  1  0  0  0  0
 27 30  1  6  0  0  0
 27 21  1  0  0  0  0
 28 26  1  0  0  0  0
 28 30  1  0  0  0  0
 31 34  1  6  0  0  0
 31  7  1  0  0  0  0
 32 33  2  0  0  0  0
 33 31  1  0  0  0  0
 35 40  1  6  0  0  0
 35 38  1  0  0  0  0
 35 36  1  0  0  0  0
 36 39  1  0  0  0  0
 38 36  1  0  0  0  0
 39 37  2  0  0  0  0
 39 34  1  0  0  0  0
 41 40  1  0  0  0  0
 42 41  1  0  0  0  0
 44 43  1  1  0  0  0
 44 42  1  0  0  0  0
 45 44  1  0  0  0  0
 46 45  1  0  0  0  0
 47 48  1  0  0  0  0
 48 46  1  0  0  0  0
M  END
>  <MODEL>
7

>  <REMARK>
 VINA RESULT:      -5.6      2.180      9.012
  Name = 
  17 active torsions:
  status: ('A' for Active; 'I' for Inactive)
    1  A    between atoms: C_1  and  C_11
    2  A    between atoms: C_5  and  C_8
    3  A    between atoms: C_5  and  O_37
    4  A    between atoms: C_11  and  C_24
    5  A    between atoms: C_19  and  C_44
    6  A    between atoms: C_20  and  C_25
    7  A    between atoms: C_21  and  C_24
    8  A    between atoms: C_21  and  C_44
    9  A    between atoms: C_26  and  C_36
   10  A    between atoms: C_26  and  C_47
   11  A    between atoms: C_27  and  C_33
   12  A    between atoms: C_32  and  C_33
   13  A    between atoms: C_32  and  C_48
   14  A    between atoms: C_33  and  C_42
   15  A    between atoms: C_36  and  C_46
   16  A    between atoms: O_37  and  C_43
   17  A    between atoms: C_43  and  C_47
                            x       y       z     vdW  Elec       q    Type
                         _______ _______ _______ _____ _____    ______ ____

>  <TORSDO>
F 17

$$$$
=
 OpenBabel11042423063D

 48 52  0  0  1  0  0  0  0  0999 V2000
  160.9390  205.8350  150.4490 S   0  0  0  0  0  0  0  0  0  0  0  0
  161.1640  207.3310  146.8320 O   0  0  0  0  0  0  0  0  0  0  0  0
  161.4220  205.9160  148.7300 C   0  0  0  0  0  0  0  0  0  0  0  0
  161.9670  208.4000  150.2440 C   0  0  0  0  0  0  0  0  0  0  0  0
  162.2110  207.0560  150.9170 C   0  0  1  0  0  3  0  0  0  0  0  0
  161.8480  204.7960  148.1410 C   0  0  0  0  0  3  0  0  0  0  0  0
  161.5940  210.9080  148.9850 C   0  0  0  0  0  0  0  0  0  0  0  0
  162.2180  209.5950  150.9340 C   0  0  0  0  0  3  0  0  0  0  0  0
  162.0350  210.8340  150.3140 C   0  0  0  0  0  3  0  0  0  0  0  0
  161.5810  208.4650  148.8800 C   0  0  0  0  0  0  0  0  0  0  0  0
  161.4070  209.7170  148.2720 C   0  0  0  0  0  3  0  0  0  0  0  0
  161.3800  207.2410  148.0730 C   0  0  0  0  0  0  0  0  0  0  0  0
  162.6670  204.6620  145.6770 N   0  0  0  0  0  0  0  0  0  0  0  0
  162.3010  204.7170  146.7740 C   0  0  0  0  0  0  0  0  0  0  0  0
  162.3700  207.1050  152.4420 C   0  0  0  0  0  2  0  0  0  0  0  0
  161.1770  206.5000  153.1740 C   0  0  0  0  0  2  0  0  0  0  0  0
  160.4830  207.5680  154.0000 C   0  0  2  0  0  3  0  0  0  0  0  0
  160.5410  208.8800  153.2270 C   0  0  0  0  0  1  0  0  0  0  0  0
  160.3670  206.9100  156.4230 C   0  0  0  0  0  1  0  0  0  0  0  0
  161.1430  207.7050  155.3820 C   0  0  2  0  0  3  0  0  0  0  0  0
  161.2360  209.1350  155.8260 C   0  0  0  0  0  0  0  0  0  0  0  0
  160.0620  213.5820  156.3820 C   0  0  0  0  0  1  0  0  0  0  0  0
  157.8370  212.0430  155.2350 O   0  0  0  0  0  0  0  0  0  0  0  0
  160.8610  211.2030  156.8840 C   0  0  1  0  0  3  0  0  0  0  0  0
  162.0560  211.1230  156.1210 O   0  0  0  0  0  0  0  0  0  0  0  0
  159.9460  212.1390  156.2650 N   0  0  0  0  0  0  0  0  0  0  0  0
  160.2240  209.8040  156.6950 C   0  0  1  0  0  3  0  0  0  0  0  0
  158.8210  211.4570  155.7600 C   0  0  0  0  0  0  0  0  0  0  0  0
  162.2310  209.8990  155.5340 N   0  0  0  0  0  0  0  0  0  0  0  0
  158.9060  209.9970  155.9320 C   0  0  0  0  0  2  0  0  0  0  0  0
  161.4590  212.2460  148.2830 C   0  0  1  0  0  3  0  0  0  0  0  0
  160.4150  214.0610  149.6300 C   0  0  0  0  0  2  0  0  0  0  0  0
  161.5140  213.4220  149.2300 C   0  0  0  0  0  3  0  0  0  0  0  0
  162.4460  212.4200  147.1210 C   0  0  0  0  0  2  0  0  0  0  0  0
  162.6740  213.7390  143.3190 C   0  0  1  0  0  3  0  0  0  0  0  0
  162.5320  213.2860  144.7370 N   0  0  0  0  0  0  0  0  0  0  0  0
  160.5150  212.9250  145.8280 O   0  0  0  0  0  0  0  0  0  0  0  0
  163.8290  213.5500  144.0490 C   0  0  0  0  0  2  0  0  0  0  0  0
  161.7700  212.8670  145.8640 C   0  0  0  0  0  0  0  0  0  0  0  0
  162.3830  212.5570  142.4040 C   0  0  0  0  0  2  0  0  0  0  0  0
  161.8420  212.9900  141.1920 O   0  0  0  0  0  0  0  0  0  0  0  0
  162.1280  211.9730  140.2810 C   0  0  0  0  0  2  0  0  0  0  0  0
  159.7320  212.4660  139.8270 C   0  0  0  0  0  1  0  0  0  0  0  0
  161.0070  211.8740  139.2570 C   0  0  2  0  0  3  0  0  0  0  0  0
  160.7570  210.4230  138.8780 C   0  0  0  0  0  2  0  0  0  0  0  0
  161.2950  209.4880  139.9480 C   0  0  0  0  0  2  0  0  0  0  0  0
  161.9370  207.1880  140.3670 N   0  0  0  0  0  1  0  0  0  0  0  0
  161.6360  208.1510  139.3240 C   0  0  0  0  0  2  0  0  0  0  0  0
  1  5  1  0  0  0  0
  2 12  2  0  0  0  0
  3  1  1  0  0  0  0
  4  5  1  0  0  0  0
  4  8  1  0  0  0  0
  5 15  1  1  0  0  0
  6  3  2  0  0  0  0
  7  9  1  0  0  0  0
  9  8  2  0  0  0  0
 10  4  2  0  0  0  0
 11 10  1  0  0  0  0
 11  7  2  0  0  0  0
 12  3  1  0  0  0  0
 12 10  1  0  0  0  0
 13 14  3  0  0  0  0
 14  6  1  0  0  0  0
 15 16  1  0  0  0  0
 16 17  1  0  0  0  0
 17 18  1  6  0  0  0
 17 20  1  0  0  0  0
 20 21  1  0  0  0  0
 20 19  1  1  0  0  0
 21 27  1  0  0  0  0
 23 28  2  0  0  0  0
 24 25  1  6  0  0  0
 26 22  1  0  0  0  0
 26 24  1  0  0  0  0
 27 30  1  6  0  0  0
 27 24  1  0  0  0  0
 28 30  1  0  0  0  0
 28 26  1  0  0  0  0
 29 21  2  0  0  0  0
 29 25  1  0  0  0  0
 31 34  1  6  0  0  0
 31  7  1  0  0  0  0
 31 33  1  0  0  0  0
 33 32  2  0  0  0  0
 35 40  1  6  0  0  0
 35 38  1  0  0  0  0
 35 36  1  0  0  0  0
 36 39  1  0  0  0  0
 37 39  2  0  0  0  0
 38 36  1  0  0  0  0
 39 34  1  0  0  0  0
 41 40  1  0  0  0  0
 42 41  1  0  0  0  0
 44 43  1  1  0  0  0
 44 42  1  0  0  0  0
 45 44  1  0  0  0  0
 45 46  1  0  0  0  0
 48 46  1  0  0  0  0
 48 47  1  0  0  0  0
M  END
>  <MODEL>
8

>  <REMARK>
 VINA RESULT:      -5.4      2.774     10.505
  Name = 
  17 active torsions:
  status: ('A' for Active; 'I' for Inactive)
    1  A    between atoms: C_1  and  C_11
    2  A    between atoms: C_5  and  C_8
    3  A    between atoms: C_5  and  O_37
    4  A    between atoms: C_11  and  C_24
    5  A    between atoms: C_19  and  C_44
    6  A    between atoms: C_20  and  C_25
    7  A    between atoms: C_21  and  C_24
    8  A    between atoms: C_21  and  C_44
    9  A    between atoms: C_26  and  C_36
   10  A    between atoms: C_26  and  C_47
   11  A    between atoms: C_27  and  C_33
   12  A    between atoms: C_32  and  C_33
   13  A    between atoms: C_32  and  C_48
   14  A    between atoms: C_33  and  C_42
   15  A    between atoms: C_36  and  C_46
   16  A    between atoms: O_37  and  C_43
   17  A    between atoms: C_43  and  C_47
                            x       y       z     vdW  Elec       q    Type
                         _______ _______ _______ _____ _____    ______ ____

>  <TORSDO>
F 17

$$$$
=
 OpenBabel11042423063D

 48 52  0  0  1  0  0  0  0  0999 V2000
  159.2730  212.4620  152.6050 S   0  0  0  0  0  0  0  0  0  0  0  0
  160.4240  209.0130  154.0740 O   0  0  0  0  0  0  0  0  0  0  0  0
  159.9620  211.3350  153.8090 C   0  0  0  0  0  0  0  0  0  0  0  0
  161.1130  211.0380  151.0980 C   0  0  0  0  0  0  0  0  0  0  0  0
  160.8120  212.4340  151.6240 C   0  0  1  0  0  3  0  0  0  0  0  0
  160.0610  211.7480  155.0750 C   0  0  0  0  0  3  0  0  0  0  0  0
  161.7510  208.4540  150.1330 C   0  0  0  0  0  0  0  0  0  0  0  0
  161.6600  210.8630  149.8180 C   0  0  0  0  0  3  0  0  0  0  0  0
  161.9760  209.5890  149.3410 C   0  0  0  0  0  3  0  0  0  0  0  0
  160.9400  209.9000  151.9290 C   0  0  0  0  0  0  0  0  0  0  0  0
  161.2670  208.6290  151.4350 C   0  0  0  0  0  3  0  0  0  0  0  0
  160.4430  210.0250  153.3190 C   0  0  0  0  0  0  0  0  0  0  0  0
  161.0860  210.3350  157.0010 N   0  0  0  0  0  0  0  0  0  0  0  0
  160.6260  210.9630  156.1450 C   0  0  0  0  0  0  0  0  0  0  0  0
  160.7900  213.5430  150.5640 C   0  0  0  0  0  2  0  0  0  0  0  0
  159.8770  213.2110  149.3890 C   0  0  0  0  0  2  0  0  0  0  0  0
  160.6150  213.4410  148.0820 C   0  0  2  0  0  3  0  0  0  0  0  0
  161.8630  214.2630  148.3790 C   0  0  0  0  0  1  0  0  0  0  0  0
  158.2880  214.2550  147.5920 C   0  0  0  0  0  1  0  0  0  0  0  0
  159.7110  214.1490  147.0600 C   0  0  2  0  0  3  0  0  0  0  0  0
  159.6870  213.4390  145.7380 C   0  0  0  0  0  0  0  0  0  0  0  0
  161.0240  212.1360  141.4980 C   0  0  0  0  0  1  0  0  0  0  0  0
  163.1290  213.6950  142.8320 O   0  0  0  0  0  0  0  0  0  0  0  0
  160.1870  212.0390  143.9150 C   0  0  1  0  0  3  0  0  0  0  0  0
  158.9460  212.7230  143.8280 O   0  0  0  0  0  0  0  0  0  0  0  0
  161.0900  212.5290  142.8950 N   0  0  0  0  0  0  0  0  0  0  0  0
  160.7690  212.5280  145.2640 C   0  0  1  0  0  3  0  0  0  0  0  0
  162.1620  213.2250  143.4890 C   0  0  0  0  0  0  0  0  0  0  0  0
  158.6990  213.5170  144.9150 N   0  0  0  0  0  0  0  0  0  0  0  0
  162.0440  213.3260  144.9540 C   0  0  0  0  0  2  0  0  0  0  0  0
  162.1550  207.0740  149.6480 C   0  0  1  0  0  3  0  0  0  0  0  0
  160.6600  205.4670  150.8240 C   0  0  0  0  0  2  0  0  0  0  0  0
  161.0230  206.0740  149.6950 C   0  0  0  0  0  3  0  0  0  0  0  0
  162.8260  207.0920  148.2690 C   0  0  0  0  0  2  0  0  0  0  0  0
  161.8680  204.8150  145.0830 C   0  0  1  0  0  3  0  0  0  0  0  0
  162.1900  205.7110  146.2360 N   0  0  0  0  0  0  0  0  0  0  0  0
  160.8120  207.3990  147.0400 O   0  0  0  0  0  0  0  0  0  0  0  0
  163.0920  204.6510  145.7000 C   0  0  0  0  0  2  0  0  0  0  0  0
  161.8750  206.7390  147.1700 C   0  0  0  0  0  0  0  0  0  0  0  0
  160.8570  203.7770  145.5480 C   0  0  0  0  0  2  0  0  0  0  0  0
  161.5010  202.6070  145.9580 O   0  0  0  0  0  0  0  0  0  0  0  0
  161.4620  202.6380  147.3520 C   0  0  0  0  0  2  0  0  0  0  0  0
  161.2060  200.2300  146.7850 C   0  0  0  0  0  1  0  0  0  0  0  0
  161.4990  201.2190  147.8970 C   0  0  2  0  0  3  0  0  0  0  0  0
  160.4710  201.0450  149.0020 C   0  0  0  0  0  2  0  0  0  0  0  0
  160.4380  202.2670  149.9040 C   0  0  0  0  0  2  0  0  0  0  0  0
  160.8280  202.5590  152.2790 N   0  0  0  0  0  1  0  0  0  0  0  0
  161.4190  202.0800  151.0430 C   0  0  0  0  0  2  0  0  0  0  0  0
  1  3  1  0  0  0  0
  3  6  2  0  0  0  0
  4  5  1  0  0  0  0
  4 10  1  0  0  0  0
  5 15  1  6  0  0  0
  5  1  1  0  0  0  0
  6 14  1  0  0  0  0
  7 11  1  0  0  0  0
  8  4  2  0  0  0  0
  9  8  1  0  0  0  0
  9  7  2  0  0  0  0
 10 12  1  0  0  0  0
 11 10  2  0  0  0  0
 12  3  1  0  0  0  0
 12  2  2  0  0  0  0
 14 13  3  0  0  0  0
 16 15  1  0  0  0  0
 17 18  1  1  0  0  0
 17 16  1  0  0  0  0
 20 19  1  1  0  0  0
 20 17  1  0  0  0  0
 21 20  1  0  0  0  0
 22 26  1  0  0  0  0
 23 28  2  0  0  0  0
 24 25  1  6  0  0  0
 24 27  1  0  0  0  0
 25 29  1  0  0  0  0
 26 28  1  0  0  0  0
 26 24  1  0  0  0  0
 27 30  1  6  0  0  0
 27 21  1  0  0  0  0
 28 30  1  0  0  0  0
 29 21  2  0  0  0  0
 31 34  1  6  0  0  0
 31 33  1  0  0  0  0
 31  7  1  0  0  0  0
 33 32  2  0  0  0  0
 35 40  1  1  0  0  0
 35 38  1  0  0  0  0
 35 36  1  0  0  0  0
 36 39  1  0  0  0  0
 37 39  2  0  0  0  0
 38 36  1  0  0  0  0
 39 34  1  0  0  0  0
 40 41  1  0  0  0  0
 41 42  1  0  0  0  0
 42 44  1  0  0  0  0
 44 43  1  6  0  0  0
 44 45  1  0  0  0  0
 45 46  1  0  0  0  0
 46 48  1  0  0  0  0
 48 47  1  0  0  0  0
M  END
>  <MODEL>
9

>  <REMARK>
 VINA RESULT:      -5.0      1.766      3.255
  Name = 
  17 active torsions:
  status: ('A' for Active; 'I' for Inactive)
    1  A    between atoms: C_1  and  C_11
    2  A    between atoms: C_5  and  C_8
    3  A    between atoms: C_5  and  O_37
    4  A    between atoms: C_11  and  C_24
    5  A    between atoms: C_19  and  C_44
    6  A    between atoms: C_20  and  C_25
    7  A    between atoms: C_21  and  C_24
    8  A    between atoms: C_21  and  C_44
    9  A    between atoms: C_26  and  C_36
   10  A    between atoms: C_26  and  C_47
   11  A    between atoms: C_27  and  C_33
   12  A    between atoms: C_32  and  C_33
   13  A    between atoms: C_32  and  C_48
   14  A    between atoms: C_33  and  C_42
   15  A    between atoms: C_36  and  C_46
   16  A    between atoms: O_37  and  C_43
   17  A    between atoms: C_43  and  C_47
                            x       y       z     vdW  Elec       q    Type
                         _______ _______ _______ _____ _____    ______ ____

>  <TORSDO>
F 17

$$$$
