=
 OpenBabel11042422063D

 54 62  0  0  1  0  0  0  0  0999 V2000
  160.7950  200.8610  150.0550 N   0  0  0  0  0  1  0  0  0  0  0  0
  160.9550  203.4340  150.1770 C   0  0  0  0  0  3  0  0  0  0  0  0
  161.0810  205.8780  146.6560 C   0  0  0  0  0  0  0  0  0  0  0  0
  160.9640  205.4960  144.3010 C   0  0  2  0  0  3  0  0  0  0  0  0
  160.8600  201.2420  147.0840 C   0  0  0  0  0  1  0  0  0  0  0  0
  161.0690  206.4770  145.3760 N   0  0  0  0  0  2  0  0  0  0  0  0
  161.0440  204.4640  146.6460 N   0  0  0  0  0  0  0  0  0  0  0  0
  161.0010  203.7490  147.8820 C   0  0  0  0  0  0  0  0  0  0  0  0
  160.9250  202.3190  148.1150 C   0  0  0  0  0  0  0  0  0  0  0  0
  161.0170  204.3970  149.0310 C   0  0  0  0  0  0  0  0  0  0  0  0
  161.0740  205.8450  149.0740 N   0  0  0  0  0  0  0  0  0  0  0  0
  160.8980  202.1350  149.4270 C   0  0  2  0  0  3  0  0  0  0  0  0
  161.1080  206.5670  147.8140 C   0  0  0  0  0  0  0  0  0  0  0  0
  161.0430  203.7920  145.0190 S   0  0  0  0  0  0  0  0  0  0  0  0
  161.1460  208.0640  147.7860 C   0  0  0  0  0  1  0  0  0  0  0  0
  161.0660  206.6040  150.2980 C   0  0  0  0  0  3  0  0  0  0  0  0
  162.1630  206.9700  150.9520 C   0  0  0  0  0  3  0  0  0  0  0  0
  162.0650  207.7430  152.2220 C   0  0  0  0  0  2  0  0  0  0  0  0
  160.6720  208.3400  152.3660 C   0  0  0  0  0  2  0  0  0  0  0  0
  160.1170  210.6620  153.3310 C   0  0  1  0  0  0  0  0  0  0  0  0
  161.4810  210.3680  153.5640 O   0  0  0  0  0  0  0  0  0  0  0  0
  160.5910  209.2720  153.5710 C   0  0  2  0  0  0  0  0  0  0  0  0
  159.3180  212.6970  157.2610 C   0  0  0  0  0  2  0  0  0  0  0  0
  160.0080  211.5960  156.7130 O   0  0  0  0  0  0  0  0  0  0  0  0
  158.2440  213.3090  156.3380 C   0  0  1  0  0  3  0  0  0  0  0  0
  159.5680  211.4570  154.4270 N   0  0  0  0  0  0  0  0  0  0  0  0
  157.5270  212.3050  155.4860 C   0  0  0  0  0  3  0  0  0  0  0  0
  157.2850  214.0520  157.1340 N   0  0  0  0  0  1  0  0  0  0  0  0
  160.4810  211.9690  155.4460 C   0  0  0  0  0  2  0  0  0  0  0  0
  158.1410  211.5080  154.6020 C   0  0  0  0  0  3  0  0  0  0  0  0
  159.9430  211.1530  152.0260 O   0  0  0  0  0  0  0  0  0  0  0  0
  160.0620  212.5440  152.1120 C   0  0  0  0  0  1  0  0  0  0  0  0
  160.3150  208.7560  154.8500 O   0  0  0  0  0  0  0  0  0  0  0  0
  161.5170  208.7600  155.5720 C   0  0  0  0  0  2  0  0  0  0  0  0
  160.3740  207.0030  156.8570 C   0  0  0  0  0  2  0  0  0  0  0  0
  161.4880  207.6940  156.6200 C   0  0  0  0  0  3  0  0  0  0  0  0
  162.0960  205.7100  143.3130 C   0  0  0  0  0  2  0  0  0  0  0  0
  161.5560  205.9780  141.9940 N   0  0  0  0  0  2  0  0  0  0  0  0
  162.2040  207.1850  141.5120 C   0  0  0  0  0  2  0  0  0  0  0  0
  161.8610  207.4010  140.0500 C   0  0  0  0  0  2  0  0  0  0  0  0
  161.3840  208.8230  139.8170 C   0  0  1  0  0  3  0  0  0  0  0  0
  162.3880  210.9560  139.0340 C   0  0  1  0  0  0  0  0  0  0  0  0
  162.5480  209.7860  139.9790 C   0  0  1  0  0  3  0  0  0  0  0  0
  162.0570  211.1110  140.5230 C   0  0  2  0  0  3  0  0  0  0  0  0
  163.2860  213.1440  138.5900 C   0  0  0  0  0  2  0  0  0  0  0  0
  162.0030  213.3220  139.3850 C   0  0  0  0  0  2  0  0  0  0  0  0
  163.6840  211.6970  138.7850 C   0  0  0  0  0  2  0  0  0  0  0  0
  161.3460  211.9540  139.4840 C   0  0  1  0  0  3  0  0  0  0  0  0
  160.8390  208.9420  138.4750 N   0  0  0  0  0  2  0  0  0  0  0  0
  159.4440  208.9340  138.5980 N   0  0  0  0  0  2  0  0  0  0  0  0
  158.8970  209.0120  137.2490 C   0  0  2  0  0  3  0  0  0  0  0  0
  158.0990  210.2970  137.0130 C   0  0  1  0  0  3  0  0  0  0  0  0
  157.3830  208.9960  137.3070 C   0  0  0  0  0  2  0  0  0  0  0  0
  158.0590  211.1520  138.1920 N   0  0  0  0  0  1  0  0  0  0  0  0
  3 13  2  0  0  0  0
  4 37  1  6  0  0  0
  4 14  1  0  0  0  0
  4  6  1  0  0  0  0
  5  9  1  0  0  0  0
  6  3  1  0  0  0  0
  7  3  1  0  0  0  0
  7  8  1  0  0  0  0
  8  9  2  0  0  0  0
  8 10  1  0  0  0  0
  9 12  1  0  0  0  0
 10 11  1  0  0  0  0
 10  2  2  0  0  0  0
 11 16  1  0  0  0  0
 12  1  1  6  0  0  0
 12  2  1  0  0  0  0
 13 11  1  0  0  0  0
 14  7  1  0  0  0  0
 15 13  1  0  0  0  0
 16 17  2  0  0  0  0
 17 18  1  0  0  0  0
 18 19  1  0  0  0  0
 20 31  1  6  0  0  0
 20 21  1  0  0  0  0
 20 22  1  0  0  0  0
 20 26  1  0  0  0  0
 21 22  1  0  0  0  0
 22 19  1  6  0  0  0
 22 33  1  0  0  0  0
 24 23  1  0  0  0  0
 25 28  1  1  0  0  0
 25 23  1  0  0  0  0
 26 30  1  0  0  0  0
 26 29  1  0  0  0  0
 27 25  1  0  0  0  0
 29 24  1  0  0  0  0
 30 27  2  0  0  0  0
 31 32  1  0  0  0  0
 33 34  1  0  0  0  0
 34 36  1  0  0  0  0
 36 35  2  0  0  0  0
 38 37  1  0  0  0  0
 39 38  1  0  0  0  0
 40 39  1  0  0  0  0
 41 40  1  6  0  0  0
 42 47  1  6  0  0  0
 42 48  1  0  0  0  0
 42 43  1  0  0  0  0
 42 44  1  0  0  0  0
 43 41  1  6  0  0  0
 43 44  1  0  0  0  0
 45 47  1  0  0  0  0
 45 46  1  0  0  0  0
 46 48  1  0  0  0  0
 48 44  1  0  0  0  0
 49 50  1  0  0  0  0
 49 41  1  0  0  0  0
 51 53  1  0  0  0  0
 51 50  1  0  0  0  0
 52 51  1  0  0  0  0
 52 53  1  0  0  0  0
 52 54  1  0  0  0  0
M  END
>  <MODEL>
1

>  <REMARK>
 VINA RESULT:      -5.9      0.000      0.000
  Name = 
  18 active torsions:
  status: ('A' for Active; 'I' for Inactive)
    1  A    between atoms: C_3  and  N_17
    2  A    between atoms: C_3  and  O_33
    3  A    between atoms: C_5  and  O_36
    4  A    between atoms: C_5  and  C_47
    5  A    between atoms: C_7  and  C_46
    6  A    between atoms: C_7  and  C_48
    7  A    between atoms: C_9  and  C_48
    8  A    between atoms: C_10  and  N_32
    9  A    between atoms: C_12  and  C_22
   10  A    between atoms: C_12  and  N_26
   11  A    between atoms: C_15  and  N_40
   12  A    between atoms: C_16  and  C_25
   13  A    between atoms: C_16  and  C_44
   14  A    between atoms: N_26  and  C_46
   15  A    between atoms: N_32  and  N_38
   16  A    between atoms: O_36  and  C_45
   17  A    between atoms: N_38  and  C_48
   18  A    between atoms: C_44  and  C_45
                            x       y       z     vdW  Elec       q    Type
                         _______ _______ _______ _____ _____    ______ ____

>  <TORSDO>
F 18

$$$$
=
 OpenBabel11042422063D

 54 62  0  0  1  0  0  0  0  0999 V2000
  160.7960  200.9730  150.1730 N   0  0  0  0  0  1  0  0  0  0  0  0
  161.2690  203.5060  150.3270 C   0  0  0  0  0  3  0  0  0  0  0  0
  161.3570  206.0220  146.8560 C   0  0  0  0  0  0  0  0  0  0  0  0
  160.9790  205.7260  144.5160 C   0  0  2  0  0  3  0  0  0  0  0  0
  160.6300  201.4320  147.2170 C   0  0  0  0  0  1  0  0  0  0  0  0
  161.2970  206.6560  145.5950 N   0  0  0  0  0  2  0  0  0  0  0  0
  161.1530  204.6220  146.8230 N   0  0  0  0  0  0  0  0  0  0  0  0
  161.1400  203.8800  148.0440 C   0  0  0  0  0  0  0  0  0  0  0  0
  160.9160  202.4630  148.2560 C   0  0  0  0  0  0  0  0  0  0  0  0
  161.3380  204.4880  149.1990 C   0  0  0  0  0  0  0  0  0  0  0  0
  161.5690  205.9180  149.2630 N   0  0  0  0  0  0  0  0  0  0  0  0
  160.9890  202.2450  149.5620 C   0  0  2  0  0  3  0  0  0  0  0  0
  161.5710  206.6680  148.0190 C   0  0  0  0  0  0  0  0  0  0  0  0
  160.9220  204.0040  145.1920 S   0  0  0  0  0  0  0  0  0  0  0  0
  161.7840  208.1510  148.0150 C   0  0  0  0  0  1  0  0  0  0  0  0
  161.7640  206.6360  150.4960 C   0  0  0  0  0  3  0  0  0  0  0  0
  161.3940  207.8980  150.6890 C   0  0  0  0  0  3  0  0  0  0  0  0
  161.6470  208.5700  151.9930 C   0  0  0  0  0  2  0  0  0  0  0  0
  160.4900  208.3140  152.9480 C   0  0  0  0  0  2  0  0  0  0  0  0
  159.6680  210.6740  153.5690 C   0  0  1  0  0  0  0  0  0  0  0  0
  161.0760  210.6160  153.6960 O   0  0  0  0  0  0  0  0  0  0  0  0
  160.3690  209.4280  153.9840 C   0  0  2  0  0  0  0  0  0  0  0  0
  158.9800  213.4800  157.0150 C   0  0  0  0  0  2  0  0  0  0  0  0
  159.8930  212.5100  156.5530 O   0  0  0  0  0  0  0  0  0  0  0  0
  157.6030  213.4540  156.3200 C   0  0  1  0  0  3  0  0  0  0  0  0
  159.0980  211.5700  154.5720 N   0  0  0  0  0  0  0  0  0  0  0  0
  157.1330  212.0790  155.9470 C   0  0  0  0  0  3  0  0  0  0  0  0
  156.6170  214.0970  157.1690 N   0  0  0  0  0  1  0  0  0  0  0  0
  159.9520  212.6030  155.1550 C   0  0  0  0  0  2  0  0  0  0  0  0
  157.8050  211.2630  155.1260 C   0  0  0  0  0  3  0  0  0  0  0  0
  159.3100  210.8930  152.2280 O   0  0  0  0  0  0  0  0  0  0  0  0
  160.0600  211.9930  151.7980 C   0  0  0  0  0  1  0  0  0  0  0  0
  160.2840  209.1180  155.3530 O   0  0  0  0  0  0  0  0  0  0  0  0
  161.5390  208.6350  155.7500 C   0  0  0  0  0  2  0  0  0  0  0  0
  160.1550  207.0530  157.0270 C   0  0  0  0  0  2  0  0  0  0  0  0
  161.3700  207.4710  156.6730 C   0  0  0  0  0  3  0  0  0  0  0  0
  162.0320  205.8370  143.4290 C   0  0  0  0  0  2  0  0  0  0  0  0
  161.3920  205.9610  142.1330 N   0  0  0  0  0  2  0  0  0  0  0  0
  161.8310  207.2240  141.5670 C   0  0  0  0  0  2  0  0  0  0  0  0
  161.9660  207.0910  140.0620 C   0  0  0  0  0  2  0  0  0  0  0  0
  162.2590  208.4390  139.4300 C   0  0  1  0  0  3  0  0  0  0  0  0
  160.0590  208.4610  138.2760 C   0  0  1  0  0  0  0  0  0  0  0  0
  161.5570  208.5390  138.0850 C   0  0  1  0  0  3  0  0  0  0  0  0
  160.7390  209.8100  138.0160 C   0  0  2  0  0  3  0  0  0  0  0  0
  157.9980  208.8110  137.0860 C   0  0  0  0  0  2  0  0  0  0  0  0
  158.2650  210.0500  137.9240 C   0  0  0  0  0  2  0  0  0  0  0  0
  159.3200  208.0810  137.0110 C   0  0  0  0  0  2  0  0  0  0  0  0
  159.4550  209.7350  138.8180 C   0  0  1  0  0  3  0  0  0  0  0  0
  161.7880  209.5010  140.3030 N   0  0  0  0  0  2  0  0  0  0  0  0
  162.6950  210.5620  140.1840 N   0  0  0  0  0  2  0  0  0  0  0  0
  161.9210  211.7950  140.2610 C   0  0  2  0  0  3  0  0  0  0  0  0
  162.7430  213.0280  139.8780 C   0  0  1  0  0  3  0  0  0  0  0  0
  162.4950  212.6960  141.3340 C   0  0  0  0  0  2  0  0  0  0  0  0
  164.1170  212.6940  139.5300 N   0  0  0  0  0  1  0  0  0  0  0  0
  3 13  2  0  0  0  0
  4 37  1  6  0  0  0
  4 14  1  0  0  0  0
  4  6  1  0  0  0  0
  5  9  1  0  0  0  0
  6  3  1  0  0  0  0
  7  3  1  0  0  0  0
  7  8  1  0  0  0  0
  8  9  2  0  0  0  0
  8 10  1  0  0  0  0
  9 12  1  0  0  0  0
 10 11  1  0  0  0  0
 10  2  2  0  0  0  0
 11 16  1  0  0  0  0
 12  1  1  1  0  0  0
 12  2  1  0  0  0  0
 13 11  1  0  0  0  0
 14  7  1  0  0  0  0
 15 13  1  0  0  0  0
 16 17  2  0  0  0  0
 17 18  1  0  0  0  0
 18 19  1  0  0  0  0
 20 31  1  6  0  0  0
 20 21  1  0  0  0  0
 20 22  1  0  0  0  0
 20 26  1  0  0  0  0
 21 22  1  0  0  0  0
 22 19  1  6  0  0  0
 22 33  1  0  0  0  0
 24 23  1  0  0  0  0
 25 23  1  0  0  0  0
 25 28  1  1  0  0  0
 26 30  1  0  0  0  0
 26 29  1  0  0  0  0
 27 25  1  0  0  0  0
 29 24  1  0  0  0  0
 30 27  2  0  0  0  0
 32 31  1  0  0  0  0
 33 34  1  0  0  0  0
 34 36  1  0  0  0  0
 36 35  2  0  0  0  0
 38 37  1  0  0  0  0
 39 38  1  0  0  0  0
 40 39  1  0  0  0  0
 41 40  1  1  0  0  0
 41 49  1  0  0  0  0
 42 47  1  6  0  0  0
 42 48  1  0  0  0  0
 43 42  1  0  0  0  0
 43 41  1  1  0  0  0
 44 43  1  0  0  0  0
 44 42  1  0  0  0  0
 44 48  1  0  0  0  0
 45 46  1  0  0  0  0
 46 48  1  0  0  0  0
 47 45  1  0  0  0  0
 50 51  1  0  0  0  0
 50 49  1  0  0  0  0
 51 53  1  0  0  0  0
 52 51  1  0  0  0  0
 52 53  1  0  0  0  0
 54 52  1  0  0  0  0
M  END
>  <MODEL>
2

>  <REMARK>
 VINA RESULT:      -4.9      1.170      2.516
  Name = 
  18 active torsions:
  status: ('A' for Active; 'I' for Inactive)
    1  A    between atoms: C_3  and  N_17
    2  A    between atoms: C_3  and  O_33
    3  A    between atoms: C_5  and  O_36
    4  A    between atoms: C_5  and  C_47
    5  A    between atoms: C_7  and  C_46
    6  A    between atoms: C_7  and  C_48
    7  A    between atoms: C_9  and  C_48
    8  A    between atoms: C_10  and  N_32
    9  A    between atoms: C_12  and  C_22
   10  A    between atoms: C_12  and  N_26
   11  A    between atoms: C_15  and  N_40
   12  A    between atoms: C_16  and  C_25
   13  A    between atoms: C_16  and  C_44
   14  A    between atoms: N_26  and  C_46
   15  A    between atoms: N_32  and  N_38
   16  A    between atoms: O_36  and  C_45
   17  A    between atoms: N_38  and  C_48
   18  A    between atoms: C_44  and  C_45
                            x       y       z     vdW  Elec       q    Type
                         _______ _______ _______ _____ _____    ______ ____

>  <TORSDO>
F 18

$$$$
=
 OpenBabel11042422063D

 54 62  0  0  1  0  0  0  0  0999 V2000
  158.4070  212.7370  154.6580 N   0  0  0  0  0  1  0  0  0  0  0  0
  159.9460  211.1150  153.3680 C   0  0  0  0  0  3  0  0  0  0  0  0
  161.3770  211.9860  149.4210 C   0  0  0  0  0  0  0  0  0  0  0  0
  161.1880  213.8130  147.8950 C   0  0  2  0  0  3  0  0  0  0  0  0
  158.5630  214.4480  152.2030 C   0  0  0  0  0  1  0  0  0  0  0  0
  161.7560  212.4950  148.1580 N   0  0  0  0  0  2  0  0  0  0  0  0
  160.4930  212.8140  150.1510 N   0  0  0  0  0  0  0  0  0  0  0  0
  160.0820  212.4270  151.4630 C   0  0  0  0  0  0  0  0  0  0  0  0
  159.2220  213.1240  152.4000 C   0  0  0  0  0  0  0  0  0  0  0  0
  160.5030  211.2930  151.9890 C   0  0  0  0  0  0  0  0  0  0  0  0
  161.3950  210.4130  151.2580 N   0  0  0  0  0  0  0  0  0  0  0  0
  159.1420  212.3760  153.4920 C   0  0  2  0  0  3  0  0  0  0  0  0
  161.8170  210.8180  149.9280 C   0  0  0  0  0  0  0  0  0  0  0  0
  160.0390  214.2700  149.2720 S   0  0  0  0  0  0  0  0  0  0  0  0
  162.7530  209.9650  149.1270 C   0  0  0  0  0  1  0  0  0  0  0  0
  161.9070  209.1790  151.7940 C   0  0  0  0  0  3  0  0  0  0  0  0
  161.2360  208.0310  151.7890 C   0  0  0  0  0  3  0  0  0  0  0  0
  161.8350  206.8010  152.3780 C   0  0  0  0  0  2  0  0  0  0  0  0
  160.9340  205.6020  152.1160 C   0  0  0  0  0  2  0  0  0  0  0  0
  161.4270  203.6690  150.4870 C   0  0  1  0  0  0  0  0  0  0  0  0
  162.3760  204.7010  150.2970 O   0  0  0  0  0  0  0  0  0  0  0  0
  161.0780  205.1030  150.6820 C   0  0  2  0  0  0  0  0  0  0  0  0
  160.4000  200.7120  147.2590 C   0  0  0  0  0  2  0  0  0  0  0  0
  160.9030  200.7720  148.5760 O   0  0  0  0  0  0  0  0  0  0  0  0
  160.4320  202.0510  146.4940 C   0  0  1  0  0  3  0  0  0  0  0  0
  161.1330  203.0010  149.2220 N   0  0  0  0  0  0  0  0  0  0  0  0
  161.6150  202.9120  146.8210 C   0  0  0  0  0  3  0  0  0  0  0  0
  160.3900  201.7960  145.0660 N   0  0  0  0  0  1  0  0  0  0  0  0
  160.2600  201.8290  149.2360 C   0  0  0  0  0  2  0  0  0  0  0  0
  161.8890  203.3620  148.0520 C   0  0  0  0  0  3  0  0  0  0  0  0
  161.8020  202.8610  151.5740 O   0  0  0  0  0  0  0  0  0  0  0  0
  160.6150  202.3470  152.1060 C   0  0  0  0  0  1  0  0  0  0  0  0
  160.3180  205.6820  149.6500 O   0  0  0  0  0  0  0  0  0  0  0  0
  161.1650  206.5440  148.9390 C   0  0  0  0  0  2  0  0  0  0  0  0
  160.8870  206.2040  146.5190 C   0  0  0  0  0  2  0  0  0  0  0  0
  160.5560  206.8830  147.6170 C   0  0  0  0  0  3  0  0  0  0  0  0
  160.4480  213.7870  146.5700 C   0  0  0  0  0  2  0  0  0  0  0  0
  161.3550  213.4060  145.5050 N   0  0  0  0  0  2  0  0  0  0  0  0
  160.5610  213.3040  144.2940 C   0  0  0  0  0  2  0  0  0  0  0  0
  161.1070  214.2510  143.2420 C   0  0  0  0  0  2  0  0  0  0  0  0
  160.9060  213.6800  141.8510 C   0  0  1  0  0  3  0  0  0  0  0  0
  161.8870  212.2020  140.1120 C   0  0  1  0  0  0  0  0  0  0  0  0
  162.1270  212.8690  141.4490 C   0  0  1  0  0  3  0  0  0  0  0  0
  162.7600  213.4590  140.2070 C   0  0  2  0  0  3  0  0  0  0  0  0
  163.0570  211.0300  138.3670 C   0  0  0  0  0  2  0  0  0  0  0  0
  162.8970  212.4750  137.9270 C   0  0  0  0  0  2  0  0  0  0  0  0
  162.8150  211.0330  139.8600 C   0  0  0  0  0  2  0  0  0  0  0  0
  161.9860  213.1510  138.9410 C   0  0  1  0  0  3  0  0  0  0  0  0
  159.7300  212.8260  141.8390 N   0  0  0  0  0  2  0  0  0  0  0  0
  158.6150  213.6670  141.7320 N   0  0  0  0  0  2  0  0  0  0  0  0
  158.6320  214.2290  140.3870 C   0  0  2  0  0  3  0  0  0  0  0  0
  157.2250  214.4530  139.8270 C   0  0  1  0  0  3  0  0  0  0  0  0
  158.0290  213.2410  139.4110 C   0  0  0  0  0  2  0  0  0  0  0  0
  156.1830  214.0490  140.7620 N   0  0  0  0  0  1  0  0  0  0  0  0
  2 12  1  0  0  0  0
  3 13  2  0  0  0  0
  3  7  1  0  0  0  0
  4 37  1  6  0  0  0
  4  6  1  0  0  0  0
  4 14  1  0  0  0  0
  5  9  1  0  0  0  0
  6  3  1  0  0  0  0
  7  8  1  0  0  0  0
  8 10  1  0  0  0  0
  8  9  2  0  0  0  0
  9 12  1  0  0  0  0
 10  2  2  0  0  0  0
 11 16  1  0  0  0  0
 11 10  1  0  0  0  0
 12  1  1  1  0  0  0
 13 11  1  0  0  0  0
 14  7  1  0  0  0  0
 15 13  1  0  0  0  0
 17 16  2  0  0  0  0
 17 18  1  0  0  0  0
 19 18  1  0  0  0  0
 20 22  1  0  0  0  0
 20 31  1  1  0  0  0
 21 20  1  0  0  0  0
 21 22  1  0  0  0  0
 22 19  1  1  0  0  0
 23 24  1  0  0  0  0
 24 29  1  0  0  0  0
 25 28  1  6  0  0  0
 25 27  1  0  0  0  0
 25 23  1  0  0  0  0
 26 29  1  0  0  0  0
 26 20  1  0  0  0  0
 27 30  2  0  0  0  0
 30 26  1  0  0  0  0
 31 32  1  0  0  0  0
 33 22  1  0  0  0  0
 34 33  1  0  0  0  0
 35 36  2  0  0  0  0
 36 34  1  0  0  0  0
 38 37  1  0  0  0  0
 39 38  1  0  0  0  0
 40 39  1  0  0  0  0
 41 40  1  1  0  0  0
 42 47  1  6  0  0  0
 42 44  1  0  0  0  0
 42 43  1  0  0  0  0
 43 41  1  6  0  0  0
 44 43  1  0  0  0  0
 45 47  1  0  0  0  0
 46 45  1  0  0  0  0
 46 48  1  0  0  0  0
 48 42  1  0  0  0  0
 48 44  1  0  0  0  0
 49 41  1  0  0  0  0
 50 49  1  0  0  0  0
 51 50  1  0  0  0  0
 52 51  1  0  0  0  0
 52 54  1  0  0  0  0
 53 52  1  0  0  0  0
 53 51  1  0  0  0  0
M  END
>  <MODEL>
3

>  <REMARK>
 VINA RESULT:      -4.7      3.802      8.477
  Name = 
  18 active torsions:
  status: ('A' for Active; 'I' for Inactive)
    1  A    between atoms: C_3  and  N_17
    2  A    between atoms: C_3  and  O_33
    3  A    between atoms: C_5  and  O_36
    4  A    between atoms: C_5  and  C_47
    5  A    between atoms: C_7  and  C_46
    6  A    between atoms: C_7  and  C_48
    7  A    between atoms: C_9  and  C_48
    8  A    between atoms: C_10  and  N_32
    9  A    between atoms: C_12  and  C_22
   10  A    between atoms: C_12  and  N_26
   11  A    between atoms: C_15  and  N_40
   12  A    between atoms: C_16  and  C_25
   13  A    between atoms: C_16  and  C_44
   14  A    between atoms: N_26  and  C_46
   15  A    between atoms: N_32  and  N_38
   16  A    between atoms: O_36  and  C_45
   17  A    between atoms: N_38  and  C_48
   18  A    between atoms: C_44  and  C_45
                            x       y       z     vdW  Elec       q    Type
                         _______ _______ _______ _____ _____    ______ ____

>  <TORSDO>
F 18

$$$$
=
 OpenBabel11042422063D

 54 62  0  0  1  0  0  0  0  0999 V2000
  158.4060  212.7640  154.6450 N   0  0  0  0  0  1  0  0  0  0  0  0
  159.8740  211.0990  153.3270 C   0  0  0  0  0  3  0  0  0  0  0  0
  161.2150  211.9110  149.3360 C   0  0  0  0  0  0  0  0  0  0  0  0
  161.0220  213.7320  147.8010 C   0  0  2  0  0  3  0  0  0  0  0  0
  158.5310  214.4530  152.1740 C   0  0  0  0  0  1  0  0  0  0  0  0
  161.5690  212.4040  148.0590 N   0  0  0  0  0  2  0  0  0  0  0  0
  160.3690  212.7640  150.0830 N   0  0  0  0  0  0  0  0  0  0  0  0
  159.9860  212.3950  151.4090 C   0  0  0  0  0  0  0  0  0  0  0  0
  159.1670  213.1170  152.3640 C   0  0  0  0  0  0  0  0  0  0  0  0
  160.3970  211.2560  151.9320 C   0  0  0  0  0  0  0  0  0  0  0  0
  161.2500  210.3520  151.1840 N   0  0  0  0  0  0  0  0  0  0  0  0
  159.1010  212.3790  153.4630 C   0  0  2  0  0  3  0  0  0  0  0  0
  161.6440  210.7380  149.8400 C   0  0  0  0  0  0  0  0  0  0  0  0
  159.9220  214.2220  149.2060 S   0  0  0  0  0  0  0  0  0  0  0  0
  162.5380  209.8600  149.0190 C   0  0  0  0  0  1  0  0  0  0  0  0
  161.7500  209.1100  151.7150 C   0  0  0  0  0  3  0  0  0  0  0  0
  161.0610  207.9740  151.7210 C   0  0  0  0  0  3  0  0  0  0  0  0
  161.6490  206.7360  152.3050 C   0  0  0  0  0  2  0  0  0  0  0  0
  160.7190  205.5530  152.0710 C   0  0  0  0  0  2  0  0  0  0  0  0
  161.1660  203.5340  150.5350 C   0  0  1  0  0  0  0  0  0  0  0  0
  162.1700  204.5100  150.3360 O   0  0  0  0  0  0  0  0  0  0  0  0
  160.8830  204.9900  150.6620 C   0  0  2  0  0  0  0  0  0  0  0  0
  160.0640  200.5100  147.3950 C   0  0  0  0  0  2  0  0  0  0  0  0
  160.5120  200.5960  148.7290 O   0  0  0  0  0  0  0  0  0  0  0  0
  160.2270  201.8060  146.5750 C   0  0  1  0  0  3  0  0  0  0  0  0
  160.8770  202.8310  149.2880 N   0  0  0  0  0  0  0  0  0  0  0  0
  161.4550  202.5950  146.9170 C   0  0  0  0  0  3  0  0  0  0  0  0
  160.2270  201.4880  145.1580 N   0  0  0  0  0  1  0  0  0  0  0  0
  159.9210  201.7260  149.3120 C   0  0  0  0  0  2  0  0  0  0  0  0
  161.7070  203.0810  148.1400 C   0  0  0  0  0  3  0  0  0  0  0  0
  161.4660  202.7530  151.6640 O   0  0  0  0  0  0  0  0  0  0  0  0
  162.8600  202.7240  151.7600 C   0  0  0  0  0  1  0  0  0  0  0  0
  160.1840  205.5620  149.5840 O   0  0  0  0  0  0  0  0  0  0  0  0
  161.1220  206.2400  148.7910 C   0  0  0  0  0  2  0  0  0  0  0  0
  161.5350  206.5960  146.3940 C   0  0  0  0  0  2  0  0  0  0  0  0
  160.7050  206.1950  147.3560 C   0  0  0  0  0  3  0  0  0  0  0  0
  160.2460  213.7120  146.4980 C   0  0  0  0  0  2  0  0  0  0  0  0
  161.1190  213.3190  145.4090 N   0  0  0  0  0  2  0  0  0  0  0  0
  160.2830  213.1830  144.2280 C   0  0  0  0  0  2  0  0  0  0  0  0
  160.7670  214.1320  143.1480 C   0  0  0  0  0  2  0  0  0  0  0  0
  160.5370  213.5350  141.7710 C   0  0  1  0  0  3  0  0  0  0  0  0
  159.0540  213.5620  139.7790 C   0  0  1  0  0  0  0  0  0  0  0  0
  159.2320  214.0600  141.1960 C   0  0  1  0  0  3  0  0  0  0  0  0
  158.2800  212.9130  140.9320 C   0  0  2  0  0  3  0  0  0  0  0  0
  157.3960  213.4070  138.0420 C   0  0  0  0  0  2  0  0  0  0  0  0
  157.4590  212.0610  138.7440 C   0  0  0  0  0  2  0  0  0  0  0  0
  158.0630  214.3850  138.9840 C   0  0  0  0  0  2  0  0  0  0  0  0
  158.6430  212.1110  139.6980 C   0  0  1  0  0  3  0  0  0  0  0  0
  161.6360  213.8990  140.8920 N   0  0  0  0  0  2  0  0  0  0  0  0
  162.6890  213.0170  141.1660 N   0  0  0  0  0  2  0  0  0  0  0  0
  162.7650  212.0830  140.0490 C   0  0  2  0  0  3  0  0  0  0  0  0
  163.8240  212.4850  139.0200 C   0  0  1  0  0  3  0  0  0  0  0  0
  162.3620  212.7820  138.7680 C   0  0  0  0  0  2  0  0  0  0  0  0
  164.5150  213.7160  139.3830 N   0  0  0  0  0  1  0  0  0  0  0  0
  2 12  1  0  0  0  0
  3 13  2  0  0  0  0
  3  7  1  0  0  0  0
  4 37  1  6  0  0  0
  4  6  1  0  0  0  0
  4 14  1  0  0  0  0
  5  9  1  0  0  0  0
  6  3  1  0  0  0  0
  7  8  1  0  0  0  0
  8 10  1  0  0  0  0
  8  9  2  0  0  0  0
  9 12  1  0  0  0  0
 10  2  2  0  0  0  0
 11 16  1  0  0  0  0
 11 10  1  0  0  0  0
 12  1  1  1  0  0  0
 13 11  1  0  0  0  0
 14  7  1  0  0  0  0
 15 13  1  0  0  0  0
 16 17  2  0  0  0  0
 17 18  1  0  0  0  0
 19 18  1  0  0  0  0
 20 22  1  0  0  0  0
 20 31  1  1  0  0  0
 21 20  1  0  0  0  0
 21 22  1  0  0  0  0
 22 19  1  1  0  0  0
 23 24  1  0  0  0  0
 24 29  1  0  0  0  0
 25 28  1  6  0  0  0
 25 27  1  0  0  0  0
 25 23  1  0  0  0  0
 26 29  1  0  0  0  0
 26 20  1  0  0  0  0
 27 30  2  0  0  0  0
 30 26  1  0  0  0  0
 31 32  1  0  0  0  0
 33 22  1  0  0  0  0
 34 33  1  0  0  0  0
 35 36  2  0  0  0  0
 36 34  1  0  0  0  0
 38 37  1  0  0  0  0
 39 38  1  0  0  0  0
 40 39  1  0  0  0  0
 41 40  1  1  0  0  0
 42 47  1  6  0  0  0
 42 44  1  0  0  0  0
 42 43  1  0  0  0  0
 43 41  1  1  0  0  0
 44 43  1  0  0  0  0
 45 46  1  0  0  0  0
 45 47  1  0  0  0  0
 46 48  1  0  0  0  0
 48 42  1  0  0  0  0
 48 44  1  0  0  0  0
 49 50  1  0  0  0  0
 49 41  1  0  0  0  0
 51 50  1  0  0  0  0
 52 54  1  0  0  0  0
 52 51  1  0  0  0  0
 53 52  1  0  0  0  0
 53 51  1  0  0  0  0
M  END
>  <MODEL>
4

>  <REMARK>
 VINA RESULT:      -4.0      3.937      8.713
  Name = 
  18 active torsions:
  status: ('A' for Active; 'I' for Inactive)
    1  A    between atoms: C_3  and  N_17
    2  A    between atoms: C_3  and  O_33
    3  A    between atoms: C_5  and  O_36
    4  A    between atoms: C_5  and  C_47
    5  A    between atoms: C_7  and  C_46
    6  A    between atoms: C_7  and  C_48
    7  A    between atoms: C_9  and  C_48
    8  A    between atoms: C_10  and  N_32
    9  A    between atoms: C_12  and  C_22
   10  A    between atoms: C_12  and  N_26
   11  A    between atoms: C_15  and  N_40
   12  A    between atoms: C_16  and  C_25
   13  A    between atoms: C_16  and  C_44
   14  A    between atoms: N_26  and  C_46
   15  A    between atoms: N_32  and  N_38
   16  A    between atoms: O_36  and  C_45
   17  A    between atoms: N_38  and  C_48
   18  A    between atoms: C_44  and  C_45
                            x       y       z     vdW  Elec       q    Type
                         _______ _______ _______ _____ _____    ______ ____

>  <TORSDO>
F 18

$$$$
