=
 OpenBabel11042421593D

 46 53  0  0  1  0  0  0  0  0999 V2000
  161.2780  207.7720  153.4940 C   0  0  0  0  0  3  0  0  0  0  0  0
  160.1270  211.5300  151.6240 C   0  0  0  0  0  3  0  0  0  0  0  0
  161.5080  209.4350  150.1430 O   0  0  0  0  0  1  0  0  0  0  0  0
  161.1980  209.2680  151.4910 C   0  0  0  0  0  0  0  0  0  0  0  0
  158.9090  211.9690  155.0770 C   0  0  0  0  0  0  0  0  0  0  0  0
  159.5260  212.2270  152.6720 C   0  0  0  0  0  0  0  0  0  0  0  0
  158.8420  213.5610  152.5810 C   0  0  1  0  0  3  0  0  0  0  0  0
  158.9640  211.3000  156.1970 C   0  0  0  0  0  0  0  0  0  0  0  0
  160.5360  210.3160  152.1540 C   0  0  0  0  0  0  0  0  0  0  0  0
  159.0150  210.6660  157.2600 O   0  0  0  0  0  0  0  0  0  0  0  0
  158.7630  214.2150  153.9740 C   0  0  0  0  0  2  0  0  0  0  0  0
  160.1480  210.2860  153.5420 C   0  0  0  0  0  0  0  0  0  0  0  0
  161.5610  208.0540  152.1380 C   0  0  0  0  0  0  0  0  0  0  0  0
  158.1490  213.2650  155.0150 C   0  0  0  0  0  2  0  0  0  0  0  0
  160.4740  208.9180  154.4580 S   0  0  0  0  0  0  0  0  0  0  0  0
  159.5160  211.4710  153.8300 C   0  0  0  0  0  0  0  0  0  0  0  0
  162.5560  206.9970  149.0730 C   0  0  0  0  0  0  0  0  0  0  0  0
  161.5300  206.0180  149.3810 C   0  0  0  0  0  0  0  0  0  0  0  0
  162.2940  207.0200  151.3330 C   0  0  1  0  0  3  0  0  0  0  0  0
  161.3520  206.0250  150.6970 C   0  0  0  0  0  3  0  0  0  0  0  0
  162.9800  207.6090  150.2340 O   0  0  0  0  0  0  0  0  0  0  0  0
  162.9940  207.2880  147.9240 O   0  0  0  0  0  0  0  0  0  0  0  0
  160.1720  203.4230  150.2070 C   0  0  0  0  0  3  0  0  0  0  0  0
  161.9750  201.7450  148.8330 C   0  0  0  0  0  2  0  0  0  0  0  0
  161.5860  204.8660  147.2170 N   0  0  0  0  0  0  0  0  0  0  0  0
  160.6240  203.7670  148.9970 C   0  0  0  0  0  0  0  0  0  0  0  0
  162.0120  203.5520  147.1830 O   0  0  0  0  0  0  0  0  0  0  0  0
  161.1610  201.2400  149.9530 N   0  0  0  0  0  0  0  0  0  0  0  0
  160.7960  205.1020  148.4330 C   0  0  1  0  0  3  0  0  0  0  0  0
  160.3530  202.0160  150.6210 C   0  0  0  0  0  3  0  0  0  0  0  0
  161.1900  202.8070  148.0550 C   0  0  1  0  0  3  0  0  0  0  0  0
  161.5540  205.1720  144.8050 C   0  0  0  0  0  1  0  0  0  0  0  0
  160.7180  205.0920  146.0660 C   0  0  0  0  0  2  0  0  0  0  0  0
  159.5420  214.4140  151.6790 O   0  0  0  0  0  0  0  0  0  0  0  0
  158.4500  213.8600  149.6050 C   0  0  0  0  0  3  0  0  0  0  0  0
  159.6200  214.1690  150.3040 C   0  0  0  0  0  0  0  0  0  0  0  0
  160.8820  214.0000  148.2360 C   0  0  0  0  0  3  0  0  0  0  0  0
  159.7100  213.6960  147.5290 C   0  0  0  0  0  0  0  0  0  0  0  0
  158.4930  213.6250  148.2270 C   0  0  0  0  0  3  0  0  0  0  0  0
  160.8390  214.2370  149.6130 C   0  0  0  0  0  3  0  0  0  0  0  0
  161.6010  212.6280  143.4690 C   0  0  0  0  0  1  0  0  0  0  0  0
  159.1630  212.7220  143.9410 C   0  0  0  0  0  2  0  0  0  0  0  0
  160.4440  213.5420  143.8430 C   0  0  1  0  0  3  0  0  0  0  0  0
  160.6870  214.1280  145.2220 C   0  0  0  0  0  2  0  0  0  0  0  0
  159.7540  213.4620  146.1120 N   0  0  0  0  0  0  0  0  0  0  0  0
  158.8600  212.5550  145.4200 C   0  0  0  0  0  2  0  0  0  0  0  0
  1 15  1  0  0  0  0
  2  9  1  0  0  0  0
  2  6  2  0  0  0  0
  3  4  1  0  0  0  0
  4 13  1  0  0  0  0
  4  9  2  0  0  0  0
  5  8  2  0  0  0  0
  6 16  1  0  0  0  0
  7 34  1  6  0  0  0
  7  6  1  0  0  0  0
  7 11  1  0  0  0  0
  8 10  2  0  0  0  0
  9 12  1  0  0  0  0
 11 14  1  0  0  0  0
 12 16  2  0  0  0  0
 12 15  1  0  0  0  0
 13  1  2  0  0  0  0
 14  5  1  0  0  0  0
 16  5  1  0  0  0  0
 17 18  1  0  0  0  0
 17 21  1  0  0  0  0
 18 20  2  0  0  0  0
 19 13  1  6  0  0  0
 20 19  1  0  0  0  0
 21 19  1  0  0  0  0
 22 17  2  0  0  0  0
 23 30  1  0  0  0  0
 24 28  1  0  0  0  0
 25 29  1  0  0  0  0
 26 23  2  0  0  0  0
 27 25  1  0  0  0  0
 27 31  1  0  0  0  0
 28 30  2  0  0  0  0
 29 26  1  0  0  0  0
 29 18  1  1  0  0  0
 31 24  1  1  0  0  0
 31 26  1  0  0  0  0
 32 33  1  0  0  0  0
 33 25  1  0  0  0  0
 35 36  1  0  0  0  0
 36 34  1  0  0  0  0
 37 40  1  0  0  0  0
 38 39  1  0  0  0  0
 38 37  2  0  0  0  0
 39 35  2  0  0  0  0
 40 36  2  0  0  0  0
 42 46  1  0  0  0  0
 43 41  1  1  0  0  0
 43 42  1  0  0  0  0
 43 44  1  0  0  0  0
 44 45  1  0  0  0  0
 45 38  1  0  0  0  0
 46 45  1  0  0  0  0
M  END
>  <MODEL>
1

>  <REMARK>
 VINA RESULT:      -8.2      0.000      0.000
  Name = 
  6 active torsions:
  status: ('A' for Active; 'I' for Inactive)
    1  A    between atoms: C_14  and  O_18
    2  A    between atoms: C_16  and  N_27
    3  A    between atoms: C_17  and  O_18
    4  A    between atoms: C_24  and  N_37
    5  A    between atoms: C_26  and  C_38
    6  A    between atoms: C_30  and  C_39
                            x       y       z     vdW  Elec       q    Type
                         _______ _______ _______ _____ _____    ______ ____

>  <TORSDO>
F 6

$$$$
=
 OpenBabel11042421593D

 46 53  0  0  1  0  0  0  0  0999 V2000
  161.3670  211.6150  150.6860 C   0  0  0  0  0  3  0  0  0  0  0  0
  161.7720  207.4830  151.9940 C   0  0  0  0  0  3  0  0  0  0  0  0
  162.6270  208.3490  149.3460 O   0  0  0  0  0  1  0  0  0  0  0  0
  162.0610  209.2530  150.2430 C   0  0  0  0  0  0  0  0  0  0  0  0
  160.2520  209.0920  154.9430 C   0  0  0  0  0  0  0  0  0  0  0  0
  161.2360  207.5110  153.2810 C   0  0  0  0  0  0  0  0  0  0  0  0
  161.2060  206.3730  154.2610 C   0  0  1  0  0  3  0  0  0  0  0  0
  159.7900  210.2740  155.2500 C   0  0  0  0  0  0  0  0  0  0  0  0
  161.6630  208.7760  151.5030 C   0  0  0  0  0  0  0  0  0  0  0  0
  159.3500  211.3960  155.5410 O   0  0  0  0  0  0  0  0  0  0  0  0
  160.1240  206.6190  155.3290 C   0  0  0  0  0  2  0  0  0  0  0  0
  161.0680  209.5900  152.5340 C   0  0  0  0  0  0  0  0  0  0  0  0
  161.9090  210.6120  149.8510 C   0  0  0  0  0  0  0  0  0  0  0  0
  160.2710  208.0040  155.9810 C   0  0  0  0  0  2  0  0  0  0  0  0
  160.8360  211.2290  152.2540 S   0  0  0  0  0  0  0  0  0  0  0  0
  160.8280  208.7870  153.6220 C   0  0  0  0  0  0  0  0  0  0  0  0
  162.6650  213.1100  147.6830 C   0  0  0  0  0  0  0  0  0  0  0  0
  161.3920  212.6610  147.1520 C   0  0  0  0  0  0  0  0  0  0  0  0
  162.3430  210.9970  148.4650 C   0  0  1  0  0  3  0  0  0  0  0  0
  161.1770  211.4320  147.6090 C   0  0  0  0  0  3  0  0  0  0  0  0
  163.2070  212.1290  148.4870 O   0  0  0  0  0  0  0  0  0  0  0  0
  163.2070  214.2330  147.4830 O   0  0  0  0  0  0  0  0  0  0  0  0
  159.0530  214.3850  148.0580 C   0  0  0  0  0  3  0  0  0  0  0  0
  157.0610  212.6490  147.0700 C   0  0  0  0  0  2  0  0  0  0  0  0
  160.0140  212.5080  145.1300 N   0  0  0  0  0  0  0  0  0  0  0  0
  159.2170  213.7710  146.8820 C   0  0  0  0  0  0  0  0  0  0  0  0
  158.6670  212.2330  145.2710 O   0  0  0  0  0  0  0  0  0  0  0  0
  156.7660  213.6290  148.1310 N   0  0  0  0  0  0  0  0  0  0  0  0
  160.4590  213.3900  146.2170 C   0  0  1  0  0  3  0  0  0  0  0  0
  157.6880  214.4100  148.6230 C   0  0  0  0  0  3  0  0  0  0  0  0
  158.1080  213.2220  146.1080 C   0  0  1  0  0  3  0  0  0  0  0  0
  161.6280  213.0390  143.3890 C   0  0  0  0  0  1  0  0  0  0  0  0
  160.2020  213.2180  143.8690 C   0  0  0  0  0  2  0  0  0  0  0  0
  160.9540  205.1440  153.5830 O   0  0  0  0  0  0  0  0  0  0  0  0
  161.8410  204.0250  151.6440 C   0  0  0  0  0  3  0  0  0  0  0  0
  161.0210  205.0150  152.1920 C   0  0  0  0  0  0  0  0  0  0  0  0
  160.3560  205.6820  149.9530 C   0  0  0  0  0  3  0  0  0  0  0  0
  161.1730  204.6860  149.3990 C   0  0  0  0  0  0  0  0  0  0  0  0
  161.9170  203.8600  150.2560 C   0  0  0  0  0  3  0  0  0  0  0  0
  160.2780  205.8450  151.3390 C   0  0  0  0  0  3  0  0  0  0  0  0
  162.6000  205.5050  145.0980 C   0  0  0  0  0  1  0  0  0  0  0  0
  161.3560  203.4870  145.8420 C   0  0  0  0  0  2  0  0  0  0  0  0
  161.2780  204.9970  145.6510 C   0  0  1  0  0  3  0  0  0  0  0  0
  161.0410  205.5930  147.0270 C   0  0  0  0  0  2  0  0  0  0  0  0
  161.2440  204.5120  147.9740 N   0  0  0  0  0  0  0  0  0  0  0  0
  161.5060  203.2390  147.3330 C   0  0  0  0  0  2  0  0  0  0  0  0
  1 15  1  0  0  0  0
  2  6  2  0  0  0  0
  3  4  1  0  0  0  0
  4  9  2  0  0  0  0
  5  8  2  0  0  0  0
  5 14  1  0  0  0  0
  6 16  1  0  0  0  0
  6  7  1  0  0  0  0
  7 34  1  6  0  0  0
  7 11  1  0  0  0  0
  8 10  2  0  0  0  0
  9  2  1  0  0  0  0
  9 12  1  0  0  0  0
 11 14  1  0  0  0  0
 12 16  2  0  0  0  0
 13  4  1  0  0  0  0
 13  1  2  0  0  0  0
 15 12  1  0  0  0  0
 16  5  1  0  0  0  0
 17 21  1  0  0  0  0
 18 20  2  0  0  0  0
 18 17  1  0  0  0  0
 19 21  1  0  0  0  0
 19 13  1  1  0  0  0
 20 19  1  0  0  0  0
 22 17  2  0  0  0  0
 23 30  1  0  0  0  0
 24 28  1  0  0  0  0
 25 27  1  0  0  0  0
 25 29  1  0  0  0  0
 26 23  2  0  0  0  0
 27 31  1  0  0  0  0
 28 30  2  0  0  0  0
 29 26  1  0  0  0  0
 29 18  1  1  0  0  0
 31 26  1  0  0  0  0
 31 24  1  1  0  0  0
 32 33  1  0  0  0  0
 33 25  1  0  0  0  0
 35 36  1  0  0  0  0
 36 34  1  0  0  0  0
 37 40  1  0  0  0  0
 38 37  2  0  0  0  0
 38 39  1  0  0  0  0
 39 35  2  0  0  0  0
 40 36  2  0  0  0  0
 42 46  1  0  0  0  0
 43 41  1  1  0  0  0
 43 42  1  0  0  0  0
 43 44  1  0  0  0  0
 44 45  1  0  0  0  0
 45 38  1  0  0  0  0
 46 45  1  0  0  0  0
M  END
>  <MODEL>
2

>  <REMARK>
 VINA RESULT:      -8.1      2.239      7.846
  Name = 
  6 active torsions:
  status: ('A' for Active; 'I' for Inactive)
    1  A    between atoms: C_14  and  O_18
    2  A    between atoms: C_16  and  N_27
    3  A    between atoms: C_17  and  O_18
    4  A    between atoms: C_24  and  N_37
    5  A    between atoms: C_26  and  C_38
    6  A    between atoms: C_30  and  C_39
                            x       y       z     vdW  Elec       q    Type
                         _______ _______ _______ _____ _____    ______ ____

>  <TORSDO>
F 6

$$$$
=
 OpenBabel11042421593D

 46 53  0  0  1  0  0  0  0  0999 V2000
  162.0500  206.2580  152.5110 C   0  0  0  0  0  3  0  0  0  0  0  0
  160.4010  210.2540  152.0040 C   0  0  0  0  0  3  0  0  0  0  0  0
  161.5870  208.7870  149.7840 O   0  0  0  0  0  1  0  0  0  0  0  0
  161.5360  208.2290  151.0590 C   0  0  0  0  0  0  0  0  0  0  0  0
  159.8130  209.6130  155.5870 C   0  0  0  0  0  0  0  0  0  0  0  0
  159.9680  210.5770  153.2900 C   0  0  0  0  0  0  0  0  0  0  0  0
  159.2160  211.8120  153.6960 C   0  0  1  0  0  3  0  0  0  0  0  0
  160.1020  208.6720  156.4460 C   0  0  0  0  0  0  0  0  0  0  0  0
  160.9570  208.9860  152.0920 C   0  0  0  0  0  0  0  0  0  0  0  0
  160.3760  207.7800  157.2610 O   0  0  0  0  0  0  0  0  0  0  0  0
  159.3610  212.0500  155.2110 C   0  0  0  0  0  2  0  0  0  0  0  0
  160.8290  208.5420  153.4570 C   0  0  0  0  0  0  0  0  0  0  0  0
  162.0680  206.9250  151.2650 C   0  0  0  0  0  0  0  0  0  0  0  0
  158.9930  210.7970  156.0220 C   0  0  0  0  0  2  0  0  0  0  0  0
  161.3820  207.0140  153.8790 S   0  0  0  0  0  0  0  0  0  0  0  0
  160.2050  209.5360  154.1690 C   0  0  0  0  0  0  0  0  0  0  0  0
  162.1350  206.4980  147.9010 C   0  0  0  0  0  0  0  0  0  0  0  0
  161.5450  205.2420  148.3250 C   0  0  0  0  0  0  0  0  0  0  0  0
  162.6910  206.2260  150.0910 C   0  0  1  0  0  3  0  0  0  0  0  0
  161.8460  205.0710  149.6080 C   0  0  0  0  0  3  0  0  0  0  0  0
  162.7850  207.0900  148.9630 O   0  0  0  0  0  0  0  0  0  0  0  0
  162.0570  207.0110  146.7490 O   0  0  0  0  0  0  0  0  0  0  0  0
  160.1690  202.7760  149.4580 C   0  0  0  0  0  3  0  0  0  0  0  0
  161.8900  200.9260  148.2040 C   0  0  0  0  0  2  0  0  0  0  0  0
  161.5020  203.8750  146.2910 N   0  0  0  0  0  0  0  0  0  0  0  0
  160.5840  202.9850  148.2050 C   0  0  0  0  0  0  0  0  0  0  0  0
  161.9020  202.5550  146.3770 O   0  0  0  0  0  0  0  0  0  0  0  0
  161.1070  200.5560  149.3960 N   0  0  0  0  0  0  0  0  0  0  0  0
  160.7610  204.2510  147.5020 C   0  0  1  0  0  3  0  0  0  0  0  0
  160.3370  201.4140  150.0080 C   0  0  0  0  0  3  0  0  0  0  0  0
  161.0970  201.9210  147.3470 C   0  0  1  0  0  3  0  0  0  0  0  0
  161.1330  205.0410  144.1890 C   0  0  0  0  0  1  0  0  0  0  0  0
  160.5980  204.0010  145.1520 C   0  0  0  0  0  2  0  0  0  0  0  0
  159.6990  212.9430  152.9740 O   0  0  0  0  0  0  0  0  0  0  0  0
  160.3490  213.4470  150.7110 C   0  0  0  0  0  3  0  0  0  0  0  0
  159.3410  213.2100  151.6490 C   0  0  0  0  0  0  0  0  0  0  0  0
  157.6730  213.4920  149.9060 C   0  0  0  0  0  3  0  0  0  0  0  0
  158.6820  213.7240  148.9590 C   0  0  0  0  0  0  0  0  0  0  0  0
  160.0230  213.7020  149.3740 C   0  0  0  0  0  3  0  0  0  0  0  0
  157.9990  213.2350  151.2400 C   0  0  0  0  0  3  0  0  0  0  0  0
  158.8510  213.1850  144.3900 C   0  0  0  0  0  1  0  0  0  0  0  0
  157.0900  214.4260  145.6290 C   0  0  0  0  0  2  0  0  0  0  0  0
  158.5690  214.3990  145.2600 C   0  0  1  0  0  3  0  0  0  0  0  0
  159.3350  214.2770  146.5650 C   0  0  0  0  0  2  0  0  0  0  0  0
  158.3470  213.9780  147.5850 N   0  0  0  0  0  0  0  0  0  0  0  0
  156.9900  213.9820  147.0770 C   0  0  0  0  0  2  0  0  0  0  0  0
  1 15  1  0  0  0  0
  2  9  1  0  0  0  0
  2  6  2  0  0  0  0
  3  4  1  0  0  0  0
  4 13  1  0  0  0  0
  4  9  2  0  0  0  0
  5 14  1  0  0  0  0
  5  8  2  0  0  0  0
  6  7  1  0  0  0  0
  6 16  1  0  0  0  0
  7 34  1  6  0  0  0
  7 11  1  0  0  0  0
  8 10  2  0  0  0  0
  9 12  1  0  0  0  0
 11 14  1  0  0  0  0
 12 15  1  0  0  0  0
 12 16  2  0  0  0  0
 13  1  2  0  0  0  0
 16  5  1  0  0  0  0
 17 18  1  0  0  0  0
 17 21  1  0  0  0  0
 18 20  2  0  0  0  0
 19 13  1  1  0  0  0
 20 19  1  0  0  0  0
 21 19  1  0  0  0  0
 22 17  2  0  0  0  0
 23 30  1  0  0  0  0
 24 28  1  0  0  0  0
 25 27  1  0  0  0  0
 25 29  1  0  0  0  0
 26 23  2  0  0  0  0
 27 31  1  0  0  0  0
 28 30  2  0  0  0  0
 29 26  1  0  0  0  0
 29 18  1  1  0  0  0
 31 24  1  1  0  0  0
 31 26  1  0  0  0  0
 32 33  1  0  0  0  0
 33 25  1  0  0  0  0
 35 36  1  0  0  0  0
 36 34  1  0  0  0  0
 37 40  1  0  0  0  0
 38 39  1  0  0  0  0
 38 37  2  0  0  0  0
 39 35  2  0  0  0  0
 40 36  2  0  0  0  0
 42 46  1  0  0  0  0
 43 41  1  6  0  0  0
 43 42  1  0  0  0  0
 43 44  1  0  0  0  0
 44 45  1  0  0  0  0
 45 38  1  0  0  0  0
 46 45  1  0  0  0  0
M  END
>  <MODEL>
3

>  <REMARK>
 VINA RESULT:      -8.0      1.378      1.994
  Name = 
  6 active torsions:
  status: ('A' for Active; 'I' for Inactive)
    1  A    between atoms: C_14  and  O_18
    2  A    between atoms: C_16  and  N_27
    3  A    between atoms: C_17  and  O_18
    4  A    between atoms: C_24  and  N_37
    5  A    between atoms: C_26  and  C_38
    6  A    between atoms: C_30  and  C_39
                            x       y       z     vdW  Elec       q    Type
                         _______ _______ _______ _____ _____    ______ ____

>  <TORSDO>
F 6

$$$$
=
 OpenBabel11042421593D

 46 53  0  0  1  0  0  0  0  0999 V2000
  161.9570  208.5450  147.5990 C   0  0  0  0  0  3  0  0  0  0  0  0
  161.3100  208.4330  151.9020 C   0  0  0  0  0  3  0  0  0  0  0  0
  161.7730  210.9340  150.4810 O   0  0  0  0  0  1  0  0  0  0  0  0
  161.7600  209.7200  149.7990 C   0  0  0  0  0  0  0  0  0  0  0  0
  161.0790  204.8700  150.9830 C   0  0  0  0  0  0  0  0  0  0  0  0
  161.1530  207.0710  152.1570 C   0  0  0  0  0  0  0  0  0  0  0  0
  160.7990  206.4440  153.4750 C   0  0  1  0  0  3  0  0  0  0  0  0
  161.2370  204.1530  149.9020 C   0  0  0  0  0  0  0  0  0  0  0  0
  161.5370  208.5460  150.5380 C   0  0  0  0  0  0  0  0  0  0  0  0
  161.3880  203.4730  148.8770 O   0  0  0  0  0  0  0  0  0  0  0  0
  161.2060  204.9580  153.4840 C   0  0  0  0  0  2  0  0  0  0  0  0
  161.4910  207.2210  149.9720 C   0  0  0  0  0  0  0  0  0  0  0  0
  161.9700  209.7150  148.3910 C   0  0  0  0  0  0  0  0  0  0  0  0
  160.6500  204.2070  152.2630 C   0  0  0  0  0  2  0  0  0  0  0  0
  161.6950  207.0270  148.3170 S   0  0  0  0  0  0  0  0  0  0  0  0
  161.2410  206.3340  150.9900 C   0  0  0  0  0  0  0  0  0  0  0  0
  161.8280  213.0990  148.5740 C   0  0  0  0  0  0  0  0  0  0  0  0
  160.7640  212.8300  147.6250 C   0  0  0  0  0  0  0  0  0  0  0  0
  162.2300  211.0310  147.7150 C   0  0  1  0  0  3  0  0  0  0  0  0
  160.9720  211.6190  147.1210 C   0  0  0  0  0  3  0  0  0  0  0  0
  162.6750  212.0130  148.6450 O   0  0  0  0  0  0  0  0  0  0  0  0
  161.9670  214.1460  149.2670 O   0  0  0  0  0  0  0  0  0  0  0  0
  159.0530  214.4340  149.5640 C   0  0  0  0  0  3  0  0  0  0  0  0
  156.6990  212.9470  149.1150 C   0  0  0  0  0  2  0  0  0  0  0  0
  158.7540  213.0630  146.2400 N   0  0  0  0  0  0  0  0  0  0  0  0
  158.7380  214.0270  148.3300 C   0  0  0  0  0  0  0  0  0  0  0  0
  157.5250  212.8030  146.8160 O   0  0  0  0  0  0  0  0  0  0  0  0
  156.8820  213.7370  150.3450 N   0  0  0  0  0  0  0  0  0  0  0  0
  159.6280  213.7330  147.2120 C   0  0  1  0  0  3  0  0  0  0  0  0
  157.9820  214.3980  150.5820 C   0  0  0  0  0  3  0  0  0  0  0  0
  157.3840  213.6490  147.9370 C   0  0  1  0  0  3  0  0  0  0  0  0
  159.4770  213.6050  143.9820 C   0  0  0  0  0  1  0  0  0  0  0  0
  158.5450  213.9740  145.1190 C   0  0  0  0  0  2  0  0  0  0  0  0
  161.4470  207.1360  154.5400 O   0  0  0  0  0  0  0  0  0  0  0  0
  161.8060  209.5170  154.5100 C   0  0  0  0  0  3  0  0  0  0  0  0
  161.0700  208.4160  154.9570 C   0  0  0  0  0  0  0  0  0  0  0  0
  159.6080  209.9130  156.1900 C   0  0  0  0  0  3  0  0  0  0  0  0
  160.3390  211.0210  155.7390 C   0  0  0  0  0  0  0  0  0  0  0  0
  161.4430  210.8120  154.8970 C   0  0  0  0  0  3  0  0  0  0  0  0
  159.9680  208.6200  155.8020 C   0  0  0  0  0  3  0  0  0  0  0  0
  157.4930  214.4390  156.9310 C   0  0  0  0  0  1  0  0  0  0  0  0
  159.9610  214.4530  157.2220 C   0  0  0  0  0  2  0  0  0  0  0  0
  158.8270  214.4350  156.2030 C   0  0  1  0  0  3  0  0  0  0  0  0
  158.9740  213.1430  155.4200 C   0  0  0  0  0  2  0  0  0  0  0  0
  159.9620  212.3520  156.1300 N   0  0  0  0  0  0  0  0  0  0  0  0
  160.5400  213.0500  157.2610 C   0  0  0  0  0  2  0  0  0  0  0  0
  1 15  1  0  0  0  0
  1 13  2  0  0  0  0
  2  6  2  0  0  0  0
  4  3  1  0  0  0  0
  4  9  2  0  0  0  0
  5 16  1  0  0  0  0
  5 14  1  0  0  0  0
  6  7  1  0  0  0  0
  7 11  1  0  0  0  0
  7 34  1  1  0  0  0
  8  5  2  0  0  0  0
  9  2  1  0  0  0  0
 10  8  2  0  0  0  0
 12  9  1  0  0  0  0
 12 16  2  0  0  0  0
 13  4  1  0  0  0  0
 14 11  1  0  0  0  0
 15 12  1  0  0  0  0
 16  6  1  0  0  0  0
 17 21  1  0  0  0  0
 17 22  2  0  0  0  0
 18 17  1  0  0  0  0
 19 13  1  1  0  0  0
 19 21  1  0  0  0  0
 20 18  2  0  0  0  0
 20 19  1  0  0  0  0
 23 30  1  0  0  0  0
 24 28  1  0  0  0  0
 25 27  1  0  0  0  0
 25 29  1  0  0  0  0
 26 23  2  0  0  0  0
 27 31  1  0  0  0  0
 28 30  2  0  0  0  0
 29 18  1  1  0  0  0
 29 26  1  0  0  0  0
 31 26  1  0  0  0  0
 31 24  1  1  0  0  0
 32 33  1  0  0  0  0
 33 25  1  0  0  0  0
 34 36  1  0  0  0  0
 35 39  2  0  0  0  0
 35 36  1  0  0  0  0
 36 40  2  0  0  0  0
 38 45  1  0  0  0  0
 38 37  2  0  0  0  0
 39 38  1  0  0  0  0
 40 37  1  0  0  0  0
 42 46  1  0  0  0  0
 43 41  1  1  0  0  0
 43 42  1  0  0  0  0
 44 45  1  0  0  0  0
 44 43  1  0  0  0  0
 45 46  1  0  0  0  0
M  END
>  <MODEL>
4

>  <REMARK>
 VINA RESULT:      -7.2      3.251      8.856
  Name = 
  6 active torsions:
  status: ('A' for Active; 'I' for Inactive)
    1  A    between atoms: C_14  and  O_18
    2  A    between atoms: C_16  and  N_27
    3  A    between atoms: C_17  and  O_18
    4  A    between atoms: C_24  and  N_37
    5  A    between atoms: C_26  and  C_38
    6  A    between atoms: C_30  and  C_39
                            x       y       z     vdW  Elec       q    Type
                         _______ _______ _______ _____ _____    ______ ____

>  <TORSDO>
F 6

$$$$
=
 OpenBabel11042421593D

 46 53  0  0  1  0  0  0  0  0999 V2000
  162.4150  208.9140  147.6980 C   0  0  0  0  0  3  0  0  0  0  0  0
  161.2410  207.6600  151.6970 C   0  0  0  0  0  3  0  0  0  0  0  0
  161.7880  210.4500  151.0590 O   0  0  0  0  0  1  0  0  0  0  0  0
  161.9030  209.4610  150.0850 C   0  0  0  0  0  0  0  0  0  0  0  0
  161.2550  204.4690  149.8490 C   0  0  0  0  0  0  0  0  0  0  0  0
  161.1030  206.2790  151.5620 C   0  0  0  0  0  0  0  0  0  0  0  0
  160.6100  205.3230  152.6110 C   0  0  1  0  0  3  0  0  0  0  0  0
  161.5720  204.0670  148.6480 C   0  0  0  0  0  0  0  0  0  0  0  0
  161.6320  208.1320  150.4540 C   0  0  0  0  0  0  0  0  0  0  0  0
  161.8740  203.6840  147.5090 O   0  0  0  0  0  0  0  0  0  0  0  0
  161.0650  203.8890  152.2800 C   0  0  0  0  0  2  0  0  0  0  0  0
  161.7050  207.0060  149.5570 C   0  0  0  0  0  0  0  0  0  0  0  0
  162.2870  209.8310  148.7660 C   0  0  0  0  0  0  0  0  0  0  0  0
  160.6930  203.4890  150.8430 C   0  0  0  0  0  2  0  0  0  0  0  0
  162.1200  207.2590  147.9500 S   0  0  0  0  0  0  0  0  0  0  0  0
  161.3610  205.8790  150.2640 C   0  0  0  0  0  0  0  0  0  0  0  0
  161.1430  213.0250  148.7530 C   0  0  0  0  0  0  0  0  0  0  0  0
  161.2220  212.7550  147.3300 C   0  0  0  0  0  0  0  0  0  0  0  0
  162.5820  211.2800  148.5010 C   0  0  1  0  0  3  0  0  0  0  0  0
  162.0480  211.7290  147.1610 C   0  0  0  0  0  3  0  0  0  0  0  0
  161.9280  212.1240  149.4420 O   0  0  0  0  0  0  0  0  0  0  0  0
  160.4480  213.9200  149.3100 O   0  0  0  0  0  0  0  0  0  0  0  0
  158.6230  214.3130  147.6040 C   0  0  0  0  0  3  0  0  0  0  0  0
  157.1000  212.5490  146.0150 C   0  0  0  0  0  2  0  0  0  0  0  0
  160.4840  212.6570  144.9940 N   0  0  0  0  0  0  0  0  0  0  0  0
  159.1490  213.7780  146.4980 C   0  0  0  0  0  0  0  0  0  0  0  0
  159.1720  212.3120  144.7330 O   0  0  0  0  0  0  0  0  0  0  0  0
  156.4580  213.4500  146.9880 N   0  0  0  0  0  0  0  0  0  0  0  0
  160.5490  213.4940  146.2000 C   0  0  1  0  0  3  0  0  0  0  0  0
  157.1540  214.2430  147.7550 C   0  0  0  0  0  3  0  0  0  0  0  0
  158.3400  213.2250  145.4170 C   0  0  1  0  0  3  0  0  0  0  0  0
  162.3960  213.0330  143.5380 C   0  0  0  0  0  1  0  0  0  0  0  0
  160.9770  213.4480  143.8710 C   0  0  0  0  0  2  0  0  0  0  0  0
  161.0940  205.7070  153.8950 O   0  0  0  0  0  0  0  0  0  0  0  0
  161.4650  208.0680  154.1900 C   0  0  0  0  0  3  0  0  0  0  0  0
  160.7460  206.9140  154.5100 C   0  0  0  0  0  0  0  0  0  0  0  0
  159.3570  208.2160  156.0180 C   0  0  0  0  0  3  0  0  0  0  0  0
  160.0710  209.3780  155.6950 C   0  0  0  0  0  0  0  0  0  0  0  0
  161.1300  209.2930  154.7770 C   0  0  0  0  0  3  0  0  0  0  0  0
  159.6890  206.9920  155.4300 C   0  0  0  0  0  3  0  0  0  0  0  0
  160.1220  213.9450  156.2860 C   0  0  0  0  0  1  0  0  0  0  0  0
  158.4510  212.3850  157.2610 C   0  0  0  0  0  2  0  0  0  0  0  0
  159.9180  212.7960  157.2610 C   0  0  1  0  0  3  0  0  0  0  0  0
  160.7030  211.5850  156.7890 C   0  0  0  0  0  2  0  0  0  0  0  0
  159.7220  210.6380  156.2920 N   0  0  0  0  0  0  0  0  0  0  0  0
  158.3570  211.0860  156.4800 C   0  0  0  0  0  2  0  0  0  0  0  0
  1 15  1  0  0  0  0
  1 13  2  0  0  0  0
  4  9  2  0  0  0  0
  4  3  1  0  0  0  0
  5 16  1  0  0  0  0
  5 14  1  0  0  0  0
  6  2  2  0  0  0  0
  6  7  1  0  0  0  0
  7 34  1  1  0  0  0
  8  5  2  0  0  0  0
  9  2  1  0  0  0  0
 10  8  2  0  0  0  0
 11  7  1  0  0  0  0
 12 16  2  0  0  0  0
 12  9  1  0  0  0  0
 13  4  1  0  0  0  0
 14 11  1  0  0  0  0
 15 12  1  0  0  0  0
 16  6  1  0  0  0  0
 17 22  2  0  0  0  0
 17 21  1  0  0  0  0
 18 17  1  0  0  0  0
 19 13  1  1  0  0  0
 19 21  1  0  0  0  0
 20 18  2  0  0  0  0
 20 19  1  0  0  0  0
 23 30  1  0  0  0  0
 24 28  1  0  0  0  0
 25 29  1  0  0  0  0
 26 23  2  0  0  0  0
 27 25  1  0  0  0  0
 27 31  1  0  0  0  0
 28 30  2  0  0  0  0
 29 26  1  0  0  0  0
 29 18  1  1  0  0  0
 31 24  1  1  0  0  0
 31 26  1  0  0  0  0
 32 33  1  0  0  0  0
 33 25  1  0  0  0  0
 34 36  1  0  0  0  0
 35 36  2  0  0  0  0
 35 39  1  0  0  0  0
 36 40  1  0  0  0  0
 38 37  1  0  0  0  0
 38 45  1  0  0  0  0
 39 38  2  0  0  0  0
 40 37  2  0  0  0  0
 42 43  1  0  0  0  0
 43 41  1  6  0  0  0
 44 43  1  0  0  0  0
 45 46  1  0  0  0  0
 45 44  1  0  0  0  0
 46 42  1  0  0  0  0
M  END
>  <MODEL>
5

>  <REMARK>
 VINA RESULT:      -6.7      3.180      9.124
  Name = 
  6 active torsions:
  status: ('A' for Active; 'I' for Inactive)
    1  A    between atoms: C_14  and  O_18
    2  A    between atoms: C_16  and  N_27
    3  A    between atoms: C_17  and  O_18
    4  A    between atoms: C_24  and  N_37
    5  A    between atoms: C_26  and  C_38
    6  A    between atoms: C_30  and  C_39
                            x       y       z     vdW  Elec       q    Type
                         _______ _______ _______ _____ _____    ______ ____

>  <TORSDO>
F 6

$$$$
=
 OpenBabel11042421593D

 46 53  0  0  1  0  0  0  0  0999 V2000
  160.3870  203.7940  152.2200 C   0  0  0  0  0  3  0  0  0  0  0  0
  161.2760  207.4990  150.1160 C   0  0  0  0  0  3  0  0  0  0  0  0
  160.6200  205.0430  148.6940 O   0  0  0  0  0  1  0  0  0  0  0  0
  160.6680  205.0680  150.0850 C   0  0  0  0  0  0  0  0  0  0  0  0
  161.6080  208.5060  153.6480 C   0  0  0  0  0  0  0  0  0  0  0  0
  161.5450  208.3900  151.1550 C   0  0  0  0  0  0  0  0  0  0  0  0
  161.8170  209.8610  151.0230 C   0  0  1  0  0  3  0  0  0  0  0  0
  161.5590  207.9190  154.8130 C   0  0  0  0  0  0  0  0  0  0  0  0
  160.9960  206.2810  150.7160 C   0  0  0  0  0  0  0  0  0  0  0  0
  161.5140  207.3620  155.9190 O   0  0  0  0  0  0  0  0  0  0  0  0
  162.5460  210.3820  152.2760 C   0  0  0  0  0  2  0  0  0  0  0  0
  161.0800  206.4620  152.1430 C   0  0  0  0  0  0  0  0  0  0  0  0
  160.3860  203.8760  150.8090 C   0  0  0  0  0  0  0  0  0  0  0  0
  161.8070  209.9950  153.5680 C   0  0  0  0  0  2  0  0  0  0  0  0
  160.7540  205.1640  153.1570 S   0  0  0  0  0  0  0  0  0  0  0  0
  161.4070  207.7740  152.3850 C   0  0  0  0  0  0  0  0  0  0  0  0
  161.5920  201.2360  149.0530 C   0  0  0  0  0  0  0  0  0  0  0  0
  161.0270  202.0400  147.9860 C   0  0  0  0  0  0  0  0  0  0  0  0
  160.0800  202.6330  150.0240 C   0  0  1  0  0  3  0  0  0  0  0  0
  160.1500  202.8740  148.5340 C   0  0  0  0  0  3  0  0  0  0  0  0
  161.0490  201.6170  150.2620 O   0  0  0  0  0  0  0  0  0  0  0  0
  162.4710  200.3370  148.9300 O   0  0  0  0  0  0  0  0  0  0  0  0
  162.6400  204.1030  146.4360 C   0  0  0  0  0  3  0  0  0  0  0  0
  160.4500  205.0680  144.9430 C   0  0  0  0  0  2  0  0  0  0  0  0
  160.0860  201.6460  145.7560 N   0  0  0  0  0  0  0  0  0  0  0  0
  161.7190  203.2550  145.9670 C   0  0  0  0  0  0  0  0  0  0  0  0
  159.7020  202.7380  145.0020 O   0  0  0  0  0  0  0  0  0  0  0  0
  161.6640  205.8810  145.1340 N   0  0  0  0  0  0  0  0  0  0  0  0
  161.3090  201.9630  146.5060 C   0  0  1  0  0  3  0  0  0  0  0  0
  162.6670  205.4610  145.8540 C   0  0  0  0  0  3  0  0  0  0  0  0
  160.8240  203.5830  144.8610 C   0  0  1  0  0  3  0  0  0  0  0  0
  160.8810  199.3500  145.6310 C   0  0  0  0  0  1  0  0  0  0  0  0
  160.3900  200.5490  144.8440 C   0  0  0  0  0  2  0  0  0  0  0  0
  162.6000  210.1160  149.8590 O   0  0  0  0  0  0  0  0  0  0  0  0
  161.1990  210.3490  147.9140 C   0  0  0  0  0  3  0  0  0  0  0  0
  162.1440  210.8920  148.7890 C   0  0  0  0  0  0  0  0  0  0  0  0
  162.1190  212.9570  147.5110 C   0  0  0  0  0  3  0  0  0  0  0  0
  161.1660  212.4180  146.6340 C   0  0  0  0  0  0  0  0  0  0  0  0
  160.7120  211.1070  146.8440 C   0  0  0  0  0  3  0  0  0  0  0  0
  162.6040  212.2020  148.5820 C   0  0  0  0  0  3  0  0  0  0  0  0
  160.5330  213.6420  142.2400 C   0  0  0  0  0  1  0  0  0  0  0  0
  159.1910  214.4530  144.1680 C   0  0  0  0  0  2  0  0  0  0  0  0
  160.5730  214.4530  143.5250 C   0  0  1  0  0  3  0  0  0  0  0  0
  161.5080  213.7850  144.5170 C   0  0  0  0  0  2  0  0  0  0  0  0
  160.6600  213.2000  145.5390 N   0  0  0  0  0  0  0  0  0  0  0  0
  159.2550  213.5030  145.3500 C   0  0  0  0  0  2  0  0  0  0  0  0
  1 15  1  0  0  0  0
  2  9  1  0  0  0  0
  2  6  2  0  0  0  0
  3  4  1  0  0  0  0
  4  9  2  0  0  0  0
  4 13  1  0  0  0  0
  5  8  2  0  0  0  0
  6 16  1  0  0  0  0
  7 34  1  6  0  0  0
  7  6  1  0  0  0  0
  7 11  1  0  0  0  0
  8 10  2  0  0  0  0
  9 12  1  0  0  0  0
 11 14  1  0  0  0  0
 12 16  2  0  0  0  0
 12 15  1  0  0  0  0
 13  1  2  0  0  0  0
 14  5  1  0  0  0  0
 16  5  1  0  0  0  0
 17 21  1  0  0  0  0
 18 20  2  0  0  0  0
 18 17  1  0  0  0  0
 19 21  1  0  0  0  0
 19 13  1  1  0  0  0
 20 19  1  0  0  0  0
 22 17  2  0  0  0  0
 24 28  1  0  0  0  0
 25 29  1  0  0  0  0
 26 23  2  0  0  0  0
 26 29  1  0  0  0  0
 27 25  1  0  0  0  0
 28 30  2  0  0  0  0
 29 18  1  1  0  0  0
 30 23  1  0  0  0  0
 31 24  1  1  0  0  0
 31 27  1  0  0  0  0
 31 26  1  0  0  0  0
 33 32  1  0  0  0  0
 33 25  1  0  0  0  0
 35 36  1  0  0  0  0
 36 34  1  0  0  0  0
 37 40  1  0  0  0  0
 38 39  1  0  0  0  0
 38 37  2  0  0  0  0
 39 35  2  0  0  0  0
 40 36  2  0  0  0  0
 42 46  1  0  0  0  0
 43 41  1  6  0  0  0
 43 42  1  0  0  0  0
 43 44  1  0  0  0  0
 44 45  1  0  0  0  0
 45 38  1  0  0  0  0
 46 45  1  0  0  0  0
M  END
>  <MODEL>
6

>  <REMARK>
 VINA RESULT:      -6.5      2.719      4.388
  Name = 
  6 active torsions:
  status: ('A' for Active; 'I' for Inactive)
    1  A    between atoms: C_14  and  O_18
    2  A    between atoms: C_16  and  N_27
    3  A    between atoms: C_17  and  O_18
    4  A    between atoms: C_24  and  N_37
    5  A    between atoms: C_26  and  C_38
    6  A    between atoms: C_30  and  C_39
                            x       y       z     vdW  Elec       q    Type
                         _______ _______ _______ _____ _____    ______ ____

>  <TORSDO>
F 6

$$$$
=
 OpenBabel11042421593D

 46 53  0  0  1  0  0  0  0  0999 V2000
  161.8550  207.8650  152.4310 C   0  0  0  0  0  3  0  0  0  0  0  0
  159.7340  211.6450  152.0350 C   0  0  0  0  0  3  0  0  0  0  0  0
  160.9940  210.3430  149.7540 O   0  0  0  0  0  1  0  0  0  0  0  0
  161.0590  209.7740  151.0230 C   0  0  0  0  0  0  0  0  0  0  0  0
  159.3660  210.9150  155.6310 C   0  0  0  0  0  0  0  0  0  0  0  0
  159.3170  211.9060  153.3400 C   0  0  0  0  0  0  0  0  0  0  0  0
  158.4440  213.0430  153.7890 C   0  0  1  0  0  3  0  0  0  0  0  0
  159.7950  210.0080  156.4660 C   0  0  0  0  0  0  0  0  0  0  0  0
  160.4360  210.4510  152.0860 C   0  0  0  0  0  0  0  0  0  0  0  0
  160.2030  209.1480  157.2590 O   0  0  0  0  0  0  0  0  0  0  0  0
  158.6200  213.2850  155.3000 C   0  0  0  0  0  2  0  0  0  0  0  0
  160.4150  209.9850  153.4500 C   0  0  0  0  0  0  0  0  0  0  0  0
  161.7460  208.5390  151.1940 C   0  0  0  0  0  0  0  0  0  0  0  0
  158.4310  211.9910  156.1100 C   0  0  0  0  0  2  0  0  0  0  0  0
  161.1580  208.5280  153.8330 S   0  0  0  0  0  0  0  0  0  0  0  0
  159.7080  210.8940  154.1980 C   0  0  0  0  0  0  0  0  0  0  0  0
  161.3580  206.7930  148.3120 C   0  0  0  0  0  0  0  0  0  0  0  0
  161.9940  205.7960  149.1540 C   0  0  0  0  0  0  0  0  0  0  0  0
  162.3990  207.9260  149.9890 C   0  0  1  0  0  3  0  0  0  0  0  0
  162.5970  206.4370  150.1480 C   0  0  0  0  0  3  0  0  0  0  0  0
  161.5770  208.0510  148.8330 O   0  0  0  0  0  0  0  0  0  0  0  0
  160.6770  206.5710  147.2710 O   0  0  0  0  0  0  0  0  0  0  0  0
  162.9570  204.4110  146.6210 C   0  0  0  0  0  3  0  0  0  0  0  0
  160.4190  203.4210  145.8920 C   0  0  0  0  0  2  0  0  0  0  0  0
  160.7740  203.6840  149.4010 N   0  0  0  0  0  0  0  0  0  0  0  0
  162.1260  203.9360  147.5540 C   0  0  0  0  0  0  0  0  0  0  0  0
  160.0920  203.1860  148.3070 O   0  0  0  0  0  0  0  0  0  0  0  0
  161.4940  203.5770  144.8970 N   0  0  0  0  0  0  0  0  0  0  0  0
  162.0340  204.3000  148.9650 C   0  0  1  0  0  3  0  0  0  0  0  0
  162.6600  204.0700  145.2140 C   0  0  0  0  0  3  0  0  0  0  0  0
  161.0170  203.0370  147.2510 C   0  0  1  0  0  3  0  0  0  0  0  0
  161.4540  203.0840  151.6580 C   0  0  0  0  0  1  0  0  0  0  0  0
  161.1010  202.5650  150.2780 C   0  0  0  0  0  2  0  0  0  0  0  0
  158.7630  214.2270  153.0630 O   0  0  0  0  0  0  0  0  0  0  0  0
  160.1440  214.4340  151.1000 C   0  0  0  0  0  3  0  0  0  0  0  0
  158.8800  214.2580  151.6700 C   0  0  0  0  0  0  0  0  0  0  0  0
  157.9120  214.1290  149.4450 C   0  0  0  0  0  3  0  0  0  0  0  0
  159.1800  214.2980  148.8700 C   0  0  0  0  0  0  0  0  0  0  0  0
  160.2940  214.4530  149.7090 C   0  0  0  0  0  3  0  0  0  0  0  0
  157.7620  214.1060  150.8350 C   0  0  0  0  0  3  0  0  0  0  0  0
  160.8080  212.9640  144.7740 C   0  0  0  0  0  1  0  0  0  0  0  0
  158.8270  214.4210  145.1300 C   0  0  0  0  0  2  0  0  0  0  0  0
  160.3390  214.3150  145.2900 C   0  0  1  0  0  3  0  0  0  0  0  0
  160.6220  214.4160  146.7780 C   0  0  0  0  0  2  0  0  0  0  0  0
  159.3350  214.3100  147.4410 N   0  0  0  0  0  0  0  0  0  0  0  0
  158.2240  214.2400  146.5120 C   0  0  0  0  0  2  0  0  0  0  0  0
  1 15  1  0  0  0  0
  2  9  1  0  0  0  0
  2  6  2  0  0  0  0
  3  4  1  0  0  0  0
  4 13  1  0  0  0  0
  4  9  2  0  0  0  0
  5 14  1  0  0  0  0
  5  8  2  0  0  0  0
  6  7  1  0  0  0  0
  6 16  1  0  0  0  0
  7 34  1  6  0  0  0
  7 11  1  0  0  0  0
  8 10  2  0  0  0  0
  9 12  1  0  0  0  0
 11 14  1  0  0  0  0
 12 15  1  0  0  0  0
 12 16  2  0  0  0  0
 13  1  2  0  0  0  0
 16  5  1  0  0  0  0
 17 21  1  0  0  0  0
 17 18  1  0  0  0  0
 18 20  2  0  0  0  0
 19 20  1  0  0  0  0
 19 13  1  1  0  0  0
 21 19  1  0  0  0  0
 22 17  2  0  0  0  0
 23 26  2  0  0  0  0
 25 33  1  0  0  0  0
 26 29  1  0  0  0  0
 27 25  1  0  0  0  0
 28 30  2  0  0  0  0
 28 24  1  0  0  0  0
 29 18  1  6  0  0  0
 29 25  1  0  0  0  0
 30 23  1  0  0  0  0
 31 24  1  6  0  0  0
 31 26  1  0  0  0  0
 31 27  1  0  0  0  0
 33 32  1  0  0  0  0
 35 36  1  0  0  0  0
 36 34  1  0  0  0  0
 37 40  1  0  0  0  0
 38 37  2  0  0  0  0
 38 39  1  0  0  0  0
 39 35  2  0  0  0  0
 40 36  2  0  0  0  0
 42 43  1  0  0  0  0
 42 46  1  0  0  0  0
 43 41  1  1  0  0  0
 43 44  1  0  0  0  0
 44 45  1  0  0  0  0
 45 38  1  0  0  0  0
 46 45  1  0  0  0  0
M  END
>  <MODEL>
7

>  <REMARK>
 VINA RESULT:      -5.3      1.409      2.552
  Name = 
  6 active torsions:
  status: ('A' for Active; 'I' for Inactive)
    1  A    between atoms: C_14  and  O_18
    2  A    between atoms: C_16  and  N_27
    3  A    between atoms: C_17  and  O_18
    4  A    between atoms: C_24  and  N_37
    5  A    between atoms: C_26  and  C_38
    6  A    between atoms: C_30  and  C_39
                            x       y       z     vdW  Elec       q    Type
                         _______ _______ _______ _____ _____    ______ ____

>  <TORSDO>
F 6

$$$$
