=
 OpenBabel11042420123D

 30 32  0  0  1  0  0  0  0  0999 V2000
  162.0460  206.6320  152.2310 C   0  0  0  0  0  3  0  0  0  0  0  0
  162.0000  207.6270  151.3390 C   0  0  0  0  0  0  0  0  0  0  0  0
  161.7250  208.9650  151.7830 N   0  0  0  0  0  0  0  0  0  0  0  0
  162.6340  209.9490  151.5740 O   0  0  0  0  0  1  0  0  0  0  0  0
  160.4300  211.6710  154.5490 C   0  0  0  0  0  2  0  0  0  0  0  0
  160.1790  210.7750  152.4610 C   0  0  0  0  0  2  0  0  0  0  0  0
  161.6860  210.7990  154.7520 C   0  0  0  0  0  2  0  0  0  0  0  0
  159.4920  211.1520  153.6270 O   0  0  0  0  0  0  0  0  0  0  0  0
  161.4020  209.3070  154.9470 C   0  0  0  0  0  2  0  0  0  0  0  0
  160.4680  208.6610  153.9080 C   0  0  0  0  0  2  0  0  0  0  0  0
  160.4860  209.2720  152.4950 C   0  0  2  0  0  3  0  0  0  0  0  0
  162.2780  207.3570  149.8890 C   0  0  0  0  0  2  0  0  0  0  0  0
  161.0580  206.9270  149.2290 N   0  0  0  0  0  2  0  0  0  0  0  0
  161.1940  207.2820  147.8280 C   0  0  0  0  0  2  0  0  0  0  0  0
  161.1940  206.0790  147.0140 N   0  0  0  0  0  0  0  0  0  0  0  0
  162.7100  204.6980  145.6130 C   0  0  0  0  0  2  0  0  0  0  0  0
  161.3990  204.1410  145.2780 N   0  0  0  0  0  2  0  0  0  0  0  0
  160.5310  205.2160  144.7910 C   0  0  0  0  0  2  0  0  0  0  0  0
  162.5920  205.7900  146.6890 C   0  0  0  0  0  2  0  0  0  0  0  0
  160.4770  206.3940  145.7770 C   0  0  0  0  0  2  0  0  0  0  0  0
  162.3440  205.2130  151.8660 C   0  0  0  0  0  2  0  0  0  0  0  0
  161.1750  204.3200  152.2370 C   0  0  0  0  0  2  0  0  0  0  0  0
  160.3700  204.0370  151.0580 N   0  0  0  0  0  2  0  0  0  0  0  0
  161.2790  200.8850  148.3840 C   0  0  0  0  0  0  0  0  0  0  0  0
  160.8110  203.2300  148.7670 C   0  0  0  0  0  3  0  0  0  0  0  0
  161.1120  202.1820  147.8910 C   0  0  0  0  0  3  0  0  0  0  0  0
  161.5690  199.8700  147.5360 F   0  0  0  0  0  0  0  0  0  0  0  0
  161.1440  200.6350  149.7530 C   0  0  0  0  0  3  0  0  0  0  0  0
  160.8430  201.6820  150.6290 C   0  0  0  0  0  3  0  0  0  0  0  0
  160.6750  202.9830  150.1420 C   0  0  0  0  0  0  0  0  0  0  0  0
  2  3  1  0  0  0  0
  2  1  2  0  0  0  0
  4  3  1  0  0  0  0
  5  7  1  0  0  0  0
  6 11  1  0  0  0  0
  6  8  1  0  0  0  0
  7  9  1  0  0  0  0
  8  5  1  0  0  0  0
 10  9  1  0  0  0  0
 11  3  1  1  0  0  0
 11 10  1  0  0  0  0
 12  2  1  0  0  0  0
 13 12  1  0  0  0  0
 14 13  1  0  0  0  0
 15 14  1  0  0  0  0
 16 19  1  0  0  0  0
 17 16  1  0  0  0  0
 18 17  1  0  0  0  0
 18 20  1  0  0  0  0
 19 15  1  0  0  0  0
 20 15  1  0  0  0  0
 21  1  1  0  0  0  0
 21 22  1  0  0  0  0
 23 22  1  0  0  0  0
 24 28  1  0  0  0  0
 25 30  2  0  0  0  0
 26 24  2  0  0  0  0
 26 25  1  0  0  0  0
 27 24  1  0  0  0  0
 28 29  2  0  0  0  0
 30 29  1  0  0  0  0
 30 23  1  0  0  0  0
M  END
>  <MODEL>
1

>  <REMARK>
 VINA RESULT:      -8.1      0.000      0.000
  Name = 
  10 active torsions:
  status: ('A' for Active; 'I' for Inactive)
    1  A    between atoms: N_1  and  C_17
    2  A    between atoms: C_2  and  C_19
    3  A    between atoms: C_2  and  N_30
    4  A    between atoms: N_9  and  C_19
    5  A    between atoms: N_9  and  C_27
    6  A    between atoms: N_12  and  C_18
    7  A    between atoms: N_12  and  C_25
    8  A    between atoms: C_14  and  C_16
    9  A    between atoms: C_14  and  C_18
   10  A    between atoms: C_17  and  N_30
                            x       y       z     vdW  Elec       q    Type
                         _______ _______ _______ _____ _____    ______ ____

>  <TORSDO>
F 10

$$$$
=
 OpenBabel11042420123D

 30 32  0  0  1  0  0  0  0  0999 V2000
  161.7510  208.6160  151.4530 C   0  0  0  0  0  3  0  0  0  0  0  0
  161.3200  208.1740  152.6390 C   0  0  0  0  0  0  0  0  0  0  0  0
  160.5970  209.0630  153.5060 N   0  0  0  0  0  0  0  0  0  0  0  0
  159.9370  210.1280  152.9870 O   0  0  0  0  0  1  0  0  0  0  0  0
  159.9060  211.2670  156.8700 C   0  0  0  0  0  2  0  0  0  0  0  0
  159.3410  209.4490  155.6030 C   0  0  0  0  0  2  0  0  0  0  0  0
  160.8990  211.7000  155.7720 C   0  0  0  0  0  2  0  0  0  0  0  0
  159.6350  209.8800  156.9090 O   0  0  0  0  0  0  0  0  0  0  0  0
  162.1560  210.8310  155.6690 C   0  0  0  0  0  2  0  0  0  0  0  0
  161.9170  209.3120  155.6000 C   0  0  0  0  0  2  0  0  0  0  0  0
  160.5970  208.8530  154.9520 C   0  0  2  0  0  3  0  0  0  0  0  0
  161.5500  206.7480  153.0450 C   0  0  0  0  0  2  0  0  0  0  0  0
  160.6880  205.8730  152.2710 N   0  0  0  0  0  2  0  0  0  0  0  0
  161.2770  204.5480  152.3290 C   0  0  0  0  0  2  0  0  0  0  0  0
  160.7220  203.7170  151.2750 N   0  0  0  0  0  0  0  0  0  0  0  0
  160.9370  201.4460  150.2930 C   0  0  0  0  0  2  0  0  0  0  0  0
  160.1120  202.1280  149.2970 N   0  0  0  0  0  2  0  0  0  0  0  0
  160.8140  203.3270  148.8320 C   0  0  0  0  0  2  0  0  0  0  0  0
  161.2340  202.3630  151.4920 C   0  0  0  0  0  2  0  0  0  0  0  0
  161.2470  204.2220  150.0050 C   0  0  0  0  0  2  0  0  0  0  0  0
  162.4940  207.7600  150.4770 C   0  0  0  0  0  2  0  0  0  0  0  0
  161.8230  207.8140  149.1180 C   0  0  0  0  0  2  0  0  0  0  0  0
  162.6430  207.1270  148.1300 N   0  0  0  0  0  2  0  0  0  0  0  0
  160.9650  204.8130  145.0080 C   0  0  0  0  0  0  0  0  0  0  0  0
  162.8020  205.2620  146.5200 C   0  0  0  0  0  3  0  0  0  0  0  0
  162.2400  204.5020  145.4900 C   0  0  0  0  0  3  0  0  0  0  0  0
  160.4210  204.0780  144.0100 F   0  0  0  0  0  0  0  0  0  0  0  0
  160.2520  205.8820  145.5580 C   0  0  0  0  0  3  0  0  0  0  0  0
  160.8140  206.6420  146.5890 C   0  0  0  0  0  3  0  0  0  0  0  0
  162.0900  206.3370  147.0740 C   0  0  0  0  0  0  0  0  0  0  0  0
  1  2  2  0  0  0  0
  2 12  1  0  0  0  0
  2  3  1  0  0  0  0
  4  3  1  0  0  0  0
  5  8  1  0  0  0  0
  6  8  1  0  0  0  0
  7  5  1  0  0  0  0
  9  7  1  0  0  0  0
 10  9  1  0  0  0  0
 11  3  1  6  0  0  0
 11 10  1  0  0  0  0
 11  6  1  0  0  0  0
 13 14  1  0  0  0  0
 13 12  1  0  0  0  0
 15 19  1  0  0  0  0
 15 14  1  0  0  0  0
 16 19  1  0  0  0  0
 17 16  1  0  0  0  0
 18 17  1  0  0  0  0
 18 20  1  0  0  0  0
 20 15  1  0  0  0  0
 21  1  1  0  0  0  0
 22 21  1  0  0  0  0
 23 22  1  0  0  0  0
 24 26  2  0  0  0  0
 24 28  1  0  0  0  0
 25 30  2  0  0  0  0
 26 25  1  0  0  0  0
 27 24  1  0  0  0  0
 28 29  2  0  0  0  0
 29 30  1  0  0  0  0
 30 23  1  0  0  0  0
M  END
>  <MODEL>
2

>  <REMARK>
 VINA RESULT:      -7.4      1.876      4.190
  Name = 
  10 active torsions:
  status: ('A' for Active; 'I' for Inactive)
    1  A    between atoms: N_1  and  C_17
    2  A    between atoms: C_2  and  C_19
    3  A    between atoms: C_2  and  N_30
    4  A    between atoms: N_9  and  C_19
    5  A    between atoms: N_9  and  C_27
    6  A    between atoms: N_12  and  C_18
    7  A    between atoms: N_12  and  C_25
    8  A    between atoms: C_14  and  C_16
    9  A    between atoms: C_14  and  C_18
   10  A    between atoms: C_17  and  N_30
                            x       y       z     vdW  Elec       q    Type
                         _______ _______ _______ _____ _____    ______ ____

>  <TORSDO>
F 10

$$$$
=
 OpenBabel11042420123D

 30 32  0  0  1  0  0  0  0  0999 V2000
  161.9190  208.3680  151.4290 C   0  0  0  0  0  3  0  0  0  0  0  0
  161.5720  207.8720  152.6210 C   0  0  0  0  0  0  0  0  0  0  0  0
  160.9630  208.7330  153.5970 N   0  0  0  0  0  0  0  0  0  0  0  0
  160.0620  208.2290  154.4760 O   0  0  0  0  0  1  0  0  0  0  0  0
  159.3980  212.1260  155.2370 C   0  0  0  0  0  2  0  0  0  0  0  0
  161.1910  210.7200  155.0550 C   0  0  0  0  0  2  0  0  0  0  0  0
  158.5700  211.1510  154.3760 C   0  0  0  0  0  2  0  0  0  0  0  0
  160.7940  212.0680  155.0200 O   0  0  0  0  0  0  0  0  0  0  0  0
  158.9550  211.1220  152.8930 C   0  0  0  0  0  2  0  0  0  0  0  0
  160.4550  210.9520  152.5940 C   0  0  0  0  0  2  0  0  0  0  0  0
  161.2770  210.1600  153.6290 C   0  0  2  0  0  3  0  0  0  0  0  0
  161.7770  206.4170  152.9250 C   0  0  0  0  0  2  0  0  0  0  0  0
  160.7710  205.6270  152.2370 N   0  0  0  0  0  2  0  0  0  0  0  0
  161.1910  204.2410  152.3330 C   0  0  0  0  0  2  0  0  0  0  0  0
  160.6740  203.4920  151.2000 N   0  0  0  0  0  0  0  0  0  0  0  0
  160.9310  201.3030  150.0550 C   0  0  0  0  0  2  0  0  0  0  0  0
  160.1360  202.0590  149.0870 N   0  0  0  0  0  2  0  0  0  0  0  0
  160.8470  203.2910  148.7390 C   0  0  0  0  0  2  0  0  0  0  0  0
  161.1850  202.1270  151.3290 C   0  0  0  0  0  2  0  0  0  0  0  0
  161.2370  204.0950  149.9900 C   0  0  0  0  0  2  0  0  0  0  0  0
  162.5400  207.5470  150.3450 C   0  0  0  0  0  2  0  0  0  0  0  0
  161.8930  207.8640  149.0110 C   0  0  0  0  0  2  0  0  0  0  0  0
  162.6420  207.2390  147.9310 N   0  0  0  0  0  2  0  0  0  0  0  0
  160.8830  204.7140  145.0250 C   0  0  0  0  0  0  0  0  0  0  0  0
  160.7250  206.6280  146.5000 C   0  0  0  0  0  3  0  0  0  0  0  0
  160.1530  205.7890  145.5390 C   0  0  0  0  0  3  0  0  0  0  0  0
  160.3280  203.9010  144.0950 F   0  0  0  0  0  0  0  0  0  0  0  0
  162.1870  204.4780  145.4720 C   0  0  0  0  0  3  0  0  0  0  0  0
  162.7600  205.3170  146.4330 C   0  0  0  0  0  3  0  0  0  0  0  0
  162.0340  206.3940  146.9510 C   0  0  0  0  0  0  0  0  0  0  0  0
  1  2  2  0  0  0  0
  2 12  1  0  0  0  0
  2  3  1  0  0  0  0
  3  4  1  0  0  0  0
  7  5  1  0  0  0  0
  8  6  1  0  0  0  0
  8  5  1  0  0  0  0
  9  7  1  0  0  0  0
 10  9  1  0  0  0  0
 10 11  1  0  0  0  0
 11  3  1  1  0  0  0
 11  6  1  0  0  0  0
 13 14  1  0  0  0  0
 13 12  1  0  0  0  0
 15 19  1  0  0  0  0
 15 14  1  0  0  0  0
 16 19  1  0  0  0  0
 17 16  1  0  0  0  0
 18 17  1  0  0  0  0
 18 20  1  0  0  0  0
 20 15  1  0  0  0  0
 21  1  1  0  0  0  0
 22 21  1  0  0  0  0
 23 22  1  0  0  0  0
 24 28  2  0  0  0  0
 24 26  1  0  0  0  0
 25 30  1  0  0  0  0
 26 25  2  0  0  0  0
 27 24  1  0  0  0  0
 28 29  1  0  0  0  0
 29 30  2  0  0  0  0
 30 23  1  0  0  0  0
M  END
>  <MODEL>
3

>  <REMARK>
 VINA RESULT:      -7.2      1.904      4.185
  Name = 
  10 active torsions:
  status: ('A' for Active; 'I' for Inactive)
    1  A    between atoms: N_1  and  C_17
    2  A    between atoms: C_2  and  C_19
    3  A    between atoms: C_2  and  N_30
    4  A    between atoms: N_9  and  C_19
    5  A    between atoms: N_9  and  C_27
    6  A    between atoms: N_12  and  C_18
    7  A    between atoms: N_12  and  C_25
    8  A    between atoms: C_14  and  C_16
    9  A    between atoms: C_14  and  C_18
   10  A    between atoms: C_17  and  N_30
                            x       y       z     vdW  Elec       q    Type
                         _______ _______ _______ _____ _____    ______ ____

>  <TORSDO>
F 10

$$$$
=
 OpenBabel11042420123D

 30 32  0  0  1  0  0  0  0  0999 V2000
  160.9030  207.9640  152.0570 C   0  0  0  0  0  3  0  0  0  0  0  0
  161.3750  209.1530  152.4430 C   0  0  0  0  0  0  0  0  0  0  0  0
  161.0200  209.6720  153.7350 N   0  0  0  0  0  0  0  0  0  0  0  0
  160.7490  208.8210  154.7550 O   0  0  0  0  0  1  0  0  0  0  0  0
  158.9410  212.2010  156.1710 C   0  0  0  0  0  2  0  0  0  0  0  0
  160.9790  211.4590  155.4470 C   0  0  0  0  0  2  0  0  0  0  0  0
  158.2620  211.1130  155.3130 C   0  0  0  0  0  2  0  0  0  0  0  0
  160.2140  212.6080  155.7090 O   0  0  0  0  0  0  0  0  0  0  0  0
  158.3090  211.3680  153.8040 C   0  0  0  0  0  2  0  0  0  0  0  0
  159.6930  211.7130  153.2260 C   0  0  0  0  0  2  0  0  0  0  0  0
  160.9110  211.1130  153.9530 C   0  0  2  0  0  3  0  0  0  0  0  0
  162.3060  209.9240  151.5520 C   0  0  0  0  0  2  0  0  0  0  0  0
  161.5370  210.7030  150.5990 N   0  0  0  0  0  2  0  0  0  0  0  0
  162.2680  210.6680  149.3450 C   0  0  0  0  0  2  0  0  0  0  0  0
  161.7820  211.7160  148.4640 N   0  0  0  0  0  0  0  0  0  0  0  0
  162.5890  213.6670  147.1560 C   0  0  0  0  0  2  0  0  0  0  0  0
  161.1380  213.8490  147.1050 N   0  0  0  0  0  2  0  0  0  0  0  0
  160.6130  213.8980  148.4710 C   0  0  0  0  0  2  0  0  0  0  0  0
  162.9610  212.3710  147.8960 C   0  0  0  0  0  2  0  0  0  0  0  0
  161.0610  212.6810  149.2970 C   0  0  0  0  0  2  0  0  0  0  0  0
  161.2320  207.3350  150.7410 C   0  0  0  0  0  2  0  0  0  0  0  0
  161.8340  205.9600  150.9540 C   0  0  0  0  0  2  0  0  0  0  0  0
  160.7920  204.9450  150.8990 N   0  0  0  0  0  2  0  0  0  0  0  0
  161.1350  201.3870  148.6320 C   0  0  0  0  0  0  0  0  0  0  0  0
  161.0990  203.8060  148.7300 C   0  0  0  0  0  3  0  0  0  0  0  0
  161.2120  202.6260  147.9890 C   0  0  0  0  0  3  0  0  0  0  0  0
  161.2430  200.2440  147.9150 F   0  0  0  0  0  0  0  0  0  0  0  0
  160.9460  201.3290  150.0160 C   0  0  0  0  0  3  0  0  0  0  0  0
  160.8330  202.5090  150.7570 C   0  0  0  0  0  3  0  0  0  0  0  0
  160.9090  203.7520  150.1200 C   0  0  0  0  0  0  0  0  0  0  0  0
  1  2  2  0  0  0  0
  2  3  1  0  0  0  0
  3  4  1  0  0  0  0
  6  8  1  0  0  0  0
  7  5  1  0  0  0  0
  8  5  1  0  0  0  0
  9  7  1  0  0  0  0
 10  9  1  0  0  0  0
 10 11  1  0  0  0  0
 11  3  1  1  0  0  0
 11  6  1  0  0  0  0
 12  2  1  0  0  0  0
 13 12  1  0  0  0  0
 14 13  1  0  0  0  0
 15 20  1  0  0  0  0
 15 14  1  0  0  0  0
 16 19  1  0  0  0  0
 17 16  1  0  0  0  0
 17 18  1  0  0  0  0
 18 20  1  0  0  0  0
 19 15  1  0  0  0  0
 21 22  1  0  0  0  0
 21  1  1  0  0  0  0
 23 22  1  0  0  0  0
 24 28  1  0  0  0  0
 25 30  2  0  0  0  0
 26 24  2  0  0  0  0
 26 25  1  0  0  0  0
 27 24  1  0  0  0  0
 28 29  2  0  0  0  0
 30 29  1  0  0  0  0
 30 23  1  0  0  0  0
M  END
>  <MODEL>
4

>  <REMARK>
 VINA RESULT:      -7.2      2.862      4.281
  Name = 
  10 active torsions:
  status: ('A' for Active; 'I' for Inactive)
    1  A    between atoms: N_1  and  C_17
    2  A    between atoms: C_2  and  C_19
    3  A    between atoms: C_2  and  N_30
    4  A    between atoms: N_9  and  C_19
    5  A    between atoms: N_9  and  C_27
    6  A    between atoms: N_12  and  C_18
    7  A    between atoms: N_12  and  C_25
    8  A    between atoms: C_14  and  C_16
    9  A    between atoms: C_14  and  C_18
   10  A    between atoms: C_17  and  N_30
                            x       y       z     vdW  Elec       q    Type
                         _______ _______ _______ _____ _____    ______ ____

>  <TORSDO>
F 10

$$$$
=
 OpenBabel11042420123D

 30 32  0  0  1  0  0  0  0  0999 V2000
  161.8900  208.0150  150.0840 C   0  0  0  0  0  3  0  0  0  0  0  0
  161.9650  209.3420  150.2180 C   0  0  0  0  0  0  0  0  0  0  0  0
  161.9050  209.9270  151.5290 N   0  0  0  0  0  0  0  0  0  0  0  0
  163.0440  210.3420  152.1380 O   0  0  0  0  0  1  0  0  0  0  0  0
  160.5220  211.5640  155.0010 C   0  0  0  0  0  2  0  0  0  0  0  0
  160.3920  211.4810  152.7200 C   0  0  0  0  0  2  0  0  0  0  0  0
  161.7200  210.5940  154.9490 C   0  0  0  0  0  2  0  0  0  0  0  0
  159.6350  211.4680  153.9040 O   0  0  0  0  0  0  0  0  0  0  0  0
  161.3580  209.1510  154.5840 C   0  0  0  0  0  2  0  0  0  0  0  0
  160.4790  208.9770  153.3320 C   0  0  0  0  0  2  0  0  0  0  0  0
  160.6300  210.0460  152.2330 C   0  0  2  0  0  3  0  0  0  0  0  0
  162.1520  210.2160  149.0120 C   0  0  0  0  0  2  0  0  0  0  0  0
  161.6860  211.5600  149.3040 N   0  0  0  0  0  2  0  0  0  0  0  0
  162.0820  212.3920  148.1830 C   0  0  0  0  0  2  0  0  0  0  0  0
  161.1350  212.2310  147.0930 N   0  0  0  0  0  0  0  0  0  0  0  0
  160.6300  213.1180  144.8290 C   0  0  0  0  0  2  0  0  0  0  0  0
  159.4220  212.3500  145.1280 N   0  0  0  0  0  2  0  0  0  0  0  0
  158.8430  212.8360  146.3830 C   0  0  0  0  0  2  0  0  0  0  0  0
  161.6660  212.9870  145.9580 C   0  0  0  0  0  2  0  0  0  0  0  0
  159.8760  212.8440  147.5210 C   0  0  0  0  0  2  0  0  0  0  0  0
  161.9620  207.3150  148.7640 C   0  0  0  0  0  2  0  0  0  0  0  0
  160.7340  206.4500  148.5620 C   0  0  0  0  0  2  0  0  0  0  0  0
  160.7180  205.3700  149.5380 N   0  0  0  0  0  2  0  0  0  0  0  0
  161.1790  201.3110  148.4300 C   0  0  0  0  0  0  0  0  0  0  0  0
  160.6140  202.9690  150.1020 C   0  0  0  0  0  3  0  0  0  0  0  0
  160.7690  201.6310  149.7270 C   0  0  0  0  0  3  0  0  0  0  0  0
  161.3300  200.0160  148.0670 F   0  0  0  0  0  0  0  0  0  0  0  0
  161.4340  202.3300  147.5070 C   0  0  0  0  0  3  0  0  0  0  0  0
  161.2800  203.6680  147.8820 C   0  0  0  0  0  3  0  0  0  0  0  0
  160.8700  203.9940  149.1790 C   0  0  0  0  0  0  0  0  0  0  0  0
  1  2  2  0  0  0  0
  2  3  1  0  0  0  0
  3  4  1  0  0  0  0
  6  8  1  0  0  0  0
  7  5  1  0  0  0  0
  8  5  1  0  0  0  0
  9  7  1  0  0  0  0
 10  9  1  0  0  0  0
 11  3  1  1  0  0  0
 11  6  1  0  0  0  0
 11 10  1  0  0  0  0
 12 13  1  0  0  0  0
 12  2  1  0  0  0  0
 14 13  1  0  0  0  0
 15 20  1  0  0  0  0
 15 14  1  0  0  0  0
 16 17  1  0  0  0  0
 16 19  1  0  0  0  0
 17 18  1  0  0  0  0
 18 20  1  0  0  0  0
 19 15  1  0  0  0  0
 21  1  1  0  0  0  0
 22 21  1  0  0  0  0
 22 23  1  0  0  0  0
 24 26  1  0  0  0  0
 26 25  2  0  0  0  0
 27 24  1  0  0  0  0
 28 29  1  0  0  0  0
 28 24  2  0  0  0  0
 29 30  2  0  0  0  0
 30 23  1  0  0  0  0
 30 25  1  0  0  0  0
M  END
>  <MODEL>
5

>  <REMARK>
 VINA RESULT:      -7.1      3.108      4.016
  Name = 
  10 active torsions:
  status: ('A' for Active; 'I' for Inactive)
    1  A    between atoms: N_1  and  C_17
    2  A    between atoms: C_2  and  C_19
    3  A    between atoms: C_2  and  N_30
    4  A    between atoms: N_9  and  C_19
    5  A    between atoms: N_9  and  C_27
    6  A    between atoms: N_12  and  C_18
    7  A    between atoms: N_12  and  C_25
    8  A    between atoms: C_14  and  C_16
    9  A    between atoms: C_14  and  C_18
   10  A    between atoms: C_17  and  N_30
                            x       y       z     vdW  Elec       q    Type
                         _______ _______ _______ _____ _____    ______ ____

>  <TORSDO>
F 10

$$$$
=
 OpenBabel11042420123D

 30 32  0  0  1  0  0  0  0  0999 V2000
  161.7600  208.4390  148.2890 C   0  0  0  0  0  3  0  0  0  0  0  0
  162.0060  209.1590  149.3880 C   0  0  0  0  0  0  0  0  0  0  0  0
  161.9100  210.5920  149.3330 N   0  0  0  0  0  0  0  0  0  0  0  0
  161.5820  211.2920  150.4470 O   0  0  0  0  0  1  0  0  0  0  0  0
  162.3830  214.4520  148.0970 C   0  0  0  0  0  2  0  0  0  0  0  0
  163.2510  212.3400  148.2050 C   0  0  0  0  0  2  0  0  0  0  0  0
  161.1950  213.9880  148.9650 C   0  0  0  0  0  2  0  0  0  0  0  0
  163.0050  213.4270  147.3490 O   0  0  0  0  0  0  0  0  0  0  0  0
  160.2010  213.0690  148.2480 C   0  0  0  0  0  2  0  0  0  0  0  0
  160.8140  211.8710  147.5020 C   0  0  0  0  0  2  0  0  0  0  0  0
  162.1270  211.3030  148.0750 C   0  0  2  0  0  3  0  0  0  0  0  0
  162.3390  208.4770  150.6820 C   0  0  0  0  0  2  0  0  0  0  0  0
  161.1960  208.5380  151.5760 N   0  0  0  0  0  2  0  0  0  0  0  0
  161.3400  207.4390  152.5130 C   0  0  0  0  0  2  0  0  0  0  0  0
  161.2460  207.9390  153.8740 N   0  0  0  0  0  0  0  0  0  0  0  0
  160.0630  207.5020  156.0130 C   0  0  0  0  0  2  0  0  0  0  0  0
  160.6740  208.8060  156.2680 N   0  0  0  0  0  2  0  0  0  0  0  0
  160.2430  209.7480  155.2330 C   0  0  0  0  0  2  0  0  0  0  0  0
  160.4610  206.9610  154.6290 C   0  0  0  0  0  2  0  0  0  0  0  0
  160.5040  209.2000  153.8200 C   0  0  0  0  0  2  0  0  0  0  0  0
  161.8160  206.9450  148.2550 C   0  0  0  0  0  2  0  0  0  0  0  0
  160.5110  206.3600  148.7590 C   0  0  0  0  0  2  0  0  0  0  0  0
  160.7780  205.2820  149.7000 N   0  0  0  0  0  2  0  0  0  0  0  0
  161.1140  201.2430  148.4780 C   0  0  0  0  0  0  0  0  0  0  0  0
  160.6980  202.8700  150.2230 C   0  0  0  0  0  3  0  0  0  0  0  0
  160.8110  201.5390  149.8100 C   0  0  0  0  0  3  0  0  0  0  0  0
  161.2240  199.9540  148.0780 F   0  0  0  0  0  0  0  0  0  0  0  0
  161.3050  202.2790  147.5590 C   0  0  0  0  0  3  0  0  0  0  0  0
  161.1930  203.6100  147.9710 C   0  0  0  0  0  3  0  0  0  0  0  0
  160.8890  203.9120  149.3020 C   0  0  0  0  0  0  0  0  0  0  0  0
  1  2  2  0  0  0  0
  2 12  1  0  0  0  0
  3  2  1  0  0  0  0
  3  4  1  0  0  0  0
  5  7  1  0  0  0  0
  8  5  1  0  0  0  0
  8  6  1  0  0  0  0
  9  7  1  0  0  0  0
 10 11  1  0  0  0  0
 10  9  1  0  0  0  0
 11  6  1  0  0  0  0
 11  3  1  1  0  0  0
 12 13  1  0  0  0  0
 13 14  1  0  0  0  0
 14 15  1  0  0  0  0
 15 19  1  0  0  0  0
 16 17  1  0  0  0  0
 18 17  1  0  0  0  0
 19 16  1  0  0  0  0
 20 15  1  0  0  0  0
 20 18  1  0  0  0  0
 21  1  1  0  0  0  0
 21 22  1  0  0  0  0
 22 23  1  0  0  0  0
 24 26  1  0  0  0  0
 26 25  2  0  0  0  0
 27 24  1  0  0  0  0
 28 29  1  0  0  0  0
 28 24  2  0  0  0  0
 29 30  2  0  0  0  0
 30 23  1  0  0  0  0
 30 25  1  0  0  0  0
M  END
>  <MODEL>
6

>  <REMARK>
 VINA RESULT:      -7.1      2.884      5.898
  Name = 
  10 active torsions:
  status: ('A' for Active; 'I' for Inactive)
    1  A    between atoms: N_1  and  C_17
    2  A    between atoms: C_2  and  C_19
    3  A    between atoms: C_2  and  N_30
    4  A    between atoms: N_9  and  C_19
    5  A    between atoms: N_9  and  C_27
    6  A    between atoms: N_12  and  C_18
    7  A    between atoms: N_12  and  C_25
    8  A    between atoms: C_14  and  C_16
    9  A    between atoms: C_14  and  C_18
   10  A    between atoms: C_17  and  N_30
                            x       y       z     vdW  Elec       q    Type
                         _______ _______ _______ _____ _____    ______ ____

>  <TORSDO>
F 10

$$$$
=
 OpenBabel11042420123D

 30 32  0  0  1  0  0  0  0  0999 V2000
  161.3140  206.6360  152.8580 C   0  0  0  0  0  3  0  0  0  0  0  0
  161.7400  207.5800  152.0130 C   0  0  0  0  0  0  0  0  0  0  0  0
  161.4080  208.9560  152.2620 N   0  0  0  0  0  0  0  0  0  0  0  0
  162.2030  209.9430  151.7780 O   0  0  0  0  0  1  0  0  0  0  0  0
  160.3120  211.9010  154.8640 C   0  0  0  0  0  2  0  0  0  0  0  0
  159.8780  210.7880  152.9150 C   0  0  0  0  0  2  0  0  0  0  0  0
  161.6110  211.0860  155.0190 C   0  0  0  0  0  2  0  0  0  0  0  0
  159.3020  211.2670  154.1040 O   0  0  0  0  0  0  0  0  0  0  0  0
  161.4020  209.6150  155.3920 C   0  0  0  0  0  2  0  0  0  0  0  0
  160.3890  208.8420  154.5290 C   0  0  0  0  0  2  0  0  0  0  0  0
  160.2390  209.3040  153.0670 C   0  0  2  0  0  3  0  0  0  0  0  0
  162.5960  207.2140  150.8360 C   0  0  0  0  0  2  0  0  0  0  0  0
  161.8380  207.3830  149.6090 N   0  0  0  0  0  2  0  0  0  0  0  0
  162.7820  207.2450  148.5140 C   0  0  0  0  0  2  0  0  0  0  0  0
  162.0630  207.0020  147.2750 N   0  0  0  0  0  0  0  0  0  0  0  0
  159.8950  206.1220  146.4430 C   0  0  0  0  0  2  0  0  0  0  0  0
  160.6800  206.2020  145.2110 N   0  0  0  0  0  2  0  0  0  0  0  0
  161.9100  205.4230  145.3750 C   0  0  0  0  0  2  0  0  0  0  0  0
  160.6880  206.6610  147.6450 C   0  0  0  0  0  2  0  0  0  0  0  0
  162.6830  205.8390  146.6370 C   0  0  0  0  0  2  0  0  0  0  0  0
  161.6250  205.1820  152.6920 C   0  0  0  0  0  2  0  0  0  0  0  0
  160.6000  204.5270  151.7880 C   0  0  0  0  0  2  0  0  0  0  0  0
  160.9710  203.1430  151.5320 N   0  0  0  0  0  2  0  0  0  0  0  0
  161.0720  201.5110  147.6280 C   0  0  0  0  0  0  0  0  0  0  0  0
  161.0480  201.1870  150.0280 C   0  0  0  0  0  3  0  0  0  0  0  0
  161.0810  200.6560  148.7350 C   0  0  0  0  0  3  0  0  0  0  0  0
  161.1050  200.9980  146.3760 F   0  0  0  0  0  0  0  0  0  0  0  0
  161.0300  202.8960  147.8160 C   0  0  0  0  0  3  0  0  0  0  0  0
  160.9980  203.4260  149.1090 C   0  0  0  0  0  3  0  0  0  0  0  0
  161.0070  202.5770  150.2200 C   0  0  0  0  0  0  0  0  0  0  0  0
  2  3  1  0  0  0  0
  2  1  2  0  0  0  0
  4  3  1  0  0  0  0
  5  7  1  0  0  0  0
  6 11  1  0  0  0  0
  6  8  1  0  0  0  0
  7  9  1  0  0  0  0
  8  5  1  0  0  0  0
 10  9  1  0  0  0  0
 11  3  1  6  0  0  0
 11 10  1  0  0  0  0
 12  2  1  0  0  0  0
 13 12  1  0  0  0  0
 14 13  1  0  0  0  0
 15 19  1  0  0  0  0
 15 14  1  0  0  0  0
 16 19  1  0  0  0  0
 17 18  1  0  0  0  0
 17 16  1  0  0  0  0
 18 20  1  0  0  0  0
 20 15  1  0  0  0  0
 21  1  1  0  0  0  0
 22 21  1  0  0  0  0
 23 22  1  0  0  0  0
 24 28  2  0  0  0  0
 24 26  1  0  0  0  0
 25 30  1  0  0  0  0
 26 25  2  0  0  0  0
 27 24  1  0  0  0  0
 28 29  1  0  0  0  0
 29 30  2  0  0  0  0
 30 23  1  0  0  0  0
M  END
>  <MODEL>
7

>  <REMARK>
 VINA RESULT:      -7.0      0.926      1.527
  Name = 
  10 active torsions:
  status: ('A' for Active; 'I' for Inactive)
    1  A    between atoms: N_1  and  C_17
    2  A    between atoms: C_2  and  C_19
    3  A    between atoms: C_2  and  N_30
    4  A    between atoms: N_9  and  C_19
    5  A    between atoms: N_9  and  C_27
    6  A    between atoms: N_12  and  C_18
    7  A    between atoms: N_12  and  C_25
    8  A    between atoms: C_14  and  C_16
    9  A    between atoms: C_14  and  C_18
   10  A    between atoms: C_17  and  N_30
                            x       y       z     vdW  Elec       q    Type
                         _______ _______ _______ _____ _____    ______ ____

>  <TORSDO>
F 10

$$$$
=
 OpenBabel11042420123D

 30 32  0  0  1  0  0  0  0  0999 V2000
  162.0890  206.6930  150.3470 C   0  0  0  0  0  3  0  0  0  0  0  0
  161.6320  206.1160  151.4630 C   0  0  0  0  0  0  0  0  0  0  0  0
  161.8290  204.7070  151.6640 N   0  0  0  0  0  0  0  0  0  0  0  0
  163.0530  204.2370  152.0110 O   0  0  0  0  0  1  0  0  0  0  0  0
  161.1190  201.3250  149.4950 C   0  0  0  0  0  2  0  0  0  0  0  0
  161.2120  202.3130  151.5540 C   0  0  0  0  0  2  0  0  0  0  0  0
  161.6460  202.6300  148.8650 C   0  0  0  0  0  2  0  0  0  0  0  0
  160.4330  201.4930  150.7190 O   0  0  0  0  0  0  0  0  0  0  0  0
  160.6350  203.7820  148.8440 C   0  0  0  0  0  2  0  0  0  0  0  0
  159.9330  204.0810  150.1800 C   0  0  0  0  0  2  0  0  0  0  0  0
  160.7290  203.7670  151.4600 C   0  0  2  0  0  3  0  0  0  0  0  0
  160.9580  206.9400  152.5200 C   0  0  0  0  0  2  0  0  0  0  0  0
  161.1890  206.3470  153.8250 N   0  0  0  0  0  2  0  0  0  0  0  0
  160.5220  207.1980  154.7940 C   0  0  0  0  0  2  0  0  0  0  0  0
  161.4050  208.2840  155.1820 N   0  0  0  0  0  0  0  0  0  0  0  0
  162.3260  209.3940  157.2030 C   0  0  0  0  0  2  0  0  0  0  0  0
  162.6990  210.3340  156.1470 N   0  0  0  0  0  2  0  0  0  0  0  0
  161.4950  210.7460  155.4230 C   0  0  0  0  0  2  0  0  0  0  0  0
  161.6270  208.1540  156.6220 C   0  0  0  0  0  2  0  0  0  0  0  0
  160.6880  209.5350  154.9260 C   0  0  0  0  0  2  0  0  0  0  0  0
  161.9490  208.1540  150.0590 C   0  0  0  0  0  2  0  0  0  0  0  0
  161.9600  208.3960  148.5620 C   0  0  0  0  0  2  0  0  0  0  0  0
  162.6590  207.3130  147.8860 N   0  0  0  0  0  2  0  0  0  0  0  0
  160.8340  204.7630  145.0430 C   0  0  0  0  0  0  0  0  0  0  0  0
  160.7220  206.7090  146.4800 C   0  0  0  0  0  3  0  0  0  0  0  0
  160.1270  205.8610  145.5400 C   0  0  0  0  0  3  0  0  0  0  0  0
  160.2580  203.9410  144.1340 F   0  0  0  0  0  0  0  0  0  0  0  0
  162.1370  204.5120  145.4860 C   0  0  0  0  0  3  0  0  0  0  0  0
  162.7310  205.3590  146.4260 C   0  0  0  0  0  3  0  0  0  0  0  0
  162.0290  206.4600  146.9270 C   0  0  0  0  0  0  0  0  0  0  0  0
  1  2  2  0  0  0  0
  2  3  1  0  0  0  0
  2 12  1  0  0  0  0
  3  4  1  0  0  0  0
  5  8  1  0  0  0  0
  7  5  1  0  0  0  0
  8  6  1  0  0  0  0
  9  7  1  0  0  0  0
  9 10  1  0  0  0  0
 10 11  1  0  0  0  0
 11  6  1  0  0  0  0
 11  3  1  6  0  0  0
 12 13  1  0  0  0  0
 13 14  1  0  0  0  0
 14 15  1  0  0  0  0
 15 19  1  0  0  0  0
 17 16  1  0  0  0  0
 18 17  1  0  0  0  0
 19 16  1  0  0  0  0
 20 15  1  0  0  0  0
 20 18  1  0  0  0  0
 21  1  1  0  0  0  0
 22 21  1  0  0  0  0
 23 22  1  0  0  0  0
 24 28  2  0  0  0  0
 24 26  1  0  0  0  0
 25 30  1  0  0  0  0
 26 25  2  0  0  0  0
 27 24  1  0  0  0  0
 28 29  1  0  0  0  0
 29 30  2  0  0  0  0
 30 23  1  0  0  0  0
M  END
>  <MODEL>
8

>  <REMARK>
 VINA RESULT:      -6.9      2.721      7.455
  Name = 
  10 active torsions:
  status: ('A' for Active; 'I' for Inactive)
    1  A    between atoms: N_1  and  C_17
    2  A    between atoms: C_2  and  C_19
    3  A    between atoms: C_2  and  N_30
    4  A    between atoms: N_9  and  C_19
    5  A    between atoms: N_9  and  C_27
    6  A    between atoms: N_12  and  C_18
    7  A    between atoms: N_12  and  C_25
    8  A    between atoms: C_14  and  C_16
    9  A    between atoms: C_14  and  C_18
   10  A    between atoms: C_17  and  N_30
                            x       y       z     vdW  Elec       q    Type
                         _______ _______ _______ _____ _____    ______ ____

>  <TORSDO>
F 10

$$$$
=
 OpenBabel11042420123D

 30 32  0  0  1  0  0  0  0  0999 V2000
  161.5550  206.7150  149.9570 C   0  0  0  0  0  3  0  0  0  0  0  0
  161.6830  207.2510  148.7400 C   0  0  0  0  0  0  0  0  0  0  0  0
  160.9790  206.6690  147.6310 N   0  0  0  0  0  0  0  0  0  0  0  0
  159.6970  206.2540  147.7850 O   0  0  0  0  0  1  0  0  0  0  0  0
  160.8300  204.0400  144.5140 C   0  0  0  0  0  2  0  0  0  0  0  0
  160.6300  206.2030  145.2250 C   0  0  0  0  0  2  0  0  0  0  0  0
  161.0190  203.5950  145.9790 C   0  0  0  0  0  2  0  0  0  0  0  0
  161.2090  205.3760  144.2480 O   0  0  0  0  0  0  0  0  0  0  0  0
  162.3680  203.9810  146.5940 C   0  0  0  0  0  2  0  0  0  0  0  0
  162.7850  205.4530  146.4270 C   0  0  0  0  0  2  0  0  0  0  0  0
  161.6440  206.4840  146.3430 C   0  0  2  0  0  3  0  0  0  0  0  0
  162.5220  208.4790  148.5380 C   0  0  0  0  0  2  0  0  0  0  0  0
  161.6640  209.6440  148.4170 N   0  0  0  0  0  2  0  0  0  0  0  0
  162.3260  210.7250  149.1240 C   0  0  0  0  0  2  0  0  0  0  0  0
  161.9130  212.0010  148.5670 N   0  0  0  0  0  0  0  0  0  0  0  0
  160.5510  212.9500  146.7190 C   0  0  0  0  0  2  0  0  0  0  0  0
  161.2650  214.1300  147.2040 N   0  0  0  0  0  2  0  0  0  0  0  0
  162.7060  213.8730  147.1550 C   0  0  0  0  0  2  0  0  0  0  0  0
  160.8810  211.7120  147.5700 C   0  0  0  0  0  2  0  0  0  0  0  0
  163.0770  212.5730  147.8880 C   0  0  0  0  0  2  0  0  0  0  0  0
  162.2320  207.2610  151.1730 C   0  0  0  0  0  2  0  0  0  0  0  0
  162.3320  206.1910  152.2430 C   0  0  0  0  0  2  0  0  0  0  0  0
  161.1510  205.3410  152.2100 N   0  0  0  0  0  2  0  0  0  0  0  0
  160.9710  201.7220  150.0230 C   0  0  0  0  0  0  0  0  0  0  0  0
  161.6450  202.9300  152.0100 C   0  0  0  0  0  3  0  0  0  0  0  0
  161.5800  201.7390  151.2810 C   0  0  0  0  0  3  0  0  0  0  0  0
  160.9100  200.5680  149.3160 F   0  0  0  0  0  0  0  0  0  0  0  0
  160.4260  202.8960  149.4950 C   0  0  0  0  0  3  0  0  0  0  0  0
  160.4910  204.0870  150.2240 C   0  0  0  0  0  3  0  0  0  0  0  0
  161.0990  204.1110  151.4830 C   0  0  0  0  0  0  0  0  0  0  0  0
  1 21  1  0  0  0  0
  2  1  2  0  0  0  0
  3  4  1  0  0  0  0
  3  2  1  0  0  0  0
  5  7  1  0  0  0  0
  6 11  1  0  0  0  0
  7  9  1  0  0  0  0
  8  5  1  0  0  0  0
  8  6  1  0  0  0  0
 10  9  1  0  0  0  0
 11 10  1  0  0  0  0
 11  3  1  1  0  0  0
 12  2  1  0  0  0  0
 13 12  1  0  0  0  0
 13 14  1  0  0  0  0
 15 14  1  0  0  0  0
 16 17  1  0  0  0  0
 16 19  1  0  0  0  0
 18 17  1  0  0  0  0
 18 20  1  0  0  0  0
 19 15  1  0  0  0  0
 20 15  1  0  0  0  0
 21 22  1  0  0  0  0
 23 22  1  0  0  0  0
 24 26  1  0  0  0  0
 26 25  2  0  0  0  0
 27 24  1  0  0  0  0
 28 24  2  0  0  0  0
 28 29  1  0  0  0  0
 29 30  2  0  0  0  0
 30 25  1  0  0  0  0
 30 23  1  0  0  0  0
M  END
>  <MODEL>
9

>  <REMARK>
 VINA RESULT:      -6.6      3.463      6.455
  Name = 
  10 active torsions:
  status: ('A' for Active; 'I' for Inactive)
    1  A    between atoms: N_1  and  C_17
    2  A    between atoms: C_2  and  C_19
    3  A    between atoms: C_2  and  N_30
    4  A    between atoms: N_9  and  C_19
    5  A    between atoms: N_9  and  C_27
    6  A    between atoms: N_12  and  C_18
    7  A    between atoms: N_12  and  C_25
    8  A    between atoms: C_14  and  C_16
    9  A    between atoms: C_14  and  C_18
   10  A    between atoms: C_17  and  N_30
                            x       y       z     vdW  Elec       q    Type
                         _______ _______ _______ _____ _____    ______ ____

>  <TORSDO>
F 10

$$$$
