=
 OpenBabel11042423083D

 37 42  0  0  1  0  0  0  0  0999 V2000
  161.4480  209.5930  153.5620 C   0  0  2  0  0  3  0  0  0  0  0  0
  160.7090  208.3770  151.5380 C   0  0  0  0  0  2  0  0  0  0  0  0
  161.9990  208.1370  150.7370 C   0  0  0  0  0  2  0  0  0  0  0  0
  161.8280  205.6600  151.4890 C   0  0  2  0  0  3  0  0  0  0  0  0
  161.5680  207.1920  153.5460 C   0  0  0  0  0  2  0  0  0  0  0  0
  160.8590  208.3610  153.0090 N   0  0  0  0  0  0  0  0  0  0  0  0
  161.1510  205.8860  152.8580 C   0  0  2  0  0  3  0  0  0  0  0  0
  162.7340  206.8270  151.0500 C   0  0  0  0  0  2  0  0  0  0  0  0
  161.4520  204.8220  153.6850 F   0  0  0  0  0  0  0  0  0  0  0  0
  160.9710  202.9280  149.5740 C   0  0  1  0  0  3  0  0  0  0  0  0
  160.3280  203.8110  150.6480 C   0  0  0  0  0  2  0  0  0  0  0  0
  159.9090  202.0860  148.8980 C   0  0  0  0  0  1  0  0  0  0  0  0
  161.5460  203.8160  148.6360 O   0  0  0  0  0  0  0  0  0  0  0  0
  161.8860  206.0900  148.3970 O   0  0  0  0  0  0  0  0  0  0  0  0
  161.4750  205.1170  149.0810 C   0  0  0  0  0  0  0  0  0  0  0  0
  160.8190  205.2440  150.4060 C   0  0  2  0  0  3  0  0  0  0  0  0
  161.7840  210.2950  157.2610 C   0  0  0  0  0  2  0  0  0  0  0  0
  163.3500  210.7690  155.5010 N   0  0  0  0  0  1  0  0  0  0  0  0
  161.6250  208.8410  157.2240 N   0  0  0  0  0  2  0  0  0  0  0  0
  161.9360  210.7940  155.8440 C   0  0  1  0  0  3  0  0  0  0  0  0
  161.2950  208.4790  155.8480 C   0  0  0  0  0  2  0  0  0  0  0  0
  161.1470  209.7620  155.0610 C   0  0  2  0  0  3  0  0  0  0  0  0
  161.1340  210.7890  152.7780 N   0  0  0  0  0  2  0  0  0  0  0  0
  159.2620  211.3390  154.2590 C   0  0  0  0  0  2  0  0  0  0  0  0
  158.0010  213.3730  153.4930 C   0  0  2  0  0  3  0  0  0  0  0  0
  159.1060  214.0420  156.6790 C   0  0  0  0  0  2  0  0  0  0  0  0
  159.6930  210.9830  152.8280 C   0  0  1  0  0  3  0  0  0  0  0  0
  158.8790  212.5880  157.0810 C   0  0  0  0  0  2  0  0  0  0  0  0
  157.4890  213.6000  151.0580 C   0  0  0  0  0  1  0  0  0  0  0  0
  157.9160  212.6330  152.1460 C   0  0  1  0  0  3  0  0  0  0  0  0
  155.9260  214.4520  153.9350 F   0  0  0  0  0  0  0  0  0  0  0  0
  159.2640  212.0200  151.7810 C   0  0  0  0  0  2  0  0  0  0  0  0
  159.0490  212.8440  154.4490 C   0  0  1  0  0  3  0  0  0  0  0  0
  158.3570  213.1060  155.7580 C   0  0  0  0  0  0  0  0  0  0  0  0
  156.9940  213.4200  155.6680 O   0  0  0  0  0  0  0  0  0  0  0  0
  156.6920  213.3560  154.2910 C   0  0  0  0  0  0  0  0  0  0  0  0
  155.9740  212.1960  154.0460 F   0  0  0  0  0  0  0  0  0  0  0  0
  1 23  1  6  0  0  0
  2  6  1  0  0  0  0
  3  8  1  0  0  0  0
  3  2  1  0  0  0  0
  4  8  1  6  0  0  0
  4  7  1  0  0  0  0
  6  5  1  0  0  0  0
  6  1  1  0  0  0  0
  7  5  1  0  0  0  0
  7  9  1  1  0  0  0
 10 12  1  6  0  0  0
 10 11  1  0  0  0  0
 13 15  1  0  0  0  0
 13 10  1  0  0  0  0
 14 15  2  0  0  0  0
 15 16  1  0  0  0  0
 16 11  1  1  0  0  0
 16  4  1  0  0  0  0
 19 17  1  0  0  0  0
 20 18  1  6  0  0  0
 20 17  1  0  0  0  0
 21 19  1  0  0  0  0
 22  1  1  6  0  0  0
 22 20  1  0  0  0  0
 22 21  1  0  0  0  0
 25 36  1  1  0  0  0
 25 33  1  0  0  0  0
 26 28  1  0  0  0  0
 27 23  1  1  0  0  0
 27 24  1  0  0  0  0
 30 29  1  6  0  0  0
 30 25  1  0  0  0  0
 31 36  1  0  0  0  0
 32 30  1  0  0  0  0
 32 27  1  0  0  0  0
 33 24  1  6  0  0  0
 33 34  1  0  0  0  0
 34 26  1  0  0  0  0
 34 28  1  0  0  0  0
 35 34  1  0  0  0  0
 36 35  1  0  0  0  0
 37 36  1  0  0  0  0
M  END
>  <MODEL>
1

>  <REMARK>
 VINA RESULT:      -8.0      0.000      0.000
  Name = 
  5 active torsions:
  status: ('A' for Active; 'I' for Inactive)
    1  A    between atoms: N_3  and  C_7
    2  A    between atoms: N_3  and  C_10
    3  A    between atoms: C_10  and  N_26
    4  A    between atoms: C_10  and  C_32
    5  A    between atoms: C_22  and  C_37
                            x       y       z     vdW  Elec       q    Type
                         _______ _______ _______ _____ _____    ______ ____

>  <TORSDO>
F 5

$$$$
=
 OpenBabel11042423083D

 37 42  0  0  1  0  0  0  0  0999 V2000
  161.8900  209.9180  150.3310 C   0  0  2  0  0  3  0  0  0  0  0  0
  162.3690  207.5090  150.6290 C   0  0  0  0  0  2  0  0  0  0  0  0
  161.0640  206.9200  151.1910 C   0  0  0  0  0  2  0  0  0  0  0  0
  160.6950  205.8850  148.8400 C   0  0  2  0  0  3  0  0  0  0  0  0
  161.2600  208.3880  148.5870 C   0  0  0  0  0  2  0  0  0  0  0  0
  162.2060  208.6330  149.6830 N   0  0  0  0  0  0  0  0  0  0  0  0
  161.3930  206.9770  148.0010 C   0  0  2  0  0  3  0  0  0  0  0  0
  160.0630  206.4200  150.1410 C   0  0  0  0  0  2  0  0  0  0  0  0
  160.8660  206.9630  146.7250 F   0  0  0  0  0  0  0  0  0  0  0  0
  160.8060  202.5060  148.1830 C   0  0  1  0  0  3  0  0  0  0  0  0
  161.6120  203.7600  147.8320 C   0  0  0  0  0  2  0  0  0  0  0  0
  161.6040  201.2680  147.8330 C   0  0  0  0  0  1  0  0  0  0  0  0
  160.5960  202.5600  149.5810 O   0  0  0  0  0  0  0  0  0  0  0  0
  160.9840  204.0220  151.3290 O   0  0  0  0  0  0  0  0  0  0  0  0
  161.0300  203.7590  150.0990 C   0  0  0  0  0  0  0  0  0  0  0  0
  161.6010  204.6640  149.0710 C   0  0  2  0  0  3  0  0  0  0  0  0
  162.2670  213.0810  148.2960 C   0  0  0  0  0  2  0  0  0  0  0  0
  160.2690  212.1460  149.2500 N   0  0  0  0  0  1  0  0  0  0  0  0
  162.7480  212.0490  147.3770 N   0  0  0  0  0  2  0  0  0  0  0  0
  161.6780  212.4010  149.5090 C   0  0  1  0  0  3  0  0  0  0  0  0
  162.8250  210.8010  148.1320 C   0  0  0  0  0  2  0  0  0  0  0  0
  162.4830  211.1170  149.5710 C   0  0  2  0  0  3  0  0  0  0  0  0
  162.2010  209.9380  151.7620 N   0  0  0  0  0  2  0  0  0  0  0  0
  161.0460  209.3040  153.8270 C   0  0  0  0  0  2  0  0  0  0  0  0
  160.2250  211.2990  155.1160 C   0  0  2  0  0  3  0  0  0  0  0  0
  162.3220  209.5640  157.2170 C   0  0  0  0  0  2  0  0  0  0  0  0
  160.9420  210.0430  152.4840 C   0  0  1  0  0  3  0  0  0  0  0  0
  161.8290  208.2400  156.6420 C   0  0  0  0  0  2  0  0  0  0  0  0
  159.1300  213.1550  153.8510 C   0  0  0  0  0  1  0  0  0  0  0  0
  159.5660  211.7030  153.7850 C   0  0  1  0  0  3  0  0  0  0  0  0
  158.7350  211.7670  156.9120 F   0  0  0  0  0  0  0  0  0  0  0  0
  160.5360  211.5170  152.6230 C   0  0  0  0  0  2  0  0  0  0  0  0
  161.3140  210.2530  154.9990 C   0  0  1  0  0  3  0  0  0  0  0  0
  161.1180  209.5320  156.3040 C   0  0  0  0  0  0  0  0  0  0  0  0
  159.9240  209.8200  156.9790 O   0  0  0  0  0  0  0  0  0  0  0  0
  159.2410  210.7310  156.1450 C   0  0  0  0  0  0  0  0  0  0  0  0
  158.1940  210.0680  155.5230 F   0  0  0  0  0  0  0  0  0  0  0  0
  1 23  1  1  0  0  0
  2  3  1  0  0  0  0
  4 16  1  0  0  0  0
  4  8  1  1  0  0  0
  5  6  1  0  0  0  0
  6  1  1  0  0  0  0
  6  2  1  0  0  0  0
  7  9  1  6  0  0  0
  7  5  1  0  0  0  0
  7  4  1  0  0  0  0
  8  3  1  0  0  0  0
 10 12  1  1  0  0  0
 10 13  1  0  0  0  0
 11 10  1  0  0  0  0
 13 15  1  0  0  0  0
 15 14  2  0  0  0  0
 16 11  1  6  0  0  0
 16 15  1  0  0  0  0
 17 20  1  0  0  0  0
 19 21  1  0  0  0  0
 19 17  1  0  0  0  0
 20 18  1  6  0  0  0
 20 22  1  0  0  0  0
 21 22  1  0  0  0  0
 22  1  1  6  0  0  0
 25 36  1  1  0  0  0
 27 23  1  1  0  0  0
 27 32  1  0  0  0  0
 27 24  1  0  0  0  0
 28 26  1  0  0  0  0
 30 29  1  1  0  0  0
 30 25  1  0  0  0  0
 32 30  1  0  0  0  0
 33 24  1  6  0  0  0
 33 25  1  0  0  0  0
 33 34  1  0  0  0  0
 34 28  1  0  0  0  0
 34 35  1  0  0  0  0
 34 26  1  0  0  0  0
 36 31  1  0  0  0  0
 36 35  1  0  0  0  0
 37 36  1  0  0  0  0
M  END
>  <MODEL>
2

>  <REMARK>
 VINA RESULT:      -8.0      2.755      4.630
  Name = 
  5 active torsions:
  status: ('A' for Active; 'I' for Inactive)
    1  A    between atoms: N_3  and  C_7
    2  A    between atoms: N_3  and  C_10
    3  A    between atoms: C_10  and  N_26
    4  A    between atoms: C_10  and  C_32
    5  A    between atoms: C_22  and  C_37
                            x       y       z     vdW  Elec       q    Type
                         _______ _______ _______ _____ _____    ______ ____

>  <TORSDO>
F 5

$$$$
=
 OpenBabel11042423083D

 37 42  0  0  1  0  0  0  0  0999 V2000
  162.2640  208.6170  151.9230 C   0  0  2  0  0  3  0  0  0  0  0  0
  163.0810  206.5890  150.7670 C   0  0  0  0  0  2  0  0  0  0  0  0
  162.5710  205.4200  151.6270 C   0  0  0  0  0  2  0  0  0  0  0  0
  160.8330  204.9930  149.7480 C   0  0  2  0  0  3  0  0  0  0  0  0
  160.7970  207.4900  150.3870 C   0  0  0  0  0  2  0  0  0  0  0  0
  162.2000  207.7750  150.7160 N   0  0  0  0  0  0  0  0  0  0  0  0
  160.6570  206.4500  149.2690 C   0  0  2  0  0  3  0  0  0  0  0  0
  161.1890  204.8760  151.2440 C   0  0  0  0  0  2  0  0  0  0  0  0
  159.4130  206.5780  148.6830 F   0  0  0  0  0  0  0  0  0  0  0  0
  161.2980  204.2170  146.4240 C   0  0  1  0  0  3  0  0  0  0  0  0
  162.0490  204.9580  147.5350 C   0  0  0  0  0  2  0  0  0  0  0  0
  162.2310  203.9540  145.2620 C   0  0  0  0  0  1  0  0  0  0  0  0
  160.8820  202.9900  146.9900 O   0  0  0  0  0  0  0  0  0  0  0  0
  160.8950  201.9500  149.0550 O   0  0  0  0  0  0  0  0  0  0  0  0
  161.1410  202.9570  148.3420 C   0  0  0  0  0  0  0  0  0  0  0  0
  161.7860  204.1970  148.8410 C   0  0  2  0  0  3  0  0  0  0  0  0
  159.8070  208.8860  154.7840 C   0  0  0  0  0  2  0  0  0  0  0  0
  161.6980  210.2880  154.3000 N   0  0  0  0  0  1  0  0  0  0  0  0
  160.3830  207.5550  154.9800 N   0  0  0  0  0  2  0  0  0  0  0  0
  160.5810  209.5830  153.6900 C   0  0  1  0  0  3  0  0  0  0  0  0
  161.2140  207.2690  153.8130 C   0  0  0  0  0  2  0  0  0  0  0  0
  161.0460  208.4160  152.8410 C   0  0  2  0  0  3  0  0  0  0  0  0
  162.5340  210.0260  151.6340 N   0  0  0  0  0  2  0  0  0  0  0  0
  160.5770  211.1570  150.6900 C   0  0  0  0  0  2  0  0  0  0  0  0
  161.2090  212.9850  149.0860 C   0  0  2  0  0  3  0  0  0  0  0  0
  159.3230  214.4530  151.5560 C   0  0  0  0  0  2  0  0  0  0  0  0
  161.8550  210.3590  150.3910 C   0  0  1  0  0  3  0  0  0  0  0  0
  158.4460  213.2080  151.6500 C   0  0  0  0  0  2  0  0  0  0  0  0
  163.0330  212.5350  147.4380 C   0  0  0  0  0  1  0  0  0  0  0  0
  162.0540  211.8940  148.4040 C   0  0  1  0  0  3  0  0  0  0  0  0
  160.1670  214.3330  147.4240 F   0  0  0  0  0  0  0  0  0  0  0  0
  162.8210  211.0790  149.4400 C   0  0  0  0  0  2  0  0  0  0  0  0
  160.7700  212.6650  150.4990 C   0  0  1  0  0  3  0  0  0  0  0  0
  159.4380  213.3620  150.5170 C   0  0  0  0  0  0  0  0  0  0  0  0
  158.9470  213.7600  149.2650 O   0  0  0  0  0  0  0  0  0  0  0  0
  159.9150  213.3230  148.3360 C   0  0  0  0  0  0  0  0  0  0  0  0
  159.4220  212.2140  147.6660 F   0  0  0  0  0  0  0  0  0  0  0  0
  1 23  1  6  0  0  0
  2  3  1  0  0  0  0
  4  8  1  1  0  0  0
  5  6  1  0  0  0  0
  6  2  1  0  0  0  0
  6  1  1  0  0  0  0
  7  9  1  1  0  0  0
  7  4  1  0  0  0  0
  7  5  1  0  0  0  0
  8  3  1  0  0  0  0
 10 12  1  6  0  0  0
 10 13  1  0  0  0  0
 10 11  1  0  0  0  0
 13 15  1  0  0  0  0
 15 16  1  0  0  0  0
 15 14  2  0  0  0  0
 16 11  1  6  0  0  0
 16  4  1  0  0  0  0
 17 19  1  0  0  0  0
 20 18  1  1  0  0  0
 20 17  1  0  0  0  0
 21 19  1  0  0  0  0
 22  1  1  1  0  0  0
 22 20  1  0  0  0  0
 22 21  1  0  0  0  0
 25 36  1  6  0  0  0
 25 33  1  0  0  0  0
 26 28  1  0  0  0  0
 27 24  1  0  0  0  0
 27 23  1  1  0  0  0
 30 29  1  6  0  0  0
 30 25  1  0  0  0  0
 30 32  1  0  0  0  0
 31 36  1  0  0  0  0
 32 27  1  0  0  0  0
 33 34  1  0  0  0  0
 33 24  1  6  0  0  0
 34 26  1  0  0  0  0
 34 28  1  0  0  0  0
 35 34  1  0  0  0  0
 36 35  1  0  0  0  0
 37 36  1  0  0  0  0
M  END
>  <MODEL>
3

>  <REMARK>
 VINA RESULT:      -7.7      3.159      4.300
  Name = 
  5 active torsions:
  status: ('A' for Active; 'I' for Inactive)
    1  A    between atoms: N_3  and  C_7
    2  A    between atoms: N_3  and  C_10
    3  A    between atoms: C_10  and  N_26
    4  A    between atoms: C_10  and  C_32
    5  A    between atoms: C_22  and  C_37
                            x       y       z     vdW  Elec       q    Type
                         _______ _______ _______ _____ _____    ______ ____

>  <TORSDO>
F 5

$$$$
=
 OpenBabel11042423083D

 37 42  0  0  1  0  0  0  0  0999 V2000
  161.4030  209.4570  153.5500 C   0  0  2  0  0  3  0  0  0  0  0  0
  160.6240  208.1160  151.6230 C   0  0  0  0  0  2  0  0  0  0  0  0
  161.8920  207.8610  150.7900 C   0  0  0  0  0  2  0  0  0  0  0  0
  161.8060  205.4250  151.6810 C   0  0  2  0  0  3  0  0  0  0  0  0
  161.5800  207.0620  153.6600 C   0  0  0  0  0  2  0  0  0  0  0  0
  160.8260  208.1840  153.0860 N   0  0  0  0  0  0  0  0  0  0  0  0
  161.1710  205.7120  153.0590 C   0  0  2  0  0  3  0  0  0  0  0  0
  162.6680  206.5870  151.1480 C   0  0  0  0  0  2  0  0  0  0  0  0
  161.5250  204.7010  153.9310 F   0  0  0  0  0  0  0  0  0  0  0  0
  161.0320  202.6160  149.8440 C   0  0  1  0  0  3  0  0  0  0  0  0
  160.3890  203.4700  150.9420 C   0  0  0  0  0  2  0  0  0  0  0  0
  159.9930  201.6970  149.2360 C   0  0  0  0  0  1  0  0  0  0  0  0
  161.4950  203.5270  148.8670 O   0  0  0  0  0  0  0  0  0  0  0  0
  161.6710  205.8150  148.5860 O   0  0  0  0  0  0  0  0  0  0  0  0
  161.3620  204.8260  149.3020 C   0  0  0  0  0  0  0  0  0  0  0  0
  160.7700  204.9290  150.6580 C   0  0  2  0  0  3  0  0  0  0  0  0
  161.6740  210.4120  157.1970 C   0  0  0  0  0  2  0  0  0  0  0  0
  163.3020  210.6960  155.4530 N   0  0  0  0  0  1  0  0  0  0  0  0
  161.4570  208.9660  157.2600 N   0  0  0  0  0  2  0  0  0  0  0  0
  161.8820  210.8010  155.7530 C   0  0  1  0  0  3  0  0  0  0  0  0
  161.1480  208.5180  155.9040 C   0  0  0  0  0  2  0  0  0  0  0  0
  161.0720  209.7460  155.0240 C   0  0  2  0  0  3  0  0  0  0  0  0
  161.1060  210.5860  152.6660 N   0  0  0  0  0  2  0  0  0  0  0  0
  159.8080  212.6550  152.4820 C   0  0  0  0  0  2  0  0  0  0  0  0
  157.3900  212.3240  153.0770 C   0  0  2  0  0  3  0  0  0  0  0  0
  157.4540  213.5370  149.8610 C   0  0  0  0  0  2  0  0  0  0  0  0
  160.2620  211.5130  153.4040 C   0  0  1  0  0  3  0  0  0  0  0  0
  158.6480  214.4230  150.2020 C   0  0  0  0  0  2  0  0  0  0  0  0
  156.8440  210.9410  155.0850 C   0  0  0  0  0  1  0  0  0  0  0  0
  157.9450  211.7030  154.3710 C   0  0  1  0  0  3  0  0  0  0  0  0
  155.4850  213.6550  153.5910 F   0  0  0  0  0  0  0  0  0  0  0  0
  159.1010  210.7570  154.0640 C   0  0  0  0  0  2  0  0  0  0  0  0
  158.3890  212.4460  151.9460 C   0  0  1  0  0  3  0  0  0  0  0  0
  157.8890  213.7080  151.2980 C   0  0  0  0  0  0  0  0  0  0  0  0
  156.9700  214.4510  152.0530 O   0  0  0  0  0  0  0  0  0  0  0  0
  156.8260  213.7380  153.2620 C   0  0  0  0  0  0  0  0  0  0  0  0
  157.5030  214.4170  154.2630 F   0  0  0  0  0  0  0  0  0  0  0  0
  1 23  1  6  0  0  0
  2  6  1  0  0  0  0
  3  8  1  0  0  0  0
  3  2  1  0  0  0  0
  4  8  1  6  0  0  0
  4  7  1  0  0  0  0
  6  1  1  0  0  0  0
  6  5  1  0  0  0  0
  7  5  1  0  0  0  0
  7  9  1  1  0  0  0
 10 12  1  6  0  0  0
 10 11  1  0  0  0  0
 13 15  1  0  0  0  0
 13 10  1  0  0  0  0
 14 15  2  0  0  0  0
 15 16  1  0  0  0  0
 16 11  1  1  0  0  0
 16  4  1  0  0  0  0
 17 19  1  0  0  0  0
 20 18  1  6  0  0  0
 20 17  1  0  0  0  0
 21 19  1  0  0  0  0
 22  1  1  6  0  0  0
 22 20  1  0  0  0  0
 22 21  1  0  0  0  0
 24 27  1  0  0  0  0
 25 36  1  1  0  0  0
 25 30  1  0  0  0  0
 26 28  1  0  0  0  0
 26 34  1  0  0  0  0
 27 23  1  6  0  0  0
 27 32  1  0  0  0  0
 28 34  1  0  0  0  0
 30 29  1  6  0  0  0
 32 30  1  0  0  0  0
 33 24  1  1  0  0  0
 33 25  1  0  0  0  0
 34 33  1  0  0  0  0
 34 35  1  0  0  0  0
 35 36  1  0  0  0  0
 36 31  1  0  0  0  0
 36 37  1  0  0  0  0
M  END
>  <MODEL>
4

>  <REMARK>
 VINA RESULT:      -7.6      1.197      2.309
  Name = 
  5 active torsions:
  status: ('A' for Active; 'I' for Inactive)
    1  A    between atoms: N_3  and  C_7
    2  A    between atoms: N_3  and  C_10
    3  A    between atoms: C_10  and  N_26
    4  A    between atoms: C_10  and  C_32
    5  A    between atoms: C_22  and  C_37
                            x       y       z     vdW  Elec       q    Type
                         _______ _______ _______ _____ _____    ______ ____

>  <TORSDO>
F 5

$$$$
=
 OpenBabel11042423083D

 37 42  0  0  1  0  0  0  0  0999 V2000
  162.0670  208.3230  152.5260 C   0  0  2  0  0  3  0  0  0  0  0  0
  162.9900  206.5070  151.1210 C   0  0  0  0  0  2  0  0  0  0  0  0
  162.5420  205.2110  151.8180 C   0  0  0  0  0  2  0  0  0  0  0  0
  160.8280  204.9440  149.8880 C   0  0  2  0  0  3  0  0  0  0  0  0
  160.6620  207.3310  150.8460 C   0  0  0  0  0  2  0  0  0  0  0  0
  162.0480  207.6420  151.2190 N   0  0  0  0  0  0  0  0  0  0  0  0
  160.5760  206.4400  149.6020 C   0  0  2  0  0  3  0  0  0  0  0  0
  161.1900  204.6510  151.3580 C   0  0  0  0  0  2  0  0  0  0  0  0
  159.3270  206.5780  149.0290 F   0  0  0  0  0  0  0  0  0  0  0  0
  161.3530  204.6650  146.4950 C   0  0  1  0  0  3  0  0  0  0  0  0
  162.0630  205.2710  147.7100 C   0  0  0  0  0  2  0  0  0  0  0  0
  162.3060  204.6070  145.3200 C   0  0  0  0  0  1  0  0  0  0  0  0
  160.9840  203.3550  146.8770 O   0  0  0  0  0  0  0  0  0  0  0  0
  161.0230  202.0340  148.7730 O   0  0  0  0  0  0  0  0  0  0  0  0
  161.2330  203.1410  148.2130 C   0  0  0  0  0  0  0  0  0  0  0  0
  161.8210  204.3220  148.8920 C   0  0  2  0  0  3  0  0  0  0  0  0
  159.7370  207.8990  155.4720 C   0  0  0  0  0  2  0  0  0  0  0  0
  161.5680  209.4350  155.2230 N   0  0  0  0  0  1  0  0  0  0  0  0
  160.3540  206.5760  155.3590 N   0  0  0  0  0  2  0  0  0  0  0  0
  160.4420  208.8360  154.5220 C   0  0  1  0  0  3  0  0  0  0  0  0
  161.1380  206.5710  154.1260 C   0  0  0  0  0  2  0  0  0  0  0  0
  160.8980  207.8910  153.4270 C   0  0  2  0  0  3  0  0  0  0  0  0
  162.2020  209.7770  152.4220 N   0  0  0  0  0  2  0  0  0  0  0  0
  159.9630  210.7670  152.3560 C   0  0  0  0  0  2  0  0  0  0  0  0
  159.9230  212.9630  151.1350 C   0  0  2  0  0  3  0  0  0  0  0  0
  158.7550  213.5810  154.3090 C   0  0  0  0  0  2  0  0  0  0  0  0
  161.1540  210.2530  151.5320 C   0  0  1  0  0  3  0  0  0  0  0  0
  158.0560  212.2250  154.3330 C   0  0  0  0  0  2  0  0  0  0  0  0
  161.1960  213.1490  148.9920 C   0  0  0  0  0  1  0  0  0  0  0  0
  160.6120  212.1800  150.0030 C   0  0  1  0  0  3  0  0  0  0  0  0
  158.3180  214.4530  150.2030 F   0  0  0  0  0  0  0  0  0  0  0  0
  161.7220  211.2940  150.5580 C   0  0  0  0  0  2  0  0  0  0  0  0
  159.9600  212.2930  152.4920 C   0  0  1  0  0  3  0  0  0  0  0  0
  158.6420  212.7600  153.0440 C   0  0  0  0  0  0  0  0  0  0  0  0
  157.7640  213.3300  152.1110 O   0  0  0  0  0  0  0  0  0  0  0  0
  158.4400  213.2490  150.8750 C   0  0  0  0  0  0  0  0  0  0  0  0
  157.8630  212.2410  150.1170 F   0  0  0  0  0  0  0  0  0  0  0  0
  1 23  1  6  0  0  0
  2  6  1  0  0  0  0
  2  3  1  0  0  0  0
  4  8  1  1  0  0  0
  5  6  1  0  0  0  0
  6  1  1  0  0  0  0
  7  9  1  1  0  0  0
  7  4  1  0  0  0  0
  7  5  1  0  0  0  0
  8  3  1  0  0  0  0
 10 12  1  6  0  0  0
 10 13  1  0  0  0  0
 10 11  1  0  0  0  0
 13 15  1  0  0  0  0
 15 14  2  0  0  0  0
 15 16  1  0  0  0  0
 16 11  1  6  0  0  0
 16  4  1  0  0  0  0
 19 17  1  0  0  0  0
 20 18  1  1  0  0  0
 20 17  1  0  0  0  0
 21 19  1  0  0  0  0
 22  1  1  1  0  0  0
 22 21  1  0  0  0  0
 22 20  1  0  0  0  0
 25 36  1  6  0  0  0
 25 33  1  0  0  0  0
 26 28  1  0  0  0  0
 27 24  1  0  0  0  0
 27 23  1  1  0  0  0
 30 29  1  6  0  0  0
 30 32  1  0  0  0  0
 30 25  1  0  0  0  0
 31 36  1  0  0  0  0
 32 27  1  0  0  0  0
 33 24  1  6  0  0  0
 33 34  1  0  0  0  0
 34 26  1  0  0  0  0
 34 28  1  0  0  0  0
 35 34  1  0  0  0  0
 36 35  1  0  0  0  0
 37 36  1  0  0  0  0
M  END
>  <MODEL>
5

>  <REMARK>
 VINA RESULT:      -6.9      2.256      3.160
  Name = 
  5 active torsions:
  status: ('A' for Active; 'I' for Inactive)
    1  A    between atoms: N_3  and  C_7
    2  A    between atoms: N_3  and  C_10
    3  A    between atoms: C_10  and  N_26
    4  A    between atoms: C_10  and  C_32
    5  A    between atoms: C_22  and  C_37
                            x       y       z     vdW  Elec       q    Type
                         _______ _______ _______ _____ _____    ______ ____

>  <TORSDO>
F 5

$$$$
=
 OpenBabel11042423083D

 37 42  0  0  1  0  0  0  0  0999 V2000
  162.2680  209.8590  149.5990 C   0  0  2  0  0  3  0  0  0  0  0  0
  162.0520  211.0830  151.7380 C   0  0  0  0  0  2  0  0  0  0  0  0
  160.6110  211.6200  151.7340 C   0  0  0  0  0  2  0  0  0  0  0  0
  160.0810  209.7820  153.4870 C   0  0  2  0  0  3  0  0  0  0  0  0
  161.3230  208.7200  151.4930 C   0  0  0  0  0  2  0  0  0  0  0  0
  162.2480  209.7790  151.0700 N   0  0  0  0  0  0  0  0  0  0  0  0
  161.0900  208.7160  153.0090 C   0  0  2  0  0  3  0  0  0  0  0  0
  159.5610  210.6890  152.3540 C   0  0  0  0  0  2  0  0  0  0  0  0
  160.6380  207.4700  153.3960 F   0  0  0  0  0  0  0  0  0  0  0  0
  162.0530  209.3590  156.2790 C   0  0  1  0  0  3  0  0  0  0  0  0
  162.0610  210.1970  154.9970 C   0  0  0  0  0  2  0  0  0  0  0  0
  163.0670  209.9100  157.2590 C   0  0  0  0  0  1  0  0  0  0  0  0
  160.7520  209.4850  156.8160 O   0  0  0  0  0  0  0  0  0  0  0  0
  158.7250  210.4280  156.2250 O   0  0  0  0  0  0  0  0  0  0  0  0
  159.9230  210.1590  155.9470 C   0  0  0  0  0  0  0  0  0  0  0  0
  160.6050  210.5740  154.6970 C   0  0  2  0  0  3  0  0  0  0  0  0
  161.8390  212.9960  147.5350 C   0  0  0  0  0  2  0  0  0  0  0  0
  160.7290  210.8790  147.2850 N   0  0  0  0  0  1  0  0  0  0  0  0
  163.2580  212.6860  147.3550 N   0  0  0  0  0  2  0  0  0  0  0  0
  161.1900  211.8480  148.2690 C   0  0  1  0  0  3  0  0  0  0  0  0
  163.5780  211.5920  148.2670 C   0  0  0  0  0  2  0  0  0  0  0  0
  162.3430  211.3100  149.0940 C   0  0  2  0  0  3  0  0  0  0  0  0
  161.2010  209.0860  148.9610 N   0  0  0  0  0  2  0  0  0  0  0  0
  161.9850  206.7840  149.2510 C   0  0  0  0  0  2  0  0  0  0  0  0
  160.8530  205.1810  147.6810 C   0  0  2  0  0  3  0  0  0  0  0  0
  160.2160  204.0550  150.8660 C   0  0  0  0  0  2  0  0  0  0  0  0
  161.8210  207.9600  148.2780 C   0  0  1  0  0  3  0  0  0  0  0  0
  161.6070  204.4900  151.3160 C   0  0  0  0  0  2  0  0  0  0  0  0
  160.5490  205.8730  145.3000 C   0  0  0  0  0  1  0  0  0  0  0  0
  161.2960  206.1680  146.5870 C   0  0  1  0  0  3  0  0  0  0  0  0
  161.1410  202.9520  146.9000 F   0  0  0  0  0  0  0  0  0  0  0  0
  161.0230  207.6070  147.0150 C   0  0  0  0  0  2  0  0  0  0  0  0
  160.8820  205.7330  149.0910 C   0  0  1  0  0  3  0  0  0  0  0  0
  161.2450  204.4840  149.8470 C   0  0  0  0  0  0  0  0  0  0  0  0
  161.7020  203.4150  149.0630 O   0  0  0  0  0  0  0  0  0  0  0  0
  161.6960  203.9030  147.7390 C   0  0  0  0  0  0  0  0  0  0  0  0
  163.0040  204.1490  147.3490 F   0  0  0  0  0  0  0  0  0  0  0  0
  1 23  1  6  0  0  0
  1  6  1  0  0  0  0
  3  2  1  0  0  0  0
  3  8  1  0  0  0  0
  4  8  1  6  0  0  0
  4 16  1  0  0  0  0
  5  7  1  0  0  0  0
  6  5  1  0  0  0  0
  6  2  1  0  0  0  0
  7  9  1  6  0  0  0
  7  4  1  0  0  0  0
 10 13  1  0  0  0  0
 10 12  1  1  0  0  0
 11 10  1  0  0  0  0
 15 14  2  0  0  0  0
 15 13  1  0  0  0  0
 16 11  1  1  0  0  0
 16 15  1  0  0  0  0
 17 20  1  0  0  0  0
 19 17  1  0  0  0  0
 19 21  1  0  0  0  0
 20 18  1  6  0  0  0
 20 22  1  0  0  0  0
 21 22  1  0  0  0  0
 22  1  1  6  0  0  0
 25 36  1  1  0  0  0
 25 33  1  0  0  0  0
 26 28  1  0  0  0  0
 27 23  1  1  0  0  0
 27 24  1  0  0  0  0
 30 29  1  6  0  0  0
 30 32  1  0  0  0  0
 30 25  1  0  0  0  0
 31 36  1  0  0  0  0
 32 27  1  0  0  0  0
 33 24  1  6  0  0  0
 33 34  1  0  0  0  0
 34 26  1  0  0  0  0
 34 28  1  0  0  0  0
 35 34  1  0  0  0  0
 36 35  1  0  0  0  0
 37 36  1  0  0  0  0
M  END
>  <MODEL>
6

>  <REMARK>
 VINA RESULT:      -6.8      3.226      8.644
  Name = 
  5 active torsions:
  status: ('A' for Active; 'I' for Inactive)
    1  A    between atoms: N_3  and  C_7
    2  A    between atoms: N_3  and  C_10
    3  A    between atoms: C_10  and  N_26
    4  A    between atoms: C_10  and  C_32
    5  A    between atoms: C_22  and  C_37
                            x       y       z     vdW  Elec       q    Type
                         _______ _______ _______ _____ _____    ______ ____

>  <TORSDO>
F 5

$$$$
=
 OpenBabel11042423083D

 37 42  0  0  1  0  0  0  0  0999 V2000
  161.4330  211.0700  150.7740 C   0  0  2  0  0  3  0  0  0  0  0  0
  160.5000  210.1530  152.8740 C   0  0  0  0  0  2  0  0  0  0  0  0
  161.1860  210.9600  153.9890 C   0  0  0  0  0  2  0  0  0  0  0  0
  158.9210  212.1890  154.2880 C   0  0  2  0  0  3  0  0  0  0  0  0
  159.5600  212.1820  151.7900 C   0  0  0  0  0  2  0  0  0  0  0  0
  160.2400  210.8920  151.6200 N   0  0  0  0  0  0  0  0  0  0  0  0
  158.4310  212.1170  152.8260 C   0  0  2  0  0  3  0  0  0  0  0  0
  160.4560  212.2380  154.4200 C   0  0  0  0  0  2  0  0  0  0  0  0
  157.5480  213.1550  152.6010 F   0  0  0  0  0  0  0  0  0  0  0  0
  156.1350  211.6750  156.2480 C   0  0  1  0  0  3  0  0  0  0  0  0
  156.7560  211.0870  154.9770 C   0  0  0  0  0  2  0  0  0  0  0  0
  155.0530  210.7500  156.7650 C   0  0  0  0  0  1  0  0  0  0  0  0
  157.1860  211.7550  157.1900 O   0  0  0  0  0  0  0  0  0  0  0  0
  159.4710  211.4080  157.2610 O   0  0  0  0  0  0  0  0  0  0  0  0
  158.3950  211.4440  156.6090 C   0  0  0  0  0  0  0  0  0  0  0  0
  158.2780  211.1050  155.1690 C   0  0  2  0  0  3  0  0  0  0  0  0
  161.7000  212.5800  147.3190 C   0  0  0  0  0  2  0  0  0  0  0  0
  163.4440  211.6390  148.6780 N   0  0  0  0  0  1  0  0  0  0  0  0
  161.1790  213.6920  148.1150 N   0  0  0  0  0  2  0  0  0  0  0  0
  162.0640  211.4530  148.2560 C   0  0  1  0  0  3  0  0  0  0  0  0
  160.8570  213.1610  149.4380 C   0  0  0  0  0  2  0  0  0  0  0  0
  161.0910  211.6670  149.3990 C   0  0  2  0  0  3  0  0  0  0  0  0
  162.2660  209.8690  150.6850 N   0  0  0  0  0  2  0  0  0  0  0  0
  161.1810  208.0160  149.5070 C   0  0  0  0  0  2  0  0  0  0  0  0
  161.8370  205.7750  150.4380 C   0  0  2  0  0  3  0  0  0  0  0  0
  162.7060  205.7520  147.1120 C   0  0  0  0  0  2  0  0  0  0  0  0
  161.3960  208.7160  150.8570 C   0  0  1  0  0  3  0  0  0  0  0  0
  161.4700  206.5760  146.7660 C   0  0  0  0  0  2  0  0  0  0  0  0
  161.9270  205.5060  152.9200 C   0  0  0  0  0  1  0  0  0  0  0  0
  161.4110  206.3760  151.7890 C   0  0  1  0  0  3  0  0  0  0  0  0
  161.1070  203.5130  150.3110 F   0  0  0  0  0  0  0  0  0  0  0  0
  161.9560  207.7910  151.9470 C   0  0  0  0  0  2  0  0  0  0  0  0
  162.0780  206.7860  149.3360 C   0  0  1  0  0  3  0  0  0  0  0  0
  161.6300  205.9810  148.1470 C   0  0  0  0  0  0  0  0  0  0  0  0
  160.9140  204.8120  148.4450 O   0  0  0  0  0  0  0  0  0  0  0  0
  160.8210  204.7870  149.8530 C   0  0  0  0  0  0  0  0  0  0  0  0
  159.5270  205.1260  150.2200 F   0  0  0  0  0  0  0  0  0  0  0  0
  1 23  1  6  0  0  0
  1  6  1  0  0  0  0
  2  3  1  0  0  0  0
  3  8  1  0  0  0  0
  4  8  1  6  0  0  0
  4 16  1  0  0  0  0
  5  7  1  0  0  0  0
  6  5  1  0  0  0  0
  6  2  1  0  0  0  0
  7  9  1  6  0  0  0
  7  4  1  0  0  0  0
 10 12  1  1  0  0  0
 10 13  1  0  0  0  0
 11 10  1  0  0  0  0
 15 13  1  0  0  0  0
 15 14  2  0  0  0  0
 16 11  1  6  0  0  0
 16 15  1  0  0  0  0
 17 19  1  0  0  0  0
 17 20  1  0  0  0  0
 19 21  1  0  0  0  0
 20 18  1  1  0  0  0
 20 22  1  0  0  0  0
 22 21  1  0  0  0  0
 22  1  1  1  0  0  0
 24 27  1  0  0  0  0
 25 36  1  6  0  0  0
 25 30  1  0  0  0  0
 26 34  1  0  0  0  0
 27 23  1  6  0  0  0
 27 32  1  0  0  0  0
 28 26  1  0  0  0  0
 28 34  1  0  0  0  0
 30 32  1  0  0  0  0
 30 29  1  1  0  0  0
 33 24  1  1  0  0  0
 33 25  1  0  0  0  0
 34 35  1  0  0  0  0
 34 33  1  0  0  0  0
 35 36  1  0  0  0  0
 36 37  1  0  0  0  0
 36 31  1  0  0  0  0
M  END
>  <MODEL>
7

>  <REMARK>
 VINA RESULT:      -6.5      2.593      8.790
  Name = 
  5 active torsions:
  status: ('A' for Active; 'I' for Inactive)
    1  A    between atoms: N_3  and  C_7
    2  A    between atoms: N_3  and  C_10
    3  A    between atoms: C_10  and  N_26
    4  A    between atoms: C_10  and  C_32
    5  A    between atoms: C_22  and  C_37
                            x       y       z     vdW  Elec       q    Type
                         _______ _______ _______ _____ _____    ______ ____

>  <TORSDO>
F 5

$$$$
=
 OpenBabel11042423083D

 37 42  0  0  1  0  0  0  0  0999 V2000
  162.1740  209.4310  150.7610 C   0  0  2  0  0  3  0  0  0  0  0  0
  162.7570  207.0320  150.9170 C   0  0  0  0  0  2  0  0  0  0  0  0
  161.8370  206.4800  152.0190 C   0  0  0  0  0  2  0  0  0  0  0  0
  160.4810  205.3530  150.1150 C   0  0  2  0  0  3  0  0  0  0  0  0
  160.8550  207.8380  149.5370 C   0  0  0  0  0  2  0  0  0  0  0  0
  162.1840  208.1180  150.0940 N   0  0  0  0  0  0  0  0  0  0  0  0
  160.7290  206.4030  149.0100 C   0  0  2  0  0  3  0  0  0  0  0  0
  160.4820  205.9460  151.5380 C   0  0  0  0  0  2  0  0  0  0  0  0
  159.6940  206.3420  148.0990 F   0  0  0  0  0  0  0  0  0  0  0  0
  160.5150  202.1960  148.7370 C   0  0  1  0  0  3  0  0  0  0  0  0
  161.2760  203.5160  148.5750 C   0  0  0  0  0  2  0  0  0  0  0  0
  161.2670  201.0820  148.0400 C   0  0  0  0  0  1  0  0  0  0  0  0
  160.4680  201.9450  150.1270 O   0  0  0  0  0  0  0  0  0  0  0  0
  161.0550  203.0080  152.0940 O   0  0  0  0  0  0  0  0  0  0  0  0
  160.9590  203.0150  150.8390 C   0  0  0  0  0  0  0  0  0  0  0  0
  161.4080  204.1340  149.9740 C   0  0  2  0  0  3  0  0  0  0  0  0
  160.6690  209.8590  154.2020 C   0  0  0  0  0  2  0  0  0  0  0  0
  159.7950  210.5920  152.0860 N   0  0  0  0  0  1  0  0  0  0  0  0
  161.9510  210.5530  154.3250 N   0  0  0  0  0  2  0  0  0  0  0  0
  160.4660  209.4860  152.7530 C   0  0  1  0  0  3  0  0  0  0  0  0
  162.7050  210.2850  153.1020 C   0  0  0  0  0  2  0  0  0  0  0  0
  161.8940  209.3170  152.2690 C   0  0  2  0  0  3  0  0  0  0  0  0
  161.3210  210.4150  150.0940 N   0  0  0  0  0  2  0  0  0  0  0  0
  160.8400  211.0580  147.7790 C   0  0  0  0  0  2  0  0  0  0  0  0
  161.9450  213.2220  147.1380 C   0  0  2  0  0  3  0  0  0  0  0  0
  158.5690  213.6600  146.6560 C   0  0  0  0  0  2  0  0  0  0  0  0
  161.9300  210.7280  148.8100 C   0  0  1  0  0  3  0  0  0  0  0  0
  158.4320  212.2150  146.1880 C   0  0  0  0  0  2  0  0  0  0  0  0
  164.3140  213.5950  147.8400 C   0  0  0  0  0  1  0  0  0  0  0  0
  163.2300  212.5500  147.6540 C   0  0  1  0  0  3  0  0  0  0  0  0
  162.4340  214.4530  145.1610 F   0  0  0  0  0  0  0  0  0  0  0  0
  162.9730  211.8420  148.9800 C   0  0  0  0  0  2  0  0  0  0  0  0
  160.6550  212.5670  147.5850 C   0  0  1  0  0  3  0  0  0  0  0  0
  159.8010  212.8310  146.3760 C   0  0  0  0  0  0  0  0  0  0  0  0
  160.4900  213.2620  145.2330 O   0  0  0  0  0  0  0  0  0  0  0  0
  161.8490  213.2820  145.6090 C   0  0  0  0  0  0  0  0  0  0  0  0
  162.4890  212.1980  145.0270 F   0  0  0  0  0  0  0  0  0  0  0  0
  1 23  1  6  0  0  0
  2  3  1  0  0  0  0
  4  8  1  1  0  0  0
  5  6  1  0  0  0  0
  6  1  1  0  0  0  0
  6  2  1  0  0  0  0
  7  9  1  6  0  0  0
  7  5  1  0  0  0  0
  7  4  1  0  0  0  0
  8  3  1  0  0  0  0
 10 12  1  6  0  0  0
 10 13  1  0  0  0  0
 11 10  1  0  0  0  0
 13 15  1  0  0  0  0
 15 14  2  0  0  0  0
 16 11  1  6  0  0  0
 16  4  1  0  0  0  0
 16 15  1  0  0  0  0
 17 19  1  0  0  0  0
 20 18  1  6  0  0  0
 20 17  1  0  0  0  0
 21 19  1  0  0  0  0
 22  1  1  6  0  0  0
 22 20  1  0  0  0  0
 22 21  1  0  0  0  0
 24 27  1  0  0  0  0
 25 36  1  6  0  0  0
 25 33  1  0  0  0  0
 25 30  1  0  0  0  0
 27 32  1  0  0  0  0
 27 23  1  1  0  0  0
 28 34  1  0  0  0  0
 28 26  1  0  0  0  0
 30 29  1  1  0  0  0
 30 32  1  0  0  0  0
 31 36  1  0  0  0  0
 33 24  1  6  0  0  0
 34 26  1  0  0  0  0
 34 33  1  0  0  0  0
 35 36  1  0  0  0  0
 35 34  1  0  0  0  0
 37 36  1  0  0  0  0
M  END
>  <MODEL>
8

>  <REMARK>
 VINA RESULT:      -6.0      4.359      5.978
  Name = 
  5 active torsions:
  status: ('A' for Active; 'I' for Inactive)
    1  A    between atoms: N_3  and  C_7
    2  A    between atoms: N_3  and  C_10
    3  A    between atoms: C_10  and  N_26
    4  A    between atoms: C_10  and  C_32
    5  A    between atoms: C_22  and  C_37
                            x       y       z     vdW  Elec       q    Type
                         _______ _______ _______ _____ _____    ______ ____

>  <TORSDO>
F 5

$$$$
=
 OpenBabel11042423083D

 37 42  0  0  1  0  0  0  0  0999 V2000
  161.5640  209.1350  153.0310 C   0  0  2  0  0  3  0  0  0  0  0  0
  162.1960  207.0430  151.8730 C   0  0  0  0  0  2  0  0  0  0  0  0
  160.8640  206.3110  151.6380 C   0  0  0  0  0  2  0  0  0  0  0  0
  161.1030  206.9900  149.1450 C   0  0  2  0  0  3  0  0  0  0  0  0
  161.4670  209.0660  150.6300 C   0  0  0  0  0  2  0  0  0  0  0  0
  162.1310  208.5180  151.8200 N   0  0  0  0  0  0  0  0  0  0  0  0
  161.8560  208.3230  149.3460 C   0  0  2  0  0  3  0  0  0  0  0  0
  160.1620  206.6330  150.3130 C   0  0  0  0  0  2  0  0  0  0  0  0
  161.6140  209.1390  148.2580 F   0  0  0  0  0  0  0  0  0  0  0  0
  162.0840  205.1570  146.3990 C   0  0  1  0  0  3  0  0  0  0  0  0
  162.7180  206.1140  147.4130 C   0  0  0  0  0  2  0  0  0  0  0  0
  163.1680  204.4310  145.6310 C   0  0  0  0  0  1  0  0  0  0  0  0
  161.3340  204.2300  147.1590 O   0  0  0  0  0  0  0  0  0  0  0  0
  160.7250  203.8990  149.3640 O   0  0  0  0  0  0  0  0  0  0  0  0
  161.3000  204.5930  148.4860 C   0  0  0  0  0  0  0  0  0  0  0  0
  162.0530  205.8400  148.7680 C   0  0  2  0  0  3  0  0  0  0  0  0
  161.5320  207.1710  156.2610 C   0  0  0  0  0  2  0  0  0  0  0  0
  159.7350  207.5140  154.7020 N   0  0  0  0  0  1  0  0  0  0  0  0
  161.8850  208.5180  156.7090 N   0  0  0  0  0  2  0  0  0  0  0  0
  161.1610  207.2370  154.7990 C   0  0  1  0  0  3  0  0  0  0  0  0
  162.1130  209.3240  155.5120 C   0  0  0  0  0  2  0  0  0  0  0  0
  161.9970  208.4070  154.3150 C   0  0  2  0  0  3  0  0  0  0  0  0
  160.1170  209.3440  152.9530 N   0  0  0  0  0  2  0  0  0  0  0  0
  159.6850  211.7310  152.6130 C   0  0  0  0  0  2  0  0  0  0  0  0
  157.4480  212.4370  153.5140 C   0  0  2  0  0  3  0  0  0  0  0  0
  157.4540  213.2260  150.1680 C   0  0  0  0  0  2  0  0  0  0  0  0
  159.8150  210.5930  153.6360 C   0  0  1  0  0  3  0  0  0  0  0  0
  158.9320  213.5960  150.2410 C   0  0  0  0  0  2  0  0  0  0  0  0
  156.7480  211.5720  155.7510 C   0  0  0  0  0  1  0  0  0  0  0  0
  157.9260  211.7700  154.8160 C   0  0  1  0  0  3  0  0  0  0  0  0
  156.2950  214.4530  154.0360 F   0  0  0  0  0  0  0  0  0  0  0  0
  158.5750  210.4210  154.5240 C   0  0  0  0  0  2  0  0  0  0  0  0
  158.2260  212.0510  152.2740 C   0  0  1  0  0  3  0  0  0  0  0  0
  158.1440  213.3420  151.5080 C   0  0  0  0  0  0  0  0  0  0  0  0
  157.7060  214.4530  152.2420 O   0  0  0  0  0  0  0  0  0  0  0  0
  157.4980  213.9690  153.5510 C   0  0  0  0  0  0  0  0  0  0  0  0
  158.5310  214.4160  154.3610 F   0  0  0  0  0  0  0  0  0  0  0  0
  1 23  1  6  0  0  0
  3  2  1  0  0  0  0
  4  7  1  0  0  0  0
  4  8  1  1  0  0  0
  5  6  1  0  0  0  0
  6  2  1  0  0  0  0
  6  1  1  0  0  0  0
  7  9  1  6  0  0  0
  7  5  1  0  0  0  0
  8  3  1  0  0  0  0
 10 12  1  1  0  0  0
 10 13  1  0  0  0  0
 10 11  1  0  0  0  0
 13 15  1  0  0  0  0
 15 16  1  0  0  0  0
 15 14  2  0  0  0  0
 16 11  1  6  0  0  0
 16  4  1  0  0  0  0
 17 19  1  0  0  0  0
 20 18  1  1  0  0  0
 20 17  1  0  0  0  0
 21 19  1  0  0  0  0
 22  1  1  6  0  0  0
 22 20  1  0  0  0  0
 22 21  1  0  0  0  0
 24 27  1  0  0  0  0
 25 36  1  1  0  0  0
 25 30  1  0  0  0  0
 26 28  1  0  0  0  0
 26 34  1  0  0  0  0
 27 23  1  6  0  0  0
 27 32  1  0  0  0  0
 28 34  1  0  0  0  0
 30 29  1  1  0  0  0
 32 30  1  0  0  0  0
 33 24  1  1  0  0  0
 33 25  1  0  0  0  0
 34 35  1  0  0  0  0
 34 33  1  0  0  0  0
 35 36  1  0  0  0  0
 36 31  1  0  0  0  0
 36 37  1  0  0  0  0
M  END
>  <MODEL>
9

>  <REMARK>
 VINA RESULT:      -5.8      2.051      3.443
  Name = 
  5 active torsions:
  status: ('A' for Active; 'I' for Inactive)
    1  A    between atoms: N_3  and  C_7
    2  A    between atoms: N_3  and  C_10
    3  A    between atoms: C_10  and  N_26
    4  A    between atoms: C_10  and  C_32
    5  A    between atoms: C_22  and  C_37
                            x       y       z     vdW  Elec       q    Type
                         _______ _______ _______ _____ _____    ______ ____

>  <TORSDO>
F 5

$$$$
