=
 OpenBabel11042421533D

 47 51  0  0  1  0  0  0  0  0999 V2000
  161.8580  209.4900  150.1930 C   0  0  2  0  0  3  0  0  0  0  0  0
  161.4610  207.3650  149.0670 C   0  0  0  0  0  0  0  0  0  0  0  0
  160.6070  206.4940  148.5980 C   0  0  0  0  0  3  0  0  0  0  0  0
  162.3180  208.2320  149.5320 C   0  0  0  0  0  3  0  0  0  0  0  0
  160.8170  203.1010  150.2160 C   0  0  0  0  0  3  0  0  0  0  0  0
  161.3030  202.8400  147.8620 C   0  0  0  0  0  3  0  0  0  0  0  0
  161.1490  202.2830  149.1330 C   0  0  0  0  0  3  0  0  0  0  0  0
  160.6410  204.4770  150.0280 C   0  0  0  0  0  3  0  0  0  0  0  0
  160.7930  205.0410  148.7570 C   0  0  0  0  0  0  0  0  0  0  0  0
  161.1270  204.2150  147.6720 C   0  0  0  0  0  3  0  0  0  0  0  0
  162.5590  210.6450  149.6360 N   0  0  0  0  0  0  0  0  0  0  0  0
  162.3940  210.5940  148.2600 O   0  0  0  0  0  0  0  0  0  0  0  0
  161.5850  211.4490  148.9360 C   0  0  2  0  0  3  0  0  0  0  0  0
  162.0770  212.8110  148.7920 N   0  0  0  0  0  2  0  0  0  0  0  0
  161.1180  213.5720  147.9980 C   0  0  2  0  0  3  0  0  0  0  0  0
  158.8050  213.3280  148.8170 N   0  0  0  0  0  1  0  0  0  0  0  0
  159.9980  214.1580  148.8640 C   0  0  1  0  0  3  0  0  0  0  0  0
  160.4260  214.2990  150.1820 O   0  0  0  0  0  1  0  0  0  0  0  0
  160.5460  212.6810  146.9100 C   0  0  0  0  0  2  0  0  0  0  0  0
  161.4110  212.7040  145.7380 N   0  0  0  0  0  2  0  0  0  0  0  0
  160.8930  212.9160  144.4210 C   0  0  0  0  0  0  0  0  0  0  0  0
  159.6540  213.0990  144.2470 O   0  0  0  0  0  0  0  0  0  0  0  0
  161.7950  212.9230  143.3070 N   0  0  0  0  0  0  0  0  0  0  0  0
  162.0480  211.6980  140.8820 C   0  0  0  0  0  2  0  0  0  0  0  0
  161.6190  212.1880  142.2580 C   0  0  0  0  0  0  0  0  0  0  0  0
  160.8510  211.1590  141.4390 C   0  0  0  0  0  2  0  0  0  0  0  0
  162.0580  209.3960  151.6820 C   0  0  0  0  0  0  0  0  0  0  0  0
  162.8030  210.3340  152.2600 C   0  0  0  0  0  2  0  0  0  0  0  0
  161.4180  208.3330  152.4970 C   0  0  0  0  0  0  0  0  0  0  0  0
  161.9130  207.1710  152.5030 O   0  0  0  0  0  0  0  0  0  0  0  0
  160.6350  209.8120  157.1710 N   0  0  0  0  0  0  0  0  0  0  0  0
  160.2540  210.5850  156.1030 C   0  0  0  0  0  0  0  0  0  0  0  0
  160.8450  207.7820  155.8170 C   0  0  0  0  0  3  0  0  0  0  0  0
  160.9250  208.4660  157.0570 C   0  0  0  0  0  3  0  0  0  0  0  0
  160.1730  209.9480  154.8860 C   0  0  0  0  0  0  0  0  0  0  0  0
  160.4610  208.5730  154.7530 C   0  0  0  0  0  0  0  0  0  0  0  0
  159.8860  210.0500  153.4270 C   0  0  0  0  0  2  0  0  0  0  0  0
  160.1660  208.6300  153.2930 C   0  0  1  0  0  3  0  0  0  0  0  0
  160.6890  212.5990  157.2610 O   0  0  0  0  0  1  0  0  0  0  0  0
  159.8970  212.0230  156.2680 C   0  0  2  0  0  3  0  0  0  0  0  0
  158.4870  212.1340  156.6370 N   0  0  0  0  0  2  0  0  0  0  0  0
  157.7260  212.8820  155.6310 C   0  0  2  0  0  3  0  0  0  0  0  0
  157.0230  211.9650  154.6700 C   0  0  0  0  0  3  0  0  0  0  0  0
  155.2790  210.2930  155.4660 O   0  0  0  0  0  0  0  0  0  0  0  0
  156.1270  211.1050  155.0730 C   0  0  0  0  0  0  0  0  0  0  0  0
  158.5980  213.9190  154.9250 C   0  0  0  0  0  2  0  0  0  0  0  0
  158.5410  213.6450  153.1260 S   0  0  0  0  0  1  0  0  0  0  0  0
  1  4  1  6  0  0  0
  1 27  1  0  0  0  0
  2  4  2  0  0  0  0
  3  9  1  0  0  0  0
  3  2  2  0  0  0  0
  6  7  1  0  0  0  0
  7  5  2  0  0  0  0
  8  5  1  0  0  0  0
  9  8  2  0  0  0  0
 10  6  2  0  0  0  0
 10  9  1  0  0  0  0
 11  1  1  0  0  0  0
 12 13  1  0  0  0  0
 12 11  1  0  0  0  0
 13 14  1  6  0  0  0
 13 11  1  0  0  0  0
 15 19  1  6  0  0  0
 15 14  1  0  0  0  0
 15 17  1  0  0  0  0
 17 16  1  1  0  0  0
 17 18  1  0  0  0  0
 20 19  1  0  0  0  0
 21 20  1  0  0  0  0
 22 21  2  0  0  0  0
 23 21  1  0  0  0  0
 24 26  1  0  0  0  0
 24 25  1  0  0  0  0
 25 23  2  0  0  0  0
 26 25  1  0  0  0  0
 27 28  2  0  0  0  0
 27 29  1  0  0  0  0
 29 30  2  0  0  0  0
 32 40  1  0  0  0  0
 32 31  2  0  0  0  0
 33 34  2  0  0  0  0
 34 31  1  0  0  0  0
 35 32  1  0  0  0  0
 36 35  2  0  0  0  0
 36 33  1  0  0  0  0
 37 35  1  0  0  0  0
 38 29  1  6  0  0  0
 38 37  1  0  0  0  0
 38 36  1  0  0  0  0
 40 41  1  0  0  0  0
 40 39  1  1  0  0  0
 42 43  1  6  0  0  0
 42 41  1  0  0  0  0
 43 45  2  0  0  0  0
 45 44  2  0  0  0  0
 46 42  1  0  0  0  0
 47 46  1  0  0  0  0
M  END
>  <MODEL>
1

>  <REMARK>
 VINA RESULT:      -6.8      0.000      0.000
  Name = 
  17 active torsions:
  status: ('A' for Active; 'I' for Inactive)
    1  A    between atoms: C_1  and  C_17
    2  A    between atoms: C_1  and  C_23
    3  A    between atoms: C_1  and  N_25
    4  A    between atoms: C_5  and  C_46
    5  A    between atoms: C_7  and  C_19
    6  A    between atoms: N_8  and  C_37
    7  A    between atoms: C_9  and  C_34
    8  A    between atoms: N_11  and  C_34
    9  A    between atoms: N_11  and  C_46
   10  A    between atoms: N_12  and  C_18
   11  A    between atoms: C_13  and  C_35
   12  A    between atoms: C_18  and  C_19
   13  A    between atoms: C_19  and  N_38
   14  A    between atoms: C_23  and  C_28
   15  A    between atoms: C_28  and  C_40
   16  A    between atoms: C_29  and  C_46
   17  A    between atoms: N_38  and  C_47
                            x       y       z     vdW  Elec       q    Type
                         _______ _______ _______ _____ _____    ______ ____

>  <TORSDO>
F 17

$$$$
=
 OpenBabel11042421533D

 47 51  0  0  1  0  0  0  0  0999 V2000
  162.2720  210.6260  149.3120 C   0  0  2  0  0  3  0  0  0  0  0  0
  161.9050  208.3520  148.5120 C   0  0  0  0  0  0  0  0  0  0  0  0
  162.3970  207.1730  148.2380 C   0  0  0  0  0  3  0  0  0  0  0  0
  161.4070  209.5270  148.7860 C   0  0  0  0  0  3  0  0  0  0  0  0
  160.3460  205.9540  145.3260 C   0  0  0  0  0  3  0  0  0  0  0  0
  162.4280  204.7260  145.3430 C   0  0  0  0  0  3  0  0  0  0  0  0
  161.1820  204.9840  144.7680 C   0  0  0  0  0  3  0  0  0  0  0  0
  160.7550  206.6650  146.4610 C   0  0  0  0  0  3  0  0  0  0  0  0
  162.0030  206.4110  147.0410 C   0  0  0  0  0  0  0  0  0  0  0  0
  162.8400  205.4350  146.4760 C   0  0  0  0  0  3  0  0  0  0  0  0
  162.2100  210.6690  150.7700 N   0  0  0  0  0  0  0  0  0  0  0  0
  160.9140  210.3330  151.1320 O   0  0  0  0  0  0  0  0  0  0  0  0
  161.8450  209.3500  151.2310 C   0  0  2  0  0  3  0  0  0  0  0  0
  162.2400  209.1830  152.6210 N   0  0  0  0  0  2  0  0  0  0  0  0
  161.0960  208.6750  153.3720 C   0  0  2  0  0  3  0  0  0  0  0  0
  159.9290  209.2470  155.4680 N   0  0  0  0  0  1  0  0  0  0  0  0
  160.4290  209.7730  154.2070 C   0  0  1  0  0  3  0  0  0  0  0  0
  161.3240  210.8120  154.4500 O   0  0  0  0  0  1  0  0  0  0  0  0
  161.5440  207.5260  154.2550 C   0  0  0  0  0  2  0  0  0  0  0  0
  160.9560  206.2770  153.7900 N   0  0  0  0  0  2  0  0  0  0  0  0
  161.5470  205.5090  152.7360 C   0  0  0  0  0  0  0  0  0  0  0  0
  162.6150  205.9040  152.1840 O   0  0  0  0  0  0  0  0  0  0  0  0
  160.9180  204.2920  152.3190 N   0  0  0  0  0  0  0  0  0  0  0  0
  160.4540  202.9250  150.0030 C   0  0  0  0  0  2  0  0  0  0  0  0
  160.8690  203.9140  151.0830 C   0  0  0  0  0  0  0  0  0  0  0  0
  161.1660  204.0930  149.6010 C   0  0  0  0  0  2  0  0  0  0  0  0
  161.8610  211.9420  148.7080 C   0  0  0  0  0  0  0  0  0  0  0  0
  160.9680  212.6690  149.3730 C   0  0  0  0  0  2  0  0  0  0  0  0
  162.4530  212.4480  147.4430 C   0  0  0  0  0  0  0  0  0  0  0  0
  163.5920  212.0370  147.0820 O   0  0  0  0  0  0  0  0  0  0  0  0
  162.5850  213.6320  142.6240 N   0  0  0  0  0  0  0  0  0  0  0  0
  161.4440  213.1430  143.2090 C   0  0  0  0  0  0  0  0  0  0  0  0
  163.6080  214.2260  144.7680 C   0  0  0  0  0  3  0  0  0  0  0  0
  163.6370  214.1550  143.3520 C   0  0  0  0  0  3  0  0  0  0  0  0
  161.3920  213.1950  144.5830 C   0  0  0  0  0  0  0  0  0  0  0  0
  162.4550  213.7300  145.3410 C   0  0  0  0  0  0  0  0  0  0  0  0
  160.6260  212.9020  145.8270 C   0  0  0  0  0  2  0  0  0  0  0  0
  161.7130  213.4680  146.6080 C   0  0  1  0  0  3  0  0  0  0  0  0
  159.1080  212.8050  143.0900 O   0  0  0  0  0  1  0  0  0  0  0  0
  160.3050  212.6330  142.3940 C   0  0  2  0  0  3  0  0  0  0  0  0
  160.5090  211.2140  142.1100 N   0  0  0  0  0  2  0  0  0  0  0  0
  160.5530  210.9570  140.6660 C   0  0  2  0  0  3  0  0  0  0  0  0
  161.8350  210.2860  140.2600 C   0  0  0  0  0  3  0  0  0  0  0  0
  161.8540  207.9300  139.3010 O   0  0  0  0  0  0  0  0  0  0  0  0
  161.8510  209.0770  139.7670 C   0  0  0  0  0  0  0  0  0  0  0  0
  160.2710  212.2250  139.8620 C   0  0  0  0  0  2  0  0  0  0  0  0
  161.4820  212.3770  138.5120 S   0  0  0  0  0  1  0  0  0  0  0  0
  1  4  1  6  0  0  0
  1 11  1  0  0  0  0
  2  4  2  0  0  0  0
  3  2  2  0  0  0  0
  5  8  1  0  0  0  0
  6 10  2  0  0  0  0
  7  5  2  0  0  0  0
  7  6  1  0  0  0  0
  8  9  2  0  0  0  0
  9  3  1  0  0  0  0
 10  9  1  0  0  0  0
 11 12  1  0  0  0  0
 11 13  1  0  0  0  0
 12 13  1  0  0  0  0
 13 14  1  1  0  0  0
 14 15  1  0  0  0  0
 15 17  1  0  0  0  0
 15 19  1  1  0  0  0
 17 18  1  1  0  0  0
 17 16  1  0  0  0  0
 20 19  1  0  0  0  0
 21 20  1  0  0  0  0
 22 21  2  0  0  0  0
 23 21  1  0  0  0  0
 24 25  1  0  0  0  0
 25 23  2  0  0  0  0
 26 24  1  0  0  0  0
 26 25  1  0  0  0  0
 27  1  1  0  0  0  0
 27 28  2  0  0  0  0
 29 27  1  0  0  0  0
 30 29  2  0  0  0  0
 31 32  2  0  0  0  0
 31 34  1  0  0  0  0
 32 35  1  0  0  0  0
 33 36  1  0  0  0  0
 34 33  2  0  0  0  0
 35 36  2  0  0  0  0
 35 37  1  0  0  0  0
 36 38  1  0  0  0  0
 37 38  1  0  0  0  0
 38 29  1  1  0  0  0
 40 39  1  1  0  0  0
 40 32  1  0  0  0  0
 41 40  1  0  0  0  0
 42 46  1  6  0  0  0
 42 41  1  0  0  0  0
 43 42  1  0  0  0  0
 44 45  2  0  0  0  0
 45 43  2  0  0  0  0
 47 46  1  0  0  0  0
M  END
>  <MODEL>
2

>  <REMARK>
 VINA RESULT:      -6.0      3.329     10.107
  Name = 
  17 active torsions:
  status: ('A' for Active; 'I' for Inactive)
    1  A    between atoms: C_1  and  C_17
    2  A    between atoms: C_1  and  C_23
    3  A    between atoms: C_1  and  N_25
    4  A    between atoms: C_5  and  C_46
    5  A    between atoms: C_7  and  C_19
    6  A    between atoms: N_8  and  C_37
    7  A    between atoms: C_9  and  C_34
    8  A    between atoms: N_11  and  C_34
    9  A    between atoms: N_11  and  C_46
   10  A    between atoms: N_12  and  C_18
   11  A    between atoms: C_13  and  C_35
   12  A    between atoms: C_18  and  C_19
   13  A    between atoms: C_19  and  N_38
   14  A    between atoms: C_23  and  C_28
   15  A    between atoms: C_28  and  C_40
   16  A    between atoms: C_29  and  C_46
   17  A    between atoms: N_38  and  C_47
                            x       y       z     vdW  Elec       q    Type
                         _______ _______ _______ _____ _____    ______ ____

>  <TORSDO>
F 17

$$$$
=
 OpenBabel11042421533D

 47 51  0  0  1  0  0  0  0  0999 V2000
  162.3380  209.4180  150.7530 C   0  0  2  0  0  3  0  0  0  0  0  0
  160.8520  209.8660  152.6330 C   0  0  0  0  0  0  0  0  0  0  0  0
  159.6330  209.9950  153.0860 C   0  0  0  0  0  3  0  0  0  0  0  0
  162.0720  209.7370  152.1870 C   0  0  0  0  0  3  0  0  0  0  0  0
  159.2070  213.4070  154.6170 C   0  0  0  0  0  3  0  0  0  0  0  0
  158.2700  211.7800  156.1390 C   0  0  0  0  0  3  0  0  0  0  0  0
  158.5680  213.1070  155.8220 C   0  0  0  0  0  3  0  0  0  0  0  0
  159.5500  212.3810  153.7290 C   0  0  0  0  0  3  0  0  0  0  0  0
  159.2520  211.0490  154.0410 C   0  0  0  0  0  0  0  0  0  0  0  0
  158.6100  210.7530  155.2530 C   0  0  0  0  0  3  0  0  0  0  0  0
  161.4730  210.2120  149.8850 N   0  0  0  0  0  0  0  0  0  0  0  0
  161.6240  211.5370  150.2640 O   0  0  0  0  0  0  0  0  0  0  0  0
  162.3120  211.1390  149.1630 C   0  0  2  0  0  3  0  0  0  0  0  0
  161.6290  211.5960  147.9630 N   0  0  0  0  0  2  0  0  0  0  0  0
  161.3930  213.0320  148.0790 C   0  0  2  0  0  3  0  0  0  0  0  0
  159.3130  212.3450  146.9460 N   0  0  0  0  0  1  0  0  0  0  0  0
  159.9530  213.4050  147.7090 C   0  0  1  0  0  3  0  0  0  0  0  0
  159.2120  213.6770  148.8560 O   0  0  0  0  0  1  0  0  0  0  0  0
  162.3830  213.7770  147.2030 C   0  0  0  0  0  2  0  0  0  0  0  0
  161.7630  214.1260  145.9310 N   0  0  0  0  0  2  0  0  0  0  0  0
  162.3090  213.6930  144.6800 C   0  0  0  0  0  0  0  0  0  0  0  0
  163.3540  212.9810  144.6560 O   0  0  0  0  0  0  0  0  0  0  0  0
  161.6560  214.0740  143.4630 N   0  0  0  0  0  0  0  0  0  0  0  0
  160.5090  212.8650  141.3020 C   0  0  0  0  0  2  0  0  0  0  0  0
  161.2050  213.2120  142.6100 C   0  0  0  0  0  0  0  0  0  0  0  0
  160.9550  211.7900  142.1260 C   0  0  0  0  0  2  0  0  0  0  0  0
  162.1550  207.9440  150.5080 C   0  0  0  0  0  0  0  0  0  0  0  0
  162.0460  207.1550  151.5730 C   0  0  0  0  0  2  0  0  0  0  0  0
  162.0500  207.3790  149.1380 C   0  0  0  0  0  0  0  0  0  0  0  0
  162.8860  207.7270  148.2570 O   0  0  0  0  0  0  0  0  0  0  0  0
  160.8290  204.9490  144.9850 N   0  0  0  0  0  0  0  0  0  0  0  0
  161.1820  204.2780  146.1280 C   0  0  0  0  0  0  0  0  0  0  0  0
  160.3920  207.0460  146.1730 C   0  0  0  0  0  3  0  0  0  0  0  0
  160.4480  206.2780  144.9820 C   0  0  0  0  0  3  0  0  0  0  0  0
  161.1420  205.0010  147.2980 C   0  0  0  0  0  0  0  0  0  0  0  0
  160.7510  206.3570  147.3140 C   0  0  0  0  0  0  0  0  0  0  0  0
  161.3550  205.0250  148.7730 C   0  0  0  0  0  2  0  0  0  0  0  0
  160.9360  206.4170  148.7920 C   0  0  1  0  0  3  0  0  0  0  0  0
  160.5340  202.1040  145.4670 O   0  0  0  0  0  1  0  0  0  0  0  0
  161.5380  202.8300  146.1060 C   0  0  2  0  0  3  0  0  0  0  0  0
  161.6970  202.3490  147.4770 N   0  0  0  0  0  2  0  0  0  0  0  0
  160.8270  201.1990  147.7460 C   0  0  2  0  0  3  0  0  0  0  0  0
  160.0680  201.3650  149.0330 C   0  0  0  0  0  3  0  0  0  0  0  0
  161.2240  202.1310  151.1650 O   0  0  0  0  0  0  0  0  0  0  0  0
  160.6560  201.7580  150.1310 C   0  0  0  0  0  0  0  0  0  0  0  0
  161.6010  199.8840  147.6840 C   0  0  0  0  0  2  0  0  0  0  0  0
  161.3950  199.1270  146.0410 S   0  0  0  0  0  1  0  0  0  0  0  0
  1  4  1  1  0  0  0
  2  3  2  0  0  0  0
  3  9  1  0  0  0  0
  4  2  2  0  0  0  0
  5  7  1  0  0  0  0
  7  6  2  0  0  0  0
  8  9  1  0  0  0  0
  8  5  2  0  0  0  0
  9 10  2  0  0  0  0
 10  6  1  0  0  0  0
 11 12  1  0  0  0  0
 11  1  1  0  0  0  0
 13 14  1  6  0  0  0
 13 11  1  0  0  0  0
 13 12  1  0  0  0  0
 14 15  1  0  0  0  0
 15 19  1  6  0  0  0
 17 16  1  1  0  0  0
 17 15  1  0  0  0  0
 17 18  1  0  0  0  0
 20 19  1  0  0  0  0
 21 20  1  0  0  0  0
 22 21  2  0  0  0  0
 23 21  1  0  0  0  0
 24 26  1  0  0  0  0
 24 25  1  0  0  0  0
 25 23  2  0  0  0  0
 26 25  1  0  0  0  0
 27  1  1  0  0  0  0
 27 28  2  0  0  0  0
 29 27  1  0  0  0  0
 30 29  2  0  0  0  0
 31 32  1  0  0  0  0
 32 35  2  0  0  0  0
 33 36  2  0  0  0  0
 34 31  2  0  0  0  0
 34 33  1  0  0  0  0
 35 36  1  0  0  0  0
 35 37  1  0  0  0  0
 36 38  1  0  0  0  0
 37 38  1  0  0  0  0
 38 29  1  6  0  0  0
 40 39  1  1  0  0  0
 40 32  1  0  0  0  0
 40 41  1  0  0  0  0
 41 42  1  0  0  0  0
 42 46  1  1  0  0  0
 42 43  1  0  0  0  0
 43 45  2  0  0  0  0
 45 44  2  0  0  0  0
 47 46  1  0  0  0  0
M  END
>  <MODEL>
3

>  <REMARK>
 VINA RESULT:      -5.9      3.685      8.520
  Name = 
  17 active torsions:
  status: ('A' for Active; 'I' for Inactive)
    1  A    between atoms: C_1  and  C_17
    2  A    between atoms: C_1  and  C_23
    3  A    between atoms: C_1  and  N_25
    4  A    between atoms: C_5  and  C_46
    5  A    between atoms: C_7  and  C_19
    6  A    between atoms: N_8  and  C_37
    7  A    between atoms: C_9  and  C_34
    8  A    between atoms: N_11  and  C_34
    9  A    between atoms: N_11  and  C_46
   10  A    between atoms: N_12  and  C_18
   11  A    between atoms: C_13  and  C_35
   12  A    between atoms: C_18  and  C_19
   13  A    between atoms: C_19  and  N_38
   14  A    between atoms: C_23  and  C_28
   15  A    between atoms: C_28  and  C_40
   16  A    between atoms: C_29  and  C_46
   17  A    between atoms: N_38  and  C_47
                            x       y       z     vdW  Elec       q    Type
                         _______ _______ _______ _____ _____    ______ ____

>  <TORSDO>
F 17

$$$$
=
 OpenBabel11042421533D

 47 51  0  0  1  0  0  0  0  0999 V2000
  160.5160  207.3930  153.3520 C   0  0  2  0  0  3  0  0  0  0  0  0
  160.9420  205.9290  151.4500 C   0  0  0  0  0  0  0  0  0  0  0  0
  160.5190  205.4010  150.3310 C   0  0  0  0  0  3  0  0  0  0  0  0
  161.3700  206.4540  152.5650 C   0  0  0  0  0  3  0  0  0  0  0  0
  161.0730  201.6970  150.7110 C   0  0  0  0  0  3  0  0  0  0  0  0
  161.1730  202.2320  148.3560 C   0  0  0  0  0  3  0  0  0  0  0  0
  161.2420  201.2910  149.3850 C   0  0  0  0  0  3  0  0  0  0  0  0
  160.8350  203.0440  151.0090 C   0  0  0  0  0  3  0  0  0  0  0  0
  160.7640  203.9910  149.9810 C   0  0  0  0  0  0  0  0  0  0  0  0
  160.9350  203.5790  148.6500 C   0  0  0  0  0  3  0  0  0  0  0  0
  160.8720  208.7780  153.0550 N   0  0  0  0  0  0  0  0  0  0  0  0
  162.2370  208.8020  152.8120 O   0  0  0  0  0  0  0  0  0  0  0  0
  161.4280  208.8080  151.7220 C   0  0  2  0  0  3  0  0  0  0  0  0
  161.3420  210.1560  151.1800 N   0  0  0  0  0  2  0  0  0  0  0  0
  162.2710  210.2680  150.0600 C   0  0  2  0  0  3  0  0  0  0  0  0
  161.0480  212.3250  149.4660 N   0  0  0  0  0  1  0  0  0  0  0  0
  161.7060  211.1420  148.9350 C   0  0  1  0  0  3  0  0  0  0  0  0
  162.7180  211.5170  148.0560 O   0  0  0  0  0  1  0  0  0  0  0  0
  162.6090  208.8810  149.5460 C   0  0  0  0  0  2  0  0  0  0  0  0
  161.6290  208.4630  148.5530 N   0  0  0  0  0  2  0  0  0  0  0  0
  161.7950  207.2670  147.7840 C   0  0  0  0  0  0  0  0  0  0  0  0
  162.8100  206.5330  147.9620 O   0  0  0  0  0  0  0  0  0  0  0  0
  160.7980  206.9120  146.8190 N   0  0  0  0  0  0  0  0  0  0  0  0
  160.5200  205.2030  144.7090 C   0  0  0  0  0  2  0  0  0  0  0  0
  160.9930  206.0170  145.9050 C   0  0  0  0  0  0  0  0  0  0  0  0
  161.8420  204.9740  145.1920 C   0  0  0  0  0  2  0  0  0  0  0  0
  160.6430  207.0990  154.8230 C   0  0  0  0  0  0  0  0  0  0  0  0
  161.8110  206.6330  155.2560 C   0  0  0  0  0  2  0  0  0  0  0  0
  159.5340  207.3580  155.7770 C   0  0  0  0  0  0  0  0  0  0  0  0
  158.5190  206.6060  155.7690 O   0  0  0  0  0  0  0  0  0  0  0  0
  162.0150  211.6580  155.7010 N   0  0  0  0  0  0  0  0  0  0  0  0
  160.6430  211.6230  155.6960 C   0  0  0  0  0  0  0  0  0  0  0  0
  162.2170  209.3460  156.4840 C   0  0  0  0  0  3  0  0  0  0  0  0
  162.7900  210.5770  156.0740 C   0  0  0  0  0  3  0  0  0  0  0  0
  160.0600  210.4390  156.0840 C   0  0  0  0  0  0  0  0  0  0  0  0
  160.8370  209.3270  156.4730 C   0  0  0  0  0  0  0  0  0  0  0  0
  158.8050  209.6680  156.3160 C   0  0  0  0  0  2  0  0  0  0  0  0
  159.6060  208.5280  156.7320 C   0  0  1  0  0  3  0  0  0  0  0  0
  159.3520  213.4340  156.4960 O   0  0  0  0  0  1  0  0  0  0  0  0
  159.8330  212.8230  155.3380 C   0  0  2  0  0  3  0  0  0  0  0  0
  158.7100  212.4160  154.4940 N   0  0  0  0  0  2  0  0  0  0  0  0
  157.6850  213.4620  154.4250 C   0  0  2  0  0  3  0  0  0  0  0  0
  156.3800  213.0010  155.0120 C   0  0  0  0  0  3  0  0  0  0  0  0
  155.5990  210.5920  154.7830 O   0  0  0  0  0  0  0  0  0  0  0  0
  155.9740  211.7660  154.8980 C   0  0  0  0  0  0  0  0  0  0  0  0
  157.5330  214.0040  153.0050 C   0  0  0  0  0  2  0  0  0  0  0  0
  158.3960  212.9100  151.8340 S   0  0  0  0  0  1  0  0  0  0  0  0
  1  4  1  6  0  0  0
  1 27  1  0  0  0  0
  2  4  2  0  0  0  0
  3  2  2  0  0  0  0
  5  8  1  0  0  0  0
  6 10  2  0  0  0  0
  6  7  1  0  0  0  0
  7  5  2  0  0  0  0
  9  3  1  0  0  0  0
  9  8  2  0  0  0  0
 10  9  1  0  0  0  0
 11  1  1  0  0  0  0
 12 11  1  0  0  0  0
 13 14  1  1  0  0  0
 13 12  1  0  0  0  0
 13 11  1  0  0  0  0
 15 19  1  6  0  0  0
 15 14  1  0  0  0  0
 17 18  1  6  0  0  0
 17 16  1  0  0  0  0
 17 15  1  0  0  0  0
 20 19  1  0  0  0  0
 21 22  2  0  0  0  0
 21 20  1  0  0  0  0
 23 21  1  0  0  0  0
 24 26  1  0  0  0  0
 24 25  1  0  0  0  0
 25 23  2  0  0  0  0
 26 25  1  0  0  0  0
 27 28  2  0  0  0  0
 27 29  1  0  0  0  0
 30 29  2  0  0  0  0
 31 34  1  0  0  0  0
 32 31  2  0  0  0  0
 32 35  1  0  0  0  0
 34 33  2  0  0  0  0
 35 37  1  0  0  0  0
 35 36  2  0  0  0  0
 36 33  1  0  0  0  0
 36 38  1  0  0  0  0
 37 38  1  0  0  0  0
 38 29  1  6  0  0  0
 40 32  1  0  0  0  0
 40 39  1  1  0  0  0
 41 40  1  0  0  0  0
 42 46  1  6  0  0  0
 42 41  1  0  0  0  0
 42 43  1  0  0  0  0
 44 45  2  0  0  0  0
 45 43  2  0  0  0  0
 47 46  1  0  0  0  0
M  END
>  <MODEL>
4

>  <REMARK>
 VINA RESULT:      -5.0      2.811      3.861
  Name = 
  17 active torsions:
  status: ('A' for Active; 'I' for Inactive)
    1  A    between atoms: C_1  and  C_17
    2  A    between atoms: C_1  and  C_23
    3  A    between atoms: C_1  and  N_25
    4  A    between atoms: C_5  and  C_46
    5  A    between atoms: C_7  and  C_19
    6  A    between atoms: N_8  and  C_37
    7  A    between atoms: C_9  and  C_34
    8  A    between atoms: N_11  and  C_34
    9  A    between atoms: N_11  and  C_46
   10  A    between atoms: N_12  and  C_18
   11  A    between atoms: C_13  and  C_35
   12  A    between atoms: C_18  and  C_19
   13  A    between atoms: C_19  and  N_38
   14  A    between atoms: C_23  and  C_28
   15  A    between atoms: C_28  and  C_40
   16  A    between atoms: C_29  and  C_46
   17  A    between atoms: N_38  and  C_47
                            x       y       z     vdW  Elec       q    Type
                         _______ _______ _______ _____ _____    ______ ____

>  <TORSDO>
F 17

$$$$
=
 OpenBabel11042421533D

 47 51  0  0  1  0  0  0  0  0999 V2000
  162.0820  209.7800  150.3940 C   0  0  2  0  0  3  0  0  0  0  0  0
  160.8470  210.4140  152.3970 C   0  0  0  0  0  0  0  0  0  0  0  0
  159.7300  210.8260  152.9350 C   0  0  0  0  0  3  0  0  0  0  0  0
  161.9650  209.9990  151.8660 C   0  0  0  0  0  3  0  0  0  0  0  0
  160.3920  212.5190  156.2330 C   0  0  0  0  0  3  0  0  0  0  0  0
  158.9440  213.9520  154.9310 C   0  0  0  0  0  3  0  0  0  0  0  0
  159.6600  213.7010  156.1040 C   0  0  0  0  0  3  0  0  0  0  0  0
  160.4090  211.5860  155.1890 C   0  0  0  0  0  3  0  0  0  0  0  0
  159.6950  211.8330  154.0100 C   0  0  0  0  0  0  0  0  0  0  0  0
  158.9600  213.0230  153.8860 C   0  0  0  0  0  3  0  0  0  0  0  0
  161.3380  210.8030  149.6640 N   0  0  0  0  0  0  0  0  0  0  0  0
  162.0280  211.9950  149.8210 O   0  0  0  0  0  0  0  0  0  0  0  0
  162.2150  211.3380  148.6480 C   0  0  2  0  0  3  0  0  0  0  0  0
  161.4300  211.9700  147.5990 N   0  0  0  0  0  2  0  0  0  0  0  0
  161.5920  213.4170  147.7030 C   0  0  2  0  0  3  0  0  0  0  0  0
  159.1730  213.3290  147.2320 N   0  0  0  0  0  1  0  0  0  0  0  0
  160.2430  214.1360  147.7980 C   0  0  1  0  0  3  0  0  0  0  0  0
  159.9500  214.4490  149.1230 O   0  0  0  0  0  1  0  0  0  0  0  0
  162.3880  213.9210  146.5130 C   0  0  0  0  0  2  0  0  0  0  0  0
  161.5460  213.9530  145.3250 N   0  0  0  0  0  2  0  0  0  0  0  0
  161.9940  213.4400  144.0660 C   0  0  0  0  0  0  0  0  0  0  0  0
  163.1480  212.9320  143.9620 O   0  0  0  0  0  0  0  0  0  0  0  0
  161.1200  213.5050  142.9330 N   0  0  0  0  0  0  0  0  0  0  0  0
  160.6530  212.1070  140.6360 C   0  0  0  0  0  2  0  0  0  0  0  0
  161.1570  212.6440  141.9690 C   0  0  0  0  0  0  0  0  0  0  0  0
  161.7130  211.4040  141.2810 C   0  0  0  0  0  2  0  0  0  0  0  0
  161.6050  208.3970  150.0370 C   0  0  0  0  0  0  0  0  0  0  0  0
  161.2760  208.1710  148.7680 C   0  0  0  0  0  2  0  0  0  0  0  0
  161.5400  207.3020  151.0380 C   0  0  0  0  0  0  0  0  0  0  0  0
  160.8130  207.4390  152.0620 O   0  0  0  0  0  0  0  0  0  0  0  0
  160.3770  202.4780  150.9100 N   0  0  0  0  0  0  0  0  0  0  0  0
  160.9220  203.1110  149.8220 C   0  0  0  0  0  0  0  0  0  0  0  0
  161.0670  204.2380  152.4660 C   0  0  0  0  0  3  0  0  0  0  0  0
  160.4320  203.0010  152.1880 C   0  0  0  0  0  3  0  0  0  0  0  0
  161.5390  204.3170  150.0620 C   0  0  0  0  0  0  0  0  0  0  0  0
  161.6090  204.8630  151.3620 C   0  0  0  0  0  0  0  0  0  0  0  0
  162.2720  205.4910  149.5080 C   0  0  0  0  0  2  0  0  0  0  0  0
  162.3590  206.0450  150.8490 C   0  0  1  0  0  3  0  0  0  0  0  0
  161.2690  201.1560  148.5400 O   0  0  0  0  0  1  0  0  0  0  0  0
  160.8910  202.4960  148.4630 C   0  0  2  0  0  3  0  0  0  0  0  0
  161.8100  203.2170  147.5840 N   0  0  0  0  0  2  0  0  0  0  0  0
  161.1670  203.5800  146.3170 C   0  0  2  0  0  3  0  0  0  0  0  0
  161.1690  202.4340  145.3450 C   0  0  0  0  0  3  0  0  0  0  0  0
  159.0920  201.0180  144.9590 O   0  0  0  0  0  0  0  0  0  0  0  0
  160.1060  201.7030  145.1420 C   0  0  0  0  0  0  0  0  0  0  0  0
  161.7690  204.8540  145.7270 C   0  0  0  0  0  2  0  0  0  0  0  0
  160.4850  206.1390  145.6020 S   0  0  0  0  0  1  0  0  0  0  0  0
  1  4  1  1  0  0  0
  2  3  2  0  0  0  0
  3  9  1  0  0  0  0
  4  2  2  0  0  0  0
  6  7  2  0  0  0  0
  7  5  1  0  0  0  0
  8  5  2  0  0  0  0
  9  8  1  0  0  0  0
 10  9  2  0  0  0  0
 10  6  1  0  0  0  0
 11 12  1  0  0  0  0
 11  1  1  0  0  0  0
 13 14  1  6  0  0  0
 13 11  1  0  0  0  0
 13 12  1  0  0  0  0
 14 15  1  0  0  0  0
 15 19  1  6  0  0  0
 15 17  1  0  0  0  0
 17 16  1  1  0  0  0
 17 18  1  0  0  0  0
 20 19  1  0  0  0  0
 21 20  1  0  0  0  0
 22 21  2  0  0  0  0
 23 21  1  0  0  0  0
 24 26  1  0  0  0  0
 24 25  1  0  0  0  0
 25 23  2  0  0  0  0
 26 25  1  0  0  0  0
 27  1  1  0  0  0  0
 27 29  1  0  0  0  0
 28 27  2  0  0  0  0
 29 30  2  0  0  0  0
 31 34  1  0  0  0  0
 32 35  1  0  0  0  0
 32 31  2  0  0  0  0
 34 33  2  0  0  0  0
 35 36  2  0  0  0  0
 36 33  1  0  0  0  0
 37 35  1  0  0  0  0
 37 38  1  0  0  0  0
 38 29  1  6  0  0  0
 38 36  1  0  0  0  0
 40 39  1  1  0  0  0
 40 32  1  0  0  0  0
 41 40  1  0  0  0  0
 42 43  1  6  0  0  0
 42 41  1  0  0  0  0
 44 45  2  0  0  0  0
 45 43  2  0  0  0  0
 46 42  1  0  0  0  0
 47 46  1  0  0  0  0
M  END
>  <MODEL>
5

>  <REMARK>
 VINA RESULT:      -4.9      3.292      7.886
  Name = 
  17 active torsions:
  status: ('A' for Active; 'I' for Inactive)
    1  A    between atoms: C_1  and  C_17
    2  A    between atoms: C_1  and  C_23
    3  A    between atoms: C_1  and  N_25
    4  A    between atoms: C_5  and  C_46
    5  A    between atoms: C_7  and  C_19
    6  A    between atoms: N_8  and  C_37
    7  A    between atoms: C_9  and  C_34
    8  A    between atoms: N_11  and  C_34
    9  A    between atoms: N_11  and  C_46
   10  A    between atoms: N_12  and  C_18
   11  A    between atoms: C_13  and  C_35
   12  A    between atoms: C_18  and  C_19
   13  A    between atoms: C_19  and  N_38
   14  A    between atoms: C_23  and  C_28
   15  A    between atoms: C_28  and  C_40
   16  A    between atoms: C_29  and  C_46
   17  A    between atoms: N_38  and  C_47
                            x       y       z     vdW  Elec       q    Type
                         _______ _______ _______ _____ _____    ______ ____

>  <TORSDO>
F 17

$$$$
=
 OpenBabel11042421533D

 47 51  0  0  1  0  0  0  0  0999 V2000
  161.1010  208.0770  151.7210 C   0  0  2  0  0  3  0  0  0  0  0  0
  161.5960  207.7140  149.3620 C   0  0  0  0  0  0  0  0  0  0  0  0
  161.1770  207.6930  148.1240 C   0  0  0  0  0  3  0  0  0  0  0  0
  162.0220  207.7360  150.5950 C   0  0  0  0  0  3  0  0  0  0  0  0
  161.1890  205.4800  145.0780 C   0  0  0  0  0  3  0  0  0  0  0  0
  163.0580  204.8440  146.4750 C   0  0  0  0  0  3  0  0  0  0  0  0
  162.3020  204.6680  145.3140 C   0  0  0  0  0  3  0  0  0  0  0  0
  160.8320  206.4670  146.0040 C   0  0  0  0  0  3  0  0  0  0  0  0
  161.5870  206.6490  147.1690 C   0  0  0  0  0  0  0  0  0  0  0  0
  162.7030  205.8310  147.4010 C   0  0  0  0  0  3  0  0  0  0  0  0
  161.4140  209.4000  152.2530 N   0  0  0  0  0  0  0  0  0  0  0  0
  161.7870  210.1920  151.1780 O   0  0  0  0  0  0  0  0  0  0  0  0
  160.5160  210.3440  151.6300 C   0  0  2  0  0  3  0  0  0  0  0  0
  160.4220  211.5490  152.4410 N   0  0  0  0  0  2  0  0  0  0  0  0
  159.0470  212.0360  152.3940 C   0  0  2  0  0  3  0  0  0  0  0  0
  158.6600  214.4520  152.7020 N   0  0  0  0  0  1  0  0  0  0  0  0
  158.9520  213.4120  151.7270 C   0  0  1  0  0  3  0  0  0  0  0  0
  160.1350  213.7110  151.0570 O   0  0  0  0  0  1  0  0  0  0  0  0
  158.4810  212.0800  153.8010 C   0  0  0  0  0  2  0  0  0  0  0  0
  159.5310  211.8070  154.7730 N   0  0  0  0  0  2  0  0  0  0  0  0
  159.5410  212.4170  156.0680 C   0  0  0  0  0  0  0  0  0  0  0  0
  158.6170  213.2130  156.4010 O   0  0  0  0  0  0  0  0  0  0  0  0
  160.6050  212.1110  156.9770 N   0  0  0  0  0  0  0  0  0  0  0  0
  162.9250  210.6740  156.9910 C   0  0  0  0  0  2  0  0  0  0  0  0
  161.6090  211.3620  156.6550 C   0  0  0  0  0  0  0  0  0  0  0  0
  162.3930  210.4960  155.6800 C   0  0  0  0  0  2  0  0  0  0  0  0
  161.1820  207.0230  152.7930 C   0  0  0  0  0  0  0  0  0  0  0  0
  161.3120  207.4380  154.0500 C   0  0  0  0  0  2  0  0  0  0  0  0
  161.0750  205.5740  152.4840 C   0  0  0  0  0  0  0  0  0  0  0  0
  160.6340  204.7830  153.3640 O   0  0  0  0  0  0  0  0  0  0  0  0
  161.1750  201.0320  150.4840 N   0  0  0  0  0  0  0  0  0  0  0  0
  160.4060  202.0330  149.9470 C   0  0  0  0  0  0  0  0  0  0  0  0
  162.5620  202.5860  151.7710 C   0  0  0  0  0  3  0  0  0  0  0  0
  162.2140  201.2730  151.3630 C   0  0  0  0  0  3  0  0  0  0  0  0
  160.7180  203.3160  150.3300 C   0  0  0  0  0  0  0  0  0  0  0  0
  161.7790  203.5810  151.2220 C   0  0  0  0  0  0  0  0  0  0  0  0
  160.4120  204.7720  150.2320 C   0  0  0  0  0  2  0  0  0  0  0  0
  161.5150  205.0460  151.1380 C   0  0  1  0  0  3  0  0  0  0  0  0
  158.1940  201.2640  149.6220 O   0  0  0  0  0  1  0  0  0  0  0  0
  159.3250  201.7440  148.9610 C   0  0  2  0  0  3  0  0  0  0  0  0
  159.7960  200.7450  148.0040 N   0  0  0  0  0  2  0  0  0  0  0  0
  161.1250  201.0850  147.4840 C   0  0  2  0  0  3  0  0  0  0  0  0
  161.0380  201.9960  146.2910 C   0  0  0  0  0  3  0  0  0  0  0  0
  159.2510  201.6820  144.5090 O   0  0  0  0  0  0  0  0  0  0  0  0
  160.1230  201.8400  145.3730 C   0  0  0  0  0  0  0  0  0  0  0  0
  161.9570  199.8330  147.2100 C   0  0  0  0  0  2  0  0  0  0  0  0
  161.3240  198.9880  145.7280 S   0  0  0  0  0  1  0  0  0  0  0  0
  1  4  1  6  0  0  0
  1 11  1  0  0  0  0
  1 27  1  0  0  0  0
  2  4  2  0  0  0  0
  3  2  2  0  0  0  0
  5  7  2  0  0  0  0
  5  8  1  0  0  0  0
  6 10  2  0  0  0  0
  7  6  1  0  0  0  0
  8  9  2  0  0  0  0
  9 10  1  0  0  0  0
  9  3  1  0  0  0  0
 12 13  1  0  0  0  0
 12 11  1  0  0  0  0
 13 11  1  0  0  0  0
 13 14  1  1  0  0  0
 15 14  1  0  0  0  0
 15 19  1  1  0  0  0
 17 18  1  1  0  0  0
 17 15  1  0  0  0  0
 17 16  1  0  0  0  0
 19 20  1  0  0  0  0
 20 21  1  0  0  0  0
 21 22  2  0  0  0  0
 21 23  1  0  0  0  0
 25 23  2  0  0  0  0
 25 24  1  0  0  0  0
 26 25  1  0  0  0  0
 26 24  1  0  0  0  0
 27 28  2  0  0  0  0
 29 27  1  0  0  0  0
 29 30  2  0  0  0  0
 31 34  1  0  0  0  0
 32 35  1  0  0  0  0
 32 31  2  0  0  0  0
 34 33  2  0  0  0  0
 35 36  2  0  0  0  0
 36 33  1  0  0  0  0
 37 35  1  0  0  0  0
 37 38  1  0  0  0  0
 38 36  1  0  0  0  0
 38 29  1  1  0  0  0
 40 39  1  1  0  0  0
 40 32  1  0  0  0  0
 41 40  1  0  0  0  0
 42 43  1  6  0  0  0
 42 41  1  0  0  0  0
 44 45  2  0  0  0  0
 45 43  2  0  0  0  0
 46 42  1  0  0  0  0
 47 46  1  0  0  0  0
M  END
>  <MODEL>
6

>  <REMARK>
 VINA RESULT:      -4.0      4.338      9.189
  Name = 
  17 active torsions:
  status: ('A' for Active; 'I' for Inactive)
    1  A    between atoms: C_1  and  C_17
    2  A    between atoms: C_1  and  C_23
    3  A    between atoms: C_1  and  N_25
    4  A    between atoms: C_5  and  C_46
    5  A    between atoms: C_7  and  C_19
    6  A    between atoms: N_8  and  C_37
    7  A    between atoms: C_9  and  C_34
    8  A    between atoms: N_11  and  C_34
    9  A    between atoms: N_11  and  C_46
   10  A    between atoms: N_12  and  C_18
   11  A    between atoms: C_13  and  C_35
   12  A    between atoms: C_18  and  C_19
   13  A    between atoms: C_19  and  N_38
   14  A    between atoms: C_23  and  C_28
   15  A    between atoms: C_28  and  C_40
   16  A    between atoms: C_29  and  C_46
   17  A    between atoms: N_38  and  C_47
                            x       y       z     vdW  Elec       q    Type
                         _______ _______ _______ _____ _____    ______ ____

>  <TORSDO>
F 17

$$$$
=
 OpenBabel11042421533D

 47 51  0  0  1  0  0  0  0  0999 V2000
  162.0650  210.4560  149.2580 C   0  0  2  0  0  3  0  0  0  0  0  0
  161.4950  208.1800  148.5970 C   0  0  0  0  0  0  0  0  0  0  0  0
  161.6710  206.8950  148.7570 C   0  0  0  0  0  3  0  0  0  0  0  0
  161.3140  209.4620  148.4350 C   0  0  0  0  0  3  0  0  0  0  0  0
  161.6500  203.6750  146.8050 C   0  0  0  0  0  3  0  0  0  0  0  0
  162.0620  205.4880  145.2590 C   0  0  0  0  0  3  0  0  0  0  0  0
  161.8930  204.1240  145.5040 C   0  0  0  0  0  3  0  0  0  0  0  0
  161.5780  204.5910  147.8610 C   0  0  0  0  0  3  0  0  0  0  0  0
  161.7460  205.9600  147.6210 C   0  0  0  0  0  0  0  0  0  0  0  0
  161.9900  206.4050  146.3120 C   0  0  0  0  0  3  0  0  0  0  0  0
  161.4500  210.5960  150.5760 N   0  0  0  0  0  0  0  0  0  0  0  0
  161.2240  209.3150  151.0560 O   0  0  0  0  0  0  0  0  0  0  0  0
  162.3220  209.9570  151.5330 C   0  0  2  0  0  3  0  0  0  0  0  0
  162.0510  210.4680  152.8690 N   0  0  0  0  0  2  0  0  0  0  0  0
  160.8990  209.7590  153.4150 C   0  0  2  0  0  3  0  0  0  0  0  0
  160.3170  211.7400  154.7630 N   0  0  0  0  0  1  0  0  0  0  0  0
  159.7960  210.7220  153.8630 C   0  0  1  0  0  3  0  0  0  0  0  0
  159.2000  211.3270  152.7600 O   0  0  0  0  0  1  0  0  0  0  0  0
  161.3490  208.8820  154.5690 C   0  0  0  0  0  2  0  0  0  0  0  0
  161.8490  207.6090  154.0660 N   0  0  0  0  0  2  0  0  0  0  0  0
  161.0220  206.4430  154.0020 C   0  0  0  0  0  0  0  0  0  0  0  0
  159.8160  206.4990  154.3820 O   0  0  0  0  0  0  0  0  0  0  0  0
  161.5740  205.2200  153.5010 N   0  0  0  0  0  0  0  0  0  0  0  0
  161.2810  203.5880  151.3340 C   0  0  0  0  0  2  0  0  0  0  0  0
  161.1990  204.6860  152.3850 C   0  0  0  0  0  0  0  0  0  0  0  0
  160.3560  204.6510  151.1170 C   0  0  0  0  0  2  0  0  0  0  0  0
  162.1300  211.7790  148.5420 C   0  0  0  0  0  0  0  0  0  0  0  0
  162.9780  211.8810  147.5220 C   0  0  0  0  0  2  0  0  0  0  0  0
  161.2570  212.9200  148.9130 C   0  0  0  0  0  0  0  0  0  0  0  0
  161.0720  213.1900  150.1330 O   0  0  0  0  0  0  0  0  0  0  0  0
  161.9880  213.4130  144.0280 N   0  0  0  0  0  0  0  0  0  0  0  0
  160.8140  212.9080  144.5280 C   0  0  0  0  0  0  0  0  0  0  0  0
  162.6490  214.3990  146.1700 C   0  0  0  0  0  3  0  0  0  0  0  0
  162.8850  214.1290  144.7970 C   0  0  0  0  0  3  0  0  0  0  0  0
  160.5630  213.1500  145.8580 C   0  0  0  0  0  0  0  0  0  0  0  0
  161.4650  213.8840  146.6570 C   0  0  0  0  0  0  0  0  0  0  0  0
  159.6500  212.9680  147.0230 C   0  0  0  0  0  2  0  0  0  0  0  0
  160.5710  213.7380  147.8420 C   0  0  1  0  0  3  0  0  0  0  0  0
  160.4620  211.0830  143.0680 O   0  0  0  0  0  1  0  0  0  0  0  0
  159.8420  212.1840  143.6590 C   0  0  2  0  0  3  0  0  0  0  0  0
  159.3520  213.0890  142.6210 N   0  0  0  0  0  2  0  0  0  0  0  0
  159.5930  212.5460  141.2790 C   0  0  2  0  0  3  0  0  0  0  0  0
  160.7740  213.2000  140.6190 C   0  0  0  0  0  3  0  0  0  0  0  0
  160.9600  213.3590  138.0880 O   0  0  0  0  0  0  0  0  0  0  0  0
  160.8750  213.2850  139.3200 C   0  0  0  0  0  0  0  0  0  0  0  0
  158.3320  212.6000  140.4180 C   0  0  0  0  0  2  0  0  0  0  0  0
  157.4610  214.1730  140.7040 S   0  0  0  0  0  1  0  0  0  0  0  0
  1  4  1  6  0  0  0
  1 11  1  0  0  0  0
  2  3  2  0  0  0  0
  4  2  2  0  0  0  0
  5  8  1  0  0  0  0
  6  7  1  0  0  0  0
  6 10  2  0  0  0  0
  7  5  2  0  0  0  0
  9  8  2  0  0  0  0
  9  3  1  0  0  0  0
 10  9  1  0  0  0  0
 11 12  1  0  0  0  0
 11 13  1  0  0  0  0
 12 13  1  0  0  0  0
 13 14  1  1  0  0  0
 14 15  1  0  0  0  0
 15 17  1  0  0  0  0
 15 19  1  1  0  0  0
 17 18  1  6  0  0  0
 17 16  1  0  0  0  0
 20 19  1  0  0  0  0
 21 20  1  0  0  0  0
 21 22  2  0  0  0  0
 23 21  1  0  0  0  0
 24 25  1  0  0  0  0
 25 23  2  0  0  0  0
 26 24  1  0  0  0  0
 26 25  1  0  0  0  0
 27 29  1  0  0  0  0
 27  1  1  0  0  0  0
 28 27  2  0  0  0  0
 29 30  2  0  0  0  0
 31 32  2  0  0  0  0
 31 34  1  0  0  0  0
 32 35  1  0  0  0  0
 33 36  1  0  0  0  0
 34 33  2  0  0  0  0
 35 36  2  0  0  0  0
 35 37  1  0  0  0  0
 36 38  1  0  0  0  0
 37 38  1  0  0  0  0
 38 29  1  1  0  0  0
 40 39  1  6  0  0  0
 40 32  1  0  0  0  0
 41 40  1  0  0  0  0
 42 46  1  6  0  0  0
 42 41  1  0  0  0  0
 43 42  1  0  0  0  0
 44 45  2  0  0  0  0
 45 43  2  0  0  0  0
 46 47  1  0  0  0  0
M  END
>  <MODEL>
7

>  <REMARK>
 VINA RESULT:      -3.9      2.955      9.640
  Name = 
  17 active torsions:
  status: ('A' for Active; 'I' for Inactive)
    1  A    between atoms: C_1  and  C_17
    2  A    between atoms: C_1  and  C_23
    3  A    between atoms: C_1  and  N_25
    4  A    between atoms: C_5  and  C_46
    5  A    between atoms: C_7  and  C_19
    6  A    between atoms: N_8  and  C_37
    7  A    between atoms: C_9  and  C_34
    8  A    between atoms: N_11  and  C_34
    9  A    between atoms: N_11  and  C_46
   10  A    between atoms: N_12  and  C_18
   11  A    between atoms: C_13  and  C_35
   12  A    between atoms: C_18  and  C_19
   13  A    between atoms: C_19  and  N_38
   14  A    between atoms: C_23  and  C_28
   15  A    between atoms: C_28  and  C_40
   16  A    between atoms: C_29  and  C_46
   17  A    between atoms: N_38  and  C_47
                            x       y       z     vdW  Elec       q    Type
                         _______ _______ _______ _____ _____    ______ ____

>  <TORSDO>
F 17

$$$$
=
 OpenBabel11042421533D

 47 51  0  0  1  0  0  0  0  0999 V2000
  161.2460  208.1070  151.7380 C   0  0  2  0  0  3  0  0  0  0  0  0
  161.6670  207.7370  149.3660 C   0  0  0  0  0  0  0  0  0  0  0  0
  161.2070  207.7020  148.1430 C   0  0  0  0  0  3  0  0  0  0  0  0
  162.1340  207.7740  150.5840 C   0  0  0  0  0  3  0  0  0  0  0  0
  161.1880  205.5110  145.0820 C   0  0  0  0  0  3  0  0  0  0  0  0
  163.0460  204.8370  146.4750 C   0  0  0  0  0  3  0  0  0  0  0  0
  162.2880  204.6810  145.3120 C   0  0  0  0  0  3  0  0  0  0  0  0
  160.8450  206.4960  146.0140 C   0  0  0  0  0  3  0  0  0  0  0  0
  161.6020  206.6590  147.1800 C   0  0  0  0  0  0  0  0  0  0  0  0
  162.7060  205.8220  147.4080 C   0  0  0  0  0  3  0  0  0  0  0  0
  161.6280  209.3900  152.3220 N   0  0  0  0  0  0  0  0  0  0  0  0
  161.6110  210.3230  151.2960 O   0  0  0  0  0  0  0  0  0  0  0  0
  160.5290  210.3050  152.1160 C   0  0  2  0  0  3  0  0  0  0  0  0
  160.6140  211.4030  153.0670 N   0  0  0  0  0  2  0  0  0  0  0  0
  159.4180  212.2280  152.9350 C   0  0  2  0  0  3  0  0  0  0  0  0
  158.1470  212.8850  150.9260 N   0  0  0  0  0  1  0  0  0  0  0  0
  159.4150  213.0240  151.6250 C   0  0  1  0  0  3  0  0  0  0  0  0
  159.6750  214.3690  151.8730 O   0  0  0  0  0  1  0  0  0  0  0  0
  159.3130  213.1590  154.1290 C   0  0  0  0  0  2  0  0  0  0  0  0
  158.0690  212.9150  154.8460 N   0  0  0  0  0  2  0  0  0  0  0  0
  157.9590  211.8980  155.8470 C   0  0  0  0  0  0  0  0  0  0  0  0
  158.9620  211.1830  156.1390 O   0  0  0  0  0  0  0  0  0  0  0  0
  156.7060  211.7040  156.5140 N   0  0  0  0  0  0  0  0  0  0  0  0
  154.3940  210.3030  156.1420 C   0  0  0  0  0  2  0  0  0  0  0  0
  155.7760  210.9340  156.0500 C   0  0  0  0  0  0  0  0  0  0  0  0
  155.2060  209.9720  155.0170 C   0  0  0  0  0  2  0  0  0  0  0  0
  161.2940  207.0040  152.7630 C   0  0  0  0  0  0  0  0  0  0  0  0
  161.5140  207.3530  154.0270 C   0  0  0  0  0  2  0  0  0  0  0  0
  161.0600  205.5830  152.4020 C   0  0  0  0  0  0  0  0  0  0  0  0
  160.4420  204.8310  153.2080 O   0  0  0  0  0  0  0  0  0  0  0  0
  161.1150  201.0330  150.4160 N   0  0  0  0  0  0  0  0  0  0  0  0
  160.4360  202.0650  149.8200 C   0  0  0  0  0  0  0  0  0  0  0  0
  162.4650  202.5290  151.8080 C   0  0  0  0  0  3  0  0  0  0  0  0
  162.0910  201.2320  151.3740 C   0  0  0  0  0  3  0  0  0  0  0  0
  160.7740  203.3350  150.2260 C   0  0  0  0  0  0  0  0  0  0  0  0
  161.7720  203.5560  151.2000 C   0  0  0  0  0  0  0  0  0  0  0  0
  160.5410  204.8030  150.1050 C   0  0  0  0  0  2  0  0  0  0  0  0
  161.5810  205.0310  151.0940 C   0  0  1  0  0  3  0  0  0  0  0  0
  158.1620  201.6550  149.3220 O   0  0  0  0  0  1  0  0  0  0  0  0
  159.4240  201.8220  148.7520 C   0  0  2  0  0  3  0  0  0  0  0  0
  159.7880  200.6190  148.0050 N   0  0  0  0  0  2  0  0  0  0  0  0
  160.6490  200.9390  146.8610 C   0  0  2  0  0  3  0  0  0  0  0  0
  159.8790  200.9460  145.5710 C   0  0  0  0  0  3  0  0  0  0  0  0
  159.5320  203.0880  144.2440 O   0  0  0  0  0  0  0  0  0  0  0  0
  159.6980  202.0430  144.8850 C   0  0  0  0  0  0  0  0  0  0  0  0
  161.8750  200.0290  146.8100 C   0  0  0  0  0  2  0  0  0  0  0  0
  161.5820  198.6700  145.6350 S   0  0  0  0  0  1  0  0  0  0  0  0
  1  4  1  6  0  0  0
  1 11  1  0  0  0  0
  1 27  1  0  0  0  0
  2  4  2  0  0  0  0
  3  2  2  0  0  0  0
  5  7  2  0  0  0  0
  5  8  1  0  0  0  0
  6 10  2  0  0  0  0
  7  6  1  0  0  0  0
  8  9  2  0  0  0  0
  9 10  1  0  0  0  0
  9  3  1  0  0  0  0
 12 13  1  0  0  0  0
 12 11  1  0  0  0  0
 13 11  1  0  0  0  0
 13 14  1  1  0  0  0
 15 14  1  0  0  0  0
 15 19  1  1  0  0  0
 17 16  1  1  0  0  0
 17 18  1  0  0  0  0
 17 15  1  0  0  0  0
 19 20  1  0  0  0  0
 20 21  1  0  0  0  0
 21 22  2  0  0  0  0
 21 23  1  0  0  0  0
 25 24  1  0  0  0  0
 25 23  2  0  0  0  0
 26 25  1  0  0  0  0
 26 24  1  0  0  0  0
 27 28  2  0  0  0  0
 29 27  1  0  0  0  0
 29 30  2  0  0  0  0
 31 34  1  0  0  0  0
 32 35  1  0  0  0  0
 32 31  2  0  0  0  0
 34 33  2  0  0  0  0
 35 36  2  0  0  0  0
 36 33  1  0  0  0  0
 37 35  1  0  0  0  0
 37 38  1  0  0  0  0
 38 36  1  0  0  0  0
 38 29  1  1  0  0  0
 40 39  1  1  0  0  0
 40 32  1  0  0  0  0
 41 40  1  0  0  0  0
 42 43  1  6  0  0  0
 42 41  1  0  0  0  0
 44 45  2  0  0  0  0
 45 43  2  0  0  0  0
 46 42  1  0  0  0  0
 47 46  1  0  0  0  0
M  END
>  <MODEL>
8

>  <REMARK>
 VINA RESULT:      -3.8      4.333      9.337
  Name = 
  17 active torsions:
  status: ('A' for Active; 'I' for Inactive)
    1  A    between atoms: C_1  and  C_17
    2  A    between atoms: C_1  and  C_23
    3  A    between atoms: C_1  and  N_25
    4  A    between atoms: C_5  and  C_46
    5  A    between atoms: C_7  and  C_19
    6  A    between atoms: N_8  and  C_37
    7  A    between atoms: C_9  and  C_34
    8  A    between atoms: N_11  and  C_34
    9  A    between atoms: N_11  and  C_46
   10  A    between atoms: N_12  and  C_18
   11  A    between atoms: C_13  and  C_35
   12  A    between atoms: C_18  and  C_19
   13  A    between atoms: C_19  and  N_38
   14  A    between atoms: C_23  and  C_28
   15  A    between atoms: C_28  and  C_40
   16  A    between atoms: C_29  and  C_46
   17  A    between atoms: N_38  and  C_47
                            x       y       z     vdW  Elec       q    Type
                         _______ _______ _______ _____ _____    ______ ____

>  <TORSDO>
F 17

$$$$
=
 OpenBabel11042421533D

 47 51  0  0  1  0  0  0  0  0999 V2000
  161.2800  208.0490  151.7450 C   0  0  2  0  0  3  0  0  0  0  0  0
  161.6660  207.7380  149.3580 C   0  0  0  0  0  0  0  0  0  0  0  0
  161.1980  207.7700  148.1390 C   0  0  0  0  0  3  0  0  0  0  0  0
  162.1410  207.7060  150.5740 C   0  0  0  0  0  3  0  0  0  0  0  0
  163.0750  205.0520  146.3320 C   0  0  0  0  0  3  0  0  0  0  0  0
  161.0240  205.4790  145.1240 C   0  0  0  0  0  3  0  0  0  0  0  0
  162.2230  204.7750  145.2600 C   0  0  0  0  0  3  0  0  0  0  0  0
  162.7280  206.0330  147.2690 C   0  0  0  0  0  3  0  0  0  0  0  0
  161.5270  206.7400  147.1380 C   0  0  0  0  0  0  0  0  0  0  0  0
  160.6750  206.4580  146.0590 C   0  0  0  0  0  3  0  0  0  0  0  0
  161.7480  209.2780  152.3800 N   0  0  0  0  0  0  0  0  0  0  0  0
  161.6080  210.2950  151.4480 O   0  0  0  0  0  0  0  0  0  0  0  0
  160.6430  210.2070  152.3990 C   0  0  2  0  0  3  0  0  0  0  0  0
  160.8640  211.2200  153.4200 N   0  0  0  0  0  2  0  0  0  0  0  0
  159.6660  212.0480  153.5210 C   0  0  2  0  0  3  0  0  0  0  0  0
  159.1300  211.9350  155.9260 N   0  0  0  0  0  1  0  0  0  0  0  0
  158.7040  211.5300  154.5950 C   0  0  1  0  0  3  0  0  0  0  0  0
  157.4110  211.9880  154.3520 O   0  0  0  0  0  1  0  0  0  0  0  0
  158.9800  212.1090  152.1690 C   0  0  0  0  0  2  0  0  0  0  0  0
  159.7040  213.0090  151.2810 N   0  0  0  0  0  2  0  0  0  0  0  0
  159.0920  213.5790  150.1190 C   0  0  0  0  0  0  0  0  0  0  0  0
  157.8870  213.3130  149.8410 O   0  0  0  0  0  0  0  0  0  0  0  0
  159.8590  214.4530  149.2820 N   0  0  0  0  0  0  0  0  0  0  0  0
  162.0680  214.3280  147.6840 C   0  0  0  0  0  2  0  0  0  0  0  0
  160.9030  214.0610  148.6280 C   0  0  0  0  0  0  0  0  0  0  0  0
  161.9150  213.0070  148.2000 C   0  0  0  0  0  2  0  0  0  0  0  0
  161.2550  206.9040  152.7220 C   0  0  0  0  0  0  0  0  0  0  0  0
  161.5440  207.1760  153.9920 C   0  0  0  0  0  2  0  0  0  0  0  0
  160.8790  205.5260  152.3130 C   0  0  0  0  0  0  0  0  0  0  0  0
  160.0260  204.8880  152.9910 O   0  0  0  0  0  0  0  0  0  0  0  0
  160.8650  200.9010  150.5100 N   0  0  0  0  0  0  0  0  0  0  0  0
  160.3530  201.9500  149.7900 C   0  0  0  0  0  0  0  0  0  0  0  0
  162.1190  202.3590  152.0250 C   0  0  0  0  0  3  0  0  0  0  0  0
  161.7130  201.0730  151.5880 C   0  0  0  0  0  3  0  0  0  0  0  0
  160.7270  203.2100  150.1960 C   0  0  0  0  0  0  0  0  0  0  0  0
  161.5960  203.4040  151.2910 C   0  0  0  0  0  0  0  0  0  0  0  0
  160.6240  204.6830  149.9930 C   0  0  0  0  0  2  0  0  0  0  0  0
  161.5320  204.8820  151.1100 C   0  0  1  0  0  3  0  0  0  0  0  0
  158.1630  201.5310  149.0070 O   0  0  0  0  0  1  0  0  0  0  0  0
  159.4820  201.7310  148.6000 C   0  0  2  0  0  3  0  0  0  0  0  0
  159.9530  200.5580  147.8640 N   0  0  0  0  0  2  0  0  0  0  0  0
  161.2280  200.8250  147.1890 C   0  0  2  0  0  3  0  0  0  0  0  0
  161.0630  201.7980  146.0560 C   0  0  0  0  0  3  0  0  0  0  0  0
  158.9920  201.7780  144.5800 O   0  0  0  0  0  0  0  0  0  0  0  0
  160.0020  201.7930  145.2950 C   0  0  0  0  0  0  0  0  0  0  0  0
  161.9170  199.5310  146.7600 C   0  0  0  0  0  2  0  0  0  0  0  0
  161.1080  198.8720  145.2680 S   0  0  0  0  0  1  0  0  0  0  0  0
  1  4  1  6  0  0  0
  1 11  1  0  0  0  0
  1 27  1  0  0  0  0
  2  4  2  0  0  0  0
  3  2  2  0  0  0  0
  5  8  1  0  0  0  0
  6  7  1  0  0  0  0
  6 10  2  0  0  0  0
  7  5  2  0  0  0  0
  9  8  2  0  0  0  0
  9  3  1  0  0  0  0
 10  9  1  0  0  0  0
 11 13  1  0  0  0  0
 12 11  1  0  0  0  0
 12 13  1  0  0  0  0
 13 14  1  1  0  0  0
 14 15  1  0  0  0  0
 15 19  1  6  0  0  0
 15 17  1  0  0  0  0
 17 18  1  6  0  0  0
 17 16  1  0  0  0  0
 20 19  1  0  0  0  0
 21 20  1  0  0  0  0
 22 21  2  0  0  0  0
 23 21  1  0  0  0  0
 24 26  1  0  0  0  0
 24 25  1  0  0  0  0
 25 23  2  0  0  0  0
 26 25  1  0  0  0  0
 27 28  2  0  0  0  0
 29 27  1  0  0  0  0
 29 30  2  0  0  0  0
 31 34  1  0  0  0  0
 32 35  1  0  0  0  0
 32 31  2  0  0  0  0
 34 33  2  0  0  0  0
 35 36  2  0  0  0  0
 36 33  1  0  0  0  0
 37 35  1  0  0  0  0
 37 38  1  0  0  0  0
 38 36  1  0  0  0  0
 38 29  1  1  0  0  0
 40 39  1  1  0  0  0
 40 32  1  0  0  0  0
 41 40  1  0  0  0  0
 42 43  1  6  0  0  0
 42 41  1  0  0  0  0
 44 45  2  0  0  0  0
 45 43  2  0  0  0  0
 46 42  1  0  0  0  0
 47 46  1  0  0  0  0
M  END
>  <MODEL>
9

>  <REMARK>
 VINA RESULT:      -3.8      4.263      8.243
  Name = 
  17 active torsions:
  status: ('A' for Active; 'I' for Inactive)
    1  A    between atoms: C_1  and  C_17
    2  A    between atoms: C_1  and  C_23
    3  A    between atoms: C_1  and  N_25
    4  A    between atoms: C_5  and  C_46
    5  A    between atoms: C_7  and  C_19
    6  A    between atoms: N_8  and  C_37
    7  A    between atoms: C_9  and  C_34
    8  A    between atoms: N_11  and  C_34
    9  A    between atoms: N_11  and  C_46
   10  A    between atoms: N_12  and  C_18
   11  A    between atoms: C_13  and  C_35
   12  A    between atoms: C_18  and  C_19
   13  A    between atoms: C_19  and  N_38
   14  A    between atoms: C_23  and  C_28
   15  A    between atoms: C_28  and  C_40
   16  A    between atoms: C_29  and  C_46
   17  A    between atoms: N_38  and  C_47
                            x       y       z     vdW  Elec       q    Type
                         _______ _______ _______ _____ _____    ______ ____

>  <TORSDO>
F 17

$$$$
