=
 OpenBabel11042422313D

 26 29  0  0  1  0  0  0  0  0999 V2000
  158.8390  211.3030  153.1370 C   0  0  2  0  0  3  0  0  0  0  0  0
  161.1450  210.2520  153.8270 C   0  0  0  0  0  0  0  0  0  0  0  0
  160.7510  212.6800  157.2590 O   0  0  0  0  0  1  0  0  0  0  0  0
  158.3100  213.0430  151.8770 C   0  0  2  0  0  3  0  0  0  0  0  0
  160.0260  211.0860  154.0200 C   0  0  0  0  0  0  0  0  0  0  0  0
  162.0180  211.0740  155.9640 C   0  0  0  0  0  3  0  0  0  0  0  0
  159.9070  211.8650  155.1400 C   0  0  0  0  0  0  0  0  0  0  0  0
  157.8280  213.4200  153.1420 O   0  0  0  0  0  0  0  0  0  0  0  0
  159.2290  211.9870  151.9890 O   0  0  0  0  0  0  0  0  0  0  0  0
  158.7070  212.6110  155.1530 N   0  0  0  0  0  2  0  0  0  0  0  0
  160.8860  211.8820  156.1310 C   0  0  0  0  0  0  0  0  0  0  0  0
  157.9760  212.2810  153.9310 C   0  0  2  0  0  0  0  0  0  0  0  0
  162.1450  210.2640  154.8220 C   0  0  0  0  0  3  0  0  0  0  0  0
  161.9550  209.7120  151.4780 C   0  0  0  0  0  3  0  0  0  0  0  0
  161.2570  207.6740  151.2530 C   0  0  0  0  0  3  0  0  0  0  0  0
  161.9190  208.6690  150.6300 N   0  0  0  0  0  0  0  0  0  0  0  0
  161.3050  209.3720  152.6470 C   0  0  1  0  0  3  0  0  0  0  0  0
  160.8590  208.0720  152.5140 C   0  0  0  0  0  3  0  0  0  0  0  0
  156.4670  211.0410  155.2750 O   0  0  0  0  0  0  0  0  0  0  0  0
  156.6350  211.6960  154.2580 C   0  0  0  0  0  3  0  0  0  0  0  0
  158.9730  214.2370  151.2100 C   0  0  0  0  0  2  0  0  0  0  0  0
  160.1810  213.8200  150.5170 N   0  0  0  0  0  2  0  0  0  0  0  0
  159.9520  214.0210  149.0950 C   0  0  0  0  0  2  0  0  0  0  0  0
  161.2530  213.8600  148.3260 C   0  0  0  0  0  2  0  0  0  0  0  0
  161.3960  212.4470  147.7820 C   0  0  0  0  0  2  0  0  0  0  0  0
  162.3070  211.7240  148.5530 O   0  0  0  0  0  1  0  0  0  0  0  0
  1  9  1  6  0  0  0
  1 12  1  0  0  0  0
  1  5  1  0  0  0  0
  2  5  2  0  0  0  0
  2 13  1  0  0  0  0
  4 21  1  1  0  0  0
  4  9  1  0  0  0  0
  4  8  1  0  0  0  0
  5  7  1  0  0  0  0
  6 11  1  0  0  0  0
  7 10  1  0  0  0  0
  7 11  2  0  0  0  0
  8 12  1  0  0  0  0
 11  3  1  0  0  0  0
 12 20  1  1  0  0  0
 12 10  1  0  0  0  0
 13  6  2  0  0  0  0
 14 17  1  0  0  0  0
 15 18  2  0  0  0  0
 16 15  1  0  0  0  0
 16 14  2  0  0  0  0
 17  2  1  1  0  0  0
 18 17  1  0  0  0  0
 20 19  2  0  0  0  0
 22 21  1  0  0  0  0
 23 22  1  0  0  0  0
 24 23  1  0  0  0  0
 25 24  1  0  0  0  0
 25 26  1  0  0  0  0
M  END
>  <MODEL>
1

>  <REMARK>
 VINA RESULT:      -4.8      0.000      0.000
  Name = 
  7 active torsions:
  status: ('A' for Active; 'I' for Inactive)
    1  A    between atoms: C_3  and  C_10
    2  A    between atoms: C_3  and  N_19
    3  A    between atoms: C_4  and  C_8
    4  A    between atoms: C_6  and  C_16
    5  A    between atoms: C_8  and  C_14
    6  A    between atoms: C_14  and  N_19
    7  A    between atoms: C_21  and  C_25
                            x       y       z     vdW  Elec       q    Type
                         _______ _______ _______ _____ _____    ______ ____

>  <TORSDO>
F 7

$$$$
=
 OpenBabel11042422313D

 26 29  0  0  1  0  0  0  0  0999 V2000
  160.7200  211.1150  153.2670 C   0  0  2  0  0  3  0  0  0  0  0  0
  158.5450  212.5130  152.8080 C   0  0  0  0  0  0  0  0  0  0  0  0
  157.3160  211.0580  156.5760 O   0  0  0  0  0  1  0  0  0  0  0  0
  161.3220  209.0620  152.6990 C   0  0  2  0  0  3  0  0  0  0  0  0
  159.3650  211.6640  153.5770 C   0  0  0  0  0  0  0  0  0  0  0  0
  156.8700  212.3700  154.5910 C   0  0  0  0  0  3  0  0  0  0  0  0
  158.9570  211.2020  154.8010 C   0  0  0  0  0  0  0  0  0  0  0  0
  161.2730  208.9930  154.1020 O   0  0  0  0  0  0  0  0  0  0  0  0
  160.6250  210.1880  152.2320 O   0  0  0  0  0  0  0  0  0  0  0  0
  159.9280  210.3820  155.4180 N   0  0  0  0  0  2  0  0  0  0  0  0
  157.7150  211.5370  155.3350 C   0  0  0  0  0  0  0  0  0  0  0  0
  161.0750  210.3090  154.5160 C   0  0  2  0  0  0  0  0  0  0  0  0
  157.2830  212.8550  153.3380 C   0  0  0  0  0  3  0  0  0  0  0  0
  158.1150  213.2600  150.4150 C   0  0  0  0  0  3  0  0  0  0  0  0
  160.0920  213.9130  149.8190 C   0  0  0  0  0  3  0  0  0  0  0  0
  158.8200  213.7810  149.3950 N   0  0  0  0  0  0  0  0  0  0  0  0
  158.9540  213.0590  151.4930 C   0  0  1  0  0  3  0  0  0  0  0  0
  160.2170  213.4760  151.1240 C   0  0  0  0  0  3  0  0  0  0  0  0
  162.7360  210.3270  156.2060 O   0  0  0  0  0  0  0  0  0  0  0  0
  162.3090  210.8380  155.1820 C   0  0  0  0  0  3  0  0  0  0  0  0
  160.7200  207.7980  152.1080 C   0  0  0  0  0  2  0  0  0  0  0  0
  161.7500  207.0140  151.4460 N   0  0  0  0  0  2  0  0  0  0  0  0
  161.0890  206.2050  150.4340 C   0  0  0  0  0  2  0  0  0  0  0  0
  160.8960  207.0130  149.1610 C   0  0  0  0  0  2  0  0  0  0  0  0
  162.1880  207.6990  148.7450 C   0  0  0  0  0  2  0  0  0  0  0  0
  162.0260  209.0850  148.7660 O   0  0  0  0  0  1  0  0  0  0  0  0
  1  9  1  6  0  0  0
  1  5  1  0  0  0  0
  1 12  1  0  0  0  0
  2 13  2  0  0  0  0
  2  5  1  0  0  0  0
  4 21  1  6  0  0  0
  4  8  1  0  0  0  0
  5  7  2  0  0  0  0
  6 11  2  0  0  0  0
  7 11  1  0  0  0  0
  7 10  1  0  0  0  0
  8 12  1  0  0  0  0
  9  4  1  0  0  0  0
 11  3  1  0  0  0  0
 12 20  1  1  0  0  0
 12 10  1  0  0  0  0
 13  6  1  0  0  0  0
 14 17  1  0  0  0  0
 15 18  2  0  0  0  0
 16 15  1  0  0  0  0
 16 14  2  0  0  0  0
 17  2  1  1  0  0  0
 18 17  1  0  0  0  0
 20 19  2  0  0  0  0
 22 21  1  0  0  0  0
 23 22  1  0  0  0  0
 24 23  1  0  0  0  0
 25 26  1  0  0  0  0
 25 24  1  0  0  0  0
M  END
>  <MODEL>
2

>  <REMARK>
 VINA RESULT:      -4.6      1.821      5.051
  Name = 
  7 active torsions:
  status: ('A' for Active; 'I' for Inactive)
    1  A    between atoms: C_3  and  C_10
    2  A    between atoms: C_3  and  N_19
    3  A    between atoms: C_4  and  C_8
    4  A    between atoms: C_6  and  C_16
    5  A    between atoms: C_8  and  C_14
    6  A    between atoms: C_14  and  N_19
    7  A    between atoms: C_21  and  C_25
                            x       y       z     vdW  Elec       q    Type
                         _______ _______ _______ _____ _____    ______ ____

>  <TORSDO>
F 7

$$$$
=
 OpenBabel11042422313D

 26 29  0  0  1  0  0  0  0  0999 V2000
  161.6470  210.8100  151.7430 C   0  0  2  0  0  3  0  0  0  0  0  0
  160.2410  212.6440  150.4940 C   0  0  0  0  0  0  0  0  0  0  0  0
  157.5300  212.1480  153.6920 O   0  0  0  0  0  1  0  0  0  0  0  0
  161.7550  208.6100  151.5270 C   0  0  2  0  0  3  0  0  0  0  0  0
  160.4900  211.7350  151.5420 C   0  0  0  0  0  0  0  0  0  0  0  0
  158.1330  213.2160  151.6050 C   0  0  0  0  0  3  0  0  0  0  0  0
  159.6050  211.5870  152.5770 C   0  0  0  0  0  0  0  0  0  0  0  0
  161.2550  208.7690  152.8310 O   0  0  0  0  0  0  0  0  0  0  0  0
  161.6060  209.7960  150.7890 O   0  0  0  0  0  0  0  0  0  0  0  0
  160.0460  210.6440  153.5320 N   0  0  0  0  0  2  0  0  0  0  0  0
  158.4170  212.3120  152.6370 C   0  0  0  0  0  0  0  0  0  0  0  0
  161.3400  210.1380  153.0790 C   0  0  2  0  0  0  0  0  0  0  0  0
  159.0390  213.3810  150.5430 C   0  0  0  0  0  3  0  0  0  0  0  0
  161.6400  214.0860  148.9340 C   0  0  0  0  0  3  0  0  0  0  0  0
  162.5680  212.5770  147.6900 C   0  0  0  0  0  3  0  0  0  0  0  0
  162.4860  213.9040  147.9060 N   0  0  0  0  0  0  0  0  0  0  0  0
  161.1810  212.8590  149.3690 C   0  0  1  0  0  3  0  0  0  0  0  0
  161.7700  211.8890  148.5840 C   0  0  0  0  0  3  0  0  0  0  0  0
  162.1150  210.8310  155.2090 O   0  0  0  0  0  0  0  0  0  0  0  0
  162.4040  210.4180  154.0970 C   0  0  0  0  0  3  0  0  0  0  0  0
  161.0190  207.4740  150.8360 C   0  0  0  0  0  2  0  0  0  0  0  0
  161.1640  207.5860  149.3930 N   0  0  0  0  0  2  0  0  0  0  0  0
  160.7630  206.3100  148.8220 C   0  0  0  0  0  2  0  0  0  0  0  0
  160.7780  205.2290  149.8910 C   0  0  0  0  0  2  0  0  0  0  0  0
  160.9360  203.8490  149.2730 C   0  0  0  0  0  2  0  0  0  0  0  0
  160.8730  202.8670  150.2620 O   0  0  0  0  0  1  0  0  0  0  0  0
  1  9  1  6  0  0  0
  1 12  1  0  0  0  0
  2 13  2  0  0  0  0
  2  5  1  0  0  0  0
  4 21  1  6  0  0  0
  4  8  1  0  0  0  0
  5  1  1  0  0  0  0
  5  7  2  0  0  0  0
  6 11  2  0  0  0  0
  7 11  1  0  0  0  0
  7 10  1  0  0  0  0
  8 12  1  0  0  0  0
  9  4  1  0  0  0  0
 11  3  1  0  0  0  0
 12 10  1  0  0  0  0
 12 20  1  1  0  0  0
 13  6  1  0  0  0  0
 14 17  1  0  0  0  0
 15 16  1  0  0  0  0
 15 18  2  0  0  0  0
 16 14  2  0  0  0  0
 17  2  1  1  0  0  0
 18 17  1  0  0  0  0
 20 19  2  0  0  0  0
 22 21  1  0  0  0  0
 23 22  1  0  0  0  0
 23 24  1  0  0  0  0
 25 24  1  0  0  0  0
 25 26  1  0  0  0  0
M  END
>  <MODEL>
3

>  <REMARK>
 VINA RESULT:      -4.5      2.772      5.784
  Name = 
  7 active torsions:
  status: ('A' for Active; 'I' for Inactive)
    1  A    between atoms: C_3  and  C_10
    2  A    between atoms: C_3  and  N_19
    3  A    between atoms: C_4  and  C_8
    4  A    between atoms: C_6  and  C_16
    5  A    between atoms: C_8  and  C_14
    6  A    between atoms: C_14  and  N_19
    7  A    between atoms: C_21  and  C_25
                            x       y       z     vdW  Elec       q    Type
                         _______ _______ _______ _____ _____    ______ ____

>  <TORSDO>
F 7

$$$$
=
 OpenBabel11042422313D

 26 29  0  0  1  0  0  0  0  0999 V2000
  159.6380  210.5020  153.6270 C   0  0  2  0  0  3  0  0  0  0  0  0
  158.0240  212.5740  153.5590 C   0  0  0  0  0  0  0  0  0  0  0  0
  160.3480  213.7480  150.2360 O   0  0  0  0  0  1  0  0  0  0  0  0
  161.4990  210.0980  154.7530 C   0  0  2  0  0  3  0  0  0  0  0  0
  159.1020  211.7930  153.0960 C   0  0  0  0  0  0  0  0  0  0  0  0
  158.5250  214.1740  151.7720 C   0  0  0  0  0  3  0  0  0  0  0  0
  159.8450  212.1820  152.0130 C   0  0  0  0  0  0  0  0  0  0  0  0
  161.9380  210.0900  153.4180 O   0  0  0  0  0  0  0  0  0  0  0  0
  160.2450  210.7200  154.8610 O   0  0  0  0  0  0  0  0  0  0  0  0
  160.8640  211.2560  151.6980 N   0  0  0  0  0  2  0  0  0  0  0  0
  159.5830  213.3680  151.3300 C   0  0  0  0  0  0  0  0  0  0  0  0
  160.7700  210.1600  152.6600 C   0  0  2  0  0  0  0  0  0  0  0  0
  157.7520  213.7780  152.8770 C   0  0  0  0  0  3  0  0  0  0  0  0
  156.1050  211.3100  154.6500 C   0  0  0  0  0  3  0  0  0  0  0  0
  156.3020  211.9460  156.7100 C   0  0  0  0  0  3  0  0  0  0  0  0
  155.5760  211.1740  155.8780 N   0  0  0  0  0  2  0  0  0  0  0  0
  157.1740  212.1800  154.7070 C   0  0  0  0  0  0  0  0  0  0  0  0
  157.3110  212.5890  156.0190 C   0  0  0  0  0  3  0  0  0  0  0  0
  161.0430  207.8250  152.3540 O   0  0  0  0  0  0  0  0  0  0  0  0
  160.5240  208.8580  151.9590 C   0  0  0  0  0  3  0  0  0  0  0  0
  162.5150  210.8270  155.6160 C   0  0  0  0  0  2  0  0  0  0  0  0
  162.8610  210.0210  156.7760 N   0  0  0  0  0  2  0  0  0  0  0  0
  161.6360  209.3910  157.2410 C   0  0  0  0  0  2  0  0  0  0  0  0
  161.7370  207.8810  157.1040 C   0  0  0  0  0  2  0  0  0  0  0  0
  160.3590  207.2400  157.0660 C   0  0  0  0  0  2  0  0  0  0  0  0
  159.8890  207.1840  155.7530 O   0  0  0  0  0  1  0  0  0  0  0  0
  1  5  1  6  0  0  0
  1  9  1  0  0  0  0
  2 17  1  0  0  0  0
  3 11  1  0  0  0  0
  4  9  1  0  0  0  0
  4 21  1  1  0  0  0
  5  2  1  0  0  0  0
  6 13  1  0  0  0  0
  7  5  2  0  0  0  0
  8  4  1  0  0  0  0
 10  7  1  0  0  0  0
 10 12  1  0  0  0  0
 11  6  2  0  0  0  0
 11  7  1  0  0  0  0
 12 20  1  6  0  0  0
 12  8  1  0  0  0  0
 12  1  1  0  0  0  0
 13  2  2  0  0  0  0
 14 17  2  0  0  0  0
 14 16  1  0  0  0  0
 16 15  1  0  0  0  0
 17 18  1  0  0  0  0
 18 15  2  0  0  0  0
 20 19  2  0  0  0  0
 21 22  1  0  0  0  0
 22 23  1  0  0  0  0
 24 23  1  0  0  0  0
 25 24  1  0  0  0  0
 26 25  1  0  0  0  0
M  END
>  <MODEL>
4

>  <REMARK>
 VINA RESULT:      -4.0      2.636      6.553
  Name = 
  7 active torsions:
  status: ('A' for Active; 'I' for Inactive)
    1  A    between atoms: C_3  and  C_10
    2  A    between atoms: C_3  and  N_19
    3  A    between atoms: C_4  and  C_8
    4  A    between atoms: C_6  and  C_16
    5  A    between atoms: C_8  and  C_14
    6  A    between atoms: C_14  and  N_19
    7  A    between atoms: C_21  and  C_25
                            x       y       z     vdW  Elec       q    Type
                         _______ _______ _______ _____ _____    ______ ____

>  <TORSDO>
F 7

$$$$
=
 OpenBabel11042422313D

 26 29  0  0  1  0  0  0  0  0999 V2000
  161.7340  211.6380  150.0660 C   0  0  2  0  0  3  0  0  0  0  0  0
  161.3340  209.5310  151.5830 C   0  0  0  0  0  0  0  0  0  0  0  0
  161.7160  207.3770  147.9730 O   0  0  0  0  0  1  0  0  0  0  0  0
  160.3450  213.0340  149.0560 C   0  0  2  0  0  3  0  0  0  0  0  0
  161.5820  210.1790  150.3570 C   0  0  0  0  0  0  0  0  0  0  0  0
  161.3290  207.4060  150.3620 C   0  0  0  0  0  3  0  0  0  0  0  0
  161.7080  209.4690  149.1920 C   0  0  0  0  0  0  0  0  0  0  0  0
  161.0160  212.4310  147.9780 O   0  0  0  0  0  0  0  0  0  0  0  0
  160.5080  212.2780  150.2290 O   0  0  0  0  0  0  0  0  0  0  0  0
  161.9720  210.2990  148.0800 N   0  0  0  0  0  2  0  0  0  0  0  0
  161.5870  208.0810  149.1620 C   0  0  0  0  0  0  0  0  0  0  0  0
  162.0280  211.6760  148.5680 C   0  0  2  0  0  0  0  0  0  0  0  0
  161.2050  208.1270  151.5630 C   0  0  0  0  0  3  0  0  0  0  0  0
  160.1240  210.9940  153.2760 C   0  0  0  0  0  3  0  0  0  0  0  0
  161.5830  211.0780  154.8740 C   0  0  0  0  0  3  0  0  0  0  0  0
  160.3580  211.4960  154.5010 N   0  0  0  0  0  2  0  0  0  0  0  0
  161.2170  210.2540  152.8710 C   0  0  0  0  0  0  0  0  0  0  0  0
  162.1520  210.2980  153.8860 C   0  0  0  0  0  3  0  0  0  0  0  0
  163.4580  213.3970  147.7860 O   0  0  0  0  0  0  0  0  0  0  0  0
  163.3680  212.2850  148.2830 C   0  0  0  0  0  3  0  0  0  0  0  0
  158.8680  213.1650  148.7250 C   0  0  0  0  0  2  0  0  0  0  0  0
  158.6680  214.1940  147.7180 N   0  0  0  0  0  2  0  0  0  0  0  0
  157.4650  213.8440  146.9800 C   0  0  0  0  0  2  0  0  0  0  0  0
  157.6960  212.5780  146.1710 C   0  0  0  0  0  2  0  0  0  0  0  0
  158.6260  212.8390  144.9970 C   0  0  0  0  0  2  0  0  0  0  0  0
  159.6730  211.9170  144.9970 O   0  0  0  0  0  1  0  0  0  0  0  0
  1  9  1  6  0  0  0
  1  5  1  0  0  0  0
  2 17  1  0  0  0  0
  3 11  1  0  0  0  0
  4 21  1  6  0  0  0
  4  9  1  0  0  0  0
  5  2  2  0  0  0  0
  6 13  2  0  0  0  0
  7  5  1  0  0  0  0
  8 12  1  0  0  0  0
  8  4  1  0  0  0  0
 10 12  1  0  0  0  0
 10  7  1  0  0  0  0
 11  7  2  0  0  0  0
 11  6  1  0  0  0  0
 12 20  1  6  0  0  0
 12  1  1  0  0  0  0
 13  2  1  0  0  0  0
 14 16  1  0  0  0  0
 16 15  1  0  0  0  0
 17 14  2  0  0  0  0
 17 18  1  0  0  0  0
 18 15  2  0  0  0  0
 19 20  2  0  0  0  0
 22 21  1  0  0  0  0
 23 22  1  0  0  0  0
 24 23  1  0  0  0  0
 25 26  1  0  0  0  0
 25 24  1  0  0  0  0
M  END
>  <MODEL>
5

>  <REMARK>
 VINA RESULT:      -3.8      2.755      5.661
  Name = 
  7 active torsions:
  status: ('A' for Active; 'I' for Inactive)
    1  A    between atoms: C_3  and  C_10
    2  A    between atoms: C_3  and  N_19
    3  A    between atoms: C_4  and  C_8
    4  A    between atoms: C_6  and  C_16
    5  A    between atoms: C_8  and  C_14
    6  A    between atoms: C_14  and  N_19
    7  A    between atoms: C_21  and  C_25
                            x       y       z     vdW  Elec       q    Type
                         _______ _______ _______ _____ _____    ______ ____

>  <TORSDO>
F 7

$$$$
=
 OpenBabel11042422313D

 26 29  0  0  1  0  0  0  0  0999 V2000
  159.0780  211.0510  153.3240 C   0  0  2  0  0  3  0  0  0  0  0  0
  161.1050  209.7150  154.3290 C   0  0  0  0  0  0  0  0  0  0  0  0
  161.1200  212.7560  157.2570 O   0  0  0  0  0  1  0  0  0  0  0  0
  158.9470  212.6020  151.7520 C   0  0  2  0  0  3  0  0  0  0  0  0
  160.1730  210.7720  154.3040 C   0  0  0  0  0  0  0  0  0  0  0  0
  162.0690  210.7260  156.3420 C   0  0  0  0  0  3  0  0  0  0  0  0
  160.1840  211.7500  155.2630 C   0  0  0  0  0  0  0  0  0  0  0  0
  158.5180  213.2890  152.9000 O   0  0  0  0  0  0  0  0  0  0  0  0
  159.6290  211.4260  152.1020 O   0  0  0  0  0  0  0  0  0  0  0  0
  159.1610  212.7050  155.0710 N   0  0  0  0  0  2  0  0  0  0  0  0
  161.1210  211.7560  156.2950 C   0  0  0  0  0  0  0  0  0  0  0  0
  158.4100  212.3070  153.8820 C   0  0  2  0  0  0  0  0  0  0  0  0
  162.0600  209.7130  155.3670 C   0  0  0  0  0  3  0  0  0  0  0  0
  161.2420  207.2770  153.6180 C   0  0  0  0  0  3  0  0  0  0  0  0
  161.0350  207.4550  151.4700 C   0  0  0  0  0  3  0  0  0  0  0  0
  161.1950  206.5720  152.4740 N   0  0  0  0  0  0  0  0  0  0  0  0
  161.1140  208.6210  153.3300 C   0  0  1  0  0  3  0  0  0  0  0  0
  160.9770  208.7450  151.9620 C   0  0  0  0  0  3  0  0  0  0  0  0
  156.6570  211.2630  155.0890 O   0  0  0  0  0  0  0  0  0  0  0  0
  156.9710  212.0630  154.2200 C   0  0  0  0  0  3  0  0  0  0  0  0
  159.8550  213.5030  150.9310 C   0  0  0  0  0  2  0  0  0  0  0  0
  159.1000  214.1410  149.8640 N   0  0  0  0  0  2  0  0  0  0  0  0
  158.7330  213.1000  148.9180 C   0  0  0  0  0  2  0  0  0  0  0  0
  157.4600  213.4860  148.1820 C   0  0  0  0  0  2  0  0  0  0  0  0
  156.6230  214.4530  149.0040 C   0  0  0  0  0  2  0  0  0  0  0  0
  155.2800  214.3590  148.6400 O   0  0  0  0  0  1  0  0  0  0  0  0
  1  9  1  6  0  0  0
  1 12  1  0  0  0  0
  1  5  1  0  0  0  0
  2 13  1  0  0  0  0
  4 21  1  1  0  0  0
  4  9  1  0  0  0  0
  4  8  1  0  0  0  0
  5  2  2  0  0  0  0
  5  7  1  0  0  0  0
  7 11  2  0  0  0  0
  8 12  1  0  0  0  0
 10  7  1  0  0  0  0
 11  6  1  0  0  0  0
 11  3  1  0  0  0  0
 12 20  1  1  0  0  0
 12 10  1  0  0  0  0
 13  6  2  0  0  0  0
 15 18  2  0  0  0  0
 15 16  1  0  0  0  0
 16 14  2  0  0  0  0
 17 14  1  0  0  0  0
 17  2  1  1  0  0  0
 18 17  1  0  0  0  0
 20 19  2  0  0  0  0
 22 21  1  0  0  0  0
 23 22  1  0  0  0  0
 24 23  1  0  0  0  0
 24 25  1  0  0  0  0
 26 25  1  0  0  0  0
M  END
>  <MODEL>
6

>  <REMARK>
 VINA RESULT:      -3.7      1.614      2.241
  Name = 
  7 active torsions:
  status: ('A' for Active; 'I' for Inactive)
    1  A    between atoms: C_3  and  C_10
    2  A    between atoms: C_3  and  N_19
    3  A    between atoms: C_4  and  C_8
    4  A    between atoms: C_6  and  C_16
    5  A    between atoms: C_8  and  C_14
    6  A    between atoms: C_14  and  N_19
    7  A    between atoms: C_21  and  C_25
                            x       y       z     vdW  Elec       q    Type
                         _______ _______ _______ _____ _____    ______ ____

>  <TORSDO>
F 7

$$$$
=
 OpenBabel11042422313D

 26 29  0  0  1  0  0  0  0  0999 V2000
  160.6230  210.1060  153.2050 C   0  0  2  0  0  3  0  0  0  0  0  0
  159.8280  211.0710  155.5160 C   0  0  0  0  0  0  0  0  0  0  0  0
  163.9450  211.0900  156.4510 O   0  0  0  0  0  1  0  0  0  0  0  0
  160.8320  208.0390  152.4440 C   0  0  2  0  0  3  0  0  0  0  0  0
  160.8000  210.6380  154.5910 C   0  0  0  0  0  0  0  0  0  0  0  0
  161.6490  211.5080  157.0960 C   0  0  0  0  0  3  0  0  0  0  0  0
  162.1330  210.6540  154.9040 C   0  0  0  0  0  0  0  0  0  0  0  0
  162.1560  208.5090  152.4280 O   0  0  0  0  0  0  0  0  0  0  0  0
  160.0250  208.8500  153.2590 O   0  0  0  0  0  0  0  0  0  0  0  0
  162.9420  210.2010  153.8390 N   0  0  0  0  0  2  0  0  0  0  0  0
  162.5900  211.0830  156.1490 C   0  0  0  0  0  0  0  0  0  0  0  0
  162.0540  209.8670  152.7280 C   0  0  2  0  0  0  0  0  0  0  0  0
  160.2790  211.5030  156.7800 C   0  0  0  0  0  3  0  0  0  0  0  0
  157.7720  211.9100  154.2750 C   0  0  0  0  0  3  0  0  0  0  0  0
  156.2190  210.6950  155.1710 C   0  0  0  0  0  3  0  0  0  0  0  0
  156.4520  211.6590  154.2580 N   0  0  0  0  0  0  0  0  0  0  0  0
  158.3780  211.0980  155.2130 C   0  0  1  0  0  3  0  0  0  0  0  0
  157.3950  210.3160  155.7870 C   0  0  0  0  0  3  0  0  0  0  0  0
  162.3290  210.2120  150.3990 O   0  0  0  0  0  0  0  0  0  0  0  0
  162.3790  210.6930  151.5210 C   0  0  0  0  0  3  0  0  0  0  0  0
  160.8080  206.6070  152.9520 C   0  0  0  0  0  2  0  0  0  0  0  0
  161.6310  205.7590  152.1050 N   0  0  0  0  0  2  0  0  0  0  0  0
  160.9350  204.4910  151.9620 C   0  0  0  0  0  2  0  0  0  0  0  0
  161.1100  203.9520  150.5510 C   0  0  0  0  0  2  0  0  0  0  0  0
  160.8370  205.0320  149.5150 C   0  0  0  0  0  2  0  0  0  0  0  0
  161.4540  204.7070  148.3070 O   0  0  0  0  0  1  0  0  0  0  0  0
  1  9  1  1  0  0  0
  1  5  1  0  0  0  0
  2 13  1  0  0  0  0
  4 21  1  1  0  0  0
  4  9  1  0  0  0  0
  5  7  1  0  0  0  0
  5  2  2  0  0  0  0
  7 11  2  0  0  0  0
  8  4  1  0  0  0  0
  8 12  1  0  0  0  0
 10  7  1  0  0  0  0
 11  3  1  0  0  0  0
 11  6  1  0  0  0  0
 12 20  1  6  0  0  0
 12  1  1  0  0  0  0
 12 10  1  0  0  0  0
 13  6  2  0  0  0  0
 14 17  1  0  0  0  0
 15 18  2  0  0  0  0
 16 14  2  0  0  0  0
 16 15  1  0  0  0  0
 17  2  1  6  0  0  0
 17 18  1  0  0  0  0
 19 20  2  0  0  0  0
 22 21  1  0  0  0  0
 23 22  1  0  0  0  0
 24 23  1  0  0  0  0
 25 24  1  0  0  0  0
 26 25  1  0  0  0  0
M  END
>  <MODEL>
7

>  <REMARK>
 VINA RESULT:      -3.4      2.947      5.901
  Name = 
  7 active torsions:
  status: ('A' for Active; 'I' for Inactive)
    1  A    between atoms: C_3  and  C_10
    2  A    between atoms: C_3  and  N_19
    3  A    between atoms: C_4  and  C_8
    4  A    between atoms: C_6  and  C_16
    5  A    between atoms: C_8  and  C_14
    6  A    between atoms: C_14  and  N_19
    7  A    between atoms: C_21  and  C_25
                            x       y       z     vdW  Elec       q    Type
                         _______ _______ _______ _____ _____    ______ ____

>  <TORSDO>
F 7

$$$$
=
 OpenBabel11042422313D

 26 29  0  0  1  0  0  0  0  0999 V2000
  162.1760  205.7230  147.8840 C   0  0  2  0  0  3  0  0  0  0  0  0
  161.1760  205.7230  150.3130 C   0  0  0  0  0  0  0  0  0  0  0  0
  160.6690  201.5840  149.6560 O   0  0  0  0  0  1  0  0  0  0  0  0
  161.2770  206.1210  145.9010 C   0  0  2  0  0  3  0  0  0  0  0  0
  161.5670  205.1120  149.1050 C   0  0  0  0  0  0  0  0  0  0  0  0
  160.4200  203.5240  151.0840 C   0  0  0  0  0  3  0  0  0  0  0  0
  161.4020  203.7670  148.9060 C   0  0  0  0  0  0  0  0  0  0  0  0
  161.6650  204.7740  145.8000 O   0  0  0  0  0  0  0  0  0  0  0  0
  161.2360  206.5270  147.2450 O   0  0  0  0  0  0  0  0  0  0  0  0
  161.8730  203.3480  147.6420 N   0  0  0  0  0  2  0  0  0  0  0  0
  160.8310  202.9450  149.8760 C   0  0  0  0  0  0  0  0  0  0  0  0
  162.3990  204.5280  146.9590 C   0  0  2  0  0  0  0  0  0  0  0  0
  160.5930  204.9020  151.3000 C   0  0  0  0  0  3  0  0  0  0  0  0
  160.8680  207.8440  151.6840 C   0  0  0  0  0  3  0  0  0  0  0  0
  161.9560  209.2800  150.4830 C   0  0  0  0  0  3  0  0  0  0  0  0
  161.2360  209.1350  151.6120 N   0  0  0  0  0  2  0  0  0  0  0  0
  161.3590  207.1680  150.5850 C   0  0  0  0  0  0  0  0  0  0  0  0
  162.0580  208.0760  149.8140 C   0  0  0  0  0  3  0  0  0  0  0  0
  164.2060  204.0810  145.4920 O   0  0  0  0  0  0  0  0  0  0  0  0
  163.8500  204.3480  146.6300 C   0  0  0  0  0  3  0  0  0  0  0  0
  159.9110  206.3050  145.2620 C   0  0  0  0  0  2  0  0  0  0  0  0
  159.2180  205.0300  145.1810 N   0  0  0  0  0  2  0  0  0  0  0  0
  159.8740  204.2500  144.1440 C   0  0  0  0  0  2  0  0  0  0  0  0
  159.3350  202.8290  144.1370 C   0  0  0  0  0  2  0  0  0  0  0  0
  160.0820  201.9530  145.1310 C   0  0  0  0  0  2  0  0  0  0  0  0
  160.0730  200.6250  144.7050 O   0  0  0  0  0  1  0  0  0  0  0  0
  1  9  1  6  0  0  0
  1  5  1  0  0  0  0
  2 17  1  0  0  0  0
  2 13  1  0  0  0  0
  3 11  1  0  0  0  0
  4 21  1  1  0  0  0
  4  9  1  0  0  0  0
  5  2  2  0  0  0  0
  6 13  2  0  0  0  0
  7  5  1  0  0  0  0
  7 11  2  0  0  0  0
  8  4  1  0  0  0  0
  8 12  1  0  0  0  0
 10  7  1  0  0  0  0
 11  6  1  0  0  0  0
 12 20  1  6  0  0  0
 12 10  1  0  0  0  0
 12  1  1  0  0  0  0
 15 16  1  0  0  0  0
 16 14  1  0  0  0  0
 17 14  2  0  0  0  0
 18 15  2  0  0  0  0
 18 17  1  0  0  0  0
 19 20  2  0  0  0  0
 22 21  1  0  0  0  0
 23 22  1  0  0  0  0
 24 23  1  0  0  0  0
 24 25  1  0  0  0  0
 26 25  1  0  0  0  0
M  END
>  <MODEL>
8

>  <REMARK>
 VINA RESULT:      -3.4      6.069      9.603
  Name = 
  7 active torsions:
  status: ('A' for Active; 'I' for Inactive)
    1  A    between atoms: C_3  and  C_10
    2  A    between atoms: C_3  and  N_19
    3  A    between atoms: C_4  and  C_8
    4  A    between atoms: C_6  and  C_16
    5  A    between atoms: C_8  and  C_14
    6  A    between atoms: C_14  and  N_19
    7  A    between atoms: C_21  and  C_25
                            x       y       z     vdW  Elec       q    Type
                         _______ _______ _______ _____ _____    ______ ____

>  <TORSDO>
F 7

$$$$
=
 OpenBabel11042422313D

 26 29  0  0  1  0  0  0  0  0999 V2000
  161.5840  208.6930  153.2900 C   0  0  2  0  0  3  0  0  0  0  0  0
  161.5240  207.4720  150.9650 C   0  0  0  0  0  0  0  0  0  0  0  0
  162.2200  211.3270  149.3910 O   0  0  0  0  0  1  0  0  0  0  0  0
  159.9900  209.5340  154.5740 C   0  0  2  0  0  3  0  0  0  0  0  0
  161.6620  208.5990  151.8000 C   0  0  0  0  0  0  0  0  0  0  0  0
  161.8440  208.9600  149.0450 C   0  0  0  0  0  3  0  0  0  0  0  0
  161.8920  209.8440  151.2770 C   0  0  0  0  0  0  0  0  0  0  0  0
  160.7410  210.6710  154.2300 O   0  0  0  0  0  0  0  0  0  0  0  0
  160.2740  208.4680  153.7050 O   0  0  0  0  0  0  0  0  0  0  0  0
  162.0180  210.8330  152.2770 N   0  0  0  0  0  2  0  0  0  0  0  0
  161.9880  210.0580  149.9030 C   0  0  0  0  0  0  0  0  0  0  0  0
  161.8610  210.1690  153.5700 C   0  0  2  0  0  0  0  0  0  0  0  0
  161.6150  207.6770  149.5730 C   0  0  0  0  0  3  0  0  0  0  0  0
  160.8310  205.0340  150.7480 C   0  0  0  0  0  3  0  0  0  0  0  0
  161.1950  204.3150  152.7590 C   0  0  0  0  0  3  0  0  0  0  0  0
  160.7660  203.9460  151.5360 N   0  0  0  0  0  2  0  0  0  0  0  0
  161.3020  206.1020  151.4850 C   0  0  0  0  0  0  0  0  0  0  0  0
  161.5400  205.6530  152.7680 C   0  0  0  0  0  3  0  0  0  0  0  0
  163.0020  210.7040  155.5780 O   0  0  0  0  0  0  0  0  0  0  0  0
  163.0880  210.3510  154.4110 C   0  0  0  0  0  3  0  0  0  0  0  0
  158.5090  209.8690  154.5170 C   0  0  0  0  0  2  0  0  0  0  0  0
  158.2400  211.0860  155.2650 N   0  0  0  0  0  2  0  0  0  0  0  0
  157.5040  211.9780  154.3820 C   0  0  0  0  0  2  0  0  0  0  0  0
  158.3100  213.2410  154.1220 C   0  0  0  0  0  2  0  0  0  0  0  0
  158.5570  213.4370  152.6350 C   0  0  0  0  0  2  0  0  0  0  0  0
  158.6730  212.2010  151.9980 O   0  0  0  0  0  1  0  0  0  0  0  0
  1  5  1  6  0  0  0
  1 12  1  0  0  0  0
  1  9  1  0  0  0  0
  2 17  1  0  0  0  0
  2  5  1  0  0  0  0
  3 11  1  0  0  0  0
  4 21  1  6  0  0  0
  6 13  1  0  0  0  0
  6 11  2  0  0  0  0
  7  5  2  0  0  0  0
  7 10  1  0  0  0  0
  8  4  1  0  0  0  0
  9  4  1  0  0  0  0
 10 12  1  0  0  0  0
 11  7  1  0  0  0  0
 12  8  1  0  0  0  0
 12 20  1  1  0  0  0
 13  2  2  0  0  0  0
 14 17  2  0  0  0  0
 14 16  1  0  0  0  0
 15 18  2  0  0  0  0
 16 15  1  0  0  0  0
 17 18  1  0  0  0  0
 20 19  2  0  0  0  0
 21 22  1  0  0  0  0
 23 22  1  0  0  0  0
 24 23  1  0  0  0  0
 25 24  1  0  0  0  0
 26 25  1  0  0  0  0
M  END
>  <MODEL>
9

>  <REMARK>
 VINA RESULT:      -3.4      2.285      5.301
  Name = 
  7 active torsions:
  status: ('A' for Active; 'I' for Inactive)
    1  A    between atoms: C_3  and  C_10
    2  A    between atoms: C_3  and  N_19
    3  A    between atoms: C_4  and  C_8
    4  A    between atoms: C_6  and  C_16
    5  A    between atoms: C_8  and  C_14
    6  A    between atoms: C_14  and  N_19
    7  A    between atoms: C_21  and  C_25
                            x       y       z     vdW  Elec       q    Type
                         _______ _______ _______ _____ _____    ______ ____

>  <TORSDO>
F 7

$$$$
