=
 OpenBabel11042420033D

 42 46  0  0  1  0  0  0  0  0999 V2000
  161.4320  207.5580  150.4940 C   0  0  2  0  0  3  0  0  0  0  0  0
  162.0040  206.1430  150.6370 C   0  0  2  0  0  3  0  0  0  0  0  0
  161.6170  205.2060  149.4900 C   0  0  1  0  0  3  0  0  0  0  0  0
  160.8820  205.1300  150.8120 C   0  0  1  0  0  3  0  0  0  0  0  0
  161.3730  203.9120  151.5800 C   0  0  1  0  0  3  0  0  0  0  0  0
  160.7840  203.9040  152.9790 C   0  0  0  0  0  1  0  0  0  0  0  0
  160.1780  202.6800  149.6160 C   0  0  0  0  0  1  0  0  0  0  0  0
  161.3760  201.5750  151.3050 O   0  0  0  0  0  0  0  0  0  0  0  0
  161.0050  202.6480  150.8620 C   0  0  0  0  0  0  0  0  0  0  0  0
  160.7720  205.8200  148.5220 O   0  0  0  0  0  0  0  0  0  0  0  0
  162.4640  205.1970  145.2750 C   0  0  0  0  0  3  0  0  0  0  0  0
  162.2380  205.2480  146.6530 C   0  0  0  0  0  3  0  0  0  0  0  0
  161.0340  205.7700  147.1510 C   0  0  0  0  0  0  0  0  0  0  0  0
  161.7410  205.6210  142.9220 C   0  0  0  0  0  1  0  0  0  0  0  0
  160.0660  206.2380  146.2570 C   0  0  0  0  0  3  0  0  0  0  0  0
  160.2970  206.1920  144.8790 C   0  0  0  0  0  3  0  0  0  0  0  0
  161.4950  205.6740  144.3880 C   0  0  0  0  0  0  0  0  0  0  0  0
  162.4840  208.5360  149.9670 C   0  0  0  0  0  2  0  0  0  0  0  0
  162.0770  209.1560  148.6420 C   0  0  0  0  0  2  0  0  0  0  0  0
  161.4590  210.4520  148.8700 N   0  0  0  0  0  2  0  0  0  0  0  0
  162.3950  211.4500  148.3890 C   0  0  0  0  0  1  0  0  0  0  0  0
  160.8140  208.0530  151.8100 C   0  0  0  0  0  2  0  0  0  0  0  0
  161.8380  208.4060  152.8890 C   0  0  0  0  0  2  0  0  0  0  0  0
  159.5210  213.4200  157.2610 C   0  0  0  0  0  2  0  0  0  0  0  0
  158.3680  213.4530  156.2220 C   0  0  0  0  0  2  0  0  0  0  0  0
  161.4280  209.6410  153.6670 C   0  0  1  0  0  3  0  0  0  0  0  0
  159.6000  213.6860  149.8380 C   0  0  0  0  0  2  0  0  0  0  0  0
  160.4360  213.1290  150.9900 C   0  0  0  0  0  2  0  0  0  0  0  0
  161.3100  210.3370  156.0120 O   0  0  0  0  0  0  0  0  0  0  0  0
  160.3400  211.7890  153.1060 C   0  0  0  0  0  2  0  0  0  0  0  0
  160.2390  210.2830  152.9620 C   0  0  0  0  0  2  0  0  0  0  0  0
  157.2520  212.3640  153.0720 N   0  0  0  0  0  0  0  0  0  0  0  0
  158.5470  214.4510  150.3580 O   0  0  0  0  0  0  0  0  0  0  0  0
  161.1140  209.2450  155.1120 C   0  0  0  0  0  2  0  0  0  0  0  0
  160.3090  211.2640  156.2970 C   0  0  0  0  0  0  0  0  0  0  0  0
  160.5820  212.3670  157.0020 C   0  0  0  0  0  3  0  0  0  0  0  0
  159.5670  212.5370  152.0730 C   0  0  0  0  0  0  0  0  0  0  0  0
  157.6430  213.5270  150.9090 C   0  0  0  0  0  2  0  0  0  0  0  0
  157.3450  212.2000  154.3370 N   0  0  0  0  0  0  0  0  0  0  0  0
  158.5390  212.4010  155.1260 C   0  0  2  0  0  3  0  0  0  0  0  0
  158.2310  212.8310  152.1100 C   0  0  0  0  0  0  0  0  0  0  0  0
  158.9300  211.0820  155.7620 C   0  0  0  0  0  2  0  0  0  0  0  0
  1 18  1  1  0  0  0
  1 22  1  0  0  0  0
  2  1  1  6  0  0  0
  2  4  1  0  0  0  0
  3 10  1  6  0  0  0
  3  2  1  0  0  0  0
  3  4  1  0  0  0  0
  4  5  1  1  0  0  0
  5  6  1  1  0  0  0
  7  9  1  0  0  0  0
  9  8  2  0  0  0  0
  9  5  1  0  0  0  0
 11 12  1  0  0  0  0
 12 13  2  0  0  0  0
 13 10  1  0  0  0  0
 14 17  1  0  0  0  0
 15 13  1  0  0  0  0
 16 15  2  0  0  0  0
 17 16  1  0  0  0  0
 17 11  2  0  0  0  0
 19 20  1  0  0  0  0
 19 18  1  0  0  0  0
 21 20  1  0  0  0  0
 22 23  1  0  0  0  0
 25 24  1  0  0  0  0
 26 23  1  6  0  0  0
 26 34  1  0  0  0  0
 27 33  1  0  0  0  0
 27 28  1  0  0  0  0
 28 37  1  0  0  0  0
 29 35  1  0  0  0  0
 31 30  1  0  0  0  0
 31 26  1  0  0  0  0
 32 39  2  0  0  0  0
 33 38  1  0  0  0  0
 34 29  1  0  0  0  0
 35 36  2  0  0  0  0
 36 24  1  0  0  0  0
 37 41  2  0  0  0  0
 37 30  1  0  0  0  0
 38 41  1  0  0  0  0
 39 40  1  0  0  0  0
 40 42  1  1  0  0  0
 40 25  1  0  0  0  0
 41 32  1  0  0  0  0
 42 35  1  0  0  0  0
M  END
>  <MODEL>
1

>  <REMARK>
 VINA RESULT:      -6.5      0.000      0.000
  Name = 
  11 active torsions:
  status: ('A' for Active; 'I' for Inactive)
    1  A    between atoms: C_2  and  C_10
    2  A    between atoms: C_2  and  C_36
    3  A    between atoms: N_6  and  C_37
    4  A    between atoms: O_7  and  C_18
    5  A    between atoms: O_7  and  C_24
    6  A    between atoms: C_9  and  C_23
    7  A    between atoms: C_13  and  C_32
    8  A    between atoms: C_13  and  C_37
    9  A    between atoms: C_14  and  C_32
   10  A    between atoms: C_23  and  C_29
   11  A    between atoms: C_32  and  C_36
                            x       y       z     vdW  Elec       q    Type
                         _______ _______ _______ _____ _____    ______ ____

>  <TORSDO>
F 11

$$$$
=
 OpenBabel11042420033D

 42 46  0  0  1  0  0  0  0  0999 V2000
  161.1000  204.9740  151.0070 C   0  0  2  0  0  3  0  0  0  0  0  0
  160.4830  205.5300  149.7180 C   0  0  2  0  0  3  0  0  0  0  0  0
  160.5580  204.5610  148.5340 C   0  0  1  0  0  3  0  0  0  0  0  0
  161.5510  205.6990  148.6470 C   0  0  1  0  0  3  0  0  0  0  0  0
  161.1600  206.7940  147.6660 C   0  0  1  0  0  3  0  0  0  0  0  0
  162.0390  208.0150  147.8670 C   0  0  0  0  0  1  0  0  0  0  0  0
  162.4860  205.5600  145.7890 C   0  0  0  0  0  1  0  0  0  0  0  0
  160.3740  206.5300  145.4640 O   0  0  0  0  0  0  0  0  0  0  0  0
  161.2760  206.3060  146.2530 C   0  0  0  0  0  0  0  0  0  0  0  0
  161.2160  203.3370  148.8490 O   0  0  0  0  0  0  0  0  0  0  0  0
  160.8180  201.2190  145.8250 C   0  0  0  0  0  3  0  0  0  0  0  0
  160.8140  202.3430  146.6540 C   0  0  0  0  0  3  0  0  0  0  0  0
  161.1930  202.2290  148.0000 C   0  0  0  0  0  0  0  0  0  0  0  0
  161.1900  198.7770  145.4530 C   0  0  0  0  0  1  0  0  0  0  0  0
  161.5720  200.9800  148.5030 C   0  0  0  0  0  3  0  0  0  0  0  0
  161.5690  199.8540  147.6740 C   0  0  0  0  0  3  0  0  0  0  0  0
  161.1910  199.9730  146.3370 C   0  0  0  0  0  0  0  0  0  0  0  0
  160.0960  204.1180  151.7820 C   0  0  0  0  0  2  0  0  0  0  0  0
  160.6910  202.7900  152.2160 C   0  0  0  0  0  2  0  0  0  0  0  0
  162.0620  202.6820  151.7430 N   0  0  0  0  0  2  0  0  0  0  0  0
  162.4760  201.3120  151.9750 C   0  0  0  0  0  1  0  0  0  0  0  0
  161.6790  206.0930  151.8840 C   0  0  0  0  0  2  0  0  0  0  0  0
  161.2220  206.0450  153.3430 C   0  0  0  0  0  2  0  0  0  0  0  0
  161.2010  211.9000  157.2590 C   0  0  0  0  0  2  0  0  0  0  0  0
  160.2110  212.3470  156.1510 C   0  0  0  0  0  2  0  0  0  0  0  0
  161.3700  207.3940  154.0200 C   0  0  1  0  0  3  0  0  0  0  0  0
  161.6110  211.5100  149.8530 C   0  0  0  0  0  2  0  0  0  0  0  0
  162.0840  210.7400  151.0850 C   0  0  0  0  0  2  0  0  0  0  0  0
  161.4980  208.2570  156.3070 O   0  0  0  0  0  0  0  0  0  0  0  0
  161.3480  209.7490  153.2670 C   0  0  0  0  0  2  0  0  0  0  0  0
  160.6020  208.4300  153.2060 C   0  0  0  0  0  2  0  0  0  0  0  0
  158.8260  211.6020  153.0080 N   0  0  0  0  0  0  0  0  0  0  0  0
  160.9840  212.6950  150.2610 O   0  0  0  0  0  0  0  0  0  0  0  0
  160.8710  207.2910  155.4640 C   0  0  0  0  0  2  0  0  0  0  0  0
  160.9950  209.5470  156.4750 C   0  0  0  0  0  0  0  0  0  0  0  0
  161.7020  210.4740  157.1290 C   0  0  0  0  0  3  0  0  0  0  0  0
  161.0120  210.6730  152.1460 C   0  0  0  0  0  0  0  0  0  0  0  0
  159.7510  212.3030  150.8080 C   0  0  0  0  0  2  0  0  0  0  0  0
  158.8000  211.5160  154.2840 N   0  0  0  0  0  0  0  0  0  0  0  0
  159.9370  211.2410  155.1320 C   0  0  2  0  0  3  0  0  0  0  0  0
  159.9390  211.5190  152.0830 C   0  0  0  0  0  0  0  0  0  0  0  0
  159.6920  209.9390  155.8680 C   0  0  0  0  0  2  0  0  0  0  0  0
  1 18  1  1  0  0  0
  1 22  1  0  0  0  0
  2  1  1  1  0  0  0
  3  4  1  0  0  0  0
  3 10  1  1  0  0  0
  3  2  1  0  0  0  0
  4  5  1  6  0  0  0
  4  2  1  0  0  0  0
  5  6  1  6  0  0  0
  7  9  1  0  0  0  0
  8  9  2  0  0  0  0
  9  5  1  0  0  0  0
 11 17  2  0  0  0  0
 11 12  1  0  0  0  0
 12 13  2  0  0  0  0
 13 15  1  0  0  0  0
 13 10  1  0  0  0  0
 14 17  1  0  0  0  0
 16 15  2  0  0  0  0
 17 16  1  0  0  0  0
 18 19  1  0  0  0  0
 20 21  1  0  0  0  0
 20 19  1  0  0  0  0
 22 23  1  0  0  0  0
 25 24  1  0  0  0  0
 26 23  1  6  0  0  0
 26 34  1  0  0  0  0
 27 33  1  0  0  0  0
 27 28  1  0  0  0  0
 28 37  1  0  0  0  0
 29 35  1  0  0  0  0
 31 30  1  0  0  0  0
 31 26  1  0  0  0  0
 32 39  2  0  0  0  0
 33 38  1  0  0  0  0
 34 29  1  0  0  0  0
 35 36  2  0  0  0  0
 36 24  1  0  0  0  0
 37 30  1  0  0  0  0
 38 41  1  0  0  0  0
 39 40  1  0  0  0  0
 40 42  1  1  0  0  0
 40 25  1  0  0  0  0
 41 37  2  0  0  0  0
 41 32  1  0  0  0  0
 42 35  1  0  0  0  0
M  END
>  <MODEL>
2

>  <REMARK>
 VINA RESULT:      -6.5      2.504      4.380
  Name = 
  11 active torsions:
  status: ('A' for Active; 'I' for Inactive)
    1  A    between atoms: C_2  and  C_10
    2  A    between atoms: C_2  and  C_36
    3  A    between atoms: N_6  and  C_37
    4  A    between atoms: O_7  and  C_18
    5  A    between atoms: O_7  and  C_24
    6  A    between atoms: C_9  and  C_23
    7  A    between atoms: C_13  and  C_32
    8  A    between atoms: C_13  and  C_37
    9  A    between atoms: C_14  and  C_32
   10  A    between atoms: C_23  and  C_29
   11  A    between atoms: C_32  and  C_36
                            x       y       z     vdW  Elec       q    Type
                         _______ _______ _______ _____ _____    ______ ____

>  <TORSDO>
F 11

$$$$
=
 OpenBabel11042420033D

 42 46  0  0  1  0  0  0  0  0999 V2000
  162.4230  207.4620  150.9860 C   0  0  2  0  0  3  0  0  0  0  0  0
  162.3200  207.0290  149.5190 C   0  0  2  0  0  3  0  0  0  0  0  0
  162.0920  208.1930  148.5500 C   0  0  1  0  0  3  0  0  0  0  0  0
  160.9290  207.3220  148.9750 C   0  0  1  0  0  3  0  0  0  0  0  0
  160.5850  206.3700  147.8390 C   0  0  1  0  0  3  0  0  0  0  0  0
  160.8000  207.0520  146.5000 C   0  0  0  0  0  1  0  0  0  0  0  0
  162.6220  204.9430  147.0510 C   0  0  0  0  0  1  0  0  0  0  0  0
  161.1060  204.2420  148.6990 O   0  0  0  0  0  0  0  0  0  0  0  0
  161.4190  205.1260  147.9190 C   0  0  0  0  0  0  0  0  0  0  0  0
  161.9900  209.4560  149.2020 O   0  0  0  0  0  0  0  0  0  0  0  0
  161.0310  212.3370  147.0640 C   0  0  0  0  0  3  0  0  0  0  0  0
  160.9580  211.1120  147.7320 C   0  0  0  0  0  3  0  0  0  0  0  0
  162.0380  210.6670  148.5090 C   0  0  0  0  0  0  0  0  0  0  0  0
  162.2590  214.4230  146.4460 C   0  0  0  0  0  1  0  0  0  0  0  0
  163.1860  211.4610  148.6080 C   0  0  0  0  0  3  0  0  0  0  0  0
  163.2590  212.6830  147.9340 C   0  0  0  0  0  3  0  0  0  0  0  0
  162.1840  213.1210  147.1610 C   0  0  0  0  0  0  0  0  0  0  0  0
  162.6730  206.2640  151.9050 C   0  0  0  0  0  2  0  0  0  0  0  0
  162.1160  204.9740  151.3290 C   0  0  0  0  0  2  0  0  0  0  0  0
  161.1180  204.4190  152.2290 N   0  0  0  0  0  2  0  0  0  0  0  0
  161.3000  202.9800  152.2160 C   0  0  0  0  0  1  0  0  0  0  0  0
  161.1900  208.2610  151.4280 C   0  0  0  0  0  2  0  0  0  0  0  0
  160.8060  208.0600  152.8950 C   0  0  0  0  0  2  0  0  0  0  0  0
  160.2260  213.5610  157.2580 C   0  0  0  0  0  2  0  0  0  0  0  0
  158.9040  213.7400  156.4660 C   0  0  0  0  0  2  0  0  0  0  0  0
  160.7570  209.3770  153.6460 C   0  0  1  0  0  3  0  0  0  0  0  0
  158.8190  213.5060  149.9650 C   0  0  0  0  0  2  0  0  0  0  0  0
  159.7790  212.8670  150.9670 C   0  0  0  0  0  2  0  0  0  0  0  0
  161.2300  210.1770  155.9110 O   0  0  0  0  0  0  0  0  0  0  0  0
  159.9160  211.6490  153.1540 C   0  0  0  0  0  2  0  0  0  0  0  0
  159.5600  210.1750  153.1440 C   0  0  0  0  0  2  0  0  0  0  0  0
  157.0120  212.7200  153.6840 N   0  0  0  0  0  0  0  0  0  0  0  0
  158.0240  214.4530  150.6240 O   0  0  0  0  0  0  0  0  0  0  0  0
  160.6900  209.0970  155.1500 C   0  0  0  0  0  2  0  0  0  0  0  0
  160.4620  211.2670  156.3180 C   0  0  0  0  0  0  0  0  0  0  0  0
  161.0390  212.3380  156.8730 C   0  0  0  0  0  3  0  0  0  0  0  0
  159.0710  212.4700  152.2410 C   0  0  0  0  0  0  0  0  0  0  0  0
  157.1230  213.7140  151.4070 C   0  0  0  0  0  2  0  0  0  0  0  0
  157.3370  212.5950  154.9150 N   0  0  0  0  0  0  0  0  0  0  0  0
  158.6840  212.6290  155.4380 C   0  0  2  0  0  3  0  0  0  0  0  0
  157.8320  212.9800  152.5180 C   0  0  0  0  0  0  0  0  0  0  0  0
  158.9920  211.2910  156.0800 C   0  0  0  0  0  2  0  0  0  0  0  0
  1 22  1  1  0  0  0
  1 18  1  0  0  0  0
  2  1  1  1  0  0  0
  3  4  1  0  0  0  0
  3 10  1  1  0  0  0
  3  2  1  0  0  0  0
  4  5  1  6  0  0  0
  4  2  1  0  0  0  0
  5  6  1  6  0  0  0
  5  9  1  0  0  0  0
  7  9  1  0  0  0  0
  9  8  2  0  0  0  0
 11 17  2  0  0  0  0
 11 12  1  0  0  0  0
 12 13  2  0  0  0  0
 13 15  1  0  0  0  0
 13 10  1  0  0  0  0
 14 17  1  0  0  0  0
 16 15  2  0  0  0  0
 17 16  1  0  0  0  0
 19 18  1  0  0  0  0
 19 20  1  0  0  0  0
 21 20  1  0  0  0  0
 22 23  1  0  0  0  0
 25 24  1  0  0  0  0
 26 23  1  6  0  0  0
 26 34  1  0  0  0  0
 27 33  1  0  0  0  0
 27 28  1  0  0  0  0
 28 37  1  0  0  0  0
 29 35  1  0  0  0  0
 31 30  1  0  0  0  0
 31 26  1  0  0  0  0
 32 39  2  0  0  0  0
 33 38  1  0  0  0  0
 34 29  1  0  0  0  0
 35 36  2  0  0  0  0
 36 24  1  0  0  0  0
 37 41  2  0  0  0  0
 37 30  1  0  0  0  0
 38 41  1  0  0  0  0
 39 40  1  0  0  0  0
 40 42  1  1  0  0  0
 40 25  1  0  0  0  0
 41 32  1  0  0  0  0
 42 35  1  0  0  0  0
M  END
>  <MODEL>
3

>  <REMARK>
 VINA RESULT:      -5.8      1.753      4.112
  Name = 
  11 active torsions:
  status: ('A' for Active; 'I' for Inactive)
    1  A    between atoms: C_2  and  C_10
    2  A    between atoms: C_2  and  C_36
    3  A    between atoms: N_6  and  C_37
    4  A    between atoms: O_7  and  C_18
    5  A    between atoms: O_7  and  C_24
    6  A    between atoms: C_9  and  C_23
    7  A    between atoms: C_13  and  C_32
    8  A    between atoms: C_13  and  C_37
    9  A    between atoms: C_14  and  C_32
   10  A    between atoms: C_23  and  C_29
   11  A    between atoms: C_32  and  C_36
                            x       y       z     vdW  Elec       q    Type
                         _______ _______ _______ _____ _____    ______ ____

>  <TORSDO>
F 11

$$$$
=
 OpenBabel11042420033D

 42 46  0  0  1  0  0  0  0  0999 V2000
  160.9740  205.6970  148.6480 C   0  0  2  0  0  3  0  0  0  0  0  0
  161.5180  204.8170  149.7790 C   0  0  2  0  0  3  0  0  0  0  0  0
  161.2570  203.3220  149.5730 C   0  0  1  0  0  3  0  0  0  0  0  0
  160.3780  204.1240  150.5100 C   0  0  1  0  0  3  0  0  0  0  0  0
  160.7710  203.8100  151.9460 C   0  0  1  0  0  3  0  0  0  0  0  0
  161.6920  202.6040  151.9850 C   0  0  0  0  0  1  0  0  0  0  0  0
  160.8330  205.6960  153.7470 C   0  0  0  0  0  1  0  0  0  0  0  0
  162.5070  205.3880  152.1320 O   0  0  0  0  0  0  0  0  0  0  0  0
  161.4460  204.9900  152.5800 C   0  0  0  0  0  0  0  0  0  0  0  0
  160.5290  203.0360  148.3830 O   0  0  0  0  0  0  0  0  0  0  0  0
  161.5820  199.6250  147.3580 C   0  0  0  0  0  3  0  0  0  0  0  0
  161.3750  200.7550  148.1520 C   0  0  0  0  0  3  0  0  0  0  0  0
  160.7640  201.8970  147.6100 C   0  0  0  0  0  0  0  0  0  0  0  0
  161.4140  198.4260  145.1730 C   0  0  0  0  0  1  0  0  0  0  0  0
  160.3670  201.8920  146.2690 C   0  0  0  0  0  3  0  0  0  0  0  0
  160.5810  200.7620  145.4740 C   0  0  0  0  0  3  0  0  0  0  0  0
  161.1890  199.6300  146.0170 C   0  0  0  0  0  0  0  0  0  0  0  0
  161.6900  205.4130  147.3250 C   0  0  0  0  0  2  0  0  0  0  0  0
  161.4670  206.5160  146.3060 C   0  0  0  0  0  2  0  0  0  0  0  0
  160.4570  206.1050  145.3430 N   0  0  0  0  0  2  0  0  0  0  0  0
  161.1540  205.4070  144.2800 C   0  0  0  0  0  1  0  0  0  0  0  0
  161.0370  207.1870  149.0120 C   0  0  0  0  0  2  0  0  0  0  0  0
  162.2150  207.5630  149.9110 C   0  0  0  0  0  2  0  0  0  0  0  0
  160.0830  212.8790  154.0120 C   0  0  0  0  0  2  0  0  0  0  0  0
  159.4420  213.3330  152.6740 C   0  0  0  0  0  2  0  0  0  0  0  0
  161.9390  208.8310  150.6950 C   0  0  1  0  0  3  0  0  0  0  0  0
  162.8800  213.4060  147.1510 C   0  0  0  0  0  2  0  0  0  0  0  0
  163.0460  212.5570  148.4110 C   0  0  0  0  0  2  0  0  0  0  0  0
  161.2030  209.4310  152.9510 O   0  0  0  0  0  0  0  0  0  0  0  0
  161.8090  211.2400  150.1490 C   0  0  0  0  0  2  0  0  0  0  0  0
  161.3260  209.8580  149.7500 C   0  0  0  0  0  2  0  0  0  0  0  0
  159.2550  212.8040  149.2040 N   0  0  0  0  0  0  0  0  0  0  0  0
  161.9880  214.4530  147.4130 O   0  0  0  0  0  0  0  0  0  0  0  0
  161.0280  208.5030  151.8800 C   0  0  0  0  0  2  0  0  0  0  0  0
  160.4890  210.6240  153.0360 C   0  0  0  0  0  0  0  0  0  0  0  0
  160.8050  211.5450  153.9520 C   0  0  0  0  0  3  0  0  0  0  0  0
  161.7140  212.2420  149.0490 C   0  0  0  0  0  0  0  0  0  0  0  0
  160.7180  213.8590  147.4910 C   0  0  0  0  0  2  0  0  0  0  0  0
  158.8380  212.5670  150.3900 N   0  0  0  0  0  0  0  0  0  0  0  0
  159.6730  212.3290  151.5440 C   0  0  2  0  0  3  0  0  0  0  0  0
  160.6040  212.9590  148.6960 C   0  0  0  0  0  0  0  0  0  0  0  0
  159.4030  210.9300  152.0620 C   0  0  0  0  0  2  0  0  0  0  0  0
  1 18  1  6  0  0  0
  1 22  1  0  0  0  0
  2  1  1  6  0  0  0
  2  4  1  0  0  0  0
  3 10  1  6  0  0  0
  3  2  1  0  0  0  0
  3  4  1  0  0  0  0
  4  5  1  1  0  0  0
  5  6  1  6  0  0  0
  5  9  1  0  0  0  0
  8  9  2  0  0  0  0
  9  7  1  0  0  0  0
 11 12  1  0  0  0  0
 13 12  2  0  0  0  0
 13 10  1  0  0  0  0
 14 17  1  0  0  0  0
 15 13  1  0  0  0  0
 16 17  1  0  0  0  0
 16 15  2  0  0  0  0
 17 11  2  0  0  0  0
 19 18  1  0  0  0  0
 20 19  1  0  0  0  0
 21 20  1  0  0  0  0
 22 23  1  0  0  0  0
 25 24  1  0  0  0  0
 26 23  1  6  0  0  0
 26 34  1  0  0  0  0
 27 33  1  0  0  0  0
 27 28  1  0  0  0  0
 28 37  1  0  0  0  0
 29 35  1  0  0  0  0
 31 30  1  0  0  0  0
 31 26  1  0  0  0  0
 32 39  2  0  0  0  0
 33 38  1  0  0  0  0
 34 29  1  0  0  0  0
 35 36  2  0  0  0  0
 36 24  1  0  0  0  0
 37 30  1  0  0  0  0
 38 41  1  0  0  0  0
 39 40  1  0  0  0  0
 40 42  1  1  0  0  0
 40 25  1  0  0  0  0
 41 37  2  0  0  0  0
 41 32  1  0  0  0  0
 42 35  1  0  0  0  0
M  END
>  <MODEL>
4

>  <REMARK>
 VINA RESULT:      -5.7      2.588      4.093
  Name = 
  11 active torsions:
  status: ('A' for Active; 'I' for Inactive)
    1  A    between atoms: C_2  and  C_10
    2  A    between atoms: C_2  and  C_36
    3  A    between atoms: N_6  and  C_37
    4  A    between atoms: O_7  and  C_18
    5  A    between atoms: O_7  and  C_24
    6  A    between atoms: C_9  and  C_23
    7  A    between atoms: C_13  and  C_32
    8  A    between atoms: C_13  and  C_37
    9  A    between atoms: C_14  and  C_32
   10  A    between atoms: C_23  and  C_29
   11  A    between atoms: C_32  and  C_36
                            x       y       z     vdW  Elec       q    Type
                         _______ _______ _______ _____ _____    ______ ____

>  <TORSDO>
F 11

$$$$
=
 OpenBabel11042420033D

 42 46  0  0  1  0  0  0  0  0999 V2000
  160.9660  206.6340  149.5610 C   0  0  2  0  0  3  0  0  0  0  0  0
  161.4690  205.6380  150.6120 C   0  0  2  0  0  3  0  0  0  0  0  0
  161.3890  204.1770  150.1610 C   0  0  1  0  0  3  0  0  0  0  0  0
  160.3320  204.7440  151.0850 C   0  0  1  0  0  3  0  0  0  0  0  0
  160.5930  204.2450  152.4980 C   0  0  1  0  0  3  0  0  0  0  0  0
  161.4090  202.9650  152.4590 C   0  0  0  0  0  1  0  0  0  0  0  0
  160.5720  206.1820  154.2450 C   0  0  0  0  0  1  0  0  0  0  0  0
  162.5180  205.4120  153.1840 O   0  0  0  0  0  0  0  0  0  0  0  0
  161.3110  205.2860  153.3040 C   0  0  0  0  0  0  0  0  0  0  0  0
  160.8330  204.0190  148.8590 O   0  0  0  0  0  0  0  0  0  0  0  0
  160.8250  201.5920  146.0480 C   0  0  0  0  0  3  0  0  0  0  0  0
  160.6930  202.7920  146.7510 C   0  0  0  0  0  3  0  0  0  0  0  0
  160.9400  202.8320  148.1320 C   0  0  0  0  0  0  0  0  0  0  0  0
  161.3340  199.1480  145.9690 C   0  0  0  0  0  1  0  0  0  0  0  0
  161.3200  201.6610  148.7960 C   0  0  0  0  0  3  0  0  0  0  0  0
  161.4450  200.4600  148.0920 C   0  0  0  0  0  3  0  0  0  0  0  0
  161.1970  200.4250  146.7200 C   0  0  0  0  0  0  0  0  0  0  0  0
  161.8440  206.6150  148.3080 C   0  0  0  0  0  2  0  0  0  0  0  0
  161.0360  206.8300  147.0400 C   0  0  0  0  0  2  0  0  0  0  0  0
  161.3710  205.8110  146.0590 N   0  0  0  0  0  2  0  0  0  0  0  0
  160.5210  206.0460  144.9080 C   0  0  0  0  0  1  0  0  0  0  0  0
  160.8440  208.0510  150.1390 C   0  0  0  0  0  2  0  0  0  0  0  0
  162.1520  208.6170  150.6930 C   0  0  0  0  0  2  0  0  0  0  0  0
  160.9570  211.6820  156.9220 C   0  0  0  0  0  2  0  0  0  0  0  0
  159.5350  211.8070  156.3140 C   0  0  0  0  0  2  0  0  0  0  0  0
  161.9140  209.4860  151.9130 C   0  0  1  0  0  3  0  0  0  0  0  0
  158.6430  214.0670  150.2790 C   0  0  0  0  0  2  0  0  0  0  0  0
  159.8440  213.3610  150.9060 C   0  0  0  0  0  2  0  0  0  0  0  0
  162.4950  209.4500  154.2910 O   0  0  0  0  0  0  0  0  0  0  0  0
  160.5350  211.4770  152.4080 C   0  0  0  0  0  2  0  0  0  0  0  0
  160.5150  210.0810  151.8160 C   0  0  0  0  0  2  0  0  0  0  0  0
  157.5630  211.4840  153.4220 N   0  0  0  0  0  0  0  0  0  0  0  0
  157.7540  214.4530  151.2910 O   0  0  0  0  0  0  0  0  0  0  0  0
  162.1100  208.6440  153.1770 C   0  0  0  0  0  2  0  0  0  0  0  0
  161.5670  210.0660  155.1290 C   0  0  0  0  0  0  0  0  0  0  0  0
  161.9610  210.9510  156.0500 C   0  0  0  0  0  3  0  0  0  0  0  0
  159.4160  212.3400  151.9330 C   0  0  0  0  0  0  0  0  0  0  0  0
  157.1500  213.2670  151.7380 C   0  0  0  0  0  2  0  0  0  0  0  0
  158.0680  210.9840  154.4860 N   0  0  0  0  0  0  0  0  0  0  0  0
  159.4310  211.1590  154.9330 C   0  0  2  0  0  3  0  0  0  0  0  0
  158.1440  212.3710  152.4340 C   0  0  0  0  0  0  0  0  0  0  0  0
  160.1090  209.8030  154.9700 C   0  0  0  0  0  2  0  0  0  0  0  0
  1 18  1  6  0  0  0
  1 22  1  0  0  0  0
  2  1  1  6  0  0  0
  2  4  1  0  0  0  0
  3 10  1  6  0  0  0
  3  2  1  0  0  0  0
  3  4  1  0  0  0  0
  4  5  1  1  0  0  0
  5  6  1  6  0  0  0
  5  9  1  0  0  0  0
  8  9  2  0  0  0  0
  9  7  1  0  0  0  0
 11 17  2  0  0  0  0
 11 12  1  0  0  0  0
 12 13  2  0  0  0  0
 13 15  1  0  0  0  0
 13 10  1  0  0  0  0
 14 17  1  0  0  0  0
 16 15  2  0  0  0  0
 17 16  1  0  0  0  0
 19 18  1  0  0  0  0
 20 19  1  0  0  0  0
 21 20  1  0  0  0  0
 22 23  1  0  0  0  0
 25 24  1  0  0  0  0
 26 23  1  6  0  0  0
 26 34  1  0  0  0  0
 27 28  1  0  0  0  0
 27 33  1  0  0  0  0
 28 37  1  0  0  0  0
 29 35  1  0  0  0  0
 31 26  1  0  0  0  0
 31 30  1  0  0  0  0
 32 39  2  0  0  0  0
 33 38  1  0  0  0  0
 34 29  1  0  0  0  0
 35 36  2  0  0  0  0
 36 24  1  0  0  0  0
 37 30  1  0  0  0  0
 37 41  2  0  0  0  0
 38 41  1  0  0  0  0
 39 40  1  0  0  0  0
 40 42  1  1  0  0  0
 40 25  1  0  0  0  0
 41 32  1  0  0  0  0
 42 35  1  0  0  0  0
M  END
>  <MODEL>
5

>  <REMARK>
 VINA RESULT:      -5.2      2.053      3.145
  Name = 
  11 active torsions:
  status: ('A' for Active; 'I' for Inactive)
    1  A    between atoms: C_2  and  C_10
    2  A    between atoms: C_2  and  C_36
    3  A    between atoms: N_6  and  C_37
    4  A    between atoms: O_7  and  C_18
    5  A    between atoms: O_7  and  C_24
    6  A    between atoms: C_9  and  C_23
    7  A    between atoms: C_13  and  C_32
    8  A    between atoms: C_13  and  C_37
    9  A    between atoms: C_14  and  C_32
   10  A    between atoms: C_23  and  C_29
   11  A    between atoms: C_32  and  C_36
                            x       y       z     vdW  Elec       q    Type
                         _______ _______ _______ _____ _____    ______ ____

>  <TORSDO>
F 11

$$$$
=
 OpenBabel11042420033D

 42 46  0  0  1  0  0  0  0  0999 V2000
  161.7730  212.9740  147.9910 C   0  0  2  0  0  3  0  0  0  0  0  0
  160.7150  213.7450  147.1940 C   0  0  2  0  0  3  0  0  0  0  0  0
  159.5050  214.1710  148.0300 C   0  0  1  0  0  3  0  0  0  0  0  0
  159.4150  212.9560  147.1310 C   0  0  1  0  0  3  0  0  0  0  0  0
  158.6230  213.3210  145.8850 C   0  0  1  0  0  3  0  0  0  0  0  0
  159.0650  212.4620  144.7140 C   0  0  0  0  0  1  0  0  0  0  0  0
  156.2130  214.3070  146.0280 C   0  0  0  0  0  1  0  0  0  0  0  0
  156.7150  212.0460  146.4040 O   0  0  0  0  0  0  0  0  0  0  0  0
  157.1530  213.1480  146.1210 C   0  0  0  0  0  0  0  0  0  0  0  0
  159.5790  213.7420  149.3870 O   0  0  0  0  0  0  0  0  0  0  0  0
  156.1690  214.1200  150.8090 C   0  0  0  0  0  3  0  0  0  0  0  0
  157.1940  213.9520  149.8740 C   0  0  0  0  0  3  0  0  0  0  0  0
  158.5330  213.9250  150.2940 C   0  0  0  0  0  0  0  0  0  0  0  0
  155.3800  214.4530  153.1550 C   0  0  0  0  0  1  0  0  0  0  0  0
  158.8300  214.0680  151.6530 C   0  0  0  0  0  3  0  0  0  0  0  0
  157.8030  214.2430  152.5850 C   0  0  0  0  0  3  0  0  0  0  0  0
  156.4740  214.2700  152.1640 C   0  0  0  0  0  0  0  0  0  0  0  0
  163.1790  213.2310  147.4460 C   0  0  0  0  0  2  0  0  0  0  0  0
  163.1530  213.9650  146.1170 C   0  0  0  0  0  2  0  0  0  0  0  0
  163.5280  213.0590  145.0430 N   0  0  0  0  0  2  0  0  0  0  0  0
  162.5590  213.2500  143.9810 C   0  0  0  0  0  1  0  0  0  0  0  0
  161.4570  211.4730  148.0470 C   0  0  0  0  0  2  0  0  0  0  0  0
  162.3350  210.6840  149.0190 C   0  0  0  0  0  2  0  0  0  0  0  0
  159.2800  209.1680  155.1820 C   0  0  0  0  0  2  0  0  0  0  0  0
  160.2620  207.9700  155.0980 C   0  0  0  0  0  2  0  0  0  0  0  0
  161.5460  210.1990  150.2190 C   0  0  1  0  0  3  0  0  0  0  0  0
  160.7720  204.4130  149.6740 C   0  0  0  0  0  2  0  0  0  0  0  0
  160.3460  205.8670  149.8700 C   0  0  0  0  0  2  0  0  0  0  0  0
  160.5820  211.1640  152.2510 O   0  0  0  0  0  0  0  0  0  0  0  0
  160.8690  207.9890  151.0980 C   0  0  0  0  0  2  0  0  0  0  0  0
  162.0420  208.8060  150.5910 C   0  0  0  0  0  2  0  0  0  0  0  0
  162.5130  206.1840  153.0740 N   0  0  0  0  0  0  0  0  0  0  0  0
  160.8030  203.7690  150.9180 O   0  0  0  0  0  0  0  0  0  0  0  0
  161.6990  211.2040  151.3630 C   0  0  0  0  0  2  0  0  0  0  0  0
  160.5180  210.2950  153.3390 C   0  0  0  0  0  0  0  0  0  0  0  0
  159.3870  210.1620  154.0400 C   0  0  0  0  0  3  0  0  0  0  0  0
  161.0900  206.5170  151.0120 C   0  0  0  0  0  0  0  0  0  0  0  0
  161.9310  204.2800  151.5820 C   0  0  0  0  0  2  0  0  0  0  0  0
  162.2720  207.1180  153.9130 N   0  0  0  0  0  0  0  0  0  0  0  0
  161.1540  208.0320  153.8580 C   0  0  2  0  0  3  0  0  0  0  0  0
  161.7560  205.7400  151.9190 C   0  0  0  0  0  0  0  0  0  0  0  0
  161.6850  209.4430  153.6990 C   0  0  0  0  0  2  0  0  0  0  0  0
  1 18  1  6  0  0  0
  1 22  1  0  0  0  0
  2  1  1  1  0  0  0
  2  3  1  0  0  0  0
  3 10  1  1  0  0  0
  4  5  1  6  0  0  0
  4  2  1  0  0  0  0
  4  3  1  0  0  0  0
  5  6  1  6  0  0  0
  5  9  1  0  0  0  0
  7  9  1  0  0  0  0
  9  8  2  0  0  0  0
 10 13  1  0  0  0  0
 11 17  1  0  0  0  0
 12 13  1  0  0  0  0
 12 11  2  0  0  0  0
 13 15  2  0  0  0  0
 15 16  1  0  0  0  0
 17 16  2  0  0  0  0
 17 14  1  0  0  0  0
 19 18  1  0  0  0  0
 20 19  1  0  0  0  0
 21 20  1  0  0  0  0
 22 23  1  0  0  0  0
 25 24  1  0  0  0  0
 26 23  1  6  0  0  0
 26 31  1  0  0  0  0
 26 34  1  0  0  0  0
 27 28  1  0  0  0  0
 27 33  1  0  0  0  0
 28 37  1  0  0  0  0
 29 35  1  0  0  0  0
 31 30  1  0  0  0  0
 32 39  2  0  0  0  0
 33 38  1  0  0  0  0
 34 29  1  0  0  0  0
 35 42  1  0  0  0  0
 35 36  2  0  0  0  0
 36 24  1  0  0  0  0
 37 30  1  0  0  0  0
 37 41  2  0  0  0  0
 38 41  1  0  0  0  0
 40 42  1  1  0  0  0
 40 39  1  0  0  0  0
 40 25  1  0  0  0  0
 41 32  1  0  0  0  0
M  END
>  <MODEL>
6

>  <REMARK>
 VINA RESULT:      -4.9      3.195      8.399
  Name = 
  11 active torsions:
  status: ('A' for Active; 'I' for Inactive)
    1  A    between atoms: C_2  and  C_10
    2  A    between atoms: C_2  and  C_36
    3  A    between atoms: N_6  and  C_37
    4  A    between atoms: O_7  and  C_18
    5  A    between atoms: O_7  and  C_24
    6  A    between atoms: C_9  and  C_23
    7  A    between atoms: C_13  and  C_32
    8  A    between atoms: C_13  and  C_37
    9  A    between atoms: C_14  and  C_32
   10  A    between atoms: C_23  and  C_29
   11  A    between atoms: C_32  and  C_36
                            x       y       z     vdW  Elec       q    Type
                         _______ _______ _______ _____ _____    ______ ____

>  <TORSDO>
F 11

$$$$
=
 OpenBabel11042420033D

 42 46  0  0  1  0  0  0  0  0999 V2000
  162.2410  212.4370  148.5400 C   0  0  2  0  0  3  0  0  0  0  0  0
  161.1850  213.5470  148.5720 C   0  0  2  0  0  3  0  0  0  0  0  0
  160.3950  213.6060  149.8830 C   0  0  1  0  0  3  0  0  0  0  0  0
  159.7880  212.9510  148.6600 C   0  0  1  0  0  3  0  0  0  0  0  0
  158.7610  213.8950  148.0530 C   0  0  1  0  0  3  0  0  0  0  0  0
  159.0880  214.1550  146.5940 C   0  0  0  0  0  1  0  0  0  0  0  0
  156.4360  213.8010  149.2320 C   0  0  0  0  0  1  0  0  0  0  0  0
  157.0200  212.4500  147.4050 O   0  0  0  0  0  0  0  0  0  0  0  0
  157.3790  213.3240  148.1750 C   0  0  0  0  0  0  0  0  0  0  0  0
  160.7730  212.5960  150.8130 O   0  0  0  0  0  0  0  0  0  0  0  0
  158.1150  212.6650  153.4070 C   0  0  0  0  0  3  0  0  0  0  0  0
  158.8920  213.0410  152.3080 C   0  0  0  0  0  3  0  0  0  0  0  0
  159.9870  212.2560  151.9160 C   0  0  0  0  0  0  0  0  0  0  0  0
  157.6040  211.1130  155.2960 C   0  0  0  0  0  1  0  0  0  0  0  0
  160.2920  211.0950  152.6360 C   0  0  0  0  0  3  0  0  0  0  0  0
  159.5170  210.7240  153.7390 C   0  0  0  0  0  3  0  0  0  0  0  0
  158.4310  211.5090  154.1250 C   0  0  0  0  0  0  0  0  0  0  0  0
  163.2250  212.6340  147.3850 C   0  0  0  0  0  2  0  0  0  0  0  0
  162.7840  213.7380  146.4400 C   0  0  0  0  0  2  0  0  0  0  0  0
  162.3200  213.1640  145.1870 N   0  0  0  0  0  2  0  0  0  0  0  0
  163.3400  213.4490  144.1960 C   0  0  0  0  0  1  0  0  0  0  0  0
  161.5960  211.0440  148.4980 C   0  0  0  0  0  2  0  0  0  0  0  0
  162.5800  209.8920  148.7110 C   0  0  0  0  0  2  0  0  0  0  0  0
  160.0510  203.9650  151.5560 C   0  0  0  0  0  2  0  0  0  0  0  0
  160.8500  203.3460  150.3780 C   0  0  0  0  0  2  0  0  0  0  0  0
  161.8710  208.6240  149.1470 C   0  0  1  0  0  3  0  0  0  0  0  0
  160.2780  205.6820  144.3330 C   0  0  0  0  0  2  0  0  0  0  0  0
  160.0730  206.3660  145.6840 C   0  0  0  0  0  2  0  0  0  0  0  0
  161.2750  207.5250  151.2510 O   0  0  0  0  0  0  0  0  0  0  0  0
  161.0070  206.6130  147.9970 C   0  0  0  0  0  2  0  0  0  0  0  0
  162.2150  207.5160  148.1590 C   0  0  0  0  0  2  0  0  0  0  0  0
  162.6040  203.9760  147.3980 N   0  0  0  0  0  0  0  0  0  0  0  0
  160.3600  204.2970  144.5240 O   0  0  0  0  0  0  0  0  0  0  0  0
  162.2820  208.2840  150.5810 C   0  0  0  0  0  2  0  0  0  0  0  0
  161.2160  206.1340  151.1880 C   0  0  0  0  0  0  0  0  0  0  0  0
  160.1620  205.4730  151.6790 C   0  0  0  0  0  3  0  0  0  0  0  0
  161.0190  205.8270  146.7300 C   0  0  0  0  0  0  0  0  0  0  0  0
  161.6120  204.0700  145.1190 C   0  0  0  0  0  2  0  0  0  0  0  0
  162.5850  203.8360  148.6690 N   0  0  0  0  0  0  0  0  0  0  0  0
  161.5990  204.4000  149.5630 C   0  0  2  0  0  3  0  0  0  0  0  0
  161.6720  204.6450  146.5120 C   0  0  0  0  0  0  0  0  0  0  0  0
  162.2930  205.3590  150.5110 C   0  0  0  0  0  2  0  0  0  0  0  0
  1 18  1  6  0  0  0
  2  1  1  1  0  0  0
  2  4  1  0  0  0  0
  2  3  1  0  0  0  0
  3 10  1  1  0  0  0
  4  5  1  6  0  0  0
  4  3  1  0  0  0  0
  5  6  1  6  0  0  0
  5  9  1  0  0  0  0
  8  9  2  0  0  0  0
  9  7  1  0  0  0  0
 10 13  1  0  0  0  0
 11 17  1  0  0  0  0
 12 11  2  0  0  0  0
 13 12  1  0  0  0  0
 13 15  2  0  0  0  0
 15 16  1  0  0  0  0
 16 17  2  0  0  0  0
 17 14  1  0  0  0  0
 19 18  1  0  0  0  0
 20 19  1  0  0  0  0
 21 20  1  0  0  0  0
 22  1  1  0  0  0  0
 22 23  1  0  0  0  0
 24 36  1  0  0  0  0
 25 24  1  0  0  0  0
 26 23  1  6  0  0  0
 26 34  1  0  0  0  0
 27 33  1  0  0  0  0
 27 28  1  0  0  0  0
 28 37  1  0  0  0  0
 30 31  1  0  0  0  0
 31 26  1  0  0  0  0
 32 39  2  0  0  0  0
 33 38  1  0  0  0  0
 34 29  1  0  0  0  0
 35 29  1  0  0  0  0
 35 36  2  0  0  0  0
 37 30  1  0  0  0  0
 38 41  1  0  0  0  0
 39 40  1  0  0  0  0
 40 25  1  1  0  0  0
 40 42  1  0  0  0  0
 41 37  2  0  0  0  0
 41 32  1  0  0  0  0
 42 35  1  0  0  0  0
M  END
>  <MODEL>
7

>  <REMARK>
 VINA RESULT:      -4.6      3.083      9.189
  Name = 
  11 active torsions:
  status: ('A' for Active; 'I' for Inactive)
    1  A    between atoms: C_2  and  C_10
    2  A    between atoms: C_2  and  C_36
    3  A    between atoms: N_6  and  C_37
    4  A    between atoms: O_7  and  C_18
    5  A    between atoms: O_7  and  C_24
    6  A    between atoms: C_9  and  C_23
    7  A    between atoms: C_13  and  C_32
    8  A    between atoms: C_13  and  C_37
    9  A    between atoms: C_14  and  C_32
   10  A    between atoms: C_23  and  C_29
   11  A    between atoms: C_32  and  C_36
                            x       y       z     vdW  Elec       q    Type
                         _______ _______ _______ _____ _____    ______ ____

>  <TORSDO>
F 11

$$$$
=
 OpenBabel11042420033D

 42 46  0  0  1  0  0  0  0  0999 V2000
  160.6430  209.4900  152.7050 C   0  0  2  0  0  3  0  0  0  0  0  0
  160.8210  211.0090  152.6000 C   0  0  2  0  0  3  0  0  0  0  0  0
  159.9900  211.7970  153.6180 C   0  0  1  0  0  3  0  0  0  0  0  0
  159.5150  211.6710  152.1850 C   0  0  1  0  0  3  0  0  0  0  0  0
  159.7830  212.9810  151.4600 C   0  0  1  0  0  3  0  0  0  0  0  0
  160.5910  212.7260  150.2000 C   0  0  0  0  0  1  0  0  0  0  0  0
  157.5690  214.1590  152.1780 C   0  0  0  0  0  1  0  0  0  0  0  0
  158.1930  213.8190  149.9410 O   0  0  0  0  0  0  0  0  0  0  0  0
  158.4960  213.6670  151.1120 C   0  0  0  0  0  0  0  0  0  0  0  0
  159.1850  210.9670  154.4490 O   0  0  0  0  0  0  0  0  0  0  0  0
  157.1120  212.7950  156.9300 C   0  0  0  0  0  3  0  0  0  0  0  0
  158.2350  212.3140  156.2530 C   0  0  0  0  0  3  0  0  0  0  0  0
  158.0830  211.4510  155.1570 C   0  0  0  0  0  0  0  0  0  0  0  0
  154.6370  212.9230  157.2480 C   0  0  0  0  0  1  0  0  0  0  0  0
  156.7970  211.0780  154.7500 C   0  0  0  0  0  3  0  0  0  0  0  0
  155.6740  211.5550  155.4330 C   0  0  0  0  0  3  0  0  0  0  0  0
  155.8310  212.4120  156.5230 C   0  0  0  0  0  0  0  0  0  0  0  0
  161.5690  208.8920  153.7670 C   0  0  0  0  0  2  0  0  0  0  0  0
  160.8460  207.9040  154.6650 C   0  0  0  0  0  2  0  0  0  0  0  0
  160.6510  208.4840  155.9840 N   0  0  0  0  0  2  0  0  0  0  0  0
  161.9400  208.4530  156.6480 C   0  0  0  0  0  1  0  0  0  0  0  0
  160.8310  208.8040  151.3450 C   0  0  0  0  0  2  0  0  0  0  0  0
  161.8720  207.6840  151.3470 C   0  0  0  0  0  2  0  0  0  0  0  0
  159.7780  201.0830  150.0590 C   0  0  0  0  0  2  0  0  0  0  0  0
  160.7450  201.2680  148.8590 C   0  0  0  0  0  2  0  0  0  0  0  0
  161.2740  206.3620  150.9060 C   0  0  1  0  0  3  0  0  0  0  0  0
  160.4640  206.5740  145.1030 C   0  0  0  0  0  2  0  0  0  0  0  0
  160.0620  206.3700  146.5640 C   0  0  0  0  0  2  0  0  0  0  0  0
  160.6170  204.2460  151.9460 O   0  0  0  0  0  0  0  0  0  0  0  0
  160.7490  205.3120  148.7300 C   0  0  0  0  0  2  0  0  0  0  0  0
  161.8280  206.0170  149.5290 C   0  0  0  0  0  2  0  0  0  0  0  0
  162.6800  203.5390  147.0000 N   0  0  0  0  0  0  0  0  0  0  0  0
  160.6850  205.3260  144.5060 O   0  0  0  0  0  0  0  0  0  0  0  0
  161.5880  205.2920  151.9540 C   0  0  0  0  0  2  0  0  0  0  0  0
  160.7210  203.1300  151.1170 C   0  0  0  0  0  0  0  0  0  0  0  0
  159.7080  202.2630  151.0090 C   0  0  0  0  0  3  0  0  0  0  0  0
  160.9640  205.3760  147.2560 C   0  0  0  0  0  0  0  0  0  0  0  0
  161.8950  204.8570  145.0430 C   0  0  0  0  0  2  0  0  0  0  0  0
  162.5620  202.7080  147.9650 N   0  0  0  0  0  0  0  0  0  0  0  0
  161.4420  202.6290  148.8750 C   0  0  2  0  0  3  0  0  0  0  0  0
  161.7630  204.5500  146.5130 C   0  0  0  0  0  0  0  0  0  0  0  0
  161.9350  202.9160  150.2800 C   0  0  0  0  0  2  0  0  0  0  0  0
  1 22  1  6  0  0  0
  1 18  1  0  0  0  0
  2  1  1  1  0  0  0
  2  3  1  0  0  0  0
  3 10  1  1  0  0  0
  4  5  1  6  0  0  0
  4  2  1  0  0  0  0
  4  3  1  0  0  0  0
  5  6  1  6  0  0  0
  8  9  2  0  0  0  0
  9  5  1  0  0  0  0
  9  7  1  0  0  0  0
 10 13  1  0  0  0  0
 12 11  2  0  0  0  0
 13 12  1  0  0  0  0
 15 13  2  0  0  0  0
 15 16  1  0  0  0  0
 16 17  2  0  0  0  0
 17 11  1  0  0  0  0
 17 14  1  0  0  0  0
 18 19  1  0  0  0  0
 19 20  1  0  0  0  0
 20 21  1  0  0  0  0
 22 23  1  0  0  0  0
 24 36  1  0  0  0  0
 25 24  1  0  0  0  0
 26 23  1  1  0  0  0
 26 34  1  0  0  0  0
 27 28  1  0  0  0  0
 28 37  1  0  0  0  0
 29 34  1  0  0  0  0
 30 31  1  0  0  0  0
 31 26  1  0  0  0  0
 32 39  2  0  0  0  0
 33 38  1  0  0  0  0
 33 27  1  0  0  0  0
 35 29  1  0  0  0  0
 36 35  2  0  0  0  0
 37 30  1  0  0  0  0
 38 41  1  0  0  0  0
 39 40  1  0  0  0  0
 40 25  1  1  0  0  0
 40 42  1  0  0  0  0
 41 32  1  0  0  0  0
 41 37  2  0  0  0  0
 42 35  1  0  0  0  0
M  END
>  <MODEL>
8

>  <REMARK>
 VINA RESULT:      -4.4      2.437     10.071
  Name = 
  11 active torsions:
  status: ('A' for Active; 'I' for Inactive)
    1  A    between atoms: C_2  and  C_10
    2  A    between atoms: C_2  and  C_36
    3  A    between atoms: N_6  and  C_37
    4  A    between atoms: O_7  and  C_18
    5  A    between atoms: O_7  and  C_24
    6  A    between atoms: C_9  and  C_23
    7  A    between atoms: C_13  and  C_32
    8  A    between atoms: C_13  and  C_37
    9  A    between atoms: C_14  and  C_32
   10  A    between atoms: C_23  and  C_29
   11  A    between atoms: C_32  and  C_36
                            x       y       z     vdW  Elec       q    Type
                         _______ _______ _______ _____ _____    ______ ____

>  <TORSDO>
F 11

$$$$
=
 OpenBabel11042420033D

 42 46  0  0  1  0  0  0  0  0999 V2000
  161.1180  206.9230  149.6790 C   0  0  2  0  0  3  0  0  0  0  0  0
  160.6680  205.6370  150.3820 C   0  0  2  0  0  3  0  0  0  0  0  0
  160.8840  205.6580  151.8980 C   0  0  1  0  0  3  0  0  0  0  0  0
  161.8610  204.9250  151.0040 C   0  0  1  0  0  3  0  0  0  0  0  0
  161.6000  203.4300  151.1090 C   0  0  1  0  0  3  0  0  0  0  0  0
  160.5630  203.1530  152.1820 C   0  0  0  0  0  1  0  0  0  0  0  0
  160.9540  201.4090  149.5910 C   0  0  0  0  0  1  0  0  0  0  0  0
  160.9110  203.6410  148.8690 O   0  0  0  0  0  0  0  0  0  0  0  0
  161.1360  202.8790  149.7930 C   0  0  0  0  0  0  0  0  0  0  0  0
  161.4910  206.8600  152.3640 O   0  0  0  0  0  0  0  0  0  0  0  0
  160.4290  207.3450  155.8890 C   0  0  0  0  0  3  0  0  0  0  0  0
  160.7650  206.7090  154.6920 C   0  0  0  0  0  3  0  0  0  0  0  0
  161.1340  207.4670  153.5700 C   0  0  0  0  0  0  0  0  0  0  0  0
  160.0900  209.4140  157.2470 C   0  0  0  0  0  1  0  0  0  0  0  0
  161.1610  208.8620  153.6620 C   0  0  0  0  0  3  0  0  0  0  0  0
  160.8190  209.4970  154.8600 C   0  0  0  0  0  3  0  0  0  0  0  0
  160.4520  208.7400  155.9720 C   0  0  0  0  0  0  0  0  0  0  0  0
  160.9860  206.8030  148.1590 C   0  0  0  0  0  2  0  0  0  0  0  0
  162.3290  206.5930  147.4830 C   0  0  0  0  0  2  0  0  0  0  0  0
  162.3590  205.2940  146.8310 N   0  0  0  0  0  2  0  0  0  0  0  0
  161.5980  205.4270  145.6030 C   0  0  0  0  0  1  0  0  0  0  0  0
  162.5410  207.3240  150.0900 C   0  0  0  0  0  2  0  0  0  0  0  0
  162.6410  208.7120  150.7260 C   0  0  0  0  0  2  0  0  0  0  0  0
  159.2360  213.6320  147.0100 C   0  0  0  0  0  2  0  0  0  0  0  0
  159.4490  214.4270  148.3260 C   0  0  0  0  0  2  0  0  0  0  0  0
  161.7130  209.7040  150.0530 C   0  0  1  0  0  3  0  0  0  0  0  0
  158.0340  211.8000  154.1070 C   0  0  0  0  0  2  0  0  0  0  0  0
  158.4290  211.1390  152.7870 C   0  0  0  0  0  2  0  0  0  0  0  0
  161.3920  210.6370  147.8120 O   0  0  0  0  0  0  0  0  0  0  0  0
  159.9810  211.2910  150.8250 C   0  0  0  0  0  2  0  0  0  0  0  0
  161.4090  210.8260  151.0390 C   0  0  0  0  0  2  0  0  0  0  0  0
  160.4380  214.2730  151.6950 N   0  0  0  0  0  0  0  0  0  0  0  0
  157.7230  213.1460  153.8750 O   0  0  0  0  0  0  0  0  0  0  0  0
  162.3670  210.2120  148.7650 C   0  0  0  0  0  2  0  0  0  0  0  0
  160.8820  211.9340  147.7860 C   0  0  0  0  0  0  0  0  0  0  0  0
  159.8480  212.2440  146.9980 C   0  0  0  0  0  3  0  0  0  0  0  0
  159.4010  211.9900  152.0070 C   0  0  0  0  0  0  0  0  0  0  0  0
  158.9500  213.7820  153.6270 C   0  0  0  0  0  2  0  0  0  0  0  0
  160.7200  214.4480  150.4600 N   0  0  0  0  0  0  0  0  0  0  0  0
  160.2430  213.6350  149.3650 C   0  0  2  0  0  3  0  0  0  0  0  0
  159.5630  213.3090  152.3320 C   0  0  0  0  0  0  0  0  0  0  0  0
  161.4330  212.9840  148.6880 C   0  0  0  0  0  2  0  0  0  0  0  0
  1 18  1  6  0  0  0
  1 22  1  0  0  0  0
  2  1  1  6  0  0  0
  2  4  1  0  0  0  0
  2  3  1  0  0  0  0
  3 10  1  6  0  0  0
  4  5  1  1  0  0  0
  4  3  1  0  0  0  0
  5  6  1  1  0  0  0
  7  9  1  0  0  0  0
  8  9  2  0  0  0  0
  9  5  1  0  0  0  0
 10 13  1  0  0  0  0
 11 17  1  0  0  0  0
 12 11  2  0  0  0  0
 13 15  2  0  0  0  0
 13 12  1  0  0  0  0
 15 16  1  0  0  0  0
 16 17  2  0  0  0  0
 17 14  1  0  0  0  0
 19 18  1  0  0  0  0
 20 19  1  0  0  0  0
 21 20  1  0  0  0  0
 22 23  1  0  0  0  0
 24 25  1  0  0  0  0
 26 23  1  1  0  0  0
 26 31  1  0  0  0  0
 28 27  1  0  0  0  0
 29 34  1  0  0  0  0
 30 31  1  0  0  0  0
 30 37  1  0  0  0  0
 32 41  1  0  0  0  0
 33 27  1  0  0  0  0
 34 26  1  0  0  0  0
 35 29  1  0  0  0  0
 35 42  1  0  0  0  0
 36 24  1  0  0  0  0
 36 35  2  0  0  0  0
 37 41  2  0  0  0  0
 37 28  1  0  0  0  0
 38 33  1  0  0  0  0
 39 32  2  0  0  0  0
 40 25  1  6  0  0  0
 40 39  1  0  0  0  0
 41 38  1  0  0  0  0
 42 40  1  0  0  0  0
M  END
>  <MODEL>
9

>  <REMARK>
 VINA RESULT:      -4.4      2.244      6.185
  Name = 
  11 active torsions:
  status: ('A' for Active; 'I' for Inactive)
    1  A    between atoms: C_2  and  C_10
    2  A    between atoms: C_2  and  C_36
    3  A    between atoms: N_6  and  C_37
    4  A    between atoms: O_7  and  C_18
    5  A    between atoms: O_7  and  C_24
    6  A    between atoms: C_9  and  C_23
    7  A    between atoms: C_13  and  C_32
    8  A    between atoms: C_13  and  C_37
    9  A    between atoms: C_14  and  C_32
   10  A    between atoms: C_23  and  C_29
   11  A    between atoms: C_32  and  C_36
                            x       y       z     vdW  Elec       q    Type
                         _______ _______ _______ _____ _____    ______ ____

>  <TORSDO>
F 11

$$$$
