=
 OpenBabel11052409493D

 26 29  0  0  1  0  0  0  0  0999 V2000
  161.9790  209.6260  149.1820 N   0  0  0  0  0  2  0  0  0  0  0  0
  161.0310  206.2980  153.6080 N   0  0  0  0  0  2  0  0  0  0  0  0
  161.2560  207.3200  149.9430 C   0  0  0  0  0  2  0  0  0  0  0  0
  161.2750  208.6770  153.9380 C   0  0  0  0  0  2  0  0  0  0  0  0
  161.1560  206.4060  151.1520 C   0  0  0  0  0  0  0  0  0  0  0  0
  161.1900  208.3590  152.5280 N   0  0  0  0  0  0  0  0  0  0  0  0
  161.0900  206.9710  152.3670 C   0  0  0  0  0  0  0  0  0  0  0  0
  161.1060  207.3160  154.6560 C   0  0  1  0  0  3  0  0  0  0  0  0
  161.5540  209.2120  151.4770 N   0  0  0  0  0  0  0  0  0  0  0  0
  161.6150  208.7580  150.2580 C   0  0  0  0  0  0  0  0  0  0  0  0
  161.0160  204.4160  149.6400 C   0  0  0  0  0  3  0  0  0  0  0  0
  160.8620  202.3810  147.8260 Cl  0  0  0  0  0  0  0  0  0  0  0  0
  160.9690  202.1790  150.5460 C   0  0  0  0  0  3  0  0  0  0  0  0
  161.0430  202.7230  151.8290 C   0  0  0  0  0  3  0  0  0  0  0  0
  161.0920  204.9350  150.9410 C   0  0  0  0  0  0  0  0  0  0  0  0
  161.1020  204.0710  151.9970 N   0  0  0  0  0  0  0  0  0  0  0  0
  160.9560  203.0360  149.4470 C   0  0  0  0  0  0  0  0  0  0  0  0
  162.2900  211.0370  149.3680 C   0  0  0  0  0  2  0  0  0  0  0  0
  161.6180  214.1470  148.6290 O   0  0  0  0  0  0  0  0  0  0  0  0
  163.0600  212.5890  147.5990 C   0  0  0  0  0  2  0  0  0  0  0  0
  162.6400  214.0360  147.6760 C   0  0  0  0  0  2  0  0  0  0  0  0
  161.8780  211.8420  148.1440 C   0  0  2  0  0  3  0  0  0  0  0  0
  160.9180  212.9340  148.5580 C   0  0  0  0  0  2  0  0  0  0  0  0
  159.8190  207.3040  155.4670 C   0  0  0  0  0  2  0  0  0  0  0  0
  161.3380  207.7350  157.2610 O   0  0  0  0  0  1  0  0  0  0  0  0
  160.1100  207.1490  156.9520 C   0  0  0  0  0  2  0  0  0  0  0  0
  1 18  1  0  0  0  0
  1 10  1  0  0  0  0
  2  8  1  0  0  0  0
  3 10  1  0  0  0  0
  3  5  1  0  0  0  0
  4  8  1  0  0  0  0
  5  7  2  0  0  0  0
  6  4  1  0  0  0  0
  7  6  1  0  0  0  0
  7  2  1  0  0  0  0
  8 24  1  6  0  0  0
  9  6  1  0  0  0  0
 10  9  2  0  0  0  0
 11 15  1  0  0  0  0
 12 17  1  0  0  0  0
 13 14  2  0  0  0  0
 14 16  1  0  0  0  0
 15  5  1  0  0  0  0
 15 16  2  0  0  0  0
 17 11  2  0  0  0  0
 17 13  1  0  0  0  0
 20 21  1  0  0  0  0
 20 22  1  0  0  0  0
 21 19  1  0  0  0  0
 22 23  1  0  0  0  0
 22 18  1  1  0  0  0
 23 19  1  0  0  0  0
 24 26  1  0  0  0  0
 26 25  1  0  0  0  0
M  END
>  <MODEL>
1

>  <REMARK>
 VINA RESULT:      -8.4      0.000      0.000
  Name = 
  5 active torsions:
  status: ('A' for Active; 'I' for Inactive)
    1  A    between atoms: N_3  and  C_17
    2  A    between atoms: C_11  and  C_19
    3  A    between atoms: C_13  and  C_17
    4  A    between atoms: C_18  and  C_24
    5  A    between atoms: C_24  and  C_25
                            x       y       z     vdW  Elec       q    Type
                         _______ _______ _______ _____ _____    ______ ____

>  <TORSDO>
F 5

$$$$
=
 OpenBabel11052409493D

 26 29  0  0  1  0  0  0  0  0999 V2000
  161.9970  210.3670  148.3240 N   0  0  0  0  0  2  0  0  0  0  0  0
  161.7640  205.8140  151.6080 N   0  0  0  0  0  2  0  0  0  0  0  0
  161.4110  207.9050  148.4400 C   0  0  0  0  0  2  0  0  0  0  0  0
  162.0470  207.9920  152.6100 C   0  0  0  0  0  2  0  0  0  0  0  0
  161.5040  206.6640  149.3120 C   0  0  0  0  0  0  0  0  0  0  0  0
  161.7450  208.1110  151.2000 N   0  0  0  0  0  0  0  0  0  0  0  0
  161.6260  206.8320  150.6380 C   0  0  0  0  0  0  0  0  0  0  0  0
  161.9970  206.4710  152.8940 C   0  0  1  0  0  3  0  0  0  0  0  0
  161.9360  209.2580  150.4190 N   0  0  0  0  0  0  0  0  0  0  0  0
  161.8080  209.1970  149.1240 C   0  0  0  0  0  0  0  0  0  0  0  0
  160.9770  204.2200  149.4200 C   0  0  0  0  0  3  0  0  0  0  0  0
  160.3490  201.5820  149.7420 Cl  0  0  0  0  0  0  0  0  0  0  0  0
  161.2450  202.8130  147.4760 C   0  0  0  0  0  3  0  0  0  0  0  0
  161.6780  203.9290  146.7580 C   0  0  0  0  0  3  0  0  0  0  0  0
  161.4140  205.3240  148.6730 C   0  0  0  0  0  0  0  0  0  0  0  0
  161.7510  205.1440  147.3640 N   0  0  0  0  0  0  0  0  0  0  0  0
  160.8940  202.9650  148.8170 C   0  0  0  0  0  0  0  0  0  0  0  0
  162.3270  211.6700  148.8850 C   0  0  0  0  0  2  0  0  0  0  0  0
  162.4540  213.4760  146.1660 O   0  0  0  0  0  0  0  0  0  0  0  0
  160.7050  212.1870  147.0880 C   0  0  0  0  0  2  0  0  0  0  0  0
  161.1880  212.9490  145.8770 C   0  0  0  0  0  2  0  0  0  0  0  0
  161.5060  212.7640  148.2180 C   0  0  2  0  0  3  0  0  0  0  0  0
  162.4320  213.7490  147.5420 C   0  0  0  0  0  2  0  0  0  0  0  0
  160.8530  206.1480  153.8430 C   0  0  0  0  0  2  0  0  0  0  0  0
  160.3730  206.9320  156.0480 O   0  0  0  0  0  1  0  0  0  0  0  0
  160.5190  207.3420  154.7230 C   0  0  0  0  0  2  0  0  0  0  0  0
  1 18  1  0  0  0  0
  1 10  1  0  0  0  0
  2  8  1  0  0  0  0
  3 10  1  0  0  0  0
  3  5  1  0  0  0  0
  4  8  1  0  0  0  0
  5  7  2  0  0  0  0
  6  4  1  0  0  0  0
  7  6  1  0  0  0  0
  7  2  1  0  0  0  0
  8 24  1  1  0  0  0
  9  6  1  0  0  0  0
 10  9  2  0  0  0  0
 13 17  2  0  0  0  0
 14 16  2  0  0  0  0
 14 13  1  0  0  0  0
 15  5  1  0  0  0  0
 15 11  2  0  0  0  0
 16 15  1  0  0  0  0
 17 11  1  0  0  0  0
 17 12  1  0  0  0  0
 19 23  1  0  0  0  0
 20 22  1  0  0  0  0
 21 19  1  0  0  0  0
 21 20  1  0  0  0  0
 22 18  1  6  0  0  0
 23 22  1  0  0  0  0
 24 26  1  0  0  0  0
 26 25  1  0  0  0  0
M  END
>  <MODEL>
2

>  <REMARK>
 VINA RESULT:      -8.1      1.779      2.300
  Name = 
  5 active torsions:
  status: ('A' for Active; 'I' for Inactive)
    1  A    between atoms: N_3  and  C_17
    2  A    between atoms: C_11  and  C_19
    3  A    between atoms: C_13  and  C_17
    4  A    between atoms: C_18  and  C_24
    5  A    between atoms: C_24  and  C_25
                            x       y       z     vdW  Elec       q    Type
                         _______ _______ _______ _____ _____    ______ ____

>  <TORSDO>
F 5

$$$$
=
 OpenBabel11052409493D

 26 29  0  0  1  0  0  0  0  0999 V2000
  162.3300  211.5620  149.0280 N   0  0  0  0  0  2  0  0  0  0  0  0
  160.7670  206.2450  149.9500 N   0  0  0  0  0  2  0  0  0  0  0  0
  162.0790  209.7320  150.7600 C   0  0  0  0  0  2  0  0  0  0  0  0
  161.1040  207.0120  147.6850 C   0  0  0  0  0  2  0  0  0  0  0  0
  161.5070  208.3440  151.0010 C   0  0  0  0  0  0  0  0  0  0  0  0
  161.5630  208.0020  148.6370 N   0  0  0  0  0  0  0  0  0  0  0  0
  161.3180  207.5460  149.9390 C   0  0  0  0  0  0  0  0  0  0  0  0
  160.6340  205.8210  148.5560 C   0  0  1  0  0  3  0  0  0  0  0  0
  161.8280  209.3470  148.3500 N   0  0  0  0  0  0  0  0  0  0  0  0
  162.0540  210.1900  149.3170 C   0  0  0  0  0  0  0  0  0  0  0  0
  160.7960  208.8520  153.3470 C   0  0  0  0  0  3  0  0  0  0  0  0
  159.9980  209.6090  155.8460 Cl  0  0  0  0  0  0  0  0  0  0  0  0
  160.6920  207.1050  155.0100 C   0  0  0  0  0  3  0  0  0  0  0  0
  161.1190  206.1930  154.0440 C   0  0  0  0  0  3  0  0  0  0  0  0
  161.2230  207.9130  152.3960 C   0  0  0  0  0  0  0  0  0  0  0  0
  161.3710  206.6110  152.7740 N   0  0  0  0  0  0  0  0  0  0  0  0
  160.5310  208.4430  154.6540 C   0  0  0  0  0  0  0  0  0  0  0  0
  162.3840  212.0960  147.6730 C   0  0  0  0  0  2  0  0  0  0  0  0
  159.2370  212.9520  147.5000 O   0  0  0  0  0  0  0  0  0  0  0  0
  160.9720  213.7150  148.9050 C   0  0  0  0  0  2  0  0  0  0  0  0
  159.4850  213.7170  148.6480 C   0  0  0  0  0  2  0  0  0  0  0  0
  161.5680  213.3760  147.5700 C   0  0  2  0  0  3  0  0  0  0  0  0
  160.3640  213.1370  146.6860 C   0  0  0  0  0  2  0  0  0  0  0  0
  161.5160  204.6070  148.3090 C   0  0  0  0  0  2  0  0  0  0  0  0
  161.4290  203.7490  146.0810 O   0  0  0  0  0  1  0  0  0  0  0  0
  162.1120  204.6390  146.9110 C   0  0  0  0  0  2  0  0  0  0  0  0
  1 10  1  0  0  0  0
  3  5  1  0  0  0  0
  4  8  1  0  0  0  0
  4  6  1  0  0  0  0
  5 15  1  0  0  0  0
  6  7  1  0  0  0  0
  7  2  1  0  0  0  0
  7  5  2  0  0  0  0
  8 24  1  1  0  0  0
  8  2  1  0  0  0  0
  9  6  1  0  0  0  0
  9 10  2  0  0  0  0
 10  3  1  0  0  0  0
 11 17  1  0  0  0  0
 14 13  1  0  0  0  0
 15 16  1  0  0  0  0
 15 11  2  0  0  0  0
 16 14  2  0  0  0  0
 17 13  2  0  0  0  0
 17 12  1  0  0  0  0
 18  1  1  0  0  0  0
 19 21  1  0  0  0  0
 21 20  1  0  0  0  0
 22 18  1  1  0  0  0
 22 20  1  0  0  0  0
 23 19  1  0  0  0  0
 23 22  1  0  0  0  0
 25 26  1  0  0  0  0
 26 24  1  0  0  0  0
M  END
>  <MODEL>
3

>  <REMARK>
 VINA RESULT:      -7.9      3.553      5.485
  Name = 
  5 active torsions:
  status: ('A' for Active; 'I' for Inactive)
    1  A    between atoms: N_3  and  C_17
    2  A    between atoms: C_11  and  C_19
    3  A    between atoms: C_13  and  C_17
    4  A    between atoms: C_18  and  C_24
    5  A    between atoms: C_24  and  C_25
                            x       y       z     vdW  Elec       q    Type
                         _______ _______ _______ _____ _____    ______ ____

>  <TORSDO>
F 5

$$$$
=
 OpenBabel11052409493D

 26 29  0  0  1  0  0  0  0  0999 V2000
  161.2430  204.2700  152.4200 N   0  0  0  0  0  2  0  0  0  0  0  0
  161.8610  209.8540  152.3440 N   0  0  0  0  0  2  0  0  0  0  0  0
  160.7340  206.4420  153.6190 C   0  0  0  0  0  2  0  0  0  0  0  0
  162.3480  208.5740  150.3550 C   0  0  0  0  0  2  0  0  0  0  0  0
  161.0490  207.9290  153.6460 C   0  0  0  0  0  0  0  0  0  0  0  0
  161.7150  207.7440  151.3580 N   0  0  0  0  0  0  0  0  0  0  0  0
  161.4820  208.5030  152.5130 C   0  0  0  0  0  0  0  0  0  0  0  0
  162.3870  209.9880  150.9850 C   0  0  1  0  0  3  0  0  0  0  0  0
  161.7000  206.3430  151.3650 N   0  0  0  0  0  0  0  0  0  0  0  0
  161.2670  205.7000  152.4110 C   0  0  0  0  0  0  0  0  0  0  0  0
  159.7730  209.6160  154.9840 C   0  0  0  0  0  3  0  0  0  0  0  0
  158.2570  211.4830  156.2750 Cl  0  0  0  0  0  0  0  0  0  0  0  0
  160.4080  210.1210  157.2580 C   0  0  0  0  0  3  0  0  0  0  0  0
  161.4470  209.1960  157.1490 C   0  0  0  0  0  3  0  0  0  0  0  0
  160.8260  208.6910  154.9030 C   0  0  0  0  0  0  0  0  0  0  0  0
  161.6310  208.5100  155.9890 N   0  0  0  0  0  0  0  0  0  0  0  0
  159.5680  210.3290  156.1660 C   0  0  0  0  0  0  0  0  0  0  0  0
  161.6810  203.4590  151.2910 C   0  0  0  0  0  2  0  0  0  0  0  0
  161.2810  202.9550  148.0900 O   0  0  0  0  0  0  0  0  0  0  0  0
  160.4560  201.7720  149.9570 C   0  0  0  0  0  2  0  0  0  0  0  0
  160.6400  201.7650  148.4590 C   0  0  0  0  0  2  0  0  0  0  0  0
  160.5320  203.2260  150.3220 C   0  0  2  0  0  3  0  0  0  0  0  0
  160.8320  203.9140  149.0090 C   0  0  0  0  0  2  0  0  0  0  0  0
  161.5060  210.9430  150.1930 C   0  0  0  0  0  2  0  0  0  0  0  0
  162.7110  212.1780  148.5400 O   0  0  0  0  0  1  0  0  0  0  0  0
  161.9540  211.0230  148.7420 C   0  0  0  0  0  2  0  0  0  0  0  0
  2  7  1  0  0  0  0
  3  5  1  0  0  0  0
  4  8  1  0  0  0  0
  4  6  1  0  0  0  0
  5 15  1  0  0  0  0
  6  9  1  0  0  0  0
  6  7  1  0  0  0  0
  7  5  2  0  0  0  0
  8 24  1  6  0  0  0
  8  2  1  0  0  0  0
  9 10  2  0  0  0  0
 10  1  1  0  0  0  0
 10  3  1  0  0  0  0
 11 17  1  0  0  0  0
 14 13  1  0  0  0  0
 15 11  2  0  0  0  0
 15 16  1  0  0  0  0
 16 14  2  0  0  0  0
 17 12  1  0  0  0  0
 17 13  2  0  0  0  0
 18  1  1  0  0  0  0
 19 21  1  0  0  0  0
 19 23  1  0  0  0  0
 20 22  1  0  0  0  0
 21 20  1  0  0  0  0
 22 18  1  1  0  0  0
 23 22  1  0  0  0  0
 25 26  1  0  0  0  0
 26 24  1  0  0  0  0
M  END
>  <MODEL>
4

>  <REMARK>
 VINA RESULT:      -7.7      3.621      7.759
  Name = 
  5 active torsions:
  status: ('A' for Active; 'I' for Inactive)
    1  A    between atoms: N_3  and  C_17
    2  A    between atoms: C_11  and  C_19
    3  A    between atoms: C_13  and  C_17
    4  A    between atoms: C_18  and  C_24
    5  A    between atoms: C_24  and  C_25
                            x       y       z     vdW  Elec       q    Type
                         _______ _______ _______ _____ _____    ______ ____

>  <TORSDO>
F 5

$$$$
=
 OpenBabel11052409493D

 26 29  0  0  1  0  0  0  0  0999 V2000
  161.3940  205.0210  152.1500 N   0  0  0  0  0  2  0  0  0  0  0  0
  161.8280  210.4330  150.7060 N   0  0  0  0  0  2  0  0  0  0  0  0
  160.8360  207.4050  152.7990 C   0  0  0  0  0  2  0  0  0  0  0  0
  162.3200  208.7230  149.0750 C   0  0  0  0  0  2  0  0  0  0  0  0
  161.1030  208.8620  152.4560 C   0  0  0  0  0  0  0  0  0  0  0  0
  161.7330  208.1440  150.2650 N   0  0  0  0  0  0  0  0  0  0  0  0
  161.4960  209.1550  151.2070 C   0  0  0  0  0  0  0  0  0  0  0  0
  162.3240  210.2470  149.3420 C   0  0  1  0  0  3  0  0  0  0  0  0
  161.7640  206.7870  150.6120 N   0  0  0  0  0  0  0  0  0  0  0  0
  161.3710  206.4060  151.7940 C   0  0  0  0  0  0  0  0  0  0  0  0
  159.7450  210.7260  153.4290 C   0  0  0  0  0  3  0  0  0  0  0  0
  158.1260  212.7320  154.3290 Cl  0  0  0  0  0  0  0  0  0  0  0  0
  160.4560  211.8480  155.4440 C   0  0  0  0  0  3  0  0  0  0  0  0
  161.5750  211.0150  155.4860 C   0  0  0  0  0  3  0  0  0  0  0  0
  160.8780  209.9010  153.4970 C   0  0  0  0  0  0  0  0  0  0  0  0
  161.7590  210.0710  154.5240 N   0  0  0  0  0  0  0  0  0  0  0  0
  159.5380  211.6990  154.4060 C   0  0  0  0  0  0  0  0  0  0  0  0
  161.8380  203.9720  151.2410 C   0  0  0  0  0  2  0  0  0  0  0  0
  161.3710  202.8170  148.2230 O   0  0  0  0  0  0  0  0  0  0  0  0
  160.7000  201.9760  150.3220 C   0  0  0  0  0  2  0  0  0  0  0  0
  160.8340  201.6830  148.8480 C   0  0  0  0  0  2  0  0  0  0  0  0
  160.6790  203.4740  150.3920 C   0  0  2  0  0  3  0  0  0  0  0  0
  160.8820  203.9070  148.9570 C   0  0  0  0  0  2  0  0  0  0  0  0
  161.3980  210.9570  148.3650 C   0  0  0  0  0  2  0  0  0  0  0  0
  163.3060  212.3540  148.0210 O   0  0  0  0  0  1  0  0  0  0  0  0
  161.9110  212.3520  148.0420 C   0  0  0  0  0  2  0  0  0  0  0  0
  2  7  1  0  0  0  0
  4  8  1  0  0  0  0
  4  6  1  0  0  0  0
  5  3  1  0  0  0  0
  5 15  1  0  0  0  0
  6  9  1  0  0  0  0
  6  7  1  0  0  0  0
  7  5  2  0  0  0  0
  8 24  1  6  0  0  0
  8  2  1  0  0  0  0
  9 10  2  0  0  0  0
 10  1  1  0  0  0  0
 10  3  1  0  0  0  0
 11 15  2  0  0  0  0
 11 17  1  0  0  0  0
 12 17  1  0  0  0  0
 13 14  1  0  0  0  0
 15 16  1  0  0  0  0
 16 14  2  0  0  0  0
 17 13  2  0  0  0  0
 18  1  1  0  0  0  0
 19 21  1  0  0  0  0
 19 23  1  0  0  0  0
 20 22  1  0  0  0  0
 21 20  1  0  0  0  0
 22 18  1  1  0  0  0
 23 22  1  0  0  0  0
 25 26  1  0  0  0  0
 26 24  1  0  0  0  0
M  END
>  <MODEL>
5

>  <REMARK>
 VINA RESULT:      -7.6      3.641      7.991
  Name = 
  5 active torsions:
  status: ('A' for Active; 'I' for Inactive)
    1  A    between atoms: N_3  and  C_17
    2  A    between atoms: C_11  and  C_19
    3  A    between atoms: C_13  and  C_17
    4  A    between atoms: C_18  and  C_24
    5  A    between atoms: C_24  and  C_25
                            x       y       z     vdW  Elec       q    Type
                         _______ _______ _______ _____ _____    ______ ____

>  <TORSDO>
F 5

$$$$
=
 OpenBabel11052409493D

 26 29  0  0  1  0  0  0  0  0999 V2000
  161.0720  204.5840  150.0370 N   0  0  0  0  0  2  0  0  0  0  0  0
  161.9740  210.0420  151.0170 N   0  0  0  0  0  2  0  0  0  0  0  0
  160.8320  206.4710  151.7090 C   0  0  0  0  0  2  0  0  0  0  0  0
  162.1400  209.1940  148.7630 C   0  0  0  0  0  2  0  0  0  0  0  0
  161.2280  207.9100  151.9960 C   0  0  0  0  0  0  0  0  0  0  0  0
  161.5940  208.1890  149.6510 N   0  0  0  0  0  0  0  0  0  0  0  0
  161.5470  208.6960  150.9570 C   0  0  0  0  0  0  0  0  0  0  0  0
  162.3330  210.4430  149.6560 C   0  0  1  0  0  3  0  0  0  0  0  0
  161.5040  206.8190  149.3740 N   0  0  0  0  0  0  0  0  0  0  0  0
  161.1710  205.9830  150.3160 C   0  0  0  0  0  0  0  0  0  0  0  0
  160.7760  207.5480  154.4310 C   0  0  0  0  0  3  0  0  0  0  0  0
  160.2230  206.9560  157.0390 Cl  0  0  0  0  0  0  0  0  0  0  0  0
  161.1570  209.3150  156.0320 C   0  0  0  0  0  3  0  0  0  0  0  0
  161.5760  210.1390  154.9870 C   0  0  0  0  0  3  0  0  0  0  0  0
  161.2040  208.3990  153.4010 C   0  0  0  0  0  0  0  0  0  0  0  0
  161.5910  209.6690  153.7100 N   0  0  0  0  0  0  0  0  0  0  0  0
  160.7550  208.0110  155.7470 C   0  0  0  0  0  0  0  0  0  0  0  0
  161.3220  204.0150  148.7190 C   0  0  0  0  0  2  0  0  0  0  0  0
  161.7300  200.8040  148.2830 O   0  0  0  0  0  0  0  0  0  0  0  0
  160.3330  201.9990  149.7620 C   0  0  0  0  0  2  0  0  0  0  0  0
  160.9030  200.6490  149.4030 C   0  0  0  0  0  2  0  0  0  0  0  0
  160.4510  202.7880  148.4910 C   0  0  2  0  0  3  0  0  0  0  0  0
  161.1500  201.8430  147.5400 C   0  0  0  0  0  2  0  0  0  0  0  0
  161.4140  211.5660  149.2000 C   0  0  0  0  0  2  0  0  0  0  0  0
  163.0380  212.6650  147.8360 O   0  0  0  0  0  1  0  0  0  0  0  0
  161.7880  212.0460  147.8060 C   0  0  0  0  0  2  0  0  0  0  0  0
  1 10  1  0  0  0  0
  3  5  1  0  0  0  0
  4  6  1  0  0  0  0
  4  8  1  0  0  0  0
  5 15  1  0  0  0  0
  6  7  1  0  0  0  0
  7  2  1  0  0  0  0
  7  5  2  0  0  0  0
  8 24  1  6  0  0  0
  8  2  1  0  0  0  0
  9  6  1  0  0  0  0
  9 10  2  0  0  0  0
 10  3  1  0  0  0  0
 11 17  1  0  0  0  0
 14 13  1  0  0  0  0
 15 16  1  0  0  0  0
 15 11  2  0  0  0  0
 16 14  2  0  0  0  0
 17 13  2  0  0  0  0
 17 12  1  0  0  0  0
 18  1  1  0  0  0  0
 19 21  1  0  0  0  0
 21 20  1  0  0  0  0
 22 18  1  1  0  0  0
 22 20  1  0  0  0  0
 23 19  1  0  0  0  0
 23 22  1  0  0  0  0
 26 25  1  0  0  0  0
 26 24  1  0  0  0  0
M  END
>  <MODEL>
6

>  <REMARK>
 VINA RESULT:      -7.5      3.330      7.812
  Name = 
  5 active torsions:
  status: ('A' for Active; 'I' for Inactive)
    1  A    between atoms: N_3  and  C_17
    2  A    between atoms: C_11  and  C_19
    3  A    between atoms: C_13  and  C_17
    4  A    between atoms: C_18  and  C_24
    5  A    between atoms: C_24  and  C_25
                            x       y       z     vdW  Elec       q    Type
                         _______ _______ _______ _____ _____    ______ ____

>  <TORSDO>
F 5

$$$$
=
 OpenBabel11052409493D

 26 29  0  0  1  0  0  0  0  0999 V2000
  161.9550  210.4900  148.3250 N   0  0  0  0  0  2  0  0  0  0  0  0
  162.0230  205.3520  150.5960 N   0  0  0  0  0  2  0  0  0  0  0  0
  161.5000  208.0300  147.9340 C   0  0  0  0  0  2  0  0  0  0  0  0
  162.2140  207.2890  152.0260 C   0  0  0  0  0  2  0  0  0  0  0  0
  161.6750  206.6430  148.5290 C   0  0  0  0  0  0  0  0  0  0  0  0
  161.8770  207.6790  150.6730 N   0  0  0  0  0  0  0  0  0  0  0  0
  161.8140  206.5390  149.8600 C   0  0  0  0  0  0  0  0  0  0  0  0
  162.2480  205.7410  151.9890 C   0  0  1  0  0  3  0  0  0  0  0  0
  161.9940  208.9720  150.1450 N   0  0  0  0  0  0  0  0  0  0  0  0
  161.8440  209.1720  148.8670 C   0  0  0  0  0  0  0  0  0  0  0  0
  161.2870  204.2010  148.1350 C   0  0  0  0  0  3  0  0  0  0  0  0
  160.8140  201.5210  147.9120 Cl  0  0  0  0  0  0  0  0  0  0  0  0
  161.5790  203.2450  145.9380 C   0  0  0  0  0  3  0  0  0  0  0  0
  161.9290  204.5090  145.4600 C   0  0  0  0  0  3  0  0  0  0  0  0
  161.6410  205.4600  147.6270 C   0  0  0  0  0  0  0  0  0  0  0  0
  161.9520  205.5750  146.3040 N   0  0  0  0  0  0  0  0  0  0  0  0
  161.2560  203.0950  147.2860 C   0  0  0  0  0  0  0  0  0  0  0  0
  162.2290  211.6660  149.1410 C   0  0  0  0  0  2  0  0  0  0  0  0
  162.6140  213.4690  146.4450 O   0  0  0  0  0  0  0  0  0  0  0  0
  160.6820  212.5130  147.4040 C   0  0  0  0  0  2  0  0  0  0  0  0
  161.2640  213.1950  146.1890 C   0  0  0  0  0  2  0  0  0  0  0  0
  161.6090  212.9070  148.5160 C   0  0  2  0  0  3  0  0  0  0  0  0
  162.6840  213.7150  147.8240 C   0  0  0  0  0  2  0  0  0  0  0  0
  161.1410  205.1680  152.8600 C   0  0  0  0  0  2  0  0  0  0  0  0
  161.1940  202.8290  152.3730 O   0  0  0  0  0  1  0  0  0  0  0  0
  160.4560  203.9960  152.1730 C   0  0  0  0  0  2  0  0  0  0  0  0
  1 10  1  0  0  0  0
  1 18  1  0  0  0  0
  2  8  1  0  0  0  0
  3  5  1  0  0  0  0
  3 10  1  0  0  0  0
  5  7  2  0  0  0  0
  6  4  1  0  0  0  0
  7  2  1  0  0  0  0
  7  6  1  0  0  0  0
  8  4  1  0  0  0  0
  8 24  1  1  0  0  0
  9  6  1  0  0  0  0
 10  9  2  0  0  0  0
 13 17  1  0  0  0  0
 14 13  2  0  0  0  0
 14 16  1  0  0  0  0
 15 11  1  0  0  0  0
 15  5  1  0  0  0  0
 16 15  2  0  0  0  0
 17 12  1  0  0  0  0
 17 11  2  0  0  0  0
 19 23  1  0  0  0  0
 20 22  1  0  0  0  0
 21 19  1  0  0  0  0
 21 20  1  0  0  0  0
 22 18  1  6  0  0  0
 23 22  1  0  0  0  0
 26 25  1  0  0  0  0
 26 24  1  0  0  0  0
M  END
>  <MODEL>
7

>  <REMARK>
 VINA RESULT:      -7.5      2.488      3.375
  Name = 
  5 active torsions:
  status: ('A' for Active; 'I' for Inactive)
    1  A    between atoms: N_3  and  C_17
    2  A    between atoms: C_11  and  C_19
    3  A    between atoms: C_13  and  C_17
    4  A    between atoms: C_18  and  C_24
    5  A    between atoms: C_24  and  C_25
                            x       y       z     vdW  Elec       q    Type
                         _______ _______ _______ _____ _____    ______ ____

>  <TORSDO>
F 5

$$$$
=
 OpenBabel11052409493D

 26 29  0  0  1  0  0  0  0  0999 V2000
  161.6090  209.5930  151.3280 N   0  0  0  0  0  2  0  0  0  0  0  0
  161.4590  204.1640  149.8890 N   0  0  0  0  0  2  0  0  0  0  0  0
  161.1840  207.9420  149.4550 C   0  0  0  0  0  2  0  0  0  0  0  0
  161.5250  204.7760  152.2240 C   0  0  0  0  0  2  0  0  0  0  0  0
  161.3010  206.4780  149.0640 C   0  0  0  0  0  0  0  0  0  0  0  0
  161.3130  205.9420  151.3930 N   0  0  0  0  0  0  0  0  0  0  0  0
  161.3200  205.5620  150.0440 C   0  0  0  0  0  0  0  0  0  0  0  0
  161.5590  203.5890  151.2310 C   0  0  1  0  0  3  0  0  0  0  0  0
  161.4800  207.2730  151.7980 N   0  0  0  0  0  0  0  0  0  0  0  0
  161.4450  208.2330  150.9180 C   0  0  0  0  0  0  0  0  0  0  0  0
  162.4160  205.3630  147.1200 C   0  0  0  0  0  3  0  0  0  0  0  0
  163.7860  204.0850  145.1330 Cl  0  0  0  0  0  0  0  0  0  0  0  0
  161.4290  205.4450  144.9180 C   0  0  0  0  0  3  0  0  0  0  0  0
  160.3770  206.1970  145.4440 C   0  0  0  0  0  3  0  0  0  0  0  0
  161.3450  206.1180  147.6210 C   0  0  0  0  0  0  0  0  0  0  0  0
  160.3580  206.5120  146.7670 N   0  0  0  0  0  0  0  0  0  0  0  0
  162.4530  205.0280  145.7660 C   0  0  0  0  0  0  0  0  0  0  0  0
  161.8110  209.9880  152.7160 C   0  0  0  0  0  2  0  0  0  0  0  0
  160.3800  212.1040  154.7500 O   0  0  0  0  0  0  0  0  0  0  0  0
  159.6290  211.1570  152.7250 C   0  0  0  0  0  2  0  0  0  0  0  0
  159.3790  212.2110  153.7750 C   0  0  0  0  0  2  0  0  0  0  0  0
  160.4760  210.1390  153.4300 C   0  0  2  0  0  3  0  0  0  0  0  0
  160.7010  210.7400  154.7990 C   0  0  0  0  0  2  0  0  0  0  0  0
  160.3760  202.6630  151.4740 C   0  0  0  0  0  2  0  0  0  0  0  0
  161.2140  200.8960  150.1010 O   0  0  0  0  0  1  0  0  0  0  0  0
  160.1330  201.7610  150.2740 C   0  0  0  0  0  2  0  0  0  0  0  0
  1 18  1  0  0  0  0
  2  7  1  0  0  0  0
  2  8  1  0  0  0  0
  3 10  1  0  0  0  0
  5  3  1  0  0  0  0
  5  7  2  0  0  0  0
  6  9  1  0  0  0  0
  6  4  1  0  0  0  0
  7  6  1  0  0  0  0
  8 24  1  1  0  0  0
  8  4  1  0  0  0  0
 10  1  1  0  0  0  0
 10  9  2  0  0  0  0
 11 15  1  0  0  0  0
 12 17  1  0  0  0  0
 13 14  2  0  0  0  0
 13 17  1  0  0  0  0
 14 16  1  0  0  0  0
 15  5  1  0  0  0  0
 16 15  2  0  0  0  0
 17 11  2  0  0  0  0
 19 23  1  0  0  0  0
 20 22  1  0  0  0  0
 20 21  1  0  0  0  0
 21 19  1  0  0  0  0
 22 18  1  6  0  0  0
 22 23  1  0  0  0  0
 25 26  1  0  0  0  0
 26 24  1  0  0  0  0
M  END
>  <MODEL>
8

>  <REMARK>
 VINA RESULT:      -7.3      3.380      5.242
  Name = 
  5 active torsions:
  status: ('A' for Active; 'I' for Inactive)
    1  A    between atoms: N_3  and  C_17
    2  A    between atoms: C_11  and  C_19
    3  A    between atoms: C_13  and  C_17
    4  A    between atoms: C_18  and  C_24
    5  A    between atoms: C_24  and  C_25
                            x       y       z     vdW  Elec       q    Type
                         _______ _______ _______ _____ _____    ______ ____

>  <TORSDO>
F 5

$$$$
=
 OpenBabel11052409493D

 26 29  0  0  1  0  0  0  0  0999 V2000
  161.2750  207.7910  152.4040 N   0  0  0  0  0  2  0  0  0  0  0  0
  160.9580  205.0990  147.4830 N   0  0  0  0  0  2  0  0  0  0  0  0
  161.4790  205.5550  151.2320 C   0  0  0  0  0  2  0  0  0  0  0  0
  161.0630  207.5110  147.5170 C   0  0  0  0  0  2  0  0  0  0  0  0
  161.2360  204.8370  149.9150 C   0  0  0  0  0  0  0  0  0  0  0  0
  161.3120  206.9670  148.8350 N   0  0  0  0  0  0  0  0  0  0  0  0
  161.2050  205.5710  148.7920 C   0  0  0  0  0  0  0  0  0  0  0  0
  160.8910  206.2700  146.6080 C   0  0  1  0  0  3  0  0  0  0  0  0
  161.2630  207.6870  150.0360 N   0  0  0  0  0  0  0  0  0  0  0  0
  161.3180  207.0600  151.1760 C   0  0  0  0  0  0  0  0  0  0  0  0
  161.2030  202.6400  148.7160 C   0  0  0  0  0  3  0  0  0  0  0  0
  161.2060  200.3500  147.2290 Cl  0  0  0  0  0  0  0  0  0  0  0  0
  160.8090  200.5840  149.9190 C   0  0  0  0  0  3  0  0  0  0  0  0
  160.6980  201.3230  151.0980 C   0  0  0  0  0  3  0  0  0  0  0  0
  161.0880  203.3570  149.9170 C   0  0  0  0  0  0  0  0  0  0  0  0
  160.8390  202.6760  151.0720 N   0  0  0  0  0  0  0  0  0  0  0  0
  161.0630  201.2520  148.7220 C   0  0  0  0  0  0  0  0  0  0  0  0
  161.1770  209.2440  152.4630 C   0  0  0  0  0  2  0  0  0  0  0  0
  161.7920  209.3960  155.6670 O   0  0  0  0  0  0  0  0  0  0  0  0
  160.9630  211.0220  154.1730 C   0  0  0  0  0  2  0  0  0  0  0  0
  161.5120  210.7640  155.5550 C   0  0  0  0  0  2  0  0  0  0  0  0
  160.4560  209.6810  153.7300 C   0  0  2  0  0  3  0  0  0  0  0  0
  160.8320  208.7580  154.8680 C   0  0  0  0  0  2  0  0  0  0  0  0
  162.0150  206.2030  145.5860 C   0  0  0  0  0  2  0  0  0  0  0  0
  163.8060  204.7030  146.0870 O   0  0  0  0  0  1  0  0  0  0  0  0
  162.5610  204.7890  145.4650 C   0  0  0  0  0  2  0  0  0  0  0  0
  1 18  1  0  0  0  0
  2  7  1  0  0  0  0
  4  6  1  0  0  0  0
  5 15  1  0  0  0  0
  5  3  1  0  0  0  0
  6  9  1  0  0  0  0
  7  6  1  0  0  0  0
  7  5  2  0  0  0  0
  8 24  1  6  0  0  0
  8  2  1  0  0  0  0
  8  4  1  0  0  0  0
  9 10  2  0  0  0  0
 10  3  1  0  0  0  0
 10  1  1  0  0  0  0
 11 17  2  0  0  0  0
 11 15  1  0  0  0  0
 12 17  1  0  0  0  0
 13 14  2  0  0  0  0
 15 16  2  0  0  0  0
 16 14  1  0  0  0  0
 17 13  1  0  0  0  0
 20 21  1  0  0  0  0
 21 19  1  0  0  0  0
 22 18  1  6  0  0  0
 22 20  1  0  0  0  0
 22 23  1  0  0  0  0
 23 19  1  0  0  0  0
 26 24  1  0  0  0  0
 26 25  1  0  0  0  0
M  END
>  <MODEL>
9

>  <REMARK>
 VINA RESULT:      -7.1      3.170      5.969
  Name = 
  5 active torsions:
  status: ('A' for Active; 'I' for Inactive)
    1  A    between atoms: N_3  and  C_17
    2  A    between atoms: C_11  and  C_19
    3  A    between atoms: C_13  and  C_17
    4  A    between atoms: C_18  and  C_24
    5  A    between atoms: C_24  and  C_25
                            x       y       z     vdW  Elec       q    Type
                         _______ _______ _______ _____ _____    ______ ____

>  <TORSDO>
F 5

$$$$
