=
 OpenBabel11052411403D

 43 48  0  0  1  0  0  0  0  0999 V2000
  158.6010  211.2660  155.3590 C   0  0  0  0  0  3  0  0  0  0  0  0
  160.2990  211.3880  153.5660 C   0  0  1  0  0  3  0  0  0  0  0  0
  159.8690  213.1080  151.9320 F   0  0  0  0  0  0  0  0  0  0  0  0
  159.2490  212.1820  152.7470 C   0  0  2  0  0  3  0  0  0  0  0  0
  158.2700  212.8620  153.5920 N   0  0  0  0  0  0  0  0  0  0  0  0
  156.8990  213.0860  155.5060 N   0  0  0  0  0  2  0  0  0  0  0  0
  157.9130  212.4170  154.7590 C   0  0  0  0  0  0  0  0  0  0  0  0
  159.7050  210.7410  154.8130 C   0  0  0  0  0  0  0  0  0  0  0  0
  160.7920  206.0910  150.4240 C   0  0  0  0  0  2  0  0  0  0  0  0
  160.3520  209.1020  152.7580 C   0  0  0  0  0  2  0  0  0  0  0  0
  161.0630  210.8840  151.4130 N   0  0  0  0  0  2  0  0  0  0  0  0
  162.1600  206.4500  150.0260 N   0  0  2  0  0  0  0  0  0  0  0  0
  160.3990  206.8000  151.7300 C   0  0  0  0  0  2  0  0  0  0  0  0
  161.1290  208.1320  151.8830 C   0  0  1  0  0  3  0  0  0  0  0  0
  162.1910  207.8690  149.6170 C   0  0  0  0  0  2  0  0  0  0  0  0
  161.9700  210.0830  150.6890 N   0  0  0  0  0  2  0  0  0  0  0  0
  161.3430  208.7750  150.5200 C   0  0  2  0  0  3  0  0  0  0  0  0
  161.0260  210.4080  152.7430 N   0  0  1  0  0  0  0  0  0  0  0  0
  161.2240  205.7160  146.8260 S   0  0  0  0  0  0  0  0  0  0  0  0
  160.0180  206.6000  146.6690 O   0  0  0  0  0  0  0  0  0  0  0  0
  161.5670  204.9210  145.5970 O   0  0  0  0  0  0  0  0  0  0  0  0
  162.5260  205.6480  148.8560 C   0  0  2  0  0  3  0  0  0  0  0  0
  162.6030  206.5150  147.5870 C   0  0  0  0  0  2  0  0  0  0  0  0
  161.3140  204.8420  148.3660 C   0  0  2  0  0  3  0  0  0  0  0  0
  161.7180  203.3920  148.1570 C   0  0  0  0  0  2  0  0  0  0  0  0
  161.0310  201.0380  148.3890 C   0  0  0  0  0  2  0  0  0  0  0  0
  160.5510  202.4730  148.4590 C   0  0  0  0  0  3  0  0  0  0  0  0
  160.8450  201.7050  149.7320 C   0  0  0  0  0  2  0  0  0  0  0  0
  160.4000  209.6390  155.5310 C   0  0  0  0  0  0  0  0  0  0  0  0
  162.3270  208.7910  156.7560 C   0  0  0  0  0  3  0  0  0  0  0  0
  160.4230  207.3500  156.3660 C   0  0  0  0  0  3  0  0  0  0  0  0
  159.7780  208.3870  155.6880 C   0  0  0  0  0  3  0  0  0  0  0  0
  161.7000  207.5510  156.8970 C   0  0  0  0  0  3  0  0  0  0  0  0
  161.6790  209.8300  156.0820 C   0  0  0  0  0  3  0  0  0  0  0  0
  156.1800  214.1560  154.9530 N   0  0  0  0  0  2  0  0  0  0  0  0
  155.3010  213.6120  154.0060 N   0  0  0  0  0  2  0  0  0  0  0  0
  155.3740  214.4520  152.8230 C   0  0  0  0  0  2  0  0  0  0  0  0
  155.2320  213.5960  151.5770 C   0  0  0  0  0  2  0  0  0  0  0  0
  155.9390  214.2570  150.4050 C   0  0  2  0  0  3  0  0  0  0  0  0
  155.0960  214.2710  149.2930 O   0  0  0  0  0  1  0  0  0  0  0  0
  157.1020  213.5450  150.1010 O   0  0  0  0  0  0  0  0  0  0  0  0
  158.1580  214.1330  148.0550 C   0  0  0  0  0  1  0  0  0  0  0  0
  157.0480  213.3450  148.7200 C   0  0  0  0  0  2  0  0  0  0  0  0
  2  8  1  1  0  0  0
  4  3  1  1  0  0  0
  4  2  1  0  0  0  0
  4  5  1  0  0  0  0
  5  7  2  0  0  0  0
  7  1  1  0  0  0  0
  7  6  1  0  0  0  0
  8  1  2  0  0  0  0
  8 29  1  0  0  0  0
  9 13  1  0  0  0  0
 11 18  1  0  0  0  0
 12 15  1  6  0  0  0
 12  9  1  0  0  0  0
 14 13  1  6  0  0  0
 14 10  1  0  0  0  0
 16 11  1  0  0  0  0
 17 15  1  6  0  0  0
 17 16  1  0  0  0  0
 17 14  1  0  0  0  0
 18 10  1  6  0  0  0
 18  2  1  0  0  0  0
 19 23  1  0  0  0  0
 19 24  1  0  0  0  0
 20 19  2  0  0  0  0
 21 19  2  0  0  0  0
 22 23  1  6  0  0  0
 22 12  1  0  0  0  0
 24 25  1  6  0  0  0
 24 22  1  0  0  0  0
 25 27  1  0  0  0  0
 26 27  1  0  0  0  0
 26 28  1  0  0  0  0
 27 28  1  0  0  0  0
 29 32  2  0  0  0  0
 29 34  1  0  0  0  0
 30 33  1  0  0  0  0
 31 33  2  0  0  0  0
 32 31  1  0  0  0  0
 34 30  2  0  0  0  0
 35  6  1  0  0  0  0
 36 35  1  0  0  0  0
 37 36  1  0  0  0  0
 38 37  1  0  0  0  0
 39 40  1  6  0  0  0
 39 38  1  0  0  0  0
 41 39  1  0  0  0  0
 42 43  1  0  0  0  0
 43 41  1  0  0  0  0
M  END
>  <MODEL>
1

>  <REMARK>
 VINA RESULT:      -5.7      0.000      0.000
  Name = 
  12 active torsions:
  status: ('A' for Active; 'I' for Inactive)
    1  A    between atoms: C_3  and  C_29
    2  A    between atoms: C_5  and  N_43
    3  A    between atoms: N_10  and  C_23
    4  A    between atoms: N_17  and  N_26
    5  A    between atoms: C_22  and  C_24
    6  A    between atoms: C_22  and  C_39
    7  A    between atoms: C_24  and  O_38
    8  A    between atoms: N_26  and  N_34
    9  A    between atoms: C_28  and  C_36
   10  A    between atoms: C_31  and  O_38
   11  A    between atoms: N_34  and  C_39
   12  A    between atoms: C_35  and  C_36
                            x       y       z     vdW  Elec       q    Type
                         _______ _______ _______ _____ _____    ______ ____

>  <TORSDO>
F 12

$$$$
=
 OpenBabel11052411403D

 43 48  0  0  1  0  0  0  0  0999 V2000
  161.1530  207.2100  153.2960 C   0  0  0  0  0  3  0  0  0  0  0  0
  161.9870  209.1510  152.0120 C   0  0  1  0  0  3  0  0  0  0  0  0
  162.6730  211.0080  153.3880 F   0  0  0  0  0  0  0  0  0  0  0  0
  161.7440  209.9900  153.2930 C   0  0  2  0  0  3  0  0  0  0  0  0
  161.7840  209.1850  154.5120 N   0  0  0  0  0  0  0  0  0  0  0  0
  161.4380  207.2170  155.7750 N   0  0  0  0  0  2  0  0  0  0  0  0
  161.4490  207.9310  154.5400 C   0  0  0  0  0  0  0  0  0  0  0  0
  161.3670  207.7610  152.0940 C   0  0  0  0  0  0  0  0  0  0  0  0
  160.4890  214.2080  148.7930 C   0  0  0  0  0  2  0  0  0  0  0  0
  161.0670  211.2040  151.1070 C   0  0  0  0  0  2  0  0  0  0  0  0
  162.6890  209.9800  149.9410 N   0  0  0  0  0  2  0  0  0  0  0  0
  160.3280  213.3920  147.5810 N   0  0  2  0  0  0  0  0  0  0  0  0
  160.2790  213.3560  150.0550 C   0  0  0  0  0  2  0  0  0  0  0  0
  160.6640  211.8980  149.8160 C   0  0  1  0  0  3  0  0  0  0  0  0
  161.4480  212.4340  147.4850 C   0  0  0  0  0  2  0  0  0  0  0  0
  162.2340  210.4210  148.6810 N   0  0  0  0  0  2  0  0  0  0  0  0
  161.8270  211.8140  148.8370 C   0  0  2  0  0  3  0  0  0  0  0  0
  161.5680  209.8590  150.7910 N   0  0  1  0  0  0  0  0  0  0  0  0
  159.6170  213.5760  144.2470 S   0  0  0  0  0  0  0  0  0  0  0  0
  158.9890  212.2310  144.0110 O   0  0  0  0  0  0  0  0  0  0  0  0
  159.6640  214.4530  143.0260 O   0  0  0  0  0  0  0  0  0  0  0  0
  160.4060  214.2770  146.4160 C   0  0  2  0  0  3  0  0  0  0  0  0
  159.0450  214.3880  145.7070 C   0  0  0  0  0  2  0  0  0  0  0  0
  161.0820  213.5520  145.2430 C   0  0  2  0  0  3  0  0  0  0  0  0
  162.1670  214.4400  144.6550 C   0  0  0  0  0  2  0  0  0  0  0  0
  162.5800  212.6710  142.9910 C   0  0  0  0  0  2  0  0  0  0  0  0
  163.2380  213.5930  143.9960 C   0  0  0  0  0  3  0  0  0  0  0  0
  163.2850  213.9200  142.5170 C   0  0  0  0  0  2  0  0  0  0  0  0
  161.1340  206.9330  150.8800 C   0  0  0  0  0  0  0  0  0  0  0  0
  160.8260  206.7440  148.4710 C   0  0  0  0  0  3  0  0  0  0  0  0
  160.8020  204.7520  149.8450 C   0  0  0  0  0  3  0  0  0  0  0  0
  161.0170  205.5350  150.9820 C   0  0  0  0  0  3  0  0  0  0  0  0
  160.7040  205.3570  148.5900 C   0  0  0  0  0  3  0  0  0  0  0  0
  161.0440  207.5260  149.6090 C   0  0  0  0  0  3  0  0  0  0  0  0
  161.6650  207.8750  156.9940 N   0  0  0  0  0  2  0  0  0  0  0  0
  161.2010  209.1890  156.8400 N   0  0  0  0  0  2  0  0  0  0  0  0
  159.7500  209.1390  156.8990 C   0  0  0  0  0  2  0  0  0  0  0  0
  159.1950  210.5450  157.0460 C   0  0  0  0  0  2  0  0  0  0  0  0
  159.9020  211.4900  156.0880 C   0  0  2  0  0  3  0  0  0  0  0  0
  159.7240  212.8080  156.5080 O   0  0  0  0  0  1  0  0  0  0  0  0
  159.3730  211.3330  154.8040 O   0  0  0  0  0  0  0  0  0  0  0  0
  157.9040  212.5730  153.4080 C   0  0  0  0  0  1  0  0  0  0  0  0
  158.1930  212.0800  154.8100 C   0  0  0  0  0  2  0  0  0  0  0  0
  1  7  1  0  0  0  0
  2  8  1  1  0  0  0
  2  4  1  0  0  0  0
  4  3  1  1  0  0  0
  4  5  1  0  0  0  0
  5  7  2  0  0  0  0
  6 35  1  0  0  0  0
  7  6  1  0  0  0  0
  8  1  2  0  0  0  0
  9 13  1  0  0  0  0
 11 18  1  0  0  0  0
 12 15  1  6  0  0  0
 12  9  1  0  0  0  0
 14 13  1  1  0  0  0
 14 10  1  0  0  0  0
 16 17  1  0  0  0  0
 16 11  1  0  0  0  0
 17 15  1  6  0  0  0
 17 14  1  0  0  0  0
 18 10  1  1  0  0  0
 18  2  1  0  0  0  0
 19 24  1  0  0  0  0
 19 23  1  0  0  0  0
 20 19  2  0  0  0  0
 21 19  2  0  0  0  0
 22 23  1  6  0  0  0
 22 12  1  0  0  0  0
 24 25  1  6  0  0  0
 24 22  1  0  0  0  0
 26 27  1  0  0  0  0
 27 25  1  0  0  0  0
 28 26  1  0  0  0  0
 28 27  1  0  0  0  0
 29 32  1  0  0  0  0
 29  8  1  0  0  0  0
 30 33  2  0  0  0  0
 30 34  1  0  0  0  0
 31 32  2  0  0  0  0
 33 31  1  0  0  0  0
 34 29  2  0  0  0  0
 36 37  1  0  0  0  0
 36 35  1  0  0  0  0
 37 38  1  0  0  0  0
 39 40  1  1  0  0  0
 39 38  1  0  0  0  0
 41 43  1  0  0  0  0
 41 39  1  0  0  0  0
 42 43  1  0  0  0  0
M  END
>  <MODEL>
2

>  <REMARK>
 VINA RESULT:      -4.3      3.901      7.417
  Name = 
  12 active torsions:
  status: ('A' for Active; 'I' for Inactive)
    1  A    between atoms: C_3  and  C_29
    2  A    between atoms: C_5  and  N_43
    3  A    between atoms: N_10  and  C_23
    4  A    between atoms: N_17  and  N_26
    5  A    between atoms: C_22  and  C_24
    6  A    between atoms: C_22  and  C_39
    7  A    between atoms: C_24  and  O_38
    8  A    between atoms: N_26  and  N_34
    9  A    between atoms: C_28  and  C_36
   10  A    between atoms: C_31  and  O_38
   11  A    between atoms: N_34  and  C_39
   12  A    between atoms: C_35  and  C_36
                            x       y       z     vdW  Elec       q    Type
                         _______ _______ _______ _____ _____    ______ ____

>  <TORSDO>
F 12

$$$$
=
 OpenBabel11052411403D

 43 48  0  0  1  0  0  0  0  0999 V2000
  159.1730  211.1910  154.0490 C   0  0  0  0  0  3  0  0  0  0  0  0
  160.9450  211.0430  152.3320 C   0  0  1  0  0  3  0  0  0  0  0  0
  160.8850  212.8280  150.7130 F   0  0  0  0  0  0  0  0  0  0  0  0
  160.0810  212.0120  151.4840 C   0  0  2  0  0  3  0  0  0  0  0  0
  159.1940  212.8390  152.3000 N   0  0  0  0  0  0  0  0  0  0  0  0
  157.7980  213.2700  154.1580 N   0  0  0  0  0  2  0  0  0  0  0  0
  158.7170  212.4470  153.4420 C   0  0  0  0  0  0  0  0  0  0  0  0
  160.1960  210.4930  153.5410 C   0  0  0  0  0  0  0  0  0  0  0  0
  160.6810  205.7600  149.1380 C   0  0  0  0  0  2  0  0  0  0  0  0
  160.6520  208.7850  151.4950 C   0  0  0  0  0  2  0  0  0  0  0  0
  161.6970  210.4360  150.2010 N   0  0  0  0  0  2  0  0  0  0  0  0
  162.1040  205.8930  148.7940 N   0  0  2  0  0  0  0  0  0  0  0  0
  160.3610  206.5140  150.4380 C   0  0  0  0  0  2  0  0  0  0  0  0
  161.2930  207.7070  150.6360 C   0  0  1  0  0  3  0  0  0  0  0  0
  162.3830  207.2900  148.4060 C   0  0  0  0  0  2  0  0  0  0  0  0
  162.4870  209.5020  149.5000 N   0  0  0  0  0  2  0  0  0  0  0  0
  161.6610  208.3160  149.2900 C   0  0  2  0  0  3  0  0  0  0  0  0
  161.5320  209.9620  151.5220 N   0  0  1  0  0  0  0  0  0  0  0  0
  161.0440  205.2050  145.6240 S   0  0  0  0  0  0  0  0  0  0  0  0
  159.9130  206.1850  145.4790 O   0  0  0  0  0  0  0  0  0  0  0  0
  161.2930  204.3710  144.3970 O   0  0  0  0  0  0  0  0  0  0  0  0
  162.3770  205.0500  147.6280 C   0  0  2  0  0  3  0  0  0  0  0  0
  162.5000  205.8930  146.3470 C   0  0  0  0  0  2  0  0  0  0  0  0
  161.0910  204.3430  147.1720 C   0  0  2  0  0  3  0  0  0  0  0  0
  161.3690  202.8620  146.9740 C   0  0  0  0  0  2  0  0  0  0  0  0
  161.1460  200.6560  148.0480 C   0  0  0  0  0  2  0  0  0  0  0  0
  160.5360  202.0390  147.9350 C   0  0  0  0  0  3  0  0  0  0  0  0
  161.3850  201.6750  149.1370 C   0  0  0  0  0  2  0  0  0  0  0  0
  160.6630  209.2800  154.2670 C   0  0  0  0  0  0  0  0  0  0  0  0
  162.0480  208.2370  155.9770 C   0  0  0  0  0  3  0  0  0  0  0  0
  160.5730  206.8730  154.6290 C   0  0  0  0  0  3  0  0  0  0  0  0
  160.1420  208.0130  153.9470 C   0  0  0  0  0  3  0  0  0  0  0  0
  161.5280  206.9850  155.6420 C   0  0  0  0  0  3  0  0  0  0  0  0
  161.6140  209.3780  155.2970 C   0  0  0  0  0  3  0  0  0  0  0  0
  157.2950  214.4530  153.5950 N   0  0  0  0  0  2  0  0  0  0  0  0
  155.9340  214.2360  153.3370 N   0  0  0  0  0  2  0  0  0  0  0  0
  155.2230  214.4460  154.5870 C   0  0  0  0  0  2  0  0  0  0  0  0
  154.8420  213.1060  155.1900 C   0  0  0  0  0  2  0  0  0  0  0  0
  154.8630  213.1910  156.7080 C   0  0  2  0  0  3  0  0  0  0  0  0
  155.4520  214.3920  157.1060 O   0  0  0  0  0  1  0  0  0  0  0  0
  155.5950  212.1190  157.2230 O   0  0  0  0  0  0  0  0  0  0  0  0
  155.8300  210.3370  155.6680 C   0  0  0  0  0  1  0  0  0  0  0  0
  154.9580  210.9790  156.7270 C   0  0  0  0  0  2  0  0  0  0  0  0
  2  8  1  1  0  0  0
  4  3  1  1  0  0  0
  4  5  1  0  0  0  0
  4  2  1  0  0  0  0
  5  7  2  0  0  0  0
  7  1  1  0  0  0  0
  7  6  1  0  0  0  0
  8  1  2  0  0  0  0
  8 29  1  0  0  0  0
  9 13  1  0  0  0  0
 11 18  1  0  0  0  0
 12 15  1  6  0  0  0
 12  9  1  0  0  0  0
 14 13  1  6  0  0  0
 14 10  1  0  0  0  0
 16 11  1  0  0  0  0
 17 15  1  6  0  0  0
 17 16  1  0  0  0  0
 17 14  1  0  0  0  0
 18 10  1  6  0  0  0
 18  2  1  0  0  0  0
 19 23  1  0  0  0  0
 19 24  1  0  0  0  0
 20 19  2  0  0  0  0
 21 19  2  0  0  0  0
 22 23  1  6  0  0  0
 22 12  1  0  0  0  0
 24 25  1  6  0  0  0
 24 22  1  0  0  0  0
 25 27  1  0  0  0  0
 26 28  1  0  0  0  0
 27 26  1  0  0  0  0
 27 28  1  0  0  0  0
 29 34  1  0  0  0  0
 31 33  2  0  0  0  0
 32 29  2  0  0  0  0
 32 31  1  0  0  0  0
 33 30  1  0  0  0  0
 34 30  2  0  0  0  0
 35  6  1  0  0  0  0
 36 35  1  0  0  0  0
 36 37  1  0  0  0  0
 37 38  1  0  0  0  0
 38 39  1  0  0  0  0
 39 40  1  6  0  0  0
 39 41  1  0  0  0  0
 42 43  1  0  0  0  0
 43 41  1  0  0  0  0
M  END
>  <MODEL>
3

>  <REMARK>
 VINA RESULT:      -4.3      2.339      3.028
  Name = 
  12 active torsions:
  status: ('A' for Active; 'I' for Inactive)
    1  A    between atoms: C_3  and  C_29
    2  A    between atoms: C_5  and  N_43
    3  A    between atoms: N_10  and  C_23
    4  A    between atoms: N_17  and  N_26
    5  A    between atoms: C_22  and  C_24
    6  A    between atoms: C_22  and  C_39
    7  A    between atoms: C_24  and  O_38
    8  A    between atoms: N_26  and  N_34
    9  A    between atoms: C_28  and  C_36
   10  A    between atoms: C_31  and  O_38
   11  A    between atoms: N_34  and  C_39
   12  A    between atoms: C_35  and  C_36
                            x       y       z     vdW  Elec       q    Type
                         _______ _______ _______ _____ _____    ______ ____

>  <TORSDO>
F 12

$$$$
=
 OpenBabel11052411403D

 43 48  0  0  1  0  0  0  0  0999 V2000
  161.8850  208.6100  148.0050 C   0  0  0  0  0  3  0  0  0  0  0  0
  162.3840  208.9480  150.4020 C   0  0  1  0  0  3  0  0  0  0  0  0
  162.7900  206.9030  151.6110 F   0  0  0  0  0  0  0  0  0  0  0  0
  162.0320  207.4510  150.5960 C   0  0  2  0  0  3  0  0  0  0  0  0
  162.2160  206.6650  149.3780 N   0  0  0  0  0  0  0  0  0  0  0  0
  162.2040  206.3310  147.0370 N   0  0  0  0  0  2  0  0  0  0  0  0
  162.0830  207.1660  148.1870 C   0  0  0  0  0  0  0  0  0  0  0  0
  161.9920  209.4710  149.0250 C   0  0  0  0  0  0  0  0  0  0  0  0
  158.0410  212.5200  152.9630 C   0  0  0  0  0  2  0  0  0  0  0  0
  160.7180  210.6100  150.9900 C   0  0  0  0  0  2  0  0  0  0  0  0
  161.3750  208.9550  152.5120 N   0  0  0  0  0  2  0  0  0  0  0  0
  158.8650  212.6600  154.1720 N   0  0  2  0  0  0  0  0  0  0  0  0
  158.9170  212.2080  151.7390 C   0  0  0  0  0  2  0  0  0  0  0  0
  160.1820  211.4520  152.1360 C   0  0  1  0  0  3  0  0  0  0  0  0
  159.4260  211.3430  154.5340 C   0  0  0  0  0  2  0  0  0  0  0  0
  161.0960  209.7610  153.6350 N   0  0  0  0  0  2  0  0  0  0  0  0
  159.8990  210.5350  153.3180 C   0  0  2  0  0  3  0  0  0  0  0  0
  161.8400  209.7950  151.4770 N   0  0  1  0  0  0  0  0  0  0  0  0
  156.2500  211.6570  156.1230 S   0  0  0  0  0  0  0  0  0  0  0  0
  156.0030  210.2750  155.5870 O   0  0  0  0  0  0  0  0  0  0  0  0
  155.3440  212.0450  157.2590 O   0  0  0  0  0  0  0  0  0  0  0  0
  157.9980  213.0860  155.2730 C   0  0  2  0  0  3  0  0  0  0  0  0
  157.9550  212.0290  156.3910 C   0  0  0  0  0  2  0  0  0  0  0  0
  156.5220  212.9000  154.8890 C   0  0  2  0  0  3  0  0  0  0  0  0
  155.7520  214.1720  155.2030 C   0  0  0  0  0  2  0  0  0  0  0  0
  155.4370  214.4400  152.7740 C   0  0  0  0  0  2  0  0  0  0  0  0
  154.7320  214.4500  154.1160 C   0  0  0  0  0  3  0  0  0  0  0  0
  154.6340  213.2370  153.2120 C   0  0  0  0  0  2  0  0  0  0  0  0
  161.8730  210.9270  148.7430 C   0  0  0  0  0  0  0  0  0  0  0  0
  162.8890  213.1270  148.4900 C   0  0  0  0  0  3  0  0  0  0  0  0
  160.5060  212.8590  148.1670 C   0  0  0  0  0  3  0  0  0  0  0  0
  160.6220  211.4940  148.4370 C   0  0  0  0  0  3  0  0  0  0  0  0
  161.6390  213.6760  148.1970 C   0  0  0  0  0  3  0  0  0  0  0  0
  163.0050  211.7600  148.7570 C   0  0  0  0  0  3  0  0  0  0  0  0
  162.3430  204.9410  147.1630 N   0  0  0  0  0  2  0  0  0  0  0  0
  161.2540  204.3600  146.4960 N   0  0  0  0  0  2  0  0  0  0  0  0
  160.9090  203.1480  147.2190 C   0  0  0  0  0  2  0  0  0  0  0  0
  161.2110  203.3280  148.6950 C   0  0  0  0  0  2  0  0  0  0  0  0
  160.8510  202.0650  149.4610 C   0  0  2  0  0  3  0  0  0  0  0  0
  159.5240  201.7190  149.2050 O   0  0  0  0  0  1  0  0  0  0  0  0
  161.0210  202.2860  150.8300 O   0  0  0  0  0  0  0  0  0  0  0  0
  161.0620  204.1080  152.3560 C   0  0  0  0  0  1  0  0  0  0  0  0
  160.5170  203.5700  151.0500 C   0  0  0  0  0  2  0  0  0  0  0  0
  1  7  1  0  0  0  0
  1  8  2  0  0  0  0
  2  8  1  6  0  0  0
  2  4  1  0  0  0  0
  2 18  1  0  0  0  0
  4  3  1  1  0  0  0
  5  4  1  0  0  0  0
  6 35  1  0  0  0  0
  6  7  1  0  0  0  0
  7  5  2  0  0  0  0
 11 16  1  0  0  0  0
 12  9  1  6  0  0  0
 12 15  1  0  0  0  0
 12 22  1  0  0  0  0
 13 14  1  0  0  0  0
 13  9  1  0  0  0  0
 14 10  1  6  0  0  0
 14 17  1  0  0  0  0
 17 16  1  0  0  0  0
 17 15  1  1  0  0  0
 18 10  1  6  0  0  0
 18 11  1  0  0  0  0
 19 23  1  0  0  0  0
 19 21  2  0  0  0  0
 20 19  2  0  0  0  0
 22 23  1  1  0  0  0
 24 25  1  1  0  0  0
 24 22  1  0  0  0  0
 24 19  1  0  0  0  0
 26 28  1  0  0  0  0
 26 27  1  0  0  0  0
 27 25  1  0  0  0  0
 28 27  1  0  0  0  0
 29 34  1  0  0  0  0
 29  8  1  0  0  0  0
 30 34  2  0  0  0  0
 31 33  2  0  0  0  0
 31 32  1  0  0  0  0
 32 29  2  0  0  0  0
 33 30  1  0  0  0  0
 36 35  1  0  0  0  0
 36 37  1  0  0  0  0
 37 38  1  0  0  0  0
 38 39  1  0  0  0  0
 39 40  1  1  0  0  0
 39 41  1  0  0  0  0
 41 43  1  0  0  0  0
 43 42  1  0  0  0  0
M  END
>  <MODEL>
4

>  <REMARK>
 VINA RESULT:      -4.2      3.519     10.060
  Name = 
  12 active torsions:
  status: ('A' for Active; 'I' for Inactive)
    1  A    between atoms: C_3  and  C_29
    2  A    between atoms: C_5  and  N_43
    3  A    between atoms: N_10  and  C_23
    4  A    between atoms: N_17  and  N_26
    5  A    between atoms: C_22  and  C_24
    6  A    between atoms: C_22  and  C_39
    7  A    between atoms: C_24  and  O_38
    8  A    between atoms: N_26  and  N_34
    9  A    between atoms: C_28  and  C_36
   10  A    between atoms: C_31  and  O_38
   11  A    between atoms: N_34  and  C_39
   12  A    between atoms: C_35  and  C_36
                            x       y       z     vdW  Elec       q    Type
                         _______ _______ _______ _____ _____    ______ ____

>  <TORSDO>
F 12

$$$$
=
 OpenBabel11052411403D

 43 48  0  0  1  0  0  0  0  0999 V2000
  161.6830  204.2120  145.7410 C   0  0  0  0  0  3  0  0  0  0  0  0
  160.8470  205.5990  147.6090 C   0  0  1  0  0  3  0  0  0  0  0  0
  160.5600  207.9240  147.0440 F   0  0  0  0  0  0  0  0  0  0  0  0
  161.3630  206.8250  146.8130 C   0  0  2  0  0  3  0  0  0  0  0  0
  161.4360  206.5750  145.3740 N   0  0  0  0  0  0  0  0  0  0  0  0
  161.7850  205.2280  143.4630 N   0  0  0  0  0  2  0  0  0  0  0  0
  161.6510  205.3960  144.8730 C   0  0  0  0  0  0  0  0  0  0  0  0
  161.3390  204.2750  147.0330 C   0  0  0  0  0  0  0  0  0  0  0  0
  161.5850  208.7280  152.8860 C   0  0  0  0  0  2  0  0  0  0  0  0
  161.4670  207.0870  149.4210 C   0  0  0  0  0  2  0  0  0  0  0  0
  159.9890  205.3010  149.7650 N   0  0  0  0  0  2  0  0  0  0  0  0
  161.8210  207.4670  153.6040 N   0  0  2  0  0  0  0  0  0  0  0  0
  161.9380  208.5810  151.3970 C   0  0  0  0  0  2  0  0  0  0  0  0
  161.7420  207.1460  150.9150 C   0  0  1  0  0  3  0  0  0  0  0  0
  160.8340  206.4620  153.1600 C   0  0  0  0  0  2  0  0  0  0  0  0
  160.3500  205.1560  151.1200 N   0  0  0  0  0  2  0  0  0  0  0  0
  160.5750  206.4990  151.6480 C   0  0  2  0  0  3  0  0  0  0  0  0
  161.1380  205.7030  149.0490 N   0  0  1  0  0  0  0  0  0  0  0  0
  159.8680  209.1960  155.8060 S   0  0  0  0  0  0  0  0  0  0  0  0
  158.9390  209.9130  154.8660 O   0  0  0  0  0  0  0  0  0  0  0  0
  159.5920  209.4580  157.2600 O   0  0  0  0  0  0  0  0  0  0  0  0
  161.5970  207.7020  155.0320 C   0  0  2  0  0  3  0  0  0  0  0  0
  160.1190  207.4940  155.4070 C   0  0  0  0  0  2  0  0  0  0  0  0
  161.5740  209.2090  155.3250 C   0  0  2  0  0  3  0  0  0  0  0  0
  162.4810  209.5110  156.5070 C   0  0  0  0  0  2  0  0  0  0  0  0
  164.1810  211.1260  157.2610 C   0  0  0  0  0  2  0  0  0  0  0  0
  162.8790  210.9740  156.5030 C   0  0  0  0  0  3  0  0  0  0  0  0
  164.1850  211.1280  155.7500 C   0  0  0  0  0  2  0  0  0  0  0  0
  161.3030  203.0140  147.8240 C   0  0  0  0  0  0  0  0  0  0  0  0
  161.4830  201.8410  149.9500 C   0  0  0  0  0  3  0  0  0  0  0  0
  160.9950  200.6000  147.9310 C   0  0  0  0  0  3  0  0  0  0  0  0
  161.0340  201.7860  147.1930 C   0  0  0  0  0  3  0  0  0  0  0  0
  161.2230  200.6270  149.3090 C   0  0  0  0  0  3  0  0  0  0  0  0
  161.5180  203.0270  149.2120 C   0  0  0  0  0  3  0  0  0  0  0  0
  161.8120  206.3340  142.6010 N   0  0  0  0  0  2  0  0  0  0  0  0
  161.9520  205.8330  141.2990 N   0  0  0  0  0  2  0  0  0  0  0  0
  162.8540  206.7260  140.5930 C   0  0  0  0  0  2  0  0  0  0  0  0
  162.4980  206.7520  139.1170 C   0  0  0  0  0  2  0  0  0  0  0  0
  161.3180  207.6790  138.8790 C   0  0  2  0  0  3  0  0  0  0  0  0
  161.3100  208.1030  137.5500 O   0  0  0  0  0  1  0  0  0  0  0  0
  161.4200  208.7890  139.7220 O   0  0  0  0  0  0  0  0  0  0  0  0
  162.2780  211.0050  139.7250 C   0  0  0  0  0  1  0  0  0  0  0  0
  161.7980  209.8410  138.8840 C   0  0  0  0  0  2  0  0  0  0  0  0
  1  8  2  0  0  0  0
  2  8  1  6  0  0  0
  2 18  1  0  0  0  0
  4  3  1  6  0  0  0
  4  2  1  0  0  0  0
  5  4  1  0  0  0  0
  6  7  1  0  0  0  0
  7  5  2  0  0  0  0
  7  1  1  0  0  0  0
  8 29  1  0  0  0  0
 11 16  1  0  0  0  0
 12  9  1  6  0  0  0
 12 22  1  0  0  0  0
 13  9  1  0  0  0  0
 14 10  1  6  0  0  0
 14 13  1  0  0  0  0
 14 17  1  0  0  0  0
 15 12  1  0  0  0  0
 16 17  1  0  0  0  0
 17 15  1  1  0  0  0
 18 10  1  6  0  0  0
 18 11  1  0  0  0  0
 19 21  2  0  0  0  0
 20 19  2  0  0  0  0
 22 24  1  0  0  0  0
 22 23  1  6  0  0  0
 23 19  1  0  0  0  0
 24 19  1  0  0  0  0
 24 25  1  1  0  0  0
 27 25  1  0  0  0  0
 27 26  1  0  0  0  0
 28 27  1  0  0  0  0
 28 26  1  0  0  0  0
 29 34  1  0  0  0  0
 31 33  2  0  0  0  0
 32 29  2  0  0  0  0
 32 31  1  0  0  0  0
 33 30  1  0  0  0  0
 34 30  2  0  0  0  0
 35  6  1  0  0  0  0
 36 35  1  0  0  0  0
 37 36  1  0  0  0  0
 38 37  1  0  0  0  0
 39 40  1  6  0  0  0
 39 38  1  0  0  0  0
 39 41  1  0  0  0  0
 43 41  1  0  0  0  0
 43 42  1  0  0  0  0
M  END
>  <MODEL>
5

>  <REMARK>
 VINA RESULT:      -3.8      4.989     10.431
  Name = 
  12 active torsions:
  status: ('A' for Active; 'I' for Inactive)
    1  A    between atoms: C_3  and  C_29
    2  A    between atoms: C_5  and  N_43
    3  A    between atoms: N_10  and  C_23
    4  A    between atoms: N_17  and  N_26
    5  A    between atoms: C_22  and  C_24
    6  A    between atoms: C_22  and  C_39
    7  A    between atoms: C_24  and  O_38
    8  A    between atoms: N_26  and  N_34
    9  A    between atoms: C_28  and  C_36
   10  A    between atoms: C_31  and  O_38
   11  A    between atoms: N_34  and  C_39
   12  A    between atoms: C_35  and  C_36
                            x       y       z     vdW  Elec       q    Type
                         _______ _______ _______ _____ _____    ______ ____

>  <TORSDO>
F 12

$$$$
=
 OpenBabel11052411403D

 43 48  0  0  1  0  0  0  0  0999 V2000
  161.0310  204.9170  149.5990 C   0  0  0  0  0  3  0  0  0  0  0  0
  161.7900  205.5610  151.8620 C   0  0  1  0  0  3  0  0  0  0  0  0
  161.6690  203.7740  153.4750 F   0  0  0  0  0  0  0  0  0  0  0  0
  161.0290  204.3110  152.3760 C   0  0  2  0  0  3  0  0  0  0  0  0
  160.8810  203.2790  151.3520 N   0  0  0  0  0  0  0  0  0  0  0  0
  160.5910  202.5040  149.1380 N   0  0  0  0  0  2  0  0  0  0  0  0
  160.8100  203.5490  150.0840 C   0  0  0  0  0  0  0  0  0  0  0  0
  161.4640  205.8910  150.4100 C   0  0  0  0  0  0  0  0  0  0  0  0
  159.1750  210.9380  153.4200 C   0  0  0  0  0  2  0  0  0  0  0  0
  160.9140  207.8170  152.0270 C   0  0  0  0  0  2  0  0  0  0  0  0
  160.8130  206.3370  153.8410 N   0  0  0  0  0  2  0  0  0  0  0  0
  159.9540  210.9590  154.6670 N   0  0  2  0  0  0  0  0  0  0  0  0
  159.8850  210.0960  152.3480 C   0  0  0  0  0  2  0  0  0  0  0  0
  160.7300  208.9900  152.9750 C   0  0  1  0  0  3  0  0  0  0  0  0
  159.9310  209.6150  155.2780 C   0  0  0  0  0  2  0  0  0  0  0  0
  160.8510  207.3740  154.7950 N   0  0  0  0  0  2  0  0  0  0  0  0
  160.0730  208.4830  154.2510 C   0  0  2  0  0  3  0  0  0  0  0  0
  161.6030  206.7300  152.7380 N   0  0  1  0  0  0  0  0  0  0  0  0
  157.0130  211.5550  156.2940 S   0  0  0  0  0  0  0  0  0  0  0  0
  156.1830  210.3930  155.8250 O   0  0  0  0  0  0  0  0  0  0  0  0
  156.3050  212.4640  157.2610 O   0  0  0  0  0  0  0  0  0  0  0  0
  159.3020  211.8780  155.6020 C   0  0  2  0  0  3  0  0  0  0  0  0
  158.6550  211.1170  156.7730 C   0  0  0  0  0  2  0  0  0  0  0  0
  157.9600  212.3560  155.0270 C   0  0  2  0  0  3  0  0  0  0  0  0
  157.8700  213.8690  155.1400 C   0  0  0  0  0  2  0  0  0  0  0  0
  156.6490  213.3160  153.0730 C   0  0  0  0  0  2  0  0  0  0  0  0
  157.2220  214.4500  153.8990 C   0  0  0  0  0  3  0  0  0  0  0  0
  155.7350  214.1560  153.9350 C   0  0  0  0  0  2  0  0  0  0  0  0
  161.7560  207.2280  149.8240 C   0  0  0  0  0  0  0  0  0  0  0  0
  162.8340  209.4080  149.9540 C   0  0  0  0  0  3  0  0  0  0  0  0
  161.5210  208.8310  148.0060 C   0  0  0  0  0  3  0  0  0  0  0  0
  161.2450  207.5800  148.5620 C   0  0  0  0  0  3  0  0  0  0  0  0
  162.3130  209.7460  148.7030 C   0  0  0  0  0  3  0  0  0  0  0  0
  162.5610  208.1540  150.5090 C   0  0  0  0  0  3  0  0  0  0  0  0
  160.3250  201.1920  149.5560 N   0  0  0  0  0  2  0  0  0  0  0  0
  161.1150  200.3430  148.7670 N   0  0  0  0  0  2  0  0  0  0  0  0
  161.6980  201.1590  147.7160 C   0  0  0  0  0  2  0  0  0  0  0  0
  161.2000  200.6850  146.3630 C   0  0  0  0  0  2  0  0  0  0  0  0
  160.3880  201.7810  145.6910 C   0  0  2  0  0  3  0  0  0  0  0  0
  159.5990  201.2310  144.6800 O   0  0  0  0  0  1  0  0  0  0  0  0
  161.2540  202.7310  145.1430 O   0  0  0  0  0  0  0  0  0  0  0  0
  162.4890  204.5010  146.1370 C   0  0  0  0  0  1  0  0  0  0  0  0
  161.1330  203.8460  145.9760 C   0  0  0  0  0  2  0  0  0  0  0  0
  1  7  1  0  0  0  0
  1  8  2  0  0  0  0
  2  8  1  6  0  0  0
  2  4  1  0  0  0  0
  2 18  1  0  0  0  0
  4  3  1  1  0  0  0
  5  4  1  0  0  0  0
  6 35  1  0  0  0  0
  6  7  1  0  0  0  0
  7  5  2  0  0  0  0
 11 16  1  0  0  0  0
 12  9  1  6  0  0  0
 12 15  1  0  0  0  0
 12 22  1  0  0  0  0
 13 14  1  0  0  0  0
 13  9  1  0  0  0  0
 14 10  1  6  0  0  0
 14 17  1  0  0  0  0
 17 16  1  0  0  0  0
 17 15  1  1  0  0  0
 18 10  1  6  0  0  0
 18 11  1  0  0  0  0
 19 23  1  0  0  0  0
 19 21  2  0  0  0  0
 20 19  2  0  0  0  0
 22 23  1  1  0  0  0
 24 25  1  1  0  0  0
 24 22  1  0  0  0  0
 24 19  1  0  0  0  0
 26 27  1  0  0  0  0
 26 28  1  0  0  0  0
 27 28  1  0  0  0  0
 27 25  1  0  0  0  0
 29  8  1  0  0  0  0
 29 34  1  0  0  0  0
 30 34  2  0  0  0  0
 31 32  1  0  0  0  0
 31 33  2  0  0  0  0
 32 29  2  0  0  0  0
 33 30  1  0  0  0  0
 36 35  1  0  0  0  0
 37 36  1  0  0  0  0
 38 37  1  0  0  0  0
 39 40  1  6  0  0  0
 39 38  1  0  0  0  0
 41 39  1  0  0  0  0
 41 43  1  0  0  0  0
 43 42  1  0  0  0  0
M  END
>  <MODEL>
6

>  <REMARK>
 VINA RESULT:      -3.6      3.738     10.247
  Name = 
  12 active torsions:
  status: ('A' for Active; 'I' for Inactive)
    1  A    between atoms: C_3  and  C_29
    2  A    between atoms: C_5  and  N_43
    3  A    between atoms: N_10  and  C_23
    4  A    between atoms: N_17  and  N_26
    5  A    between atoms: C_22  and  C_24
    6  A    between atoms: C_22  and  C_39
    7  A    between atoms: C_24  and  O_38
    8  A    between atoms: N_26  and  N_34
    9  A    between atoms: C_28  and  C_36
   10  A    between atoms: C_31  and  O_38
   11  A    between atoms: N_34  and  C_39
   12  A    between atoms: C_35  and  C_36
                            x       y       z     vdW  Elec       q    Type
                         _______ _______ _______ _____ _____    ______ ____

>  <TORSDO>
F 12

$$$$
=
 OpenBabel11052411403D

 43 48  0  0  1  0  0  0  0  0999 V2000
  161.9950  204.1970  146.4210 C   0  0  0  0  0  3  0  0  0  0  0  0
  161.2190  205.8600  148.0770 C   0  0  1  0  0  3  0  0  0  0  0  0
  161.2960  208.1350  147.2840 F   0  0  0  0  0  0  0  0  0  0  0  0
  161.9560  206.9240  147.2230 C   0  0  2  0  0  3  0  0  0  0  0  0
  162.1020  206.5230  145.8250 N   0  0  0  0  0  0  0  0  0  0  0  0
  162.4060  204.9580  144.0800 N   0  0  0  0  0  2  0  0  0  0  0  0
  162.1910  205.2830  145.4520 C   0  0  0  0  0  0  0  0  0  0  0  0
  161.5670  204.4330  147.6670 C   0  0  0  0  0  0  0  0  0  0  0  0
  161.7680  209.3780  153.1270 C   0  0  0  0  0  2  0  0  0  0  0  0
  161.7970  207.4600  149.8060 C   0  0  0  0  0  2  0  0  0  0  0  0
  160.1930  205.7930  150.1780 N   0  0  0  0  0  2  0  0  0  0  0  0
  161.8740  208.1720  153.9590 N   0  0  2  0  0  0  0  0  0  0  0  0
  162.2160  209.0880  151.6860 C   0  0  0  0  0  2  0  0  0  0  0  0
  161.9680  207.6300  151.3070 C   0  0  1  0  0  3  0  0  0  0  0  0
  160.8630  207.1880  153.5240 C   0  0  0  0  0  2  0  0  0  0  0  0
  160.4470  205.7440  151.5640 N   0  0  0  0  0  2  0  0  0  0  0  0
  160.7140  207.1110  151.9980 C   0  0  2  0  0  3  0  0  0  0  0  0
  161.4120  206.0700  149.5220 N   0  0  1  0  0  0  0  0  0  0  0  0
  159.9790  210.2830  155.8570 S   0  0  0  0  0  0  0  0  0  0  0  0
  159.2300  211.0330  154.7930 O   0  0  0  0  0  0  0  0  0  0  0  0
  159.6180  210.6850  157.2610 O   0  0  0  0  0  0  0  0  0  0  0  0
  161.5640  208.5380  155.3430 C   0  0  2  0  0  3  0  0  0  0  0  0
  160.0450  208.5380  155.5930 C   0  0  0  0  0  2  0  0  0  0  0  0
  161.7070  210.0550  155.5350 C   0  0  2  0  0  3  0  0  0  0  0  0
  162.5440  210.3340  156.7730 C   0  0  0  0  0  2  0  0  0  0  0  0
  164.6640  211.4900  157.2610 C   0  0  0  0  0  2  0  0  0  0  0  0
  163.3020  211.6360  156.6120 C   0  0  0  0  0  3  0  0  0  0  0  0
  164.5310  211.3890  155.7590 C   0  0  0  0  0  2  0  0  0  0  0  0
  161.2990  203.2730  148.5600 C   0  0  0  0  0  0  0  0  0  0  0  0
  160.7310  200.9250  148.8710 C   0  0  0  0  0  3  0  0  0  0  0  0
  161.1360  202.3290  150.8000 C   0  0  0  0  0  3  0  0  0  0  0  0
  161.3810  203.4160  149.9570 C   0  0  0  0  0  3  0  0  0  0  0  0
  160.8080  201.0850  150.2570 C   0  0  0  0  0  3  0  0  0  0  0  0
  160.9800  202.0120  148.0290 C   0  0  0  0  0  3  0  0  0  0  0  0
  162.6490  205.9600  143.1280 N   0  0  0  0  0  2  0  0  0  0  0  0
  161.5330  205.9960  142.2800 N   0  0  0  0  0  2  0  0  0  0  0  0
  162.0330  206.1330  140.9220 C   0  0  0  0  0  2  0  0  0  0  0  0
  162.1760  207.6040  140.5750 C   0  0  0  0  0  2  0  0  0  0  0  0
  161.4710  207.9030  139.2630 C   0  0  2  0  0  3  0  0  0  0  0  0
  161.9250  207.0310  138.2730 O   0  0  0  0  0  1  0  0  0  0  0  0
  161.7360  209.2210  138.8820 O   0  0  0  0  0  0  0  0  0  0  0  0
  161.1060  211.2530  139.9420 C   0  0  0  0  0  1  0  0  0  0  0  0
  161.8270  209.9290  140.0830 C   0  0  0  0  0  2  0  0  0  0  0  0
  1  8  2  0  0  0  0
  2  8  1  6  0  0  0
  2 18  1  0  0  0  0
  4  3  1  6  0  0  0
  4  2  1  0  0  0  0
  5  4  1  0  0  0  0
  6  7  1  0  0  0  0
  7  5  2  0  0  0  0
  7  1  1  0  0  0  0
  8 29  1  0  0  0  0
 11 16  1  0  0  0  0
 12  9  1  6  0  0  0
 12 22  1  0  0  0  0
 13  9  1  0  0  0  0
 14 10  1  6  0  0  0
 14 13  1  0  0  0  0
 14 17  1  0  0  0  0
 15 12  1  0  0  0  0
 16 17  1  0  0  0  0
 17 15  1  1  0  0  0
 18 10  1  6  0  0  0
 18 11  1  0  0  0  0
 19 21  2  0  0  0  0
 20 19  2  0  0  0  0
 22 24  1  0  0  0  0
 22 23  1  6  0  0  0
 23 19  1  0  0  0  0
 24 19  1  0  0  0  0
 24 25  1  1  0  0  0
 27 25  1  0  0  0  0
 27 26  1  0  0  0  0
 28 27  1  0  0  0  0
 28 26  1  0  0  0  0
 29 32  1  0  0  0  0
 30 33  2  0  0  0  0
 32 31  2  0  0  0  0
 33 31  1  0  0  0  0
 34 29  2  0  0  0  0
 34 30  1  0  0  0  0
 35  6  1  0  0  0  0
 36 35  1  0  0  0  0
 37 36  1  0  0  0  0
 38 37  1  0  0  0  0
 39 40  1  6  0  0  0
 39 38  1  0  0  0  0
 41 39  1  0  0  0  0
 41 43  1  0  0  0  0
 42 43  1  0  0  0  0
M  END
>  <MODEL>
7

>  <REMARK>
 VINA RESULT:      -3.3      4.868     10.264
  Name = 
  12 active torsions:
  status: ('A' for Active; 'I' for Inactive)
    1  A    between atoms: C_3  and  C_29
    2  A    between atoms: C_5  and  N_43
    3  A    between atoms: N_10  and  C_23
    4  A    between atoms: N_17  and  N_26
    5  A    between atoms: C_22  and  C_24
    6  A    between atoms: C_22  and  C_39
    7  A    between atoms: C_24  and  O_38
    8  A    between atoms: N_26  and  N_34
    9  A    between atoms: C_28  and  C_36
   10  A    between atoms: C_31  and  O_38
   11  A    between atoms: N_34  and  C_39
   12  A    between atoms: C_35  and  C_36
                            x       y       z     vdW  Elec       q    Type
                         _______ _______ _______ _____ _____    ______ ____

>  <TORSDO>
F 12

$$$$
=
 OpenBabel11052411403D

 43 48  0  0  1  0  0  0  0  0999 V2000
  161.4770  204.2380  145.8630 C   0  0  0  0  0  3  0  0  0  0  0  0
  160.7500  205.9180  147.5240 C   0  0  1  0  0  3  0  0  0  0  0  0
  160.4450  208.1270  146.6080 F   0  0  0  0  0  0  0  0  0  0  0  0
  161.2280  206.9940  146.5160 C   0  0  2  0  0  3  0  0  0  0  0  0
  161.2230  206.5150  145.1340 N   0  0  0  0  0  0  0  0  0  0  0  0
  161.4630  204.8750  143.4490 N   0  0  0  0  0  2  0  0  0  0  0  0
  161.4060  205.2690  144.8190 C   0  0  0  0  0  0  0  0  0  0  0  0
  161.2030  204.5130  147.1440 C   0  0  0  0  0  0  0  0  0  0  0  0
  161.9580  209.8480  152.1360 C   0  0  0  0  0  2  0  0  0  0  0  0
  161.5580  207.6460  149.0220 C   0  0  0  0  0  2  0  0  0  0  0  0
  159.9800  206.0640  149.7280 N   0  0  0  0  0  2  0  0  0  0  0  0
  162.1420  208.7170  153.0560 N   0  0  2  0  0  0  0  0  0  0  0  0
  162.2260  209.4200  150.6840 C   0  0  0  0  0  2  0  0  0  0  0  0
  161.9090  207.9420  150.4700 C   0  0  1  0  0  3  0  0  0  0  0  0
  161.0680  207.7280  152.8330 C   0  0  0  0  0  2  0  0  0  0  0  0
  160.3970  206.1290  151.0740 N   0  0  0  0  0  2  0  0  0  0  0  0
  160.7380  207.5220  151.3480 C   0  0  2  0  0  3  0  0  0  0  0  0
  161.1180  206.2480  148.9110 N   0  0  1  0  0  0  0  0  0  0  0  0
  160.1790  208.5140  155.8410 S   0  0  0  0  0  0  0  0  0  0  0  0
  159.1380  207.5290  155.3890 O   0  0  0  0  0  0  0  0  0  0  0  0
  160.0040  208.9840  157.2590 O   0  0  0  0  0  0  0  0  0  0  0  0
  162.0050  209.2120  154.4280 C   0  0  2  0  0  3  0  0  0  0  0  0
  161.8320  208.0520  155.4250 C   0  0  0  0  0  2  0  0  0  0  0  0
  160.5900  209.7640  154.6540 C   0  0  2  0  0  3  0  0  0  0  0  0
  160.6780  211.1370  155.3010 C   0  0  0  0  0  2  0  0  0  0  0  0
  158.4810  211.4230  154.2260 C   0  0  0  0  0  2  0  0  0  0  0  0
  159.7810  212.1190  154.5750 C   0  0  0  0  0  3  0  0  0  0  0  0
  158.5390  212.3620  155.4090 C   0  0  0  0  0  2  0  0  0  0  0  0
  161.2030  203.3960  148.1270 C   0  0  0  0  0  0  0  0  0  0  0  0
  161.2250  201.0120  148.6260 C   0  0  0  0  0  3  0  0  0  0  0  0
  161.2080  202.6170  150.4360 C   0  0  0  0  0  3  0  0  0  0  0  0
  161.2030  203.6620  149.5090 C   0  0  0  0  0  3  0  0  0  0  0  0
  161.2150  201.2920  149.9940 C   0  0  0  0  0  3  0  0  0  0  0  0
  161.2230  202.0570  147.6990 C   0  0  0  0  0  3  0  0  0  0  0  0
  161.4490  205.8280  142.4200 N   0  0  0  0  0  2  0  0  0  0  0  0
  162.7510  205.8850  141.9000 N   0  0  0  0  0  2  0  0  0  0  0  0
  162.6320  206.2050  140.4880 C   0  0  0  0  0  2  0  0  0  0  0  0
  162.2400  207.6630  140.3240 C   0  0  0  0  0  2  0  0  0  0  0  0
  161.2200  207.8080  139.2060 C   0  0  2  0  0  3  0  0  0  0  0  0
  161.8450  207.6290  137.9710 O   0  0  0  0  0  1  0  0  0  0  0  0
  160.6480  209.0810  139.2600 O   0  0  0  0  0  0  0  0  0  0  0  0
  158.8130  210.2100  138.2590 C   0  0  0  0  0  1  0  0  0  0  0  0
  159.9240  209.1990  138.0720 C   0  0  0  0  0  2  0  0  0  0  0  0
  1  8  2  0  0  0  0
  2  8  1  6  0  0  0
  2 18  1  0  0  0  0
  4  3  1  6  0  0  0
  4  2  1  0  0  0  0
  5  4  1  0  0  0  0
  6  7  1  0  0  0  0
  7  5  2  0  0  0  0
  7  1  1  0  0  0  0
  8 29  1  0  0  0  0
 11 16  1  0  0  0  0
 12  9  1  6  0  0  0
 12 22  1  0  0  0  0
 13  9  1  0  0  0  0
 14 10  1  6  0  0  0
 14 13  1  0  0  0  0
 14 17  1  0  0  0  0
 15 12  1  0  0  0  0
 16 17  1  0  0  0  0
 17 15  1  1  0  0  0
 18 10  1  6  0  0  0
 18 11  1  0  0  0  0
 19 21  2  0  0  0  0
 20 19  2  0  0  0  0
 22 24  1  0  0  0  0
 22 23  1  1  0  0  0
 23 19  1  0  0  0  0
 24 25  1  1  0  0  0
 24 19  1  0  0  0  0
 26 27  1  0  0  0  0
 26 28  1  0  0  0  0
 27 25  1  0  0  0  0
 27 28  1  0  0  0  0
 29 32  1  0  0  0  0
 30 33  2  0  0  0  0
 32 31  2  0  0  0  0
 33 31  1  0  0  0  0
 34 29  2  0  0  0  0
 34 30  1  0  0  0  0
 35  6  1  0  0  0  0
 36 35  1  0  0  0  0
 37 36  1  0  0  0  0
 38 37  1  0  0  0  0
 39 40  1  6  0  0  0
 39 41  1  0  0  0  0
 39 38  1  0  0  0  0
 43 42  1  0  0  0  0
 43 41  1  0  0  0  0
M  END
>  <MODEL>
8

>  <REMARK>
 VINA RESULT:      -3.2      4.996     10.255
  Name = 
  12 active torsions:
  status: ('A' for Active; 'I' for Inactive)
    1  A    between atoms: C_3  and  C_29
    2  A    between atoms: C_5  and  N_43
    3  A    between atoms: N_10  and  C_23
    4  A    between atoms: N_17  and  N_26
    5  A    between atoms: C_22  and  C_24
    6  A    between atoms: C_22  and  C_39
    7  A    between atoms: C_24  and  O_38
    8  A    between atoms: N_26  and  N_34
    9  A    between atoms: C_28  and  C_36
   10  A    between atoms: C_31  and  O_38
   11  A    between atoms: N_34  and  C_39
   12  A    between atoms: C_35  and  C_36
                            x       y       z     vdW  Elec       q    Type
                         _______ _______ _______ _____ _____    ______ ____

>  <TORSDO>
F 12

$$$$
