=
 OpenBabel11052409333D

 44 46  0  0  1  0  0  0  0  0999 V2000
  159.9580  212.9550  147.5320 C   0  0  0  0  0  0  0  0  0  0  0  0
  160.7960  213.0650  146.4090 C   0  0  0  0  0  0  0  0  0  0  0  0
  161.9320  212.3340  148.9440 N   0  0  0  0  0  0  0  0  0  0  0  0
  158.9240  213.3810  145.0220 N   0  0  0  0  0  0  0  0  0  0  0  0
  156.6070  213.4260  145.8670 C   0  0  0  0  0  1  0  0  0  0  0  0
  162.2720  212.8700  146.5290 C   0  0  0  0  0  2  0  0  0  0  0  0
  162.7310  213.0980  147.9690 C   0  0  2  0  0  3  0  0  0  0  0  0
  164.2170  212.8110  148.1170 C   0  0  0  0  0  1  0  0  0  0  0  0
  160.5160  212.7380  148.9190 C   0  0  1  0  0  3  0  0  0  0  0  0
  158.5790  213.0730  147.3540 C   0  0  0  0  0  3  0  0  0  0  0  0
  158.0720  213.2920  146.0760 C   0  0  0  0  0  0  0  0  0  0  0  0
  160.2440  213.2650  145.1830 N   0  0  0  0  0  0  0  0  0  0  0  0
  160.2990  213.9610  149.8030 C   0  0  0  0  0  2  0  0  0  0  0  0
  160.1810  213.5380  151.2600 C   0  0  0  0  0  2  0  0  0  0  0  0
  158.7680  214.3110  153.2280 C   0  0  0  0  0  2  0  0  0  0  0  0
  158.3550  211.5930  152.4200 C   0  0  0  0  0  2  0  0  0  0  0  0
  158.8720  213.1910  154.2180 C   0  0  0  0  0  0  0  0  0  0  0  0
  159.4460  213.4210  155.3630 N   0  0  0  0  0  0  0  0  0  0  0  0
  158.1750  211.9010  153.9010 C   0  0  0  0  0  2  0  0  0  0  0  0
  157.8960  212.6650  151.6270 O   0  0  0  0  0  0  0  0  0  0  0  0
  158.7630  213.7760  151.7890 C   0  0  2  0  0  3  0  0  0  0  0  0
  159.6020  212.5020  156.4550 C   0  0  0  0  0  0  0  0  0  0  0  0
  158.6620  212.2620  157.2610 O   0  0  0  0  0  0  0  0  0  0  0  0
  160.9000  211.7860  156.6180 C   0  0  0  0  0  2  0  0  0  0  0  0
  162.1460  210.7400  154.8030 N   0  0  0  0  0  1  0  0  0  0  0  0
  160.9860  210.6010  155.6690 C   0  0  1  0  0  3  0  0  0  0  0  0
  161.1140  209.3250  156.4750 C   0  0  0  0  0  1  0  0  0  0  0  0
  162.0140  210.8920  148.7060 C   0  0  0  0  0  2  0  0  0  0  0  0
  161.4330  210.2130  149.7800 O   0  0  0  0  0  0  0  0  0  0  0  0
  161.9800  208.9270  149.7470 C   0  0  1  0  0  3  0  0  0  0  0  0
  161.4110  208.0840  150.8810 C   0  0  0  0  0  2  0  0  0  0  0  0
  162.4860  207.1670  151.4520 C   0  0  0  0  0  2  0  0  0  0  0  0
  161.9870  206.2930  152.6020 C   0  0  1  0  0  3  0  0  0  0  0  0
  161.0010  207.0280  153.4930 C   0  0  0  0  0  1  0  0  0  0  0  0
  161.4130  205.0320  152.1210 C   0  0  0  0  0  0  0  0  0  0  0  0
  160.9550  204.0370  151.7460 N   0  0  0  0  0  0  0  0  0  0  0  0
  161.6860  208.2770  148.4000 C   0  0  0  0  0  2  0  0  0  0  0  0
  161.0010  207.0030  148.5830 N   0  0  0  0  0  2  0  0  0  0  0  0
  161.7990  205.9730  147.9340 C   0  0  0  0  0  2  0  0  0  0  0  0
  161.1890  204.6290  148.1450 C   0  0  0  0  0  3  0  0  0  0  0  0
  161.5720  203.6110  147.4410 N   0  0  0  0  0  0  0  0  0  0  0  0
  160.7720  201.7850  148.9830 C   0  0  0  0  0  1  0  0  0  0  0  0
  160.9960  202.3130  147.6120 C   0  0  0  0  0  0  0  0  0  0  0  0
  160.6790  201.6070  146.6170 O   0  0  0  0  0  0  0  0  0  0  0  0
  1  9  1  0  0  0  0
  2  6  1  0  0  0  0
  2  1  2  0  0  0  0
  4 12  2  0  0  0  0
  4 11  1  0  0  0  0
  5 11  1  0  0  0  0
  6  7  1  0  0  0  0
  7  8  1  6  0  0  0
  7  3  1  0  0  0  0
  9  3  1  0  0  0  0
  9 13  1  1  0  0  0
 10  1  1  0  0  0  0
 11 10  2  0  0  0  0
 12  2  1  0  0  0  0
 13 14  1  0  0  0  0
 15 17  1  0  0  0  0
 16 19  1  0  0  0  0
 17 18  2  0  0  0  0
 18 22  1  0  0  0  0
 19 17  1  0  0  0  0
 20 21  1  0  0  0  0
 20 16  1  0  0  0  0
 21 14  1  1  0  0  0
 21 15  1  0  0  0  0
 22 24  1  0  0  0  0
 22 23  2  0  0  0  0
 25 26  1  0  0  0  0
 26 27  1  1  0  0  0
 26 24  1  0  0  0  0
 28  3  1  0  0  0  0
 28 29  1  0  0  0  0
 30 37  1  6  0  0  0
 30 29  1  0  0  0  0
 30 31  1  0  0  0  0
 31 32  1  0  0  0  0
 32 33  1  0  0  0  0
 33 34  1  6  0  0  0
 35 33  1  0  0  0  0
 36 35  3  0  0  0  0
 37 38  1  0  0  0  0
 39 40  1  0  0  0  0
 39 38  1  0  0  0  0
 41 43  1  0  0  0  0
 41 40  2  0  0  0  0
 43 42  1  0  0  0  0
 44 43  2  0  0  0  0
M  END
>  <MODEL>
1

>  <REMARK>
 VINA RESULT:      -5.7      0.000      0.000
  Name = 
  18 active torsions:
  status: ('A' for Active; 'I' for Inactive)
    1  A    between atoms: C_1  and  C_4
    2  A    between atoms: C_2  and  C_44
    3  A    between atoms: C_4  and  C_18
    4  A    between atoms: C_8  and  C_27
    5  A    between atoms: C_8  and  N_28
    6  A    between atoms: N_9  and  C_42
    7  A    between atoms: C_11  and  C_29
    8  A    between atoms: C_11  and  C_43
    9  A    between atoms: C_12  and  C_18
   10  A    between atoms: C_12  and  C_19
   11  A    between atoms: C_17  and  N_22
   12  A    between atoms: C_19  and  C_25
   13  A    between atoms: C_19  and  O_36
   14  A    between atoms: C_24  and  C_29
   15  A    between atoms: C_25  and  N_30
   16  A    between atoms: C_27  and  C_32
   17  A    between atoms: N_30  and  C_44
   18  A    between atoms: O_36  and  C_42
                            x       y       z     vdW  Elec       q    Type
                         _______ _______ _______ _____ _____    ______ ____

>  <TORSDO>
F 18

$$$$
=
 OpenBabel11052409333D

 44 46  0  0  1  0  0  0  0  0999 V2000
  159.7740  213.1930  147.6020 C   0  0  0  0  0  0  0  0  0  0  0  0
  160.5210  213.0550  146.4200 C   0  0  0  0  0  0  0  0  0  0  0  0
  161.7820  212.5380  148.9490 N   0  0  0  0  0  0  0  0  0  0  0  0
  158.5830  213.4010  145.1350 N   0  0  0  0  0  0  0  0  0  0  0  0
  156.3630  213.8280  146.1220 C   0  0  0  0  0  1  0  0  0  0  0  0
  161.9730  212.7060  146.4640 C   0  0  0  0  0  2  0  0  0  0  0  0
  162.5730  213.0680  147.8230 C   0  0  2  0  0  3  0  0  0  0  0  0
  164.0270  212.6310  147.9070 C   0  0  0  0  0  1  0  0  0  0  0  0
  160.4210  213.0990  148.9640 C   0  0  1  0  0  3  0  0  0  0  0  0
  158.4060  213.4480  147.5050 C   0  0  0  0  0  3  0  0  0  0  0  0
  157.8180  213.5530  146.2470 C   0  0  0  0  0  0  0  0  0  0  0  0
  159.8920  213.1540  145.2190 N   0  0  0  0  0  0  0  0  0  0  0  0
  160.4110  214.4450  149.6790 C   0  0  0  0  0  2  0  0  0  0  0  0
  160.1060  214.2490  151.1570 C   0  0  0  0  0  2  0  0  0  0  0  0
  157.8880  213.6760  152.2620 C   0  0  0  0  0  2  0  0  0  0  0  0
  160.1050  212.0460  153.0570 C   0  0  0  0  0  2  0  0  0  0  0  0
  158.2320  213.5010  153.7090 C   0  0  0  0  0  0  0  0  0  0  0  0
  157.7210  214.3250  154.5780 N   0  0  0  0  0  0  0  0  0  0  0  0
  159.0270  212.2920  154.1040 C   0  0  0  0  0  2  0  0  0  0  0  0
  159.5360  211.9220  151.7720 O   0  0  0  0  0  0  0  0  0  0  0  0
  159.0270  213.1810  151.3600 C   0  0  2  0  0  3  0  0  0  0  0  0
  157.8890  214.2970  156.0030 C   0  0  0  0  0  0  0  0  0  0  0  0
  159.0270  214.1900  156.5360 O   0  0  0  0  0  0  0  0  0  0  0  0
  156.6880  214.4340  156.8760 C   0  0  0  0  0  2  0  0  0  0  0  0
  155.7160  212.2160  156.5970 N   0  0  0  0  0  1  0  0  0  0  0  0
  155.5230  213.6300  156.3200 C   0  0  1  0  0  3  0  0  0  0  0  0
  154.2380  214.0960  156.9740 C   0  0  0  0  0  1  0  0  0  0  0  0
  161.6900  211.0780  148.9120 C   0  0  0  0  0  2  0  0  0  0  0  0
  162.0740  210.5600  150.1510 O   0  0  0  0  0  0  0  0  0  0  0  0
  162.1080  209.1730  149.9800 C   0  0  1  0  0  3  0  0  0  0  0  0
  161.1460  208.5000  150.9510 C   0  0  0  0  0  2  0  0  0  0  0  0
  161.8840  207.4730  151.8020 C   0  0  0  0  0  2  0  0  0  0  0  0
  161.0130  206.8530  152.8940 C   0  0  1  0  0  3  0  0  0  0  0  0
  161.3460  205.3900  153.1300 C   0  0  0  0  0  1  0  0  0  0  0  0
  161.0860  207.6110  154.1470 C   0  0  0  0  0  0  0  0  0  0  0  0
  161.1500  208.2100  155.1370 N   0  0  0  0  0  0  0  0  0  0  0  0
  161.7450  208.8230  148.5420 C   0  0  0  0  0  2  0  0  0  0  0  0
  161.2140  207.4670  148.4620 N   0  0  0  0  0  2  0  0  0  0  0  0
  162.1640  206.6630  147.7070 C   0  0  0  0  0  2  0  0  0  0  0  0
  161.7170  205.2410  147.6530 C   0  0  0  0  0  3  0  0  0  0  0  0
  161.4610  204.5870  148.7410 N   0  0  0  0  0  0  0  0  0  0  0  0
  160.5850  202.5750  149.9800 C   0  0  0  0  0  1  0  0  0  0  0  0
  161.0440  203.2190  148.7220 C   0  0  0  0  0  0  0  0  0  0  0  0
  161.0630  202.5490  147.6540 O   0  0  0  0  0  0  0  0  0  0  0  0
  1  9  1  0  0  0  0
  2  6  1  0  0  0  0
  2  1  2  0  0  0  0
  3  9  1  0  0  0  0
  4 12  2  0  0  0  0
  4 11  1  0  0  0  0
  5 11  1  0  0  0  0
  6  7  1  0  0  0  0
  7  8  1  6  0  0  0
  7  3  1  0  0  0  0
  9 13  1  6  0  0  0
 10  1  1  0  0  0  0
 11 10  2  0  0  0  0
 12  2  1  0  0  0  0
 13 14  1  0  0  0  0
 15 17  1  0  0  0  0
 16 19  1  0  0  0  0
 17 19  1  0  0  0  0
 17 18  2  0  0  0  0
 18 22  1  0  0  0  0
 20 16  1  0  0  0  0
 21 14  1  1  0  0  0
 21 20  1  0  0  0  0
 21 15  1  0  0  0  0
 22 23  2  0  0  0  0
 22 24  1  0  0  0  0
 26 25  1  0  0  0  0
 26 24  1  0  0  0  0
 26 27  1  1  0  0  0
 28  3  1  0  0  0  0
 28 29  1  0  0  0  0
 30 37  1  6  0  0  0
 30 29  1  0  0  0  0
 30 31  1  0  0  0  0
 31 32  1  0  0  0  0
 32 33  1  0  0  0  0
 33 34  1  1  0  0  0
 33 35  1  0  0  0  0
 35 36  3  0  0  0  0
 38 37  1  0  0  0  0
 39 38  1  0  0  0  0
 40 39  1  0  0  0  0
 40 41  2  0  0  0  0
 43 41  1  0  0  0  0
 43 42  1  0  0  0  0
 44 43  2  0  0  0  0
M  END
>  <MODEL>
2

>  <REMARK>
 VINA RESULT:      -5.7      1.675      2.462
  Name = 
  18 active torsions:
  status: ('A' for Active; 'I' for Inactive)
    1  A    between atoms: C_1  and  C_4
    2  A    between atoms: C_2  and  C_44
    3  A    between atoms: C_4  and  C_18
    4  A    between atoms: C_8  and  C_27
    5  A    between atoms: C_8  and  N_28
    6  A    between atoms: N_9  and  C_42
    7  A    between atoms: C_11  and  C_29
    8  A    between atoms: C_11  and  C_43
    9  A    between atoms: C_12  and  C_18
   10  A    between atoms: C_12  and  C_19
   11  A    between atoms: C_17  and  N_22
   12  A    between atoms: C_19  and  C_25
   13  A    between atoms: C_19  and  O_36
   14  A    between atoms: C_24  and  C_29
   15  A    between atoms: C_25  and  N_30
   16  A    between atoms: C_27  and  C_32
   17  A    between atoms: N_30  and  C_44
   18  A    between atoms: O_36  and  C_42
                            x       y       z     vdW  Elec       q    Type
                         _______ _______ _______ _____ _____    ______ ____

>  <TORSDO>
F 18

$$$$
=
 OpenBabel11052409333D

 44 46  0  0  1  0  0  0  0  0999 V2000
  159.8820  213.1170  147.5840 C   0  0  0  0  0  0  0  0  0  0  0  0
  160.6750  213.2940  146.4390 C   0  0  0  0  0  0  0  0  0  0  0  0
  161.8340  212.0990  148.7800 N   0  0  0  0  0  0  0  0  0  0  0  0
  158.7920  213.9980  145.2210 N   0  0  0  0  0  0  0  0  0  0  0  0
  156.5340  214.1690  146.2010 C   0  0  0  0  0  1  0  0  0  0  0  0
  162.1250  212.9290  146.4420 C   0  0  0  0  0  2  0  0  0  0  0  0
  162.6700  212.9030  147.8700 C   0  0  2  0  0  3  0  0  0  0  0  0
  164.1190  212.4420  147.8890 C   0  0  0  0  0  1  0  0  0  0  0  0
  160.4730  212.6500  148.8940 C   0  0  1  0  0  3  0  0  0  0  0  0
  158.5190  213.4050  147.5070 C   0  0  0  0  0  3  0  0  0  0  0  0
  157.9820  213.8520  146.3030 C   0  0  0  0  0  0  0  0  0  0  0  0
  160.0960  213.7210  145.2860 N   0  0  0  0  0  0  0  0  0  0  0  0
  160.4360  213.7530  149.9460 C   0  0  0  0  0  2  0  0  0  0  0  0
  160.2060  213.1520  151.3240 C   0  0  0  0  0  2  0  0  0  0  0  0
  159.0890  214.1250  153.3920 C   0  0  0  0  0  2  0  0  0  0  0  0
  158.0570  211.5980  152.5200 C   0  0  0  0  0  2  0  0  0  0  0  0
  158.9930  212.9670  154.3380 C   0  0  0  0  0  0  0  0  0  0  0  0
  159.6560  213.0160  155.4560 N   0  0  0  0  0  0  0  0  0  0  0  0
  158.0180  211.8730  154.0180 C   0  0  0  0  0  2  0  0  0  0  0  0
  157.8050  212.7780  151.7880 O   0  0  0  0  0  0  0  0  0  0  0  0
  158.9010  213.6680  151.9390 C   0  0  2  0  0  3  0  0  0  0  0  0
  159.6600  212.0380  156.5070 C   0  0  0  0  0  0  0  0  0  0  0  0
  158.6620  211.8680  157.2590 O   0  0  0  0  0  0  0  0  0  0  0  0
  160.8640  211.1780  156.6900 C   0  0  0  0  0  2  0  0  0  0  0  0
  162.9890  210.7370  155.5810 N   0  0  0  0  0  1  0  0  0  0  0  0
  161.5670  210.9440  155.3620 C   0  0  1  0  0  3  0  0  0  0  0  0
  160.9800  209.7170  154.6960 C   0  0  0  0  0  1  0  0  0  0  0  0
  161.7410  210.7040  148.3460 C   0  0  0  0  0  2  0  0  0  0  0  0
  162.3180  209.8800  149.3160 O   0  0  0  0  0  0  0  0  0  0  0  0
  161.6450  208.6590  149.2130 C   0  0  1  0  0  3  0  0  0  0  0  0
  162.4480  207.6880  148.3550 C   0  0  0  0  0  2  0  0  0  0  0  0
  161.5280  206.9490  147.3890 C   0  0  0  0  0  2  0  0  0  0  0  0
  162.2280  205.8210  146.6310 C   0  0  1  0  0  3  0  0  0  0  0  0
  162.1490  204.4980  147.3720 C   0  0  0  0  0  1  0  0  0  0  0  0
  161.7160  205.6820  145.2640 C   0  0  0  0  0  0  0  0  0  0  0  0
  161.3090  205.5660  144.1860 N   0  0  0  0  0  0  0  0  0  0  0  0
  161.4160  208.0770  150.6030 C   0  0  0  0  0  2  0  0  0  0  0  0
  162.5230  207.2080  150.9850 N   0  0  0  0  0  2  0  0  0  0  0  0
  162.1980  206.6200  152.2770 C   0  0  0  0  0  2  0  0  0  0  0  0
  161.3960  205.3750  152.0970 C   0  0  0  0  0  3  0  0  0  0  0  0
  161.8770  204.3670  151.4410 N   0  0  0  0  0  0  0  0  0  0  0  0
  160.5990  202.8490  149.8890 C   0  0  0  0  0  1  0  0  0  0  0  0
  161.1270  203.1670  151.2410 C   0  0  0  0  0  0  0  0  0  0  0  0
  160.9030  202.3740  152.1960 O   0  0  0  0  0  0  0  0  0  0  0  0
  1  9  1  0  0  0  0
  2  6  1  0  0  0  0
  2  1  2  0  0  0  0
  3  9  1  0  0  0  0
  4 12  2  0  0  0  0
  4 11  1  0  0  0  0
  5 11  1  0  0  0  0
  6  7  1  0  0  0  0
  7  8  1  6  0  0  0
  7  3  1  0  0  0  0
  9 13  1  1  0  0  0
 10  1  1  0  0  0  0
 11 10  2  0  0  0  0
 12  2  1  0  0  0  0
 13 14  1  0  0  0  0
 15 17  1  0  0  0  0
 16 19  1  0  0  0  0
 17 18  2  0  0  0  0
 18 22  1  0  0  0  0
 19 17  1  0  0  0  0
 20 21  1  0  0  0  0
 20 16  1  0  0  0  0
 21 14  1  1  0  0  0
 21 15  1  0  0  0  0
 22 24  1  0  0  0  0
 22 23  2  0  0  0  0
 26 27  1  1  0  0  0
 26 25  1  0  0  0  0
 26 24  1  0  0  0  0
 28  3  1  0  0  0  0
 28 29  1  0  0  0  0
 30 31  1  6  0  0  0
 30 29  1  0  0  0  0
 30 37  1  0  0  0  0
 32 31  1  0  0  0  0
 33 34  1  1  0  0  0
 33 32  1  0  0  0  0
 35 33  1  0  0  0  0
 36 35  3  0  0  0  0
 37 38  1  0  0  0  0
 38 39  1  0  0  0  0
 40 39  1  0  0  0  0
 41 40  2  0  0  0  0
 42 43  1  0  0  0  0
 43 41  1  0  0  0  0
 43 44  2  0  0  0  0
M  END
>  <MODEL>
3

>  <REMARK>
 VINA RESULT:      -5.7      1.386      2.769
  Name = 
  18 active torsions:
  status: ('A' for Active; 'I' for Inactive)
    1  A    between atoms: C_1  and  C_4
    2  A    between atoms: C_2  and  C_44
    3  A    between atoms: C_4  and  C_18
    4  A    between atoms: C_8  and  C_27
    5  A    between atoms: C_8  and  N_28
    6  A    between atoms: N_9  and  C_42
    7  A    between atoms: C_11  and  C_29
    8  A    between atoms: C_11  and  C_43
    9  A    between atoms: C_12  and  C_18
   10  A    between atoms: C_12  and  C_19
   11  A    between atoms: C_17  and  N_22
   12  A    between atoms: C_19  and  C_25
   13  A    between atoms: C_19  and  O_36
   14  A    between atoms: C_24  and  C_29
   15  A    between atoms: C_25  and  N_30
   16  A    between atoms: C_27  and  C_32
   17  A    between atoms: N_30  and  C_44
   18  A    between atoms: O_36  and  C_42
                            x       y       z     vdW  Elec       q    Type
                         _______ _______ _______ _____ _____    ______ ____

>  <TORSDO>
F 18

$$$$
=
 OpenBabel11052409333D

 44 46  0  0  1  0  0  0  0  0999 V2000
  159.6520  213.2750  147.4960 C   0  0  0  0  0  0  0  0  0  0  0  0
  160.4550  213.2750  146.3430 C   0  0  0  0  0  0  0  0  0  0  0  0
  161.6110  212.5130  148.8600 N   0  0  0  0  0  0  0  0  0  0  0  0
  158.5710  213.7250  145.0110 N   0  0  0  0  0  0  0  0  0  0  0  0
  156.2990  214.0070  145.9310 C   0  0  0  0  0  1  0  0  0  0  0  0
  161.9110  212.9480  146.4190 C   0  0  0  0  0  2  0  0  0  0  0  0
  162.4400  213.1730  147.8350 C   0  0  2  0  0  3  0  0  0  0  0  0
  163.8980  212.7540  147.9420 C   0  0  0  0  0  1  0  0  0  0  0  0
  160.2380  213.0460  148.8700 C   0  0  1  0  0  3  0  0  0  0  0  0
  158.2840  213.5150  147.3610 C   0  0  0  0  0  3  0  0  0  0  0  0
  157.7530  213.7440  146.0950 C   0  0  0  0  0  0  0  0  0  0  0  0
  159.8790  213.4920  145.1310 N   0  0  0  0  0  0  0  0  0  0  0  0
  160.1660  214.3080  149.7220 C   0  0  0  0  0  2  0  0  0  0  0  0
  160.1660  213.9410  151.1990 C   0  0  0  0  0  2  0  0  0  0  0  0
  158.0490  213.3040  152.4550 C   0  0  0  0  0  2  0  0  0  0  0  0
  160.3780  211.7820  153.1380 C   0  0  0  0  0  2  0  0  0  0  0  0
  158.4910  213.1750  153.8810 C   0  0  0  0  0  0  0  0  0  0  0  0
  158.0030  213.9960  154.7640 N   0  0  0  0  0  0  0  0  0  0  0  0
  159.3590  212.0070  154.2470 C   0  0  0  0  0  2  0  0  0  0  0  0
  159.7330  211.6070  151.8950 O   0  0  0  0  0  0  0  0  0  0  0  0
  159.1470  212.8350  151.4920 C   0  0  2  0  0  3  0  0  0  0  0  0
  158.2620  214.0070  156.1760 C   0  0  0  0  0  0  0  0  0  0  0  0
  159.3420  214.4530  156.6490 O   0  0  0  0  0  0  0  0  0  0  0  0
  157.2100  213.5100  157.1080 C   0  0  0  0  0  2  0  0  0  0  0  0
  155.7910  211.7430  156.2080 N   0  0  0  0  0  1  0  0  0  0  0  0
  155.9310  213.1830  156.3530 C   0  0  1  0  0  3  0  0  0  0  0  0
  154.7440  213.7250  157.1240 C   0  0  0  0  0  1  0  0  0  0  0  0
  161.5520  211.0640  148.6640 C   0  0  0  0  0  2  0  0  0  0  0  0
  162.1290  210.4260  149.7650 O   0  0  0  0  0  0  0  0  0  0  0  0
  161.5800  209.1410  149.7800 C   0  0  1  0  0  3  0  0  0  0  0  0
  161.9140  208.4120  148.4850 C   0  0  0  0  0  2  0  0  0  0  0  0
  162.5190  207.0450  148.7860 C   0  0  0  0  0  2  0  0  0  0  0  0
  161.6610  205.8810  148.2900 C   0  0  1  0  0  3  0  0  0  0  0  0
  160.6390  205.4430  149.3250 C   0  0  0  0  0  1  0  0  0  0  0  0
  161.0080  206.1890  147.0140 C   0  0  0  0  0  0  0  0  0  0  0  0
  160.4880  206.4360  146.0080 N   0  0  0  0  0  0  0  0  0  0  0  0
  162.1120  208.3660  150.9800 C   0  0  0  0  0  2  0  0  0  0  0  0
  161.0180  207.9520  151.8500 N   0  0  0  0  0  2  0  0  0  0  0  0
  161.5860  207.1520  152.9250 C   0  0  0  0  0  2  0  0  0  0  0  0
  160.7440  207.2530  154.1520 C   0  0  0  0  0  3  0  0  0  0  0  0
  161.2020  207.8190  155.2240 N   0  0  0  0  0  0  0  0  0  0  0  0
  160.3010  209.2320  157.1050 C   0  0  0  0  0  1  0  0  0  0  0  0
  160.4240  207.9200  156.4190 C   0  0  0  0  0  0  0  0  0  0  0  0
  159.8430  206.9110  156.9020 O   0  0  0  0  0  0  0  0  0  0  0  0
  1  9  1  0  0  0  0
  2  6  1  0  0  0  0
  2  1  2  0  0  0  0
  3  9  1  0  0  0  0
  4 12  2  0  0  0  0
  4 11  1  0  0  0  0
  5 11  1  0  0  0  0
  6  7  1  0  0  0  0
  7  8  1  6  0  0  0
  7  3  1  0  0  0  0
  9 13  1  1  0  0  0
 10  1  1  0  0  0  0
 11 10  2  0  0  0  0
 12  2  1  0  0  0  0
 13 14  1  0  0  0  0
 15 17  1  0  0  0  0
 16 19  1  0  0  0  0
 17 19  1  0  0  0  0
 17 18  2  0  0  0  0
 18 22  1  0  0  0  0
 20 16  1  0  0  0  0
 21 14  1  1  0  0  0
 21 20  1  0  0  0  0
 21 15  1  0  0  0  0
 22 23  2  0  0  0  0
 22 24  1  0  0  0  0
 25 26  1  0  0  0  0
 26 24  1  0  0  0  0
 26 27  1  1  0  0  0
 28  3  1  0  0  0  0
 28 29  1  0  0  0  0
 29 30  1  0  0  0  0
 30 31  1  6  0  0  0
 30 37  1  0  0  0  0
 31 32  1  0  0  0  0
 33 32  1  0  0  0  0
 33 34  1  1  0  0  0
 35 33  1  0  0  0  0
 36 35  3  0  0  0  0
 37 38  1  0  0  0  0
 38 39  1  0  0  0  0
 39 40  1  0  0  0  0
 40 41  2  0  0  0  0
 41 43  1  0  0  0  0
 43 44  2  0  0  0  0
 43 42  1  0  0  0  0
M  END
>  <MODEL>
4

>  <REMARK>
 VINA RESULT:      -5.4      2.195      4.355
  Name = 
  18 active torsions:
  status: ('A' for Active; 'I' for Inactive)
    1  A    between atoms: C_1  and  C_4
    2  A    between atoms: C_2  and  C_44
    3  A    between atoms: C_4  and  C_18
    4  A    between atoms: C_8  and  C_27
    5  A    between atoms: C_8  and  N_28
    6  A    between atoms: N_9  and  C_42
    7  A    between atoms: C_11  and  C_29
    8  A    between atoms: C_11  and  C_43
    9  A    between atoms: C_12  and  C_18
   10  A    between atoms: C_12  and  C_19
   11  A    between atoms: C_17  and  N_22
   12  A    between atoms: C_19  and  C_25
   13  A    between atoms: C_19  and  O_36
   14  A    between atoms: C_24  and  C_29
   15  A    between atoms: C_25  and  N_30
   16  A    between atoms: C_27  and  C_32
   17  A    between atoms: N_30  and  C_44
   18  A    between atoms: O_36  and  C_42
                            x       y       z     vdW  Elec       q    Type
                         _______ _______ _______ _____ _____    ______ ____

>  <TORSDO>
F 18

$$$$
=
 OpenBabel11052409333D

 44 46  0  0  1  0  0  0  0  0999 V2000
  159.8760  212.9850  148.4560 C   0  0  0  0  0  0  0  0  0  0  0  0
  160.5720  213.5250  147.3620 C   0  0  0  0  0  0  0  0  0  0  0  0
  161.9460  211.7700  149.1740 N   0  0  0  0  0  0  0  0  0  0  0  0
  158.5790  214.4500  146.5280 N   0  0  0  0  0  0  0  0  0  0  0  0
  156.4000  214.2130  147.6610 C   0  0  0  0  0  1  0  0  0  0  0  0
  162.0280  213.2510  147.1640 C   0  0  0  0  0  2  0  0  0  0  0  0
  162.6830  212.8450  148.4840 C   0  0  2  0  0  3  0  0  0  0  0  0
  164.1430  212.4740  148.2740 C   0  0  0  0  0  1  0  0  0  0  0  0
  160.5820  212.1940  149.5320 C   0  0  1  0  0  3  0  0  0  0  0  0
  158.5030  213.2110  148.5550 C   0  0  0  0  0  3  0  0  0  0  0  0
  157.8610  213.9570  147.5710 C   0  0  0  0  0  0  0  0  0  0  0  0
  159.8910  214.2350  146.4240 N   0  0  0  0  0  0  0  0  0  0  0  0
  160.5930  212.9450  150.8590 C   0  0  0  0  0  2  0  0  0  0  0  0
  160.8440  211.9770  152.0050 C   0  0  0  0  0  2  0  0  0  0  0  0
  158.4820  212.0910  152.9410 C   0  0  0  0  0  2  0  0  0  0  0  0
  160.2980  210.4280  154.4060 C   0  0  0  0  0  2  0  0  0  0  0  0
  158.6790  212.2800  154.4150 C   0  0  0  0  0  0  0  0  0  0  0  0
  158.2640  213.3840  154.9640 N   0  0  0  0  0  0  0  0  0  0  0  0
  159.2070  211.1240  155.2100 C   0  0  0  0  0  2  0  0  0  0  0  0
  159.8130  210.0360  153.1410 O   0  0  0  0  0  0  0  0  0  0  0  0
  159.5750  211.1900  152.3500 C   0  0  2  0  0  3  0  0  0  0  0  0
  158.3170  213.7350  156.3550 C   0  0  0  0  0  0  0  0  0  0  0  0
  159.2750  214.3970  156.8370 O   0  0  0  0  0  0  0  0  0  0  0  0
  157.1890  213.3350  157.2450 C   0  0  0  0  0  2  0  0  0  0  0  0
  155.4780  211.6950  156.6730 N   0  0  0  0  0  1  0  0  0  0  0  0
  155.9340  213.0550  156.4330 C   0  0  1  0  0  3  0  0  0  0  0  0
  154.8470  214.0260  156.8440 C   0  0  0  0  0  1  0  0  0  0  0  0
  161.8640  210.5560  148.3610 C   0  0  0  0  0  2  0  0  0  0  0  0
  161.0850  209.6070  149.0270 O   0  0  0  0  0  0  0  0  0  0  0  0
  161.8900  208.4690  149.1260 C   0  0  1  0  0  3  0  0  0  0  0  0
  162.3200  208.2530  150.5720 C   0  0  0  0  0  2  0  0  0  0  0  0
  161.2790  207.4260  151.3170 C   0  0  0  0  0  2  0  0  0  0  0  0
  161.8890  206.4600  152.3330 C   0  0  1  0  0  3  0  0  0  0  0  0
  161.2800  206.6240  153.7150 C   0  0  0  0  0  1  0  0  0  0  0  0
  161.7950  205.0670  151.8870 C   0  0  0  0  0  0  0  0  0  0  0  0
  161.7150  203.9660  151.5330 N   0  0  0  0  0  0  0  0  0  0  0  0
  161.1300  207.2530  148.6090 C   0  0  0  0  0  2  0  0  0  0  0  0
  161.4950  206.9680  147.2270 N   0  0  0  0  0  2  0  0  0  0  0  0
  162.4190  205.8430  147.2360 C   0  0  0  0  0  2  0  0  0  0  0  0
  161.6820  204.5610  147.0400 C   0  0  0  0  0  3  0  0  0  0  0  0
  161.6010  203.6910  147.9960 N   0  0  0  0  0  0  0  0  0  0  0  0
  160.4460  201.7060  149.0340 C   0  0  0  0  0  1  0  0  0  0  0  0
  160.9130  202.4490  147.8330 C   0  0  0  0  0  0  0  0  0  0  0  0
  160.6990  201.9700  146.6870 O   0  0  0  0  0  0  0  0  0  0  0  0
  1 10  1  0  0  0  0
  1  9  1  0  0  0  0
  2  1  2  0  0  0  0
  3  9  1  0  0  0  0
  4 11  1  0  0  0  0
  6  2  1  0  0  0  0
  6  7  1  0  0  0  0
  7  8  1  6  0  0  0
  7  3  1  0  0  0  0
  9 13  1  1  0  0  0
 11  5  1  0  0  0  0
 11 10  2  0  0  0  0
 12  4  2  0  0  0  0
 12  2  1  0  0  0  0
 13 14  1  0  0  0  0
 15 17  1  0  0  0  0
 16 19  1  0  0  0  0
 17 18  2  0  0  0  0
 17 19  1  0  0  0  0
 18 22  1  0  0  0  0
 20 16  1  0  0  0  0
 21 14  1  1  0  0  0
 21 15  1  0  0  0  0
 21 20  1  0  0  0  0
 22 23  2  0  0  0  0
 22 24  1  0  0  0  0
 26 25  1  0  0  0  0
 26 27  1  1  0  0  0
 26 24  1  0  0  0  0
 28 29  1  0  0  0  0
 28  3  1  0  0  0  0
 29 30  1  0  0  0  0
 30 37  1  1  0  0  0
 30 31  1  0  0  0  0
 31 32  1  0  0  0  0
 32 33  1  0  0  0  0
 33 34  1  1  0  0  0
 35 33  1  0  0  0  0
 36 35  3  0  0  0  0
 38 39  1  0  0  0  0
 38 37  1  0  0  0  0
 40 39  1  0  0  0  0
 40 41  2  0  0  0  0
 43 41  1  0  0  0  0
 43 42  1  0  0  0  0
 44 43  2  0  0  0  0
M  END
>  <MODEL>
5

>  <REMARK>
 VINA RESULT:      -4.7      1.698      2.355
  Name = 
  18 active torsions:
  status: ('A' for Active; 'I' for Inactive)
    1  A    between atoms: C_1  and  C_4
    2  A    between atoms: C_2  and  C_44
    3  A    between atoms: C_4  and  C_18
    4  A    between atoms: C_8  and  C_27
    5  A    between atoms: C_8  and  N_28
    6  A    between atoms: N_9  and  C_42
    7  A    between atoms: C_11  and  C_29
    8  A    between atoms: C_11  and  C_43
    9  A    between atoms: C_12  and  C_18
   10  A    between atoms: C_12  and  C_19
   11  A    between atoms: C_17  and  N_22
   12  A    between atoms: C_19  and  C_25
   13  A    between atoms: C_19  and  O_36
   14  A    between atoms: C_24  and  C_29
   15  A    between atoms: C_25  and  N_30
   16  A    between atoms: C_27  and  C_32
   17  A    between atoms: N_30  and  C_44
   18  A    between atoms: O_36  and  C_42
                            x       y       z     vdW  Elec       q    Type
                         _______ _______ _______ _____ _____    ______ ____

>  <TORSDO>
F 18

$$$$
=
 OpenBabel11052409333D

 44 46  0  0  1  0  0  0  0  0999 V2000
  160.8300  208.5370  152.4210 C   0  0  0  0  0  0  0  0  0  0  0  0
  161.9570  208.7160  151.6020 C   0  0  0  0  0  0  0  0  0  0  0  0
  161.1620  206.0550  152.3360 N   0  0  0  0  0  0  0  0  0  0  0  0
  161.5020  211.0170  151.4500 N   0  0  0  0  0  0  0  0  0  0  0  0
  159.5940  212.0960  152.5830 C   0  0  0  0  0  1  0  0  0  0  0  0
  162.7810  207.5500  151.1610 C   0  0  0  0  0  2  0  0  0  0  0  0
  162.5850  206.3640  152.1050 C   0  0  2  0  0  3  0  0  0  0  0  0
  163.3490  205.1450  151.6110 C   0  0  0  0  0  1  0  0  0  0  0  0
  160.4610  207.1810  152.9760 C   0  0  1  0  0  3  0  0  0  0  0  0
  160.0520  209.6490  152.7450 C   0  0  0  0  0  3  0  0  0  0  0  0
  160.4070  210.8990  152.2470 C   0  0  0  0  0  0  0  0  0  0  0  0
  162.2480  209.9580  151.1330 N   0  0  0  0  0  0  0  0  0  0  0  0
  160.6470  207.1290  154.4880 C   0  0  0  0  0  2  0  0  0  0  0  0
  161.5980  208.2290  154.9360 C   0  0  0  0  0  2  0  0  0  0  0  0
  160.0900  209.1000  156.7890 C   0  0  0  0  0  2  0  0  0  0  0  0
  162.5410  210.5400  156.4300 C   0  0  0  0  0  2  0  0  0  0  0  0
  160.0860  210.5860  156.5930 C   0  0  0  0  0  0  0  0  0  0  0  0
  158.9680  211.1730  156.2810 N   0  0  0  0  0  0  0  0  0  0  0  0
  161.3410  211.3430  156.9150 C   0  0  0  0  0  2  0  0  0  0  0  0
  162.5340  209.2440  156.9890 O   0  0  0  0  0  0  0  0  0  0  0  0
  161.4580  208.5010  156.4370 C   0  0  2  0  0  3  0  0  0  0  0  0
  158.7480  212.5800  156.0970 C   0  0  0  0  0  0  0  0  0  0  0  0
  159.7050  213.3960  156.0170 O   0  0  0  0  0  0  0  0  0  0  0  0
  157.3500  213.0810  155.9620 C   0  0  0  0  0  2  0  0  0  0  0  0
  155.8680  211.1830  155.5800 N   0  0  0  0  0  1  0  0  0  0  0  0
  156.5830  212.2700  154.9300 C   0  0  1  0  0  3  0  0  0  0  0  0
  155.5890  213.1710  154.2260 C   0  0  0  0  0  1  0  0  0  0  0  0
  160.4690  205.7140  151.0930 C   0  0  0  0  0  2  0  0  0  0  0  0
  161.0640  206.3990  150.0300 O   0  0  0  0  0  0  0  0  0  0  0  0
  161.2850  205.4340  149.0440 C   0  0  1  0  0  3  0  0  0  0  0  0
  160.3820  204.2300  149.2750 C   0  0  0  0  0  2  0  0  0  0  0  0
  160.9220  203.0110  148.5350 C   0  0  0  0  0  2  0  0  0  0  0  0
  160.7920  201.7130  149.3310 C   0  0  1  0  0  3  0  0  0  0  0  0
  161.5640  200.5710  148.6930 C   0  0  0  0  0  1  0  0  0  0  0  0
  161.1880  201.8880  150.7310 C   0  0  0  0  0  0  0  0  0  0  0  0
  161.5060  202.0300  151.8360 N   0  0  0  0  0  0  0  0  0  0  0  0
  161.0290  206.0360  147.6670 C   0  0  0  0  0  2  0  0  0  0  0  0
  162.2800  206.4580  147.0490 N   0  0  0  0  0  2  0  0  0  0  0  0
  162.3610  205.8280  145.7390 C   0  0  0  0  0  2  0  0  0  0  0  0
  161.1490  204.9980  145.4830 C   0  0  0  0  0  3  0  0  0  0  0  0
  161.2590  203.7680  145.0930 N   0  0  0  0  0  0  0  0  0  0  0  0
  160.0990  201.5400  145.2910 C   0  0  0  0  0  1  0  0  0  0  0  0
  160.1160  202.9520  144.8270 C   0  0  0  0  0  0  0  0  0  0  0  0
  159.1220  203.4110  144.2020 O   0  0  0  0  0  0  0  0  0  0  0  0
  1 10  1  0  0  0  0
  1  9  1  0  0  0  0
  2  1  2  0  0  0  0
  3  9  1  0  0  0  0
  4 11  1  0  0  0  0
  6  2  1  0  0  0  0
  6  7  1  0  0  0  0
  7  8  1  6  0  0  0
  7  3  1  0  0  0  0
  9 13  1  1  0  0  0
 11  5  1  0  0  0  0
 11 10  2  0  0  0  0
 12  4  2  0  0  0  0
 12  2  1  0  0  0  0
 13 14  1  0  0  0  0
 16 19  1  0  0  0  0
 16 20  1  0  0  0  0
 17 15  1  0  0  0  0
 17 19  1  0  0  0  0
 18 17  2  0  0  0  0
 21 14  1  6  0  0  0
 21 15  1  0  0  0  0
 21 20  1  0  0  0  0
 22 18  1  0  0  0  0
 23 22  2  0  0  0  0
 24 22  1  0  0  0  0
 26 27  1  1  0  0  0
 26 25  1  0  0  0  0
 26 24  1  0  0  0  0
 28  3  1  0  0  0  0
 29 28  1  0  0  0  0
 30 37  1  6  0  0  0
 30 31  1  0  0  0  0
 30 29  1  0  0  0  0
 32 31  1  0  0  0  0
 32 33  1  0  0  0  0
 33 34  1  6  0  0  0
 33 35  1  0  0  0  0
 35 36  3  0  0  0  0
 38 37  1  0  0  0  0
 39 38  1  0  0  0  0
 40 39  1  0  0  0  0
 41 40  2  0  0  0  0
 43 41  1  0  0  0  0
 43 42  1  0  0  0  0
 44 43  2  0  0  0  0
M  END
>  <MODEL>
6

>  <REMARK>
 VINA RESULT:      -4.1      3.622      5.626
  Name = 
  18 active torsions:
  status: ('A' for Active; 'I' for Inactive)
    1  A    between atoms: C_1  and  C_4
    2  A    between atoms: C_2  and  C_44
    3  A    between atoms: C_4  and  C_18
    4  A    between atoms: C_8  and  C_27
    5  A    between atoms: C_8  and  N_28
    6  A    between atoms: N_9  and  C_42
    7  A    between atoms: C_11  and  C_29
    8  A    between atoms: C_11  and  C_43
    9  A    between atoms: C_12  and  C_18
   10  A    between atoms: C_12  and  C_19
   11  A    between atoms: C_17  and  N_22
   12  A    between atoms: C_19  and  C_25
   13  A    between atoms: C_19  and  O_36
   14  A    between atoms: C_24  and  C_29
   15  A    between atoms: C_25  and  N_30
   16  A    between atoms: C_27  and  C_32
   17  A    between atoms: N_30  and  C_44
   18  A    between atoms: O_36  and  C_42
                            x       y       z     vdW  Elec       q    Type
                         _______ _______ _______ _____ _____    ______ ____

>  <TORSDO>
F 18

$$$$
=
 OpenBabel11052409333D

 44 46  0  0  1  0  0  0  0  0999 V2000
  160.9860  208.3530  154.0000 C   0  0  0  0  0  0  0  0  0  0  0  0
  161.7540  209.4240  154.4860 C   0  0  0  0  0  0  0  0  0  0  0  0
  161.0710  209.3350  151.6970 N   0  0  0  0  0  0  0  0  0  0  0  0
  161.4560  208.6620  156.6890 N   0  0  0  0  0  0  0  0  0  0  0  0
  160.1710  206.6330  157.2560 C   0  0  0  0  0  1  0  0  0  0  0  0
  162.2730  210.4790  153.5640 C   0  0  0  0  0  2  0  0  0  0  0  0
  162.3370  209.9570  152.1290 C   0  0  2  0  0  3  0  0  0  0  0  0
  162.7750  211.0540  151.1710 C   0  0  0  0  0  1  0  0  0  0  0  0
  160.7360  208.1630  152.5220 C   0  0  1  0  0  3  0  0  0  0  0  0
  160.4640  207.4340  154.9110 C   0  0  0  0  0  3  0  0  0  0  0  0
  160.7130  207.6030  156.2700 C   0  0  0  0  0  0  0  0  0  0  0  0
  161.9550  209.5470  155.8240 N   0  0  0  0  0  0  0  0  0  0  0  0
  161.4460  206.9220  151.9930 C   0  0  0  0  0  2  0  0  0  0  0  0
  162.0810  207.2200  150.6430 C   0  0  0  0  0  2  0  0  0  0  0  0
  160.1120  205.8790  149.7530 C   0  0  0  0  0  2  0  0  0  0  0  0
  162.4470  205.8670  148.0930 C   0  0  0  0  0  2  0  0  0  0  0  0
  160.7220  204.5890  149.2940 C   0  0  0  0  0  0  0  0  0  0  0  0
  160.3790  203.4870  149.8950 N   0  0  0  0  0  0  0  0  0  0  0  0
  161.5830  204.6130  148.0660 C   0  0  0  0  0  2  0  0  0  0  0  0
  161.6470  207.0230  148.2150 O   0  0  0  0  0  0  0  0  0  0  0  0
  161.0640  207.0570  149.5080 C   0  0  2  0  0  3  0  0  0  0  0  0
  160.8120  202.1550  149.5770 C   0  0  0  0  0  0  0  0  0  0  0  0
  161.6860  201.5600  150.2640 O   0  0  0  0  0  0  0  0  0  0  0  0
  160.1840  201.4460  148.4260 C   0  0  0  0  0  2  0  0  0  0  0  0
  161.5560  199.8430  147.2050 N   0  0  0  0  0  1  0  0  0  0  0  0
  161.1880  201.2470  147.3020 C   0  0  1  0  0  3  0  0  0  0  0  0
  160.5670  201.6920  145.9940 C   0  0  0  0  0  1  0  0  0  0  0  0
  159.9550  210.2800  151.7460 C   0  0  0  0  0  2  0  0  0  0  0  0
  160.4300  211.5370  152.1280 O   0  0  0  0  0  0  0  0  0  0  0  0
  159.2980  212.2600  152.5170 C   0  0  1  0  0  3  0  0  0  0  0  0
  159.7010  213.4250  153.4130 C   0  0  0  0  0  2  0  0  0  0  0  0
  158.9050  213.3930  154.7130 C   0  0  0  0  0  2  0  0  0  0  0  0
  158.7390  211.9860  155.2870 C   0  0  1  0  0  3  0  0  0  0  0  0
  159.0730  211.9280  156.7670 C   0  0  0  0  0  1  0  0  0  0  0  0
  157.3990  211.4480  155.0350 C   0  0  0  0  0  0  0  0  0  0  0  0
  156.3380  211.0230  154.8430 N   0  0  0  0  0  0  0  0  0  0  0  0
  158.5620  212.7670  151.2820 C   0  0  0  0  0  2  0  0  0  0  0  0
  158.8140  214.1890  151.0810 N   0  0  0  0  0  2  0  0  0  0  0  0
  158.7410  214.4530  149.6520 C   0  0  0  0  0  2  0  0  0  0  0  0
  159.5330  213.4430  148.8920 C   0  0  0  0  0  3  0  0  0  0  0  0
  160.6860  213.7500  148.3880 N   0  0  0  0  0  0  0  0  0  0  0  0
  162.3330  213.2850  146.5390 C   0  0  0  0  0  1  0  0  0  0  0  0
  161.4620  212.8080  147.6440 C   0  0  0  0  0  0  0  0  0  0  0  0
  161.4160  211.5760  147.9090 O   0  0  0  0  0  0  0  0  0  0  0  0
  1  2  2  0  0  0  0
  1 10  1  0  0  0  0
  2 12  1  0  0  0  0
  3 28  1  0  0  0  0
  3  7  1  0  0  0  0
  3  9  1  0  0  0  0
  6  2  1  0  0  0  0
  7  8  1  6  0  0  0
  7  6  1  0  0  0  0
  9 13  1  6  0  0  0
  9  1  1  0  0  0  0
 10 11  2  0  0  0  0
 11  4  1  0  0  0  0
 11  5  1  0  0  0  0
 12  4  2  0  0  0  0
 14 13  1  0  0  0  0
 16 20  1  0  0  0  0
 17 15  1  0  0  0  0
 17 18  2  0  0  0  0
 19 16  1  0  0  0  0
 19 17  1  0  0  0  0
 20 21  1  0  0  0  0
 21 15  1  0  0  0  0
 21 14  1  1  0  0  0
 22 18  1  0  0  0  0
 22 23  2  0  0  0  0
 24 22  1  0  0  0  0
 25 26  1  0  0  0  0
 26 27  1  6  0  0  0
 26 24  1  0  0  0  0
 28 29  1  0  0  0  0
 29 30  1  0  0  0  0
 30 37  1  6  0  0  0
 30 31  1  0  0  0  0
 31 32  1  0  0  0  0
 32 33  1  0  0  0  0
 33 34  1  1  0  0  0
 35 33  1  0  0  0  0
 36 35  3  0  0  0  0
 38 37  1  0  0  0  0
 39 38  1  0  0  0  0
 40 39  1  0  0  0  0
 41 40  2  0  0  0  0
 42 43  1  0  0  0  0
 43 44  2  0  0  0  0
 43 41  1  0  0  0  0
M  END
>  <MODEL>
7

>  <REMARK>
 VINA RESULT:      -3.5      2.243      9.315
  Name = 
  18 active torsions:
  status: ('A' for Active; 'I' for Inactive)
    1  A    between atoms: C_1  and  C_4
    2  A    between atoms: C_2  and  C_44
    3  A    between atoms: C_4  and  C_18
    4  A    between atoms: C_8  and  C_27
    5  A    between atoms: C_8  and  N_28
    6  A    between atoms: N_9  and  C_42
    7  A    between atoms: C_11  and  C_29
    8  A    between atoms: C_11  and  C_43
    9  A    between atoms: C_12  and  C_18
   10  A    between atoms: C_12  and  C_19
   11  A    between atoms: C_17  and  N_22
   12  A    between atoms: C_19  and  C_25
   13  A    between atoms: C_19  and  O_36
   14  A    between atoms: C_24  and  C_29
   15  A    between atoms: C_25  and  N_30
   16  A    between atoms: C_27  and  C_32
   17  A    between atoms: N_30  and  C_44
   18  A    between atoms: O_36  and  C_42
                            x       y       z     vdW  Elec       q    Type
                         _______ _______ _______ _____ _____    ______ ____

>  <TORSDO>
F 18

$$$$
=
 OpenBabel11052409333D

 44 46  0  0  1  0  0  0  0  0999 V2000
  161.5920  209.2410  154.7480 C   0  0  0  0  0  0  0  0  0  0  0  0
  161.7530  208.0540  155.4820 C   0  0  0  0  0  0  0  0  0  0  0  0
  160.8380  207.9120  152.7630 N   0  0  0  0  0  0  0  0  0  0  0  0
  162.7170  209.2610  157.2540 N   0  0  0  0  0  0  0  0  0  0  0  0
  163.0210  211.7090  157.2170 C   0  0  0  0  0  1  0  0  0  0  0  0
  161.3960  206.7290  154.8910 C   0  0  0  0  0  2  0  0  0  0  0  0
  160.4000  206.9020  153.7440 C   0  0  2  0  0  3  0  0  0  0  0  0
  160.1030  205.5680  153.0770 C   0  0  0  0  0  1  0  0  0  0  0  0
  160.9590  209.2450  153.3760 C   0  0  1  0  0  3  0  0  0  0  0  0
  162.0090  210.4440  155.3180 C   0  0  0  0  0  3  0  0  0  0  0  0
  162.5750  210.4370  156.5900 C   0  0  0  0  0  0  0  0  0  0  0  0
  162.3240  208.1050  156.7140 N   0  0  0  0  0  0  0  0  0  0  0  0
  159.6050  209.9460  153.3900 C   0  0  0  0  0  2  0  0  0  0  0  0
  159.4800  210.8640  152.1840 C   0  0  0  0  0  2  0  0  0  0  0  0
  160.1980  212.5130  153.9820 C   0  0  0  0  0  2  0  0  0  0  0  0
  158.1160  213.4330  152.2440 C   0  0  0  0  0  2  0  0  0  0  0  0
  158.9090  213.0360  154.5380 C   0  0  0  0  0  0  0  0  0  0  0  0
  158.6180  212.7880  155.7820 N   0  0  0  0  0  0  0  0  0  0  0  0
  158.0880  213.9490  153.6770 C   0  0  0  0  0  2  0  0  0  0  0  0
  159.4430  213.3050  151.7840 O   0  0  0  0  0  0  0  0  0  0  0  0
  160.0810  212.2430  152.4760 C   0  0  2  0  0  3  0  0  0  0  0  0
  157.4640  213.2360  156.5090 C   0  0  0  0  0  0  0  0  0  0  0  0
  157.1280  214.4510  156.5370 O   0  0  0  0  0  0  0  0  0  0  0  0
  156.6230  212.2320  157.2210 C   0  0  0  0  0  2  0  0  0  0  0  0
  155.7620  211.5240  155.0530 N   0  0  0  0  0  1  0  0  0  0  0  0
  155.3840  211.8920  156.4080 C   0  0  1  0  0  3  0  0  0  0  0  0
  154.6620  210.7310  157.0590 C   0  0  0  0  0  1  0  0  0  0  0  0
  162.1190  207.5580  152.1500 C   0  0  0  0  0  2  0  0  0  0  0  0
  162.3900  208.4420  151.1030 O   0  0  0  0  0  0  0  0  0  0  0  0
  162.2240  207.6960  149.9330 C   0  0  1  0  0  3  0  0  0  0  0  0
  160.7580  207.3200  149.7540 C   0  0  0  0  0  2  0  0  0  0  0  0
  160.6150  205.8130  149.5740 C   0  0  0  0  0  2  0  0  0  0  0  0
  161.4660  205.2560  148.4330 C   0  0  1  0  0  3  0  0  0  0  0  0
  161.6410  203.7510  148.5320 C   0  0  0  0  0  1  0  0  0  0  0  0
  160.9310  205.6310  147.1200 C   0  0  0  0  0  0  0  0  0  0  0  0
  160.5130  205.9310  146.0820 N   0  0  0  0  0  0  0  0  0  0  0  0
  162.7190  208.4970  148.7350 C   0  0  0  0  0  2  0  0  0  0  0  0
  161.8360  209.6280  148.4730 N   0  0  0  0  0  2  0  0  0  0  0  0
  162.6260  210.8440  148.6000 C   0  0  0  0  0  2  0  0  0  0  0  0
  161.8480  212.0240  148.1210 C   0  0  0  0  0  3  0  0  0  0  0  0
  162.0390  212.5040  146.9330 N   0  0  0  0  0  0  0  0  0  0  0  0
  161.2290  213.8850  144.9880 C   0  0  0  0  0  1  0  0  0  0  0  0
  161.3190  213.6410  146.4520 C   0  0  0  0  0  0  0  0  0  0  0  0
  160.7620  214.4430  147.2490 O   0  0  0  0  0  0  0  0  0  0  0  0
  1 10  2  0  0  0  0
  1  2  1  0  0  0  0
  2 12  2  0  0  0  0
  3  9  1  0  0  0  0
  3  7  1  0  0  0  0
  6  2  1  0  0  0  0
  7  8  1  6  0  0  0
  7  6  1  0  0  0  0
  9 13  1  1  0  0  0
  9  1  1  0  0  0  0
 10 11  1  0  0  0  0
 11  5  1  0  0  0  0
 11  4  2  0  0  0  0
 12  4  1  0  0  0  0
 14 13  1  0  0  0  0
 15 17  1  0  0  0  0
 16 19  1  0  0  0  0
 17 18  2  0  0  0  0
 18 22  1  0  0  0  0
 19 17  1  0  0  0  0
 20 16  1  0  0  0  0
 20 21  1  0  0  0  0
 21 14  1  1  0  0  0
 21 15  1  0  0  0  0
 22 23  2  0  0  0  0
 22 24  1  0  0  0  0
 25 26  1  0  0  0  0
 26 27  1  1  0  0  0
 26 24  1  0  0  0  0
 28  3  1  0  0  0  0
 29 28  1  0  0  0  0
 30 37  1  6  0  0  0
 30 29  1  0  0  0  0
 31 30  1  0  0  0  0
 32 31  1  0  0  0  0
 33 34  1  6  0  0  0
 33 32  1  0  0  0  0
 35 33  1  0  0  0  0
 36 35  3  0  0  0  0
 38 39  1  0  0  0  0
 38 37  1  0  0  0  0
 40 39  1  0  0  0  0
 41 40  2  0  0  0  0
 42 43  1  0  0  0  0
 43 41  1  0  0  0  0
 43 44  2  0  0  0  0
M  END
>  <MODEL>
8

>  <REMARK>
 VINA RESULT:      -3.3      2.445      7.162
  Name = 
  18 active torsions:
  status: ('A' for Active; 'I' for Inactive)
    1  A    between atoms: C_1  and  C_4
    2  A    between atoms: C_2  and  C_44
    3  A    between atoms: C_4  and  C_18
    4  A    between atoms: C_8  and  C_27
    5  A    between atoms: C_8  and  N_28
    6  A    between atoms: N_9  and  C_42
    7  A    between atoms: C_11  and  C_29
    8  A    between atoms: C_11  and  C_43
    9  A    between atoms: C_12  and  C_18
   10  A    between atoms: C_12  and  C_19
   11  A    between atoms: C_17  and  N_22
   12  A    between atoms: C_19  and  C_25
   13  A    between atoms: C_19  and  O_36
   14  A    between atoms: C_24  and  C_29
   15  A    between atoms: C_25  and  N_30
   16  A    between atoms: C_27  and  C_32
   17  A    between atoms: N_30  and  C_44
   18  A    between atoms: O_36  and  C_42
                            x       y       z     vdW  Elec       q    Type
                         _______ _______ _______ _____ _____    ______ ____

>  <TORSDO>
F 18

$$$$
=
 OpenBabel11052409333D

 44 46  0  0  1  0  0  0  0  0999 V2000
  161.7620  208.5730  150.4170 C   0  0  0  0  0  0  0  0  0  0  0  0
  160.9790  207.5320  150.9420 C   0  0  0  0  0  0  0  0  0  0  0  0
  161.5890  207.5540  148.1350 N   0  0  0  0  0  0  0  0  0  0  0  0
  161.3560  208.3240  153.1230 N   0  0  0  0  0  0  0  0  0  0  0  0
  162.7090  210.3260  153.6200 C   0  0  0  0  0  1  0  0  0  0  0  0
  160.4070  206.4750  150.0530 C   0  0  0  0  0  2  0  0  0  0  0  0
  160.3200  206.9740  148.6110 C   0  0  2  0  0  3  0  0  0  0  0  0
  159.8270  205.8730  147.6850 C   0  0  0  0  0  1  0  0  0  0  0  0
  161.9780  208.7310  148.9300 C   0  0  1  0  0  3  0  0  0  0  0  0
  162.3320  209.4930  151.2980 C   0  0  0  0  0  3  0  0  0  0  0  0
  162.1150  209.3540  152.6660 C   0  0  0  0  0  0  0  0  0  0  0  0
  160.8110  207.4380  152.2880 N   0  0  0  0  0  0  0  0  0  0  0  0
  161.2870  209.9810  148.3970 C   0  0  0  0  0  2  0  0  0  0  0  0
  162.1470  211.2070  148.6650 C   0  0  0  0  0  2  0  0  0  0  0  0
  160.5650  212.5180  147.1660 C   0  0  0  0  0  2  0  0  0  0  0  0
  163.0770  213.7890  147.6990 C   0  0  0  0  0  2  0  0  0  0  0  0
  161.4350  213.0000  146.0450 C   0  0  0  0  0  0  0  0  0  0  0  0
  161.1970  212.5710  144.8400 N   0  0  0  0  0  0  0  0  0  0  0  0
  162.4410  214.0720  146.3440 C   0  0  0  0  0  2  0  0  0  0  0  0
  162.0900  213.6800  148.7010 O   0  0  0  0  0  0  0  0  0  0  0  0
  161.3360  212.4960  148.4930 C   0  0  2  0  0  3  0  0  0  0  0  0
  161.8800  212.9460  143.6350 C   0  0  0  0  0  0  0  0  0  0  0  0
  163.1200  213.1770  143.6190 O   0  0  0  0  0  0  0  0  0  0  0  0
  161.1080  213.0300  142.3620 C   0  0  0  0  0  2  0  0  0  0  0  0
  159.9420  211.4900  140.8750 N   0  0  0  0  0  1  0  0  0  0  0  0
  161.1830  211.7180  141.5970 C   0  0  1  0  0  3  0  0  0  0  0  0
  162.3310  211.7800  140.6110 C   0  0  0  0  0  1  0  0  0  0  0  0
  162.6810  206.5800  148.1720 C   0  0  0  0  0  2  0  0  0  0  0  0
  163.1100  206.3190  146.8680 O   0  0  0  0  0  0  0  0  0  0  0  0
  163.1150  204.9260  146.7500 C   0  0  1  0  0  3  0  0  0  0  0  0
  162.2520  204.3040  147.8400 C   0  0  0  0  0  2  0  0  0  0  0  0
  161.3360  203.2380  147.2480 C   0  0  0  0  0  2  0  0  0  0  0  0
  160.8200  202.2400  148.2850 C   0  0  1  0  0  3  0  0  0  0  0  0
  161.5780  200.9240  148.2380 C   0  0  0  0  0  1  0  0  0  0  0  0
  160.8380  202.8010  149.6390 C   0  0  0  0  0  0  0  0  0  0  0  0
  160.8450  203.2460  150.7090 N   0  0  0  0  0  0  0  0  0  0  0  0
  162.6050  204.5230  145.3720 C   0  0  0  0  0  2  0  0  0  0  0  0
  162.1400  205.6920  144.6340 N   0  0  0  0  0  2  0  0  0  0  0  0
  161.5220  205.2220  143.4030 C   0  0  0  0  0  2  0  0  0  0  0  0
  161.5810  206.2790  142.3530 C   0  0  0  0  0  3  0  0  0  0  0  0
  161.9620  205.9950  141.1480 N   0  0  0  0  0  0  0  0  0  0  0  0
  162.3310  206.5800  138.7250 C   0  0  0  0  0  1  0  0  0  0  0  0
  162.0410  206.9890  140.1240 C   0  0  0  0  0  0  0  0  0  0  0  0
  161.8730  208.2100  140.3900 O   0  0  0  0  0  0  0  0  0  0  0  0
  1  2  2  0  0  0  0
  1 10  1  0  0  0  0
  2 12  1  0  0  0  0
  3 28  1  0  0  0  0
  3  7  1  0  0  0  0
  3  9  1  0  0  0  0
  6  2  1  0  0  0  0
  7  8  1  6  0  0  0
  7  6  1  0  0  0  0
  9 13  1  6  0  0  0
  9  1  1  0  0  0  0
 10 11  2  0  0  0  0
 11  4  1  0  0  0  0
 11  5  1  0  0  0  0
 12  4  2  0  0  0  0
 13 14  1  0  0  0  0
 15 21  1  0  0  0  0
 16 20  1  0  0  0  0
 17 19  1  0  0  0  0
 17 15  1  0  0  0  0
 18 17  2  0  0  0  0
 19 16  1  0  0  0  0
 21 14  1  6  0  0  0
 21 20  1  0  0  0  0
 22 18  1  0  0  0  0
 23 22  2  0  0  0  0
 24 22  1  0  0  0  0
 25 26  1  0  0  0  0
 26 27  1  6  0  0  0
 26 24  1  0  0  0  0
 29 28  1  0  0  0  0
 30 37  1  6  0  0  0
 30 29  1  0  0  0  0
 30 31  1  0  0  0  0
 32 31  1  0  0  0  0
 32 33  1  0  0  0  0
 33 34  1  1  0  0  0
 33 35  1  0  0  0  0
 35 36  3  0  0  0  0
 38 37  1  0  0  0  0
 39 38  1  0  0  0  0
 40 39  1  0  0  0  0
 41 40  2  0  0  0  0
 42 43  1  0  0  0  0
 43 44  2  0  0  0  0
 43 41  1  0  0  0  0
M  END
>  <MODEL>
9

>  <REMARK>
 VINA RESULT:      -3.3      3.755      8.345
  Name = 
  18 active torsions:
  status: ('A' for Active; 'I' for Inactive)
    1  A    between atoms: C_1  and  C_4
    2  A    between atoms: C_2  and  C_44
    3  A    between atoms: C_4  and  C_18
    4  A    between atoms: C_8  and  C_27
    5  A    between atoms: C_8  and  N_28
    6  A    between atoms: N_9  and  C_42
    7  A    between atoms: C_11  and  C_29
    8  A    between atoms: C_11  and  C_43
    9  A    between atoms: C_12  and  C_18
   10  A    between atoms: C_12  and  C_19
   11  A    between atoms: C_17  and  N_22
   12  A    between atoms: C_19  and  C_25
   13  A    between atoms: C_19  and  O_36
   14  A    between atoms: C_24  and  C_29
   15  A    between atoms: C_25  and  N_30
   16  A    between atoms: C_27  and  C_32
   17  A    between atoms: N_30  and  C_44
   18  A    between atoms: O_36  and  C_42
                            x       y       z     vdW  Elec       q    Type
                         _______ _______ _______ _____ _____    ______ ____

>  <TORSDO>
F 18

$$$$
