=
 OpenBabel11052410193D

 57 64  0  0  1  0  0  0  0  0999 V2000
  160.3590  214.4520  148.8420 C   0  0  0  0  0  2  0  0  0  0  0  0
  159.9210  213.6070  150.0360 C   0  0  2  0  0  3  0  0  0  0  0  0
  161.8730  214.3910  148.6260 C   0  0  0  0  0  2  0  0  0  0  0  0
  162.5270  213.0940  149.1270 C   0  0  0  0  0  2  0  0  0  0  0  0
  161.5950  211.8780  149.0660 C   0  0  1  0  0  3  0  0  0  0  0  0
  160.2840  212.1250  149.8250 C   0  0  1  0  0  3  0  0  0  0  0  0
  156.1490  213.8570  149.5710 C   0  0  0  0  0  3  0  0  0  0  0  0
  158.0430  214.0420  151.6210 C   0  0  0  0  0  3  0  0  0  0  0  0
  155.7350  214.1100  150.8810 C   0  0  0  0  0  3  0  0  0  0  0  0
  157.5090  213.6970  149.2840 C   0  0  0  0  0  3  0  0  0  0  0  0
  156.6820  214.2020  151.9070 C   0  0  0  0  0  3  0  0  0  0  0  0
  158.4620  213.7870  150.3100 C   0  0  0  0  0  0  0  0  0  0  0  0
  160.4700  212.5020  146.6780 S   0  0  0  0  0  0  0  0  0  0  0  0
  161.2880  211.5050  147.6490 C   0  0  0  0  0  2  0  0  0  0  0  0
  160.1270  211.4650  145.2520 C   0  0  0  0  0  2  0  0  0  0  0  0
  160.8800  211.7610  142.9550 C   0  0  0  0  0  3  0  0  0  0  0  0
  160.2360  212.2670  144.0030 C   0  0  0  0  0  3  0  0  0  0  0  0
  161.0400  212.4950  141.6430 C   0  0  2  0  0  3  0  0  0  0  0  0
  160.8180  207.5930  139.1490 F   0  0  0  0  0  0  0  0  0  0  0  0
  161.7020  210.5670  140.4560 C   0  0  0  0  0  2  0  0  0  0  0  0
  159.0940  210.7690  138.2670 C   0  0  0  0  0  2  0  0  0  0  0  0
  158.7260  211.5070  139.5550 C   0  0  0  0  0  2  0  0  0  0  0  0
  160.6110  208.9150  138.9260 C   0  0  0  0  0  0  0  0  0  0  0  0
  161.7610  209.8680  139.1030 C   0  0  0  0  0  2  0  0  0  0  0  0
  159.5240  211.1150  140.6480 O   0  0  0  0  0  0  0  0  0  0  0  0
  160.7470  211.6780  140.4540 N   0  0  0  0  0  0  0  0  0  0  0  0
  159.4010  209.3250  138.5230 C   0  0  0  0  0  3  0  0  0  0  0  0
  162.2510  213.2240  141.5540 O   0  0  0  0  0  0  0  0  0  0  0  0
  163.3760  213.8390  139.5440 C   0  0  0  0  0  1  0  0  0  0  0  0
  162.1930  214.0980  140.4570 C   0  0  0  0  0  2  0  0  0  0  0  0
  160.0960  211.2300  151.0630 C   0  0  0  0  0  2  0  0  0  0  0  0
  161.3610  210.6980  151.7850 C   0  0  2  0  0  3  0  0  0  0  0  0
  162.0440  206.5570  150.8100 C   0  0  2  0  0  3  0  0  0  0  0  0
  160.7000  206.8620  151.4960 C   0  0  0  0  0  2  0  0  0  0  0  0
  162.7180  207.4240  148.6470 O   0  0  0  0  0  0  0  0  0  0  0  0
  162.3070  207.6580  149.8130 C   0  0  0  0  0  0  0  0  0  0  0  0
  162.0500  208.9680  150.2090 O   0  0  0  0  0  0  0  0  0  0  0  0
  161.7060  209.2290  151.5650 C   0  0  2  0  0  3  0  0  0  0  0  0
  160.5700  208.3060  152.0260 C   0  0  0  0  0  2  0  0  0  0  0  0
  159.5980  201.8470  149.3430 C   0  0  0  0  0  2  0  0  0  0  0  0
  160.9240  201.1310  149.1250 C   0  0  0  0  0  2  0  0  0  0  0  0
  161.1970  203.6060  148.4230 C   0  0  0  0  0  2  0  0  0  0  0  0
  161.7570  204.1070  151.2560 C   0  0  0  0  0  3  0  0  0  0  0  0
  162.0830  205.1450  150.2010 C   0  0  1  0  0  3  0  0  0  0  0  0
  161.2420  202.9090  150.9420 C   0  0  0  0  0  3  0  0  0  0  0  0
  160.9010  202.5890  149.5160 C   0  0  0  0  0  0  0  0  0  0  0  0
  161.1230  205.0150  149.0060 C   0  0  0  0  0  2  0  0  0  0  0  0
  162.4140  210.2330  153.8640 N   0  0  0  0  0  2  0  0  0  0  0  0
  160.4360  210.7970  153.9900 C   0  0  1  0  0  3  0  0  0  0  0  0
  161.5910  211.1490  153.1740 N   0  0  0  0  0  0  0  0  0  0  0  0
  161.3200  209.8410  154.7400 C   0  0  0  0  0  2  0  0  0  0  0  0
  160.0410  211.9630  154.8890 C   0  0  1  0  0  3  0  0  0  0  0  0
  158.9350  212.8040  154.2260 C   0  0  0  0  0  2  0  0  0  0  0  0
  158.1640  212.1230  156.2840 C   0  0  0  0  0  0  0  0  0  0  0  0
  159.4670  211.4390  156.2090 C   0  0  0  0  0  2  0  0  0  0  0  0
  157.8940  212.8840  155.1770 O   0  0  0  0  0  0  0  0  0  0  0  0
  157.3750  212.0200  157.2600 O   0  0  0  0  0  0  0  0  0  0  0  0
  1  2  1  0  0  0  0
  2 12  1  6  0  0  0
  3  1  1  0  0  0  0
  3  4  1  0  0  0  0
  5 14  1  6  0  0  0
  5  4  1  0  0  0  0
  5  6  1  0  0  0  0
  6  2  1  0  0  0  0
  6 31  1  1  0  0  0
  7  9  1  0  0  0  0
  8 11  1  0  0  0  0
  9 11  2  0  0  0  0
 10  7  2  0  0  0  0
 10 12  1  0  0  0  0
 12  8  2  0  0  0  0
 13 14  1  0  0  0  0
 15 13  1  0  0  0  0
 16 17  2  0  0  0  0
 17 15  1  0  0  0  0
 18 16  1  1  0  0  0
 21 27  1  0  0  0  0
 21 22  1  0  0  0  0
 22 25  1  0  0  0  0
 23 24  1  0  0  0  0
 23 19  1  0  0  0  0
 24 20  1  0  0  0  0
 26 20  1  0  0  0  0
 26 25  1  0  0  0  0
 26 18  1  0  0  0  0
 27 23  2  0  0  0  0
 28 18  1  0  0  0  0
 29 30  1  0  0  0  0
 30 28  1  0  0  0  0
 32 31  1  1  0  0  0
 32 50  1  0  0  0  0
 33 34  1  6  0  0  0
 34 39  1  0  0  0  0
 35 36  2  0  0  0  0
 36 37  1  0  0  0  0
 36 33  1  0  0  0  0
 37 38  1  0  0  0  0
 38 32  1  6  0  0  0
 38 39  1  0  0  0  0
 40 46  1  0  0  0  0
 41 40  1  0  0  0  0
 41 46  1  0  0  0  0
 42 47  1  0  0  0  0
 42 46  1  0  0  0  0
 44 47  1  6  0  0  0
 44 33  1  0  0  0  0
 44 43  1  0  0  0  0
 45 43  2  0  0  0  0
 46 45  1  0  0  0  0
 48 51  1  0  0  0  0
 49 51  1  1  0  0  0
 49 52  1  0  0  0  0
 50 48  1  0  0  0  0
 50 49  1  0  0  0  0
 52 53  1  6  0  0  0
 52 55  1  0  0  0  0
 53 56  1  0  0  0  0
 54 57  2  0  0  0  0
 55 54  1  0  0  0  0
 56 54  1  0  0  0  0
M  END
>  <MODEL>
1

>  <REMARK>
 VINA RESULT:      -6.0      0.000      0.000
  Name = 
  14 active torsions:
  status: ('A' for Active; 'I' for Inactive)
    1  A    between atoms: C_5  and  C_34
    2  A    between atoms: C_10  and  C_14
    3  A    between atoms: C_11  and  C_26
    4  A    between atoms: C_11  and  C_38
    5  A    between atoms: C_16  and  C_56
    6  A    between atoms: S_22  and  C_36
    7  A    between atoms: C_26  and  N_37
    8  A    between atoms: C_26  and  C_51
    9  A    between atoms: C_28  and  O_40
   10  A    between atoms: C_28  and  C_41
   11  A    between atoms: C_28  and  N_47
   12  A    between atoms: C_29  and  C_43
   13  A    between atoms: C_36  and  C_44
   14  A    between atoms: O_40  and  C_48
                            x       y       z     vdW  Elec       q    Type
                         _______ _______ _______ _____ _____    ______ ____

>  <TORSDO>
F 14

$$$$
=
 OpenBabel11052410193D

 57 64  0  0  1  0  0  0  0  0999 V2000
  160.5840  214.4530  150.0230 C   0  0  0  0  0  2  0  0  0  0  0  0
  160.2580  213.3240  150.9960 C   0  0  2  0  0  3  0  0  0  0  0  0
  161.9770  214.2930  149.4100 C   0  0  0  0  0  2  0  0  0  0  0  0
  162.4650  212.8380  149.3300 C   0  0  0  0  0  2  0  0  0  0  0  0
  161.3260  211.8220  149.1700 C   0  0  1  0  0  3  0  0  0  0  0  0
  160.2790  211.9580  150.2840 C   0  0  1  0  0  3  0  0  0  0  0  0
  156.5860  214.1220  151.6240 C   0  0  0  0  0  3  0  0  0  0  0  0
  158.8820  213.4530  153.0750 C   0  0  0  0  0  3  0  0  0  0  0  0
  156.5220  214.0010  153.0150 C   0  0  0  0  0  3  0  0  0  0  0  0
  157.7990  213.9090  150.9580 C   0  0  0  0  0  3  0  0  0  0  0  0
  157.6700  213.6660  153.7410 C   0  0  0  0  0  3  0  0  0  0  0  0
  158.9520  213.5710  151.6830 C   0  0  0  0  0  0  0  0  0  0  0  0
  161.5150  212.2530  146.5000 S   0  0  0  0  0  0  0  0  0  0  0  0
  160.6600  211.9660  147.8380 C   0  0  0  0  0  2  0  0  0  0  0  0
  160.2390  212.6310  145.2940 C   0  0  0  0  0  2  0  0  0  0  0  0
  160.1080  213.0800  142.9030 C   0  0  0  0  0  3  0  0  0  0  0  0
  160.8620  213.0100  143.9960 C   0  0  0  0  0  3  0  0  0  0  0  0
  160.6480  213.4600  141.5430 C   0  0  2  0  0  3  0  0  0  0  0  0
  155.6920  214.4530  139.3600 F   0  0  0  0  0  0  0  0  0  0  0  0
  158.3490  213.2620  141.0520 C   0  0  0  0  0  2  0  0  0  0  0  0
  158.8450  213.4140  137.6810 C   0  0  0  0  0  2  0  0  0  0  0  0
  160.0260  214.0770  138.3930 C   0  0  0  0  0  2  0  0  0  0  0  0
  156.8540  213.7960  139.1180 C   0  0  0  0  0  0  0  0  0  0  0  0
  157.2990  212.7310  140.0820 C   0  0  0  0  0  2  0  0  0  0  0  0
  159.7170  214.4530  139.7140 O   0  0  0  0  0  0  0  0  0  0  0  0
  159.6800  213.3040  140.4440 N   0  0  0  0  0  0  0  0  0  0  0  0
  157.5490  214.0900  138.0110 C   0  0  0  0  0  3  0  0  0  0  0  0
  161.9200  212.9010  141.2700 O   0  0  0  0  0  0  0  0  0  0  0  0
  162.8910  211.4960  139.6070 C   0  0  0  0  0  1  0  0  0  0  0  0
  161.7610  211.6760  140.6020 C   0  0  0  0  0  2  0  0  0  0  0  0
  160.1930  210.7380  151.2180 C   0  0  0  0  0  2  0  0  0  0  0  0
  161.3630  209.7210  151.2110 C   0  0  2  0  0  3  0  0  0  0  0  0
  161.4350  206.2780  148.6200 C   0  0  2  0  0  3  0  0  0  0  0  0
  162.4580  207.3780  148.2860 C   0  0  0  0  0  2  0  0  0  0  0  0
  161.3920  205.0150  150.6910 O   0  0  0  0  0  0  0  0  0  0  0  0
  161.3910  206.1380  150.1220 C   0  0  0  0  0  0  0  0  0  0  0  0
  161.3790  207.3030  150.8840 O   0  0  0  0  0  0  0  0  0  0  0  0
  161.2520  208.5600  150.2270 C   0  0  2  0  0  3  0  0  0  0  0  0
  162.2710  208.6850  149.0880 C   0  0  0  0  0  2  0  0  0  0  0  0
  159.8520  201.9890  145.5510 C   0  0  0  0  0  2  0  0  0  0  0  0
  161.1380  201.2180  145.8200 C   0  0  0  0  0  2  0  0  0  0  0  0
  161.7000  203.7400  145.6860 C   0  0  0  0  0  2  0  0  0  0  0  0
  160.9730  203.8160  148.5230 C   0  0  0  0  0  3  0  0  0  0  0  0
  161.7300  204.9610  147.8810 C   0  0  1  0  0  3  0  0  0  0  0  0
  160.6410  202.7100  147.8420 C   0  0  0  0  0  3  0  0  0  0  0  0
  160.9530  202.6090  146.3780 C   0  0  0  0  0  0  0  0  0  0  0  0
  161.3850  205.0600  146.3850 C   0  0  0  0  0  2  0  0  0  0  0  0
  162.1830  207.9380  152.5490 N   0  0  0  0  0  2  0  0  0  0  0  0
  160.8490  209.1970  153.4890 C   0  0  1  0  0  3  0  0  0  0  0  0
  161.9280  209.3260  152.5170 N   0  0  0  0  0  0  0  0  0  0  0  0
  161.1390  207.7230  153.5400 C   0  0  0  0  0  2  0  0  0  0  0  0
  161.2360  209.8550  154.8080 C   0  0  1  0  0  3  0  0  0  0  0  0
  161.4870  211.3600  154.6060 C   0  0  0  0  0  2  0  0  0  0  0  0
  159.8710  211.1270  156.2270 C   0  0  0  0  0  0  0  0  0  0  0  0
  160.0890  209.7300  155.8150 C   0  0  0  0  0  2  0  0  0  0  0  0
  160.6650  212.0150  155.5510 O   0  0  0  0  0  0  0  0  0  0  0  0
  159.0400  211.4760  157.1060 O   0  0  0  0  0  0  0  0  0  0  0  0
  1  2  1  0  0  0  0
  2 12  1  6  0  0  0
  3  1  1  0  0  0  0
  4  3  1  0  0  0  0
  5 14  1  6  0  0  0
  5  4  1  0  0  0  0
  5  6  1  0  0  0  0
  6  2  1  0  0  0  0
  6 31  1  1  0  0  0
  7  9  1  0  0  0  0
  8 11  1  0  0  0  0
  9 11  2  0  0  0  0
 10  7  2  0  0  0  0
 10 12  1  0  0  0  0
 12  8  2  0  0  0  0
 13 14  1  0  0  0  0
 15 13  1  0  0  0  0
 16 17  2  0  0  0  0
 17 15  1  0  0  0  0
 18 16  1  1  0  0  0
 21 27  1  0  0  0  0
 21 22  1  0  0  0  0
 22 25  1  0  0  0  0
 23 19  1  0  0  0  0
 23 24  1  0  0  0  0
 24 20  1  0  0  0  0
 25 26  1  0  0  0  0
 26 20  1  0  0  0  0
 26 18  1  0  0  0  0
 27 23  2  0  0  0  0
 28 18  1  0  0  0  0
 29 30  1  0  0  0  0
 30 28  1  0  0  0  0
 32 31  1  1  0  0  0
 32 50  1  0  0  0  0
 33 34  1  1  0  0  0
 33 36  1  0  0  0  0
 34 39  1  0  0  0  0
 36 35  2  0  0  0  0
 36 37  1  0  0  0  0
 38 37  1  0  0  0  0
 38 32  1  1  0  0  0
 39 38  1  0  0  0  0
 40 41  1  0  0  0  0
 40 46  1  0  0  0  0
 41 46  1  0  0  0  0
 42 46  1  0  0  0  0
 42 47  1  0  0  0  0
 44 47  1  6  0  0  0
 44 43  1  0  0  0  0
 44 33  1  0  0  0  0
 45 43  2  0  0  0  0
 46 45  1  0  0  0  0
 48 51  1  0  0  0  0
 49 51  1  1  0  0  0
 49 52  1  0  0  0  0
 50 48  1  0  0  0  0
 50 49  1  0  0  0  0
 52 53  1  6  0  0  0
 52 55  1  0  0  0  0
 53 56  1  0  0  0  0
 54 57  2  0  0  0  0
 55 54  1  0  0  0  0
 56 54  1  0  0  0  0
M  END
>  <MODEL>
2

>  <REMARK>
 VINA RESULT:      -3.4      2.129      2.794
  Name = 
  14 active torsions:
  status: ('A' for Active; 'I' for Inactive)
    1  A    between atoms: C_5  and  C_34
    2  A    between atoms: C_10  and  C_14
    3  A    between atoms: C_11  and  C_26
    4  A    between atoms: C_11  and  C_38
    5  A    between atoms: C_16  and  C_56
    6  A    between atoms: S_22  and  C_36
    7  A    between atoms: C_26  and  N_37
    8  A    between atoms: C_26  and  C_51
    9  A    between atoms: C_28  and  O_40
   10  A    between atoms: C_28  and  C_41
   11  A    between atoms: C_28  and  N_47
   12  A    between atoms: C_29  and  C_43
   13  A    between atoms: C_36  and  C_44
   14  A    between atoms: O_40  and  C_48
                            x       y       z     vdW  Elec       q    Type
                         _______ _______ _______ _____ _____    ______ ____

>  <TORSDO>
F 14

$$$$
=
 OpenBabel11052410193D

 57 64  0  0  1  0  0  0  0  0999 V2000
  161.3370  213.2460  149.7490 C   0  0  0  0  0  2  0  0  0  0  0  0
  160.9710  212.1410  150.7370 C   0  0  2  0  0  3  0  0  0  0  0  0
  162.6120  212.9150  148.9710 C   0  0  0  0  0  2  0  0  0  0  0  0
  162.8760  211.4100  148.8090 C   0  0  0  0  0  2  0  0  0  0  0  0
  161.5950  210.5660  148.7710 C   0  0  1  0  0  3  0  0  0  0  0  0
  160.7150  210.8100  150.0050 C   0  0  1  0  0  3  0  0  0  0  0  0
  158.3390  214.2400  152.5200 C   0  0  0  0  0  3  0  0  0  0  0  0
  159.0490  211.5520  152.2160 C   0  0  0  0  0  3  0  0  0  0  0  0
  157.5890  213.2450  153.1520 C   0  0  0  0  0  3  0  0  0  0  0  0
  159.4450  213.8920  151.7360 C   0  0  0  0  0  3  0  0  0  0  0  0
  157.9430  211.9010  153.0000 C   0  0  0  0  0  3  0  0  0  0  0  0
  159.8020  212.5440  151.5790 C   0  0  0  0  0  0  0  0  0  0  0  0
  160.7210  212.3290  146.9060 S   0  0  0  0  0  0  0  0  0  0  0  0
  160.8050  210.8440  147.5310 C   0  0  0  0  0  2  0  0  0  0  0  0
  159.4410  212.1580  145.6580 C   0  0  0  0  0  2  0  0  0  0  0  0
  160.4560  212.4630  143.4660 C   0  0  0  0  0  3  0  0  0  0  0  0
  159.7700  212.9950  144.4730 C   0  0  0  0  0  3  0  0  0  0  0  0
  160.8340  213.2310  142.2190 C   0  0  2  0  0  3  0  0  0  0  0  0
  162.3290  208.4270  139.9840 F   0  0  0  0  0  0  0  0  0  0  0  0
  162.1820  211.5030  141.3450 C   0  0  0  0  0  2  0  0  0  0  0  0
  160.2940  211.1770  138.5240 C   0  0  0  0  0  2  0  0  0  0  0  0
  159.4400  211.8020  139.6290 C   0  0  0  0  0  2  0  0  0  0  0  0
  161.9210  209.6780  139.6540 C   0  0  0  0  0  0  0  0  0  0  0  0
  162.7540  210.8510  140.0920 C   0  0  0  0  0  2  0  0  0  0  0  0
  159.9710  211.5740  140.9130 O   0  0  0  0  0  0  0  0  0  0  0  0
  161.0560  212.3860  141.0330 N   0  0  0  0  0  0  0  0  0  0  0  0
  160.8110  209.8280  138.9190 C   0  0  0  0  0  3  0  0  0  0  0  0
  161.8530  214.1890  142.4400 O   0  0  0  0  0  0  0  0  0  0  0  0
  163.9200  214.3120  143.6220 C   0  0  0  0  0  1  0  0  0  0  0  0
  162.4460  213.9640  143.6920 C   0  0  0  0  0  2  0  0  0  0  0  0
  160.5680  209.5840  150.9230 C   0  0  0  0  0  2  0  0  0  0  0  0
  161.8230  208.7190  151.2060 C   0  0  2  0  0  3  0  0  0  0  0  0
  162.0020  205.3530  148.5220 C   0  0  2  0  0  3  0  0  0  0  0  0
  160.7030  205.4800  149.3380 C   0  0  0  0  0  2  0  0  0  0  0  0
  162.7840  206.9850  146.9060 O   0  0  0  0  0  0  0  0  0  0  0  0
  162.4000  206.7390  148.0800 C   0  0  0  0  0  0  0  0  0  0  0  0
  162.3030  207.7710  149.0090 O   0  0  0  0  0  0  0  0  0  0  0  0
  161.9880  207.4590  150.3620 C   0  0  2  0  0  3  0  0  0  0  0  0
  160.7470  206.5600  150.4390 C   0  0  0  0  0  2  0  0  0  0  0  0
  159.0260  201.9500  145.3780 C   0  0  0  0  0  2  0  0  0  0  0  0
  160.2620  201.2970  144.7740 C   0  0  0  0  0  2  0  0  0  0  0  0
  160.7660  203.8020  145.1770 C   0  0  0  0  0  2  0  0  0  0  0  0
  161.4770  202.9820  147.8990 C   0  0  0  0  0  3  0  0  0  0  0  0
  161.8710  204.3450  147.3670 C   0  0  1  0  0  3  0  0  0  0  0  0
  160.8290  202.0820  147.1450 C   0  0  0  0  0  3  0  0  0  0  0  0
  160.4050  202.4390  145.7500 C   0  0  0  0  0  0  0  0  0  0  0  0
  160.8600  204.8210  146.3100 C   0  0  0  0  0  2  0  0  0  0  0  0
  162.3160  207.1570  152.9270 N   0  0  0  0  0  2  0  0  0  0  0  0
  161.0410  208.6840  153.4670 C   0  0  1  0  0  3  0  0  0  0  0  0
  162.2160  208.5310  152.6170 N   0  0  0  0  0  0  0  0  0  0  0  0
  161.1640  207.2270  153.8150 C   0  0  0  0  0  2  0  0  0  0  0  0
  161.3690  209.5430  154.6820 C   0  0  1  0  0  3  0  0  0  0  0  0
  161.6710  210.9910  154.2530 C   0  0  0  0  0  2  0  0  0  0  0  0
  159.9590  211.0550  155.7880 C   0  0  0  0  0  0  0  0  0  0  0  0
  160.1620  209.6050  155.6250 C   0  0  0  0  0  2  0  0  0  0  0  0
  160.8140  211.8050  155.0260 O   0  0  0  0  0  0  0  0  0  0  0  0
  159.0880  211.5570  156.5460 O   0  0  0  0  0  0  0  0  0  0  0  0
  1  2  1  0  0  0  0
  2 12  1  6  0  0  0
  3  1  1  0  0  0  0
  4  3  1  0  0  0  0
  5 14  1  6  0  0  0
  5  4  1  0  0  0  0
  5  6  1  0  0  0  0
  6  2  1  0  0  0  0
  6 31  1  1  0  0  0
  7  9  1  0  0  0  0
  8 11  1  0  0  0  0
 10  7  2  0  0  0  0
 11  9  2  0  0  0  0
 12 10  1  0  0  0  0
 12  8  2  0  0  0  0
 13 14  1  0  0  0  0
 15 13  1  0  0  0  0
 16 17  2  0  0  0  0
 17 15  1  0  0  0  0
 18 28  1  0  0  0  0
 18 16  1  1  0  0  0
 21 27  1  0  0  0  0
 21 22  1  0  0  0  0
 22 25  1  0  0  0  0
 23 19  1  0  0  0  0
 23 24  1  0  0  0  0
 24 20  1  0  0  0  0
 25 26  1  0  0  0  0
 26 20  1  0  0  0  0
 26 18  1  0  0  0  0
 27 23  2  0  0  0  0
 28 30  1  0  0  0  0
 29 30  1  0  0  0  0
 32 31  1  1  0  0  0
 32 50  1  0  0  0  0
 33 34  1  6  0  0  0
 34 39  1  0  0  0  0
 35 36  2  0  0  0  0
 36 33  1  0  0  0  0
 36 37  1  0  0  0  0
 37 38  1  0  0  0  0
 38 39  1  0  0  0  0
 38 32  1  1  0  0  0
 40 46  1  0  0  0  0
 41 40  1  0  0  0  0
 41 46  1  0  0  0  0
 42 46  1  0  0  0  0
 42 47  1  0  0  0  0
 44 47  1  6  0  0  0
 44 43  1  0  0  0  0
 44 33  1  0  0  0  0
 45 43  2  0  0  0  0
 46 45  1  0  0  0  0
 48 51  1  0  0  0  0
 49 51  1  1  0  0  0
 49 52  1  0  0  0  0
 50 48  1  0  0  0  0
 50 49  1  0  0  0  0
 52 53  1  6  0  0  0
 52 55  1  0  0  0  0
 53 56  1  0  0  0  0
 54 57  2  0  0  0  0
 55 54  1  0  0  0  0
 56 54  1  0  0  0  0
M  END
>  <MODEL>
3

>  <REMARK>
 VINA RESULT:      -3.0      1.790      2.438
  Name = 
  14 active torsions:
  status: ('A' for Active; 'I' for Inactive)
    1  A    between atoms: C_5  and  C_34
    2  A    between atoms: C_10  and  C_14
    3  A    between atoms: C_11  and  C_26
    4  A    between atoms: C_11  and  C_38
    5  A    between atoms: C_16  and  C_56
    6  A    between atoms: S_22  and  C_36
    7  A    between atoms: C_26  and  N_37
    8  A    between atoms: C_26  and  C_51
    9  A    between atoms: C_28  and  O_40
   10  A    between atoms: C_28  and  C_41
   11  A    between atoms: C_28  and  N_47
   12  A    between atoms: C_29  and  C_43
   13  A    between atoms: C_36  and  C_44
   14  A    between atoms: O_40  and  C_48
                            x       y       z     vdW  Elec       q    Type
                         _______ _______ _______ _____ _____    ______ ____

>  <TORSDO>
F 14

$$$$
