=
 OpenBabel11042420433D

 27 31  0  0  1  0  0  0  0  0999 V2000
  161.1030  203.3830  149.6460 C   0  0  0  0  0  0  0  0  0  0  0  0
  160.5080  206.2090  147.8360 C   0  0  0  0  0  3  0  0  0  0  0  0
  161.3930  202.9020  148.3940 C   0  0  0  0  0  0  0  0  0  0  0  0
  160.6250  201.1430  150.3910 C   0  0  0  0  0  3  0  0  0  0  0  0
  161.3090  201.5450  148.0840 C   0  0  0  0  0  3  0  0  0  0  0  0
  160.9210  200.6590  149.1020 C   0  0  0  0  0  3  0  0  0  0  0  0
  161.7620  204.0260  147.5510 C   0  0  0  0  0  0  0  0  0  0  0  0
  160.4310  206.4450  146.5510 C   0  0  0  0  0  0  0  0  0  0  0  0
  160.7130  202.5160  150.6720 C   0  0  0  0  0  3  0  0  0  0  0  0
  160.4360  206.5010  145.2450 C   0  0  0  0  0  3  0  0  0  0  0  0
  161.2290  204.8080  149.7100 N   0  0  0  0  0  0  0  0  0  0  0  0
  161.5960  204.2170  144.9580 C   0  0  0  0  0  3  0  0  0  0  0  0
  160.9840  205.4230  144.4540 N   0  0  0  0  0  2  0  0  0  0  0  0
  161.7260  204.0220  146.2430 C   0  0  0  0  0  0  0  0  0  0  0  0
  161.5940  205.2970  148.3710 C   0  0  2  0  0  3  0  0  0  0  0  0
  161.0810  207.2390  153.1560 C   0  0  0  0  0  0  0  0  0  0  0  0
  161.3150  205.8790  153.3320 C   0  0  0  0  0  3  0  0  0  0  0  0
  160.9940  208.2180  154.1150 O   0  0  0  0  0  0  0  0  0  0  0  0
  160.9480  207.0220  150.7730 C   0  0  0  0  0  3  0  0  0  0  0  0
  160.6880  209.2480  152.1110 C   0  0  0  0  0  2  0  0  0  0  0  0
  161.3630  205.0750  152.1810 C   0  0  0  0  0  3  0  0  0  0  0  0
  160.7400  209.4710  153.5740 N   0  0  0  0  0  0  0  0  0  0  0  0
  160.9040  207.7890  151.9340 C   0  0  0  0  0  0  0  0  0  0  0  0
  161.1820  205.6340  150.8920 C   0  0  0  0  0  0  0  0  0  0  0  0
  161.9060  210.3000  153.8360 C   0  0  0  0  0  2  0  0  0  0  0  0
  162.7270  210.6700  155.8490 C   0  0  0  0  0  1  0  0  0  0  0  0
  161.6970  211.0520  154.9920 O   0  0  0  0  0  0  0  0  0  0  0  0
  1 11  1  0  0  0  0
  1  9  1  0  0  0  0
  3  1  2  0  0  0  0
  4  9  2  0  0  0  0
  5  3  1  0  0  0  0
  5  6  2  0  0  0  0
  6  4  1  0  0  0  0
  7 15  1  0  0  0  0
  7  3  1  0  0  0  0
  8  2  2  0  0  0  0
 10  8  2  0  0  0  0
 11 24  1  0  0  0  0
 12 14  2  0  0  0  0
 13 12  1  0  0  0  0
 13 10  1  0  0  0  0
 14  7  2  0  0  0  0
 15  2  1  6  0  0  0
 15 11  1  0  0  0  0
 16 17  1  0  0  0  0
 16 18  1  0  0  0  0
 19 24  2  0  0  0  0
 19 23  1  0  0  0  0
 20 22  1  0  0  0  0
 21 17  2  0  0  0  0
 22 25  1  0  0  0  0
 22 18  1  0  0  0  0
 23 20  1  0  0  0  0
 23 16  2  0  0  0  0
 24 21  1  0  0  0  0
 25 27  1  0  0  0  0
 27 26  1  0  0  0  0
M  END
>  <MODEL>
1

>  <REMARK>
 VINA RESULT:     -11.0      0.000      0.000
  Name = 
  3 active torsions:
  status: ('A' for Active; 'I' for Inactive)
    1  A    between atoms: O_14  and  C_17
    2  A    between atoms: C_17  and  N_24
    3  A    between atoms: N_20  and  C_27
                            x       y       z     vdW  Elec       q    Type
                         _______ _______ _______ _____ _____    ______ ____

>  <TORSDO>
F 3

$$$$
=
 OpenBabel11042420433D

 27 31  0  0  1  0  0  0  0  0999 V2000
  161.0820  203.7530  149.7180 C   0  0  0  0  0  0  0  0  0  0  0  0
  160.5320  206.3180  147.5420 C   0  0  0  0  0  3  0  0  0  0  0  0
  161.3560  203.1000  148.5420 C   0  0  0  0  0  0  0  0  0  0  0  0
  160.5650  201.6440  150.7610 C   0  0  0  0  0  3  0  0  0  0  0  0
  161.2440  201.7160  148.4190 C   0  0  0  0  0  3  0  0  0  0  0  0
  160.8440  200.9840  149.5490 C   0  0  0  0  0  3  0  0  0  0  0  0
  161.7410  204.0920  147.5530 C   0  0  0  0  0  0  0  0  0  0  0  0
  160.4520  206.3780  146.2370 C   0  0  0  0  0  0  0  0  0  0  0  0
  160.6810  203.0410  150.8540 C   0  0  0  0  0  3  0  0  0  0  0  0
  160.4510  206.2570  144.9360 C   0  0  0  0  0  3  0  0  0  0  0  0
  161.2360  205.1710  149.5880 N   0  0  0  0  0  0  0  0  0  0  0  0
  161.5650  203.9330  144.9590 C   0  0  0  0  0  3  0  0  0  0  0  0
  160.9730  205.0710  144.2980 N   0  0  0  0  0  2  0  0  0  0  0  0
  161.6980  203.9110  146.2580 C   0  0  0  0  0  0  0  0  0  0  0  0
  161.6030  205.4660  148.1930 C   0  0  2  0  0  3  0  0  0  0  0  0
  161.1700  208.0220  152.6970 C   0  0  0  0  0  0  0  0  0  0  0  0
  161.1440  208.4910  151.3880 C   0  0  0  0  0  3  0  0  0  0  0  0
  161.1530  208.7500  153.8610 O   0  0  0  0  0  0  0  0  0  0  0  0
  161.2350  205.7320  151.9950 C   0  0  0  0  0  3  0  0  0  0  0  0
  161.2230  206.5610  154.4700 C   0  0  0  0  0  2  0  0  0  0  0  0
  161.1660  207.5360  150.3560 C   0  0  0  0  0  3  0  0  0  0  0  0
  161.2000  207.9460  154.9920 N   0  0  0  0  0  0  0  0  0  0  0  0
  161.2140  206.7040  152.9910 C   0  0  0  0  0  0  0  0  0  0  0  0
  161.2110  206.1500  150.6460 C   0  0  0  0  0  0  0  0  0  0  0  0
  159.9370  208.1150  155.6940 C   0  0  0  0  0  2  0  0  0  0  0  0
  160.1140  209.8280  157.0710 C   0  0  0  0  0  1  0  0  0  0  0  0
  159.6410  209.4720  155.8100 O   0  0  0  0  0  0  0  0  0  0  0  0
  1  9  1  0  0  0  0
  3  1  2  0  0  0  0
  4  9  2  0  0  0  0
  5  3  1  0  0  0  0
  5  6  2  0  0  0  0
  6  4  1  0  0  0  0
  7 15  1  0  0  0  0
  7  3  1  0  0  0  0
  8  2  2  0  0  0  0
 10  8  2  0  0  0  0
 11  1  1  0  0  0  0
 11 24  1  0  0  0  0
 12 14  2  0  0  0  0
 13 10  1  0  0  0  0
 13 12  1  0  0  0  0
 14  7  2  0  0  0  0
 15  2  1  6  0  0  0
 15 11  1  0  0  0  0
 16 23  1  0  0  0  0
 16 18  1  0  0  0  0
 17 16  2  0  0  0  0
 18 22  1  0  0  0  0
 19 23  2  0  0  0  0
 20 22  1  0  0  0  0
 21 24  2  0  0  0  0
 21 17  1  0  0  0  0
 22 25  1  0  0  0  0
 23 20  1  0  0  0  0
 24 19  1  0  0  0  0
 25 27  1  0  0  0  0
 27 26  1  0  0  0  0
M  END
>  <MODEL>
2

>  <REMARK>
 VINA RESULT:     -10.8      1.153      1.673
  Name = 
  3 active torsions:
  status: ('A' for Active; 'I' for Inactive)
    1  A    between atoms: O_14  and  C_17
    2  A    between atoms: C_17  and  N_24
    3  A    between atoms: N_20  and  C_27
                            x       y       z     vdW  Elec       q    Type
                         _______ _______ _______ _____ _____    ______ ____

>  <TORSDO>
F 3

$$$$
=
 OpenBabel11042420433D

 27 31  0  0  1  0  0  0  0  0999 V2000
  161.2010  204.4500  150.0640 C   0  0  0  0  0  0  0  0  0  0  0  0
  160.6470  206.5200  147.4140 C   0  0  0  0  0  3  0  0  0  0  0  0
  161.3400  203.5390  149.0470 C   0  0  0  0  0  0  0  0  0  0  0  0
  160.6350  202.6650  151.5790 C   0  0  0  0  0  3  0  0  0  0  0  0
  161.1300  202.1740  149.2410 C   0  0  0  0  0  3  0  0  0  0  0  0
  160.7750  201.7390  150.5280 C   0  0  0  0  0  3  0  0  0  0  0  0
  161.7090  204.2590  147.8410 C   0  0  0  0  0  0  0  0  0  0  0  0
  160.4690  206.3030  146.1360 C   0  0  0  0  0  0  0  0  0  0  0  0
  160.8470  204.0350  151.3520 C   0  0  0  0  0  3  0  0  0  0  0  0
  160.3580  205.9040  144.8960 C   0  0  0  0  0  3  0  0  0  0  0  0
  161.4350  205.7890  149.6140 N   0  0  0  0  0  0  0  0  0  0  0  0
  161.3190  203.5580  145.3630 C   0  0  0  0  0  3  0  0  0  0  0  0
  160.7510  204.5700  144.5050 N   0  0  0  0  0  2  0  0  0  0  0  0
  161.5520  203.8070  146.6240 C   0  0  0  0  0  0  0  0  0  0  0  0
  161.7100  205.7460  148.1690 C   0  0  2  0  0  3  0  0  0  0  0  0
  161.7880  209.2410  152.0150 C   0  0  0  0  0  0  0  0  0  0  0  0
  162.2130  209.3250  150.6930 C   0  0  0  0  0  3  0  0  0  0  0  0
  161.8010  210.2220  152.9750 O   0  0  0  0  0  0  0  0  0  0  0  0
  161.1400  206.9470  151.7780 C   0  0  0  0  0  3  0  0  0  0  0  0
  160.9220  208.3690  153.9560 C   0  0  0  0  0  2  0  0  0  0  0  0
  162.0930  208.1730  149.8980 C   0  0  0  0  0  3  0  0  0  0  0  0
  161.3070  209.7780  154.1950 N   0  0  0  0  0  0  0  0  0  0  0  0
  161.2760  208.1060  152.5380 C   0  0  0  0  0  0  0  0  0  0  0  0
  161.5560  206.9740  150.4290 C   0  0  0  0  0  0  0  0  0  0  0  0
  160.0810  210.5160  154.4590 C   0  0  0  0  0  2  0  0  0  0  0  0
  161.2890  211.2090  156.1690 C   0  0  0  0  0  1  0  0  0  0  0  0
  160.3690  211.6490  155.2190 O   0  0  0  0  0  0  0  0  0  0  0  0
  1  9  1  0  0  0  0
  3  5  1  0  0  0  0
  3  1  2  0  0  0  0
  5  6  2  0  0  0  0
  6  4  1  0  0  0  0
  7 15  1  0  0  0  0
  7  3  1  0  0  0  0
  8  2  2  0  0  0  0
  9  4  2  0  0  0  0
 10  8  2  0  0  0  0
 11  1  1  0  0  0  0
 11 24  1  0  0  0  0
 12 14  2  0  0  0  0
 13 10  1  0  0  0  0
 13 12  1  0  0  0  0
 14  7  2  0  0  0  0
 15  2  1  6  0  0  0
 15 11  1  0  0  0  0
 16 23  1  0  0  0  0
 16 18  1  0  0  0  0
 17 16  2  0  0  0  0
 18 22  1  0  0  0  0
 19 23  2  0  0  0  0
 20 22  1  0  0  0  0
 21 24  2  0  0  0  0
 21 17  1  0  0  0  0
 22 25  1  0  0  0  0
 23 20  1  0  0  0  0
 24 19  1  0  0  0  0
 25 27  1  0  0  0  0
 27 26  1  0  0  0  0
M  END
>  <MODEL>
3

>  <REMARK>
 VINA RESULT:     -10.7      1.173      1.740
  Name = 
  3 active torsions:
  status: ('A' for Active; 'I' for Inactive)
    1  A    between atoms: O_14  and  C_17
    2  A    between atoms: C_17  and  N_24
    3  A    between atoms: N_20  and  C_27
                            x       y       z     vdW  Elec       q    Type
                         _______ _______ _______ _____ _____    ______ ____

>  <TORSDO>
F 3

$$$$
=
 OpenBabel11042420433D

 27 31  0  0  1  0  0  0  0  0999 V2000
  161.5290  206.4750  149.8480 C   0  0  0  0  0  0  0  0  0  0  0  0
  161.4480  203.6160  151.7020 C   0  0  0  0  0  3  0  0  0  0  0  0
  161.2830  205.5740  148.8430 C   0  0  0  0  0  0  0  0  0  0  0  0
  162.4880  207.9940  148.2440 C   0  0  0  0  0  3  0  0  0  0  0  0
  161.6270  205.8310  147.5170 C   0  0  0  0  0  3  0  0  0  0  0  0
  162.2360  207.0610  147.2210 C   0  0  0  0  0  3  0  0  0  0  0  0
  160.6540  204.4030  149.4280 C   0  0  0  0  0  0  0  0  0  0  0  0
  161.4150  202.3470  151.3830 C   0  0  0  0  0  0  0  0  0  0  0  0
  162.1350  207.7050  149.5730 C   0  0  0  0  0  3  0  0  0  0  0  0
  161.3350  201.1430  150.8810 C   0  0  0  0  0  3  0  0  0  0  0  0
  161.1180  205.9730  151.1250 N   0  0  0  0  0  0  0  0  0  0  0  0
  160.6530  201.9560  148.5320 C   0  0  0  0  0  3  0  0  0  0  0  0
  160.9820  200.9340  149.4960 N   0  0  0  0  0  2  0  0  0  0  0  0
  160.6270  203.2160  148.8790 C   0  0  0  0  0  0  0  0  0  0  0  0
  160.5970  204.6090  150.9360 C   0  0  2  0  0  3  0  0  0  0  0  0
  160.9190  208.1230  154.7500 C   0  0  0  0  0  0  0  0  0  0  0  0
  161.0050  206.7360  154.8230 C   0  0  0  0  0  3  0  0  0  0  0  0
  160.8470  209.0250  155.7820 O   0  0  0  0  0  0  0  0  0  0  0  0
  160.9650  208.1110  152.3550 C   0  0  0  0  0  3  0  0  0  0  0  0
  160.8100  210.2380  153.8600 C   0  0  0  0  0  2  0  0  0  0  0  0
  161.0710  206.0260  153.6130 C   0  0  0  0  0  3  0  0  0  0  0  0
  160.7610  210.3370  155.3360 N   0  0  0  0  0  0  0  0  0  0  0  0
  160.8990  208.7840  153.5720 C   0  0  0  0  0  0  0  0  0  0  0  0
  161.0530  206.7020  152.3680 C   0  0  0  0  0  0  0  0  0  0  0  0
  161.9760  211.0170  155.7580 C   0  0  0  0  0  2  0  0  0  0  0  0
  163.5890  210.9950  157.2610 C   0  0  0  0  0  1  0  0  0  0  0  0
  162.7560  210.1540  156.5250 O   0  0  0  0  0  0  0  0  0  0  0  0
  1 11  1  0  0  0  0
  3  7  1  0  0  0  0
  3  1  2  0  0  0  0
  4  9  2  0  0  0  0
  5  3  1  0  0  0  0
  6  5  2  0  0  0  0
  6  4  1  0  0  0  0
  7 15  1  0  0  0  0
  8  2  2  0  0  0  0
  9  1  1  0  0  0  0
 10  8  2  0  0  0  0
 11 24  1  0  0  0  0
 12 14  2  0  0  0  0
 12 13  1  0  0  0  0
 13 10  1  0  0  0  0
 14  7  2  0  0  0  0
 15 11  1  0  0  0  0
 15  2  1  1  0  0  0
 16 17  1  0  0  0  0
 16 18  1  0  0  0  0
 19 24  2  0  0  0  0
 19 23  1  0  0  0  0
 20 22  1  0  0  0  0
 21 17  2  0  0  0  0
 22 25  1  0  0  0  0
 22 18  1  0  0  0  0
 23 20  1  0  0  0  0
 23 16  2  0  0  0  0
 24 21  1  0  0  0  0
 25 27  1  0  0  0  0
 27 26  1  0  0  0  0
M  END
>  <MODEL>
4

>  <REMARK>
 VINA RESULT:      -9.4      1.973      3.966
  Name = 
  3 active torsions:
  status: ('A' for Active; 'I' for Inactive)
    1  A    between atoms: O_14  and  C_17
    2  A    between atoms: C_17  and  N_24
    3  A    between atoms: N_20  and  C_27
                            x       y       z     vdW  Elec       q    Type
                         _______ _______ _______ _____ _____    ______ ____

>  <TORSDO>
F 3

$$$$
=
 OpenBabel11042420433D

 27 31  0  0  1  0  0  0  0  0999 V2000
  161.7070  205.5980  147.8020 C   0  0  0  0  0  0  0  0  0  0  0  0
  161.6900  204.3500  150.9730 C   0  0  0  0  0  3  0  0  0  0  0  0
  161.3370  204.3060  147.5230 C   0  0  0  0  0  0  0  0  0  0  0  0
  162.5700  205.8280  145.5650 C   0  0  0  0  0  3  0  0  0  0  0  0
  161.5670  203.7220  146.2780 C   0  0  0  0  0  3  0  0  0  0  0  0
  162.1910  204.5000  145.2900 C   0  0  0  0  0  3  0  0  0  0  0  0
  160.7200  203.7450  148.7120 C   0  0  0  0  0  0  0  0  0  0  0  0
  161.5800  203.1380  151.4530 C   0  0  0  0  0  0  0  0  0  0  0  0
  162.3310  206.3880  146.8300 C   0  0  0  0  0  3  0  0  0  0  0  0
  161.4110  201.8760  151.7510 C   0  0  0  0  0  3  0  0  0  0  0  0
  161.3970  205.9610  149.1520 N   0  0  0  0  0  0  0  0  0  0  0  0
  160.5460  201.2400  149.4070 C   0  0  0  0  0  3  0  0  0  0  0  0
  160.9240  200.9370  150.7670 N   0  0  0  0  0  2  0  0  0  0  0  0
  160.6000  202.4660  148.9580 C   0  0  0  0  0  0  0  0  0  0  0  0
  160.8100  204.7870  149.8190 C   0  0  2  0  0  3  0  0  0  0  0  0
  161.6180  209.7980  150.8920 C   0  0  0  0  0  0  0  0  0  0  0  0
  161.9800  209.6710  149.5540 C   0  0  0  0  0  3  0  0  0  0  0  0
  161.6060  210.9330  151.6650 O   0  0  0  0  0  0  0  0  0  0  0  0
  161.1170  207.4640  151.0940 C   0  0  0  0  0  3  0  0  0  0  0  0
  160.8950  209.2340  152.9990 C   0  0  0  0  0  2  0  0  0  0  0  0
  161.9050  208.3910  148.9800 C   0  0  0  0  0  3  0  0  0  0  0  0
  161.1950  210.6840  152.9670 N   0  0  0  0  0  0  0  0  0  0  0  0
  161.2060  208.7450  151.6310 C   0  0  0  0  0  0  0  0  0  0  0  0
  161.4730  207.2750  149.7400 C   0  0  0  0  0  0  0  0  0  0  0  0
  159.9350  211.3830  153.1640 C   0  0  0  0  0  2  0  0  0  0  0  0
  158.5740  212.7270  152.0660 C   0  0  0  0  0  1  0  0  0  0  0  0
  159.9160  212.5450  152.3930 O   0  0  0  0  0  0  0  0  0  0  0  0
  1 11  1  0  0  0  0
  2  8  2  0  0  0  0
  3  1  1  0  0  0  0
  3  7  1  0  0  0  0
  4  9  1  0  0  0  0
  5  3  2  0  0  0  0
  6  4  2  0  0  0  0
  6  5  1  0  0  0  0
  7 14  2  0  0  0  0
  7 15  1  0  0  0  0
  8 10  2  0  0  0  0
  9  1  2  0  0  0  0
 11 24  1  0  0  0  0
 11 15  1  0  0  0  0
 12 13  1  0  0  0  0
 13 10  1  0  0  0  0
 14 12  2  0  0  0  0
 15  2  1  1  0  0  0
 16 23  1  0  0  0  0
 16 18  1  0  0  0  0
 17 16  2  0  0  0  0
 18 22  1  0  0  0  0
 19 23  2  0  0  0  0
 21 17  1  0  0  0  0
 21 24  2  0  0  0  0
 22 20  1  0  0  0  0
 22 25  1  0  0  0  0
 23 20  1  0  0  0  0
 24 19  1  0  0  0  0
 26 27  1  0  0  0  0
 27 25  1  0  0  0  0
M  END
>  <MODEL>
5

>  <REMARK>
 VINA RESULT:      -8.8      1.973      4.275
  Name = 
  3 active torsions:
  status: ('A' for Active; 'I' for Inactive)
    1  A    between atoms: O_14  and  C_17
    2  A    between atoms: C_17  and  N_24
    3  A    between atoms: N_20  and  C_27
                            x       y       z     vdW  Elec       q    Type
                         _______ _______ _______ _____ _____    ______ ____

>  <TORSDO>
F 3

$$$$
=
 OpenBabel11042420433D

 27 31  0  0  1  0  0  0  0  0999 V2000
  161.2410  205.3210  149.9880 C   0  0  0  0  0  0  0  0  0  0  0  0
  160.7600  206.2050  146.7320 C   0  0  0  0  0  3  0  0  0  0  0  0
  161.3140  204.0770  149.4140 C   0  0  0  0  0  0  0  0  0  0  0  0
  160.6010  204.3140  152.0800 C   0  0  0  0  0  3  0  0  0  0  0  0
  161.0330  202.9130  150.1300 C   0  0  0  0  0  3  0  0  0  0  0  0
  160.6750  203.0420  151.4820 C   0  0  0  0  0  3  0  0  0  0  0  0
  161.7030  204.2410  148.0250 C   0  0  0  0  0  0  0  0  0  0  0  0
  160.5500  205.5120  145.6420 C   0  0  0  0  0  0  0  0  0  0  0  0
  160.8840  205.4690  151.3330 C   0  0  0  0  0  3  0  0  0  0  0  0
  160.3990  204.6630  144.6600 C   0  0  0  0  0  3  0  0  0  0  0  0
  161.5400  206.3590  149.0480 N   0  0  0  0  0  0  0  0  0  0  0  0
  161.2380  202.6410  146.0220 C   0  0  0  0  0  3  0  0  0  0  0  0
  160.7130  203.2630  144.8300 N   0  0  0  0  0  2  0  0  0  0  0  0
  161.5040  203.3540  147.0840 C   0  0  0  0  0  0  0  0  0  0  0  0
  161.7900  205.7340  147.7390 C   0  0  2  0  0  3  0  0  0  0  0  0
  162.1080  210.4610  149.8560 C   0  0  0  0  0  0  0  0  0  0  0  0
  162.3320  209.5600  150.8920 C   0  0  0  0  0  3  0  0  0  0  0  0
  162.2300  211.8290  149.8790 O   0  0  0  0  0  0  0  0  0  0  0  0
  161.5260  208.7200  148.3170 C   0  0  0  0  0  3  0  0  0  0  0  0
  161.5830  211.2720  147.7710 C   0  0  0  0  0  2  0  0  0  0  0  0
  162.1420  208.1950  150.6170 C   0  0  0  0  0  3  0  0  0  0  0  0
  161.9140  212.4100  148.6580 N   0  0  0  0  0  0  0  0  0  0  0  0
  161.7220  210.0640  148.6240 C   0  0  0  0  0  0  0  0  0  0  0  0
  161.7380  207.7600  149.3300 C   0  0  0  0  0  0  0  0  0  0  0  0
  163.1320  213.0140  148.1390 C   0  0  0  0  0  2  0  0  0  0  0  0
  162.3960  214.4530  146.6400 C   0  0  0  0  0  1  0  0  0  0  0  0
  162.9270  214.3760  147.9260 O   0  0  0  0  0  0  0  0  0  0  0  0
  1  9  1  0  0  0  0
  3  1  2  0  0  0  0
  3  5  1  0  0  0  0
  5  6  2  0  0  0  0
  6  4  1  0  0  0  0
  7  3  1  0  0  0  0
  8  2  2  0  0  0  0
  9  4  2  0  0  0  0
 10 13  1  0  0  0  0
 10  8  2  0  0  0  0
 11 24  1  0  0  0  0
 11  1  1  0  0  0  0
 12 14  2  0  0  0  0
 13 12  1  0  0  0  0
 14  7  2  0  0  0  0
 15  2  1  6  0  0  0
 15  7  1  0  0  0  0
 15 11  1  0  0  0  0
 16 18  1  0  0  0  0
 16 17  1  0  0  0  0
 19 23  1  0  0  0  0
 19 24  2  0  0  0  0
 20 23  1  0  0  0  0
 20 22  1  0  0  0  0
 21 17  2  0  0  0  0
 22 18  1  0  0  0  0
 23 16  2  0  0  0  0
 24 21  1  0  0  0  0
 25 22  1  0  0  0  0
 26 27  1  0  0  0  0
 27 25  1  0  0  0  0
M  END
>  <MODEL>
6

>  <REMARK>
 VINA RESULT:      -8.5      3.349      4.077
  Name = 
  3 active torsions:
  status: ('A' for Active; 'I' for Inactive)
    1  A    between atoms: O_14  and  C_17
    2  A    between atoms: C_17  and  N_24
    3  A    between atoms: N_20  and  C_27
                            x       y       z     vdW  Elec       q    Type
                         _______ _______ _______ _____ _____    ______ ____

>  <TORSDO>
F 3

$$$$
