=
 OpenBabel11052411443D

 42 48  0  0  1  0  0  0  0  0999 V2000
  161.0800  210.6420  151.2730 C   0  0  0  0  0  0  0  0  0  0  0  0
  162.0410  210.3370  150.4580 N   0  0  0  0  0  0  0  0  0  0  0  0
  161.6960  212.3840  149.0940 C   0  0  2  0  0  0  0  0  0  0  0  0
  160.1460  212.3510  146.7600 C   0  0  2  0  0  3  0  0  0  0  0  0
  160.2500  213.5340  147.6180 C   0  0  0  0  0  2  0  0  0  0  0  0
  162.4560  211.1400  149.3000 C   0  0  2  0  0  3  0  0  0  0  0  0
  161.3640  211.2030  148.3070 N   0  0  2  0  0  0  0  0  0  0  0  0
  161.4240  212.5250  147.6130 C   0  0  2  0  0  0  0  0  0  0  0  0
  160.3000  211.8650  151.0500 C   0  0  0  0  0  0  0  0  0  0  0  0
  160.5860  212.6250  150.0380 N   0  0  0  0  0  0  0  0  0  0  0  0
  159.3770  212.5460  144.2880 C   0  0  0  0  0  1  0  0  0  0  0  0
  161.5130  213.1770  145.0200 O   0  0  0  0  0  0  0  0  0  0  0  0
  160.4320  212.7070  145.3320 C   0  0  0  0  0  0  0  0  0  0  0  0
  159.1480  212.2100  151.9400 C   0  0  2  0  0  3  0  0  0  0  0  0
  158.0790  212.6990  151.1850 O   0  0  0  0  0  1  0  0  0  0  0  0
  158.2210  214.1070  154.4440 C   0  0  0  0  0  2  0  0  0  0  0  0
  158.7420  214.4500  153.0610 C   0  0  0  0  0  2  0  0  0  0  0  0
  159.5770  213.1800  153.0570 C   0  0  1  0  0  3  0  0  0  0  0  0
  159.1020  212.8690  154.4860 C   0  0  2  0  0  3  0  0  0  0  0  0
  158.8920  210.4800  155.4250 N   0  0  0  0  0  2  0  0  0  0  0  0
  158.3180  211.5930  154.7310 C   0  0  0  0  0  0  0  0  0  0  0  0
  157.1850  211.4410  154.2030 O   0  0  0  0  0  0  0  0  0  0  0  0
  160.2700  210.4370  155.8890 C   0  0  0  0  0  2  0  0  0  0  0  0
  160.3300  209.7210  157.2210 C   0  0  0  0  0  2  0  0  0  0  0  0
  160.0090  207.2340  156.9650 N   0  0  0  0  0  1  0  0  0  0  0  0
  162.1270  208.1880  156.9130 O   0  0  0  0  0  0  0  0  0  0  0  0
  160.8830  208.3520  157.0340 C   0  0  0  0  0  0  0  0  0  0  0  0
  160.7690  209.7220  152.4120 C   0  0  0  0  0  2  0  0  0  0  0  0
  161.4250  208.3620  152.2260 C   0  0  2  0  0  3  0  0  0  0  0  0
  161.1600  205.4470  151.9830 C   0  0  0  0  0  2  0  0  0  0  0  0
  160.8620  207.7120  150.9640 C   0  0  0  0  0  2  0  0  0  0  0  0
  161.1480  207.4750  153.4400 C   0  0  0  0  0  2  0  0  0  0  0  0
  161.4560  206.3180  150.7620 C   0  0  2  0  0  3  0  0  0  0  0  0
  161.7470  206.0870  153.2360 C   0  0  0  0  0  2  0  0  0  0  0  0
  160.8870  206.6900  148.3810 C   0  0  0  0  0  2  0  0  0  0  0  0
  161.9120  205.5720  148.4320 C   0  0  1  0  0  3  0  0  0  0  0  0
  160.8510  205.6920  149.5180 C   0  0  1  0  0  3  0  0  0  0  0  0
  161.5440  204.4920  147.4590 C   0  0  0  0  0  0  0  0  0  0  0  0
  161.2830  203.3030  147.8930 N   0  0  0  0  0  2  0  0  0  0  0  0
  161.6580  204.7290  146.0100 C   0  0  0  0  0  0  0  0  0  0  0  0
  160.6030  205.3010  145.3070 O   0  0  0  0  0  0  0  0  0  0  0  0
  162.7150  204.4230  145.3970 O   0  0  0  0  0  1  0  0  0  0  0  0
  1 28  1  0  0  0  0
  2  1  2  0  0  0  0
  3  6  1  0  0  0  0
  3 10  1  1  0  0  0
  4 13  1  6  0  0  0
  4  8  1  0  0  0  0
  4  5  1  0  0  0  0
  6  2  1  1  0  0  0
  7  3  1  0  0  0  0
  7  6  1  0  0  0  0
  8  5  1  0  0  0  0
  8  7  1  0  0  0  0
  8  3  1  0  0  0  0
  9  1  1  0  0  0  0
  9 14  1  0  0  0  0
 10  9  2  0  0  0  0
 11 13  1  0  0  0  0
 12 13  2  0  0  0  0
 14 18  1  0  0  0  0
 15 14  1  0  0  0  0
 16 19  1  0  0  0  0
 17 16  1  0  0  0  0
 18 17  1  0  0  0  0
 18 19  1  0  0  0  0
 19 21  1  0  0  0  0
 20 23  1  0  0  0  0
 21 20  1  0  0  0  0
 22 21  2  0  0  0  0
 23 24  1  0  0  0  0
 25 27  1  0  0  0  0
 26 27  2  0  0  0  0
 27 24  1  0  0  0  0
 29 28  1  0  0  0  0
 29 32  1  0  0  0  0
 30 34  1  0  0  0  0
 31 29  1  0  0  0  0
 33 31  1  0  0  0  0
 33 30  1  0  0  0  0
 34 32  1  0  0  0  0
 35 36  1  0  0  0  0
 35 37  1  0  0  0  0
 36 37  1  0  0  0  0
 37 33  1  0  0  0  0
 38 39  2  0  0  0  0
 38 36  1  0  0  0  0
 40 38  1  0  0  0  0
 41 40  2  0  0  0  0
 42 40  1  0  0  0  0
M  END
>  <MODEL>
1

>  <REMARK>
 VINA RESULT:      -7.2      0.000      0.000
  Name = 
  12 active torsions:
  status: ('A' for Active; 'I' for Inactive)
    1  A    between atoms: N_1  and  C_38
    2  A    between atoms: C_2  and  C_23
    3  A    between atoms: C_2  and  C_38
    4  A    between atoms: C_3  and  C_32
    5  A    between atoms: C_5  and  CA_30
    6  A    between atoms: C_6  and  CA_30
    7  A    between atoms: C_8  and  C_33
    8  A    between atoms: C_8  and  C_37
    9  A    between atoms: C_10  and  C_32
   10  A    between atoms: C_13  and  C_28
   11  A    between atoms: C_17  and  C_34
   12  A    between atoms: C_22  and  C_36
                            x       y       z     vdW  Elec       q    Type
                         _______ _______ _______ _____ _____    ______ ____

>  <TORSDO>
F 12

$$$$
=
 OpenBabel11052411443D

 42 48  0  0  1  0  0  0  0  0999 V2000
  161.4960  208.3460  151.1150 C   0  0  0  0  0  0  0  0  0  0  0  0
  161.9290  208.1230  149.9130 N   0  0  0  0  0  0  0  0  0  0  0  0
  162.4370  210.5220  149.5200 C   0  0  2  0  0  0  0  0  0  0  0  0
  160.6310  212.2100  148.2020 C   0  0  2  0  0  3  0  0  0  0  0  0
  161.5450  212.6930  149.2410 C   0  0  0  0  0  2  0  0  0  0  0  0
  162.4350  209.1480  148.9910 C   0  0  2  0  0  3  0  0  0  0  0  0
  161.3560  210.0950  148.6420 N   0  0  2  0  0  0  0  0  0  0  0  0
  161.9570  211.4450  148.4230 C   0  0  2  0  0  0  0  0  0  0  0  0
  161.4670  209.7200  151.6320 C   0  0  0  0  0  0  0  0  0  0  0  0
  161.8780  210.6910  150.8760 N   0  0  0  0  0  0  0  0  0  0  0  0
  159.8990  214.2940  146.8370 C   0  0  0  0  0  1  0  0  0  0  0  0
  161.5290  212.7810  146.0930 O   0  0  0  0  0  0  0  0  0  0  0  0
  160.7310  213.0620  146.9720 C   0  0  0  0  0  0  0  0  0  0  0  0
  160.9160  210.0140  152.9920 C   0  0  2  0  0  3  0  0  0  0  0  0
  160.3460  211.2880  153.0210 O   0  0  0  0  0  1  0  0  0  0  0  0
  161.7080  210.3010  156.1570 C   0  0  0  0  0  2  0  0  0  0  0  0
  162.1700  211.0660  154.9310 C   0  0  0  0  0  2  0  0  0  0  0  0
  161.9890  209.8200  154.0810 C   0  0  1  0  0  3  0  0  0  0  0  0
  161.5860  209.0280  155.3360 C   0  0  2  0  0  3  0  0  0  0  0  0
  159.0570  209.1830  155.7920 N   0  0  0  0  0  2  0  0  0  0  0  0
  160.1990  208.4150  155.3970 C   0  0  0  0  0  0  0  0  0  0  0  0
  160.0520  207.1760  155.2310 O   0  0  0  0  0  0  0  0  0  0  0  0
  159.1220  210.5680  156.2310 C   0  0  0  0  0  2  0  0  0  0  0  0
  158.0010  211.3530  155.5850 C   0  0  0  0  0  2  0  0  0  0  0  0
  159.5040  213.3740  155.6950 N   0  0  0  0  0  1  0  0  0  0  0  0
  157.2230  213.5460  156.0950 O   0  0  0  0  0  0  0  0  0  0  0  0
  158.2060  212.8090  155.8160 C   0  0  0  0  0  0  0  0  0  0  0  0
  161.0070  207.1980  151.9410 C   0  0  0  0  0  2  0  0  0  0  0  0
  161.4760  205.8660  151.3760 C   0  0  2  0  0  3  0  0  0  0  0  0
  160.8180  203.2310  150.2560 C   0  0  0  0  0  2  0  0  0  0  0  0
  160.9290  205.7120  149.9590 C   0  0  0  0  0  2  0  0  0  0  0  0
  160.9780  204.7180  152.2560 C   0  0  0  0  0  2  0  0  0  0  0  0
  161.3330  204.3630  149.3650 C   0  0  2  0  0  3  0  0  0  0  0  0
  161.3870  203.3740  151.6630 C   0  0  0  0  0  2  0  0  0  0  0  0
  161.4310  205.2120  147.0420 C   0  0  0  0  0  2  0  0  0  0  0  0
  161.8170  203.7450  147.0040 C   0  0  1  0  0  3  0  0  0  0  0  0
  160.7470  204.2340  147.9700 C   0  0  1  0  0  3  0  0  0  0  0  0
  161.1850  203.0780  145.8180 C   0  0  0  0  0  0  0  0  0  0  0  0
  160.8810  203.7810  144.7770 N   0  0  0  0  0  2  0  0  0  0  0  0
  160.7440  201.6750  145.9040 C   0  0  0  0  0  0  0  0  0  0  0  0
  159.9860  201.1150  144.8830 O   0  0  0  0  0  0  0  0  0  0  0  0
  161.0580  200.9700  146.9000 O   0  0  0  0  0  1  0  0  0  0  0  0
  1  9  1  0  0  0  0
  1 28  1  0  0  0  0
  2  1  2  0  0  0  0
  3 10  1  1  0  0  0
  4 13  1  6  0  0  0
  4  8  1  0  0  0  0
  4  5  1  0  0  0  0
  6  3  1  0  0  0  0
  6  2  1  1  0  0  0
  7  6  1  0  0  0  0
  7  3  1  0  0  0  0
  8  7  1  0  0  0  0
  8  5  1  0  0  0  0
  8  3  1  0  0  0  0
  9 14  1  0  0  0  0
 10  9  2  0  0  0  0
 11 13  1  0  0  0  0
 12 13  2  0  0  0  0
 14 15  1  0  0  0  0
 14 18  1  0  0  0  0
 17 16  1  0  0  0  0
 18 17  1  0  0  0  0
 18 19  1  0  0  0  0
 19 21  1  0  0  0  0
 19 16  1  0  0  0  0
 20 23  1  0  0  0  0
 21 20  1  0  0  0  0
 22 21  2  0  0  0  0
 24 27  1  0  0  0  0
 24 23  1  0  0  0  0
 25 27  1  0  0  0  0
 27 26  2  0  0  0  0
 29 28  1  0  0  0  0
 29 32  1  0  0  0  0
 30 34  1  0  0  0  0
 31 29  1  0  0  0  0
 33 31  1  0  0  0  0
 33 30  1  0  0  0  0
 34 32  1  0  0  0  0
 35 37  1  0  0  0  0
 36 35  1  0  0  0  0
 36 37  1  0  0  0  0
 37 33  1  0  0  0  0
 38 40  1  0  0  0  0
 38 36  1  0  0  0  0
 39 38  2  0  0  0  0
 40 42  1  0  0  0  0
 41 40  2  0  0  0  0
M  END
>  <MODEL>
2

>  <REMARK>
 VINA RESULT:      -6.7      2.027      3.362
  Name = 
  12 active torsions:
  status: ('A' for Active; 'I' for Inactive)
    1  A    between atoms: N_1  and  C_38
    2  A    between atoms: C_2  and  C_23
    3  A    between atoms: C_2  and  C_38
    4  A    between atoms: C_3  and  C_32
    5  A    between atoms: C_5  and  CA_30
    6  A    between atoms: C_6  and  CA_30
    7  A    between atoms: C_8  and  C_33
    8  A    between atoms: C_8  and  C_37
    9  A    between atoms: C_10  and  C_32
   10  A    between atoms: C_13  and  C_28
   11  A    between atoms: C_17  and  C_34
   12  A    between atoms: C_22  and  C_36
                            x       y       z     vdW  Elec       q    Type
                         _______ _______ _______ _____ _____    ______ ____

>  <TORSDO>
F 12

$$$$
=
 OpenBabel11052411443D

 42 48  0  0  1  0  0  0  0  0999 V2000
  161.4740  208.8300  151.0800 C   0  0  0  0  0  0  0  0  0  0  0  0
  161.7590  208.4640  149.8690 N   0  0  0  0  0  0  0  0  0  0  0  0
  162.5260  210.7400  149.2330 C   0  0  2  0  0  0  0  0  0  0  0  0
  160.8300  212.5540  147.9360 C   0  0  2  0  0  3  0  0  0  0  0  0
  161.8920  212.9850  148.8500 C   0  0  0  0  0  2  0  0  0  0  0  0
  162.3010  209.3440  148.8250 C   0  0  2  0  0  3  0  0  0  0  0  0
  161.3210  210.3980  148.4890 N   0  0  2  0  0  0  0  0  0  0  0  0
  162.0640  211.6370  148.1070 C   0  0  2  0  0  0  0  0  0  0  0  0
  161.6680  210.2290  151.4800 C   0  0  0  0  0  0  0  0  0  0  0  0
  162.1240  211.0800  150.6140 N   0  0  0  0  0  0  0  0  0  0  0  0
  162.1550  214.0490  146.2790 C   0  0  0  0  0  1  0  0  0  0  0  0
  159.9990  213.2420  145.8360 O   0  0  0  0  0  0  0  0  0  0  0  0
  160.9190  213.2940  146.6350 C   0  0  0  0  0  0  0  0  0  0  0  0
  161.2910  210.6910  152.8530 C   0  0  2  0  0  3  0  0  0  0  0  0
  162.3670  210.5390  153.7300 O   0  0  0  0  0  1  0  0  0  0  0  0
  159.3100  210.0400  155.3780 C   0  0  0  0  0  2  0  0  0  0  0  0
  160.2710  209.1610  154.6010 C   0  0  0  0  0  2  0  0  0  0  0  0
  160.0160  209.9820  153.3480 C   0  0  1  0  0  3  0  0  0  0  0  0
  158.9900  210.8300  154.1200 C   0  0  2  0  0  3  0  0  0  0  0  0
  158.5080  213.2870  153.5210 N   0  0  0  0  0  2  0  0  0  0  0  0
  159.2440  212.3180  154.2750 C   0  0  0  0  0  0  0  0  0  0  0  0
  160.2090  212.7210  154.9760 O   0  0  0  0  0  0  0  0  0  0  0  0
  157.5220  212.9480  152.5070 C   0  0  0  0  0  2  0  0  0  0  0  0
  157.2890  214.1470  151.6120 C   0  0  0  0  0  2  0  0  0  0  0  0
  157.4730  213.3480  149.2280 N   0  0  0  0  0  1  0  0  0  0  0  0
  159.2320  214.4530  150.2680 O   0  0  0  0  0  0  0  0  0  0  0  0
  158.0620  213.9920  150.3500 C   0  0  0  0  0  0  0  0  0  0  0  0
  160.9250  207.8200  152.0380 C   0  0  0  0  0  2  0  0  0  0  0  0
  161.4140  206.4170  151.7100 C   0  0  2  0  0  3  0  0  0  0  0  0
  160.7980  203.6330  151.0070 C   0  0  0  0  0  2  0  0  0  0  0  0
  160.9150  206.0340  150.3190 C   0  0  0  0  0  2  0  0  0  0  0  0
  160.8900  205.4230  152.7470 C   0  0  0  0  0  2  0  0  0  0  0  0
  161.3400  204.6100  149.9640 C   0  0  2  0  0  3  0  0  0  0  0  0
  161.3200  204.0030  152.3910 C   0  0  0  0  0  2  0  0  0  0  0  0
  161.5310  205.0570  147.5360 C   0  0  0  0  0  2  0  0  0  0  0  0
  161.8950  203.6000  147.7580 C   0  0  1  0  0  3  0  0  0  0  0  0
  160.8000  204.2540  148.5900 C   0  0  1  0  0  3  0  0  0  0  0  0
  161.2940  202.7500  146.6790 C   0  0  0  0  0  0  0  0  0  0  0  0
  161.0800  203.2590  145.5100 N   0  0  0  0  0  2  0  0  0  0  0  0
  160.7810  201.4060  146.9920 C   0  0  0  0  0  0  0  0  0  0  0  0
  159.7400  201.2470  147.9000 O   0  0  0  0  0  1  0  0  0  0  0  0
  161.2750  200.3910  146.4340 O   0  0  0  0  0  0  0  0  0  0  0  0
  1  9  1  0  0  0  0
  1 28  1  0  0  0  0
  2  1  2  0  0  0  0
  3 10  1  1  0  0  0
  4 13  1  6  0  0  0
  4  8  1  0  0  0  0
  4  5  1  0  0  0  0
  6  3  1  0  0  0  0
  6  2  1  1  0  0  0
  7  6  1  0  0  0  0
  7  3  1  0  0  0  0
  8  7  1  0  0  0  0
  8  5  1  0  0  0  0
  8  3  1  0  0  0  0
  9 14  1  0  0  0  0
 10  9  2  0  0  0  0
 11 13  1  0  0  0  0
 12 13  2  0  0  0  0
 14 18  1  0  0  0  0
 14 15  1  0  0  0  0
 17 16  1  0  0  0  0
 18 19  1  0  0  0  0
 18 17  1  0  0  0  0
 19 21  1  0  0  0  0
 19 16  1  0  0  0  0
 20 21  1  0  0  0  0
 21 22  2  0  0  0  0
 23 20  1  0  0  0  0
 24 23  1  0  0  0  0
 25 27  1  0  0  0  0
 26 27  2  0  0  0  0
 27 24  1  0  0  0  0
 29 28  1  0  0  0  0
 29 32  1  0  0  0  0
 30 34  1  0  0  0  0
 31 29  1  0  0  0  0
 33 31  1  0  0  0  0
 33 30  1  0  0  0  0
 34 32  1  0  0  0  0
 35 36  1  0  0  0  0
 35 37  1  0  0  0  0
 36 37  1  0  0  0  0
 37 33  1  0  0  0  0
 38 40  1  0  0  0  0
 38 36  1  0  0  0  0
 39 38  2  0  0  0  0
 40 41  1  0  0  0  0
 42 40  2  0  0  0  0
M  END
>  <MODEL>
3

>  <REMARK>
 VINA RESULT:      -5.8      2.280      3.937
  Name = 
  12 active torsions:
  status: ('A' for Active; 'I' for Inactive)
    1  A    between atoms: N_1  and  C_38
    2  A    between atoms: C_2  and  C_23
    3  A    between atoms: C_2  and  C_38
    4  A    between atoms: C_3  and  C_32
    5  A    between atoms: C_5  and  CA_30
    6  A    between atoms: C_6  and  CA_30
    7  A    between atoms: C_8  and  C_33
    8  A    between atoms: C_8  and  C_37
    9  A    between atoms: C_10  and  C_32
   10  A    between atoms: C_13  and  C_28
   11  A    between atoms: C_17  and  C_34
   12  A    between atoms: C_22  and  C_36
                            x       y       z     vdW  Elec       q    Type
                         _______ _______ _______ _____ _____    ______ ____

>  <TORSDO>
F 12

$$$$
=
 OpenBabel11052411443D

 42 48  0  0  1  0  0  0  0  0999 V2000
  161.7090  208.3500  148.6750 C   0  0  0  0  0  0  0  0  0  0  0  0
  161.3640  207.9240  147.5010 N   0  0  0  0  0  0  0  0  0  0  0  0
  160.2770  205.8910  148.4250 C   0  0  2  0  0  0  0  0  0  0  0  0
  161.6230  203.4370  148.5610 C   0  0  2  0  0  3  0  0  0  0  0  0
  160.6020  203.8290  149.5360 C   0  0  0  0  0  2  0  0  0  0  0  0
  160.6320  206.6790  147.2330 C   0  0  2  0  0  3  0  0  0  0  0  0
  161.4450  205.5130  147.6390 N   0  0  2  0  0  0  0  0  0  0  0  0
  160.5280  204.4320  148.1130 C   0  0  2  0  0  0  0  0  0  0  0  0
  161.3850  207.5500  149.8620 C   0  0  0  0  0  0  0  0  0  0  0  0
  160.7560  206.4250  149.7170 N   0  0  0  0  0  0  0  0  0  0  0  0
  161.1850  200.9040  148.9250 C   0  0  0  0  0  1  0  0  0  0  0  0
  161.1650  201.9180  146.8120 O   0  0  0  0  0  0  0  0  0  0  0  0
  161.3320  202.0730  148.0100 C   0  0  0  0  0  0  0  0  0  0  0  0
  161.8230  207.9890  151.2240 C   0  0  2  0  0  3  0  0  0  0  0  0
  163.1070  207.5130  151.4990 O   0  0  0  0  0  1  0  0  0  0  0  0
  161.1630  207.6590  154.4150 C   0  0  0  0  0  2  0  0  0  0  0  0
  161.3930  206.6310  153.3240 C   0  0  0  0  0  2  0  0  0  0  0  0
  160.7970  207.5800  152.2980 C   0  0  1  0  0  3  0  0  0  0  0  0
  160.5020  208.5940  153.4160 C   0  0  2  0  0  3  0  0  0  0  0  0
  160.4130  211.1450  153.0710 N   0  0  0  0  0  2  0  0  0  0  0  0
  161.1640  209.9580  153.3550 C   0  0  0  0  0  0  0  0  0  0  0  0
  162.4170  210.0520  153.4210 O   0  0  0  0  0  0  0  0  0  0  0  0
  158.9950  211.1500  152.7490 C   0  0  0  0  0  2  0  0  0  0  0  0
  158.3600  212.4110  153.2960 C   0  0  0  0  0  2  0  0  0  0  0  0
  157.5850  211.1080  155.3100 N   0  0  0  0  0  1  0  0  0  0  0  0
  156.1840  212.6210  154.2410 O   0  0  0  0  0  0  0  0  0  0  0  0
  157.3100  212.0580  154.2900 C   0  0  0  0  0  0  0  0  0  0  0  0
  162.4570  209.6410  148.7930 C   0  0  0  0  0  2  0  0  0  0  0  0
  161.5230  210.8380  148.6980 C   0  0  2  0  0  3  0  0  0  0  0  0
  161.1610  213.7510  148.5930 C   0  0  0  0  0  2  0  0  0  0  0  0
  161.8820  211.6450  147.4530 C   0  0  0  0  0  2  0  0  0  0  0  0
  161.6600  211.7120  149.9450 C   0  0  0  0  0  2  0  0  0  0  0  0
  161.0020  212.8890  147.3400 C   0  0  2  0  0  3  0  0  0  0  0  0
  160.7760  212.9490  149.8310 C   0  0  0  0  0  2  0  0  0  0  0  0
  162.6440  213.0600  145.4950 C   0  0  0  0  0  2  0  0  0  0  0  0
  161.2850  212.8050  144.8690 C   0  0  1  0  0  3  0  0  0  0  0  0
  161.4080  213.6800  146.1090 C   0  0  1  0  0  3  0  0  0  0  0  0
  161.1150  213.6550  143.6450 C   0  0  0  0  0  0  0  0  0  0  0  0
  160.1010  214.4530  143.5560 N   0  0  0  0  0  2  0  0  0  0  0  0
  161.9860  213.4530  142.4750 C   0  0  0  0  0  0  0  0  0  0  0  0
  162.3400  212.1690  142.0770 O   0  0  0  0  0  1  0  0  0  0  0  0
  162.4100  214.4420  141.8200 O   0  0  0  0  0  0  0  0  0  0  0  0
  1 28  1  0  0  0  0
  1  9  1  0  0  0  0
  2  1  2  0  0  0  0
  3 10  1  1  0  0  0
  4 13  1  6  0  0  0
  4  5  1  0  0  0  0
  6  2  1  1  0  0  0
  6  7  1  0  0  0  0
  6  3  1  0  0  0  0
  7  8  1  0  0  0  0
  7  3  1  0  0  0  0
  8  3  1  0  0  0  0
  8  4  1  0  0  0  0
  8  5  1  0  0  0  0
  9 14  1  0  0  0  0
 10  9  2  0  0  0  0
 12 13  2  0  0  0  0
 13 11  1  0  0  0  0
 14 15  1  0  0  0  0
 14 18  1  0  0  0  0
 17 16  1  0  0  0  0
 18 17  1  0  0  0  0
 18 19  1  0  0  0  0
 19 16  1  0  0  0  0
 20 21  1  0  0  0  0
 21 19  1  0  0  0  0
 21 22  2  0  0  0  0
 23 20  1  0  0  0  0
 23 24  1  0  0  0  0
 24 27  1  0  0  0  0
 26 27  2  0  0  0  0
 27 25  1  0  0  0  0
 29 28  1  0  0  0  0
 29 32  1  0  0  0  0
 30 34  1  0  0  0  0
 31 29  1  0  0  0  0
 33 31  1  0  0  0  0
 33 30  1  0  0  0  0
 34 32  1  0  0  0  0
 35 37  1  0  0  0  0
 36 35  1  0  0  0  0
 36 37  1  0  0  0  0
 37 33  1  0  0  0  0
 38 36  1  0  0  0  0
 39 38  2  0  0  0  0
 40 38  1  0  0  0  0
 41 40  1  0  0  0  0
 42 40  2  0  0  0  0
M  END
>  <MODEL>
4

>  <REMARK>
 VINA RESULT:      -5.8      2.384      7.402
  Name = 
  12 active torsions:
  status: ('A' for Active; 'I' for Inactive)
    1  A    between atoms: N_1  and  C_38
    2  A    between atoms: C_2  and  C_23
    3  A    between atoms: C_2  and  C_38
    4  A    between atoms: C_3  and  C_32
    5  A    between atoms: C_5  and  CA_30
    6  A    between atoms: C_6  and  CA_30
    7  A    between atoms: C_8  and  C_33
    8  A    between atoms: C_8  and  C_37
    9  A    between atoms: C_10  and  C_32
   10  A    between atoms: C_13  and  C_28
   11  A    between atoms: C_17  and  C_34
   12  A    between atoms: C_22  and  C_36
                            x       y       z     vdW  Elec       q    Type
                         _______ _______ _______ _____ _____    ______ ____

>  <TORSDO>
F 12

$$$$
=
 OpenBabel11052411443D

 42 48  0  0  1  0  0  0  0  0999 V2000
  161.6830  208.2930  148.6890 C   0  0  0  0  0  0  0  0  0  0  0  0
  161.2870  207.9300  147.5090 N   0  0  0  0  0  0  0  0  0  0  0  0
  160.2510  205.8420  148.3660 C   0  0  2  0  0  0  0  0  0  0  0  0
  161.6110  203.3930  148.3060 C   0  0  2  0  0  3  0  0  0  0  0  0
  160.6330  203.7240  149.3460 C   0  0  0  0  0  2  0  0  0  0  0  0
  160.5490  206.6980  147.2060 C   0  0  2  0  0  3  0  0  0  0  0  0
  161.3840  205.5170  147.5090 N   0  0  2  0  0  0  0  0  0  0  0  0
  160.4930  204.4050  147.9620 C   0  0  2  0  0  0  0  0  0  0  0  0
  161.4160  207.4260  149.8430 C   0  0  0  0  0  0  0  0  0  0  0  0
  160.7850  206.3070  149.6630 N   0  0  0  0  0  0  0  0  0  0  0  0
  161.2150  200.8390  148.5450 C   0  0  0  0  0  1  0  0  0  0  0  0
  161.0670  201.9730  146.4990 O   0  0  0  0  0  0  0  0  0  0  0  0
  161.3010  202.0610  147.6930 C   0  0  0  0  0  0  0  0  0  0  0  0
  161.9130  207.7920  151.2060 C   0  0  2  0  0  3  0  0  0  0  0  0
  163.0990  207.1110  151.4900 O   0  0  0  0  0  1  0  0  0  0  0  0
  161.1970  207.5410  154.3920 C   0  0  0  0  0  2  0  0  0  0  0  0
  161.2360  206.5050  153.2850 C   0  0  0  0  0  2  0  0  0  0  0  0
  160.8270  207.5630  152.2750 C   0  0  1  0  0  3  0  0  0  0  0  0
  160.7210  208.5970  153.4080 C   0  0  2  0  0  3  0  0  0  0  0  0
  161.4830  210.8850  154.3110 N   0  0  0  0  0  2  0  0  0  0  0  0
  161.6230  209.8170  153.3680 C   0  0  0  0  0  0  0  0  0  0  0  0
  162.4270  209.9720  152.4120 O   0  0  0  0  0  0  0  0  0  0  0  0
  160.4440  210.9390  155.3280 C   0  0  0  0  0  2  0  0  0  0  0  0
  161.0750  211.2160  156.6760 C   0  0  0  0  0  2  0  0  0  0  0  0
  163.5910  211.0740  156.6040 N   0  0  0  0  0  1  0  0  0  0  0  0
  162.2940  209.2220  157.1360 O   0  0  0  0  0  0  0  0  0  0  0  0
  162.3370  210.4390  156.8120 C   0  0  0  0  0  0  0  0  0  0  0  0
  162.4310  209.5800  148.8450 C   0  0  0  0  0  2  0  0  0  0  0  0
  161.5030  210.7810  148.7350 C   0  0  2  0  0  3  0  0  0  0  0  0
  161.1560  213.6950  148.6050 C   0  0  0  0  0  2  0  0  0  0  0  0
  161.8730  211.5760  147.4860 C   0  0  0  0  0  2  0  0  0  0  0  0
  161.6370  211.6640  149.9760 C   0  0  0  0  0  2  0  0  0  0  0  0
  161.0000  212.8240  147.3580 C   0  0  2  0  0  3  0  0  0  0  0  0
  160.7600  212.9050  149.8480 C   0  0  0  0  0  2  0  0  0  0  0  0
  162.7080  214.3400  146.4040 C   0  0  0  0  0  2  0  0  0  0  0  0
  162.7350  213.0590  145.5900 C   0  0  1  0  0  3  0  0  0  0  0  0
  161.4170  213.6040  146.1240 C   0  0  1  0  0  3  0  0  0  0  0  0
  162.8800  213.3790  144.1320 C   0  0  0  0  0  0  0  0  0  0  0  0
  163.5720  214.4090  143.7700 N   0  0  0  0  0  2  0  0  0  0  0  0
  162.0940  212.6420  143.1290 C   0  0  0  0  0  0  0  0  0  0  0  0
  162.5780  212.4840  141.8350 O   0  0  0  0  0  0  0  0  0  0  0  0
  160.9800  212.1410  143.4370 O   0  0  0  0  0  1  0  0  0  0  0  0
  1 28  1  0  0  0  0
  1  9  1  0  0  0  0
  2  1  2  0  0  0  0
  3 10  1  1  0  0  0
  4 13  1  6  0  0  0
  4  5  1  0  0  0  0
  6  2  1  1  0  0  0
  6  7  1  0  0  0  0
  6  3  1  0  0  0  0
  7  8  1  0  0  0  0
  7  3  1  0  0  0  0
  8  4  1  0  0  0  0
  8  3  1  0  0  0  0
  8  5  1  0  0  0  0
  9 14  1  0  0  0  0
 10  9  2  0  0  0  0
 12 13  2  0  0  0  0
 13 11  1  0  0  0  0
 14 15  1  0  0  0  0
 14 18  1  0  0  0  0
 17 16  1  0  0  0  0
 18 17  1  0  0  0  0
 18 19  1  0  0  0  0
 19 16  1  0  0  0  0
 20 23  1  0  0  0  0
 21 19  1  0  0  0  0
 21 20  1  0  0  0  0
 22 21  2  0  0  0  0
 23 24  1  0  0  0  0
 24 27  1  0  0  0  0
 25 27  1  0  0  0  0
 27 26  2  0  0  0  0
 29 28  1  0  0  0  0
 29 32  1  0  0  0  0
 30 34  1  0  0  0  0
 31 29  1  0  0  0  0
 33 31  1  0  0  0  0
 33 30  1  0  0  0  0
 34 32  1  0  0  0  0
 36 37  1  0  0  0  0
 36 35  1  0  0  0  0
 37 35  1  0  0  0  0
 37 33  1  0  0  0  0
 38 36  1  0  0  0  0
 39 38  2  0  0  0  0
 40 42  1  0  0  0  0
 40 38  1  0  0  0  0
 41 40  2  0  0  0  0
M  END
>  <MODEL>
5

>  <REMARK>
 VINA RESULT:      -5.2      2.627      7.142
  Name = 
  12 active torsions:
  status: ('A' for Active; 'I' for Inactive)
    1  A    between atoms: N_1  and  C_38
    2  A    between atoms: C_2  and  C_23
    3  A    between atoms: C_2  and  C_38
    4  A    between atoms: C_3  and  C_32
    5  A    between atoms: C_5  and  CA_30
    6  A    between atoms: C_6  and  CA_30
    7  A    between atoms: C_8  and  C_33
    8  A    between atoms: C_8  and  C_37
    9  A    between atoms: C_10  and  C_32
   10  A    between atoms: C_13  and  C_28
   11  A    between atoms: C_17  and  C_34
   12  A    between atoms: C_22  and  C_36
                            x       y       z     vdW  Elec       q    Type
                         _______ _______ _______ _____ _____    ______ ____

>  <TORSDO>
F 12

$$$$
=
 OpenBabel11052411443D

 42 48  0  0  1  0  0  0  0  0999 V2000
  161.7790  209.8730  150.0240 C   0  0  0  0  0  0  0  0  0  0  0  0
  161.5860  210.8420  150.8640 N   0  0  0  0  0  0  0  0  0  0  0  0
  162.1040  209.4070  152.8240 C   0  0  2  0  0  0  0  0  0  0  0  0
  160.0810  208.1560  154.3050 C   0  0  2  0  0  3  0  0  0  0  0  0
  161.4140  207.5700  154.1440 C   0  0  0  0  0  2  0  0  0  0  0  0
  161.7160  210.7350  152.3230 C   0  0  2  0  0  3  0  0  0  0  0  0
  160.7020  209.8030  152.8570 N   0  0  2  0  0  0  0  0  0  0  0  0
  161.2720  209.1090  154.0510 C   0  0  2  0  0  0  0  0  0  0  0  0
  162.1340  208.5390  150.5230 C   0  0  0  0  0  0  0  0  0  0  0  0
  162.2510  208.3500  151.8010 N   0  0  0  0  0  0  0  0  0  0  0  0
  159.7320  206.9550  156.5800 C   0  0  0  0  0  1  0  0  0  0  0  0
  159.3900  209.2550  156.2780 O   0  0  0  0  0  0  0  0  0  0  0  0
  159.6930  208.1970  155.7530 C   0  0  0  0  0  0  0  0  0  0  0  0
  162.3030  207.3890  149.5800 C   0  0  2  0  0  3  0  0  0  0  0  0
  163.2450  207.7010  148.5970 O   0  0  0  0  0  1  0  0  0  0  0  0
  160.6460  205.1340  147.8800 C   0  0  0  0  0  2  0  0  0  0  0  0
  161.0720  206.5470  147.5280 C   0  0  0  0  0  2  0  0  0  0  0  0
  160.9510  206.9510  148.9880 C   0  0  1  0  0  3  0  0  0  0  0  0
  160.4530  205.5360  149.3330 C   0  0  2  0  0  3  0  0  0  0  0  0
  161.2100  203.2610  150.2710 N   0  0  0  0  0  2  0  0  0  0  0  0
  161.2690  204.6920  150.2940 C   0  0  0  0  0  0  0  0  0  0  0  0
  161.9120  205.2430  151.2240 O   0  0  0  0  0  0  0  0  0  0  0  0
  160.3320  202.4990  149.3970 C   0  0  0  0  0  2  0  0  0  0  0  0
  160.9780  201.1690  149.0710 C   0  0  0  0  0  2  0  0  0  0  0  0
  161.5810  199.8030  147.0400 N   0  0  0  0  0  1  0  0  0  0  0  0
  160.8410  201.9960  146.8410 O   0  0  0  0  0  0  0  0  0  0  0  0
  161.1320  201.0310  147.5970 C   0  0  0  0  0  0  0  0  0  0  0  0
  161.6070  210.1300  148.5600 C   0  0  0  0  0  2  0  0  0  0  0  0
  161.5950  211.6210  148.2530 C   0  0  2  0  0  3  0  0  0  0  0  0
  162.4230  213.8450  146.5220 C   0  0  0  0  0  2  0  0  0  0  0  0
  160.9780  211.8340  146.8730 C   0  0  0  0  0  2  0  0  0  0  0  0
  163.0200  212.1740  148.2800 C   0  0  0  0  0  2  0  0  0  0  0  0
  160.9890  213.3150  146.4970 C   0  0  2  0  0  3  0  0  0  0  0  0
  163.0260  213.6540  147.9100 C   0  0  0  0  0  2  0  0  0  0  0  0
  161.2540  214.4380  144.3060 C   0  0  0  0  0  2  0  0  0  0  0  0
  161.3660  212.9440  144.0650 C   0  0  1  0  0  3  0  0  0  0  0  0
  160.3970  213.4840  145.1090 C   0  0  1  0  0  3  0  0  0  0  0  0
  160.6290  212.5690  142.8130 C   0  0  0  0  0  0  0  0  0  0  0  0
  159.3370  212.5780  142.8050 N   0  0  0  0  0  2  0  0  0  0  0  0
  161.3600  212.0160  141.6600 C   0  0  0  0  0  0  0  0  0  0  0  0
  162.3660  212.7540  141.0470 O   0  0  0  0  0  0  0  0  0  0  0  0
  161.0850  210.8660  141.2260 O   0  0  0  0  0  1  0  0  0  0  0  0
  1  9  1  0  0  0  0
  1  2  2  0  0  0  0
  3 10  1  6  0  0  0
  3  7  1  0  0  0  0
  3  8  1  0  0  0  0
  4 13  1  1  0  0  0
  5  4  1  0  0  0  0
  6  2  1  6  0  0  0
  6  3  1  0  0  0  0
  6  7  1  0  0  0  0
  7  8  1  0  0  0  0
  8  5  1  0  0  0  0
  8  4  1  0  0  0  0
  9 10  2  0  0  0  0
 13 12  2  0  0  0  0
 13 11  1  0  0  0  0
 14  9  1  0  0  0  0
 15 14  1  0  0  0  0
 16 19  1  0  0  0  0
 17 16  1  0  0  0  0
 17 18  1  0  0  0  0
 18 19  1  0  0  0  0
 18 14  1  0  0  0  0
 19 21  1  0  0  0  0
 20 21  1  0  0  0  0
 21 22  2  0  0  0  0
 23 20  1  0  0  0  0
 24 23  1  0  0  0  0
 25 27  1  0  0  0  0
 26 27  2  0  0  0  0
 27 24  1  0  0  0  0
 28  1  1  0  0  0  0
 29 32  1  0  0  0  0
 29 28  1  0  0  0  0
 30 34  1  0  0  0  0
 31 29  1  0  0  0  0
 33 30  1  0  0  0  0
 33 31  1  0  0  0  0
 34 32  1  0  0  0  0
 35 37  1  0  0  0  0
 36 35  1  0  0  0  0
 36 37  1  0  0  0  0
 37 33  1  0  0  0  0
 38 36  1  0  0  0  0
 39 38  2  0  0  0  0
 40 38  1  0  0  0  0
 41 40  2  0  0  0  0
 42 40  1  0  0  0  0
M  END
>  <MODEL>
6

>  <REMARK>
 VINA RESULT:      -4.9      2.733      8.692
  Name = 
  12 active torsions:
  status: ('A' for Active; 'I' for Inactive)
    1  A    between atoms: N_1  and  C_38
    2  A    between atoms: C_2  and  C_23
    3  A    between atoms: C_2  and  C_38
    4  A    between atoms: C_3  and  C_32
    5  A    between atoms: C_5  and  CA_30
    6  A    between atoms: C_6  and  CA_30
    7  A    between atoms: C_8  and  C_33
    8  A    between atoms: C_8  and  C_37
    9  A    between atoms: C_10  and  C_32
   10  A    between atoms: C_13  and  C_28
   11  A    between atoms: C_17  and  C_34
   12  A    between atoms: C_22  and  C_36
                            x       y       z     vdW  Elec       q    Type
                         _______ _______ _______ _____ _____    ______ ____

>  <TORSDO>
F 12

$$$$
=
 OpenBabel11052411443D

 42 48  0  0  1  0  0  0  0  0999 V2000
  161.9940  209.8150  150.3150 C   0  0  0  0  0  0  0  0  0  0  0  0
  161.8780  210.7110  151.2450 N   0  0  0  0  0  0  0  0  0  0  0  0
  162.2320  209.0500  153.0580 C   0  0  2  0  0  0  0  0  0  0  0  0
  160.0820  207.8540  154.3970 C   0  0  2  0  0  3  0  0  0  0  0  0
  161.3580  207.1650  154.1860 C   0  0  0  0  0  2  0  0  0  0  0  0
  161.9750  210.4510  152.6870 C   0  0  2  0  0  3  0  0  0  0  0  0
  160.8720  209.5690  153.1210 N   0  0  2  0  0  0  0  0  0  0  0  0
  161.3580  208.7120  154.2450 C   0  0  2  0  0  0  0  0  0  0  0  0
  162.2180  208.4120  150.6830 C   0  0  0  0  0  0  0  0  0  0  0  0
  162.2980  208.0890  151.9370 N   0  0  0  0  0  0  0  0  0  0  0  0
  159.5900  209.0350  156.6560 C   0  0  0  0  0  1  0  0  0  0  0  0
  159.3670  206.7220  156.3430 O   0  0  0  0  0  0  0  0  0  0  0  0
  159.6770  207.7890  155.8390 C   0  0  0  0  0  0  0  0  0  0  0  0
  162.2960  207.3480  149.6330 C   0  0  2  0  0  3  0  0  0  0  0  0
  163.1200  207.7610  148.5830 O   0  0  0  0  0  1  0  0  0  0  0  0
  160.4780  205.1660  148.0020 C   0  0  0  0  0  2  0  0  0  0  0  0
  160.8690  206.5950  147.6750 C   0  0  0  0  0  2  0  0  0  0  0  0
  160.8910  206.9320  149.1560 C   0  0  1  0  0  3  0  0  0  0  0  0
  160.4290  205.5020  149.4830 C   0  0  2  0  0  3  0  0  0  0  0  0
  161.3410  203.1930  150.1680 N   0  0  0  0  0  2  0  0  0  0  0  0
  161.3340  204.6170  150.3210 C   0  0  0  0  0  0  0  0  0  0  0  0
  162.0000  205.1150  151.2650 O   0  0  0  0  0  0  0  0  0  0  0  0
  160.4540  202.4690  149.2710 C   0  0  0  0  0  2  0  0  0  0  0  0
  160.9960  201.0730  149.0480 C   0  0  0  0  0  2  0  0  0  0  0  0
  160.8240  201.8350  146.6510 N   0  0  0  0  0  1  0  0  0  0  0  0
  161.5940  199.7100  147.1880 O   0  0  0  0  0  0  0  0  0  0  0  0
  161.1510  200.8190  147.5900 C   0  0  0  0  0  0  0  0  0  0  0  0
  161.8690  210.2280  148.8820 C   0  0  0  0  0  2  0  0  0  0  0  0
  162.0420  211.7310  148.7180 C   0  0  2  0  0  3  0  0  0  0  0  0
  161.7180  214.1410  147.0710 C   0  0  0  0  0  2  0  0  0  0  0  0
  160.6710  212.3610  148.4820 C   0  0  0  0  0  2  0  0  0  0  0  0
  162.9650  212.0280  147.5360 C   0  0  0  0  0  2  0  0  0  0  0  0
  160.7980  213.8680  148.2610 C   0  0  2  0  0  3  0  0  0  0  0  0
  163.0930  213.5330  147.3220 C   0  0  0  0  0  2  0  0  0  0  0  0
  159.0080  214.1550  146.5750 C   0  0  0  0  0  2  0  0  0  0  0  0
  158.4300  213.3330  147.7130 C   0  0  1  0  0  3  0  0  0  0  0  0
  159.4220  214.4530  147.9990 C   0  0  1  0  0  3  0  0  0  0  0  0
  157.0320  213.7840  148.0140 C   0  0  0  0  0  0  0  0  0  0  0  0
  156.3380  214.3730  147.0950 N   0  0  0  0  0  2  0  0  0  0  0  0
  156.5140  213.7270  149.3910 C   0  0  0  0  0  0  0  0  0  0  0  0
  157.3310  213.2960  150.4310 O   0  0  0  0  0  1  0  0  0  0  0  0
  155.3300  214.0760  149.6400 O   0  0  0  0  0  0  0  0  0  0  0  0
  1  9  1  0  0  0  0
  1  2  2  0  0  0  0
  3 10  1  6  0  0  0
  3  7  1  0  0  0  0
  3  8  1  0  0  0  0
  4 13  1  1  0  0  0
  5  8  1  0  0  0  0
  5  4  1  0  0  0  0
  6  2  1  6  0  0  0
  6  3  1  0  0  0  0
  6  7  1  0  0  0  0
  7  8  1  0  0  0  0
  8  4  1  0  0  0  0
  9 10  2  0  0  0  0
 13 12  2  0  0  0  0
 13 11  1  0  0  0  0
 14  9  1  0  0  0  0
 15 14  1  0  0  0  0
 16 19  1  0  0  0  0
 17 16  1  0  0  0  0
 17 18  1  0  0  0  0
 18 19  1  0  0  0  0
 18 14  1  0  0  0  0
 19 21  1  0  0  0  0
 20 21  1  0  0  0  0
 21 22  2  0  0  0  0
 23 20  1  0  0  0  0
 24 23  1  0  0  0  0
 25 27  1  0  0  0  0
 26 27  2  0  0  0  0
 27 24  1  0  0  0  0
 28  1  1  0  0  0  0
 29 28  1  0  0  0  0
 30 34  1  0  0  0  0
 30 33  1  0  0  0  0
 31 29  1  0  0  0  0
 32 29  1  0  0  0  0
 33 31  1  0  0  0  0
 34 32  1  0  0  0  0
 35 36  1  0  0  0  0
 35 37  1  0  0  0  0
 36 37  1  0  0  0  0
 36 38  1  0  0  0  0
 37 33  1  0  0  0  0
 38 40  1  0  0  0  0
 39 38  2  0  0  0  0
 40 42  2  0  0  0  0
 40 41  1  0  0  0  0
M  END
>  <MODEL>
7

>  <REMARK>
 VINA RESULT:      -4.9      2.823      9.042
  Name = 
  12 active torsions:
  status: ('A' for Active; 'I' for Inactive)
    1  A    between atoms: N_1  and  C_38
    2  A    between atoms: C_2  and  C_23
    3  A    between atoms: C_2  and  C_38
    4  A    between atoms: C_3  and  C_32
    5  A    between atoms: C_5  and  CA_30
    6  A    between atoms: C_6  and  CA_30
    7  A    between atoms: C_8  and  C_33
    8  A    between atoms: C_8  and  C_37
    9  A    between atoms: C_10  and  C_32
   10  A    between atoms: C_13  and  C_28
   11  A    between atoms: C_17  and  C_34
   12  A    between atoms: C_22  and  C_36
                            x       y       z     vdW  Elec       q    Type
                         _______ _______ _______ _____ _____    ______ ____

>  <TORSDO>
F 12

$$$$
=
 OpenBabel11052411443D

 42 48  0  0  1  0  0  0  0  0999 V2000
  161.5740  210.2880  151.5450 C   0  0  0  0  0  0  0  0  0  0  0  0
  162.3530  210.1580  150.5170 N   0  0  0  0  0  0  0  0  0  0  0  0
  161.6020  212.3060  149.5220 C   0  0  2  0  0  0  0  0  0  0  0  0
  159.5910  212.3990  147.5730 C   0  0  2  0  0  3  0  0  0  0  0  0
  159.8060  213.4850  148.5330 C   0  0  0  0  0  2  0  0  0  0  0  0
  162.4610  211.1160  149.4090 C   0  0  2  0  0  3  0  0  0  0  0  0
  161.1790  211.1950  148.6790 N   0  0  2  0  0  0  0  0  0  0  0  0
  161.0090  212.5860  148.1580 C   0  0  2  0  0  0  0  0  0  0  0  0
  160.6920  211.4580  151.6430 C   0  0  0  0  0  0  0  0  0  0  0  0
  160.7080  212.3460  150.6970 N   0  0  0  0  0  0  0  0  0  0  0  0
  160.2510  214.1970  145.8210 C   0  0  0  0  0  1  0  0  0  0  0  0
  158.9590  212.3110  145.2990 O   0  0  0  0  0  0  0  0  0  0  0  0
  159.5410  212.9330  146.1730 C   0  0  0  0  0  0  0  0  0  0  0  0
  159.7400  211.6040  152.7880 C   0  0  2  0  0  3  0  0  0  0  0  0
  158.6640  210.7240  152.6410 O   0  0  0  0  0  1  0  0  0  0  0  0
  157.6760  213.7010  154.2260 C   0  0  0  0  0  2  0  0  0  0  0  0
  157.7880  213.2250  152.7910 C   0  0  0  0  0  2  0  0  0  0  0  0
  159.2900  213.0680  152.9550 C   0  0  1  0  0  3  0  0  0  0  0  0
  159.1850  213.6160  154.3880 C   0  0  2  0  0  3  0  0  0  0  0  0
  158.6480  211.9850  156.3070 N   0  0  0  0  0  2  0  0  0  0  0  0
  159.6060  212.7240  155.5420 C   0  0  0  0  0  0  0  0  0  0  0  0
  160.8020  212.7260  155.9330 O   0  0  0  0  0  0  0  0  0  0  0  0
  157.2100  212.0690  156.1070 C   0  0  0  0  0  2  0  0  0  0  0  0
  156.6730  210.7030  155.7360 C   0  0  0  0  0  2  0  0  0  0  0  0
  154.6390  211.5120  156.9860 N   0  0  0  0  0  1  0  0  0  0  0  0
  154.4840  209.8260  155.3950 O   0  0  0  0  0  0  0  0  0  0  0  0
  155.2140  210.6390  156.0240 C   0  0  0  0  0  0  0  0  0  0  0  0
  161.5700  209.2250  152.5980 C   0  0  0  0  0  2  0  0  0  0  0  0
  161.8360  207.8500  152.0050 C   0  0  2  0  0  3  0  0  0  0  0  0
  160.7940  205.3480  150.8740 C   0  0  0  0  0  2  0  0  0  0  0  0
  161.2340  207.7950  150.6020 C   0  0  0  0  0  2  0  0  0  0  0  0
  161.2110  206.7680  152.8850 C   0  0  0  0  0  2  0  0  0  0  0  0
  161.4330  206.4120  149.9820 C   0  0  2  0  0  3  0  0  0  0  0  0
  161.4160  205.3890  152.2650 C   0  0  0  0  0  2  0  0  0  0  0  0
  161.4240  207.4550  147.7360 C   0  0  0  0  0  2  0  0  0  0  0  0
  161.8390  206.0060  147.5600 C   0  0  1  0  0  3  0  0  0  0  0  0
  160.7960  206.3860  148.6030 C   0  0  1  0  0  3  0  0  0  0  0  0
  161.1760  205.4250  146.3470 C   0  0  0  0  0  0  0  0  0  0  0  0
  160.3790  206.1590  145.6410 N   0  0  0  0  0  2  0  0  0  0  0  0
  161.2800  203.9830  146.0630 C   0  0  0  0  0  0  0  0  0  0  0  0
  161.3360  203.0650  147.1050 O   0  0  0  0  0  1  0  0  0  0  0  0
  161.3110  203.5710  144.8730 O   0  0  0  0  0  0  0  0  0  0  0  0
  1  9  1  0  0  0  0
  1 28  1  0  0  0  0
  2  1  2  0  0  0  0
  3 10  1  1  0  0  0
  4 13  1  6  0  0  0
  4  8  1  0  0  0  0
  4  5  1  0  0  0  0
  6  3  1  0  0  0  0
  6  2  1  1  0  0  0
  7  6  1  0  0  0  0
  7  3  1  0  0  0  0
  8  5  1  0  0  0  0
  8  7  1  0  0  0  0
  8  3  1  0  0  0  0
  9 14  1  0  0  0  0
 10  9  2  0  0  0  0
 11 13  1  0  0  0  0
 12 13  2  0  0  0  0
 14 18  1  0  0  0  0
 15 14  1  0  0  0  0
 16 19  1  0  0  0  0
 17 18  1  0  0  0  0
 17 16  1  0  0  0  0
 18 19  1  0  0  0  0
 19 21  1  0  0  0  0
 21 22  2  0  0  0  0
 21 20  1  0  0  0  0
 23 20  1  0  0  0  0
 24 27  1  0  0  0  0
 24 23  1  0  0  0  0
 26 27  2  0  0  0  0
 27 25  1  0  0  0  0
 29 28  1  0  0  0  0
 29 32  1  0  0  0  0
 30 34  1  0  0  0  0
 31 29  1  0  0  0  0
 33 31  1  0  0  0  0
 33 30  1  0  0  0  0
 34 32  1  0  0  0  0
 35 37  1  0  0  0  0
 36 35  1  0  0  0  0
 36 37  1  0  0  0  0
 37 33  1  0  0  0  0
 38 36  1  0  0  0  0
 39 38  2  0  0  0  0
 40 38  1  0  0  0  0
 40 41  1  0  0  0  0
 42 40  2  0  0  0  0
M  END
>  <MODEL>
8

>  <REMARK>
 VINA RESULT:      -4.7      1.928      2.541
  Name = 
  12 active torsions:
  status: ('A' for Active; 'I' for Inactive)
    1  A    between atoms: N_1  and  C_38
    2  A    between atoms: C_2  and  C_23
    3  A    between atoms: C_2  and  C_38
    4  A    between atoms: C_3  and  C_32
    5  A    between atoms: C_5  and  CA_30
    6  A    between atoms: C_6  and  CA_30
    7  A    between atoms: C_8  and  C_33
    8  A    between atoms: C_8  and  C_37
    9  A    between atoms: C_10  and  C_32
   10  A    between atoms: C_13  and  C_28
   11  A    between atoms: C_17  and  C_34
   12  A    between atoms: C_22  and  C_36
                            x       y       z     vdW  Elec       q    Type
                         _______ _______ _______ _____ _____    ______ ____

>  <TORSDO>
F 12

$$$$
=
 OpenBabel11052411443D

 42 48  0  0  1  0  0  0  0  0999 V2000
  160.7990  210.9490  151.4620 C   0  0  0  0  0  0  0  0  0  0  0  0
  160.3900  210.2560  152.4790 N   0  0  0  0  0  0  0  0  0  0  0  0
  158.5580  211.8530  152.9870 C   0  0  2  0  0  0  0  0  0  0  0  0
  158.8600  213.8750  154.9040 C   0  0  2  0  0  3  0  0  0  0  0  0
  158.0060  214.0310  153.7230 C   0  0  0  0  0  2  0  0  0  0  0  0
  159.2580  210.6090  153.3450 C   0  0  2  0  0  3  0  0  0  0  0  0
  159.5410  211.8690  154.0630 N   0  0  2  0  0  0  0  0  0  0  0  0
  158.2550  212.6030  154.2660 C   0  0  2  0  0  0  0  0  0  0  0  0
  160.1220  212.2070  151.1240 C   0  0  0  0  0  0  0  0  0  0  0  0
  159.1230  212.6060  151.8490 N   0  0  0  0  0  0  0  0  0  0  0  0
  156.6150  214.2490  156.1540 C   0  0  0  0  0  1  0  0  0  0  0  0
  158.7090  214.4530  157.1890 O   0  0  0  0  0  0  0  0  0  0  0  0
  158.1080  214.2280  156.1520 C   0  0  0  0  0  0  0  0  0  0  0  0
  160.6100  213.0570  149.9930 C   0  0  2  0  0  3  0  0  0  0  0  0
  160.8240  214.3680  150.4260 O   0  0  0  0  0  1  0  0  0  0  0  0
  159.7330  214.3030  147.0930 C   0  0  0  0  0  2  0  0  0  0  0  0
  159.0530  214.3340  148.4490 C   0  0  0  0  0  2  0  0  0  0  0  0
  159.6540  212.9800  148.7860 C   0  0  1  0  0  3  0  0  0  0  0  0
  160.2880  212.9190  147.3860 C   0  0  2  0  0  3  0  0  0  0  0  0
  162.4720  213.1130  146.0350 N   0  0  0  0  0  2  0  0  0  0  0  0
  161.7990  212.8510  147.2730 C   0  0  0  0  0  0  0  0  0  0  0  0
  162.4840  212.4280  148.2400 O   0  0  0  0  0  0  0  0  0  0  0  0
  161.7860  213.3910  144.7830 C   0  0  0  0  0  2  0  0  0  0  0  0
  162.6560  212.9480  143.6250 C   0  0  0  0  0  2  0  0  0  0  0  0
  161.4170  214.0510  141.7270 N   0  0  0  0  0  1  0  0  0  0  0  0
  161.5430  211.7380  141.9010 O   0  0  0  0  0  0  0  0  0  0  0  0
  161.8390  212.8640  142.3840 C   0  0  0  0  0  0  0  0  0  0  0  0
  161.9720  210.4640  150.6700 C   0  0  0  0  0  2  0  0  0  0  0  0
  162.1710  208.9640  150.8310 C   0  0  2  0  0  3  0  0  0  0  0  0
  161.0130  206.2700  150.9880 C   0  0  0  0  0  2  0  0  0  0  0  0
  161.6140  208.2590  149.5960 C   0  0  0  0  0  2  0  0  0  0  0  0
  161.4520  208.4690  152.0850 C   0  0  0  0  0  2  0  0  0  0  0  0
  161.7460  206.7430  149.7320 C   0  0  2  0  0  3  0  0  0  0  0  0
  161.5910  206.9570  152.2200 C   0  0  0  0  0  2  0  0  0  0  0  0
  161.8660  206.5780  147.2640 C   0  0  0  0  0  2  0  0  0  0  0  0
  162.2100  205.2110  147.8270 C   0  0  1  0  0  3  0  0  0  0  0  0
  161.1550  206.0760  148.5030 C   0  0  1  0  0  3  0  0  0  0  0  0
  161.5580  204.1380  147.0060 C   0  0  0  0  0  0  0  0  0  0  0  0
  161.3460  204.3380  145.7460 N   0  0  0  0  0  2  0  0  0  0  0  0
  160.9950  202.9430  147.6580 C   0  0  0  0  0  0  0  0  0  0  0  0
  160.7720  201.7830  146.9250 O   0  0  0  0  0  0  0  0  0  0  0  0
  160.7190  202.9610  148.8870 O   0  0  0  0  0  1  0  0  0  0  0  0
  1  2  2  0  0  0  0
  3 10  1  6  0  0  0
  3  6  1  0  0  0  0
  3  7  1  0  0  0  0
  3  8  1  0  0  0  0
  4 13  1  1  0  0  0
  5  8  1  0  0  0  0
  5  4  1  0  0  0  0
  6  2  1  6  0  0  0
  6  7  1  0  0  0  0
  7  8  1  0  0  0  0
  8  4  1  0  0  0  0
  9  1  1  0  0  0  0
  9 10  2  0  0  0  0
 13 11  1  0  0  0  0
 13 12  2  0  0  0  0
 14 15  1  0  0  0  0
 14  9  1  0  0  0  0
 16 19  1  0  0  0  0
 16 17  1  0  0  0  0
 17 18  1  0  0  0  0
 18 14  1  0  0  0  0
 19 18  1  0  0  0  0
 20 21  1  0  0  0  0
 21 19  1  0  0  0  0
 21 22  2  0  0  0  0
 23 20  1  0  0  0  0
 24 23  1  0  0  0  0
 25 27  1  0  0  0  0
 26 27  2  0  0  0  0
 27 24  1  0  0  0  0
 28 29  1  0  0  0  0
 28  1  1  0  0  0  0
 29 32  1  0  0  0  0
 30 34  1  0  0  0  0
 31 33  1  0  0  0  0
 31 29  1  0  0  0  0
 32 34  1  0  0  0  0
 33 30  1  0  0  0  0
 35 36  1  0  0  0  0
 35 37  1  0  0  0  0
 36 37  1  0  0  0  0
 37 33  1  0  0  0  0
 38 40  1  0  0  0  0
 38 36  1  0  0  0  0
 39 38  2  0  0  0  0
 40 42  1  0  0  0  0
 41 40  2  0  0  0  0
M  END
>  <MODEL>
9

>  <REMARK>
 VINA RESULT:      -4.6      2.526      7.348
  Name = 
  12 active torsions:
  status: ('A' for Active; 'I' for Inactive)
    1  A    between atoms: N_1  and  C_38
    2  A    between atoms: C_2  and  C_23
    3  A    between atoms: C_2  and  C_38
    4  A    between atoms: C_3  and  C_32
    5  A    between atoms: C_5  and  CA_30
    6  A    between atoms: C_6  and  CA_30
    7  A    between atoms: C_8  and  C_33
    8  A    between atoms: C_8  and  C_37
    9  A    between atoms: C_10  and  C_32
   10  A    between atoms: C_13  and  C_28
   11  A    between atoms: C_17  and  C_34
   12  A    between atoms: C_22  and  C_36
                            x       y       z     vdW  Elec       q    Type
                         _______ _______ _______ _____ _____    ______ ____

>  <TORSDO>
F 12

$$$$
