=
 OpenBabel11052409323D

 38 40  0  0  1  0  0  0  0  0999 V2000
  160.4590  209.5220  154.4480 C   0  0  2  0  0  3  0  0  0  0  0  0
  155.6190  212.7990  156.2970 C   0  0  0  0  0  3  0  0  0  0  0  0
  157.8660  212.8540  152.7580 N   0  0  0  0  0  0  0  0  0  0  0  0
  156.0030  213.5920  154.1130 C   0  0  0  0  0  0  0  0  0  0  0  0
  155.2740  213.5910  155.2560 N   0  0  0  0  0  0  0  0  0  0  0  0
  158.8850  212.2070  152.2860 C   0  0  0  0  0  3  0  0  0  0  0  0
  156.7050  211.9960  156.2010 N   0  0  0  0  0  0  0  0  0  0  0  0
  157.1330  212.7660  153.9830 C   0  0  0  0  0  0  0  0  0  0  0  0
  157.4730  211.9500  155.0790 C   0  0  0  0  0  0  0  0  0  0  0  0
  159.5020  210.6230  154.1020 C   0  0  0  0  0  0  0  0  0  0  0  0
  155.6140  214.4530  153.0450 N   0  0  0  0  0  1  0  0  0  0  0  0
  159.5960  211.1460  152.9230 N   0  0  0  0  0  0  0  0  0  0  0  0
  158.5860  211.0620  155.1050 N   0  0  0  0  0  2  0  0  0  0  0  0
  161.8290  207.6930  151.4040 C   0  0  1  0  0  3  0  0  0  0  0  0
  161.4100  208.9740  152.0990 C   0  0  2  0  0  3  0  0  0  0  0  0
  161.7360  206.5760  152.4430 C   0  0  0  0  0  2  0  0  0  0  0  0
  162.6680  209.7300  152.5120 C   0  0  0  0  0  1  0  0  0  0  0  0
  161.2090  207.1980  153.7220 C   0  0  0  0  0  2  0  0  0  0  0  0
  160.5830  208.5090  153.2970 C   0  0  1  0  0  3  0  0  0  0  0  0
  160.9350  207.4260  150.3310 O   0  0  0  0  0  0  0  0  0  0  0  0
  162.1210  208.5770  148.7180 O   0  0  0  0  0  0  0  0  0  0  0  0
  161.2610  207.6960  149.0010 C   0  0  0  0  0  0  0  0  0  0  0  0
  160.6200  206.9800  147.9880 O   0  0  0  0  0  0  0  0  0  0  0  0
  161.3350  206.3080  146.9560 C   0  0  0  0  0  2  0  0  0  0  0  0
  162.2210  205.2140  147.5340 C   0  0  0  0  0  2  0  0  0  0  0  0
  161.6020  203.8690  147.3310 C   0  0  0  0  0  0  0  0  0  0  0  0
  161.1400  203.1040  148.4510 N   0  0  0  0  0  0  0  0  0  0  0  0
  161.5080  203.4090  146.1610 O   0  0  0  0  0  0  0  0  0  0  0  0
  161.2660  203.5980  149.7070 O   0  0  0  0  0  1  0  0  0  0  0  0
  159.6010  201.4410  149.3670 C   0  0  0  0  0  1  0  0  0  0  0  0
  160.5760  201.7730  148.2510 C   0  0  0  0  0  3  0  0  0  0  0  0
  161.6810  200.7350  148.2040 C   0  0  0  0  0  1  0  0  0  0  0  0
  160.0150  208.8280  155.7350 C   0  0  0  0  0  2  0  0  0  0  0  0
  162.1370  208.1660  156.5770 O   0  0  0  0  0  1  0  0  0  0  0  0
  161.0470  208.9960  156.8390 C   0  0  1  0  0  3  0  0  0  0  0  0
  161.5090  210.4420  156.9090 C   0  0  0  0  0  2  0  0  0  0  0  0
  163.0110  210.5040  157.1050 C   0  0  0  0  0  2  0  0  0  0  0  0
  163.6340  211.0110  155.8970 N   0  0  0  0  0  1  0  0  0  0  0  0
  1 33  1  1  0  0  0
  3  8  1  0  0  0  0
  4  5  1  0  0  0  0
  5  2  2  0  0  0  0
  6  3  2  0  0  0  0
  6 12  1  0  0  0  0
  7  2  1  0  0  0  0
  8  4  2  0  0  0  0
  8  9  1  0  0  0  0
  9 13  1  0  0  0  0
  9  7  2  0  0  0  0
 10  1  1  0  0  0  0
 10 13  1  0  0  0  0
 11  4  1  0  0  0  0
 12 10  2  0  0  0  0
 14 20  1  6  0  0  0
 14 15  1  0  0  0  0
 14 16  1  0  0  0  0
 15 17  1  1  0  0  0
 15 19  1  0  0  0  0
 16 18  1  0  0  0  0
 19 18  1  0  0  0  0
 19  1  1  1  0  0  0
 21 22  2  0  0  0  0
 22 20  1  0  0  0  0
 23 22  1  0  0  0  0
 24 25  1  0  0  0  0
 24 23  1  0  0  0  0
 26 25  1  0  0  0  0
 26 27  1  0  0  0  0
 27 29  1  0  0  0  0
 28 26  2  0  0  0  0
 31 27  1  0  0  0  0
 31 30  1  0  0  0  0
 32 31  1  0  0  0  0
 33 35  1  0  0  0  0
 35 34  1  6  0  0  0
 35 36  1  0  0  0  0
 36 37  1  0  0  0  0
 38 37  1  0  0  0  0
M  END
>  <MODEL>
1

>  <REMARK>
 VINA RESULT:      -7.0      0.000      0.000
  Name = 
  13 active torsions:
  status: ('A' for Active; 'I' for Inactive)
    1  A    between atoms: C_1  and  C_7
    2  A    between atoms: C_3  and  C_18
    3  A    between atoms: C_4  and  O_29
    4  A    between atoms: C_7  and  C_31
    5  A    between atoms: C_10  and  C_19
    6  A    between atoms: C_10  and  C_31
    7  A    between atoms: C_17  and  C_18
    8  A    between atoms: C_17  and  O_26
    9  A    between atoms: C_19  and  C_30
   10  A    between atoms: C_19  and  C_38
   11  A    between atoms: N_21  and  C_24
   12  A    between atoms: O_26  and  C_33
   13  A    between atoms: O_29  and  C_33
                            x       y       z     vdW  Elec       q    Type
                         _______ _______ _______ _____ _____    ______ ____

>  <TORSDO>
F 13

$$$$
=
 OpenBabel11052409323D

 38 40  0  0  1  0  0  0  0  0999 V2000
  161.0140  208.9480  151.3920 C   0  0  2  0  0  3  0  0  0  0  0  0
  157.5380  213.5070  153.5630 C   0  0  0  0  0  3  0  0  0  0  0  0
  159.4630  210.2950  155.4480 N   0  0  0  0  0  0  0  0  0  0  0  0
  158.1670  212.3370  155.5090 C   0  0  0  0  0  0  0  0  0  0  0  0
  157.5330  213.3750  154.9100 N   0  0  0  0  0  0  0  0  0  0  0  0
  160.2090  209.3030  155.0780 C   0  0  0  0  0  3  0  0  0  0  0  0
  158.1850  212.5940  152.8000 N   0  0  0  0  0  0  0  0  0  0  0  0
  158.8500  211.3770  154.7420 C   0  0  0  0  0  0  0  0  0  0  0  0
  158.8420  211.5340  153.3420 C   0  0  0  0  0  0  0  0  0  0  0  0
  160.3810  209.5530  152.6090 C   0  0  0  0  0  0  0  0  0  0  0  0
  158.1250  212.2260  156.9290 N   0  0  0  0  0  1  0  0  0  0  0  0
  160.6510  209.0110  153.7520 N   0  0  0  0  0  0  0  0  0  0  0  0
  159.4840  210.6490  152.4300 N   0  0  0  0  0  2  0  0  0  0  0  0
  161.3130  205.2600  150.4990 C   0  0  1  0  0  3  0  0  0  0  0  0
  160.5840  206.5870  150.4110 C   0  0  2  0  0  3  0  0  0  0  0  0
  162.6170  205.5220  151.2510 C   0  0  0  0  0  2  0  0  0  0  0  0
  160.8480  207.1890  149.0350 C   0  0  0  0  0  1  0  0  0  0  0  0
  162.6180  206.9860  151.6490 C   0  0  0  0  0  2  0  0  0  0  0  0
  161.1730  207.4260  151.5440 C   0  0  1  0  0  3  0  0  0  0  0  0
  160.5160  204.3340  151.2270 O   0  0  0  0  0  0  0  0  0  0  0  0
  161.1380  202.2520  152.0090 O   0  0  0  0  0  0  0  0  0  0  0  0
  160.6510  202.9530  151.0780 C   0  0  0  0  0  0  0  0  0  0  0  0
  160.2430  202.3580  149.8820 O   0  0  0  0  0  0  0  0  0  0  0  0
  161.1050  201.5320  149.1050 C   0  0  0  0  0  2  0  0  0  0  0  0
  160.7880  201.6610  147.6220 C   0  0  0  0  0  2  0  0  0  0  0  0
  161.3190  202.9470  147.0780 C   0  0  0  0  0  0  0  0  0  0  0  0
  161.1060  203.3010  145.7060 N   0  0  0  0  0  0  0  0  0  0  0  0
  161.9740  203.7090  147.8390 O   0  0  0  0  0  0  0  0  0  0  0  0
  160.4190  202.4630  144.8910 O   0  0  0  0  0  1  0  0  0  0  0  0
  163.0520  204.7790  145.7330 C   0  0  0  0  0  1  0  0  0  0  0  0
  161.6640  204.5370  145.1680 C   0  0  0  0  0  3  0  0  0  0  0  0
  160.7600  205.7090  145.4990 C   0  0  0  0  0  1  0  0  0  0  0  0
  162.3640  209.6100  151.1200 C   0  0  0  0  0  2  0  0  0  0  0  0
  161.8640  209.5050  148.7980 O   0  0  0  0  0  1  0  0  0  0  0  0
  162.3610  210.3500  149.7910 C   0  0  1  0  0  3  0  0  0  0  0  0
  161.4940  211.5940  149.8870 C   0  0  0  0  0  2  0  0  0  0  0  0
  161.6390  212.4310  148.6310 C   0  0  0  0  0  2  0  0  0  0  0  0
  163.0240  212.4190  148.2000 N   0  0  0  0  0  1  0  0  0  0  0  0
  1 33  1  1  0  0  0
  1 10  1  0  0  0  0
  2  5  2  0  0  0  0
  4 11  1  0  0  0  0
  5  4  1  0  0  0  0
  6  3  2  0  0  0  0
  7  9  2  0  0  0  0
  7  2  1  0  0  0  0
  8  3  1  0  0  0  0
  8  4  2  0  0  0  0
  9  8  1  0  0  0  0
 10 12  2  0  0  0  0
 12  6  1  0  0  0  0
 13 10  1  0  0  0  0
 13  9  1  0  0  0  0
 14 20  1  1  0  0  0
 14 16  1  0  0  0  0
 15 17  1  6  0  0  0
 15 14  1  0  0  0  0
 15 19  1  0  0  0  0
 16 18  1  0  0  0  0
 19  1  1  6  0  0  0
 19 18  1  0  0  0  0
 22 20  1  0  0  0  0
 22 21  2  0  0  0  0
 23 22  1  0  0  0  0
 24 23  1  0  0  0  0
 25 24  1  0  0  0  0
 26 25  1  0  0  0  0
 26 28  2  0  0  0  0
 27 26  1  0  0  0  0
 29 27  1  0  0  0  0
 31 32  1  0  0  0  0
 31 27  1  0  0  0  0
 31 30  1  0  0  0  0
 35 34  1  6  0  0  0
 35 36  1  0  0  0  0
 35 33  1  0  0  0  0
 37 36  1  0  0  0  0
 38 37  1  0  0  0  0
M  END
>  <MODEL>
2

>  <REMARK>
 VINA RESULT:      -6.3      2.151      4.603
  Name = 
  13 active torsions:
  status: ('A' for Active; 'I' for Inactive)
    1  A    between atoms: C_1  and  C_7
    2  A    between atoms: C_3  and  C_18
    3  A    between atoms: C_4  and  O_29
    4  A    between atoms: C_7  and  C_31
    5  A    between atoms: C_10  and  C_19
    6  A    between atoms: C_10  and  C_31
    7  A    between atoms: C_17  and  C_18
    8  A    between atoms: C_17  and  O_26
    9  A    between atoms: C_19  and  C_30
   10  A    between atoms: C_19  and  C_38
   11  A    between atoms: N_21  and  C_24
   12  A    between atoms: O_26  and  C_33
   13  A    between atoms: O_29  and  C_33
                            x       y       z     vdW  Elec       q    Type
                         _______ _______ _______ _____ _____    ______ ____

>  <TORSDO>
F 13

$$$$
=
 OpenBabel11052409323D

 38 40  0  0  1  0  0  0  0  0999 V2000
  160.4050  209.0710  153.8210 C   0  0  2  0  0  3  0  0  0  0  0  0
  160.9860  206.6650  148.2130 C   0  0  0  0  0  3  0  0  0  0  0  0
  161.2660  204.9770  152.0400 N   0  0  0  0  0  0  0  0  0  0  0  0
  161.2400  204.7990  149.6280 C   0  0  0  0  0  0  0  0  0  0  0  0
  161.1610  205.3340  148.3840 N   0  0  0  0  0  0  0  0  0  0  0  0
  161.1560  205.3990  153.2600 C   0  0  0  0  0  3  0  0  0  0  0  0
  160.8860  207.4760  149.2930 N   0  0  0  0  0  0  0  0  0  0  0  0
  161.1360  205.6150  150.7670 C   0  0  0  0  0  0  0  0  0  0  0  0
  160.9540  206.9970  150.5650 C   0  0  0  0  0  0  0  0  0  0  0  0
  160.6940  207.8320  153.0280 C   0  0  0  0  0  0  0  0  0  0  0  0
  161.4410  203.3940  149.7650 N   0  0  0  0  0  1  0  0  0  0  0  0
  160.8480  206.7280  153.6820 N   0  0  0  0  0  0  0  0  0  0  0  0
  160.8330  207.9550  151.6120 N   0  0  0  0  0  2  0  0  0  0  0  0
  158.7850  212.2980  152.6200 C   0  0  1  0  0  3  0  0  0  0  0  0
  158.6860  210.9310  153.2680 C   0  0  2  0  0  3  0  0  0  0  0  0
  160.2710  212.5750  152.3960 C   0  0  0  0  0  2  0  0  0  0  0  0
  158.5180  211.1220  154.7710 C   0  0  0  0  0  1  0  0  0  0  0  0
  161.0290  211.3470  152.8610 C   0  0  0  0  0  2  0  0  0  0  0  0
  159.9990  210.2380  152.9050 C   0  0  1  0  0  3  0  0  0  0  0  0
  158.1070  212.2760  151.3690 O   0  0  0  0  0  0  0  0  0  0  0  0
  157.1050  214.3540  151.2810 O   0  0  0  0  0  0  0  0  0  0  0  0
  157.7490  213.4420  150.6910 C   0  0  0  0  0  0  0  0  0  0  0  0
  158.1110  213.5840  149.3500 O   0  0  0  0  0  0  0  0  0  0  0  0
  157.1510  213.6300  148.2990 C   0  0  0  0  0  2  0  0  0  0  0  0
  157.4060  212.5250  147.2840 C   0  0  0  0  0  2  0  0  0  0  0  0
  158.1880  213.0450  146.1210 C   0  0  0  0  0  0  0  0  0  0  0  0
  159.5900  212.7710  146.0060 N   0  0  0  0  0  0  0  0  0  0  0  0
  157.6010  213.7450  145.2530 O   0  0  0  0  0  0  0  0  0  0  0  0
  160.2160  212.0360  146.9570 O   0  0  0  0  0  1  0  0  0  0  0  0
  160.3910  212.3290  143.7400 C   0  0  0  0  0  1  0  0  0  0  0  0
  160.3580  213.3170  144.8920 C   0  0  0  0  0  3  0  0  0  0  0  0
  161.7710  213.6390  145.3370 C   0  0  0  0  0  1  0  0  0  0  0  0
  161.6210  209.4450  154.6680 C   0  0  0  0  0  2  0  0  0  0  0  0
  161.7960  208.1560  156.6590 O   0  0  0  0  0  1  0  0  0  0  0  0
  161.3070  209.3620  156.1540 C   0  0  1  0  0  3  0  0  0  0  0  0
  161.9510  210.5250  156.8910 C   0  0  0  0  0  2  0  0  0  0  0  0
  163.2710  210.8910  156.2420 C   0  0  0  0  0  2  0  0  0  0  0  0
  164.1990  211.3470  157.2600 N   0  0  0  0  0  1  0  0  0  0  0  0
  1 33  1  6  0  0  0
  2  5  2  0  0  0  0
  2  7  1  0  0  0  0
  3  6  2  0  0  0  0
  4 11  1  0  0  0  0
  4  8  2  0  0  0  0
  5  4  1  0  0  0  0
  6 12  1  0  0  0  0
  7  9  2  0  0  0  0
  8  3  1  0  0  0  0
  9  8  1  0  0  0  0
  9 13  1  0  0  0  0
 10 12  2  0  0  0  0
 10  1  1  0  0  0  0
 13 10  1  0  0  0  0
 14 20  1  6  0  0  0
 14 15  1  0  0  0  0
 15 17  1  1  0  0  0
 16 14  1  0  0  0  0
 16 18  1  0  0  0  0
 18 19  1  0  0  0  0
 19 15  1  0  0  0  0
 19  1  1  1  0  0  0
 22 21  2  0  0  0  0
 22 20  1  0  0  0  0
 23 22  1  0  0  0  0
 24 23  1  0  0  0  0
 25 24  1  0  0  0  0
 26 25  1  0  0  0  0
 27 26  1  0  0  0  0
 27 29  1  0  0  0  0
 28 26  2  0  0  0  0
 30 31  1  0  0  0  0
 31 32  1  0  0  0  0
 31 27  1  0  0  0  0
 33 35  1  0  0  0  0
 35 34  1  1  0  0  0
 35 36  1  0  0  0  0
 37 36  1  0  0  0  0
 37 38  1  0  0  0  0
M  END
>  <MODEL>
3

>  <REMARK>
 VINA RESULT:      -6.2      4.023      7.841
  Name = 
  13 active torsions:
  status: ('A' for Active; 'I' for Inactive)
    1  A    between atoms: C_1  and  C_7
    2  A    between atoms: C_3  and  C_18
    3  A    between atoms: C_4  and  O_29
    4  A    between atoms: C_7  and  C_31
    5  A    between atoms: C_10  and  C_19
    6  A    between atoms: C_10  and  C_31
    7  A    between atoms: C_17  and  C_18
    8  A    between atoms: C_17  and  O_26
    9  A    between atoms: C_19  and  C_30
   10  A    between atoms: C_19  and  C_38
   11  A    between atoms: N_21  and  C_24
   12  A    between atoms: O_26  and  C_33
   13  A    between atoms: O_29  and  C_33
                            x       y       z     vdW  Elec       q    Type
                         _______ _______ _______ _____ _____    ______ ____

>  <TORSDO>
F 13

$$$$
=
 OpenBabel11052409323D

 38 40  0  0  1  0  0  0  0  0999 V2000
  161.1660  206.9170  151.0810 C   0  0  2  0  0  3  0  0  0  0  0  0
  161.1530  202.2300  147.1290 C   0  0  0  0  0  3  0  0  0  0  0  0
  161.2650  206.3830  146.5660 N   0  0  0  0  0  0  0  0  0  0  0  0
  161.3320  204.1150  145.7270 C   0  0  0  0  0  0  0  0  0  0  0  0
  161.2870  202.7700  145.8960 N   0  0  0  0  0  0  0  0  0  0  0  0
  161.2760  207.4310  147.3280 C   0  0  0  0  0  3  0  0  0  0  0  0
  161.0640  203.0390  148.2120 N   0  0  0  0  0  0  0  0  0  0  0  0
  161.2460  204.9780  146.8330 C   0  0  0  0  0  0  0  0  0  0  0  0
  161.1070  204.3940  148.1070 C   0  0  0  0  0  0  0  0  0  0  0  0
  161.1690  206.5120  149.6370 C   0  0  0  0  0  0  0  0  0  0  0  0
  161.4580  204.6440  144.4090 N   0  0  0  0  0  1  0  0  0  0  0  0
  161.2710  207.4530  148.7550 N   0  0  0  0  0  0  0  0  0  0  0  0
  161.0050  205.1300  149.3230 N   0  0  0  0  0  2  0  0  0  0  0  0
  161.0290  210.3780  152.6580 C   0  0  1  0  0  3  0  0  0  0  0  0
  160.4060  209.0210  152.3890 C   0  0  2  0  0  3  0  0  0  0  0  0
  162.4460  210.3340  152.0870 C   0  0  0  0  0  2  0  0  0  0  0  0
  160.5150  208.1830  153.6580 C   0  0  0  0  0  1  0  0  0  0  0  0
  162.6250  208.9750  151.4380 C   0  0  0  0  0  2  0  0  0  0  0  0
  161.2200  208.4460  151.2320 C   0  0  1  0  0  3  0  0  0  0  0  0
  160.2730  211.3820  151.9910 O   0  0  0  0  0  0  0  0  0  0  0  0
  159.7620  212.5470  153.9190 O   0  0  0  0  0  0  0  0  0  0  0  0
  159.7600  212.4960  152.6560 C   0  0  0  0  0  0  0  0  0  0  0  0
  159.2400  213.5520  151.9060 O   0  0  0  0  0  0  0  0  0  0  0  0
  159.0310  213.4620  150.5000 C   0  0  0  0  0  2  0  0  0  0  0  0
  160.3090  213.7910  149.7400 C   0  0  0  0  0  2  0  0  0  0  0  0
  160.0530  213.8340  148.2690 C   0  0  0  0  0  0  0  0  0  0  0  0
  160.9680  213.2180  147.3530 N   0  0  0  0  0  0  0  0  0  0  0  0
  159.0310  214.4340  147.8420 O   0  0  0  0  0  0  0  0  0  0  0  0
  162.0770  212.5940  147.8210 O   0  0  0  0  0  1  0  0  0  0  0  0
  159.8570  212.1510  145.4560 C   0  0  0  0  0  1  0  0  0  0  0  0
  160.7370  213.3000  145.9150 C   0  0  0  0  0  3  0  0  0  0  0  0
  162.0570  213.2700  145.1680 C   0  0  0  0  0  1  0  0  0  0  0  0
  162.3360  206.2580  151.8100 C   0  0  0  0  0  2  0  0  0  0  0  0
  161.6560  205.6580  154.0080 O   0  0  0  0  0  1  0  0  0  0  0  0
  161.8590  205.1420  152.7280 C   0  0  1  0  0  3  0  0  0  0  0  0
  160.5630  204.5500  152.2020 C   0  0  0  0  0  2  0  0  0  0  0  0
  160.6320  203.0360  152.2230 C   0  0  0  0  0  2  0  0  0  0  0  0
  161.8800  202.6010  151.6250 N   0  0  0  0  0  1  0  0  0  0  0  0
  1 33  1  1  0  0  0
  2  7  1  0  0  0  0
  3  8  1  0  0  0  0
  3  6  2  0  0  0  0
  4  5  1  0  0  0  0
  4  8  2  0  0  0  0
  5  2  2  0  0  0  0
  6 12  1  0  0  0  0
  8  9  1  0  0  0  0
  9  7  2  0  0  0  0
  9 13  1  0  0  0  0
 10  1  1  0  0  0  0
 11  4  1  0  0  0  0
 12 10  2  0  0  0  0
 13 10  1  0  0  0  0
 14 20  1  6  0  0  0
 15 14  1  0  0  0  0
 15 17  1  1  0  0  0
 16 14  1  0  0  0  0
 18 16  1  0  0  0  0
 19  1  1  1  0  0  0
 19 18  1  0  0  0  0
 19 15  1  0  0  0  0
 20 22  1  0  0  0  0
 22 21  2  0  0  0  0
 23 22  1  0  0  0  0
 24 23  1  0  0  0  0
 25 24  1  0  0  0  0
 26 25  1  0  0  0  0
 27 29  1  0  0  0  0
 27 26  1  0  0  0  0
 28 26  2  0  0  0  0
 30 31  1  0  0  0  0
 31 27  1  0  0  0  0
 32 31  1  0  0  0  0
 33 35  1  0  0  0  0
 35 34  1  1  0  0  0
 36 37  1  0  0  0  0
 36 35  1  0  0  0  0
 38 37  1  0  0  0  0
M  END
>  <MODEL>
4

>  <REMARK>
 VINA RESULT:      -6.2      4.543      9.052
  Name = 
  13 active torsions:
  status: ('A' for Active; 'I' for Inactive)
    1  A    between atoms: C_1  and  C_7
    2  A    between atoms: C_3  and  C_18
    3  A    between atoms: C_4  and  O_29
    4  A    between atoms: C_7  and  C_31
    5  A    between atoms: C_10  and  C_19
    6  A    between atoms: C_10  and  C_31
    7  A    between atoms: C_17  and  C_18
    8  A    between atoms: C_17  and  O_26
    9  A    between atoms: C_19  and  C_30
   10  A    between atoms: C_19  and  C_38
   11  A    between atoms: N_21  and  C_24
   12  A    between atoms: O_26  and  C_33
   13  A    between atoms: O_29  and  C_33
                            x       y       z     vdW  Elec       q    Type
                         _______ _______ _______ _____ _____    ______ ____

>  <TORSDO>
F 13

$$$$
=
 OpenBabel11052409323D

 38 40  0  0  1  0  0  0  0  0999 V2000
  161.6400  208.4590  152.4720 C   0  0  2  0  0  3  0  0  0  0  0  0
  160.1770  213.8320  149.9060 C   0  0  0  0  0  3  0  0  0  0  0  0
  161.8860  210.3390  148.3390 N   0  0  0  0  0  0  0  0  0  0  0  0
  160.9800  212.5680  148.0870 C   0  0  0  0  0  0  0  0  0  0  0  0
  160.4360  213.7070  148.5840 N   0  0  0  0  0  0  0  0  0  0  0  0
  162.2210  209.1740  148.7950 C   0  0  0  0  0  3  0  0  0  0  0  0
  160.4620  212.8090  150.7470 N   0  0  0  0  0  0  0  0  0  0  0  0
  161.2820  211.4890  148.9360 C   0  0  0  0  0  0  0  0  0  0  0  0
  161.0040  211.6420  150.3090 C   0  0  0  0  0  0  0  0  0  0  0  0
  161.6470  209.2750  151.2140 C   0  0  0  0  0  0  0  0  0  0  0  0
  161.2520  212.4820  146.6900 N   0  0  0  0  0  1  0  0  0  0  0  0
  162.0580  208.6990  150.1310 N   0  0  0  0  0  0  0  0  0  0  0  0
  161.2530  210.6450  151.2950 N   0  0  0  0  0  2  0  0  0  0  0  0
  161.5730  204.7210  151.7630 C   0  0  1  0  0  3  0  0  0  0  0  0
  162.0370  206.1230  151.4200 C   0  0  2  0  0  3  0  0  0  0  0  0
  160.8180  204.8160  153.0880 C   0  0  0  0  0  2  0  0  0  0  0  0
  163.4960  206.2630  151.8390 C   0  0  0  0  0  1  0  0  0  0  0  0
  160.7940  206.2800  153.4840 C   0  0  0  0  0  2  0  0  0  0  0  0
  161.1060  207.0410  152.2120 C   0  0  1  0  0  3  0  0  0  0  0  0
  160.6970  204.2530  150.7430 O   0  0  0  0  0  0  0  0  0  0  0  0
  161.2940  202.0250  150.8460 O   0  0  0  0  0  0  0  0  0  0  0  0
  160.8220  202.9850  150.1750 C   0  0  0  0  0  0  0  0  0  0  0  0
  160.4200  202.7940  148.8510 O   0  0  0  0  0  0  0  0  0  0  0  0
  160.5750  201.5500  148.1760 C   0  0  0  0  0  2  0  0  0  0  0  0
  161.4930  201.6980  146.9710 C   0  0  0  0  0  2  0  0  0  0  0  0
  160.8840  202.6010  145.9490 C   0  0  0  0  0  0  0  0  0  0  0  0
  161.2550  203.9840  145.8860 N   0  0  0  0  0  0  0  0  0  0  0  0
  160.0240  202.1350  145.1550 O   0  0  0  0  0  0  0  0  0  0  0  0
  162.1640  204.4810  146.7600 O   0  0  0  0  0  1  0  0  0  0  0  0
  161.5570  205.1180  143.7420 C   0  0  0  0  0  1  0  0  0  0  0  0
  160.6250  204.8730  144.9150 C   0  0  0  0  0  3  0  0  0  0  0  0
  160.2600  206.1910  145.5690 C   0  0  0  0  0  1  0  0  0  0  0  0
  160.8110  209.1620  153.5460 C   0  0  0  0  0  2  0  0  0  0  0  0
  161.3440  211.0850  154.8390 O   0  0  0  0  0  1  0  0  0  0  0  0
  161.6990  209.7520  154.6320 C   0  0  1  0  0  3  0  0  0  0  0  0
  161.5350  208.9700  155.9240 C   0  0  0  0  0  2  0  0  0  0  0  0
  160.0740  208.6370  156.1540 C   0  0  0  0  0  2  0  0  0  0  0  0
  159.9740  207.4510  156.9830 N   0  0  0  0  0  1  0  0  0  0  0  0
  1 33  1  1  0  0  0
  2  7  1  0  0  0  0
  3  6  2  0  0  0  0
  3  8  1  0  0  0  0
  4  5  1  0  0  0  0
  4  8  2  0  0  0  0
  5  2  2  0  0  0  0
  6 12  1  0  0  0  0
  8  9  1  0  0  0  0
  9  7  2  0  0  0  0
  9 13  1  0  0  0  0
 10 13  1  0  0  0  0
 10  1  1  0  0  0  0
 11  4  1  0  0  0  0
 12 10  2  0  0  0  0
 14 20  1  6  0  0  0
 14 16  1  0  0  0  0
 15 14  1  0  0  0  0
 15 17  1  1  0  0  0
 15 19  1  0  0  0  0
 16 18  1  0  0  0  0
 19  1  1  1  0  0  0
 19 18  1  0  0  0  0
 22 20  1  0  0  0  0
 22 21  2  0  0  0  0
 23 22  1  0  0  0  0
 24 23  1  0  0  0  0
 25 24  1  0  0  0  0
 26 25  1  0  0  0  0
 27 26  1  0  0  0  0
 27 29  1  0  0  0  0
 28 26  2  0  0  0  0
 30 31  1  0  0  0  0
 31 32  1  0  0  0  0
 31 27  1  0  0  0  0
 33 35  1  0  0  0  0
 35 34  1  1  0  0  0
 35 36  1  0  0  0  0
 36 37  1  0  0  0  0
 37 38  1  0  0  0  0
M  END
>  <MODEL>
5

>  <REMARK>
 VINA RESULT:      -6.0      3.285      4.905
  Name = 
  13 active torsions:
  status: ('A' for Active; 'I' for Inactive)
    1  A    between atoms: C_1  and  C_7
    2  A    between atoms: C_3  and  C_18
    3  A    between atoms: C_4  and  O_29
    4  A    between atoms: C_7  and  C_31
    5  A    between atoms: C_10  and  C_19
    6  A    between atoms: C_10  and  C_31
    7  A    between atoms: C_17  and  C_18
    8  A    between atoms: C_17  and  O_26
    9  A    between atoms: C_19  and  C_30
   10  A    between atoms: C_19  and  C_38
   11  A    between atoms: N_21  and  C_24
   12  A    between atoms: O_26  and  C_33
   13  A    between atoms: O_29  and  C_33
                            x       y       z     vdW  Elec       q    Type
                         _______ _______ _______ _____ _____    ______ ____

>  <TORSDO>
F 13

$$$$
=
 OpenBabel11052409323D

 38 40  0  0  1  0  0  0  0  0999 V2000
  159.7470  212.1820  154.1380 C   0  0  2  0  0  3  0  0  0  0  0  0
  162.1090  211.5300  148.5180 C   0  0  0  0  0  3  0  0  0  0  0  0
  159.2160  214.1380  150.0680 N   0  0  0  0  0  0  0  0  0  0  0  0
  160.6390  213.3550  148.2750 C   0  0  0  0  0  0  0  0  0  0  0  0
  161.5680  212.5100  147.7600 N   0  0  0  0  0  0  0  0  0  0  0  0
  158.6660  214.3480  151.2220 C   0  0  0  0  0  3  0  0  0  0  0  0
  161.7240  211.3860  149.8090 N   0  0  0  0  0  0  0  0  0  0  0  0
  160.2240  213.2310  149.6130 C   0  0  0  0  0  0  0  0  0  0  0  0
  160.8010  212.2040  150.3830 C   0  0  0  0  0  0  0  0  0  0  0  0
  159.7170  212.6610  152.7170 C   0  0  0  0  0  0  0  0  0  0  0  0
  160.0820  214.3650  147.4380 N   0  0  0  0  0  1  0  0  0  0  0  0
  158.9540  213.6680  152.4430 N   0  0  0  0  0  0  0  0  0  0  0  0
  160.4860  211.9480  151.7480 N   0  0  0  0  0  2  0  0  0  0  0  0
  160.8040  208.5780  154.7500 C   0  0  1  0  0  3  0  0  0  0  0  0
  161.0480  209.9400  154.1300 C   0  0  2  0  0  3  0  0  0  0  0  0
  159.5650  208.7100  155.6340 C   0  0  0  0  0  2  0  0  0  0  0  0
  162.1300  210.6480  154.9370 C   0  0  0  0  0  1  0  0  0  0  0  0
  159.0570  210.1310  155.4830 C   0  0  0  0  0  2  0  0  0  0  0  0
  159.6960  210.6470  154.2100 C   0  0  1  0  0  3  0  0  0  0  0  0
  160.5590  207.6290  153.7180 O   0  0  0  0  0  0  0  0  0  0  0  0
  160.8020  208.4690  151.5810 O   0  0  0  0  0  0  0  0  0  0  0  0
  161.2070  207.6830  152.4830 C   0  0  0  0  0  0  0  0  0  0  0  0
  162.3070  206.8530  152.2590 O   0  0  0  0  0  0  0  0  0  0  0  0
  162.3550  205.9190  151.1860 C   0  0  0  0  0  2  0  0  0  0  0  0
  160.9720  205.7120  150.5850 C   0  0  0  0  0  2  0  0  0  0  0  0
  161.0700  205.0610  149.2440 C   0  0  0  0  0  0  0  0  0  0  0  0
  161.2690  205.8510  148.0650 N   0  0  0  0  0  0  0  0  0  0  0  0
  160.9570  203.8090  149.1610 O   0  0  0  0  0  0  0  0  0  0  0  0
  161.3670  207.2000  148.1620 O   0  0  0  0  0  1  0  0  0  0  0  0
  162.7620  205.0200  146.3180 C   0  0  0  0  0  1  0  0  0  0  0  0
  161.3210  205.2160  146.7520 C   0  0  0  0  0  3  0  0  0  0  0  0
  160.5840  206.0610  145.7300 C   0  0  0  0  0  1  0  0  0  0  0  0
  158.5910  212.8010  154.9220 C   0  0  0  0  0  2  0  0  0  0  0  0
  159.9690  214.3080  156.1410 O   0  0  0  0  0  1  0  0  0  0  0  0
  159.0440  213.2740  156.2950 C   0  0  1  0  0  3  0  0  0  0  0  0
  157.8530  213.7670  157.0990 C   0  0  0  0  0  2  0  0  0  0  0  0
  156.8340  212.6560  157.2610 C   0  0  0  0  0  2  0  0  0  0  0  0
  155.5510  213.1000  156.7510 N   0  0  0  0  0  1  0  0  0  0  0  0
  1 33  1  1  0  0  0
  2  7  1  0  0  0  0
  3  6  2  0  0  0  0
  4  8  2  0  0  0  0
  5  4  1  0  0  0  0
  5  2  2  0  0  0  0
  6 12  1  0  0  0  0
  7  9  2  0  0  0  0
  8  3  1  0  0  0  0
  8  9  1  0  0  0  0
  9 13  1  0  0  0  0
 10  1  1  0  0  0  0
 11  4  1  0  0  0  0
 12 10  2  0  0  0  0
 13 10  1  0  0  0  0
 14 20  1  6  0  0  0
 14 16  1  0  0  0  0
 15 19  1  0  0  0  0
 15 14  1  0  0  0  0
 15 17  1  1  0  0  0
 18 16  1  0  0  0  0
 19  1  1  1  0  0  0
 19 18  1  0  0  0  0
 21 22  2  0  0  0  0
 22 20  1  0  0  0  0
 23 22  1  0  0  0  0
 24 23  1  0  0  0  0
 25 24  1  0  0  0  0
 26 25  1  0  0  0  0
 27 29  1  0  0  0  0
 27 26  1  0  0  0  0
 28 26  2  0  0  0  0
 30 31  1  0  0  0  0
 31 27  1  0  0  0  0
 32 31  1  0  0  0  0
 33 35  1  0  0  0  0
 35 34  1  6  0  0  0
 35 36  1  0  0  0  0
 36 37  1  0  0  0  0
 38 37  1  0  0  0  0
M  END
>  <MODEL>
6

>  <REMARK>
 VINA RESULT:      -5.8      2.702      5.088
  Name = 
  13 active torsions:
  status: ('A' for Active; 'I' for Inactive)
    1  A    between atoms: C_1  and  C_7
    2  A    between atoms: C_3  and  C_18
    3  A    between atoms: C_4  and  O_29
    4  A    between atoms: C_7  and  C_31
    5  A    between atoms: C_10  and  C_19
    6  A    between atoms: C_10  and  C_31
    7  A    between atoms: C_17  and  C_18
    8  A    between atoms: C_17  and  O_26
    9  A    between atoms: C_19  and  C_30
   10  A    between atoms: C_19  and  C_38
   11  A    between atoms: N_21  and  C_24
   12  A    between atoms: O_26  and  C_33
   13  A    between atoms: O_29  and  C_33
                            x       y       z     vdW  Elec       q    Type
                         _______ _______ _______ _____ _____    ______ ____

>  <TORSDO>
F 13

$$$$
=
 OpenBabel11052409323D

 38 40  0  0  1  0  0  0  0  0999 V2000
  160.7310  207.5990  151.5730 C   0  0  2  0  0  3  0  0  0  0  0  0
  160.8170  202.2310  148.6130 C   0  0  0  0  0  3  0  0  0  0  0  0
  161.6160  206.1500  147.3550 N   0  0  0  0  0  0  0  0  0  0  0  0
  161.5230  203.7630  146.9690 C   0  0  0  0  0  0  0  0  0  0  0  0
  161.2580  202.4920  147.3610 N   0  0  0  0  0  0  0  0  0  0  0  0
  161.6270  207.3240  147.9010 C   0  0  0  0  0  3  0  0  0  0  0  0
  160.6370  203.2480  149.4890 N   0  0  0  0  0  0  0  0  0  0  0  0
  161.3490  204.8380  147.8580 C   0  0  0  0  0  0  0  0  0  0  0  0
  160.8890  204.5420  149.1560 C   0  0  0  0  0  0  0  0  0  0  0  0
  160.9530  206.9110  150.2590 C   0  0  0  0  0  0  0  0  0  0  0  0
  161.9710  203.9970  145.6360 N   0  0  0  0  0  1  0  0  0  0  0  0
  161.3530  207.6370  149.2660 N   0  0  0  0  0  0  0  0  0  0  0  0
  160.6610  205.5160  150.1700 N   0  0  0  0  0  2  0  0  0  0  0  0
  160.7940  211.2970  152.4670 C   0  0  1  0  0  3  0  0  0  0  0  0
  160.0760  209.9630  152.4120 C   0  0  2  0  0  3  0  0  0  0  0  0
  162.2320  211.0450  152.0170 C   0  0  0  0  0  2  0  0  0  0  0  0
  160.0440  209.3760  153.8180 C   0  0  0  0  0  1  0  0  0  0  0  0
  162.3340  209.5780  151.6450 C   0  0  0  0  0  2  0  0  0  0  0  0
  160.9040  209.1210  151.4410 C   0  0  1  0  0  3  0  0  0  0  0  0
  160.1630  212.2080  151.5740 O   0  0  0  0  0  0  0  0  0  0  0  0
  158.6230  212.9430  153.1310 O   0  0  0  0  0  0  0  0  0  0  0  0
  159.1160  213.0400  151.9710 C   0  0  0  0  0  0  0  0  0  0  0  0
  158.6180  213.9800  151.0670 O   0  0  0  0  0  0  0  0  0  0  0  0
  157.8420  213.6120  149.9300 C   0  0  0  0  0  2  0  0  0  0  0  0
  158.3710  214.2850  148.6720 C   0  0  0  0  0  2  0  0  0  0  0  0
  159.3800  213.4160  147.9930 C   0  0  0  0  0  0  0  0  0  0  0  0
  160.7730  213.5380  148.3080 N   0  0  0  0  0  0  0  0  0  0  0  0
  158.9920  212.5880  147.1270 O   0  0  0  0  0  0  0  0  0  0  0  0
  161.1830  214.4480  149.2250 O   0  0  0  0  0  1  0  0  0  0  0  0
  162.0030  211.4270  148.3710 C   0  0  0  0  0  1  0  0  0  0  0  0
  161.7600  212.7190  147.6110 C   0  0  0  0  0  3  0  0  0  0  0  0
  163.0620  213.4810  147.4580 C   0  0  0  0  0  1  0  0  0  0  0  0
  161.6840  207.0340  152.6260 C   0  0  0  0  0  2  0  0  0  0  0  0
  161.2400  204.7660  153.1840 O   0  0  0  0  0  1  0  0  0  0  0  0
  160.9650  206.0790  153.5670 C   0  0  1  0  0  3  0  0  0  0  0  0
  161.4290  206.3040  154.9970 C   0  0  0  0  0  2  0  0  0  0  0  0
  160.3290  206.9590  155.8080 C   0  0  0  0  0  2  0  0  0  0  0  0
  160.9180  207.7350  156.8830 N   0  0  0  0  0  1  0  0  0  0  0  0
  1 33  1  1  0  0  0
  2  7  1  0  0  0  0
  3  8  1  0  0  0  0
  3  6  2  0  0  0  0
  4  5  1  0  0  0  0
  4  8  2  0  0  0  0
  5  2  2  0  0  0  0
  6 12  1  0  0  0  0
  8  9  1  0  0  0  0
  9  7  2  0  0  0  0
  9 13  1  0  0  0  0
 10  1  1  0  0  0  0
 11  4  1  0  0  0  0
 12 10  2  0  0  0  0
 13 10  1  0  0  0  0
 14 20  1  6  0  0  0
 15 14  1  0  0  0  0
 15 17  1  1  0  0  0
 16 14  1  0  0  0  0
 18 16  1  0  0  0  0
 19  1  1  1  0  0  0
 19 18  1  0  0  0  0
 19 15  1  0  0  0  0
 20 22  1  0  0  0  0
 22 21  2  0  0  0  0
 23 22  1  0  0  0  0
 24 23  1  0  0  0  0
 25 24  1  0  0  0  0
 26 27  1  0  0  0  0
 26 25  1  0  0  0  0
 27 29  1  0  0  0  0
 28 26  2  0  0  0  0
 31 27  1  0  0  0  0
 31 30  1  0  0  0  0
 32 31  1  0  0  0  0
 33 35  1  0  0  0  0
 35 34  1  6  0  0  0
 35 36  1  0  0  0  0
 36 37  1  0  0  0  0
 37 38  1  0  0  0  0
M  END
>  <MODEL>
7

>  <REMARK>
 VINA RESULT:      -5.8      3.783      8.541
  Name = 
  13 active torsions:
  status: ('A' for Active; 'I' for Inactive)
    1  A    between atoms: C_1  and  C_7
    2  A    between atoms: C_3  and  C_18
    3  A    between atoms: C_4  and  O_29
    4  A    between atoms: C_7  and  C_31
    5  A    between atoms: C_10  and  C_19
    6  A    between atoms: C_10  and  C_31
    7  A    between atoms: C_17  and  C_18
    8  A    between atoms: C_17  and  O_26
    9  A    between atoms: C_19  and  C_30
   10  A    between atoms: C_19  and  C_38
   11  A    between atoms: N_21  and  C_24
   12  A    between atoms: O_26  and  C_33
   13  A    between atoms: O_29  and  C_33
                            x       y       z     vdW  Elec       q    Type
                         _______ _______ _______ _____ _____    ______ ____

>  <TORSDO>
F 13

$$$$
=
 OpenBabel11052409323D

 38 40  0  0  1  0  0  0  0  0999 V2000
  161.0550  207.8620  152.6160 C   0  0  2  0  0  3  0  0  0  0  0  0
  156.9830  212.1430  154.2520 C   0  0  0  0  0  3  0  0  0  0  0  0
  160.2860  212.2430  151.6720 N   0  0  0  0  0  0  0  0  0  0  0  0
  158.3400  213.2620  152.6850 C   0  0  0  0  0  0  0  0  0  0  0  0
  157.2740  213.2450  153.5230 N   0  0  0  0  0  0  0  0  0  0  0  0
  161.1850  211.4020  151.2690 C   0  0  0  0  0  3  0  0  0  0  0  0
  157.7620  211.0400  154.1450 N   0  0  0  0  0  0  0  0  0  0  0  0
  159.1630  212.1310  152.5510 C   0  0  0  0  0  0  0  0  0  0  0  0
  158.8410  210.9950  153.3180 C   0  0  0  0  0  0  0  0  0  0  0  0
  160.6340  209.2940  152.4690 C   0  0  0  0  0  0  0  0  0  0  0  0
  158.6210  214.4490  151.9460 N   0  0  0  0  0  1  0  0  0  0  0  0
  161.2920  210.0250  151.6290 N   0  0  0  0  0  0  0  0  0  0  0  0
  159.5760  209.7750  153.2970 N   0  0  0  0  0  2  0  0  0  0  0  0
  161.4310  205.8440  149.4110 C   0  0  1  0  0  3  0  0  0  0  0  0
  161.7200  207.0850  150.2340 C   0  0  2  0  0  3  0  0  0  0  0  0
  160.6830  204.8730  150.3240 C   0  0  0  0  0  2  0  0  0  0  0  0
  163.1550  207.0020  150.7410 C   0  0  0  0  0  1  0  0  0  0  0  0
  160.4860  205.5720  151.6550 C   0  0  0  0  0  2  0  0  0  0  0  0
  160.6930  207.0440  151.3650 C   0  0  1  0  0  3  0  0  0  0  0  0
  160.6090  206.1950  148.3050 O   0  0  0  0  0  0  0  0  0  0  0  0
  162.2980  206.6440  146.7950 O   0  0  0  0  0  0  0  0  0  0  0  0
  161.1050  206.2840  147.0030 C   0  0  0  0  0  0  0  0  0  0  0  0
  160.2620  205.9710  145.9350 O   0  0  0  0  0  0  0  0  0  0  0  0
  160.6700  205.1330  144.8580 C   0  0  0  0  0  2  0  0  0  0  0  0
  161.7220  204.1340  145.3170 C   0  0  0  0  0  2  0  0  0  0  0  0
  161.0790  202.8820  145.8190 C   0  0  0  0  0  0  0  0  0  0  0  0
  161.3270  202.4200  147.1530 N   0  0  0  0  0  0  0  0  0  0  0  0
  160.3310  202.2260  145.0460 O   0  0  0  0  0  0  0  0  0  0  0  0
  162.1520  203.1210  147.9690 O   0  0  0  0  0  1  0  0  0  0  0  0
  160.4590  201.2510  149.1150 C   0  0  0  0  0  1  0  0  0  0  0  0
  160.7320  201.1740  147.6230 C   0  0  0  0  0  3  0  0  0  0  0  0
  161.6530  200.0070  147.3260 C   0  0  0  0  0  1  0  0  0  0  0  0
  160.4160  207.2550  153.8640 C   0  0  0  0  0  2  0  0  0  0  0  0
  161.9880  208.6830  154.9340 O   0  0  0  0  0  1  0  0  0  0  0  0
  161.2730  207.4960  155.0980 C   0  0  1  0  0  3  0  0  0  0  0  0
  160.3950  207.5930  156.3340 C   0  0  0  0  0  2  0  0  0  0  0  0
  160.7230  208.8510  157.1130 C   0  0  0  0  0  2  0  0  0  0  0  0
  159.8340  209.9210  156.7000 N   0  0  0  0  0  1  0  0  0  0  0  0
  1 33  1  1  0  0  0
  3  8  1  0  0  0  0
  4  5  1  0  0  0  0
  5  2  2  0  0  0  0
  6 12  1  0  0  0  0
  6  3  2  0  0  0  0
  7  2  1  0  0  0  0
  8  4  2  0  0  0  0
  8  9  1  0  0  0  0
  9  7  2  0  0  0  0
 10  1  1  0  0  0  0
 10 13  1  0  0  0  0
 11  4  1  0  0  0  0
 12 10  2  0  0  0  0
 13  9  1  0  0  0  0
 14 20  1  6  0  0  0
 14 15  1  0  0  0  0
 14 16  1  0  0  0  0
 15 17  1  1  0  0  0
 15 19  1  0  0  0  0
 16 18  1  0  0  0  0
 19 18  1  0  0  0  0
 19  1  1  1  0  0  0
 21 22  2  0  0  0  0
 22 20  1  0  0  0  0
 23 22  1  0  0  0  0
 24 25  1  0  0  0  0
 24 23  1  0  0  0  0
 25 26  1  0  0  0  0
 26 27  1  0  0  0  0
 27 31  1  0  0  0  0
 27 29  1  0  0  0  0
 28 26  2  0  0  0  0
 31 30  1  0  0  0  0
 32 31  1  0  0  0  0
 33 35  1  0  0  0  0
 35 34  1  6  0  0  0
 35 36  1  0  0  0  0
 36 37  1  0  0  0  0
 38 37  1  0  0  0  0
M  END
>  <MODEL>
8

>  <REMARK>
 VINA RESULT:      -5.7      1.758      2.503
  Name = 
  13 active torsions:
  status: ('A' for Active; 'I' for Inactive)
    1  A    between atoms: C_1  and  C_7
    2  A    between atoms: C_3  and  C_18
    3  A    between atoms: C_4  and  O_29
    4  A    between atoms: C_7  and  C_31
    5  A    between atoms: C_10  and  C_19
    6  A    between atoms: C_10  and  C_31
    7  A    between atoms: C_17  and  C_18
    8  A    between atoms: C_17  and  O_26
    9  A    between atoms: C_19  and  C_30
   10  A    between atoms: C_19  and  C_38
   11  A    between atoms: N_21  and  C_24
   12  A    between atoms: O_26  and  C_33
   13  A    between atoms: O_29  and  C_33
                            x       y       z     vdW  Elec       q    Type
                         _______ _______ _______ _____ _____    ______ ____

>  <TORSDO>
F 13

$$$$
=
 OpenBabel11052409323D

 38 40  0  0  1  0  0  0  0  0999 V2000
  159.8610  212.1090  153.6270 C   0  0  2  0  0  3  0  0  0  0  0  0
  155.4120  214.1630  149.9430 C   0  0  0  0  0  3  0  0  0  0  0  0
  159.5050  213.5110  149.3160 N   0  0  0  0  0  0  0  0  0  0  0  0
  157.2950  214.1040  148.5300 C   0  0  0  0  0  0  0  0  0  0  0  0
  155.9720  214.3270  148.7220 N   0  0  0  0  0  0  0  0  0  0  0  0
  160.5040  213.0830  150.0210 C   0  0  0  0  0  3  0  0  0  0  0  0
  156.1780  213.7690  150.9880 N   0  0  0  0  0  0  0  0  0  0  0  0
  158.1140  213.6910  149.5950 C   0  0  0  0  0  0  0  0  0  0  0  0
  157.5100  213.5260  150.8560 C   0  0  0  0  0  0  0  0  0  0  0  0
  159.5220  212.6260  152.2600 C   0  0  0  0  0  0  0  0  0  0  0  0
  157.8490  214.3030  147.2310 N   0  0  0  0  0  1  0  0  0  0  0  0
  160.4670  212.6400  151.3770 N   0  0  0  0  0  0  0  0  0  0  0  0
  158.2010  213.1160  152.0320 N   0  0  0  0  0  2  0  0  0  0  0  0
  161.1180  208.5440  154.0670 C   0  0  1  0  0  3  0  0  0  0  0  0
  161.2650  209.9350  153.4810 C   0  0  2  0  0  3  0  0  0  0  0  0
  159.9210  208.5890  155.0160 C   0  0  0  0  0  2  0  0  0  0  0  0
  162.3520  210.6700  154.2560 C   0  0  0  0  0  1  0  0  0  0  0  0
  159.3390  209.9870  154.9370 C   0  0  0  0  0  2  0  0  0  0  0  0
  159.8860  210.5720  153.6510 C   0  0  1  0  0  3  0  0  0  0  0  0
  160.8650  207.6160  153.0190 O   0  0  0  0  0  0  0  0  0  0  0  0
  161.6180  205.5830  153.8130 O   0  0  0  0  0  0  0  0  0  0  0  0
  161.5890  206.4310  152.8780 C   0  0  0  0  0  0  0  0  0  0  0  0
  162.2840  206.2000  151.6890 O   0  0  0  0  0  0  0  0  0  0  0  0
  162.2280  207.0950  150.5830 C   0  0  0  0  0  2  0  0  0  0  0  0
  160.9430  206.8980  149.7920 C   0  0  0  0  0  2  0  0  0  0  0  0
  161.2410  206.3940  148.4170 C   0  0  0  0  0  0  0  0  0  0  0  0
  161.2100  204.9900  148.1340 N   0  0  0  0  0  0  0  0  0  0  0  0
  161.5370  207.2210  147.5130 O   0  0  0  0  0  0  0  0  0  0  0  0
  160.9130  204.1070  149.1200 O   0  0  0  0  0  1  0  0  0  0  0  0
  160.6150  205.1080  145.7670 C   0  0  0  0  0  1  0  0  0  0  0  0
  161.5440  204.4990  146.8020 C   0  0  0  0  0  3  0  0  0  0  0  0
  161.4460  202.9860  146.7580 C   0  0  0  0  0  1  0  0  0  0  0  0
  158.8670  212.6520  154.6520 C   0  0  0  0  0  2  0  0  0  0  0  0
  159.8150  214.3520  156.0160 O   0  0  0  0  0  1  0  0  0  0  0  0
  159.5530  212.9830  155.9680 C   0  0  1  0  0  3  0  0  0  0  0  0
  158.6650  212.5890  157.1360 C   0  0  0  0  0  2  0  0  0  0  0  0
  157.2060  212.6630  156.7330 C   0  0  0  0  0  2  0  0  0  0  0  0
  156.6090  211.3450  156.8330 N   0  0  0  0  0  1  0  0  0  0  0  0
  1 33  1  1  0  0  0
  2  7  1  0  0  0  0
  3  8  1  0  0  0  0
  3  6  2  0  0  0  0
  4  5  1  0  0  0  0
  4  8  2  0  0  0  0
  5  2  2  0  0  0  0
  6 12  1  0  0  0  0
  8  9  1  0  0  0  0
  9  7  2  0  0  0  0
  9 13  1  0  0  0  0
 10  1  1  0  0  0  0
 11  4  1  0  0  0  0
 12 10  2  0  0  0  0
 13 10  1  0  0  0  0
 14 20  1  6  0  0  0
 14 16  1  0  0  0  0
 15 19  1  0  0  0  0
 15 14  1  0  0  0  0
 15 17  1  1  0  0  0
 18 16  1  0  0  0  0
 19  1  1  1  0  0  0
 19 18  1  0  0  0  0
 22 20  1  0  0  0  0
 22 21  2  0  0  0  0
 23 22  1  0  0  0  0
 24 23  1  0  0  0  0
 25 24  1  0  0  0  0
 26 25  1  0  0  0  0
 27 26  1  0  0  0  0
 27 29  1  0  0  0  0
 28 26  2  0  0  0  0
 30 31  1  0  0  0  0
 31 27  1  0  0  0  0
 32 31  1  0  0  0  0
 33 35  1  0  0  0  0
 35 34  1  6  0  0  0
 35 36  1  0  0  0  0
 37 38  1  0  0  0  0
 37 36  1  0  0  0  0
M  END
>  <MODEL>
9

>  <REMARK>
 VINA RESULT:      -5.2      2.600      4.261
  Name = 
  13 active torsions:
  status: ('A' for Active; 'I' for Inactive)
    1  A    between atoms: C_1  and  C_7
    2  A    between atoms: C_3  and  C_18
    3  A    between atoms: C_4  and  O_29
    4  A    between atoms: C_7  and  C_31
    5  A    between atoms: C_10  and  C_19
    6  A    between atoms: C_10  and  C_31
    7  A    between atoms: C_17  and  C_18
    8  A    between atoms: C_17  and  O_26
    9  A    between atoms: C_19  and  C_30
   10  A    between atoms: C_19  and  C_38
   11  A    between atoms: N_21  and  C_24
   12  A    between atoms: O_26  and  C_33
   13  A    between atoms: O_29  and  C_33
                            x       y       z     vdW  Elec       q    Type
                         _______ _______ _______ _____ _____    ______ ____

>  <TORSDO>
F 13

$$$$
