=
 OpenBabel11042422273D

 34 36  0  0  0  0  0  0  0  0999 V2000
  161.3150  208.6350  148.0740 O   0  0  0  0  0  0  0  0  0  0  0  0
  160.9240  207.4540  154.1640 C   0  0  0  0  0  3  0  0  0  0  0  0
  161.1990  206.7920  151.8150 C   0  0  0  0  0  0  0  0  0  0  0  0
  161.1920  208.7950  153.8420 C   0  0  0  0  0  3  0  0  0  0  0  0
  161.4930  208.1400  151.5310 C   0  0  0  0  0  0  0  0  0  0  0  0
  161.7230  210.3150  152.0020 N   0  0  0  0  0  0  0  0  0  0  0  0
  161.4690  209.0970  152.5130 C   0  0  0  0  0  0  0  0  0  0  0  0
  161.7750  208.7490  150.3580 N   0  0  0  0  0  0  0  0  0  0  0  0
  162.9990  207.1370  148.8210 C   0  0  0  0  0  1  0  0  0  0  0  0
  161.9040  210.0610  150.6830 C   0  0  0  0  0  0  0  0  0  0  0  0
  161.9620  208.1820  149.0540 C   0  0  0  0  0  0  0  0  0  0  0  0
  160.9240  206.4640  153.1610 C   0  0  0  0  0  3  0  0  0  0  0  0
  161.1610  205.7600  150.7670 C   0  0  0  0  0  3  0  0  0  0  0  0
  160.9690  204.4680  151.0260 C   0  0  0  0  0  3  0  0  0  0  0  0
  160.7740  201.1030  149.3640 C   0  0  0  0  0  3  0  0  0  0  0  0
  160.9580  203.4430  149.9740 C   0  0  0  0  0  0  0  0  0  0  0  0
  161.1760  202.7710  147.6450 C   0  0  0  0  0  0  0  0  0  0  0  0
  160.7690  202.1060  150.3360 C   0  0  0  0  0  3  0  0  0  0  0  0
  161.1620  203.7710  148.6240 C   0  0  0  0  0  3  0  0  0  0  0  0
  160.9810  201.4340  148.0220 C   0  0  0  0  0  3  0  0  0  0  0  0
  161.3860  203.1250  146.3110 O   0  0  0  0  0  0  0  0  0  0  0  0
  162.1700  204.2050  145.9670 N   0  0  0  0  0  2  0  0  0  0  0  0
  161.4110  204.9830  145.0040 C   0  0  0  0  0  1  0  0  0  0  0  0
  162.2150  211.1350  149.6940 C   0  0  0  0  0  2  0  0  0  0  0  0
  161.0920  212.0520  149.5970 N   0  0  0  0  0  2  0  0  0  0  0  0
  161.5370  213.1670  148.7790 C   0  0  0  0  0  2  0  0  0  0  0  0
  161.5550  212.7590  147.3490 C   0  0  0  0  0  0  0  0  0  0  0  0
  162.6100  212.9120  146.6760 O   0  0  0  0  0  0  0  0  0  0  0  0
  160.3930  212.2350  146.7660 O   0  0  0  0  0  0  0  0  0  0  0  0
  158.8760  212.4240  144.8710 C   0  0  0  0  0  1  0  0  0  0  0  0
  159.3490  213.0270  146.1870 C   0  0  0  0  0  0  0  0  0  0  0  0
  159.8370  214.4450  145.9430 C   0  0  0  0  0  1  0  0  0  0  0  0
  157.1930  212.1670  146.8140 O   0  0  0  0  0  1  0  0  0  0  0  0
  158.1780  213.0970  147.1580 C   0  0  0  0  0  2  0  0  0  0  0  0
  1 11  2  0  0  0  0
  3 12  1  0  0  0  0
  4  2  1  0  0  0  0
  5  3  2  0  0  0  0
  5  7  1  0  0  0  0
  6  7  1  0  0  0  0
  7  4  2  0  0  0  0
  8 10  1  0  0  0  0
  8  5  1  0  0  0  0
  9 11  1  0  0  0  0
 10  6  2  0  0  0  0
 11  8  1  0  0  0  0
 12  2  2  0  0  0  0
 13 14  2  0  0  0  0
 13  3  1  0  0  0  0
 15 18  1  0  0  0  0
 16 18  2  0  0  0  0
 16 14  1  0  0  0  0
 17 20  1  0  0  0  0
 17 19  2  0  0  0  0
 19 16  1  0  0  0  0
 20 15  2  0  0  0  0
 21 17  1  0  0  0  0
 22 21  1  0  0  0  0
 23 22  1  0  0  0  0
 24 10  1  0  0  0  0
 25 24  1  0  0  0  0
 26 25  1  0  0  0  0
 27 26  1  0  0  0  0
 28 27  2  0  0  0  0
 29 27  1  0  0  0  0
 30 31  1  0  0  0  0
 31 29  1  0  0  0  0
 31 34  1  0  0  0  0
 32 31  1  0  0  0  0
 33 34  1  0  0  0  0
M  END
>  <MODEL>
1

>  <REMARK>
 VINA RESULT:      -8.3      0.000      0.000
  Name = 
  11 active torsions:
  status: ('A' for Active; 'I' for Inactive)
    1  A    between atoms: O_1  and  C_9
    2  A    between atoms: O_1  and  N_22
    3  A    between atoms: C_4  and  C_6
    4  A    between atoms: C_4  and  O_24
    5  A    between atoms: C_6  and  N_18
    6  A    between atoms: C_7  and  C_28
    7  A    between atoms: C_8  and  C_29
    8  A    between atoms: C_11  and  N_18
    9  A    between atoms: C_11  and  C_30
   10  A    between atoms: C_14  and  C_17
   11  A    between atoms: O_24  and  C_28
                            x       y       z     vdW  Elec       q    Type
                         _______ _______ _______ _____ _____    ______ ____

>  <TORSDO>
F 11

$$$$
=
 OpenBabel11042422273D

 34 36  0  0  0  0  0  0  0  0999 V2000
  161.2400  208.6110  147.9130 O   0  0  0  0  0  0  0  0  0  0  0  0
  160.9720  207.4970  154.0210 C   0  0  0  0  0  3  0  0  0  0  0  0
  161.1660  206.8060  151.6730 C   0  0  0  0  0  0  0  0  0  0  0  0
  161.2720  208.8260  153.6800 C   0  0  0  0  0  3  0  0  0  0  0  0
  161.4930  208.1430  151.3690 C   0  0  0  0  0  0  0  0  0  0  0  0
  161.8010  210.3130  151.8130 N   0  0  0  0  0  0  0  0  0  0  0  0
  161.5240  209.1090  152.3410 C   0  0  0  0  0  0  0  0  0  0  0  0
  161.7630  208.7320  150.1830 N   0  0  0  0  0  0  0  0  0  0  0  0
  162.8970  207.0700  148.6300 C   0  0  0  0  0  1  0  0  0  0  0  0
  161.9390  210.0430  150.4910 C   0  0  0  0  0  0  0  0  0  0  0  0
  161.8980  208.1470  148.8800 C   0  0  0  0  0  0  0  0  0  0  0  0
  160.9170  206.4990  153.0290 C   0  0  0  0  0  3  0  0  0  0  0  0
  161.0690  205.7660  150.6360 C   0  0  0  0  0  3  0  0  0  0  0  0
  161.0850  204.4630  150.9110 C   0  0  0  0  0  3  0  0  0  0  0  0
  160.7200  201.1010  149.2720 C   0  0  0  0  0  3  0  0  0  0  0  0
  161.0130  203.4340  149.8650 C   0  0  0  0  0  0  0  0  0  0  0  0
  161.1640  202.7410  147.5370 C   0  0  0  0  0  0  0  0  0  0  0  0
  160.7730  202.1090  150.2390 C   0  0  0  0  0  3  0  0  0  0  0  0
  161.2080  203.7460  148.5100 C   0  0  0  0  0  3  0  0  0  0  0  0
  160.9190  201.4150  147.9250 C   0  0  0  0  0  3  0  0  0  0  0  0
  161.3660  203.0790  146.1970 O   0  0  0  0  0  0  0  0  0  0  0  0
  162.0730  204.2060  145.8370 N   0  0  0  0  0  2  0  0  0  0  0  0
  161.2380  204.9430  144.9070 C   0  0  0  0  0  1  0  0  0  0  0  0
  162.2570  211.0980  149.4850 C   0  0  0  0  0  2  0  0  0  0  0  0
  161.1680  212.0570  149.4190 N   0  0  0  0  0  2  0  0  0  0  0  0
  161.4840  212.9700  148.3360 C   0  0  0  0  0  2  0  0  0  0  0  0
  160.5370  212.7540  147.2100 C   0  0  0  0  0  0  0  0  0  0  0  0
  159.3060  212.9570  147.3880 O   0  0  0  0  0  0  0  0  0  0  0  0
  161.0260  212.3050  145.9750 O   0  0  0  0  0  0  0  0  0  0  0  0
  162.1180  212.9410  143.8930 C   0  0  0  0  0  1  0  0  0  0  0  0
  160.8500  213.0000  144.7330 C   0  0  0  0  0  0  0  0  0  0  0  0
  160.4830  214.4520  144.9890 C   0  0  0  0  0  1  0  0  0  0  0  0
  160.1790  211.7100  142.8180 O   0  0  0  0  0  1  0  0  0  0  0  0
  159.7040  212.3580  143.9620 C   0  0  0  0  0  2  0  0  0  0  0  0
  1 11  2  0  0  0  0
  3 12  1  0  0  0  0
  4  2  1  0  0  0  0
  5  3  2  0  0  0  0
  5  7  1  0  0  0  0
  6  7  1  0  0  0  0
  7  4  2  0  0  0  0
  8 10  1  0  0  0  0
  8  5  1  0  0  0  0
  9 11  1  0  0  0  0
 10  6  2  0  0  0  0
 11  8  1  0  0  0  0
 12  2  2  0  0  0  0
 13 14  2  0  0  0  0
 13  3  1  0  0  0  0
 15 18  1  0  0  0  0
 16 18  2  0  0  0  0
 16 14  1  0  0  0  0
 17 20  1  0  0  0  0
 17 19  2  0  0  0  0
 19 16  1  0  0  0  0
 20 15  2  0  0  0  0
 21 17  1  0  0  0  0
 22 21  1  0  0  0  0
 23 22  1  0  0  0  0
 24 10  1  0  0  0  0
 25 24  1  0  0  0  0
 26 25  1  0  0  0  0
 27 28  2  0  0  0  0
 27 26  1  0  0  0  0
 29 27  1  0  0  0  0
 30 31  1  0  0  0  0
 31 32  1  0  0  0  0
 31 29  1  0  0  0  0
 33 34  1  0  0  0  0
 34 31  1  0  0  0  0
M  END
>  <MODEL>
2

>  <REMARK>
 VINA RESULT:      -8.1      1.082      1.435
  Name = 
  11 active torsions:
  status: ('A' for Active; 'I' for Inactive)
    1  A    between atoms: O_1  and  C_9
    2  A    between atoms: O_1  and  N_22
    3  A    between atoms: C_4  and  C_6
    4  A    between atoms: C_4  and  O_24
    5  A    between atoms: C_6  and  N_18
    6  A    between atoms: C_7  and  C_28
    7  A    between atoms: C_8  and  C_29
    8  A    between atoms: C_11  and  N_18
    9  A    between atoms: C_11  and  C_30
   10  A    between atoms: C_14  and  C_17
   11  A    between atoms: O_24  and  C_28
                            x       y       z     vdW  Elec       q    Type
                         _______ _______ _______ _____ _____    ______ ____

>  <TORSDO>
F 11

$$$$
=
 OpenBabel11042422273D

 34 36  0  0  0  0  0  0  0  0999 V2000
  161.2060  208.4860  148.1100 O   0  0  0  0  0  0  0  0  0  0  0  0
  161.0450  206.9700  154.1350 C   0  0  0  0  0  3  0  0  0  0  0  0
  161.3130  206.4510  151.7500 C   0  0  0  0  0  0  0  0  0  0  0  0
  161.2060  208.3420  153.8790 C   0  0  0  0  0  3  0  0  0  0  0  0
  161.5010  207.8310  151.5320 C   0  0  0  0  0  0  0  0  0  0  0  0
  161.5810  209.9890  152.1120 N   0  0  0  0  0  0  0  0  0  0  0  0
  161.4290  208.7320  152.5630 C   0  0  0  0  0  0  0  0  0  0  0  0
  161.7100  208.5170  150.3870 N   0  0  0  0  0  0  0  0  0  0  0  0
  163.0130  207.0820  148.7440 C   0  0  0  0  0  1  0  0  0  0  0  0
  161.7490  209.8180  150.7780 C   0  0  0  0  0  0  0  0  0  0  0  0
  161.9080  208.0330  149.0510 C   0  0  0  0  0  0  0  0  0  0  0  0
  161.0940  206.0350  153.0820 C   0  0  0  0  0  3  0  0  0  0  0  0
  161.3260  205.4740  150.6500 C   0  0  0  0  0  3  0  0  0  0  0  0
  160.8860  204.2240  150.7830 C   0  0  0  0  0  3  0  0  0  0  0  0
  160.8310  200.9360  148.9650 C   0  0  0  0  0  3  0  0  0  0  0  0
  160.9280  203.2500  149.6850 C   0  0  0  0  0  0  0  0  0  0  0  0
  161.2120  202.6940  147.3330 C   0  0  0  0  0  0  0  0  0  0  0  0
  160.7750  201.8920  149.9820 C   0  0  0  0  0  3  0  0  0  0  0  0
  161.1470  203.6460  148.3560 C   0  0  0  0  0  3  0  0  0  0  0  0
  161.0520  201.3350  147.6440 C   0  0  0  0  0  3  0  0  0  0  0  0
  161.4350  203.1160  146.0210 O   0  0  0  0  0  0  0  0  0  0  0  0
  161.8630  204.3950  145.7390 N   0  0  0  0  0  2  0  0  0  0  0  0
  161.0320  204.8850  144.6540 C   0  0  0  0  0  1  0  0  0  0  0  0
  161.9580  210.9610  149.8420 C   0  0  0  0  0  2  0  0  0  0  0  0
  161.5710  212.2020  150.4900 N   0  0  0  0  0  2  0  0  0  0  0  0
  160.2880  212.5820  149.9280 C   0  0  0  0  0  2  0  0  0  0  0  0
  159.5080  213.3470  150.9380 C   0  0  0  0  0  0  0  0  0  0  0  0
  158.5230  214.0380  150.5650 O   0  0  0  0  0  0  0  0  0  0  0  0
  159.8970  213.3050  152.2850 O   0  0  0  0  0  0  0  0  0  0  0  0
  160.0810  212.2040  154.4490 C   0  0  0  0  0  1  0  0  0  0  0  0
  159.1590  212.6450  153.3200 C   0  0  0  0  0  0  0  0  0  0  0  0
  158.4340  211.4320  152.7600 C   0  0  0  0  0  1  0  0  0  0  0  0
  156.9670  212.9040  154.2750 O   0  0  0  0  0  1  0  0  0  0  0  0
  158.1100  213.6010  153.8720 C   0  0  0  0  0  2  0  0  0  0  0  0
  1 11  2  0  0  0  0
  3 12  1  0  0  0  0
  4  2  1  0  0  0  0
  5  3  2  0  0  0  0
  5  7  1  0  0  0  0
  6  7  1  0  0  0  0
  7  4  2  0  0  0  0
  8 10  1  0  0  0  0
  8  5  1  0  0  0  0
  9 11  1  0  0  0  0
 10  6  2  0  0  0  0
 11  8  1  0  0  0  0
 12  2  2  0  0  0  0
 13 14  2  0  0  0  0
 13  3  1  0  0  0  0
 15 18  1  0  0  0  0
 16 18  2  0  0  0  0
 16 14  1  0  0  0  0
 17 20  1  0  0  0  0
 17 19  2  0  0  0  0
 19 16  1  0  0  0  0
 20 15  2  0  0  0  0
 21 17  1  0  0  0  0
 22 21  1  0  0  0  0
 23 22  1  0  0  0  0
 24 25  1  0  0  0  0
 24 10  1  0  0  0  0
 26 25  1  0  0  0  0
 26 27  1  0  0  0  0
 27 29  1  0  0  0  0
 28 27  2  0  0  0  0
 29 31  1  0  0  0  0
 31 34  1  0  0  0  0
 31 30  1  0  0  0  0
 32 31  1  0  0  0  0
 34 33  1  0  0  0  0
M  END
>  <MODEL>
3

>  <REMARK>
 VINA RESULT:      -7.3      2.442      3.401
  Name = 
  11 active torsions:
  status: ('A' for Active; 'I' for Inactive)
    1  A    between atoms: O_1  and  C_9
    2  A    between atoms: O_1  and  N_22
    3  A    between atoms: C_4  and  C_6
    4  A    between atoms: C_4  and  O_24
    5  A    between atoms: C_6  and  N_18
    6  A    between atoms: C_7  and  C_28
    7  A    between atoms: C_8  and  C_29
    8  A    between atoms: C_11  and  N_18
    9  A    between atoms: C_11  and  C_30
   10  A    between atoms: C_14  and  C_17
   11  A    between atoms: O_24  and  C_28
                            x       y       z     vdW  Elec       q    Type
                         _______ _______ _______ _____ _____    ______ ____

>  <TORSDO>
F 11

$$$$
=
 OpenBabel11042422273D

 34 36  0  0  0  0  0  0  0  0999 V2000
  162.0340  205.1140  152.2550 O   0  0  0  0  0  0  0  0  0  0  0  0
  162.1070  210.6520  149.4340 C   0  0  0  0  0  3  0  0  0  0  0  0
  161.9010  208.2050  149.4560 C   0  0  0  0  0  0  0  0  0  0  0  0
  161.9180  210.7040  150.8240 C   0  0  0  0  0  3  0  0  0  0  0  0
  161.6840  208.2960  150.8460 C   0  0  0  0  0  0  0  0  0  0  0  0
  161.5390  209.3400  152.8180 N   0  0  0  0  0  0  0  0  0  0  0  0
  161.7130  209.5030  151.4950 C   0  0  0  0  0  0  0  0  0  0  0  0
  161.4820  207.3280  151.7670 N   0  0  0  0  0  0  0  0  0  0  0  0
  160.2490  205.3730  150.7110 C   0  0  0  0  0  1  0  0  0  0  0  0
  161.4030  207.9970  152.9460 C   0  0  0  0  0  0  0  0  0  0  0  0
  161.3240  205.9130  151.5900 C   0  0  0  0  0  0  0  0  0  0  0  0
  162.1020  209.4160  148.7570 C   0  0  0  0  0  3  0  0  0  0  0  0
  161.9350  206.9150  148.7500 C   0  0  0  0  0  3  0  0  0  0  0  0
  161.2460  206.6780  147.6340 C   0  0  0  0  0  3  0  0  0  0  0  0
  161.2660  204.1300  144.8740 C   0  0  0  0  0  3  0  0  0  0  0  0
  161.2680  205.3780  146.9520 C   0  0  0  0  0  0  0  0  0  0  0  0
  161.2500  202.9450  146.9930 C   0  0  0  0  0  0  0  0  0  0  0  0
  161.2670  205.3490  145.5550 C   0  0  0  0  0  3  0  0  0  0  0  0
  161.2590  204.1700  147.6680 C   0  0  0  0  0  3  0  0  0  0  0  0
  161.2530  202.9300  145.5900 C   0  0  0  0  0  3  0  0  0  0  0  0
  161.2360  201.7590  147.7300 O   0  0  0  0  0  0  0  0  0  0  0  0
  160.2680  201.5120  148.6790 N   0  0  0  0  0  2  0  0  0  0  0  0
  160.9560  201.3570  149.9480 C   0  0  0  0  0  1  0  0  0  0  0  0
  161.1860  207.3350  154.2650 C   0  0  0  0  0  2  0  0  0  0  0  0
  161.3410  208.3070  155.3340 N   0  0  0  0  0  2  0  0  0  0  0  0
  160.0070  208.5880  155.8340 C   0  0  0  0  0  2  0  0  0  0  0  0
  159.8340  210.0570  155.9920 C   0  0  0  0  0  0  0  0  0  0  0  0
  160.8460  210.7810  156.2000 O   0  0  0  0  0  0  0  0  0  0  0  0
  158.5470  210.6100  155.9320 O   0  0  0  0  0  0  0  0  0  0  0  0
  158.5000  212.9940  155.4360 C   0  0  0  0  0  1  0  0  0  0  0  0
  158.1310  211.5910  154.9740 C   0  0  0  0  0  0  0  0  0  0  0  0
  156.6290  211.5120  154.7560 C   0  0  0  0  0  1  0  0  0  0  0  0
  159.7050  212.3280  153.3120 O   0  0  0  0  0  1  0  0  0  0  0  0
  158.8110  211.3060  153.6420 C   0  0  0  0  0  2  0  0  0  0  0  0
  2  4  1  0  0  0  0
  3  5  2  0  0  0  0
  4  7  2  0  0  0  0
  5  7  1  0  0  0  0
  5  8  1  0  0  0  0
  6 10  2  0  0  0  0
  7  6  1  0  0  0  0
  8 10  1  0  0  0  0
  9 11  1  0  0  0  0
 10 24  1  0  0  0  0
 11  8  1  0  0  0  0
 11  1  2  0  0  0  0
 12  2  2  0  0  0  0
 12  3  1  0  0  0  0
 13  3  1  0  0  0  0
 14 13  2  0  0  0  0
 15 18  2  0  0  0  0
 15 20  1  0  0  0  0
 16 14  1  0  0  0  0
 16 19  2  0  0  0  0
 17 19  1  0  0  0  0
 17 21  1  0  0  0  0
 18 16  1  0  0  0  0
 20 17  2  0  0  0  0
 21 22  1  0  0  0  0
 22 23  1  0  0  0  0
 24 25  1  0  0  0  0
 25 26  1  0  0  0  0
 26 27  1  0  0  0  0
 27 28  2  0  0  0  0
 29 27  1  0  0  0  0
 31 30  1  0  0  0  0
 31 29  1  0  0  0  0
 32 31  1  0  0  0  0
 33 34  1  0  0  0  0
 34 31  1  0  0  0  0
M  END
>  <MODEL>
4

>  <REMARK>
 VINA RESULT:      -7.3      3.367      5.791
  Name = 
  11 active torsions:
  status: ('A' for Active; 'I' for Inactive)
    1  A    between atoms: O_1  and  C_9
    2  A    between atoms: O_1  and  N_22
    3  A    between atoms: C_4  and  C_6
    4  A    between atoms: C_4  and  O_24
    5  A    between atoms: C_6  and  N_18
    6  A    between atoms: C_7  and  C_28
    7  A    between atoms: C_8  and  C_29
    8  A    between atoms: C_11  and  N_18
    9  A    between atoms: C_11  and  C_30
   10  A    between atoms: C_14  and  C_17
   11  A    between atoms: O_24  and  C_28
                            x       y       z     vdW  Elec       q    Type
                         _______ _______ _______ _____ _____    ______ ____

>  <TORSDO>
F 11

$$$$
=
 OpenBabel11042422273D

 34 36  0  0  0  0  0  0  0  0999 V2000
  162.2350  206.2690  153.9180 O   0  0  0  0  0  0  0  0  0  0  0  0
  161.9530  209.7030  148.7450 C   0  0  0  0  0  3  0  0  0  0  0  0
  161.7440  207.5990  149.9940 C   0  0  0  0  0  0  0  0  0  0  0  0
  161.9490  210.4410  149.9390 C   0  0  0  0  0  3  0  0  0  0  0  0
  161.7130  208.3710  151.1720 C   0  0  0  0  0  0  0  0  0  0  0  0
  161.8330  210.2540  152.3740 N   0  0  0  0  0  0  0  0  0  0  0  0
  161.8300  209.7370  151.1330 C   0  0  0  0  0  0  0  0  0  0  0  0
  161.6310  207.9930  152.4670 N   0  0  0  0  0  0  0  0  0  0  0  0
  160.2630  205.8600  152.6600 C   0  0  0  0  0  1  0  0  0  0  0  0
  161.7100  209.1570  153.1630 C   0  0  0  0  0  0  0  0  0  0  0  0
  161.4470  206.6870  153.0300 C   0  0  0  0  0  0  0  0  0  0  0  0
  161.8550  208.2970  148.7710 C   0  0  0  0  0  3  0  0  0  0  0  0
  161.6800  206.1290  150.0170 C   0  0  0  0  0  3  0  0  0  0  0  0
  161.1000  205.4120  149.0570 C   0  0  0  0  0  3  0  0  0  0  0  0
  160.8640  201.9220  150.4300 C   0  0  0  0  0  3  0  0  0  0  0  0
  161.0200  203.9460  149.1040 C   0  0  0  0  0  0  0  0  0  0  0  0
  161.0210  201.7710  148.0120 C   0  0  0  0  0  0  0  0  0  0  0  0
  160.9210  203.3150  150.3480 C   0  0  0  0  0  3  0  0  0  0  0  0
  161.0700  203.1670  147.9360 C   0  0  0  0  0  3  0  0  0  0  0  0
  160.9180  201.1510  149.2660 C   0  0  0  0  0  3  0  0  0  0  0  0
  161.0780  201.0210  146.8350 O   0  0  0  0  0  0  0  0  0  0  0  0
  161.5320  199.7200  146.8310 N   0  0  0  0  0  2  0  0  0  0  0  0
  161.0940  199.1280  145.5810 C   0  0  0  0  0  1  0  0  0  0  0  0
  161.6680  209.2400  154.6520 C   0  0  0  0  0  2  0  0  0  0  0  0
  162.0810  210.5650  155.0820 N   0  0  0  0  0  2  0  0  0  0  0  0
  161.2990  210.8810  156.2630 C   0  0  0  0  0  2  0  0  0  0  0  0
  160.4450  212.0680  155.9920 C   0  0  0  0  0  0  0  0  0  0  0  0
  160.1460  212.8440  156.9400 O   0  0  0  0  0  0  0  0  0  0  0  0
  159.9670  212.2920  154.6930 O   0  0  0  0  0  0  0  0  0  0  0  0
  157.8980  211.1220  155.2220 C   0  0  0  0  0  1  0  0  0  0  0  0
  158.6090  212.0880  154.2840 C   0  0  0  0  0  0  0  0  0  0  0  0
  158.5620  211.5400  152.8670 C   0  0  0  0  0  1  0  0  0  0  0  0
  157.4210  213.7460  153.0100 O   0  0  0  0  0  1  0  0  0  0  0  0
  157.8790  213.4240  154.2910 C   0  0  0  0  0  2  0  0  0  0  0  0
  2 12  2  0  0  0  0
  2  4  1  0  0  0  0
  3 13  1  0  0  0  0
  3  5  2  0  0  0  0
  4  7  2  0  0  0  0
  5  8  1  0  0  0  0
  6 10  2  0  0  0  0
  7  5  1  0  0  0  0
  7  6  1  0  0  0  0
  8 11  1  0  0  0  0
  8 10  1  0  0  0  0
  9 11  1  0  0  0  0
 10 24  1  0  0  0  0
 11  1  2  0  0  0  0
 12  3  1  0  0  0  0
 14 16  1  0  0  0  0
 14 13  2  0  0  0  0
 16 18  2  0  0  0  0
 17 20  1  0  0  0  0
 18 15  1  0  0  0  0
 19 17  2  0  0  0  0
 19 16  1  0  0  0  0
 20 15  2  0  0  0  0
 21 17  1  0  0  0  0
 22 21  1  0  0  0  0
 23 22  1  0  0  0  0
 24 25  1  0  0  0  0
 25 26  1  0  0  0  0
 27 26  1  0  0  0  0
 27 28  2  0  0  0  0
 29 27  1  0  0  0  0
 31 34  1  0  0  0  0
 31 29  1  0  0  0  0
 31 30  1  0  0  0  0
 32 31  1  0  0  0  0
 33 34  1  0  0  0  0
M  END
>  <MODEL>
5

>  <REMARK>
 VINA RESULT:      -6.9      3.482      5.299
  Name = 
  11 active torsions:
  status: ('A' for Active; 'I' for Inactive)
    1  A    between atoms: O_1  and  C_9
    2  A    between atoms: O_1  and  N_22
    3  A    between atoms: C_4  and  C_6
    4  A    between atoms: C_4  and  O_24
    5  A    between atoms: C_6  and  N_18
    6  A    between atoms: C_7  and  C_28
    7  A    between atoms: C_8  and  C_29
    8  A    between atoms: C_11  and  N_18
    9  A    between atoms: C_11  and  C_30
   10  A    between atoms: C_14  and  C_17
   11  A    between atoms: O_24  and  C_28
                            x       y       z     vdW  Elec       q    Type
                         _______ _______ _______ _____ _____    ______ ____

>  <TORSDO>
F 11

$$$$
=
 OpenBabel11042422273D

 34 36  0  0  0  0  0  0  0  0999 V2000
  162.8940  208.4340  150.0610 O   0  0  0  0  0  0  0  0  0  0  0  0
  160.6500  203.0720  152.2620 C   0  0  0  0  0  3  0  0  0  0  0  0
  161.2190  205.4530  152.4510 C   0  0  0  0  0  0  0  0  0  0  0  0
  160.7560  203.1340  150.8630 C   0  0  0  0  0  3  0  0  0  0  0  0
  161.2870  205.4880  151.0450 C   0  0  0  0  0  0  0  0  0  0  0  0
  161.2520  204.6180  148.9850 N   0  0  0  0  0  0  0  0  0  0  0  0
  161.0790  204.3610  150.2930 C   0  0  0  0  0  0  0  0  0  0  0  0
  161.5960  206.5020  150.2060 N   0  0  0  0  0  0  0  0  0  0  0  0
  160.8300  208.7110  151.2020 C   0  0  0  0  0  1  0  0  0  0  0  0
  161.5670  205.9370  148.9710 C   0  0  0  0  0  0  0  0  0  0  0  0
  161.8480  207.8840  150.4940 C   0  0  0  0  0  0  0  0  0  0  0  0
  160.8820  204.2180  153.0480 C   0  0  0  0  0  3  0  0  0  0  0  0
  161.4970  206.6370  153.2800 C   0  0  0  0  0  3  0  0  0  0  0  0
  160.7810  206.9550  154.3570 C   0  0  0  0  0  3  0  0  0  0  0  0
  161.9510  209.1240  157.1940 C   0  0  0  0  0  3  0  0  0  0  0  0
  161.0530  208.1540  155.1610 C   0  0  0  0  0  0  0  0  0  0  0  0
  160.9010  210.5530  155.5360 C   0  0  0  0  0  0  0  0  0  0  0  0
  161.6960  208.0070  156.3940 C   0  0  0  0  0  3  0  0  0  0  0  0
  160.6560  209.4320  154.7370 C   0  0  0  0  0  3  0  0  0  0  0  0
  161.5510  210.3930  156.7690 C   0  0  0  0  0  3  0  0  0  0  0  0
  160.4920  211.8120  155.0910 O   0  0  0  0  0  0  0  0  0  0  0  0
  160.0820  212.0180  153.7920 N   0  0  0  0  0  2  0  0  0  0  0  0
  158.7080  212.4820  153.8550 C   0  0  0  0  0  1  0  0  0  0  0  0
  161.8530  206.6810  147.7100 C   0  0  0  0  0  2  0  0  0  0  0  0
  161.1240  206.0770  146.6080 N   0  0  0  0  0  2  0  0  0  0  0  0
  162.0730  205.2470  145.8880 C   0  0  0  0  0  2  0  0  0  0  0  0
  161.3820  204.0360  145.3690 C   0  0  0  0  0  0  0  0  0  0  0  0
  160.4620  204.1660  144.5170 O   0  0  0  0  0  0  0  0  0  0  0  0
  161.7490  202.7720  145.8530 O   0  0  0  0  0  0  0  0  0  0  0  0
  160.0580  201.1870  145.1090 C   0  0  0  0  0  1  0  0  0  0  0  0
  160.8210  201.7710  146.2890 C   0  0  0  0  0  0  0  0  0  0  0  0
  159.8360  202.3630  147.2830 C   0  0  0  0  0  1  0  0  0  0  0  0
  161.2100  200.5770  148.3400 O   0  0  0  0  0  1  0  0  0  0  0  0
  161.5840  200.6590  146.9960 C   0  0  0  0  0  2  0  0  0  0  0  0
  1 11  2  0  0  0  0
  2 12  1  0  0  0  0
  3 12  2  0  0  0  0
  3 13  1  0  0  0  0
  4  2  2  0  0  0  0
  5  3  1  0  0  0  0
  6  7  1  0  0  0  0
  7  4  1  0  0  0  0
  7  5  2  0  0  0  0
  8 11  1  0  0  0  0
  8  5  1  0  0  0  0
 10  6  2  0  0  0  0
 10  8  1  0  0  0  0
 11  9  1  0  0  0  0
 13 14  2  0  0  0  0
 14 16  1  0  0  0  0
 16 18  1  0  0  0  0
 17 20  2  0  0  0  0
 18 15  2  0  0  0  0
 19 16  2  0  0  0  0
 19 17  1  0  0  0  0
 20 15  1  0  0  0  0
 21 17  1  0  0  0  0
 22 23  1  0  0  0  0
 22 21  1  0  0  0  0
 24 10  1  0  0  0  0
 25 24  1  0  0  0  0
 26 25  1  0  0  0  0
 27 29  1  0  0  0  0
 27 26  1  0  0  0  0
 28 27  2  0  0  0  0
 29 31  1  0  0  0  0
 30 31  1  0  0  0  0
 31 34  1  0  0  0  0
 31 32  1  0  0  0  0
 34 33  1  0  0  0  0
M  END
>  <MODEL>
6

>  <REMARK>
 VINA RESULT:      -6.7      3.702      8.332
  Name = 
  11 active torsions:
  status: ('A' for Active; 'I' for Inactive)
    1  A    between atoms: O_1  and  C_9
    2  A    between atoms: O_1  and  N_22
    3  A    between atoms: C_4  and  C_6
    4  A    between atoms: C_4  and  O_24
    5  A    between atoms: C_6  and  N_18
    6  A    between atoms: C_7  and  C_28
    7  A    between atoms: C_8  and  C_29
    8  A    between atoms: C_11  and  N_18
    9  A    between atoms: C_11  and  C_30
   10  A    between atoms: C_14  and  C_17
   11  A    between atoms: O_24  and  C_28
                            x       y       z     vdW  Elec       q    Type
                         _______ _______ _______ _____ _____    ______ ____

>  <TORSDO>
F 11

$$$$
=
 OpenBabel11042422273D

 34 36  0  0  0  0  0  0  0  0999 V2000
  161.4020  207.7800  147.6150 O   0  0  0  0  0  0  0  0  0  0  0  0
  161.1390  207.8760  153.8240 C   0  0  0  0  0  3  0  0  0  0  0  0
  161.5290  206.7780  151.6630 C   0  0  0  0  0  0  0  0  0  0  0  0
  161.2080  209.1420  153.2210 C   0  0  0  0  0  3  0  0  0  0  0  0
  161.6220  208.0630  151.0940 C   0  0  0  0  0  0  0  0  0  0  0  0
  161.5240  210.2970  151.0890 N   0  0  0  0  0  0  0  0  0  0  0  0
  161.4480  209.1930  151.8510 C   0  0  0  0  0  0  0  0  0  0  0  0
  161.8210  208.4430  149.8120 N   0  0  0  0  0  0  0  0  0  0  0  0
  163.2830  206.7390  148.6220 C   0  0  0  0  0  1  0  0  0  0  0  0
  161.7510  209.7990  149.8490 C   0  0  0  0  0  0  0  0  0  0  0  0
  162.1010  207.6450  148.6530 C   0  0  0  0  0  0  0  0  0  0  0  0
  161.2940  206.7060  153.0540 C   0  0  0  0  0  3  0  0  0  0  0  0
  161.6520  205.5520  150.8580 C   0  0  0  0  0  3  0  0  0  0  0  0
  160.6060  204.8090  150.5010 C   0  0  0  0  0  3  0  0  0  0  0  0
  160.8220  201.1500  149.6730 C   0  0  0  0  0  3  0  0  0  0  0  0
  160.7440  203.5730  149.7190 C   0  0  0  0  0  0  0  0  0  0  0  0
  161.1300  202.4070  147.6180 C   0  0  0  0  0  0  0  0  0  0  0  0
  160.6740  202.3440  150.3820 C   0  0  0  0  0  3  0  0  0  0  0  0
  160.9730  203.5990  148.3340 C   0  0  0  0  0  3  0  0  0  0  0  0
  161.0540  201.1810  148.2950 C   0  0  0  0  0  3  0  0  0  0  0  0
  161.3620  202.4630  146.2420 O   0  0  0  0  0  0  0  0  0  0  0  0
  160.5600  201.7870  145.3490 N   0  0  0  0  0  2  0  0  0  0  0  0
  159.6740  202.7710  144.7550 C   0  0  0  0  0  1  0  0  0  0  0  0
  161.9080  210.6720  148.6490 C   0  0  0  0  0  2  0  0  0  0  0  0
  162.3310  211.9990  149.0610 N   0  0  0  0  0  2  0  0  0  0  0  0
  161.1270  212.8010  149.1780 C   0  0  0  0  0  2  0  0  0  0  0  0
  160.7380  213.3150  147.8380 C   0  0  0  0  0  0  0  0  0  0  0  0
  161.3020  214.3460  147.3830 O   0  0  0  0  0  0  0  0  0  0  0  0
  159.7330  212.6590  147.1130 O   0  0  0  0  0  0  0  0  0  0  0  0
  158.1430  214.4530  147.5410 C   0  0  0  0  0  1  0  0  0  0  0  0
  158.5310  213.2840  146.6460 C   0  0  0  0  0  0  0  0  0  0  0  0
  157.3920  212.2790  146.6110 C   0  0  0  0  0  1  0  0  0  0  0  0
  157.6390  213.5170  144.4250 O   0  0  0  0  0  1  0  0  0  0  0  0
  158.7510  213.7900  145.2260 C   0  0  0  0  0  2  0  0  0  0  0  0
  1 11  2  0  0  0  0
  3 12  1  0  0  0  0
  4  2  1  0  0  0  0
  5  3  2  0  0  0  0
  5  7  1  0  0  0  0
  6  7  1  0  0  0  0
  7  4  2  0  0  0  0
  8 10  1  0  0  0  0
  8  5  1  0  0  0  0
  9 11  1  0  0  0  0
 10  6  2  0  0  0  0
 11  8  1  0  0  0  0
 12  2  2  0  0  0  0
 13  3  1  0  0  0  0
 14 13  2  0  0  0  0
 15 18  1  0  0  0  0
 16 18  2  0  0  0  0
 16 14  1  0  0  0  0
 17 20  1  0  0  0  0
 17 19  2  0  0  0  0
 19 16  1  0  0  0  0
 20 15  2  0  0  0  0
 21 17  1  0  0  0  0
 22 21  1  0  0  0  0
 23 22  1  0  0  0  0
 24 25  1  0  0  0  0
 24 10  1  0  0  0  0
 25 26  1  0  0  0  0
 27 26  1  0  0  0  0
 28 27  2  0  0  0  0
 29 27  1  0  0  0  0
 31 29  1  0  0  0  0
 31 30  1  0  0  0  0
 32 31  1  0  0  0  0
 33 34  1  0  0  0  0
 34 31  1  0  0  0  0
M  END
>  <MODEL>
7

>  <REMARK>
 VINA RESULT:      -6.7      1.187      1.439
  Name = 
  11 active torsions:
  status: ('A' for Active; 'I' for Inactive)
    1  A    between atoms: O_1  and  C_9
    2  A    between atoms: O_1  and  N_22
    3  A    between atoms: C_4  and  C_6
    4  A    between atoms: C_4  and  O_24
    5  A    between atoms: C_6  and  N_18
    6  A    between atoms: C_7  and  C_28
    7  A    between atoms: C_8  and  C_29
    8  A    between atoms: C_11  and  N_18
    9  A    between atoms: C_11  and  C_30
   10  A    between atoms: C_14  and  C_17
   11  A    between atoms: O_24  and  C_28
                            x       y       z     vdW  Elec       q    Type
                         _______ _______ _______ _____ _____    ______ ____

>  <TORSDO>
F 11

$$$$
=
 OpenBabel11042422273D

 34 36  0  0  0  0  0  0  0  0999 V2000
  163.0400  207.4530  150.3370 O   0  0  0  0  0  0  0  0  0  0  0  0
  160.0800  208.5120  155.6990 C   0  0  0  0  0  3  0  0  0  0  0  0
  160.8030  209.1280  153.4350 C   0  0  0  0  0  0  0  0  0  0  0  0
  160.3920  207.1640  155.4580 C   0  0  0  0  0  3  0  0  0  0  0  0
  161.0780  207.7640  153.2150 C   0  0  0  0  0  0  0  0  0  0  0  0
  161.2730  205.6110  153.7880 N   0  0  0  0  0  0  0  0  0  0  0  0
  160.8920  206.8310  154.2030 C   0  0  0  0  0  0  0  0  0  0  0  0
  161.5840  207.1340  152.1320 N   0  0  0  0  0  0  0  0  0  0  0  0
  160.8600  208.3390  150.0150 C   0  0  0  0  0  1  0  0  0  0  0  0
  161.6910  205.8360  152.5180 C   0  0  0  0  0  0  0  0  0  0  0  0
  161.9010  207.6560  150.8340 C   0  0  0  0  0  0  0  0  0  0  0  0
  160.2860  209.4840  154.7000 C   0  0  0  0  0  3  0  0  0  0  0  0
  161.0510  210.1540  152.4100 C   0  0  0  0  0  3  0  0  0  0  0  0
  160.2180  211.1670  152.1780 C   0  0  0  0  0  3  0  0  0  0  0  0
  160.0870  214.4100  150.2840 C   0  0  0  0  0  3  0  0  0  0  0  0
  160.4640  212.1700  151.1340 C   0  0  0  0  0  0  0  0  0  0  0  0
  161.4260  212.8420  149.0020 C   0  0  0  0  0  0  0  0  0  0  0  0
  159.8910  213.4380  151.2690 C   0  0  0  0  0  3  0  0  0  0  0  0
  161.2320  211.8760  149.9950 C   0  0  0  0  0  3  0  0  0  0  0  0
  160.8490  214.1120  149.1510 C   0  0  0  0  0  3  0  0  0  0  0  0
  162.1900  212.5200  147.8780 O   0  0  0  0  0  0  0  0  0  0  0  0
  162.6870  213.4970  147.0420 N   0  0  0  0  0  2  0  0  0  0  0  0
  162.0250  213.3280  145.7620 C   0  0  0  0  0  1  0  0  0  0  0  0
  162.2150  204.7490  151.6400 C   0  0  0  0  0  2  0  0  0  0  0  0
  161.1130  203.9440  151.1450 N   0  0  0  0  0  2  0  0  0  0  0  0
  160.7690  204.4690  149.8370 C   0  0  0  0  0  2  0  0  0  0  0  0
  161.0870  203.4580  148.7940 C   0  0  0  0  0  0  0  0  0  0  0  0
  160.4360  202.3780  148.7600 O   0  0  0  0  0  0  0  0  0  0  0  0
  162.1200  203.7090  147.8800 O   0  0  0  0  0  0  0  0  0  0  0  0
  161.2060  203.3850  145.6470 C   0  0  0  0  0  1  0  0  0  0  0  0
  161.9360  204.3230  146.5980 C   0  0  0  0  0  0  0  0  0  0  0  0
  163.2790  204.7030  145.9980 C   0  0  0  0  0  1  0  0  0  0  0  0
  161.9440  206.6620  147.1560 O   0  0  0  0  0  1  0  0  0  0  0  0
  161.1230  205.5990  146.7680 C   0  0  0  0  0  2  0  0  0  0  0  0
  1 11  2  0  0  0  0
  3 12  1  0  0  0  0
  4  2  1  0  0  0  0
  5  3  2  0  0  0  0
  5  7  1  0  0  0  0
  6  7  1  0  0  0  0
  7  4  2  0  0  0  0
  8 10  1  0  0  0  0
  8  5  1  0  0  0  0
  9 11  1  0  0  0  0
 10  6  2  0  0  0  0
 11  8  1  0  0  0  0
 12  2  2  0  0  0  0
 13  3  1  0  0  0  0
 14 13  2  0  0  0  0
 15 18  1  0  0  0  0
 16 18  2  0  0  0  0
 16 14  1  0  0  0  0
 17 20  1  0  0  0  0
 17 19  2  0  0  0  0
 19 16  1  0  0  0  0
 20 15  2  0  0  0  0
 21 17  1  0  0  0  0
 22 21  1  0  0  0  0
 23 22  1  0  0  0  0
 24 10  1  0  0  0  0
 25 24  1  0  0  0  0
 26 25  1  0  0  0  0
 27 26  1  0  0  0  0
 28 27  2  0  0  0  0
 29 27  1  0  0  0  0
 30 31  1  0  0  0  0
 31 34  1  0  0  0  0
 31 29  1  0  0  0  0
 32 31  1  0  0  0  0
 34 33  1  0  0  0  0
M  END
>  <MODEL>
8

>  <REMARK>
 VINA RESULT:      -6.5      2.303      7.714
  Name = 
  11 active torsions:
  status: ('A' for Active; 'I' for Inactive)
    1  A    between atoms: O_1  and  C_9
    2  A    between atoms: O_1  and  N_22
    3  A    between atoms: C_4  and  C_6
    4  A    between atoms: C_4  and  O_24
    5  A    between atoms: C_6  and  N_18
    6  A    between atoms: C_7  and  C_28
    7  A    between atoms: C_8  and  C_29
    8  A    between atoms: C_11  and  N_18
    9  A    between atoms: C_11  and  C_30
   10  A    between atoms: C_14  and  C_17
   11  A    between atoms: O_24  and  C_28
                            x       y       z     vdW  Elec       q    Type
                         _______ _______ _______ _____ _____    ______ ____

>  <TORSDO>
F 11

$$$$
=
 OpenBabel11042422273D

 34 36  0  0  0  0  0  0  0  0999 V2000
  163.1690  206.9080  149.1670 O   0  0  0  0  0  0  0  0  0  0  0  0
  160.8390  210.0870  153.9730 C   0  0  0  0  0  3  0  0  0  0  0  0
  161.5420  209.8540  151.6310 C   0  0  0  0  0  0  0  0  0  0  0  0
  160.8360  208.6920  154.1350 C   0  0  0  0  0  3  0  0  0  0  0  0
  161.4990  208.4590  151.8190 C   0  0  0  0  0  0  0  0  0  0  0  0
  161.2540  206.5710  152.9930 N   0  0  0  0  0  0  0  0  0  0  0  0
  161.1750  207.9120  153.0340 C   0  0  0  0  0  0  0  0  0  0  0  0
  161.7900  207.4500  150.9680 N   0  0  0  0  0  0  0  0  0  0  0  0
  161.2200  208.1340  148.5880 C   0  0  0  0  0  1  0  0  0  0  0  0
  161.6350  206.3250  151.7150 C   0  0  0  0  0  0  0  0  0  0  0  0
  162.1340  207.4950  149.5770 C   0  0  0  0  0  0  0  0  0  0  0  0
  161.1920  210.6620  152.7360 C   0  0  0  0  0  3  0  0  0  0  0  0
  161.9460  210.4620  150.3540 C   0  0  0  0  0  3  0  0  0  0  0  0
  161.2910  211.4780  149.7930 C   0  0  0  0  0  3  0  0  0  0  0  0
  163.4490  212.9160  147.0740 C   0  0  0  0  0  3  0  0  0  0  0  0
  161.6880  212.0590  148.5040 C   0  0  0  0  0  0  0  0  0  0  0  0
  161.1470  212.9430  146.3020 C   0  0  0  0  0  0  0  0  0  0  0  0
  163.0390  212.3430  148.2800 C   0  0  0  0  0  3  0  0  0  0  0  0
  160.7440  212.3620  147.5090 C   0  0  0  0  0  3  0  0  0  0  0  0
  162.5060  213.2190  146.0880 C   0  0  0  0  0  3  0  0  0  0  0  0
  160.1860  213.2380  145.3330 O   0  0  0  0  0  0  0  0  0  0  0  0
  159.5490  212.2430  144.6230 N   0  0  0  0  0  2  0  0  0  0  0  0
  160.1460  212.2250  143.3010 C   0  0  0  0  0  1  0  0  0  0  0  0
  161.8560  204.9450  151.1940 C   0  0  0  0  0  2  0  0  0  0  0  0
  160.6600  204.4800  150.5130 N   0  0  0  0  0  2  0  0  0  0  0  0
  160.8930  203.0900  150.1650 C   0  0  0  0  0  2  0  0  0  0  0  0
  161.0160  202.9600  148.6890 C   0  0  0  0  0  0  0  0  0  0  0  0
  161.2720  201.8320  148.1860 O   0  0  0  0  0  0  0  0  0  0  0  0
  160.8690  204.0960  147.8810 O   0  0  0  0  0  0  0  0  0  0  0  0
  161.1910  203.2160  145.6340 C   0  0  0  0  0  1  0  0  0  0  0  0
  161.5530  204.3010  146.6390 C   0  0  0  0  0  0  0  0  0  0  0  0
  163.0560  204.3020  146.8580 C   0  0  0  0  0  1  0  0  0  0  0  0
  162.1100  206.1010  145.1440 O   0  0  0  0  0  1  0  0  0  0  0  0
  161.1630  205.6600  146.0730 C   0  0  0  0  0  2  0  0  0  0  0  0
  1 11  2  0  0  0  0
  2  4  1  0  0  0  0
  3  5  2  0  0  0  0
  3 12  1  0  0  0  0
  5  7  1  0  0  0  0
  6  7  1  0  0  0  0
  7  4  2  0  0  0  0
  8 10  1  0  0  0  0
  8  5  1  0  0  0  0
  9 11  1  0  0  0  0
 10  6  2  0  0  0  0
 11  8  1  0  0  0  0
 12  2  2  0  0  0  0
 13  3  1  0  0  0  0
 14 13  2  0  0  0  0
 15 18  1  0  0  0  0
 16 14  1  0  0  0  0
 17 19  2  0  0  0  0
 18 16  2  0  0  0  0
 19 16  1  0  0  0  0
 20 17  1  0  0  0  0
 20 15  2  0  0  0  0
 21 17  1  0  0  0  0
 22 21  1  0  0  0  0
 23 22  1  0  0  0  0
 24 10  1  0  0  0  0
 25 24  1  0  0  0  0
 26 25  1  0  0  0  0
 27 26  1  0  0  0  0
 28 27  2  0  0  0  0
 29 27  1  0  0  0  0
 30 31  1  0  0  0  0
 31 32  1  0  0  0  0
 31 29  1  0  0  0  0
 33 34  1  0  0  0  0
 34 31  1  0  0  0  0
M  END
>  <MODEL>
9

>  <REMARK>
 VINA RESULT:      -6.1      2.000      7.611
  Name = 
  11 active torsions:
  status: ('A' for Active; 'I' for Inactive)
    1  A    between atoms: O_1  and  C_9
    2  A    between atoms: O_1  and  N_22
    3  A    between atoms: C_4  and  C_6
    4  A    between atoms: C_4  and  O_24
    5  A    between atoms: C_6  and  N_18
    6  A    between atoms: C_7  and  C_28
    7  A    between atoms: C_8  and  C_29
    8  A    between atoms: C_11  and  N_18
    9  A    between atoms: C_11  and  C_30
   10  A    between atoms: C_14  and  C_17
   11  A    between atoms: O_24  and  C_28
                            x       y       z     vdW  Elec       q    Type
                         _______ _______ _______ _____ _____    ______ ____

>  <TORSDO>
F 11

$$$$
