=
 OpenBabel11042420283D

 31 33  0  0  1  0  0  0  0  0999 V2000
  160.9040  206.9470  151.4480 C   0  0  2  0  0  3  0  0  0  0  0  0
  160.2100  206.9350  157.0210 N   0  0  0  0  0  1  0  0  0  0  0  0
  160.7100  206.9000  154.0760 N   0  0  0  0  0  0  0  0  0  0  0  0
  161.0140  207.5160  152.8850 C   0  0  0  0  0  0  0  0  0  0  0  0
  160.8320  207.9860  154.8940 C   0  0  0  0  0  0  0  0  0  0  0  0
  161.1730  210.3500  154.5910 C   0  0  0  0  0  3  0  0  0  0  0  0
  160.5580  208.1010  156.2060 C   0  0  0  0  0  0  0  0  0  0  0  0
  160.6050  209.3490  156.7230 N   0  0  0  0  0  0  0  0  0  0  0  0
  161.1300  209.0830  154.1610 C   0  0  0  0  0  0  0  0  0  0  0  0
  161.2370  208.7870  152.8460 N   0  0  0  0  0  2  0  0  0  0  0  0
  160.9180  210.4750  155.9480 C   0  0  0  0  0  3  0  0  0  0  0  0
  161.6480  205.5800  151.4230 C   0  0  0  0  0  2  0  0  0  0  0  0
  160.7740  203.5270  152.4310 O   0  0  0  0  0  1  0  0  0  0  0  0
  160.8910  204.2230  151.3250 C   0  0  2  0  0  3  0  0  0  0  0  0
  161.0140  201.5900  148.4520 C   0  0  0  0  0  0  0  0  0  0  0  0
  160.7650  203.4230  150.0670 C   0  0  0  0  0  0  0  0  0  0  0  0
  160.6350  201.6750  150.0960 S   0  0  0  0  0  0  0  0  0  0  0  0
  161.3670  202.8630  147.9480 N   0  0  0  0  0  0  0  0  0  0  0  0
  161.2150  203.8390  148.8450 N   0  0  0  0  0  0  0  0  0  0  0  0
  161.5780  200.2510  147.9490 C   0  0  0  0  0  2  0  0  0  0  0  0
  161.2060  200.1900  146.3770 C   0  0  0  0  0  0  0  0  0  0  0  0
  161.3310  199.0570  145.8110 O   0  0  0  0  0  1  0  0  0  0  0  0
  160.4760  201.0750  145.5990 O   0  0  0  0  0  0  0  0  0  0  0  0
  161.3670  207.9440  150.4390 N   0  0  0  0  0  2  0  0  0  0  0  0
  161.8090  207.3060  149.0930 C   0  0  2  0  0  3  0  0  0  0  0  0
  162.5150  208.2400  148.3780 O   0  0  0  0  0  0  0  0  0  0  0  0
  162.0920  209.4470  148.8420 C   0  0  0  0  0  1  0  0  0  0  0  0
  160.8090  206.8590  147.9320 C   0  0  0  0  0  2  0  0  0  0  0  0
  161.5870  206.5470  146.6890 N   0  0  0  0  0  2  0  0  0  0  0  0
  161.6750  204.8970  144.9590 C   0  0  0  0  0  1  0  0  0  0  0  0
  160.7610  205.8970  145.6760 C   0  0  0  0  0  2  0  0  0  0  0  0
  1 12  1  1  0  0  0
  1  4  1  0  0  0  0
  3  5  1  0  0  0  0
  4  3  2  0  0  0  0
  5  7  1  0  0  0  0
  6 11  2  0  0  0  0
  7  8  2  0  0  0  0
  7  2  1  0  0  0  0
  9  6  1  0  0  0  0
  9  5  2  0  0  0  0
 10  4  1  0  0  0  0
 10  9  1  0  0  0  0
 11  8  1  0  0  0  0
 14 12  1  0  0  0  0
 14 13  1  1  0  0  0
 15 17  1  0  0  0  0
 16 17  1  0  0  0  0
 16 14  1  0  0  0  0
 18 15  2  0  0  0  0
 18 19  1  0  0  0  0
 19 16  2  0  0  0  0
 20 15  1  0  0  0  0
 21 20  1  0  0  0  0
 22 21  1  0  0  0  0
 23 21  2  0  0  0  0
 24  1  1  0  0  0  0
 25 28  1  6  0  0  0
 25 24  1  0  0  0  0
 26 27  1  0  0  0  0
 26 25  1  0  0  0  0
 29 28  1  0  0  0  0
 30 31  1  0  0  0  0
 31 29  1  0  0  0  0
M  END
>  <MODEL>
1

>  <REMARK>
 VINA RESULT:      -7.4      0.000      0.000
  Name = 
  12 active torsions:
  status: ('A' for Active; 'I' for Inactive)
    1  A    between atoms: C_4  and  C_5
    2  A    between atoms: C_5  and  C_8
    3  A    between atoms: C_6  and  C_7
    4  A    between atoms: C_6  and  C_21
    5  A    between atoms: C_10  and  N_24
    6  A    between atoms: O_11  and  C_27
    7  A    between atoms: C_15  and  C_29
    8  A    between atoms: C_16  and  N_24
    9  A    between atoms: C_16  and  C_27
   10  A    between atoms: C_21  and  C_29
   11  A    between atoms: C_27  and  N_30
   12  A    between atoms: C_29  and  N_30
                            x       y       z     vdW  Elec       q    Type
                         _______ _______ _______ _____ _____    ______ ____

>  <TORSDO>
F 12

$$$$
=
 OpenBabel11042420283D

 31 33  0  0  1  0  0  0  0  0999 V2000
  161.4300  206.9150  151.2090 C   0  0  2  0  0  3  0  0  0  0  0  0
  160.4970  211.5630  154.2200 N   0  0  0  0  0  1  0  0  0  0  0  0
  160.8570  209.0830  152.5940 N   0  0  0  0  0  0  0  0  0  0  0  0
  161.0210  207.7240  152.4660 C   0  0  0  0  0  0  0  0  0  0  0  0
  160.7060  209.1350  153.9500 C   0  0  0  0  0  0  0  0  0  0  0  0
  160.8990  207.5730  155.7710 C   0  0  0  0  0  3  0  0  0  0  0  0
  160.6120  210.2060  154.7580 C   0  0  0  0  0  0  0  0  0  0  0  0
  160.6470  209.9620  156.0860 N   0  0  0  0  0  0  0  0  0  0  0  0
  160.8330  207.8940  154.4740 C   0  0  0  0  0  0  0  0  0  0  0  0
  161.0510  206.9690  153.5120 N   0  0  0  0  0  2  0  0  0  0  0  0
  160.7760  208.6690  156.6130 C   0  0  0  0  0  3  0  0  0  0  0  0
  161.8360  205.4870  151.6760 C   0  0  0  0  0  2  0  0  0  0  0  0
  160.6160  203.5450  152.5340 O   0  0  0  0  0  1  0  0  0  0  0  0
  160.9110  204.2510  151.4690 C   0  0  2  0  0  3  0  0  0  0  0  0
  161.0000  201.7600  148.4700 C   0  0  0  0  0  0  0  0  0  0  0  0
  160.7750  203.5150  150.1740 C   0  0  0  0  0  0  0  0  0  0  0  0
  160.6210  201.7700  150.1170 S   0  0  0  0  0  0  0  0  0  0  0  0
  161.3700  203.0510  148.0290 N   0  0  0  0  0  0  0  0  0  0  0  0
  161.2310  203.9840  148.9730 N   0  0  0  0  0  0  0  0  0  0  0  0
  161.5450  200.4400  147.9030 C   0  0  0  0  0  2  0  0  0  0  0  0
  161.1080  200.4260  146.3460 C   0  0  0  0  0  0  0  0  0  0  0  0
  161.1640  199.3010  145.7540 O   0  0  0  0  0  1  0  0  0  0  0  0
  160.3830  201.3550  145.6170 O   0  0  0  0  0  0  0  0  0  0  0  0
  162.4630  207.6440  150.4150 N   0  0  0  0  0  2  0  0  0  0  0  0
  161.9510  208.1340  149.0330 C   0  0  2  0  0  3  0  0  0  0  0  0
  162.6550  207.4830  148.0510 O   0  0  0  0  0  0  0  0  0  0  0  0
  161.7310  206.7560  147.3650 C   0  0  0  0  0  1  0  0  0  0  0  0
  162.1300  209.6180  148.4760 C   0  0  0  0  0  2  0  0  0  0  0  0
  162.0890  210.5930  149.6150 N   0  0  0  0  0  2  0  0  0  0  0  0
  162.8300  212.2990  148.1110 C   0  0  0  0  0  1  0  0  0  0  0  0
  161.7750  211.9460  149.1650 C   0  0  0  0  0  2  0  0  0  0  0  0
  1 12  1  1  0  0  0
  1  4  1  0  0  0  0
  2  7  1  0  0  0  0
  3  5  1  0  0  0  0
  4  3  2  0  0  0  0
  4 10  1  0  0  0  0
  5  9  2  0  0  0  0
  5  7  1  0  0  0  0
  6 11  2  0  0  0  0
  7  8  2  0  0  0  0
  8 11  1  0  0  0  0
  9  6  1  0  0  0  0
 10  9  1  0  0  0  0
 14 12  1  0  0  0  0
 14 13  1  1  0  0  0
 15 17  1  0  0  0  0
 16 14  1  0  0  0  0
 17 16  1  0  0  0  0
 18 15  2  0  0  0  0
 18 19  1  0  0  0  0
 19 16  2  0  0  0  0
 20 15  1  0  0  0  0
 21 20  1  0  0  0  0
 22 21  1  0  0  0  0
 23 21  2  0  0  0  0
 24  1  1  0  0  0  0
 25 28  1  1  0  0  0
 25 24  1  0  0  0  0
 26 25  1  0  0  0  0
 27 26  1  0  0  0  0
 28 29  1  0  0  0  0
 30 31  1  0  0  0  0
 31 29  1  0  0  0  0
M  END
>  <MODEL>
2

>  <REMARK>
 VINA RESULT:      -7.2      1.212      2.713
  Name = 
  12 active torsions:
  status: ('A' for Active; 'I' for Inactive)
    1  A    between atoms: C_4  and  C_5
    2  A    between atoms: C_5  and  C_8
    3  A    between atoms: C_6  and  C_7
    4  A    between atoms: C_6  and  C_21
    5  A    between atoms: C_10  and  N_24
    6  A    between atoms: O_11  and  C_27
    7  A    between atoms: C_15  and  C_29
    8  A    between atoms: C_16  and  N_24
    9  A    between atoms: C_16  and  C_27
   10  A    between atoms: C_21  and  C_29
   11  A    between atoms: C_27  and  N_30
   12  A    between atoms: C_29  and  N_30
                            x       y       z     vdW  Elec       q    Type
                         _______ _______ _______ _____ _____    ______ ____

>  <TORSDO>
F 12

$$$$
=
 OpenBabel11042420283D

 31 33  0  0  1  0  0  0  0  0999 V2000
  161.0930  207.8850  151.6330 C   0  0  2  0  0  3  0  0  0  0  0  0
  160.2700  208.7200  157.1260 N   0  0  0  0  0  1  0  0  0  0  0  0
  160.8440  208.2770  154.2270 N   0  0  0  0  0  0  0  0  0  0  0  0
  160.9990  208.7200  152.9350 C   0  0  0  0  0  0  0  0  0  0  0  0
  160.6360  209.4870  154.8250 C   0  0  0  0  0  0  0  0  0  0  0  0
  160.3140  211.7520  154.0760 C   0  0  0  0  0  3  0  0  0  0  0  0
  160.3030  209.7640  156.0980 C   0  0  0  0  0  0  0  0  0  0  0  0
  159.9860  211.0480  156.3710 N   0  0  0  0  0  0  0  0  0  0  0  0
  160.6370  210.4670  153.8920 C   0  0  0  0  0  0  0  0  0  0  0  0
  160.8610  209.9720  152.6540 N   0  0  0  0  0  2  0  0  0  0  0  0
  159.9950  212.0530  155.3920 C   0  0  0  0  0  3  0  0  0  0  0  0
  161.9930  206.6490  151.9280 C   0  0  0  0  0  2  0  0  0  0  0  0
  161.2680  205.0460  153.6300 O   0  0  0  0  0  1  0  0  0  0  0  0
  161.4010  205.2710  152.3450 C   0  0  2  0  0  3  0  0  0  0  0  0
  160.8760  202.3300  149.8380 C   0  0  0  0  0  0  0  0  0  0  0  0
  161.4720  204.0390  151.4990 C   0  0  0  0  0  0  0  0  0  0  0  0
  160.8860  204.0200  149.8470 S   0  0  0  0  0  0  0  0  0  0  0  0
  161.1800  201.8170  151.1200 N   0  0  0  0  0  0  0  0  0  0  0  0
  161.5060  202.7670  151.9980 N   0  0  0  0  0  0  0  0  0  0  0  0
  159.9520  201.6580  148.8110 C   0  0  0  0  0  2  0  0  0  0  0  0
  160.9000  201.2940  147.5520 C   0  0  0  0  0  0  0  0  0  0  0  0
  161.5420  200.1980  147.6280 O   0  0  0  0  0  1  0  0  0  0  0  0
  160.9030  201.8040  146.2640 O   0  0  0  0  0  0  0  0  0  0  0  0
  161.5280  208.7310  150.4830 N   0  0  0  0  0  2  0  0  0  0  0  0
  162.0420  207.9110  149.2680 C   0  0  2  0  0  3  0  0  0  0  0  0
  162.5480  208.7810  148.3360 O   0  0  0  0  0  0  0  0  0  0  0  0
  162.1180  210.0140  148.7210 C   0  0  0  0  0  1  0  0  0  0  0  0
  161.1100  207.0650  148.2880 C   0  0  0  0  0  2  0  0  0  0  0  0
  161.8110  206.8600  146.9780 N   0  0  0  0  0  2  0  0  0  0  0  0
  162.8690  204.8180  146.3190 C   0  0  0  0  0  1  0  0  0  0  0  0
  161.5240  205.5480  146.4050 C   0  0  0  0  0  2  0  0  0  0  0  0
  1 12  1  1  0  0  0
  1  4  1  0  0  0  0
  3  5  1  0  0  0  0
  4  3  2  0  0  0  0
  5  7  1  0  0  0  0
  6 11  2  0  0  0  0
  7  8  2  0  0  0  0
  7  2  1  0  0  0  0
  9  6  1  0  0  0  0
  9  5  2  0  0  0  0
 10  4  1  0  0  0  0
 10  9  1  0  0  0  0
 11  8  1  0  0  0  0
 12 14  1  0  0  0  0
 14 13  1  1  0  0  0
 15 17  1  0  0  0  0
 15 18  2  0  0  0  0
 16 19  2  0  0  0  0
 16 14  1  0  0  0  0
 17 16  1  0  0  0  0
 18 19  1  0  0  0  0
 20 15  1  0  0  0  0
 21 22  1  0  0  0  0
 21 20  1  0  0  0  0
 23 21  2  0  0  0  0
 24  1  1  0  0  0  0
 25 28  1  6  0  0  0
 25 24  1  0  0  0  0
 26 27  1  0  0  0  0
 26 25  1  0  0  0  0
 29 28  1  0  0  0  0
 30 31  1  0  0  0  0
 31 29  1  0  0  0  0
M  END
>  <MODEL>
3

>  <REMARK>
 VINA RESULT:      -7.0      1.482      1.689
  Name = 
  12 active torsions:
  status: ('A' for Active; 'I' for Inactive)
    1  A    between atoms: C_4  and  C_5
    2  A    between atoms: C_5  and  C_8
    3  A    between atoms: C_6  and  C_7
    4  A    between atoms: C_6  and  C_21
    5  A    between atoms: C_10  and  N_24
    6  A    between atoms: O_11  and  C_27
    7  A    between atoms: C_15  and  C_29
    8  A    between atoms: C_16  and  N_24
    9  A    between atoms: C_16  and  C_27
   10  A    between atoms: C_21  and  C_29
   11  A    between atoms: C_27  and  N_30
   12  A    between atoms: C_29  and  N_30
                            x       y       z     vdW  Elec       q    Type
                         _______ _______ _______ _____ _____    ______ ____

>  <TORSDO>
F 12

$$$$
=
 OpenBabel11042420283D

 31 33  0  0  1  0  0  0  0  0999 V2000
  161.5720  208.0700  149.4470 C   0  0  2  0  0  3  0  0  0  0  0  0
  161.0030  202.6080  148.2700 N   0  0  0  0  0  1  0  0  0  0  0  0
  161.1700  205.5290  148.8760 N   0  0  0  0  0  0  0  0  0  0  0  0
  161.4320  206.8330  148.5260 C   0  0  0  0  0  0  0  0  0  0  0  0
  161.3810  204.9530  147.6570 C   0  0  0  0  0  0  0  0  0  0  0  0
  162.2100  205.6850  145.5190 C   0  0  0  0  0  3  0  0  0  0  0  0
  161.3960  203.6510  147.3190 C   0  0  0  0  0  0  0  0  0  0  0  0
  161.8080  203.3600  146.0660 N   0  0  0  0  0  0  0  0  0  0  0  0
  161.7680  205.8930  146.7650 C   0  0  0  0  0  0  0  0  0  0  0  0
  161.8170  207.1210  147.3280 N   0  0  0  0  0  2  0  0  0  0  0  0
  162.2040  204.3470  145.1530 C   0  0  0  0  0  3  0  0  0  0  0  0
  162.1130  209.2460  148.5830 C   0  0  0  0  0  2  0  0  0  0  0  0
  161.7310  210.9180  150.3300 O   0  0  0  0  0  1  0  0  0  0  0  0
  162.1280  210.7160  149.0960 C   0  0  2  0  0  3  0  0  0  0  0  0
  161.3670  213.3800  146.3520 C   0  0  0  0  0  0  0  0  0  0  0  0
  162.0380  211.9150  148.2060 C   0  0  0  0  0  0  0  0  0  0  0  0
  160.5370  212.3700  147.4230 S   0  0  0  0  0  0  0  0  0  0  0  0
  162.7650  213.2470  146.5140 N   0  0  0  0  0  0  0  0  0  0  0  0
  163.0990  212.4520  147.5310 N   0  0  0  0  0  0  0  0  0  0  0  0
  160.6550  213.7050  145.0290 C   0  0  0  0  0  2  0  0  0  0  0  0
  161.1210  212.5530  143.9950 C   0  0  0  0  0  0  0  0  0  0  0  0
  160.2070  211.7790  143.5640 O   0  0  0  0  0  1  0  0  0  0  0  0
  162.2810  212.4450  143.2450 O   0  0  0  0  0  0  0  0  0  0  0  0
  162.3790  207.7470  150.6610 N   0  0  0  0  0  2  0  0  0  0  0  0
  161.5260  207.5880  151.9490 C   0  0  2  0  0  3  0  0  0  0  0  0
  161.8170  208.6270  152.7970 O   0  0  0  0  0  0  0  0  0  0  0  0
  160.6120  209.1420  153.1650 C   0  0  0  0  0  1  0  0  0  0  0  0
  161.6900  206.4010  153.0030 C   0  0  0  0  0  2  0  0  0  0  0  0
  161.9790  205.1200  152.2770 N   0  0  0  0  0  2  0  0  0  0  0  0
  161.3440  202.8750  151.7490 C   0  0  0  0  0  1  0  0  0  0  0  0
  160.8340  204.2140  152.2930 C   0  0  0  0  0  2  0  0  0  0  0  0
  1 12  1  6  0  0  0
  1 24  1  0  0  0  0
  4  3  2  0  0  0  0
  4  1  1  0  0  0  0
  5  3  1  0  0  0  0
  6  9  1  0  0  0  0
  7  5  1  0  0  0  0
  7  2  1  0  0  0  0
  8  7  2  0  0  0  0
  9 10  1  0  0  0  0
  9  5  2  0  0  0  0
 10  4  1  0  0  0  0
 11  6  2  0  0  0  0
 11  8  1  0  0  0  0
 12 14  1  0  0  0  0
 14 13  1  1  0  0  0
 15 18  2  0  0  0  0
 15 17  1  0  0  0  0
 16 14  1  0  0  0  0
 17 16  1  0  0  0  0
 18 19  1  0  0  0  0
 19 16  2  0  0  0  0
 20 15  1  0  0  0  0
 21 20  1  0  0  0  0
 22 21  1  0  0  0  0
 23 21  2  0  0  0  0
 24 25  1  0  0  0  0
 25 26  1  0  0  0  0
 25 28  1  1  0  0  0
 26 27  1  0  0  0  0
 29 31  1  0  0  0  0
 29 28  1  0  0  0  0
 30 31  1  0  0  0  0
M  END
>  <MODEL>
4

>  <REMARK>
 VINA RESULT:      -7.0      4.301      8.705
  Name = 
  12 active torsions:
  status: ('A' for Active; 'I' for Inactive)
    1  A    between atoms: C_4  and  C_5
    2  A    between atoms: C_5  and  C_8
    3  A    between atoms: C_6  and  C_7
    4  A    between atoms: C_6  and  C_21
    5  A    between atoms: C_10  and  N_24
    6  A    between atoms: O_11  and  C_27
    7  A    between atoms: C_15  and  C_29
    8  A    between atoms: C_16  and  N_24
    9  A    between atoms: C_16  and  C_27
   10  A    between atoms: C_21  and  C_29
   11  A    between atoms: C_27  and  N_30
   12  A    between atoms: C_29  and  N_30
                            x       y       z     vdW  Elec       q    Type
                         _______ _______ _______ _____ _____    ______ ____

>  <TORSDO>
F 12

$$$$
=
 OpenBabel11042420283D

 31 33  0  0  1  0  0  0  0  0999 V2000
  161.5880  208.0890  149.5290 C   0  0  2  0  0  3  0  0  0  0  0  0
  160.9920  202.6010  148.4950 N   0  0  0  0  0  1  0  0  0  0  0  0
  161.1720  205.5350  149.0300 N   0  0  0  0  0  0  0  0  0  0  0  0
  161.4180  206.8310  148.6410 C   0  0  0  0  0  0  0  0  0  0  0  0
  161.3400  204.9320  147.8170 C   0  0  0  0  0  0  0  0  0  0  0  0
  162.0880  205.6180  145.6340 C   0  0  0  0  0  3  0  0  0  0  0  0
  161.3460  203.6230  147.5070 C   0  0  0  0  0  0  0  0  0  0  0  0
  161.7130  203.3050  146.2470 N   0  0  0  0  0  0  0  0  0  0  0  0
  161.6920  205.8530  146.8900 C   0  0  0  0  0  0  0  0  0  0  0  0
  161.7570  207.0930  147.4240 N   0  0  0  0  0  2  0  0  0  0  0  0
  162.0720  204.2720  145.2980 C   0  0  0  0  0  3  0  0  0  0  0  0
  162.0190  209.2660  148.6050 C   0  0  0  0  0  2  0  0  0  0  0  0
  161.9200  210.9230  150.4050 O   0  0  0  0  0  1  0  0  0  0  0  0
  162.1560  210.7260  149.1290 C   0  0  2  0  0  3  0  0  0  0  0  0
  161.5250  213.3580  146.3220 C   0  0  0  0  0  0  0  0  0  0  0  0
  162.0050  211.9410  148.2700 C   0  0  0  0  0  0  0  0  0  0  0  0
  160.7250  212.0760  147.0810 S   0  0  0  0  0  0  0  0  0  0  0  0
  162.8010  213.5650  146.8930 N   0  0  0  0  0  0  0  0  0  0  0  0
  163.0310  212.7870  147.9520 N   0  0  0  0  0  0  0  0  0  0  0  0
  161.1590  213.6160  144.8520 C   0  0  0  0  0  2  0  0  0  0  0  0
  162.4240  213.0880  143.9940 C   0  0  0  0  0  0  0  0  0  0  0  0
  162.1650  212.2750  143.0500 O   0  0  0  0  0  0  0  0  0  0  0  0
  163.7080  213.5990  143.8950 O   0  0  0  0  0  1  0  0  0  0  0  0
  162.4980  207.8140  150.6790 N   0  0  0  0  0  2  0  0  0  0  0  0
  161.7770  207.8160  152.0550 C   0  0  2  0  0  3  0  0  0  0  0  0
  161.0410  206.6630  152.1640 O   0  0  0  0  0  0  0  0  0  0  0  0
  161.6410  205.9410  153.1480 C   0  0  0  0  0  1  0  0  0  0  0  0
  160.6300  208.8430  152.4750 C   0  0  0  0  0  2  0  0  0  0  0  0
  161.0140  209.5350  153.7480 N   0  0  0  0  0  2  0  0  0  0  0  0
  159.3700  211.0620  152.9200 C   0  0  0  0  0  1  0  0  0  0  0  0
  160.6700  210.9530  153.7240 C   0  0  0  0  0  2  0  0  0  0  0  0
  1 12  1  6  0  0  0
  1 24  1  0  0  0  0
  4  3  2  0  0  0  0
  4  1  1  0  0  0  0
  5  3  1  0  0  0  0
  6  9  1  0  0  0  0
  7  5  1  0  0  0  0
  7  2  1  0  0  0  0
  8  7  2  0  0  0  0
  9 10  1  0  0  0  0
  9  5  2  0  0  0  0
 10  4  1  0  0  0  0
 11  6  2  0  0  0  0
 11  8  1  0  0  0  0
 12 14  1  0  0  0  0
 14 13  1  1  0  0  0
 15 18  2  0  0  0  0
 15 17  1  0  0  0  0
 16 14  1  0  0  0  0
 17 16  1  0  0  0  0
 18 19  1  0  0  0  0
 19 16  2  0  0  0  0
 20 15  1  0  0  0  0
 21 20  1  0  0  0  0
 22 21  2  0  0  0  0
 23 21  1  0  0  0  0
 24 25  1  0  0  0  0
 25 26  1  0  0  0  0
 25 28  1  6  0  0  0
 26 27  1  0  0  0  0
 28 29  1  0  0  0  0
 30 31  1  0  0  0  0
 31 29  1  0  0  0  0
M  END
>  <MODEL>
5

>  <REMARK>
 VINA RESULT:      -6.8      3.824      9.028
  Name = 
  12 active torsions:
  status: ('A' for Active; 'I' for Inactive)
    1  A    between atoms: C_4  and  C_5
    2  A    between atoms: C_5  and  C_8
    3  A    between atoms: C_6  and  C_7
    4  A    between atoms: C_6  and  C_21
    5  A    between atoms: C_10  and  N_24
    6  A    between atoms: O_11  and  C_27
    7  A    between atoms: C_15  and  C_29
    8  A    between atoms: C_16  and  N_24
    9  A    between atoms: C_16  and  C_27
   10  A    between atoms: C_21  and  C_29
   11  A    between atoms: C_27  and  N_30
   12  A    between atoms: C_29  and  N_30
                            x       y       z     vdW  Elec       q    Type
                         _______ _______ _______ _____ _____    ______ ____

>  <TORSDO>
F 12

$$$$
=
 OpenBabel11042420283D

 31 33  0  0  1  0  0  0  0  0999 V2000
  161.3900  206.5210  151.4570 C   0  0  2  0  0  3  0  0  0  0  0  0
  160.0890  206.9280  156.9050 N   0  0  0  0  0  1  0  0  0  0  0  0
  160.9140  206.6970  154.0430 N   0  0  0  0  0  0  0  0  0  0  0  0
  161.2420  207.2380  152.8220 C   0  0  0  0  0  0  0  0  0  0  0  0
  160.7610  207.8610  154.7390 C   0  0  0  0  0  0  0  0  0  0  0  0
  160.7350  210.2070  154.1990 C   0  0  0  0  0  3  0  0  0  0  0  0
  160.3270  208.0530  155.9980 C   0  0  0  0  0  0  0  0  0  0  0  0
  160.1070  209.3330  156.3690 N   0  0  0  0  0  0  0  0  0  0  0  0
  160.9520  208.9170  153.9150 C   0  0  0  0  0  0  0  0  0  0  0  0
  161.2540  208.5180  152.6590 N   0  0  0  0  0  2  0  0  0  0  0  0
  160.3130  210.4160  155.5030 C   0  0  0  0  0  3  0  0  0  0  0  0
  161.9130  205.0810  151.7320 C   0  0  0  0  0  2  0  0  0  0  0  0
  160.4630  203.2240  152.3980 O   0  0  0  0  0  1  0  0  0  0  0  0
  161.0720  203.8140  151.3970 C   0  0  2  0  0  3  0  0  0  0  0  0
  161.1240  201.9860  147.9530 C   0  0  0  0  0  0  0  0  0  0  0  0
  161.3150  202.9380  150.2090 C   0  0  0  0  0  0  0  0  0  0  0  0
  161.2150  203.5560  148.5720 S   0  0  0  0  0  0  0  0  0  0  0  0
  161.0290  201.0370  148.9960 N   0  0  0  0  0  0  0  0  0  0  0  0
  161.1430  201.5820  150.2090 N   0  0  0  0  0  0  0  0  0  0  0  0
  160.4920  201.8380  146.5600 C   0  0  0  0  0  2  0  0  0  0  0  0
  161.2030  202.9630  145.6420 C   0  0  0  0  0  0  0  0  0  0  0  0
  160.4600  203.5470  144.7900 O   0  0  0  0  0  0  0  0  0  0  0  0
  162.4010  203.6350  145.8250 O   0  0  0  0  0  1  0  0  0  0  0  0
  162.2170  207.3300  150.5130 N   0  0  0  0  0  2  0  0  0  0  0  0
  161.4000  207.9480  149.3450 C   0  0  2  0  0  3  0  0  0  0  0  0
  161.1970  206.9800  148.3950 O   0  0  0  0  0  0  0  0  0  0  0  0
  162.3480  206.9380  147.6690 C   0  0  0  0  0  1  0  0  0  0  0  0
  161.9370  209.0930  148.3720 C   0  0  0  0  0  2  0  0  0  0  0  0
  162.0280  210.3890  149.1220 N   0  0  0  0  0  2  0  0  0  0  0  0
  163.0470  212.2300  147.9840 C   0  0  0  0  0  1  0  0  0  0  0  0
  161.7130  211.5340  148.2730 C   0  0  0  0  0  2  0  0  0  0  0  0
  1 12  1  1  0  0  0
  1  4  1  0  0  0  0
  3  5  1  0  0  0  0
  4  3  2  0  0  0  0
  5  7  1  0  0  0  0
  6 11  2  0  0  0  0
  7  8  2  0  0  0  0
  7  2  1  0  0  0  0
  9  6  1  0  0  0  0
  9  5  2  0  0  0  0
 10  4  1  0  0  0  0
 10  9  1  0  0  0  0
 11  8  1  0  0  0  0
 14 12  1  0  0  0  0
 14 13  1  1  0  0  0
 15 17  1  0  0  0  0
 15 18  2  0  0  0  0
 16 19  2  0  0  0  0
 16 14  1  0  0  0  0
 17 16  1  0  0  0  0
 18 19  1  0  0  0  0
 20 15  1  0  0  0  0
 21 23  1  0  0  0  0
 21 20  1  0  0  0  0
 22 21  2  0  0  0  0
 24  1  1  0  0  0  0
 25 28  1  6  0  0  0
 25 24  1  0  0  0  0
 26 25  1  0  0  0  0
 27 26  1  0  0  0  0
 28 29  1  0  0  0  0
 30 31  1  0  0  0  0
 31 29  1  0  0  0  0
M  END
>  <MODEL>
6

>  <REMARK>
 VINA RESULT:      -6.7      1.728      2.617
  Name = 
  12 active torsions:
  status: ('A' for Active; 'I' for Inactive)
    1  A    between atoms: C_4  and  C_5
    2  A    between atoms: C_5  and  C_8
    3  A    between atoms: C_6  and  C_7
    4  A    between atoms: C_6  and  C_21
    5  A    between atoms: C_10  and  N_24
    6  A    between atoms: O_11  and  C_27
    7  A    between atoms: C_15  and  C_29
    8  A    between atoms: C_16  and  N_24
    9  A    between atoms: C_16  and  C_27
   10  A    between atoms: C_21  and  C_29
   11  A    between atoms: C_27  and  N_30
   12  A    between atoms: C_29  and  N_30
                            x       y       z     vdW  Elec       q    Type
                         _______ _______ _______ _____ _____    ______ ____

>  <TORSDO>
F 12

$$$$
=
 OpenBabel11042420283D

 31 33  0  0  1  0  0  0  0  0999 V2000
  161.3550  208.4510  151.3370 C   0  0  2  0  0  3  0  0  0  0  0  0
  158.1900  212.1450  154.1450 N   0  0  0  0  0  1  0  0  0  0  0  0
  159.7830  210.0810  152.6860 N   0  0  0  0  0  0  0  0  0  0  0  0
  160.8220  209.1850  152.5930 C   0  0  0  0  0  0  0  0  0  0  0  0
  159.9810  210.4770  153.9770 C   0  0  0  0  0  0  0  0  0  0  0  0
  161.6630  210.1100  155.6590 C   0  0  0  0  0  3  0  0  0  0  0  0
  159.3600  211.4420  154.6790 C   0  0  0  0  0  0  0  0  0  0  0  0
  159.8830  211.7380  155.8880 N   0  0  0  0  0  0  0  0  0  0  0  0
  161.0720  209.8600  154.4850 C   0  0  0  0  0  0  0  0  0  0  0  0
  161.6340  209.0240  153.5830 N   0  0  0  0  0  2  0  0  0  0  0  0
  161.0140  211.0860  156.4010 C   0  0  0  0  0  3  0  0  0  0  0  0
  162.0320  207.1320  151.8110 C   0  0  0  0  0  2  0  0  0  0  0  0
  161.3310  205.6020  153.5890 O   0  0  0  0  0  1  0  0  0  0  0  0
  161.2090  205.9120  152.3200 C   0  0  2  0  0  3  0  0  0  0  0  0
  160.6480  202.6010  150.3390 C   0  0  0  0  0  0  0  0  0  0  0  0
  160.7440  204.7920  151.4450 C   0  0  0  0  0  0  0  0  0  0  0  0
  160.9110  203.1150  151.9270 S   0  0  0  0  0  0  0  0  0  0  0  0
  160.5790  203.7030  149.4560 N   0  0  0  0  0  0  0  0  0  0  0  0
  160.6270  204.8780  150.0850 N   0  0  0  0  0  0  0  0  0  0  0  0
  161.1820  201.2060  149.9750 C   0  0  0  0  0  2  0  0  0  0  0  0
  161.1770  201.1510  148.3590 C   0  0  0  0  0  0  0  0  0  0  0  0
  161.6090  200.0770  147.8300 O   0  0  0  0  0  1  0  0  0  0  0  0
  160.4960  201.9370  147.4430 O   0  0  0  0  0  0  0  0  0  0  0  0
  162.2170  209.3510  150.5150 N   0  0  0  0  0  2  0  0  0  0  0  0
  162.2530  208.9710  149.0100 C   0  0  2  0  0  3  0  0  0  0  0  0
  161.6790  209.9870  148.2890 O   0  0  0  0  0  0  0  0  0  0  0  0
  162.0210  211.1320  148.9410 C   0  0  0  0  0  1  0  0  0  0  0  0
  161.4370  207.7620  148.3620 C   0  0  0  0  0  2  0  0  0  0  0  0
  162.3410  206.9660  147.4680 N   0  0  0  0  0  2  0  0  0  0  0  0
  162.7190  204.8270  146.4660 C   0  0  0  0  0  1  0  0  0  0  0  0
  161.6410  205.8510  146.8370 C   0  0  0  0  0  2  0  0  0  0  0  0
  1 12  1  1  0  0  0
  1  4  1  0  0  0  0
  2  7  1  0  0  0  0
  3  5  1  0  0  0  0
  4  3  2  0  0  0  0
  4 10  1  0  0  0  0
  5  9  2  0  0  0  0
  5  7  1  0  0  0  0
  6 11  2  0  0  0  0
  7  8  2  0  0  0  0
  8 11  1  0  0  0  0
  9  6  1  0  0  0  0
 10  9  1  0  0  0  0
 12 14  1  0  0  0  0
 14 13  1  1  0  0  0
 15 17  1  0  0  0  0
 16 17  1  0  0  0  0
 16 14  1  0  0  0  0
 18 19  1  0  0  0  0
 18 15  2  0  0  0  0
 19 16  2  0  0  0  0
 20 15  1  0  0  0  0
 21 20  1  0  0  0  0
 22 21  1  0  0  0  0
 23 21  2  0  0  0  0
 24  1  1  0  0  0  0
 25 28  1  1  0  0  0
 25 24  1  0  0  0  0
 26 27  1  0  0  0  0
 26 25  1  0  0  0  0
 29 28  1  0  0  0  0
 30 31  1  0  0  0  0
 31 29  1  0  0  0  0
M  END
>  <MODEL>
7

>  <REMARK>
 VINA RESULT:      -6.5      1.756      2.300
  Name = 
  12 active torsions:
  status: ('A' for Active; 'I' for Inactive)
    1  A    between atoms: C_4  and  C_5
    2  A    between atoms: C_5  and  C_8
    3  A    between atoms: C_6  and  C_7
    4  A    between atoms: C_6  and  C_21
    5  A    between atoms: C_10  and  N_24
    6  A    between atoms: O_11  and  C_27
    7  A    between atoms: C_15  and  C_29
    8  A    between atoms: C_16  and  N_24
    9  A    between atoms: C_16  and  C_27
   10  A    between atoms: C_21  and  C_29
   11  A    between atoms: C_27  and  N_30
   12  A    between atoms: C_29  and  N_30
                            x       y       z     vdW  Elec       q    Type
                         _______ _______ _______ _____ _____    ______ ____

>  <TORSDO>
F 12

$$$$
=
 OpenBabel11042420283D

 31 33  0  0  1  0  0  0  0  0999 V2000
  161.2850  209.7230  153.3470 C   0  0  2  0  0  3  0  0  0  0  0  0
  157.7010  212.4640  156.6930 N   0  0  0  0  0  1  0  0  0  0  0  0
  159.7090  211.0850  154.9630 N   0  0  0  0  0  0  0  0  0  0  0  0
  160.3580  210.8920  153.7650 C   0  0  0  0  0  0  0  0  0  0  0  0
  158.9360  212.1490  154.5980 C   0  0  0  0  0  0  0  0  0  0  0  0
  158.4580  213.3150  152.5460 C   0  0  0  0  0  3  0  0  0  0  0  0
  157.9660  212.7760  155.2870 C   0  0  0  0  0  0  0  0  0  0  0  0
  157.2420  213.6920  154.6070 N   0  0  0  0  0  0  0  0  0  0  0  0
  159.1440  212.4420  153.2930 C   0  0  0  0  0  0  0  0  0  0  0  0
  160.0620  211.6180  152.7400 N   0  0  0  0  0  2  0  0  0  0  0  0
  157.4720  213.9860  153.2550 C   0  0  0  0  0  3  0  0  0  0  0  0
  160.7720  209.1770  151.9830 C   0  0  0  0  0  2  0  0  0  0  0  0
  162.3310  209.9520  150.2620 O   0  0  0  0  0  1  0  0  0  0  0  0
  161.7270  208.9100  150.7830 C   0  0  2  0  0  3  0  0  0  0  0  0
  161.3750  206.4040  147.8160 C   0  0  0  0  0  0  0  0  0  0  0  0
  161.6150  207.7310  149.8690 C   0  0  0  0  0  0  0  0  0  0  0  0
  162.3040  207.7450  148.2580 S   0  0  0  0  0  0  0  0  0  0  0  0
  160.4660  206.0600  148.8420 N   0  0  0  0  0  0  0  0  0  0  0  0
  160.6240  206.7930  149.9460 N   0  0  0  0  0  0  0  0  0  0  0  0
  161.1290  206.2090  146.3120 C   0  0  0  0  0  2  0  0  0  0  0  0
  161.9430  204.8710  145.9110 C   0  0  0  0  0  0  0  0  0  0  0  0
  163.0670  204.7030  146.4830 O   0  0  0  0  0  1  0  0  0  0  0  0
  161.5020  203.7120  145.2930 O   0  0  0  0  0  0  0  0  0  0  0  0
  161.3970  208.7110  154.4380 N   0  0  0  0  0  2  0  0  0  0  0  0
  160.9600  207.2840  154.0080 C   0  0  2  0  0  3  0  0  0  0  0  0
  160.6220  206.5730  155.1310 O   0  0  0  0  0  0  0  0  0  0  0  0
  159.7930  207.3870  155.8400 C   0  0  0  0  0  1  0  0  0  0  0  0
  161.9300  206.2000  153.3520 C   0  0  0  0  0  2  0  0  0  0  0  0
  161.1250  205.0300  152.8700 N   0  0  0  0  0  2  0  0  0  0  0  0
  160.8240  203.3180  151.2260 C   0  0  0  0  0  1  0  0  0  0  0  0
  161.8600  204.2250  151.8980 C   0  0  0  0  0  2  0  0  0  0  0  0
  1 12  1  6  0  0  0
  1  4  1  0  0  0  0
  1 24  1  0  0  0  0
  4  3  2  0  0  0  0
  5  3  1  0  0  0  0
  5  7  1  0  0  0  0
  6 11  2  0  0  0  0
  6  9  1  0  0  0  0
  7  2  1  0  0  0  0
  8  7  2  0  0  0  0
  9  5  2  0  0  0  0
 10  9  1  0  0  0  0
 10  4  1  0  0  0  0
 11  8  1  0  0  0  0
 14 13  1  6  0  0  0
 14 12  1  0  0  0  0
 15 17  1  0  0  0  0
 15 18  2  0  0  0  0
 16 19  2  0  0  0  0
 16 14  1  0  0  0  0
 17 16  1  0  0  0  0
 18 19  1  0  0  0  0
 20 15  1  0  0  0  0
 21 20  1  0  0  0  0
 21 22  1  0  0  0  0
 23 21  2  0  0  0  0
 25 28  1  1  0  0  0
 25 24  1  0  0  0  0
 25 26  1  0  0  0  0
 26 27  1  0  0  0  0
 29 28  1  0  0  0  0
 30 31  1  0  0  0  0
 31 29  1  0  0  0  0
M  END
>  <MODEL>
8

>  <REMARK>
 VINA RESULT:      -6.3      2.994      5.235
  Name = 
  12 active torsions:
  status: ('A' for Active; 'I' for Inactive)
    1  A    between atoms: C_4  and  C_5
    2  A    between atoms: C_5  and  C_8
    3  A    between atoms: C_6  and  C_7
    4  A    between atoms: C_6  and  C_21
    5  A    between atoms: C_10  and  N_24
    6  A    between atoms: O_11  and  C_27
    7  A    between atoms: C_15  and  C_29
    8  A    between atoms: C_16  and  N_24
    9  A    between atoms: C_16  and  C_27
   10  A    between atoms: C_21  and  C_29
   11  A    between atoms: C_27  and  N_30
   12  A    between atoms: C_29  and  N_30
                            x       y       z     vdW  Elec       q    Type
                         _______ _______ _______ _____ _____    ______ ____

>  <TORSDO>
F 12

$$$$
=
 OpenBabel11042420283D

 31 33  0  0  1  0  0  0  0  0999 V2000
  161.5440  209.6260  151.0260 C   0  0  2  0  0  3  0  0  0  0  0  0
  162.6100  210.8550  156.4010 N   0  0  0  0  0  1  0  0  0  0  0  0
  161.9340  210.2860  153.5470 N   0  0  0  0  0  0  0  0  0  0  0  0
  161.3630  209.5160  152.5610 C   0  0  0  0  0  0  0  0  0  0  0  0
  161.5320  209.5510  154.6250 C   0  0  0  0  0  0  0  0  0  0  0  0
  160.4340  207.4360  154.9630 C   0  0  0  0  0  3  0  0  0  0  0  0
  161.8500  209.6970  155.9250 C   0  0  0  0  0  0  0  0  0  0  0  0
  161.4460  208.7130  156.7560 N   0  0  0  0  0  0  0  0  0  0  0  0
  160.8470  208.4610  154.2090 C   0  0  0  0  0  0  0  0  0  0  0  0
  160.7440  208.4250  152.8620 N   0  0  0  0  0  2  0  0  0  0  0  0
  160.7340  207.5900  156.3090 C   0  0  0  0  0  3  0  0  0  0  0  0
  162.3030  208.3540  150.5470 C   0  0  0  0  0  2  0  0  0  0  0  0
  161.5770  208.2490  148.2100 O   0  0  0  0  0  1  0  0  0  0  0  0
  161.8670  207.5530  149.2840 C   0  0  2  0  0  3  0  0  0  0  0  0
  160.8680  203.8410  149.9390 C   0  0  0  0  0  0  0  0  0  0  0  0
  161.2560  206.1880  149.3280 C   0  0  0  0  0  0  0  0  0  0  0  0
  161.1960  205.2530  150.8090 S   0  0  0  0  0  0  0  0  0  0  0  0
  160.9480  204.0760  148.5480 N   0  0  0  0  0  0  0  0  0  0  0  0
  161.1520  205.3590  148.2460 N   0  0  0  0  0  0  0  0  0  0  0  0
  161.2100  202.5150  150.6360 C   0  0  0  0  0  2  0  0  0  0  0  0
  160.6660  201.3560  149.6470 C   0  0  0  0  0  0  0  0  0  0  0  0
  159.4120  201.3410  149.4320 O   0  0  0  0  0  1  0  0  0  0  0  0
  161.3530  200.5650  148.7400 O   0  0  0  0  0  0  0  0  0  0  0  0
  162.1760  210.9250  150.6510 N   0  0  0  0  0  2  0  0  0  0  0  0
  161.6710  211.4940  149.2980 C   0  0  2  0  0  3  0  0  0  0  0  0
  162.6550  211.3250  148.3570 O   0  0  0  0  0  0  0  0  0  0  0  0
  162.9250  212.5730  147.8860 C   0  0  0  0  0  1  0  0  0  0  0  0
  161.3730  213.0370  149.0190 C   0  0  0  0  0  2  0  0  0  0  0  0
  159.9350  213.3360  149.3270 N   0  0  0  0  0  2  0  0  0  0  0  0
  157.7410  213.9190  148.5720 C   0  0  0  0  0  1  0  0  0  0  0  0
  159.1370  213.4820  148.1130 C   0  0  0  0  0  2  0  0  0  0  0  0
  1 12  1  1  0  0  0
  1  4  1  0  0  0  0
  3  5  1  0  0  0  0
  4 10  1  0  0  0  0
  4  3  2  0  0  0  0
  5  7  1  0  0  0  0
  6 11  2  0  0  0  0
  7  2  1  0  0  0  0
  7  8  2  0  0  0  0
  9  5  2  0  0  0  0
  9  6  1  0  0  0  0
 10  9  1  0  0  0  0
 11  8  1  0  0  0  0
 14 13  1  1  0  0  0
 14 16  1  0  0  0  0
 14 12  1  0  0  0  0
 15 20  1  0  0  0  0
 15 17  1  0  0  0  0
 16 17  1  0  0  0  0
 18 15  2  0  0  0  0
 19 18  1  0  0  0  0
 19 16  2  0  0  0  0
 21 20  1  0  0  0  0
 22 21  1  0  0  0  0
 23 21  2  0  0  0  0
 24  1  1  0  0  0  0
 25 28  1  1  0  0  0
 25 24  1  0  0  0  0
 26 25  1  0  0  0  0
 27 26  1  0  0  0  0
 28 29  1  0  0  0  0
 31 30  1  0  0  0  0
 31 29  1  0  0  0  0
M  END
>  <MODEL>
9

>  <REMARK>
 VINA RESULT:      -6.3      2.664      4.215
  Name = 
  12 active torsions:
  status: ('A' for Active; 'I' for Inactive)
    1  A    between atoms: C_4  and  C_5
    2  A    between atoms: C_5  and  C_8
    3  A    between atoms: C_6  and  C_7
    4  A    between atoms: C_6  and  C_21
    5  A    between atoms: C_10  and  N_24
    6  A    between atoms: O_11  and  C_27
    7  A    between atoms: C_15  and  C_29
    8  A    between atoms: C_16  and  N_24
    9  A    between atoms: C_16  and  C_27
   10  A    between atoms: C_21  and  C_29
   11  A    between atoms: C_27  and  N_30
   12  A    between atoms: C_29  and  N_30
                            x       y       z     vdW  Elec       q    Type
                         _______ _______ _______ _____ _____    ______ ____

>  <TORSDO>
F 12

$$$$
