=
 OpenBabel11042421313D

 27 31  0  0  1  0  0  0  0  0999 V2000
  160.8630  203.0320  149.0100 C   0  0  0  0  0  3  0  0  0  0  0  0
  160.9720  202.0280  149.9750 C   0  0  0  0  0  3  0  0  0  0  0  0
  161.2070  202.3650  151.3100 C   0  0  0  0  0  3  0  0  0  0  0  0
  160.9770  204.3800  149.3720 C   0  0  0  0  0  0  0  0  0  0  0  0
  161.3220  203.7080  151.6830 C   0  0  0  0  0  3  0  0  0  0  0  0
  161.1990  204.7240  150.7250 C   0  0  0  0  0  0  0  0  0  0  0  0
  160.9840  208.8870  155.0460 O   0  0  0  0  0  0  0  0  0  0  0  0
  161.2560  207.8360  152.8930 C   0  0  0  0  0  0  0  0  0  0  0  0
  160.7460  206.5430  154.7640 N   0  0  0  0  0  2  0  0  0  0  0  0
  161.3240  206.1280  151.1610 C   0  0  0  0  0  0  0  0  0  0  0  0
  161.5840  208.8120  151.9630 C   0  0  0  0  0  0  0  0  0  0  0  0
  161.6620  207.1270  150.2150 C   0  0  0  0  0  3  0  0  0  0  0  0
  162.0940  210.6610  150.8720 C   0  0  0  0  0  3  0  0  0  0  0  0
  160.8530  205.7490  153.5690 C   0  0  0  0  0  3  0  0  0  0  0  0
  161.7860  210.2390  152.1020 C   0  0  0  0  0  3  0  0  0  0  0  0
  161.7830  208.4580  150.6500 C   0  0  0  0  0  0  0  0  0  0  0  0
  160.9990  207.8670  154.3080 C   0  0  0  0  0  0  0  0  0  0  0  0
  162.0980  209.5200  149.9330 C   0  0  0  0  0  3  0  0  0  0  0  0
  161.1380  206.5150  152.5100 C   0  0  0  0  0  0  0  0  0  0  0  0
  160.3320  206.6090  147.7570 C   0  0  0  0  0  2  0  0  0  0  0  0
  161.3410  205.9810  147.0470 C   0  0  1  0  0  3  0  0  0  0  0  0
  160.9240  205.3740  148.3490 N   0  0  0  0  0  0  0  0  0  0  0  0
  160.5810  205.7740  144.6640 N   0  0  0  0  0  1  0  0  0  0  0  0
  160.8780  205.0610  145.9020 C   0  0  1  0  0  3  0  0  0  0  0  0
  161.5610  202.8030  145.5080 O   0  0  0  0  0  0  0  0  0  0  0  0
  163.2790  204.3620  145.5730 N   0  0  0  0  0  1  0  0  0  0  0  0
  161.9030  204.0070  145.6450 C   0  0  0  0  0  0  0  0  0  0  0  0
  1  4  2  0  0  0  0
  1  2  1  0  0  0  0
  2  3  2  0  0  0  0
  3  5  1  0  0  0  0
  4  6  1  0  0  0  0
  6 10  1  0  0  0  0
  6  5  2  0  0  0  0
  8 17  1  0  0  0  0
 10 19  1  0  0  0  0
 11 15  1  0  0  0  0
 11  8  2  0  0  0  0
 12 16  1  0  0  0  0
 12 10  2  0  0  0  0
 13 15  2  0  0  0  0
 14  9  1  0  0  0  0
 16 11  1  0  0  0  0
 17  9  1  0  0  0  0
 17  7  2  0  0  0  0
 18 16  2  0  0  0  0
 18 13  1  0  0  0  0
 19  8  1  0  0  0  0
 19 14  2  0  0  0  0
 20 22  1  0  0  0  0
 21 24  1  6  0  0  0
 21 20  1  0  0  0  0
 21 22  1  0  0  0  0
 22  4  1  0  0  0  0
 24 23  1  6  0  0  0
 25 27  2  0  0  0  0
 26 27  1  0  0  0  0
 27 24  1  0  0  0  0
M  END
>  <MODEL>
1

>  <REMARK>
 VINA RESULT:      -9.6      0.000      0.000
  Name = 
  4 active torsions:
  status: ('A' for Active; 'I' for Inactive)
    1  A    between atoms: C_6  and  C_22
    2  A    between atoms: C_9  and  C_12
    3  A    between atoms: C_12  and  C_25
    4  A    between atoms: N_13  and  C_20
                            x       y       z     vdW  Elec       q    Type
                         _______ _______ _______ _____ _____    ______ ____

>  <TORSDO>
F 4

$$$$
=
 OpenBabel11042421313D

 27 31  0  0  1  0  0  0  0  0999 V2000
  161.7200  209.4470  151.4730 C   0  0  0  0  0  3  0  0  0  0  0  0
  161.9540  210.3440  150.4290 C   0  0  0  0  0  3  0  0  0  0  0  0
  162.0350  209.8800  149.1140 C   0  0  0  0  0  3  0  0  0  0  0  0
  161.5530  208.0810  151.2110 C   0  0  0  0  0  0  0  0  0  0  0  0
  161.8700  208.5190  148.8410 C   0  0  0  0  0  3  0  0  0  0  0  0
  161.6180  207.6120  149.8790 C   0  0  0  0  0  0  0  0  0  0  0  0
  161.4470  203.1770  145.8340 O   0  0  0  0  0  0  0  0  0  0  0  0
  161.3830  204.3650  147.9320 C   0  0  0  0  0  0  0  0  0  0  0  0
  161.8350  205.5150  145.9570 N   0  0  0  0  0  0  0  0  0  0  0  0
  161.4480  206.1850  149.5470 C   0  0  0  0  0  0  0  0  0  0  0  0
  161.1290  203.4540  148.9480 C   0  0  0  0  0  0  0  0  0  0  0  0
  161.1910  205.2510  150.5810 C   0  0  0  0  0  3  0  0  0  0  0  0
  160.7400  201.6790  150.2000 C   0  0  0  0  0  3  0  0  0  0  0  0
  161.8210  206.3870  147.1010 C   0  0  0  0  0  3  0  0  0  0  0  0
  160.9370  202.0190  148.9230 C   0  0  0  0  0  3  0  0  0  0  0  0
  161.0370  203.8950  150.2460 C   0  0  2  0  0  3  0  0  0  0  0  0
  161.5470  204.2360  146.5090 C   0  0  0  0  0  0  0  0  0  0  0  0
  160.8070  202.8800  151.0580 C   0  0  0  0  0  3  0  0  0  0  0  0
  161.5520  205.7040  148.2190 C   0  0  0  0  0  0  0  0  0  0  0  0
  160.8300  205.9280  152.8950 C   0  0  0  0  0  2  0  0  0  0  0  0
  161.5300  206.7730  153.7390 C   0  0  1  0  0  3  0  0  0  0  0  0
  161.3780  207.1860  152.3080 N   0  0  0  0  0  0  0  0  0  0  0  0
  159.7260  206.9900  155.4700 N   0  0  0  0  0  1  0  0  0  0  0  0
  160.6710  207.7030  154.6160 C   0  0  1  0  0  3  0  0  0  0  0  0
  161.9990  208.1620  156.5510 O   0  0  0  0  0  0  0  0  0  0  0  0
  161.8630  209.8910  155.0070 N   0  0  0  0  0  1  0  0  0  0  0  0
  161.5480  208.5750  155.4500 C   0  0  0  0  0  0  0  0  0  0  0  0
  2  1  2  0  0  0  0
  3  2  1  0  0  0  0
  4  1  1  0  0  0  0
  4 22  1  0  0  0  0
  5  3  2  0  0  0  0
  5  6  1  0  0  0  0
  6  4  2  0  0  0  0
  7 17  2  0  0  0  0
  8 19  2  0  0  0  0
  8 11  1  0  0  0  0
  9 17  1  0  0  0  0
  9 14  2  0  0  0  0
 10  6  1  0  0  0  0
 10 12  2  0  0  0  0
 11 16  1  0  0  0  0
 13 18  2  0  0  0  0
 14 19  1  0  0  0  0
 15 11  2  0  0  0  0
 15 13  1  0  0  0  0
 16 12  1  1  0  0  0
 16 18  1  0  0  0  0
 17  8  1  0  0  0  0
 19 10  1  0  0  0  0
 20 21  1  0  0  0  0
 21 24  1  1  0  0  0
 22 20  1  0  0  0  0
 22 21  1  0  0  0  0
 24 27  1  0  0  0  0
 24 23  1  1  0  0  0
 26 27  1  0  0  0  0
 27 25  2  0  0  0  0
M  END
>  <MODEL>
2

>  <REMARK>
 VINA RESULT:      -9.4      1.325      7.618
  Name = 
  4 active torsions:
  status: ('A' for Active; 'I' for Inactive)
    1  A    between atoms: C_6  and  C_22
    2  A    between atoms: C_9  and  C_12
    3  A    between atoms: C_12  and  C_25
    4  A    between atoms: N_13  and  C_20
                            x       y       z     vdW  Elec       q    Type
                         _______ _______ _______ _____ _____    ______ ____

>  <TORSDO>
F 4

$$$$
=
 OpenBabel11042421313D

 27 31  0  0  1  0  0  0  0  0999 V2000
  161.6000  207.5680  152.1610 C   0  0  0  0  0  3  0  0  0  0  0  0
  161.2420  206.8640  153.3130 C   0  0  0  0  0  3  0  0  0  0  0  0
  160.8820  205.5170  153.2240 C   0  0  0  0  0  3  0  0  0  0  0  0
  161.6120  206.9300  150.9140 C   0  0  0  0  0  0  0  0  0  0  0  0
  160.8910  204.8710  151.9840 C   0  0  0  0  0  3  0  0  0  0  0  0
  161.2640  205.5630  150.8240 C   0  0  0  0  0  0  0  0  0  0  0  0
  161.1010  200.4300  147.7150 O   0  0  0  0  0  0  0  0  0  0  0  0
  161.1860  202.7800  148.2490 C   0  0  0  0  0  0  0  0  0  0  0  0
  161.0250  201.2030  149.9570 N   0  0  0  0  0  2  0  0  0  0  0  0
  161.2620  204.8430  149.5370 C   0  0  0  0  0  0  0  0  0  0  0  0
  161.2480  203.5000  147.0650 C   0  0  0  0  0  0  0  0  0  0  0  0
  161.3220  205.5750  148.3250 C   0  0  0  0  0  3  0  0  0  0  0  0
  161.3110  204.2040  144.9740 C   0  0  0  0  0  3  0  0  0  0  0  0
  161.0810  202.5470  150.4640 C   0  0  0  0  0  3  0  0  0  0  0  0
  161.2470  203.0720  145.6810 C   0  0  0  0  0  3  0  0  0  0  0  0
  161.3130  204.8720  147.1080 C   0  0  0  0  0  0  0  0  0  0  0  0
  161.1010  201.3750  148.5470 C   0  0  0  0  0  0  0  0  0  0  0  0
  161.3510  205.3670  145.8860 C   0  0  0  0  0  3  0  0  0  0  0  0
  161.1810  203.4310  149.4650 C   0  0  0  0  0  0  0  0  0  0  0  0
  162.8520  208.0870  148.6510 C   0  0  0  0  0  2  0  0  0  0  0  0
  161.6370  208.7460  148.7220 C   0  0  1  0  0  3  0  0  0  0  0  0
  161.9220  207.6990  149.7520 N   0  0  0  0  0  0  0  0  0  0  0  0
  162.6830  210.2450  150.4420 N   0  0  0  0  0  1  0  0  0  0  0  0
  161.6660  210.1280  149.4010 C   0  0  1  0  0  3  0  0  0  0  0  0
  160.9470  211.4730  147.5590 O   0  0  0  0  0  0  0  0  0  0  0  0
  163.1000  211.8980  148.3180 N   0  0  0  0  0  1  0  0  0  0  0  0
  161.8630  211.1970  148.3800 C   0  0  0  0  0  0  0  0  0  0  0  0
  1  2  1  0  0  0  0
  3  2  2  0  0  0  0
  4  1  2  0  0  0  0
  5  3  1  0  0  0  0
  6  4  1  0  0  0  0
  6  5  2  0  0  0  0
  7 17  2  0  0  0  0
  8 17  1  0  0  0  0
  8 19  1  0  0  0  0
  9 14  1  0  0  0  0
 10  6  1  0  0  0  0
 11 16  1  0  0  0  0
 11  8  2  0  0  0  0
 12 10  2  0  0  0  0
 13 15  2  0  0  0  0
 13 18  1  0  0  0  0
 15 11  1  0  0  0  0
 16 12  1  0  0  0  0
 17  9  1  0  0  0  0
 18 16  2  0  0  0  0
 19 10  1  0  0  0  0
 19 14  2  0  0  0  0
 20 21  1  0  0  0  0
 20 22  1  0  0  0  0
 21 24  1  1  0  0  0
 21 22  1  0  0  0  0
 22  4  1  0  0  0  0
 24 23  1  1  0  0  0
 25 27  2  0  0  0  0
 26 27  1  0  0  0  0
 27 24  1  0  0  0  0
M  END
>  <MODEL>
3

>  <REMARK>
 VINA RESULT:      -9.2      2.789      6.235
  Name = 
  4 active torsions:
  status: ('A' for Active; 'I' for Inactive)
    1  A    between atoms: C_6  and  C_22
    2  A    between atoms: C_9  and  C_12
    3  A    between atoms: C_12  and  C_25
    4  A    between atoms: N_13  and  C_20
                            x       y       z     vdW  Elec       q    Type
                         _______ _______ _______ _____ _____    ______ ____

>  <TORSDO>
F 4

$$$$
=
 OpenBabel11042421313D

 27 31  0  0  1  0  0  0  0  0999 V2000
  161.5650  209.9760  152.1660 C   0  0  0  0  0  3  0  0  0  0  0  0
  161.1970  209.7290  153.4910 C   0  0  0  0  0  3  0  0  0  0  0  0
  160.8310  208.4400  153.8850 C   0  0  0  0  0  3  0  0  0  0  0  0
  161.5800  208.9370  151.2280 C   0  0  0  0  0  0  0  0  0  0  0  0
  160.8420  207.3950  152.9560 C   0  0  0  0  0  3  0  0  0  0  0  0
  161.2250  207.6280  151.6280 C   0  0  0  0  0  0  0  0  0  0  0  0
  161.2050  201.7210  150.5520 O   0  0  0  0  0  0  0  0  0  0  0  0
  161.2070  204.1090  150.2140 C   0  0  0  0  0  0  0  0  0  0  0  0
  161.1440  203.2390  152.3750 N   0  0  0  0  0  2  0  0  0  0  0  0
  161.2250  206.4970  150.6820 C   0  0  0  0  0  0  0  0  0  0  0  0
  161.2140  204.3610  148.8500 C   0  0  0  0  0  0  0  0  0  0  0  0
  161.2300  206.7500  149.2870 C   0  0  0  0  0  3  0  0  0  0  0  0
  161.2060  204.2760  146.6450 C   0  0  0  0  0  3  0  0  0  0  0  0
  161.1560  204.6780  152.3690 C   0  0  0  0  0  3  0  0  0  0  0  0
  161.2020  203.4690  147.7090 C   0  0  0  0  0  3  0  0  0  0  0  0
  161.2250  205.6600  148.4010 C   0  0  0  0  0  0  0  0  0  0  0  0
  161.1840  202.9000  150.9940 C   0  0  0  0  0  0  0  0  0  0  0  0
  161.2170  205.6880  147.0820 C   0  0  0  0  0  3  0  0  0  0  0  0
  161.2000  205.1500  151.1190 C   0  0  0  0  0  0  0  0  0  0  0  0
  162.7060  209.0130  148.6360 C   0  0  0  0  0  2  0  0  0  0  0  0
  161.7580  210.0220  148.6030 C   0  0  1  0  0  3  0  0  0  0  0  0
  161.8990  209.2400  149.8710 N   0  0  0  0  0  0  0  0  0  0  0  0
  163.3630  211.8280  147.9250 N   0  0  0  0  0  1  0  0  0  0  0  0
  162.2920  211.4470  148.8390 C   0  0  1  0  0  3  0  0  0  0  0  0
  160.7170  212.9750  149.7910 O   0  0  0  0  0  0  0  0  0  0  0  0
  160.6120  212.7510  147.4830 N   0  0  0  0  0  1  0  0  0  0  0  0
  161.1760  212.4330  148.7510 C   0  0  0  0  0  0  0  0  0  0  0  0
  1  2  1  0  0  0  0
  2  3  2  0  0  0  0
  4  6  1  0  0  0  0
  4  1  2  0  0  0  0
  5  3  1  0  0  0  0
  6  5  2  0  0  0  0
  7 17  2  0  0  0  0
  8 17  1  0  0  0  0
  8 19  1  0  0  0  0
 10 19  1  0  0  0  0
 10  6  1  0  0  0  0
 11  8  2  0  0  0  0
 12 10  2  0  0  0  0
 13 18  1  0  0  0  0
 13 15  2  0  0  0  0
 14  9  1  0  0  0  0
 15 11  1  0  0  0  0
 16 11  1  0  0  0  0
 16 12  1  0  0  0  0
 17  9  1  0  0  0  0
 18 16  2  0  0  0  0
 19 14  2  0  0  0  0
 20 22  1  0  0  0  0
 21 20  1  0  0  0  0
 21 24  1  1  0  0  0
 21 22  1  0  0  0  0
 22  4  1  0  0  0  0
 24 23  1  6  0  0  0
 26 27  1  0  0  0  0
 27 24  1  0  0  0  0
 27 25  2  0  0  0  0
M  END
>  <MODEL>
4

>  <REMARK>
 VINA RESULT:      -8.9      2.998      6.111
  Name = 
  4 active torsions:
  status: ('A' for Active; 'I' for Inactive)
    1  A    between atoms: C_6  and  C_22
    2  A    between atoms: C_9  and  C_12
    3  A    between atoms: C_12  and  C_25
    4  A    between atoms: N_13  and  C_20
                            x       y       z     vdW  Elec       q    Type
                         _______ _______ _______ _____ _____    ______ ____

>  <TORSDO>
F 4

$$$$
=
 OpenBabel11042421313D

 27 31  0  0  1  0  0  0  0  0999 V2000
  161.4820  206.1440  152.5000 C   0  0  0  0  0  3  0  0  0  0  0  0
  161.1760  205.0890  153.3610 C   0  0  0  0  0  3  0  0  0  0  0  0
  160.8710  203.8290  152.8420 C   0  0  0  0  0  3  0  0  0  0  0  0
  161.4960  205.9470  151.1130 C   0  0  0  0  0  0  0  0  0  0  0  0
  160.8820  203.6210  151.4590 C   0  0  0  0  0  3  0  0  0  0  0  0
  161.2030  204.6690  150.5850 C   0  0  0  0  0  0  0  0  0  0  0  0
  161.2050  200.8190  145.9780 O   0  0  0  0  0  0  0  0  0  0  0  0
  161.1960  202.8700  147.2460 C   0  0  0  0  0  0  0  0  0  0  0  0
  161.1420  200.8180  148.3500 N   0  0  0  0  0  0  0  0  0  0  0  0
  161.2060  204.4050  149.1340 C   0  0  0  0  0  0  0  0  0  0  0  0
  161.1990  203.9370  146.3600 C   0  0  0  0  0  0  0  0  0  0  0  0
  161.2060  205.4930  148.2250 C   0  0  0  0  0  3  0  0  0  0  0  0
  161.1850  205.2840  144.6110 C   0  0  0  0  0  3  0  0  0  0  0  0
  161.1490  201.9270  149.2660 C   0  0  0  0  0  3  0  0  0  0  0  0
  161.1870  203.9820  144.9120 C   0  0  0  0  0  3  0  0  0  0  0  0
  161.2030  205.2230  146.8460 C   0  0  0  0  0  0  0  0  0  0  0  0
  161.1800  201.4420  147.0720 C   0  0  0  0  0  0  0  0  0  0  0  0
  161.1920  206.0880  145.8510 C   0  0  0  0  0  3  0  0  0  0  0  0
  161.1870  203.0910  148.6080 C   0  0  1  0  0  3  0  0  0  0  0  0
  162.4420  207.6880  149.0960 C   0  0  0  0  0  2  0  0  0  0  0  0
  161.6050  208.4940  149.8470 C   0  0  1  0  0  3  0  0  0  0  0  0
  161.7510  207.0640  150.2620 N   0  0  0  0  0  0  0  0  0  0  0  0
  162.7060  210.6870  150.3740 N   0  0  0  0  0  1  0  0  0  0  0  0
  162.2990  209.3850  150.8940 C   0  0  1  0  0  3  0  0  0  0  0  0
  160.1850  209.2990  152.0080 O   0  0  0  0  0  0  0  0  0  0  0  0
  161.9550  210.0710  153.2970 N   0  0  0  0  0  1  0  0  0  0  0  0
  161.4130  209.5690  152.0800 C   0  0  0  0  0  0  0  0  0  0  0  0
  1  2  1  0  0  0  0
  3  2  2  0  0  0  0
  4  1  2  0  0  0  0
  5  3  1  0  0  0  0
  6  4  1  0  0  0  0
  6  5  2  0  0  0  0
  7 17  2  0  0  0  0
  8 19  1  0  0  0  0
  9 14  2  0  0  0  0
 10  6  1  0  0  0  0
 11 16  1  0  0  0  0
 11  8  2  0  0  0  0
 12 10  2  0  0  0  0
 13 15  2  0  0  0  0
 13 18  1  0  0  0  0
 15 11  1  0  0  0  0
 16 12  1  0  0  0  0
 17  8  1  0  0  0  0
 17  9  1  0  0  0  0
 18 16  2  0  0  0  0
 19 10  1  0  0  0  0
 19 14  1  6  0  0  0
 20 21  1  0  0  0  0
 20 22  1  0  0  0  0
 21 22  1  0  0  0  0
 21 24  1  1  0  0  0
 22  4  1  0  0  0  0
 24 23  1  6  0  0  0
 24 27  1  0  0  0  0
 25 27  2  0  0  0  0
 27 26  1  0  0  0  0
M  END
>  <MODEL>
5

>  <REMARK>
 VINA RESULT:      -8.9      2.122      6.549
  Name = 
  4 active torsions:
  status: ('A' for Active; 'I' for Inactive)
    1  A    between atoms: C_6  and  C_22
    2  A    between atoms: C_9  and  C_12
    3  A    between atoms: C_12  and  C_25
    4  A    between atoms: N_13  and  C_20
                            x       y       z     vdW  Elec       q    Type
                         _______ _______ _______ _____ _____    ______ ____

>  <TORSDO>
F 4

$$$$
=
 OpenBabel11042421313D

 27 31  0  0  1  0  0  0  0  0999 V2000
  160.4570  211.9470  156.2310 C   0  0  0  0  0  3  0  0  0  0  0  0
  161.4590  211.8860  157.2020 C   0  0  0  0  0  3  0  0  0  0  0  0
  162.4100  210.8640  157.1610 C   0  0  0  0  0  3  0  0  0  0  0  0
  160.4040  210.9940  155.2060 C   0  0  0  0  0  0  0  0  0  0  0  0
  162.3660  209.9070  156.1420 C   0  0  0  0  0  3  0  0  0  0  0  0
  161.3750  209.9680  155.1530 C   0  0  0  0  0  0  0  0  0  0  0  0
  161.9680  208.4100  149.3850 O   0  0  0  0  0  0  0  0  0  0  0  0
  161.6120  208.2770  151.7660 C   0  0  0  0  0  0  0  0  0  0  0  0
  162.1260  210.3240  150.7790 N   0  0  0  0  0  0  0  0  0  0  0  0
  161.3670  208.9400  154.0950 C   0  0  0  0  0  0  0  0  0  0  0  0
  161.3560  206.9550  152.1010 C   0  0  0  0  0  0  0  0  0  0  0  0
  161.1080  207.5890  154.4330 C   0  0  0  0  0  3  0  0  0  0  0  0
  161.0250  204.7740  152.1580 C   0  0  0  0  0  3  0  0  0  0  0  0
  161.9310  210.4410  152.1990 C   0  0  0  0  0  3  0  0  0  0  0  0
  161.3000  205.7540  151.2930 C   0  0  0  0  0  3  0  0  0  0  0  0
  161.1110  206.6230  153.4120 C   0  0  0  0  0  0  0  0  0  0  0  0
  161.9110  208.9410  150.5250 C   0  0  0  0  0  0  0  0  0  0  0  0
  160.9050  205.3240  153.5240 C   0  0  0  0  0  3  0  0  0  0  0  0
  161.6300  209.2550  152.7400 C   0  0  1  0  0  3  0  0  0  0  0  0
  158.7820  211.4080  152.9270 C   0  0  0  0  0  2  0  0  0  0  0  0
  157.9040  210.8680  153.8500 C   0  0  1  0  0  3  0  0  0  0  0  0
  159.3290  211.0510  154.2680 N   0  0  0  0  0  0  0  0  0  0  0  0
  156.4690  212.9250  153.7620 N   0  0  0  0  0  1  0  0  0  0  0  0
  157.0310  211.8810  154.6130 C   0  0  1  0  0  3  0  0  0  0  0  0
  155.2150  210.3290  154.7350 O   0  0  0  0  0  0  0  0  0  0  0  0
  155.6850  211.4620  156.7050 N   0  0  0  0  0  1  0  0  0  0  0  0
  155.9340  211.1720  155.3340 C   0  0  0  0  0  0  0  0  0  0  0  0
  1  2  1  0  0  0  0
  3  2  2  0  0  0  0
  4  1  2  0  0  0  0
  5  3  1  0  0  0  0
  6  4  1  0  0  0  0
  6  5  2  0  0  0  0
  7 17  2  0  0  0  0
  8 11  2  0  0  0  0
  8 19  1  0  0  0  0
  9 14  2  0  0  0  0
 10 12  2  0  0  0  0
 10  6  1  0  0  0  0
 11 16  1  0  0  0  0
 13 18  1  0  0  0  0
 15 11  1  0  0  0  0
 15 13  2  0  0  0  0
 16 18  2  0  0  0  0
 16 12  1  0  0  0  0
 17  9  1  0  0  0  0
 17  8  1  0  0  0  0
 19 14  1  1  0  0  0
 19 10  1  0  0  0  0
 20 21  1  0  0  0  0
 20 22  1  0  0  0  0
 21 22  1  0  0  0  0
 21 24  1  1  0  0  0
 22  4  1  0  0  0  0
 24 23  1  6  0  0  0
 24 27  1  0  0  0  0
 25 27  2  0  0  0  0
 27 26  1  0  0  0  0
M  END
>  <MODEL>
6

>  <REMARK>
 VINA RESULT:      -8.8      3.998      8.426
  Name = 
  4 active torsions:
  status: ('A' for Active; 'I' for Inactive)
    1  A    between atoms: C_6  and  C_22
    2  A    between atoms: C_9  and  C_12
    3  A    between atoms: C_12  and  C_25
    4  A    between atoms: N_13  and  C_20
                            x       y       z     vdW  Elec       q    Type
                         _______ _______ _______ _____ _____    ______ ____

>  <TORSDO>
F 4

$$$$
=
 OpenBabel11042421313D

 27 31  0  0  1  0  0  0  0  0999 V2000
  160.2450  212.0160  156.2850 C   0  0  0  0  0  3  0  0  0  0  0  0
  161.2600  211.8540  157.2300 C   0  0  0  0  0  3  0  0  0  0  0  0
  162.3130  210.9700  156.9780 C   0  0  0  0  0  3  0  0  0  0  0  0
  160.2780  211.3060  155.0780 C   0  0  0  0  0  0  0  0  0  0  0  0
  162.3560  210.2560  155.7770 C   0  0  0  0  0  3  0  0  0  0  0  0
  161.3500  210.4230  154.8150 C   0  0  0  0  0  0  0  0  0  0  0  0
  161.1000  205.1970  151.8700 O   0  0  0  0  0  0  0  0  0  0  0  0
  161.3290  207.5520  152.3380 C   0  0  0  0  0  0  0  0  0  0  0  0
  160.8300  206.0660  154.0620 N   0  0  0  0  0  2  0  0  0  0  0  0
  161.4350  209.6530  153.5600 C   0  0  0  0  0  0  0  0  0  0  0  0
  161.5920  208.2140  151.1470 C   0  0  0  0  0  0  0  0  0  0  0  0
  161.7010  210.3260  152.3420 C   0  0  0  0  0  3  0  0  0  0  0  0
  161.9610  208.8240  149.0590 C   0  0  0  0  0  3  0  0  0  0  0  0
  160.9450  207.4210  154.5300 C   0  0  0  0  0  3  0  0  0  0  0  0
  161.7150  207.7310  149.7870 C   0  0  0  0  0  3  0  0  0  0  0  0
  161.7720  209.5770  151.1560 C   0  0  0  0  0  0  0  0  0  0  0  0
  161.0850  206.1720  152.6670 C   0  0  0  0  0  0  0  0  0  0  0  0
  161.9960  210.0150  149.9310 C   0  0  0  0  0  3  0  0  0  0  0  0
  161.2390  208.2510  153.5240 C   0  0  0  0  0  0  0  0  0  0  0  0
  158.6130  211.9710  152.8920 C   0  0  0  0  0  2  0  0  0  0  0  0
  157.7690  211.2680  153.7340 C   0  0  1  0  0  3  0  0  0  0  0  0
  159.1900  211.4500  154.1650 N   0  0  0  0  0  0  0  0  0  0  0  0
  156.1260  213.1560  153.9180 N   0  0  0  0  0  1  0  0  0  0  0  0
  156.8640  212.1240  154.6390 C   0  0  1  0  0  3  0  0  0  0  0  0
  155.2710  210.3470  154.7900 O   0  0  0  0  0  0  0  0  0  0  0  0
  155.7170  211.4530  156.7820 N   0  0  0  0  0  1  0  0  0  0  0  0
  155.9140  211.2510  155.3870 C   0  0  0  0  0  0  0  0  0  0  0  0
  1  2  1  0  0  0  0
  3  2  2  0  0  0  0
  4  1  2  0  0  0  0
  5  3  1  0  0  0  0
  6  4  1  0  0  0  0
  6  5  2  0  0  0  0
  7 17  2  0  0  0  0
  8 17  1  0  0  0  0
  8 19  1  0  0  0  0
  9 14  1  0  0  0  0
 10  6  1  0  0  0  0
 11 16  1  0  0  0  0
 11  8  2  0  0  0  0
 12 10  2  0  0  0  0
 13 15  2  0  0  0  0
 13 18  1  0  0  0  0
 15 11  1  0  0  0  0
 16 12  1  0  0  0  0
 17  9  1  0  0  0  0
 18 16  2  0  0  0  0
 19 10  1  0  0  0  0
 19 14  2  0  0  0  0
 20 21  1  0  0  0  0
 20 22  1  0  0  0  0
 21 22  1  0  0  0  0
 21 24  1  1  0  0  0
 22  4  1  0  0  0  0
 24 23  1  6  0  0  0
 24 27  1  0  0  0  0
 25 27  2  0  0  0  0
 27 26  1  0  0  0  0
M  END
>  <MODEL>
7

>  <REMARK>
 VINA RESULT:      -8.6      4.047      8.148
  Name = 
  4 active torsions:
  status: ('A' for Active; 'I' for Inactive)
    1  A    between atoms: C_6  and  C_22
    2  A    between atoms: C_9  and  C_12
    3  A    between atoms: C_12  and  C_25
    4  A    between atoms: N_13  and  C_20
                            x       y       z     vdW  Elec       q    Type
                         _______ _______ _______ _____ _____    ______ ____

>  <TORSDO>
F 4

$$$$
=
 OpenBabel11042421313D

 27 31  0  0  1  0  0  0  0  0999 V2000
  161.9280  206.3180  148.9480 C   0  0  0  0  0  3  0  0  0  0  0  0
  162.3140  207.3820  148.1300 C   0  0  0  0  0  3  0  0  0  0  0  0
  162.3220  208.6850  148.6360 C   0  0  0  0  0  3  0  0  0  0  0  0
  161.5600  206.5450  150.2800 C   0  0  0  0  0  0  0  0  0  0  0  0
  161.9560  208.9220  149.9640 C   0  0  0  0  0  3  0  0  0  0  0  0
  161.5830  207.8590  150.7990 C   0  0  0  0  0  0  0  0  0  0  0  0
  159.8270  211.7470  155.0240 O   0  0  0  0  0  0  0  0  0  0  0  0
  160.4840  209.7030  153.9260 C   0  0  0  0  0  0  0  0  0  0  0  0
  160.3080  211.6780  152.7010 N   0  0  0  0  0  0  0  0  0  0  0  0
  161.2060  208.1530  152.1940 C   0  0  0  0  0  0  0  0  0  0  0  0
  160.4810  208.6780  154.8610 C   0  0  0  0  0  0  0  0  0  0  0  0
  161.1990  207.1090  153.1520 C   0  0  0  0  0  3  0  0  0  0  0  0
  160.3170  207.3980  156.6510 C   0  0  0  0  0  3  0  0  0  0  0  0
  160.7270  210.5690  151.8860 C   0  0  0  0  0  3  0  0  0  0  0  0
  160.1480  208.6670  156.2710 C   0  0  0  0  0  2  0  0  0  0  0  0
  160.8320  207.4070  154.4750 C   0  0  0  0  0  0  0  0  0  0  0  0
  160.1670  211.1040  153.9960 C   0  0  0  0  0  0  0  0  0  0  0  0
  160.7540  206.5800  155.5010 C   0  0  0  0  0  3  0  0  0  0  0  0
  160.8280  209.4510  152.6130 C   0  0  0  0  0  0  0  0  0  0  0  0
  161.0010  204.7250  152.3710 C   0  0  0  0  0  2  0  0  0  0  0  0
  160.4550  204.1100  151.2580 C   0  0  1  0  0  3  0  0  0  0  0  0
  161.1110  205.4410  151.0660 N   0  0  0  0  0  0  0  0  0  0  0  0
  161.6180  201.8960  151.4710 N   0  0  0  0  0  1  0  0  0  0  0  0
  161.3290  203.0280  150.5960 C   0  0  1  0  0  3  0  0  0  0  0  0
  159.7090  201.7490  149.3880 O   0  0  0  0  0  0  0  0  0  0  0  0
  161.1860  202.9720  148.0790 N   0  0  0  0  0  1  0  0  0  0  0  0
  160.6840  202.5460  149.3410 C   0  0  0  0  0  0  0  0  0  0  0  0
  1  4  1  0  0  0  0
  2  3  1  0  0  0  0
  2  1  2  0  0  0  0
  3  5  2  0  0  0  0
  4  6  2  0  0  0  0
  4 22  1  0  0  0  0
  5  6  1  0  0  0  0
  6 10  1  0  0  0  0
  8 17  1  0  0  0  0
  8 11  1  0  0  0  0
  9 17  1  0  0  0  0
 10 19  1  0  0  0  0
 10 12  2  0  0  0  0
 11 15  1  0  0  0  0
 12 16  1  0  0  0  0
 14 19  1  0  0  0  0
 14  9  2  0  0  0  0
 15 13  1  0  0  0  0
 16 11  2  0  0  0  0
 16 18  1  0  0  0  0
 17  7  2  0  0  0  0
 18 13  2  0  0  0  0
 19  8  2  0  0  0  0
 21 24  1  6  0  0  0
 21 20  1  0  0  0  0
 22 21  1  0  0  0  0
 22 20  1  0  0  0  0
 24 23  1  1  0  0  0
 26 27  1  0  0  0  0
 27 25  2  0  0  0  0
 27 24  1  0  0  0  0
M  END
>  <MODEL>
8

>  <REMARK>
 VINA RESULT:      -7.8      2.279      4.621
  Name = 
  4 active torsions:
  status: ('A' for Active; 'I' for Inactive)
    1  A    between atoms: C_6  and  C_22
    2  A    between atoms: C_9  and  C_12
    3  A    between atoms: C_12  and  C_25
    4  A    between atoms: N_13  and  C_20
                            x       y       z     vdW  Elec       q    Type
                         _______ _______ _______ _____ _____    ______ ____

>  <TORSDO>
F 4

$$$$
=
 OpenBabel11042421313D

 27 31  0  0  1  0  0  0  0  0999 V2000
  161.9550  208.7590  149.4330 C   0  0  0  0  0  3  0  0  0  0  0  0
  162.1790  209.8420  148.5800 C   0  0  0  0  0  3  0  0  0  0  0  0
  162.1020  211.1470  149.0720 C   0  0  0  0  0  3  0  0  0  0  0  0
  161.6630  208.9710  150.7860 C   0  0  0  0  0  0  0  0  0  0  0  0
  161.8110  211.3700  150.4210 C   0  0  0  0  0  3  0  0  0  0  0  0
  161.6000  210.2910  151.2900 C   0  0  0  0  0  0  0  0  0  0  0  0
  157.8100  212.1780  155.5480 O   0  0  0  0  0  0  0  0  0  0  0  0
  159.7810  211.3190  154.4560 C   0  0  0  0  0  0  0  0  0  0  0  0
  157.8780  211.8100  153.2040 N   0  0  0  0  0  0  0  0  0  0  0  0
  161.2990  210.5700  152.7070 C   0  0  0  0  0  0  0  0  0  0  0  0
  160.7510  211.0810  155.4190 C   0  0  0  0  0  0  0  0  0  0  0  0
  162.2850  210.3260  153.6940 C   0  0  0  0  0  3  0  0  0  0  0  0
  161.9450  210.8470  157.2600 C   0  0  0  0  0  3  0  0  0  0  0  0
  158.9560  211.3270  152.3840 C   0  0  0  0  0  3  0  0  0  0  0  0
  160.7340  211.2440  156.8580 C   0  0  0  0  0  2  0  0  0  0  0  0
  161.9780  210.5930  155.0390 C   0  0  0  0  0  0  0  0  0  0  0  0
  158.4280  211.8040  154.5160 C   0  0  0  0  0  0  0  0  0  0  0  0
  162.7500  210.4230  156.0960 C   0  0  0  0  0  3  0  0  0  0  0  0
  160.0380  211.0600  153.1250 C   0  0  0  0  0  0  0  0  0  0  0  0
  161.4630  207.1250  152.9190 C   0  0  0  0  0  2  0  0  0  0  0  0
  160.8340  206.4740  151.8720 C   0  0  1  0  0  3  0  0  0  0  0  0
  161.3780  207.8440  151.6140 N   0  0  0  0  0  0  0  0  0  0  0  0
  162.1120  204.3140  151.9290 N   0  0  0  0  0  1  0  0  0  0  0  0
  161.6950  205.4480  151.1100 C   0  0  1  0  0  3  0  0  0  0  0  0
  160.4570  205.7780  149.0900 O   0  0  0  0  0  0  0  0  0  0  0  0
  160.8230  203.5620  149.6810 N   0  0  0  0  0  1  0  0  0  0  0  0
  160.9640  204.9610  149.9040 C   0  0  0  0  0  0  0  0  0  0  0  0
  1  4  1  0  0  0  0
  2  3  1  0  0  0  0
  2  1  2  0  0  0  0
  3  5  2  0  0  0  0
  4  6  2  0  0  0  0
  4 22  1  0  0  0  0
  5  6  1  0  0  0  0
  6 10  1  0  0  0  0
  8 17  1  0  0  0  0
  8 11  1  0  0  0  0
  9 17  1  0  0  0  0
 10 19  1  0  0  0  0
 10 12  2  0  0  0  0
 11 15  1  0  0  0  0
 12 16  1  0  0  0  0
 14 19  1  0  0  0  0
 14  9  2  0  0  0  0
 15 13  1  0  0  0  0
 16 11  2  0  0  0  0
 16 18  1  0  0  0  0
 17  7  2  0  0  0  0
 18 13  2  0  0  0  0
 19  8  2  0  0  0  0
 21 24  1  6  0  0  0
 21 20  1  0  0  0  0
 22 21  1  0  0  0  0
 22 20  1  0  0  0  0
 24 23  1  1  0  0  0
 25 27  2  0  0  0  0
 26 27  1  0  0  0  0
 27 24  1  0  0  0  0
M  END
>  <MODEL>
9

>  <REMARK>
 VINA RESULT:      -7.7      2.994      5.663
  Name = 
  4 active torsions:
  status: ('A' for Active; 'I' for Inactive)
    1  A    between atoms: C_6  and  C_22
    2  A    between atoms: C_9  and  C_12
    3  A    between atoms: C_12  and  C_25
    4  A    between atoms: N_13  and  C_20
                            x       y       z     vdW  Elec       q    Type
                         _______ _______ _______ _____ _____    ______ ____

>  <TORSDO>
F 4

$$$$
