=
 OpenBabel11042423053D

 48 52  0  0  1  0  0  0  0  0999 V2000
  161.7710  209.9080  152.6200 C   0  0  1  0  0  0  0  0  0  0  0  0
  162.9020  210.0540  151.5610 C   0  0  0  0  0  2  0  0  0  0  0  0
  162.4450  210.4850  150.1350 C   0  0  1  0  0  3  0  0  0  0  0  0
  160.8650  211.2730  154.3760 N   0  0  0  0  0  0  0  0  0  0  0  0
  160.7080  208.8840  152.1620 C   0  0  0  0  0  2  0  0  0  0  0  0
  161.1650  212.2410  147.8250 C   0  0  2  0  0  3  0  0  0  0  0  0
  161.5380  209.5210  149.3130 C   0  0  1  0  0  3  0  0  0  0  0  0
  161.2490  212.5920  149.2800 C   0  0  0  0  0  3  0  0  0  0  0  0
  158.3730  211.7500  154.1040 C   0  0  0  0  0  1  0  0  0  0  0  0
  162.3390  209.4600  153.9700 C   0  0  0  0  0  2  0  0  0  0  0  0
  160.5910  210.9680  147.5820 O   0  0  0  0  0  0  0  0  0  0  0  0
  161.5550  209.9870  147.8580 C   0  0  0  0  0  2  0  0  0  0  0  0
  161.1080  211.2410  152.9390 C   0  0  0  0  0  2  0  0  0  0  0  0
  161.2100  207.4960  151.6420 C   0  0  1  0  0  3  0  0  0  0  0  0
  161.4850  210.1490  155.0450 C   0  0  1  0  0  3  0  0  0  0  0  0
  159.6030  212.2670  156.0730 O   0  0  0  0  0  0  0  0  0  0  0  0
  161.7990  207.9690  149.3160 C   0  0  2  0  0  3  0  0  0  0  0  0
  162.2620  207.4690  150.6070 N   0  0  0  0  0  2  0  0  0  0  0  0
  161.8160  211.8490  150.2420 C   0  0  0  0  0  3  0  0  0  0  0  0
  159.6440  211.8330  154.8990 C   0  0  0  0  0  0  0  0  0  0  0  0
  161.0510  204.8430  152.3370 C   0  0  2  0  0  3  0  0  0  0  0  0
  161.2000  206.3190  152.6710 C   0  0  1  0  0  3  0  0  0  0  0  0
  162.3110  205.4520  152.4230 O   0  0  0  0  0  0  0  0  0  0  0  0
  160.7390  204.2900  150.6140 P   0  0  0  0  0  0  0  0  0  0  0  0
  159.6980  205.1100  149.8940 O   0  0  0  0  0  1  0  0  0  0  0  0
  160.2000  202.6980  150.7270 O   0  0  0  0  0  1  0  0  0  0  0  0
  162.1610  204.3790  149.6650 O   0  0  0  0  0  0  0  0  0  0  0  0
  163.5470  211.0040  156.0920 C   0  0  0  0  0  3  0  0  0  0  0  0
  162.2900  210.5770  156.2450 C   0  0  0  0  0  3  0  0  0  0  0  0
  164.3480  211.4610  157.2600 C   0  0  0  0  0  2  0  0  0  0  0  0
  167.1280  211.5170  157.2500 O   0  0  0  0  0  1  0  0  0  0  0  0
  165.9640  213.8710  157.2260 O   0  0  0  0  0  1  0  0  0  0  0  0
  165.9230  212.2560  156.6940 P   0  0  0  0  0  0  0  0  0  0  0  0
  165.9840  212.2220  154.9940 O   0  0  0  0  0  0  0  0  0  0  0  0
  162.4420  212.5920  147.0560 C   0  0  0  0  0  2  0  0  0  0  0  0
  162.0930  213.4910  145.8920 C   0  0  0  0  0  2  0  0  0  0  0  0
  160.9020  212.9440  145.1350 C   0  0  0  0  0  2  0  0  0  0  0  0
  162.5090  213.3650  143.3030 C   0  0  0  0  0  3  0  0  0  0  0  0
  161.5750  211.6500  141.0010 C   0  0  0  0  0  2  0  0  0  0  0  0
  160.2720  211.5850  141.8120 C   0  0  0  0  0  2  0  0  0  0  0  0
  161.1930  212.9300  143.7070 N   0  0  0  0  0  0  0  0  0  0  0  0
  160.0570  212.7580  142.7900 C   0  0  0  0  0  2  0  0  0  0  0  0
  162.1030  213.0650  140.8290 C   0  0  0  0  0  2  0  0  0  0  0  0
  162.9410  213.4220  142.0280 C   0  0  0  0  0  3  0  0  0  0  0  0
  162.6990  207.5410  148.3000 O   0  0  0  0  0  0  0  0  0  0  0  0
  163.0050  205.9530  146.4450 C   0  0  0  0  0  1  0  0  0  0  0  0
  160.8410  206.6450  147.2370 O   0  0  0  0  0  1  0  0  0  0  0  0
  162.1630  206.4200  147.6210 C   0  0  2  0  0  3  0  0  0  0  0  0
  1  2  1  6  0  0  0
  1 13  1  0  0  0  0
  1 10  1  0  0  0  0
  3 19  1  1  0  0  0
  3  2  1  0  0  0  0
  4 20  1  0  0  0  0
  4 15  1  0  0  0  0
  5  1  1  0  0  0  0
  6 35  1  1  0  0  0
  6  8  1  0  0  0  0
  7 12  1  6  0  0  0
  7 17  1  0  0  0  0
  7  3  1  0  0  0  0
  8 19  2  0  0  0  0
  9 20  1  0  0  0  0
 10 15  1  0  0  0  0
 11  6  1  0  0  0  0
 11 12  1  0  0  0  0
 13  4  1  0  0  0  0
 14  5  1  1  0  0  0
 14 22  1  0  0  0  0
 15 29  1  1  0  0  0
 17 45  1  6  0  0  0
 17 18  1  0  0  0  0
 18 14  1  0  0  0  0
 20 16  2  0  0  0  0
 21 24  1  6  0  0  0
 21 23  1  0  0  0  0
 21 22  1  0  0  0  0
 22 23  1  6  0  0  0
 24 26  1  0  0  0  0
 25 24  1  0  0  0  0
 27 24  2  0  0  0  0
 28 29  2  0  0  0  0
 28 30  1  0  0  0  0
 33 32  1  0  0  0  0
 33 31  1  0  0  0  0
 33 30  1  0  0  0  0
 34 33  2  0  0  0  0
 36 35  1  0  0  0  0
 37 36  1  0  0  0  0
 38 41  1  0  0  0  0
 39 40  1  0  0  0  0
 40 42  1  0  0  0  0
 41 37  1  0  0  0  0
 42 41  1  0  0  0  0
 43 39  1  0  0  0  0
 43 44  1  0  0  0  0
 44 38  2  0  0  0  0
 47 48  1  0  0  0  0
 48 46  1  6  0  0  0
 48 45  1  0  0  0  0
M  END
>  <MODEL>
1

>  <REMARK>
 VINA RESULT:      -3.4      0.000      0.000
  Name = 
  11 active torsions:
  status: ('A' for Active; 'I' for Inactive)
    1  A    between atoms: C_1  and  C_21
    2  A    between atoms: C_7  and  C_15
    3  A    between atoms: C_7  and  C_30
    4  A    between atoms: P_12  and  C_14
    5  A    between atoms: C_21  and  P_22
    6  A    between atoms: N_25  and  C_40
    7  A    between atoms: C_30  and  C_40
    8  A    between atoms: C_32  and  C_37
    9  A    between atoms: C_33  and  C_45
   10  A    between atoms: O_34  and  C_36
   11  A    between atoms: O_34  and  C_39
                            x       y       z     vdW  Elec       q    Type
                         _______ _______ _______ _____ _____    ______ ____

>  <TORSDO>
F 11

$$$$
=
 OpenBabel11042423053D

 48 52  0  0  1  0  0  0  0  0999 V2000
  160.6390  210.3810  152.9990 C   0  0  1  0  0  0  0  0  0  0  0  0
  159.7830  209.2860  152.2980 C   0  0  0  0  0  2  0  0  0  0  0  0
  160.5270  207.9620  151.9510 C   0  0  1  0  0  3  0  0  0  0  0  0
  160.9830  211.1170  155.2590 N   0  0  0  0  0  0  0  0  0  0  0  0
  161.8630  210.7670  152.1390 C   0  0  0  0  0  2  0  0  0  0  0  0
  162.1650  205.2760  152.3560 C   0  0  2  0  0  3  0  0  0  0  0  0
  161.6820  207.9990  150.9060 C   0  0  1  0  0  3  0  0  0  0  0  0
  161.7080  206.2210  153.4270 C   0  0  0  0  0  3  0  0  0  0  0  0
  163.4190  210.9820  156.0080 C   0  0  0  0  0  1  0  0  0  0  0  0
  159.8070  211.6390  153.2670 C   0  0  0  0  0  2  0  0  0  0  0  0
  162.8860  205.9080  151.3130 O   0  0  0  0  0  0  0  0  0  0  0  0
  161.9710  206.5620  150.4740 C   0  0  0  0  0  2  0  0  0  0  0  0
  161.0920  209.9540  154.3890 C   0  0  0  0  0  2  0  0  0  0  0  0
  161.6190  211.0900  150.6270 C   0  0  1  0  0  3  0  0  0  0  0  0
  160.3200  212.2190  154.5930 C   0  0  1  0  0  3  0  0  0  0  0  0
  161.7170  212.0750  157.2600 O   0  0  0  0  0  0  0  0  0  0  0  0
  161.5600  208.8710  149.6010 C   0  0  2  0  0  3  0  0  0  0  0  0
  160.8490  210.1270  149.8160 N   0  0  0  0  0  2  0  0  0  0  0  0
  160.9950  207.3410  153.2420 C   0  0  0  0  0  3  0  0  0  0  0  0
  161.9930  211.3850  156.2520 C   0  0  0  0  0  0  0  0  0  0  0  0
  161.7130  213.1980  148.8680 C   0  0  2  0  0  3  0  0  0  0  0  0
  161.4840  212.6010  150.2480 C   0  0  1  0  0  3  0  0  0  0  0  0
  160.4440  212.7630  149.2780 O   0  0  0  0  0  0  0  0  0  0  0  0
  162.3100  212.1610  147.4750 P   0  0  0  0  0  0  0  0  0  0  0  0
  163.4960  211.2980  147.8270 O   0  0  0  0  0  1  0  0  0  0  0  0
  162.7550  213.2320  146.2550 O   0  0  0  0  0  0  0  0  0  0  0  0
  161.0880  211.0950  146.9250 O   0  0  0  0  0  1  0  0  0  0  0  0
  158.5370  213.8730  154.9980 C   0  0  0  0  0  3  0  0  0  0  0  0
  159.2200  212.8110  155.4370 C   0  0  0  0  0  3  0  0  0  0  0  0
  157.4260  214.4530  155.8020 C   0  0  0  0  0  2  0  0  0  0  0  0
  155.9040  212.2460  156.5410 O   0  0  0  0  0  1  0  0  0  0  0  0
  155.7750  212.8900  153.9990 O   0  0  0  0  0  0  0  0  0  0  0  0
  155.8870  213.4420  155.6040 P   0  0  0  0  0  0  0  0  0  0  0  0
  154.5340  214.4110  155.9600 O   0  0  0  0  0  1  0  0  0  0  0  0
  161.0820  204.2720  151.9510 C   0  0  0  0  0  2  0  0  0  0  0  0
  161.5910  203.4210  150.8100 C   0  0  0  0  0  2  0  0  0  0  0  0
  160.9430  203.8350  149.5070 C   0  0  0  0  0  2  0  0  0  0  0  0
  161.0280  201.4260  148.9510 C   0  0  0  0  0  3  0  0  0  0  0  0
  160.5330  201.2670  145.9780 C   0  0  0  0  0  2  0  0  0  0  0  0
  160.8660  202.7660  146.0230 C   0  0  0  0  0  2  0  0  0  0  0  0
  161.1480  202.7940  148.5070 N   0  0  0  0  0  0  0  0  0  0  0  0
  161.7330  203.2020  147.2220 C   0  0  0  0  0  2  0  0  0  0  0  0
  161.5540  200.4060  146.7030 C   0  0  0  0  0  2  0  0  0  0  0  0
  161.1930  200.3460  148.1630 C   0  0  0  0  0  3  0  0  0  0  0  0
  160.9670  208.1790  148.5080 O   0  0  0  0  0  0  0  0  0  0  0  0
  161.7910  206.4460  146.9680 C   0  0  0  0  0  1  0  0  0  0  0  0
  163.2410  208.0140  148.0770 O   0  0  0  0  0  1  0  0  0  0  0  0
  161.9590  207.8360  147.5570 C   0  0  2  0  0  3  0  0  0  0  0  0
  1  5  1  6  0  0  0
  1 10  1  0  0  0  0
  1 13  1  0  0  0  0
  2  1  1  0  0  0  0
  3  2  1  1  0  0  0
  3 19  1  0  0  0  0
  4 20  1  0  0  0  0
  6 35  1  6  0  0  0
  6  8  1  0  0  0  0
  7 12  1  6  0  0  0
  7  3  1  0  0  0  0
  9 20  1  0  0  0  0
 10 15  1  0  0  0  0
 11  6  1  0  0  0  0
 12 11  1  0  0  0  0
 13  4  1  0  0  0  0
 14  5  1  1  0  0  0
 15  4  1  0  0  0  0
 15 29  1  1  0  0  0
 17 45  1  6  0  0  0
 17 18  1  0  0  0  0
 17  7  1  0  0  0  0
 18 14  1  0  0  0  0
 19  8  2  0  0  0  0
 20 16  2  0  0  0  0
 21 24  1  6  0  0  0
 21 23  1  0  0  0  0
 21 22  1  0  0  0  0
 22 23  1  6  0  0  0
 22 14  1  0  0  0  0
 24 25  1  0  0  0  0
 26 24  2  0  0  0  0
 27 24  1  0  0  0  0
 28 29  2  0  0  0  0
 28 30  1  0  0  0  0
 32 33  2  0  0  0  0
 33 30  1  0  0  0  0
 33 34  1  0  0  0  0
 33 31  1  0  0  0  0
 36 35  1  0  0  0  0
 37 36  1  0  0  0  0
 39 40  1  0  0  0  0
 39 43  1  0  0  0  0
 40 42  1  0  0  0  0
 41 38  1  0  0  0  0
 41 37  1  0  0  0  0
 42 41  1  0  0  0  0
 43 44  1  0  0  0  0
 44 38  2  0  0  0  0
 48 46  1  1  0  0  0
 48 47  1  0  0  0  0
 48 45  1  0  0  0  0
M  END
>  <MODEL>
2

>  <REMARK>
 VINA RESULT:      -2.3      3.823      7.701
  Name = 
  11 active torsions:
  status: ('A' for Active; 'I' for Inactive)
    1  A    between atoms: C_1  and  C_21
    2  A    between atoms: C_7  and  C_15
    3  A    between atoms: C_7  and  C_30
    4  A    between atoms: P_12  and  C_14
    5  A    between atoms: C_21  and  P_22
    6  A    between atoms: N_25  and  C_40
    7  A    between atoms: C_30  and  C_40
    8  A    between atoms: C_32  and  C_37
    9  A    between atoms: C_33  and  C_45
   10  A    between atoms: O_34  and  C_36
   11  A    between atoms: O_34  and  C_39
                            x       y       z     vdW  Elec       q    Type
                         _______ _______ _______ _____ _____    ______ ____

>  <TORSDO>
F 11

$$$$
