=
 OpenBabel11042421393D

 45 52  0  0  1  0  0  0  0  0999 V2000
  160.9470  206.7850  148.3630 C   0  0  2  0  0  3  0  0  0  0  0  0
  161.4790  208.7460  153.1680 C   0  0  1  0  0  3  0  0  0  0  0  0
  161.2790  207.9940  149.2950 C   0  0  1  0  0  3  0  0  0  0  0  0
  161.0940  204.2920  150.0420 C   0  0  1  0  0  3  0  0  0  0  0  0
  161.6190  206.8930  154.8450 C   0  0  0  0  0  2  0  0  0  0  0  0
  161.2980  207.9180  150.6860 C   0  0  0  0  0  0  0  0  0  0  0  0
  160.2540  207.1630  154.6670 O   0  0  0  0  0  0  0  0  0  0  0  0
  161.5550  204.4630  147.5310 C   0  0  0  0  0  2  0  0  0  0  0  0
  161.0800  210.3840  151.4020 C   0  0  2  0  0  3  0  0  0  0  0  0
  161.1060  207.3090  153.5240 C   0  0  1  0  0  0  0  0  0  0  0  0
  161.2540  206.4990  151.1730 C   0  0  2  0  0  3  0  0  0  0  0  0
  161.4080  203.0850  147.5280 C   0  0  0  0  0  2  0  0  0  0  0  0
  160.9580  204.6210  152.9350 C   0  0  0  0  0  3  0  0  0  0  0  0
  160.8860  202.0230  148.5710 C   0  0  0  0  0  2  0  0  0  0  0  0
  161.5440  205.3930  148.8460 C   0  0  2  0  0  0  0  0  0  0  0  0
  162.0860  208.9560  148.5150 C   0  0  0  0  0  2  0  0  0  0  0  0
  161.1350  201.9450  150.0960 C   0  0  0  0  0  2  0  0  0  0  0  0
  161.3330  209.0880  151.7520 C   0  0  0  0  0  0  0  0  0  0  0  0
  160.5950  205.5650  150.0280 C   0  0  1  0  0  3  0  0  0  0  0  0
  160.2830  211.2970  152.1950 O   0  0  0  0  0  1  0  0  0  0  0  0
  161.3510  210.8560  150.1020 C   0  0  0  0  0  2  0  0  0  0  0  0
  160.9030  203.1860  150.7500 C   0  0  0  0  0  0  0  0  0  0  0  0
  161.6670  210.3380  148.9020 C   0  0  2  0  0  3  0  0  0  0  0  0
  161.1650  206.1580  152.5020 C   0  0  0  0  0  0  0  0  0  0  0  0
  160.7580  207.0700  146.9990 F   0  0  0  0  0  0  0  0  0  0  0  0
  160.8180  203.3990  152.2190 C   0  0  0  0  0  3  0  0  0  0  0  0
  163.9420  213.1000  144.7910 O   0  0  0  0  0  0  0  0  0  0  0  0
  162.5780  213.2140  146.7690 N   0  0  0  0  0  2  0  0  0  0  0  0
  160.2820  212.9950  147.5610 O   0  0  0  0  0  0  0  0  0  0  0  0
  162.8270  213.4460  145.2950 C   0  0  0  0  0  0  0  0  0  0  0  0
  161.3530  212.4900  147.3890 C   0  0  0  0  0  0  0  0  0  0  0  0
  161.4290  211.0850  147.7110 N   0  0  0  0  0  2  0  0  0  0  0  0
  162.0250  214.4520  144.5080 C   0  0  0  0  0  2  0  0  0  0  0  0
  161.3800  213.8480  143.2630 C   0  0  0  0  0  2  0  0  0  0  0  0
  160.6420  212.6120  143.7450 C   0  0  0  0  0  1  0  0  0  0  0  0
  160.9660  209.7220  154.0700 O   0  0  0  0  0  0  0  0  0  0  0  0
  162.1500  210.2180  154.6220 C   0  0  0  0  0  2  0  0  0  0  0  0
  161.8420  210.8600  155.9510 C   0  0  0  0  0  2  0  0  0  0  0  0
  160.0840  212.6980  155.3140 N   0  0  0  0  0  2  0  0  0  0  0  0
  160.4570  211.4620  156.0220 C   0  0  0  0  0  0  0  0  0  0  0  0
  159.6750  210.9770  156.8530 O   0  0  0  0  0  0  0  0  0  0  0  0
  157.7510  212.8800  154.6710 O   0  0  0  0  0  0  0  0  0  0  0  0
  158.7710  213.3900  155.4260 C   0  0  0  0  0  0  0  0  0  0  0  0
  158.3900  213.9760  154.2330 O   0  0  0  0  0  0  0  0  0  0  0  0
  158.3480  214.2390  156.6220 C   0  0  0  0  0  1  0  0  0  0  0  0
  1 25  1  6  0  0  0
  1 15  1  0  0  0  0
  1  3  1  0  0  0  0
  2 10  1  0  0  0  0
  2 36  1  1  0  0  0
  3 16  1  6  0  0  0
  3  6  1  0  0  0  0
  4 22  1  6  0  0  0
  6 18  2  0  0  0  0
  7  5  1  0  0  0  0
  9 18  1  0  0  0  0
  9 20  1  6  0  0  0
 10  7  1  0  0  0  0
 10  5  1  1  0  0  0
 11  6  1  1  0  0  0
 11 24  1  0  0  0  0
 12  8  1  0  0  0  0
 12 14  1  0  0  0  0
 14 17  1  0  0  0  0
 15  8  1  6  0  0  0
 15 19  1  0  0  0  0
 15  4  1  0  0  0  0
 16 23  1  0  0  0  0
 17 22  1  0  0  0  0
 18  2  1  0  0  0  0
 19  4  1  0  0  0  0
 19 11  1  0  0  0  0
 21  9  1  0  0  0  0
 22 26  2  0  0  0  0
 23 21  1  0  0  0  0
 24 13  2  0  0  0  0
 24 10  1  0  0  0  0
 26 13  1  0  0  0  0
 27 30  2  0  0  0  0
 28 31  1  0  0  0  0
 30 28  1  0  0  0  0
 31 29  2  0  0  0  0
 31 32  1  0  0  0  0
 32 23  1  0  0  0  0
 33 30  1  0  0  0  0
 34 35  1  0  0  0  0
 34 33  1  0  0  0  0
 36 37  1  0  0  0  0
 37 38  1  0  0  0  0
 38 40  1  0  0  0  0
 39 43  1  0  0  0  0
 39 40  1  0  0  0  0
 40 41  2  0  0  0  0
 42 43  1  0  0  0  0
 43 45  1  0  0  0  0
 44 42  1  0  0  0  0
 44 43  1  0  0  0  0
M  END
>  <MODEL>
1

>  <REMARK>
 VINA RESULT:      -9.7      0.000      0.000
  Name = 
  8 active torsions:
  status: ('A' for Active; 'I' for Inactive)
    1  A    between atoms: C_2  and  O_5
    2  A    between atoms: O_5  and  C_23
    3  A    between atoms: C_10  and  N_11
    4  A    between atoms: C_12  and  C_27
    5  A    between atoms: C_12  and  C_40
    6  A    between atoms: C_15  and  C_36
    7  A    between atoms: C_23  and  C_36
    8  A    between atoms: C_37  and  N_42
                            x       y       z     vdW  Elec       q    Type
                         _______ _______ _______ _____ _____    ______ ____

>  <TORSDO>
F 8

$$$$
=
 OpenBabel11042421393D

 45 52  0  0  1  0  0  0  0  0999 V2000
  161.1440  207.7640  149.0690 C   0  0  2  0  0  3  0  0  0  0  0  0
  161.3640  208.8520  154.1670 C   0  0  1  0  0  3  0  0  0  0  0  0
  161.4220  208.7860  150.2170 C   0  0  1  0  0  3  0  0  0  0  0  0
  161.1530  205.0160  150.2940 C   0  0  1  0  0  3  0  0  0  0  0  0
  161.3720  206.7330  155.5010 C   0  0  0  0  0  2  0  0  0  0  0  0
  161.3460  208.4700  151.5720 C   0  0  0  0  0  0  0  0  0  0  0  0
  160.0250  207.0590  155.2830 O   0  0  0  0  0  0  0  0  0  0  0  0
  161.7860  205.6090  147.8870 C   0  0  0  0  0  2  0  0  0  0  0  0
  161.1020  210.7780  152.6900 C   0  0  2  0  0  3  0  0  0  0  0  0
  160.9550  207.3830  154.2420 C   0  0  1  0  0  0  0  0  0  0  0  0
  161.2550  206.9890  151.8010 C   0  0  2  0  0  3  0  0  0  0  0  0
  161.6270  204.2560  147.6340 C   0  0  0  0  0  2  0  0  0  0  0  0
  160.8230  204.8410  153.1850 C   0  0  0  0  0  3  0  0  0  0  0  0
  161.0250  203.0400  148.4390 C   0  0  0  0  0  2  0  0  0  0  0  0
  161.6940  206.2970  149.3400 C   0  0  2  0  0  0  0  0  0  0  0  0
  162.2900  209.8520  149.6720 C   0  0  0  0  0  2  0  0  0  0  0  0
  161.1680  202.6950  149.9410 C   0  0  0  0  0  2  0  0  0  0  0  0
  161.3180  209.4370  152.8250 C   0  0  0  0  0  0  0  0  0  0  0  0
  160.6680  206.2820  150.4690 C   0  0  1  0  0  3  0  0  0  0  0  0
  160.2610  211.5570  153.5770 O   0  0  0  0  0  1  0  0  0  0  0  0
  161.4650  211.4630  151.5130 C   0  0  0  0  0  2  0  0  0  0  0  0
  160.9040  203.8080  150.7850 C   0  0  0  0  0  0  0  0  0  0  0  0
  161.8580  211.1540  150.2650 C   0  0  0  0  0  0  0  0  0  0  0  0
  161.0720  206.4250  153.0410 C   0  0  0  0  0  0  0  0  0  0  0  0
  161.0520  208.2840  147.7660 F   0  0  0  0  0  0  0  0  0  0  0  0
  160.7200  203.7650  152.2590 C   0  0  0  0  0  3  0  0  0  0  0  0
  158.8180  212.7200  146.0220 O   0  0  0  0  0  0  0  0  0  0  0  0
  160.9210  211.8110  146.7520 N   0  0  0  0  0  2  0  0  0  0  0  0
  163.1450  212.4420  147.5330 O   0  0  0  0  0  0  0  0  0  0  0  0
  160.0840  212.8350  146.0170 C   0  0  0  0  0  0  0  0  0  0  0  0
  162.0250  212.1120  147.8010 C   0  0  0  0  0  0  0  0  0  0  0  0
  161.7090  212.1010  149.2090 N   0  0  0  0  0  0  0  0  0  0  0  0
  160.6700  213.7000  144.9300 C   0  0  0  0  0  2  0  0  0  0  0  0
  161.2020  212.8870  143.7520 C   0  0  0  0  0  2  0  0  0  0  0  0
  160.5070  213.4470  142.5240 C   0  0  0  0  0  1  0  0  0  0  0  0
  160.8000  209.6670  155.1890 O   0  0  0  0  0  0  0  0  0  0  0  0
  161.7950  209.5890  156.1660 C   0  0  0  0  0  2  0  0  0  0  0  0
  162.2830  210.9800  156.4830 C   0  0  0  0  0  2  0  0  0  0  0  0
  164.6490  212.0190  156.9300 N   0  0  0  0  0  2  0  0  0  0  0  0
  163.7330  211.2070  156.1130 C   0  0  0  0  0  0  0  0  0  0  0  0
  164.0900  210.8330  154.9860 O   0  0  0  0  0  0  0  0  0  0  0  0
  166.2380  213.5500  155.9200 O   0  0  0  0  0  0  0  0  0  0  0  0
  166.0520  212.3590  156.5650 C   0  0  0  0  0  0  0  0  0  0  0  0
  166.2310  212.4190  155.1950 O   0  0  0  0  0  0  0  0  0  0  0  0
  167.2830  211.7830  157.2600 C   0  0  0  0  0  1  0  0  0  0  0  0
  1 25  1  6  0  0  0
  1 15  1  0  0  0  0
  1  3  1  0  0  0  0
  2 10  1  0  0  0  0
  2 36  1  1  0  0  0
  3 16  1  6  0  0  0
  3  6  1  0  0  0  0
  4 19  1  0  0  0  0
  4 22  1  6  0  0  0
  6 18  2  0  0  0  0
  7  5  1  0  0  0  0
  9 18  1  0  0  0  0
  9 20  1  6  0  0  0
 10  7  1  0  0  0  0
 10  5  1  1  0  0  0
 11  6  1  1  0  0  0
 11 24  1  0  0  0  0
 12  8  1  0  0  0  0
 12 14  1  0  0  0  0
 14 17  1  0  0  0  0
 15  8  1  6  0  0  0
 15  4  1  0  0  0  0
 15 19  1  0  0  0  0
 16 23  1  0  0  0  0
 17 22  1  0  0  0  0
 18  2  1  0  0  0  0
 19 11  1  0  0  0  0
 21  9  1  0  0  0  0
 22 26  2  0  0  0  0
 23 21  1  0  0  0  0
 24 13  2  0  0  0  0
 24 10  1  0  0  0  0
 26 13  1  0  0  0  0
 28 31  1  0  0  0  0
 29 31  2  0  0  0  0
 30 27  2  0  0  0  0
 30 28  1  0  0  0  0
 31 32  1  0  0  0  0
 32 23  2  0  0  0  0
 33 30  1  0  0  0  0
 34 33  1  0  0  0  0
 35 34  1  0  0  0  0
 36 37  1  0  0  0  0
 37 38  1  0  0  0  0
 40 38  1  0  0  0  0
 40 39  1  0  0  0  0
 41 40  2  0  0  0  0
 42 43  1  0  0  0  0
 43 39  1  0  0  0  0
 43 45  1  0  0  0  0
 44 42  1  0  0  0  0
 44 43  1  0  0  0  0
M  END
>  <MODEL>
2

>  <REMARK>
 VINA RESULT:      -7.1      2.235      3.099
  Name = 
  8 active torsions:
  status: ('A' for Active; 'I' for Inactive)
    1  A    between atoms: C_2  and  O_5
    2  A    between atoms: O_5  and  C_23
    3  A    between atoms: C_10  and  N_11
    4  A    between atoms: C_12  and  C_27
    5  A    between atoms: C_12  and  C_40
    6  A    between atoms: C_15  and  C_36
    7  A    between atoms: C_23  and  C_36
    8  A    between atoms: C_37  and  N_42
                            x       y       z     vdW  Elec       q    Type
                         _______ _______ _______ _____ _____    ______ ____

>  <TORSDO>
F 8

$$$$
