=
 OpenBabel11052410403D

 53 58  0  0  1  0  0  0  0  0999 V2000
  161.1230  212.5650  144.7300 C   0  0  1  0  0  3  0  0  0  0  0  0
  158.6560  213.8370  150.2290 C   0  0  0  0  0  2  0  0  0  0  0  0
  162.0960  213.4810  145.4600 C   0  0  0  0  0  0  0  0  0  0  0  0
  161.9680  212.1800  149.1080 C   0  0  2  0  0  3  0  0  0  0  0  0
  160.0530  212.0720  145.5150 O   0  0  0  0  0  0  0  0  0  0  0  0
  162.7470  214.3370  144.8010 O   0  0  0  0  0  0  0  0  0  0  0  0
  159.5510  212.8380  149.5160 C   0  0  0  0  0  2  0  0  0  0  0  0
  161.0100  213.1490  149.8090 C   0  0  0  0  0  2  0  0  0  0  0  0
  157.7930  212.8370  145.7440 C   0  0  0  0  0  2  0  0  0  0  0  0
  163.0380  214.2490  147.4870 O   0  0  0  0  0  0  0  0  0  0  0  0
  156.4650  214.2890  149.0620 C   0  0  0  0  0  2  0  0  0  0  0  0
  157.2000  213.4080  150.0710 C   0  0  2  0  0  3  0  0  0  0  0  0
  159.2650  213.1530  145.9460 C   0  0  0  0  0  2  0  0  0  0  0  0
  157.0920  214.2600  147.6730 C   0  0  0  0  0  2  0  0  0  0  0  0
  161.8370  212.2620  147.6580 N   0  0  0  0  0  2  0  0  0  0  0  0
  162.3500  213.3640  146.9080 C   0  0  0  0  0  0  0  0  0  0  0  0
  157.0570  212.8630  147.0750 C   0  0  0  0  0  2  0  0  0  0  0  0
  160.9180  213.1040  140.9540 C   0  0  0  0  0  0  0  0  0  0  0  0
  159.4830  213.8060  143.2500 C   0  0  0  0  0  3  0  0  0  0  0  0
  159.0260  214.2060  141.9930 C   0  0  0  0  0  3  0  0  0  0  0  0
  162.5020  211.9390  142.3220 F   0  0  0  0  0  0  0  0  0  0  0  0
  159.7390  213.8520  140.8470 C   0  0  0  0  0  3  0  0  0  0  0  0
  160.6670  213.0590  143.3740 C   0  0  0  0  0  0  0  0  0  0  0  0
  161.3800  212.7000  142.2190 C   0  0  0  0  0  0  0  0  0  0  0  0
  161.6280  212.6890  139.7120 C   0  0  0  0  0  2  0  0  0  0  0  0
  161.5790  211.2410  139.5830 N   0  0  0  0  0  2  0  0  0  0  0  0
  160.2540  212.1230  137.4620 O   0  0  0  0  0  0  0  0  0  0  0  0
  161.3180  209.9190  137.3160 O   0  0  0  0  0  0  0  0  0  0  0  0
  160.5790  210.8640  138.2210 S   0  0  0  0  0  0  0  0  0  0  0  0
  159.0710  210.0920  138.7770 C   0  0  0  0  0  2  0  0  0  0  0  0
  155.8010  210.3680  137.0420 C   0  0  0  0  0  2  0  0  0  0  0  0
  157.2750  211.5040  139.2770 C   0  0  0  0  0  2  0  0  0  0  0  0
  157.9240  210.7650  138.1930 N   0  0  0  0  0  0  0  0  0  0  0  0
  155.9790  212.1150  138.8100 C   0  0  0  0  0  3  0  0  0  0  0  0
  155.2820  211.5620  137.8050 C   0  0  0  0  0  3  0  0  0  0  0  0
  156.9960  209.7250  137.7500 C   0  0  0  0  0  2  0  0  0  0  0  0
  161.0340  211.6080  151.6930 O   0  0  0  0  0  1  0  0  0  0  0  0
  162.7510  210.3110  150.6750 C   0  0  0  0  0  2  0  0  0  0  0  0
  161.7960  210.7360  149.5860 C   0  0  1  0  0  0  0  0  0  0  0  0
  161.2600  210.4340  150.9750 C   0  0  2  0  0  3  0  0  0  0  0  0
  161.5860  209.7360  148.6360 O   0  0  0  0  0  1  0  0  0  0  0  0
  156.4740  213.5050  151.4020 C   0  0  0  0  0  2  0  0  0  0  0  0
  158.2010  212.4460  156.0690 C   0  0  0  0  0  0  0  0  0  0  0  0
  158.4550  213.6190  152.7510 O   0  0  0  0  0  0  0  0  0  0  0  0
  158.2790  212.1240  157.2430 O   0  0  0  0  0  0  0  0  0  0  0  0
  156.8420  212.2390  153.9930 C   0  0  0  0  0  2  0  0  0  0  0  0
  157.7350  214.4530  154.8180 O   0  0  0  0  0  0  0  0  0  0  0  0
  158.6980  213.7930  155.6130 C   0  0  0  0  0  2  0  0  0  0  0  0
  157.6720  211.4870  155.0440 C   0  0  1  0  0  3  0  0  0  0  0  0
  157.4300  213.6310  153.7130 C   0  0  1  0  0  0  0  0  0  0  0  0
  157.2760  214.3220  152.4070 C   0  0  2  0  0  3  0  0  0  0  0  0
  158.8100  210.7580  154.3980 C   0  0  0  0  0  3  0  0  0  0  0  0
  159.8670  210.6070  154.9870 O   0  0  0  0  0  0  0  0  0  0  0  0
  1 23  1  6  0  0  0
  1  3  1  0  0  0  0
  1  5  1  0  0  0  0
  3 16  1  0  0  0  0
  4 39  1  0  0  0  0
  4  8  1  1  0  0  0
  5 13  1  0  0  0  0
  6  3  2  0  0  0  0
  7  8  1  0  0  0  0
  7  2  1  0  0  0  0
  9 13  1  0  0  0  0
  9 17  1  0  0  0  0
 11 12  1  0  0  0  0
 12  2  1  0  0  0  0
 12 42  1  1  0  0  0
 14 11  1  0  0  0  0
 15  4  1  0  0  0  0
 16 10  2  0  0  0  0
 16 15  1  0  0  0  0
 17 14  1  0  0  0  0
 18 24  1  0  0  0  0
 19 23  1  0  0  0  0
 20 19  2  0  0  0  0
 22 18  2  0  0  0  0
 22 20  1  0  0  0  0
 24 21  1  0  0  0  0
 24 23  2  0  0  0  0
 25 18  1  0  0  0  0
 26 25  1  0  0  0  0
 27 29  2  0  0  0  0
 28 29  2  0  0  0  0
 29 30  1  0  0  0  0
 29 26  1  0  0  0  0
 31 36  1  0  0  0  0
 31 35  1  0  0  0  0
 33 30  1  0  0  0  0
 33 32  1  0  0  0  0
 34 32  1  0  0  0  0
 35 34  2  0  0  0  0
 36 33  1  0  0  0  0
 38 40  1  0  0  0  0
 39 41  1  6  0  0  0
 39 38  1  0  0  0  0
 39 40  1  0  0  0  0
 40 37  1  1  0  0  0
 43 45  2  0  0  0  0
 44 50  1  0  0  0  0
 46 49  1  0  0  0  0
 47 48  1  0  0  0  0
 48 43  1  0  0  0  0
 49 52  1  6  0  0  0
 49 43  1  0  0  0  0
 50 46  1  1  0  0  0
 50 47  1  0  0  0  0
 51 42  1  6  0  0  0
 51 44  1  0  0  0  0
 51 50  1  0  0  0  0
 52 53  2  0  0  0  0
M  END
>  <MODEL>
1

>  <REMARK>
 VINA RESULT:      -4.7      0.000      0.000
  Name = 
  10 active torsions:
  status: ('A' for Active; 'I' for Inactive)
    1  A    between atoms: C_2  and  C_51
    2  A    between atoms: C_3  and  C_52
    3  A    between atoms: C_11  and  C_28
    4  A    between atoms: C_15  and  C_39
    5  A    between atoms: N_27  and  C_42
    6  A    between atoms: N_31  and  S_40
    7  A    between atoms: N_31  and  C_51
    8  A    between atoms: C_33  and  C_46
    9  A    between atoms: C_35  and  C_46
   10  A    between atoms: S_40  and  C_42
                            x       y       z     vdW  Elec       q    Type
                         _______ _______ _______ _____ _____    ______ ____

>  <TORSDO>
F 10

$$$$
=
 OpenBabel11052410403D

 53 58  0  0  1  0  0  0  0  0999 V2000
  160.6830  212.3440  145.0340 C   0  0  1  0  0  3  0  0  0  0  0  0
  159.4340  213.4240  150.9690 C   0  0  0  0  0  2  0  0  0  0  0  0
  161.9230  212.9780  145.6480 C   0  0  0  0  0  0  0  0  0  0  0  0
  162.1240  211.3230  149.1460 C   0  0  2  0  0  3  0  0  0  0  0  0
  159.6750  211.9710  145.9570 O   0  0  0  0  0  0  0  0  0  0  0  0
  162.6190  213.7680  144.9530 O   0  0  0  0  0  0  0  0  0  0  0  0
  159.9850  212.3640  150.0310 C   0  0  0  0  0  2  0  0  0  0  0  0
  161.5050  212.3670  150.0810 C   0  0  0  0  0  2  0  0  0  0  0  0
  157.6820  213.1080  146.6460 C   0  0  0  0  0  2  0  0  0  0  0  0
  163.3130  213.3280  147.5280 O   0  0  0  0  0  0  0  0  0  0  0  0
  157.2190  214.3980  150.2510 C   0  0  0  0  0  2  0  0  0  0  0  0
  157.9150  213.2900  151.0400 C   0  0  2  0  0  3  0  0  0  0  0  0
  159.2000  213.1230  146.6050 C   0  0  0  0  0  2  0  0  0  0  0  0
  157.5970  214.4110  148.7750 C   0  0  0  0  0  2  0  0  0  0  0  0
  161.7810  211.5890  147.7550 N   0  0  0  0  0  2  0  0  0  0  0  0
  162.3780  212.6550  147.0140 C   0  0  0  0  0  0  0  0  0  0  0  0
  157.1880  213.1190  148.0850 C   0  0  0  0  0  2  0  0  0  0  0  0
  160.1620  213.5040  141.4320 C   0  0  0  0  0  0  0  0  0  0  0  0
  158.9560  213.8350  143.9330 C   0  0  0  0  0  3  0  0  0  0  0  0
  158.4010  214.4430  142.8060 C   0  0  0  0  0  3  0  0  0  0  0  0
  161.8270  212.1070  142.4400 F   0  0  0  0  0  0  0  0  0  0  0  0
  159.0010  214.2750  141.5570 C   0  0  0  0  0  3  0  0  0  0  0  0
  160.1240  213.0610  143.8250 C   0  0  0  0  0  0  0  0  0  0  0  0
  160.7220  212.8890  142.5660 C   0  0  0  0  0  0  0  0  0  0  0  0
  160.7490  213.2900  140.0790 C   0  0  0  0  0  2  0  0  0  0  0  0
  162.1780  213.0490  140.2000 N   0  0  0  0  0  2  0  0  0  0  0  0
  161.9620  212.8360  137.5670 O   0  0  0  0  0  0  0  0  0  0  0  0
  164.1790  212.5280  138.5640 O   0  0  0  0  0  0  0  0  0  0  0  0
  162.7090  212.2750  138.7460 S   0  0  0  0  0  0  0  0  0  0  0  0
  162.4210  210.5190  138.8600 C   0  0  0  0  0  2  0  0  0  0  0  0
  159.9600  208.3550  137.1170 C   0  0  0  0  0  2  0  0  0  0  0  0
  160.1190  210.3480  139.2290 C   0  0  0  0  0  2  0  0  0  0  0  0
  161.1640  210.1800  138.2180 N   0  0  0  0  0  0  0  0  0  0  0  0
  158.7870  209.8700  138.7100 C   0  0  0  0  0  3  0  0  0  0  0  0
  158.7200  208.9190  137.7640 C   0  0  0  0  0  3  0  0  0  0  0  0
  161.2250  208.7580  137.8790 C   0  0  0  0  0  2  0  0  0  0  0  0
  161.7760  210.5870  151.8330 O   0  0  0  0  0  1  0  0  0  0  0  0
  162.8200  209.1270  150.2690 C   0  0  0  0  0  2  0  0  0  0  0  0
  161.7450  209.8910  149.5320 C   0  0  1  0  0  0  0  0  0  0  0  0
  161.5280  209.5070  150.9870 C   0  0  2  0  0  3  0  0  0  0  0  0
  161.0700  209.1010  148.6010 O   0  0  0  0  0  1  0  0  0  0  0  0
  157.4460  213.3690  152.4830 C   0  0  0  0  0  2  0  0  0  0  0  0
  159.8740  210.9400  156.2370 C   0  0  0  0  0  0  0  0  0  0  0  0
  159.6490  212.8680  153.2900 O   0  0  0  0  0  0  0  0  0  0  0  0
  160.1320  210.3240  157.2580 O   0  0  0  0  0  0  0  0  0  0  0  0
  158.0970  211.4510  154.5690 C   0  0  0  0  0  2  0  0  0  0  0  0
  159.5510  213.2420  155.6000 O   0  0  0  0  0  0  0  0  0  0  0  0
  160.5140  212.2780  155.9700 C   0  0  0  0  0  2  0  0  0  0  0  0
  158.9690  210.3520  155.1940 C   0  0  1  0  0  3  0  0  0  0  0  0
  158.8690  212.7750  154.4560 C   0  0  1  0  0  0  0  0  0  0  0  0
  158.5820  213.7880  153.4080 C   0  0  2  0  0  3  0  0  0  0  0  0
  159.7850  209.6620  154.1450 C   0  0  0  0  0  3  0  0  0  0  0  0
  160.7200  208.9440  154.4570 O   0  0  0  0  0  0  0  0  0  0  0  0
  1 23  1  6  0  0  0
  1  3  1  0  0  0  0
  1  5  1  0  0  0  0
  2 12  1  0  0  0  0
  3 16  1  0  0  0  0
  4 39  1  0  0  0  0
  4  8  1  1  0  0  0
  5 13  1  0  0  0  0
  6  3  2  0  0  0  0
  7  8  1  0  0  0  0
  7  2  1  0  0  0  0
  9 17  1  0  0  0  0
 11 12  1  0  0  0  0
 12 42  1  1  0  0  0
 13  9  1  0  0  0  0
 14 11  1  0  0  0  0
 15  4  1  0  0  0  0
 16 10  2  0  0  0  0
 16 15  1  0  0  0  0
 17 14  1  0  0  0  0
 18 22  2  0  0  0  0
 18 24  1  0  0  0  0
 20 19  2  0  0  0  0
 21 24  1  0  0  0  0
 22 20  1  0  0  0  0
 23 19  1  0  0  0  0
 24 23  2  0  0  0  0
 25 26  1  0  0  0  0
 25 18  1  0  0  0  0
 27 29  2  0  0  0  0
 28 29  2  0  0  0  0
 29 30  1  0  0  0  0
 29 26  1  0  0  0  0
 31 35  1  0  0  0  0
 31 36  1  0  0  0  0
 33 30  1  0  0  0  0
 33 32  1  0  0  0  0
 34 32  1  0  0  0  0
 35 34  2  0  0  0  0
 36 33  1  0  0  0  0
 38 40  1  0  0  0  0
 39 41  1  6  0  0  0
 39 38  1  0  0  0  0
 39 40  1  0  0  0  0
 40 37  1  1  0  0  0
 43 45  2  0  0  0  0
 44 51  1  0  0  0  0
 44 50  1  0  0  0  0
 46 49  1  0  0  0  0
 47 48  1  0  0  0  0
 48 43  1  0  0  0  0
 49 52  1  6  0  0  0
 49 43  1  0  0  0  0
 50 46  1  1  0  0  0
 50 47  1  0  0  0  0
 51 42  1  6  0  0  0
 51 50  1  0  0  0  0
 52 53  2  0  0  0  0
M  END
>  <MODEL>
2

>  <REMARK>
 VINA RESULT:      -3.5      1.606      1.973
  Name = 
  10 active torsions:
  status: ('A' for Active; 'I' for Inactive)
    1  A    between atoms: C_2  and  C_51
    2  A    between atoms: C_3  and  C_52
    3  A    between atoms: C_11  and  C_28
    4  A    between atoms: C_15  and  C_39
    5  A    between atoms: N_27  and  C_42
    6  A    between atoms: N_31  and  S_40
    7  A    between atoms: N_31  and  C_51
    8  A    between atoms: C_33  and  C_46
    9  A    between atoms: C_35  and  C_46
   10  A    between atoms: S_40  and  C_42
                            x       y       z     vdW  Elec       q    Type
                         _______ _______ _______ _____ _____    ______ ____

>  <TORSDO>
F 10

$$$$
=
 OpenBabel11052410403D

 53 58  0  0  1  0  0  0  0  0999 V2000
  161.8580  212.3560  149.4930 C   0  0  1  0  0  3  0  0  0  0  0  0
  159.9940  207.1220  152.1530 C   0  0  0  0  0  2  0  0  0  0  0  0
  160.5190  212.6400  150.1590 C   0  0  0  0  0  0  0  0  0  0  0  0
  160.7520  210.6730  153.4890 C   0  0  2  0  0  3  0  0  0  0  0  0
  162.4340  211.1000  149.8050 O   0  0  0  0  0  0  0  0  0  0  0  0
  159.7130  213.4370  149.6050 O   0  0  0  0  0  0  0  0  0  0  0  0
  160.8110  208.3760  152.4120 C   0  0  0  0  0  2  0  0  0  0  0  0
  159.9850  209.3780  153.2040 C   0  0  0  0  0  2  0  0  0  0  0  0
  162.3930  209.0190  148.6170 C   0  0  0  0  0  2  0  0  0  0  0  0
  158.9720  212.1990  151.8910 O   0  0  0  0  0  0  0  0  0  0  0  0
  160.5960  205.9090  150.0230 C   0  0  0  0  0  2  0  0  0  0  0  0
  160.8890  206.0630  151.5150 C   0  0  2  0  0  3  0  0  0  0  0  0
  161.5840  210.0800  149.3420 C   0  0  0  0  0  2  0  0  0  0  0  0
  160.8000  207.1980  149.2370 C   0  0  0  0  0  2  0  0  0  0  0  0
  161.1120  211.3580  152.2540 N   0  0  0  0  0  2  0  0  0  0  0  0
  160.1520  212.0610  151.4660 C   0  0  0  0  0  0  0  0  0  0  0  0
  162.2430  207.6720  149.3080 C   0  0  0  0  0  2  0  0  0  0  0  0
  160.8620  212.7360  145.8250 C   0  0  0  0  0  0  0  0  0  0  0  0
  163.0390  213.3330  147.4760 C   0  0  0  0  0  3  0  0  0  0  0  0
  163.0720  213.6830  146.1250 C   0  0  0  0  0  3  0  0  0  0  0  0
  159.7210  211.7830  147.7050 F   0  0  0  0  0  0  0  0  0  0  0  0
  161.9840  213.3890  145.3020 C   0  0  0  0  0  3  0  0  0  0  0  0
  161.9220  212.6720  148.0150 C   0  0  0  0  0  0  0  0  0  0  0  0
  160.8260  212.3820  147.1860 C   0  0  0  0  0  0  0  0  0  0  0  0
  159.6900  212.4870  144.9400 C   0  0  0  0  0  2  0  0  0  0  0  0
  160.1350  211.8510  143.7100 N   0  0  0  0  0  2  0  0  0  0  0  0
  158.4760  213.6440  142.6800 O   0  0  0  0  0  0  0  0  0  0  0  0
  160.8730  213.9190  142.2500 O   0  0  0  0  0  0  0  0  0  0  0  0
  159.7620  212.9170  142.3980 S   0  0  0  0  0  0  0  0  0  0  0  0
  159.6060  211.9820  140.8880 C   0  0  0  0  0  2  0  0  0  0  0  0
  162.9800  210.8610  139.8230 C   0  0  0  0  0  2  0  0  0  0  0  0
  160.5010  211.9150  138.7290 C   0  0  0  0  0  2  0  0  0  0  0  0
  160.8530  212.0270  140.1450 N   0  0  0  0  0  0  0  0  0  0  0  0
  161.7370  211.7940  137.8760 C   0  0  0  0  0  3  0  0  0  0  0  0
  162.8670  211.2680  138.3750 C   0  0  0  0  0  3  0  0  0  0  0  0
  161.6110  210.8300  140.5080 C   0  0  0  0  0  2  0  0  0  0  0  0
  160.5770  209.2730  155.9170 O   0  0  0  0  0  1  0  0  0  0  0  0
  161.9820  211.1810  155.6790 C   0  0  0  0  0  2  0  0  0  0  0  0
  161.9890  210.4430  154.3620 C   0  0  1  0  0  0  0  0  0  0  0  0
  161.8920  209.6570  155.6590 C   0  0  2  0  0  3  0  0  0  0  0  0
  163.2460  210.4410  153.7560 O   0  0  0  0  0  1  0  0  0  0  0  0
  160.6710  204.7160  152.1830 C   0  0  0  0  0  2  0  0  0  0  0  0
  161.2390  201.0610  148.6890 C   0  0  0  0  0  0  0  0  0  0  0  0
  162.2100  203.9120  150.5270 O   0  0  0  0  0  0  0  0  0  0  0  0
  161.0810  200.0690  147.9980 O   0  0  0  0  0  0  0  0  0  0  0  0
  160.0920  202.7200  150.1500 C   0  0  0  0  0  2  0  0  0  0  0  0
  162.2510  201.5880  150.8120 O   0  0  0  0  0  0  0  0  0  0  0  0
  162.5150  201.2550  149.4660 C   0  0  0  0  0  2  0  0  0  0  0  0
  160.1970  202.1400  148.7320 C   0  0  1  0  0  3  0  0  0  0  0  0
  161.4660  202.7600  150.8370 C   0  0  1  0  0  0  0  0  0  0  0  0
  161.8170  203.7600  151.8770 C   0  0  2  0  0  3  0  0  0  0  0  0
  160.5390  203.2130  147.7440 C   0  0  0  0  0  3  0  0  0  0  0  0
  161.6920  203.3880  147.3890 O   0  0  0  0  0  0  0  0  0  0  0  0
  1 23  1  6  0  0  0
  1  5  1  0  0  0  0
  1  3  1  0  0  0  0
  2  7  1  0  0  0  0
  3 16  1  0  0  0  0
  4  8  1  6  0  0  0
  4 39  1  0  0  0  0
  6  3  2  0  0  0  0
  7  8  1  0  0  0  0
  9 17  1  0  0  0  0
  9 13  1  0  0  0  0
 11 12  1  0  0  0  0
 12  2  1  0  0  0  0
 12 42  1  1  0  0  0
 13  5  1  0  0  0  0
 14 17  1  0  0  0  0
 14 11  1  0  0  0  0
 15  4  1  0  0  0  0
 16 10  2  0  0  0  0
 16 15  1  0  0  0  0
 18 24  1  0  0  0  0
 19 23  1  0  0  0  0
 20 19  2  0  0  0  0
 22 18  2  0  0  0  0
 22 20  1  0  0  0  0
 24 21  1  0  0  0  0
 24 23  2  0  0  0  0
 25 18  1  0  0  0  0
 26 25  1  0  0  0  0
 28 29  2  0  0  0  0
 29 27  2  0  0  0  0
 29 26  1  0  0  0  0
 30 29  1  0  0  0  0
 31 36  1  0  0  0  0
 32 33  1  0  0  0  0
 33 36  1  0  0  0  0
 33 30  1  0  0  0  0
 34 35  2  0  0  0  0
 34 32  1  0  0  0  0
 35 31  1  0  0  0  0
 39 41  1  6  0  0  0
 39 40  1  0  0  0  0
 39 38  1  0  0  0  0
 40 38  1  0  0  0  0
 40 37  1  6  0  0  0
 43 49  1  0  0  0  0
 43 48  1  0  0  0  0
 44 50  1  0  0  0  0
 44 51  1  0  0  0  0
 45 43  2  0  0  0  0
 47 50  1  0  0  0  0
 48 47  1  0  0  0  0
 49 52  1  6  0  0  0
 49 46  1  0  0  0  0
 50 46  1  6  0  0  0
 50 51  1  0  0  0  0
 51 42  1  6  0  0  0
 53 52  2  0  0  0  0
M  END
>  <MODEL>
3

>  <REMARK>
 VINA RESULT:      -2.7      4.524      7.720
  Name = 
  10 active torsions:
  status: ('A' for Active; 'I' for Inactive)
    1  A    between atoms: C_2  and  C_51
    2  A    between atoms: C_3  and  C_52
    3  A    between atoms: C_11  and  C_28
    4  A    between atoms: C_15  and  C_39
    5  A    between atoms: N_27  and  C_42
    6  A    between atoms: N_31  and  S_40
    7  A    between atoms: N_31  and  C_51
    8  A    between atoms: C_33  and  C_46
    9  A    between atoms: C_35  and  C_46
   10  A    between atoms: S_40  and  C_42
                            x       y       z     vdW  Elec       q    Type
                         _______ _______ _______ _____ _____    ______ ____

>  <TORSDO>
F 10

$$$$
=
 OpenBabel11052410403D

 53 58  0  0  1  0  0  0  0  0999 V2000
  160.7190  207.8630  152.6600 C   0  0  1  0  0  3  0  0  0  0  0  0
  161.4490  213.1230  149.5380 C   0  0  0  0  0  2  0  0  0  0  0  0
  161.3570  208.8670  153.6100 C   0  0  0  0  0  0  0  0  0  0  0  0
  159.5280  212.1760  152.7600 C   0  0  2  0  0  3  0  0  0  0  0  0
  160.2680  208.3990  151.4290 O   0  0  0  0  0  0  0  0  0  0  0  0
  162.2030  208.4640  154.4540 O   0  0  0  0  0  0  0  0  0  0  0  0
  160.4570  212.3700  150.4060 C   0  0  0  0  0  2  0  0  0  0  0  0
  160.5020  212.9040  151.8290 C   0  0  0  0  0  2  0  0  0  0  0  0
  161.3070  208.4580  149.2700 C   0  0  0  0  0  2  0  0  0  0  0  0
  161.6500  211.1050  154.3110 O   0  0  0  0  0  0  0  0  0  0  0  0
  162.3930  211.7730  147.6260 C   0  0  0  0  0  2  0  0  0  0  0  0
  161.2670  212.6990  148.0830 C   0  0  2  0  0  3  0  0  0  0  0  0
  161.3700  208.9060  150.7200 C   0  0  0  0  0  2  0  0  0  0  0  0
  162.4940  210.4980  148.4530 C   0  0  0  0  0  2  0  0  0  0  0  0
  159.8570  210.7600  152.8670 N   0  0  0  0  0  2  0  0  0  0  0  0
  160.9770  210.2930  153.6190 C   0  0  0  0  0  0  0  0  0  0  0  0
  161.2280  209.6620  148.3440 C   0  0  0  0  0  2  0  0  0  0  0  0
  161.4960  204.1710  152.0670 C   0  0  0  0  0  0  0  0  0  0  0  0
  162.8860  206.5730  152.4180 C   0  0  0  0  0  3  0  0  0  0  0  0
  163.5890  205.3880  152.1890 C   0  0  0  0  0  3  0  0  0  0  0  0
  159.4270  205.3530  152.3130 F   0  0  0  0  0  0  0  0  0  0  0  0
  162.8950  204.1900  152.0100 C   0  0  0  0  0  3  0  0  0  0  0  0
  161.4820  206.5690  152.4830 C   0  0  0  0  0  0  0  0  0  0  0  0
  160.7870  205.3630  152.2970 C   0  0  0  0  0  0  0  0  0  0  0  0
  160.7780  202.8900  151.8130 C   0  0  0  0  0  2  0  0  0  0  0  0
  161.5570  202.0680  150.9000 N   0  0  0  0  0  2  0  0  0  0  0  0
  161.5140  201.2260  148.3860 O   0  0  0  0  0  0  0  0  0  0  0  0
  159.3670  201.6490  149.4910 O   0  0  0  0  0  0  0  0  0  0  0  0
  160.7860  202.1240  149.3500 S   0  0  0  0  0  0  0  0  0  0  0  0
  160.7920  203.7970  148.7350 C   0  0  0  0  0  2  0  0  0  0  0  0
  161.6920  203.7400  145.1350 C   0  0  0  0  0  2  0  0  0  0  0  0
  162.1840  205.2640  147.5620 C   0  0  0  0  0  2  0  0  0  0  0  0
  161.6620  203.8970  147.5770 N   0  0  0  0  0  0  0  0  0  0  0  0
  162.9790  205.5220  146.3080 C   0  0  0  0  0  3  0  0  0  0  0  0
  162.7190  204.8440  145.1780 C   0  0  0  0  0  3  0  0  0  0  0  0
  160.8200  203.7330  146.3920 C   0  0  0  0  0  2  0  0  0  0  0  0
  157.7780  213.7630  154.2760 O   0  0  0  0  0  1  0  0  0  0  0  0
  157.0570  211.7290  153.2700 C   0  0  0  0  0  2  0  0  0  0  0  0
  158.0670  212.3630  152.3430 C   0  0  1  0  0  0  0  0  0  0  0  0
  157.1330  213.2490  153.1520 C   0  0  2  0  0  3  0  0  0  0  0  0
  157.7280  212.2120  150.9980 O   0  0  0  0  0  1  0  0  0  0  0  0
  161.2550  213.9170  147.1760 C   0  0  0  0  0  2  0  0  0  0  0  0
  160.8920  212.0970  142.4380 C   0  0  0  0  0  0  0  0  0  0  0  0
  161.8060  214.4520  144.9020 O   0  0  0  0  0  0  0  0  0  0  0  0
  160.6870  211.3810  141.4720 O   0  0  0  0  0  0  0  0  0  0  0  0
  160.2900  212.5160  144.8180 C   0  0  0  0  0  2  0  0  0  0  0  0
  162.6830  212.4730  144.0080 O   0  0  0  0  0  0  0  0  0  0  0  0
  162.2590  212.6850  142.6780 C   0  0  0  0  0  2  0  0  0  0  0  0
  159.7760  212.4640  143.3720 C   0  0  1  0  0  3  0  0  0  0  0  0
  161.7310  213.0480  144.8760 C   0  0  1  0  0  0  0  0  0  0  0  0
  162.2750  213.7750  146.0520 C   0  0  2  0  0  3  0  0  0  0  0  0
  159.1900  213.7820  142.9690 C   0  0  0  0  0  3  0  0  0  0  0  0
  158.3790  213.8520  142.0610 O   0  0  0  0  0  0  0  0  0  0  0  0
  1 23  1  6  0  0  0
  1  3  1  0  0  0  0
  2  7  1  0  0  0  0
  3 16  1  0  0  0  0
  3  6  2  0  0  0  0
  4  8  1  6  0  0  0
  4 15  1  0  0  0  0
  5  1  1  0  0  0  0
  7  8  1  0  0  0  0
  9 13  1  0  0  0  0
 11 12  1  0  0  0  0
 11 14  1  0  0  0  0
 12 42  1  6  0  0  0
 12  2  1  0  0  0  0
 13  5  1  0  0  0  0
 15 16  1  0  0  0  0
 16 10  2  0  0  0  0
 17 14  1  0  0  0  0
 17  9  1  0  0  0  0
 18 24  1  0  0  0  0
 19 23  1  0  0  0  0
 20 19  2  0  0  0  0
 22 18  2  0  0  0  0
 22 20  1  0  0  0  0
 24 21  1  0  0  0  0
 24 23  2  0  0  0  0
 25 18  1  0  0  0  0
 26 25  1  0  0  0  0
 27 29  2  0  0  0  0
 29 28  2  0  0  0  0
 29 26  1  0  0  0  0
 30 29  1  0  0  0  0
 31 35  1  0  0  0  0
 31 36  1  0  0  0  0
 32 33  1  0  0  0  0
 33 30  1  0  0  0  0
 34 32  1  0  0  0  0
 35 34  2  0  0  0  0
 36 33  1  0  0  0  0
 39 41  1  6  0  0  0
 39  4  1  0  0  0  0
 39 40  1  0  0  0  0
 39 38  1  0  0  0  0
 40 38  1  0  0  0  0
 40 37  1  1  0  0  0
 43 48  1  0  0  0  0
 43 49  1  0  0  0  0
 44 51  1  0  0  0  0
 45 43  2  0  0  0  0
 47 50  1  0  0  0  0
 48 47  1  0  0  0  0
 49 52  1  6  0  0  0
 49 46  1  0  0  0  0
 50 46  1  1  0  0  0
 50 44  1  0  0  0  0
 50 51  1  0  0  0  0
 51 42  1  1  0  0  0
 53 52  2  0  0  0  0
M  END
>  <MODEL>
4

>  <REMARK>
 VINA RESULT:      -2.0      5.110     10.497
  Name = 
  10 active torsions:
  status: ('A' for Active; 'I' for Inactive)
    1  A    between atoms: C_2  and  C_51
    2  A    between atoms: C_3  and  C_52
    3  A    between atoms: C_11  and  C_28
    4  A    between atoms: C_15  and  C_39
    5  A    between atoms: N_27  and  C_42
    6  A    between atoms: N_31  and  S_40
    7  A    between atoms: N_31  and  C_51
    8  A    between atoms: C_33  and  C_46
    9  A    between atoms: C_35  and  C_46
   10  A    between atoms: S_40  and  C_42
                            x       y       z     vdW  Elec       q    Type
                         _______ _______ _______ _____ _____    ______ ____

>  <TORSDO>
F 10

$$$$
