=
 OpenBabel11052410583D

 37 42  0  0  1  0  0  0  0  0999 V2000
  161.1740  209.5520  152.4230 N   0  0  0  0  0  0  0  0  0  0  0  0
  161.2200  209.4660  153.7640 C   0  0  0  0  0  0  0  0  0  0  0  0
  160.9430  208.3360  151.9520 N   0  0  0  0  0  0  0  0  0  0  0  0
  161.0180  208.1470  154.1380 C   0  0  0  0  0  0  0  0  0  0  0  0
  160.8490  207.4430  152.9570 C   0  0  0  0  0  3  0  0  0  0  0  0
  160.8840  208.0070  150.5340 C   0  0  1  0  0  3  0  0  0  0  0  0
  162.0940  208.2680  148.4100 C   0  0  0  0  0  2  0  0  0  0  0  0
  162.2310  208.2430  149.8670 C   0  0  2  0  0  3  0  0  0  0  0  0
  162.5660  207.0410  149.0730 N   0  0  1  0  0  0  0  0  0  0  0  0
  160.5910  206.5410  150.3630 C   0  0  0  0  0  2  0  0  0  0  0  0
  161.4280  206.1320  149.1680 C   0  0  2  0  0  3  0  0  0  0  0  0
  161.9120  204.7700  149.3520 N   0  0  0  0  0  2  0  0  0  0  0  0
  160.6510  202.6600  150.4310 S   0  0  0  0  0  0  0  0  0  0  0  0
  161.1140  203.5950  149.1640 C   0  0  0  0  0  0  0  0  0  0  0  0
  160.7810  203.1630  147.7800 C   0  0  0  0  0  2  0  0  0  0  0  0
  161.7630  203.6890  146.8450 N   0  0  0  0  0  2  0  0  0  0  0  0
  161.1810  203.6950  145.6180 O   0  0  0  0  0  0  0  0  0  0  0  0
  161.4100  205.3260  143.5630 O   0  0  0  0  0  0  0  0  0  0  0  0
  159.9660  206.1810  145.5820 O   0  0  0  0  0  1  0  0  0  0  0  0
  161.3210  205.2980  145.0750 P   0  0  0  0  0  0  0  0  0  0  0  0
  162.7260  205.9970  145.7280 O   0  0  0  0  0  1  0  0  0  0  0  0
  161.0170  207.6020  155.5030 C   0  0  0  0  0  3  0  0  0  0  0  0
  159.9010  207.1930  156.0920 C   0  0  0  0  0  2  0  0  0  0  0  0
  162.5460  210.7260  155.2720 O   0  0  0  0  0  0  0  0  0  0  0  0
  161.4540  210.6320  154.6480 C   0  0  0  0  0  0  0  0  0  0  0  0
  160.4440  211.7670  154.7130 C   0  0  2  0  0  3  0  0  0  0  0  0
  159.1410  210.5290  156.5100 O   0  0  0  0  0  0  0  0  0  0  0  0
  159.2840  211.7370  155.7720 C   0  0  2  0  0  0  0  0  0  0  0  0
  159.1170  211.1990  154.3470 C   0  0  1  0  0  3  0  0  0  0  0  0
  160.0460  211.4330  157.0250 C   0  0  0  0  0  2  0  0  0  0  0  0
  158.0200  213.3330  151.3940 C   0  0  0  0  0  0  0  0  0  0  0  0
  156.5590  213.8040  153.2720 C   0  0  0  0  0  3  0  0  0  0  0  0
  156.9340  214.0270  151.9410 C   0  0  0  0  0  3  0  0  0  0  0  0
  158.3400  212.1640  153.5030 C   0  0  0  0  0  0  0  0  0  0  0  0
  158.7240  212.4090  152.1740 C   0  0  0  0  0  3  0  0  0  0  0  0
  158.3850  213.5530  150.1060 F   0  0  0  0  0  0  0  0  0  0  0  0
  157.2630  212.8800  154.0520 C   0  0  0  0  0  3  0  0  0  0  0  0
  1  2  2  0  0  0  0
  2  4  1  0  0  0  0
  2 25  1  0  0  0  0
  3  1  1  0  0  0  0
  3  5  1  0  0  0  0
  4 22  1  0  0  0  0
  5  4  2  0  0  0  0
  6 10  1  1  0  0  0
  6  3  1  0  0  0  0
  8  7  1  6  0  0  0
  8  6  1  0  0  0  0
  9  7  1  6  0  0  0
  9 11  1  0  0  0  0
  9  8  1  0  0  0  0
 11 12  1  1  0  0  0
 11 10  1  0  0  0  0
 14 12  1  0  0  0  0
 14 13  2  0  0  0  0
 15 14  1  0  0  0  0
 16 15  1  0  0  0  0
 17 16  1  0  0  0  0
 18 20  2  0  0  0  0
 20 19  1  0  0  0  0
 20 17  1  0  0  0  0
 20 21  1  0  0  0  0
 22 23  2  0  0  0  0
 25 24  2  0  0  0  0
 26 25  1  1  0  0  0
 26 28  1  0  0  0  0
 27 30  1  0  0  0  0
 28 27  1  0  0  0  0
 28 30  1  1  0  0  0
 29 34  1  6  0  0  0
 29 26  1  0  0  0  0
 29 28  1  0  0  0  0
 31 33  2  0  0  0  0
 31 35  1  0  0  0  0
 32 37  2  0  0  0  0
 33 32  1  0  0  0  0
 34 37  1  0  0  0  0
 35 34  2  0  0  0  0
 36 31  1  0  0  0  0
M  END
>  <MODEL>
1

>  <REMARK>
 VINA RESULT:      -7.0      0.000      0.000
  Name = 
  11 active torsions:
  status: ('A' for Active; 'I' for Inactive)
    1  A    between atoms: C_2  and  N_32
    2  A    between atoms: C_4  and  C_33
    3  A    between atoms: C_8  and  N_14
    4  A    between atoms: C_8  and  C_27
    5  A    between atoms: C_11  and  C_13
    6  A    between atoms: C_13  and  C_21
    7  A    between atoms: N_14  and  C_35
    8  A    between atoms: O_19  and  P_25
    9  A    between atoms: O_19  and  N_36
   10  A    between atoms: C_22  and  C_30
   11  A    between atoms: C_27  and  N_36
                            x       y       z     vdW  Elec       q    Type
                         _______ _______ _______ _____ _____    ______ ____

>  <TORSDO>
F 11

$$$$
=
 OpenBabel11052410583D

 37 42  0  0  1  0  0  0  0  0999 V2000
  161.6520  209.1620  147.9260 N   0  0  0  0  0  0  0  0  0  0  0  0
  161.5740  207.9270  148.4520 C   0  0  0  0  0  0  0  0  0  0  0  0
  161.9320  210.0000  148.9120 N   0  0  0  0  0  0  0  0  0  0  0  0
  161.8050  208.0040  149.8170 C   0  0  0  0  0  0  0  0  0  0  0  0
  162.0260  209.3440  150.0860 C   0  0  0  0  0  3  0  0  0  0  0  0
  162.0380  211.4440  148.7500 C   0  0  1  0  0  3  0  0  0  0  0  0
  163.6260  213.2460  148.2250 C   0  0  0  0  0  2  0  0  0  0  0  0
  163.3450  211.8190  148.0670 C   0  0  2  0  0  3  0  0  0  0  0  0
  163.0350  212.7580  146.9680 N   0  0  1  0  0  0  0  0  0  0  0  0
  160.9430  211.9370  147.8440 C   0  0  0  0  0  2  0  0  0  0  0  0
  161.6010  213.0300  147.0260 C   0  0  2  0  0  3  0  0  0  0  0  0
  161.0540  213.0290  145.6760 N   0  0  0  0  0  2  0  0  0  0  0  0
  158.8490  214.4530  146.2370 S   0  0  0  0  0  0  0  0  0  0  0  0
  159.7000  213.3650  145.3520 C   0  0  0  0  0  0  0  0  0  0  0  0
  159.0210  212.6360  144.2460 C   0  0  0  0  0  2  0  0  0  0  0  0
  159.6170  213.0010  142.9700 N   0  0  0  0  0  2  0  0  0  0  0  0
  159.6650  211.8730  142.2160 O   0  0  0  0  0  0  0  0  0  0  0  0
  161.4610  210.5990  140.7720 O   0  0  0  0  0  1  0  0  0  0  0  0
  161.1890  213.1680  140.3020 O   0  0  0  0  0  0  0  0  0  0  0  0
  161.1820  211.9230  141.4530 P   0  0  0  0  0  0  0  0  0  0  0  0
  162.3900  212.2190  142.6110 O   0  0  0  0  0  1  0  0  0  0  0  0
  161.7860  206.8970  150.7830 C   0  0  0  0  0  3  0  0  0  0  0  0
  161.2470  207.0290  151.9880 C   0  0  0  0  0  2  0  0  0  0  0  0
  160.5770  206.8170  146.6100 O   0  0  0  0  0  0  0  0  0  0  0  0
  161.2820  206.7150  147.6500 C   0  0  0  0  0  0  0  0  0  0  0  0
  161.9220  205.3820  148.0050 C   0  0  2  0  0  3  0  0  0  0  0  0
  161.8030  204.6550  145.5740 O   0  0  0  0  0  0  0  0  0  0  0  0
  162.2780  204.3480  146.8790 C   0  0  2  0  0  0  0  0  0  0  0  0
  160.9510  204.3140  147.6430 C   0  0  1  0  0  3  0  0  0  0  0  0
  163.0150  205.2190  145.9090 C   0  0  0  0  0  2  0  0  0  0  0  0
  160.9220  202.5170  150.9970 C   0  0  0  0  0  0  0  0  0  0  0  0
  161.1340  200.8620  149.2370 C   0  0  0  0  0  3  0  0  0  0  0  0
  161.0410  201.1810  150.5970 C   0  0  0  0  0  3  0  0  0  0  0  0
  160.9560  203.2210  148.6700 C   0  0  0  0  0  0  0  0  0  0  0  0
  160.8850  203.5340  150.0370 C   0  0  0  0  0  3  0  0  0  0  0  0
  160.8360  202.8240  152.3160 F   0  0  0  0  0  0  0  0  0  0  0  0
  161.0980  201.8800  148.2760 C   0  0  0  0  0  3  0  0  0  0  0  0
  1  2  2  0  0  0  0
  1  3  1  0  0  0  0
  2  4  1  0  0  0  0
  3  5  1  0  0  0  0
  4  5  2  0  0  0  0
  4 22  1  0  0  0  0
  6 10  1  6  0  0  0
  6  3  1  0  0  0  0
  8  7  1  1  0  0  0
  8  6  1  0  0  0  0
  9 11  1  0  0  0  0
  9  8  1  0  0  0  0
  9  7  1  1  0  0  0
 11 12  1  6  0  0  0
 11 10  1  0  0  0  0
 14 12  1  0  0  0  0
 14 13  2  0  0  0  0
 15 14  1  0  0  0  0
 16 15  1  0  0  0  0
 17 16  1  0  0  0  0
 18 20  1  0  0  0  0
 19 20  2  0  0  0  0
 20 17  1  0  0  0  0
 20 21  1  0  0  0  0
 22 23  2  0  0  0  0
 24 25  2  0  0  0  0
 25  2  1  0  0  0  0
 26 25  1  6  0  0  0
 27 30  1  0  0  0  0
 27 28  1  0  0  0  0
 28 30  1  1  0  0  0
 28 29  1  0  0  0  0
 28 26  1  0  0  0  0
 29 26  1  0  0  0  0
 29 34  1  1  0  0  0
 31 36  1  0  0  0  0
 32 33  2  0  0  0  0
 33 31  1  0  0  0  0
 34 35  1  0  0  0  0
 35 31  2  0  0  0  0
 37 34  2  0  0  0  0
 37 32  1  0  0  0  0
M  END
>  <MODEL>
2

>  <REMARK>
 VINA RESULT:      -6.9      5.417      9.027
  Name = 
  11 active torsions:
  status: ('A' for Active; 'I' for Inactive)
    1  A    between atoms: C_2  and  N_32
    2  A    between atoms: C_4  and  C_33
    3  A    between atoms: C_8  and  N_14
    4  A    between atoms: C_8  and  C_27
    5  A    between atoms: C_11  and  C_13
    6  A    between atoms: C_13  and  C_21
    7  A    between atoms: N_14  and  C_35
    8  A    between atoms: O_19  and  P_25
    9  A    between atoms: O_19  and  N_36
   10  A    between atoms: C_22  and  C_30
   11  A    between atoms: C_27  and  N_36
                            x       y       z     vdW  Elec       q    Type
                         _______ _______ _______ _____ _____    ______ ____

>  <TORSDO>
F 11

$$$$
=
 OpenBabel11052410583D

 37 42  0  0  1  0  0  0  0  0999 V2000
  160.8730  207.1110  152.5260 N   0  0  0  0  0  0  0  0  0  0  0  0
  161.4330  206.6800  151.3820 C   0  0  0  0  0  0  0  0  0  0  0  0
  160.7780  208.4300  152.4520 N   0  0  0  0  0  0  0  0  0  0  0  0
  161.7030  207.7730  150.5730 C   0  0  0  0  0  0  0  0  0  0  0  0
  161.2780  208.8820  151.2860 C   0  0  0  0  0  3  0  0  0  0  0  0
  160.2750  209.2730  153.5290 C   0  0  1  0  0  3  0  0  0  0  0  0
  160.9360  210.3820  155.6200 C   0  0  0  0  0  2  0  0  0  0  0  0
  161.4210  209.8460  154.3490 C   0  0  2  0  0  3  0  0  0  0  0  0
  161.1960  211.3000  154.4990 N   0  0  1  0  0  0  0  0  0  0  0  0
  159.5490  210.4590  152.9510 C   0  0  0  0  0  2  0  0  0  0  0  0
  159.9110  211.6020  153.8770 C   0  0  2  0  0  3  0  0  0  0  0  0
  160.0240  212.8370  153.1110 N   0  0  0  0  0  2  0  0  0  0  0  0
  157.4320  213.4930  153.3550 S   0  0  0  0  0  0  0  0  0  0  0  0
  158.9080  213.6050  152.6450 C   0  0  0  0  0  0  0  0  0  0  0  0
  159.0700  214.4480  151.4300 C   0  0  0  0  0  2  0  0  0  0  0  0
  159.4990  213.6270  150.3080 N   0  0  0  0  0  2  0  0  0  0  0  0
  160.6210  214.2010  149.8020 O   0  0  0  0  0  0  0  0  0  0  0  0
  161.6800  211.8110  149.4860 O   0  0  0  0  0  1  0  0  0  0  0  0
  160.0670  212.6370  147.5870 O   0  0  0  0  0  0  0  0  0  0  0  0
  161.2530  213.0490  148.7250 P   0  0  0  0  0  0  0  0  0  0  0  0
  162.6010  213.7020  147.9230 O   0  0  0  0  0  1  0  0  0  0  0  0
  162.3390  207.7610  149.2490 C   0  0  0  0  0  3  0  0  0  0  0  0
  161.6250  207.7600  148.1300 C   0  0  0  0  0  2  0  0  0  0  0  0
  162.5640  204.6320  151.7640 O   0  0  0  0  0  0  0  0  0  0  0  0
  161.6970  205.2510  151.0910 C   0  0  0  0  0  0  0  0  0  0  0  0
  160.8490  204.5020  150.0740 C   0  0  2  0  0  3  0  0  0  0  0  0
  161.1970  202.3340  151.3520 O   0  0  0  0  0  0  0  0  0  0  0  0
  160.5160  202.9820  150.2840 C   0  0  2  0  0  0  0  0  0  0  0  0
  161.7140  203.4600  149.4580 C   0  0  1  0  0  3  0  0  0  0  0  0
  160.0330  202.9860  151.7020 C   0  0  0  0  0  2  0  0  0  0  0  0
  160.7920  201.9760  146.0770 C   0  0  0  0  0  0  0  0  0  0  0  0
  161.3990  204.3020  145.7590 C   0  0  0  0  0  3  0  0  0  0  0  0
  160.9740  203.0760  145.2320 C   0  0  0  0  0  3  0  0  0  0  0  0
  161.4310  203.3340  147.9900 C   0  0  0  0  0  0  0  0  0  0  0  0
  161.0260  202.1020  147.4510 C   0  0  0  0  0  3  0  0  0  0  0  0
  160.3840  200.7870  145.5640 F   0  0  0  0  0  0  0  0  0  0  0  0
  161.6320  204.4290  147.1330 C   0  0  0  0  0  3  0  0  0  0  0  0
  2  1  2  0  0  0  0
  3  1  1  0  0  0  0
  4  5  2  0  0  0  0
  4  2  1  0  0  0  0
  5  3  1  0  0  0  0
  6  3  1  6  0  0  0
  6  8  1  0  0  0  0
  8  9  1  0  0  0  0
  8  7  1  1  0  0  0
  9  7  1  1  0  0  0
 10  6  1  0  0  0  0
 10 11  1  0  0  0  0
 11 12  1  6  0  0  0
 11  9  1  0  0  0  0
 14 12  1  0  0  0  0
 14 13  2  0  0  0  0
 15 14  1  0  0  0  0
 16 15  1  0  0  0  0
 17 16  1  0  0  0  0
 19 20  2  0  0  0  0
 20 18  1  0  0  0  0
 20 17  1  0  0  0  0
 21 20  1  0  0  0  0
 22  4  1  0  0  0  0
 23 22  2  0  0  0  0
 25  2  1  0  0  0  0
 25 24  2  0  0  0  0
 26 28  1  0  0  0  0
 26 25  1  1  0  0  0
 27 30  1  0  0  0  0
 28 27  1  0  0  0  0
 28 30  1  6  0  0  0
 29 34  1  6  0  0  0
 29 26  1  0  0  0  0
 29 28  1  0  0  0  0
 31 35  1  0  0  0  0
 32 37  2  0  0  0  0
 33 32  1  0  0  0  0
 33 31  2  0  0  0  0
 35 34  2  0  0  0  0
 36 31  1  0  0  0  0
 37 34  1  0  0  0  0
M  END
>  <MODEL>
3

>  <REMARK>
 VINA RESULT:      -6.8      4.710      9.013
  Name = 
  11 active torsions:
  status: ('A' for Active; 'I' for Inactive)
    1  A    between atoms: C_2  and  N_32
    2  A    between atoms: C_4  and  C_33
    3  A    between atoms: C_8  and  N_14
    4  A    between atoms: C_8  and  C_27
    5  A    between atoms: C_11  and  C_13
    6  A    between atoms: C_13  and  C_21
    7  A    between atoms: N_14  and  C_35
    8  A    between atoms: O_19  and  P_25
    9  A    between atoms: O_19  and  N_36
   10  A    between atoms: C_22  and  C_30
   11  A    between atoms: C_27  and  N_36
                            x       y       z     vdW  Elec       q    Type
                         _______ _______ _______ _____ _____    ______ ____

>  <TORSDO>
F 11

$$$$
=
 OpenBabel11052410583D

 37 42  0  0  1  0  0  0  0  0999 V2000
  161.6090  209.0590  147.8750 N   0  0  0  0  0  0  0  0  0  0  0  0
  161.3900  207.9030  148.5260 C   0  0  0  0  0  0  0  0  0  0  0  0
  161.9160  209.9760  148.7800 N   0  0  0  0  0  0  0  0  0  0  0  0
  161.5580  208.1140  149.8860 C   0  0  0  0  0  0  0  0  0  0  0  0
  161.8890  209.4510  150.0210 C   0  0  0  0  0  3  0  0  0  0  0  0
  162.1640  211.3780  148.4710 C   0  0  1  0  0  3  0  0  0  0  0  0
  161.7030  213.1280  146.8080 C   0  0  0  0  0  2  0  0  0  0  0  0
  161.2320  211.8630  147.3700 C   0  0  2  0  0  3  0  0  0  0  0  0
  160.6260  213.1380  147.8110 N   0  0  1  0  0  0  0  0  0  0  0  0
  161.8570  212.2280  149.6750 C   0  0  0  0  0  2  0  0  0  0  0  0
  161.2310  213.4800  149.0960 C   0  0  2  0  0  3  0  0  0  0  0  0
  160.2000  213.9750  149.9980 N   0  0  0  0  0  2  0  0  0  0  0  0
  157.7580  213.5000  148.9910 S   0  0  0  0  0  0  0  0  0  0  0  0
  158.9070  213.3790  150.1560 C   0  0  0  0  0  0  0  0  0  0  0  0
  158.5700  212.7190  151.4460 C   0  0  0  0  0  2  0  0  0  0  0  0
  159.7140  212.7670  152.3440 N   0  0  0  0  0  2  0  0  0  0  0  0
  159.2360  213.0610  153.5810 O   0  0  0  0  0  0  0  0  0  0  0  0
  158.7970  210.8160  154.8840 O   0  0  0  0  0  1  0  0  0  0  0  0
  161.1800  211.1060  153.8220 O   0  0  0  0  0  0  0  0  0  0  0  0
  159.8650  211.8490  154.5910 P   0  0  0  0  0  0  0  0  0  0  0  0
  160.3850  212.5430  156.0530 O   0  0  0  0  0  1  0  0  0  0  0  0
  161.3870  207.1290  150.9630 C   0  0  0  0  0  3  0  0  0  0  0  0
  162.4260  206.5680  151.5690 C   0  0  0  0  0  2  0  0  0  0  0  0
  160.1860  206.6620  146.9050 O   0  0  0  0  0  0  0  0  0  0  0  0
  161.0270  206.6390  147.8430 C   0  0  0  0  0  0  0  0  0  0  0  0
  161.7470  205.3440  148.1850 C   0  0  2  0  0  3  0  0  0  0  0  0
  161.7310  204.6660  145.7360 O   0  0  0  0  0  0  0  0  0  0  0  0
  162.1970  204.3620  147.0450 C   0  0  2  0  0  0  0  0  0  0  0  0
  160.8580  204.2210  147.7770 C   0  0  1  0  0  3  0  0  0  0  0  0
  162.8950  205.3020  146.1120 C   0  0  0  0  0  2  0  0  0  0  0  0
  160.9710  202.3560  151.0910 C   0  0  0  0  0  0  0  0  0  0  0  0
  161.1450  200.7410  149.2900 C   0  0  0  0  0  3  0  0  0  0  0  0
  161.0950  201.0300  150.6600 C   0  0  0  0  0  3  0  0  0  0  0  0
  160.9150  203.1080  148.7790 C   0  0  0  0  0  0  0  0  0  0  0  0
  160.8870  203.3920  150.1540 C   0  0  0  0  0  3  0  0  0  0  0  0
  160.9270  202.6350  152.4180 F   0  0  0  0  0  0  0  0  0  0  0  0
  161.0610  201.7770  148.3530 C   0  0  0  0  0  3  0  0  0  0  0  0
  1  2  2  0  0  0  0
  1  3  1  0  0  0  0
  2  4  1  0  0  0  0
  3  5  1  0  0  0  0
  4  5  2  0  0  0  0
  4 22  1  0  0  0  0
  6  3  1  1  0  0  0
  6 10  1  0  0  0  0
  8  7  1  6  0  0  0
  8  9  1  0  0  0  0
  8  6  1  0  0  0  0
  9  7  1  6  0  0  0
  9 11  1  0  0  0  0
 11 10  1  0  0  0  0
 11 12  1  1  0  0  0
 12 14  1  0  0  0  0
 13 14  2  0  0  0  0
 14 15  1  0  0  0  0
 15 16  1  0  0  0  0
 16 17  1  0  0  0  0
 17 20  1  0  0  0  0
 19 20  2  0  0  0  0
 20 18  1  0  0  0  0
 20 21  1  0  0  0  0
 22 23  2  0  0  0  0
 24 25  2  0  0  0  0
 25  2  1  0  0  0  0
 26 25  1  6  0  0  0
 27 30  1  0  0  0  0
 27 28  1  0  0  0  0
 28 30  1  1  0  0  0
 28 29  1  0  0  0  0
 28 26  1  0  0  0  0
 29 26  1  0  0  0  0
 29 34  1  1  0  0  0
 31 36  1  0  0  0  0
 32 33  2  0  0  0  0
 33 31  1  0  0  0  0
 34 35  1  0  0  0  0
 35 31  2  0  0  0  0
 37 34  2  0  0  0  0
 37 32  1  0  0  0  0
M  END
>  <MODEL>
4

>  <REMARK>
 VINA RESULT:      -6.7      4.377      9.602
  Name = 
  11 active torsions:
  status: ('A' for Active; 'I' for Inactive)
    1  A    between atoms: C_2  and  N_32
    2  A    between atoms: C_4  and  C_33
    3  A    between atoms: C_8  and  N_14
    4  A    between atoms: C_8  and  C_27
    5  A    between atoms: C_11  and  C_13
    6  A    between atoms: C_13  and  C_21
    7  A    between atoms: N_14  and  C_35
    8  A    between atoms: O_19  and  P_25
    9  A    between atoms: O_19  and  N_36
   10  A    between atoms: C_22  and  C_30
   11  A    between atoms: C_27  and  N_36
                            x       y       z     vdW  Elec       q    Type
                         _______ _______ _______ _____ _____    ______ ____

>  <TORSDO>
F 11

$$$$
=
 OpenBabel11052410583D

 37 42  0  0  1  0  0  0  0  0999 V2000
  160.6770  207.5820  151.2240 N   0  0  0  0  0  0  0  0  0  0  0  0
  160.9240  206.3570  150.7260 C   0  0  0  0  0  0  0  0  0  0  0  0
  160.9280  207.5430  152.5230 N   0  0  0  0  0  0  0  0  0  0  0  0
  161.3350  205.5270  151.7570 C   0  0  0  0  0  0  0  0  0  0  0  0
  161.3230  206.3110  152.8990 C   0  0  0  0  0  3  0  0  0  0  0  0
  160.7210  208.6660  153.4280 C   0  0  1  0  0  3  0  0  0  0  0  0
  161.8950  210.2030  154.9450 C   0  0  0  0  0  2  0  0  0  0  0  0
  162.0440  209.3300  153.7810 C   0  0  2  0  0  3  0  0  0  0  0  0
  161.8890  210.7880  153.5940 N   0  0  1  0  0  0  0  0  0  0  0  0
  159.8980  209.7260  152.7460 C   0  0  0  0  0  2  0  0  0  0  0  0
  160.4960  211.0300  153.2300 C   0  0  2  0  0  3  0  0  0  0  0  0
  160.4410  212.0210  152.1640 N   0  0  0  0  0  2  0  0  0  0  0  0
  158.2020  213.1440  153.1300 S   0  0  0  0  0  0  0  0  0  0  0  0
  159.4100  213.0070  152.0280 C   0  0  0  0  0  0  0  0  0  0  0  0
  159.3840  213.8590  150.8090 C   0  0  0  0  0  2  0  0  0  0  0  0
  160.5640  213.6030  149.9970 N   0  0  0  0  0  2  0  0  0  0  0  0
  160.1440  212.9600  148.8770 O   0  0  0  0  0  0  0  0  0  0  0  0
  162.4360  214.0330  148.1480 O   0  0  0  0  0  1  0  0  0  0  0  0
  162.3500  211.4110  148.2470 O   0  0  0  0  0  1  0  0  0  0  0  0
  161.5260  212.8490  147.8940 P   0  0  0  0  0  0  0  0  0  0  0  0
  161.0590  212.8460  146.2600 O   0  0  0  0  0  0  0  0  0  0  0  0
  161.6800  204.1020  151.6640 C   0  0  0  0  0  3  0  0  0  0  0  0
  160.8530  203.1520  152.0830 C   0  0  0  0  0  2  0  0  0  0  0  0
  159.9910  206.7000  148.5740 O   0  0  0  0  0  0  0  0  0  0  0  0
  160.7630  206.0110  149.2940 C   0  0  0  0  0  0  0  0  0  0  0  0
  161.6070  204.9130  148.6660 C   0  0  2  0  0  3  0  0  0  0  0  0
  161.7430  206.2300  146.4970 O   0  0  0  0  0  0  0  0  0  0  0  0
  162.1960  205.0930  147.2220 C   0  0  2  0  0  0  0  0  0  0  0  0
  160.8580  204.3970  147.4880 C   0  0  1  0  0  3  0  0  0  0  0  0
  162.8190  206.4500  147.3310 C   0  0  0  0  0  2  0  0  0  0  0  0
  160.8240  200.8660  146.0680 C   0  0  0  0  0  0  0  0  0  0  0  0
  161.4570  200.7520  148.4060 C   0  0  0  0  0  3  0  0  0  0  0  0
  161.1970  200.1140  147.1870 C   0  0  0  0  0  3  0  0  0  0  0  0
  161.0010  202.9080  147.3770 C   0  0  0  0  0  0  0  0  0  0  0  0
  160.7210  202.2590  146.1640 C   0  0  0  0  0  3  0  0  0  0  0  0
  160.5690  200.2460  144.8880 F   0  0  0  0  0  0  0  0  0  0  0  0
  161.3530  202.1440  148.5020 C   0  0  0  0  0  3  0  0  0  0  0  0
  1  3  1  0  0  0  0
  2  1  2  0  0  0  0
  2  4  1  0  0  0  0
  3  5  1  0  0  0  0
  4  5  2  0  0  0  0
  6  3  1  6  0  0  0
  6  8  1  0  0  0  0
  8  7  1  1  0  0  0
  9  8  1  0  0  0  0
  9  7  1  1  0  0  0
 10 11  1  0  0  0  0
 10  6  1  0  0  0  0
 11 12  1  6  0  0  0
 11  9  1  0  0  0  0
 14 12  1  0  0  0  0
 14 13  2  0  0  0  0
 15 14  1  0  0  0  0
 16 15  1  0  0  0  0
 17 16  1  0  0  0  0
 20 18  1  0  0  0  0
 20 19  1  0  0  0  0
 20 17  1  0  0  0  0
 21 20  2  0  0  0  0
 22  4  1  0  0  0  0
 22 23  2  0  0  0  0
 24 25  2  0  0  0  0
 25  2  1  0  0  0  0
 26 25  1  6  0  0  0
 27 28  1  0  0  0  0
 27 30  1  0  0  0  0
 28 30  1  6  0  0  0
 28 29  1  0  0  0  0
 28 26  1  0  0  0  0
 29 34  1  1  0  0  0
 29 26  1  0  0  0  0
 31 35  2  0  0  0  0
 31 33  1  0  0  0  0
 32 37  1  0  0  0  0
 33 32  2  0  0  0  0
 34 37  2  0  0  0  0
 35 34  1  0  0  0  0
 36 31  1  0  0  0  0
M  END
>  <MODEL>
5

>  <REMARK>
 VINA RESULT:      -6.6      4.395      9.157
  Name = 
  11 active torsions:
  status: ('A' for Active; 'I' for Inactive)
    1  A    between atoms: C_2  and  N_32
    2  A    between atoms: C_4  and  C_33
    3  A    between atoms: C_8  and  N_14
    4  A    between atoms: C_8  and  C_27
    5  A    between atoms: C_11  and  C_13
    6  A    between atoms: C_13  and  C_21
    7  A    between atoms: N_14  and  C_35
    8  A    between atoms: O_19  and  P_25
    9  A    between atoms: O_19  and  N_36
   10  A    between atoms: C_22  and  C_30
   11  A    between atoms: C_27  and  N_36
                            x       y       z     vdW  Elec       q    Type
                         _______ _______ _______ _____ _____    ______ ____

>  <TORSDO>
F 11

$$$$
=
 OpenBabel11052410583D

 37 42  0  0  1  0  0  0  0  0999 V2000
  161.2620  208.3200  152.9640 N   0  0  0  0  0  0  0  0  0  0  0  0
  160.7860  208.8670  154.0960 C   0  0  0  0  0  0  0  0  0  0  0  0
  161.3690  207.0160  153.1640 N   0  0  0  0  0  0  0  0  0  0  0  0
  160.6000  207.8650  155.0360 C   0  0  0  0  0  0  0  0  0  0  0  0
  160.9860  206.6900  154.4140 C   0  0  0  0  0  3  0  0  0  0  0  0
  161.9080  206.0810  152.1840 C   0  0  1  0  0  3  0  0  0  0  0  0
  161.5870  203.8370  151.2330 C   0  0  0  0  0  2  0  0  0  0  0  0
  160.9270  204.9490  151.9180 C   0  0  2  0  0  3  0  0  0  0  0  0
  160.7890  204.7980  150.4530 N   0  0  1  0  0  0  0  0  0  0  0  0
  162.1000  206.7790  150.8650 C   0  0  0  0  0  2  0  0  0  0  0  0
  161.7200  205.7360  149.8340 C   0  0  2  0  0  3  0  0  0  0  0  0
  161.0730  206.3810  148.6990 N   0  0  0  0  0  2  0  0  0  0  0  0
  160.2130  206.5090  146.1600 S   0  0  0  0  0  0  0  0  0  0  0  0
  161.2110  205.9550  147.3390 C   0  0  0  0  0  0  0  0  0  0  0  0
  162.2200  204.9120  147.0090 C   0  0  0  0  0  2  0  0  0  0  0  0
  161.5660  203.6230  146.8410 N   0  0  0  0  0  2  0  0  0  0  0  0
  161.8770  202.8750  147.9310 O   0  0  0  0  0  0  0  0  0  0  0  0
  161.6570  200.2610  148.1600 O   0  0  0  0  0  1  0  0  0  0  0  0
  159.5820  201.6810  148.9140 O   0  0  0  0  0  1  0  0  0  0  0  0
  160.8700  201.5110  147.8260 P   0  0  0  0  0  0  0  0  0  0  0  0
  160.2590  201.3780  146.2450 O   0  0  0  0  0  0  0  0  0  0  0  0
  160.1230  208.0220  156.4160 C   0  0  0  0  0  3  0  0  0  0  0  0
  160.0730  207.0000  157.2610 C   0  0  0  0  0  2  0  0  0  0  0  0
  161.4960  211.1090  154.3950 O   0  0  0  0  0  0  0  0  0  0  0  0
  160.5260  210.3170  154.2550 C   0  0  0  0  0  0  0  0  0  0  0  0
  159.1120  210.8650  154.1290 C   0  0  2  0  0  3  0  0  0  0  0  0
  159.9490  212.7310  152.6210 O   0  0  0  0  0  0  0  0  0  0  0  0
  158.8140  212.0820  153.1830 C   0  0  2  0  0  0  0  0  0  0  0  0
  159.1240  212.2500  154.6740 C   0  0  1  0  0  3  0  0  0  0  0  0
  159.4860  211.6370  151.9200 C   0  0  0  0  0  2  0  0  0  0  0  0
  155.7690  211.7560  156.4000 C   0  0  0  0  0  0  0  0  0  0  0  0
  156.3850  214.0960  156.5660 C   0  0  0  0  0  3  0  0  0  0  0  0
  155.4870  213.0560  156.8350 C   0  0  0  0  0  3  0  0  0  0  0  0
  157.8700  212.5270  155.4490 C   0  0  0  0  0  0  0  0  0  0  0  0
  156.9540  211.4930  155.7040 C   0  0  0  0  0  3  0  0  0  0  0  0
  154.8960  210.7510  156.6590 F   0  0  0  0  0  0  0  0  0  0  0  0
  157.5710  213.8330  155.8690 C   0  0  0  0  0  3  0  0  0  0  0  0
  1  3  1  0  0  0  0
  1  2  2  0  0  0  0
  2 25  1  0  0  0  0
  2  4  1  0  0  0  0
  3  5  1  0  0  0  0
  4 22  1  0  0  0  0
  5  4  2  0  0  0  0
  6 10  1  6  0  0  0
  6  3  1  0  0  0  0
  8  7  1  6  0  0  0
  8  6  1  0  0  0  0
  9  7  1  1  0  0  0
  9  8  1  0  0  0  0
 11 12  1  6  0  0  0
 11  9  1  0  0  0  0
 11 10  1  0  0  0  0
 13 14  2  0  0  0  0
 14 12  1  0  0  0  0
 15 14  1  0  0  0  0
 16 15  1  0  0  0  0
 16 17  1  0  0  0  0
 20 17  1  0  0  0  0
 20 18  1  0  0  0  0
 20 19  1  0  0  0  0
 21 20  2  0  0  0  0
 22 23  2  0  0  0  0
 25 24  2  0  0  0  0
 26 25  1  6  0  0  0
 26 29  1  0  0  0  0
 27 28  1  0  0  0  0
 28 30  1  6  0  0  0
 28 26  1  0  0  0  0
 28 29  1  0  0  0  0
 29 34  1  1  0  0  0
 30 27  1  0  0  0  0
 31 36  1  0  0  0  0
 31 33  1  0  0  0  0
 32 33  2  0  0  0  0
 34 35  1  0  0  0  0
 34 37  2  0  0  0  0
 35 31  2  0  0  0  0
 37 32  1  0  0  0  0
M  END
>  <MODEL>
6

>  <REMARK>
 VINA RESULT:      -6.5      2.724      3.618
  Name = 
  11 active torsions:
  status: ('A' for Active; 'I' for Inactive)
    1  A    between atoms: C_2  and  N_32
    2  A    between atoms: C_4  and  C_33
    3  A    between atoms: C_8  and  N_14
    4  A    between atoms: C_8  and  C_27
    5  A    between atoms: C_11  and  C_13
    6  A    between atoms: C_13  and  C_21
    7  A    between atoms: N_14  and  C_35
    8  A    between atoms: O_19  and  P_25
    9  A    between atoms: O_19  and  N_36
   10  A    between atoms: C_22  and  C_30
   11  A    between atoms: C_27  and  N_36
                            x       y       z     vdW  Elec       q    Type
                         _______ _______ _______ _____ _____    ______ ____

>  <TORSDO>
F 11

$$$$
=
 OpenBabel11052410583D

 37 42  0  0  1  0  0  0  0  0999 V2000
  162.1220  209.4220  150.4510 N   0  0  0  0  0  0  0  0  0  0  0  0
  162.1240  208.1420  150.0390 C   0  0  0  0  0  0  0  0  0  0  0  0
  162.0220  210.1880  149.3750 N   0  0  0  0  0  0  0  0  0  0  0  0
  162.0320  208.1140  148.6570 C   0  0  0  0  0  0  0  0  0  0  0  0
  161.9740  209.4380  148.2560 C   0  0  0  0  0  3  0  0  0  0  0  0
  162.0480  211.6450  149.4050 C   0  0  1  0  0  3  0  0  0  0  0  0
  162.5910  213.6220  148.0500 C   0  0  0  0  0  2  0  0  0  0  0  0
  162.2050  212.2130  148.0020 C   0  0  2  0  0  3  0  0  0  0  0  0
  161.1830  213.2650  147.8160 N   0  0  1  0  0  0  0  0  0  0  0  0
  160.7320  212.1670  149.9150 C   0  0  0  0  0  2  0  0  0  0  0  0
  160.4790  213.4100  149.0870 C   0  0  2  0  0  3  0  0  0  0  0  0
  159.0510  213.5500  148.8350 N   0  0  0  0  0  2  0  0  0  0  0  0
  156.4740  213.8480  149.5240 S   0  0  0  0  0  0  0  0  0  0  0  0
  158.0850  213.9120  149.8290 C   0  0  0  0  0  0  0  0  0  0  0  0
  158.5590  214.4500  151.1320 C   0  0  0  0  0  2  0  0  0  0  0  0
  157.8610  213.7910  152.2260 N   0  0  0  0  0  2  0  0  0  0  0  0
  158.6400  213.9240  153.3310 O   0  0  0  0  0  0  0  0  0  0  0  0
  157.7410  212.1220  155.0280 O   0  0  0  0  0  1  0  0  0  0  0  0
  158.5660  211.2300  152.7010 O   0  0  0  0  0  0  0  0  0  0  0  0
  158.7840  212.3500  153.9540 P   0  0  0  0  0  0  0  0  0  0  0  0
  160.3310  212.1470  154.6280 O   0  0  0  0  0  1  0  0  0  0  0  0
  162.0300  206.9260  147.7920 C   0  0  0  0  0  3  0  0  0  0  0  0
  160.9510  206.5540  147.1160 C   0  0  0  0  0  2  0  0  0  0  0  0
  163.0910  206.9900  151.8710 O   0  0  0  0  0  0  0  0  0  0  0  0
  162.2160  206.9880  150.9650 C   0  0  0  0  0  0  0  0  0  0  0  0
  161.1900  205.8670  150.9030 C   0  0  2  0  0  3  0  0  0  0  0  0
  161.5830  205.3460  153.3590 O   0  0  0  0  0  0  0  0  0  0  0  0
  160.8000  205.0760  152.2020 C   0  0  2  0  0  0  0  0  0  0  0  0
  161.8960  204.6010  151.2440 C   0  0  1  0  0  3  0  0  0  0  0  0
  160.5210  206.2010  153.1510 C   0  0  0  0  0  2  0  0  0  0  0  0
  160.8850  202.5600  148.1960 C   0  0  0  0  0  0  0  0  0  0  0  0
  160.4190  201.2570  150.1870 C   0  0  0  0  0  3  0  0  0  0  0  0
  160.4120  201.3860  148.7920 C   0  0  0  0  0  3  0  0  0  0  0  0
  161.4040  203.4720  150.3900 C   0  0  0  0  0  0  0  0  0  0  0  0
  161.3740  203.6020  148.9920 C   0  0  0  0  0  3  0  0  0  0  0  0
  160.8740  202.6860  146.8450 F   0  0  0  0  0  0  0  0  0  0  0  0
  160.9070  202.2990  150.9830 C   0  0  0  0  0  3  0  0  0  0  0  0
  2  1  2  0  0  0  0
  2 25  1  0  0  0  0
  3  1  1  0  0  0  0
  4  2  1  0  0  0  0
  5  4  2  0  0  0  0
  5  3  1  0  0  0  0
  6  3  1  6  0  0  0
  6 10  1  0  0  0  0
  8  7  1  1  0  0  0
  8  6  1  0  0  0  0
  9  8  1  0  0  0  0
  9  7  1  1  0  0  0
  9 11  1  0  0  0  0
 11 12  1  6  0  0  0
 11 10  1  0  0  0  0
 12 14  1  0  0  0  0
 13 14  2  0  0  0  0
 14 15  1  0  0  0  0
 15 16  1  0  0  0  0
 16 17  1  0  0  0  0
 17 20  1  0  0  0  0
 19 20  2  0  0  0  0
 20 21  1  0  0  0  0
 20 18  1  0  0  0  0
 22  4  1  0  0  0  0
 23 22  2  0  0  0  0
 25 24  2  0  0  0  0
 26 25  1  1  0  0  0
 26 29  1  0  0  0  0
 26 28  1  0  0  0  0
 28 30  1  1  0  0  0
 28 27  1  0  0  0  0
 29 34  1  6  0  0  0
 29 28  1  0  0  0  0
 30 27  1  0  0  0  0
 31 33  2  0  0  0  0
 31 35  1  0  0  0  0
 32 37  2  0  0  0  0
 33 32  1  0  0  0  0
 34 37  1  0  0  0  0
 35 34  2  0  0  0  0
 36 31  1  0  0  0  0
M  END
>  <MODEL>
7

>  <REMARK>
 VINA RESULT:      -6.4      5.082      9.041
  Name = 
  11 active torsions:
  status: ('A' for Active; 'I' for Inactive)
    1  A    between atoms: C_2  and  N_32
    2  A    between atoms: C_4  and  C_33
    3  A    between atoms: C_8  and  N_14
    4  A    between atoms: C_8  and  C_27
    5  A    between atoms: C_11  and  C_13
    6  A    between atoms: C_13  and  C_21
    7  A    between atoms: N_14  and  C_35
    8  A    between atoms: O_19  and  P_25
    9  A    between atoms: O_19  and  N_36
   10  A    between atoms: C_22  and  C_30
   11  A    between atoms: C_27  and  N_36
                            x       y       z     vdW  Elec       q    Type
                         _______ _______ _______ _____ _____    ______ ____

>  <TORSDO>
F 11

$$$$
=
 OpenBabel11052410583D

 37 42  0  0  1  0  0  0  0  0999 V2000
  162.1440  209.7160  149.1870 N   0  0  0  0  0  0  0  0  0  0  0  0
  161.9240  208.8580  150.1990 C   0  0  0  0  0  0  0  0  0  0  0  0
  161.8840  210.9350  149.6330 N   0  0  0  0  0  0  0  0  0  0  0  0
  161.5020  209.5710  151.3100 C   0  0  0  0  0  0  0  0  0  0  0  0
  161.4800  210.8990  150.9180 C   0  0  0  0  0  3  0  0  0  0  0  0
  161.9480  212.1370  148.8100 C   0  0  1  0  0  3  0  0  0  0  0  0
  161.7530  212.9380  146.4950 C   0  0  0  0  0  2  0  0  0  0  0  0
  161.3710  211.8770  147.4260 C   0  0  2  0  0  3  0  0  0  0  0  0
  160.4180  212.9640  147.1150 N   0  0  1  0  0  0  0  0  0  0  0  0
  161.0920  213.2150  149.4170 C   0  0  0  0  0  2  0  0  0  0  0  0
  160.4710  213.9120  148.2240 C   0  0  2  0  0  3  0  0  0  0  0  0
  159.1200  214.3440  148.5550 N   0  0  0  0  0  2  0  0  0  0  0  0
  157.4430  212.7390  147.2070 S   0  0  0  0  0  0  0  0  0  0  0  0
  157.9760  213.4830  148.5700 C   0  0  0  0  0  0  0  0  0  0  0  0
  157.1980  213.3380  149.8300 C   0  0  0  0  0  2  0  0  0  0  0  0
  158.1020  213.2670  150.9680 N   0  0  0  0  0  2  0  0  0  0  0  0
  157.4020  213.6740  152.0580 O   0  0  0  0  0  0  0  0  0  0  0  0
  158.4700  211.3720  152.7580 O   0  0  0  0  0  0  0  0  0  0  0  0
  159.1700  213.4680  154.1770 O   0  0  0  0  0  1  0  0  0  0  0  0
  157.9410  212.6750  153.3210 P   0  0  0  0  0  0  0  0  0  0  0  0
  156.6470  212.3420  154.3720 O   0  0  0  0  0  1  0  0  0  0  0  0
  161.1260  209.0280  152.6220 C   0  0  0  0  0  3  0  0  0  0  0  0
  161.3610  209.6890  153.7480 C   0  0  0  0  0  2  0  0  0  0  0  0
  163.0410  206.8370  150.7330 O   0  0  0  0  0  0  0  0  0  0  0  0
  162.1170  207.3930  150.0820 C   0  0  0  0  0  0  0  0  0  0  0  0
  161.1370  206.5480  149.2830 C   0  0  2  0  0  3  0  0  0  0  0  0
  161.6060  204.5500  150.7820 O   0  0  0  0  0  0  0  0  0  0  0  0
  160.8090  205.0780  149.7280 C   0  0  2  0  0  0  0  0  0  0  0  0
  161.9030  205.4080  148.7070 C   0  0  1  0  0  3  0  0  0  0  0  0
  160.5050  205.2790  151.1810 C   0  0  0  0  0  2  0  0  0  0  0  0
  161.0410  203.5030  145.5280 C   0  0  0  0  0  0  0  0  0  0  0  0
  160.6520  205.8660  145.1420 C   0  0  0  0  0  3  0  0  0  0  0  0
  160.6400  204.5430  144.6810 C   0  0  0  0  0  3  0  0  0  0  0  0
  161.4380  205.1050  147.3140 C   0  0  0  0  0  0  0  0  0  0  0  0
  161.4440  203.7840  146.8380 C   0  0  0  0  0  3  0  0  0  0  0  0
  161.0320  202.2230  145.0790 F   0  0  0  0  0  0  0  0  0  0  0  0
  161.0560  206.1460  146.4520 C   0  0  0  0  0  3  0  0  0  0  0  0
  1  3  1  0  0  0  0
  1  2  2  0  0  0  0
  2  4  1  0  0  0  0
  3  5  1  0  0  0  0
  4 22  1  0  0  0  0
  5  4  2  0  0  0  0
  6 10  1  1  0  0  0
  6  3  1  0  0  0  0
  8  7  1  6  0  0  0
  8  6  1  0  0  0  0
  9  7  1  6  0  0  0
  9  8  1  0  0  0  0
  9 11  1  0  0  0  0
 11 12  1  1  0  0  0
 11 10  1  0  0  0  0
 12 14  1  0  0  0  0
 13 14  2  0  0  0  0
 14 15  1  0  0  0  0
 15 16  1  0  0  0  0
 16 17  1  0  0  0  0
 17 20  1  0  0  0  0
 18 20  2  0  0  0  0
 20 19  1  0  0  0  0
 20 21  1  0  0  0  0
 22 23  2  0  0  0  0
 25  2  1  0  0  0  0
 25 24  2  0  0  0  0
 26 28  1  0  0  0  0
 26 25  1  1  0  0  0
 27 30  1  0  0  0  0
 28 27  1  0  0  0  0
 28 30  1  6  0  0  0
 29 34  1  6  0  0  0
 29 26  1  0  0  0  0
 29 28  1  0  0  0  0
 31 35  1  0  0  0  0
 32 37  2  0  0  0  0
 33 32  1  0  0  0  0
 33 31  2  0  0  0  0
 35 34  2  0  0  0  0
 36 31  1  0  0  0  0
 37 34  1  0  0  0  0
M  END
>  <MODEL>
8

>  <REMARK>
 VINA RESULT:      -6.3      4.745      8.907
  Name = 
  11 active torsions:
  status: ('A' for Active; 'I' for Inactive)
    1  A    between atoms: C_2  and  N_32
    2  A    between atoms: C_4  and  C_33
    3  A    between atoms: C_8  and  N_14
    4  A    between atoms: C_8  and  C_27
    5  A    between atoms: C_11  and  C_13
    6  A    between atoms: C_13  and  C_21
    7  A    between atoms: N_14  and  C_35
    8  A    between atoms: O_19  and  P_25
    9  A    between atoms: O_19  and  N_36
   10  A    between atoms: C_22  and  C_30
   11  A    between atoms: C_27  and  N_36
                            x       y       z     vdW  Elec       q    Type
                         _______ _______ _______ _____ _____    ______ ____

>  <TORSDO>
F 11

$$$$
=
 OpenBabel11052410583D

 37 42  0  0  1  0  0  0  0  0999 V2000
  161.0150  206.9930  153.5030 N   0  0  0  0  0  0  0  0  0  0  0  0
  161.5080  206.8800  152.2580 C   0  0  0  0  0  0  0  0  0  0  0  0
  160.9700  208.2830  153.7990 N   0  0  0  0  0  0  0  0  0  0  0  0
  161.7870  208.1460  151.7670 C   0  0  0  0  0  0  0  0  0  0  0  0
  161.4380  209.0260  152.7770 C   0  0  0  0  0  3  0  0  0  0  0  0
  160.5470  208.8100  155.0910 C   0  0  1  0  0  3  0  0  0  0  0  0
  161.3980  209.7510  157.1960 C   0  0  0  0  0  2  0  0  0  0  0  0
  161.6920  209.5400  155.7790 C   0  0  2  0  0  3  0  0  0  0  0  0
  161.1870  210.8510  156.2410 N   0  0  1  0  0  0  0  0  0  0  0  0
  159.4640  209.8360  154.8930 C   0  0  0  0  0  2  0  0  0  0  0  0
  159.7600  210.8940  155.9360 C   0  0  2  0  0  3  0  0  0  0  0  0
  159.4180  212.2100  155.4110 N   0  0  0  0  0  2  0  0  0  0  0  0
  156.8410  212.0160  156.1380 S   0  0  0  0  0  0  0  0  0  0  0  0
  158.1450  212.8440  155.5840 C   0  0  0  0  0  0  0  0  0  0  0  0
  157.9820  214.2600  155.1590 C   0  0  0  0  0  2  0  0  0  0  0  0
  158.5610  214.4530  153.8380 N   0  0  0  0  0  2  0  0  0  0  0  0
  157.5570  214.2900  152.9370 O   0  0  0  0  0  0  0  0  0  0  0  0
  157.3250  213.4720  150.4450 O   0  0  0  0  0  0  0  0  0  0  0  0
  159.7060  214.2870  151.1920 O   0  0  0  0  0  1  0  0  0  0  0  0
  158.2760  213.4870  151.6240 P   0  0  0  0  0  0  0  0  0  0  0  0
  158.6370  211.8860  152.0680 O   0  0  0  0  0  1  0  0  0  0  0  0
  162.3650  208.4820  150.4580 C   0  0  0  0  0  3  0  0  0  0  0  0
  161.7950  209.3640  149.6480 C   0  0  0  0  0  2  0  0  0  0  0  0
  162.5320  204.7530  152.0370 O   0  0  0  0  0  0  0  0  0  0  0  0
  161.7020  205.5800  151.5720 C   0  0  0  0  0  0  0  0  0  0  0  0
  160.8240  205.1920  150.3920 C   0  0  2  0  0  3  0  0  0  0  0  0
  161.2030  202.7300  150.8940 O   0  0  0  0  0  0  0  0  0  0  0  0
  160.4950  203.6830  150.1100 C   0  0  2  0  0  0  0  0  0  0  0  0
  161.6700  204.4100  149.4490 C   0  0  1  0  0  3  0  0  0  0  0  0
  160.0510  203.2260  151.4660 C   0  0  0  0  0  2  0  0  0  0  0  0
  161.2530  204.1510  145.6760 C   0  0  0  0  0  0  0  0  0  0  0  0
  160.6520  206.3960  146.3670 C   0  0  0  0  0  3  0  0  0  0  0  0
  160.8120  205.4400  145.3560 C   0  0  0  0  0  3  0  0  0  0  0  0
  161.3460  204.7610  148.0280 C   0  0  0  0  0  0  0  0  0  0  0  0
  161.5250  203.8140  147.0070 C   0  0  0  0  0  3  0  0  0  0  0  0
  161.4120  203.2260  144.6960 F   0  0  0  0  0  0  0  0  0  0  0  0
  160.9240  206.0600  147.6980 C   0  0  0  0  0  3  0  0  0  0  0  0
  1  3  1  0  0  0  0
  2  1  2  0  0  0  0
  4  2  1  0  0  0  0
  4  5  2  0  0  0  0
  5  3  1  0  0  0  0
  6  3  1  6  0  0  0
  6  8  1  0  0  0  0
  8  9  1  0  0  0  0
  8  7  1  1  0  0  0
  9  7  1  1  0  0  0
 10  6  1  0  0  0  0
 10 11  1  0  0  0  0
 11 12  1  6  0  0  0
 11  9  1  0  0  0  0
 12 14  1  0  0  0  0
 14 13  2  0  0  0  0
 15 14  1  0  0  0  0
 16 15  1  0  0  0  0
 17 16  1  0  0  0  0
 18 20  2  0  0  0  0
 19 20  1  0  0  0  0
 20 21  1  0  0  0  0
 20 17  1  0  0  0  0
 22  4  1  0  0  0  0
 23 22  2  0  0  0  0
 25 24  2  0  0  0  0
 25  2  1  0  0  0  0
 26 25  1  1  0  0  0
 27 30  1  0  0  0  0
 28 26  1  0  0  0  0
 28 27  1  0  0  0  0
 28 30  1  6  0  0  0
 29 34  1  6  0  0  0
 29 28  1  0  0  0  0
 29 26  1  0  0  0  0
 31 35  1  0  0  0  0
 32 37  2  0  0  0  0
 33 31  2  0  0  0  0
 33 32  1  0  0  0  0
 35 34  2  0  0  0  0
 36 31  1  0  0  0  0
 37 34  1  0  0  0  0
M  END
>  <MODEL>
9

>  <REMARK>
 VINA RESULT:      -6.3      4.682      9.158
  Name = 
  11 active torsions:
  status: ('A' for Active; 'I' for Inactive)
    1  A    between atoms: C_2  and  N_32
    2  A    between atoms: C_4  and  C_33
    3  A    between atoms: C_8  and  N_14
    4  A    between atoms: C_8  and  C_27
    5  A    between atoms: C_11  and  C_13
    6  A    between atoms: C_13  and  C_21
    7  A    between atoms: N_14  and  C_35
    8  A    between atoms: O_19  and  P_25
    9  A    between atoms: O_19  and  N_36
   10  A    between atoms: C_22  and  C_30
   11  A    between atoms: C_27  and  N_36
                            x       y       z     vdW  Elec       q    Type
                         _______ _______ _______ _____ _____    ______ ____

>  <TORSDO>
F 11

$$$$
