=
 OpenBabel11052410253D

 36 41  0  0  1  0  0  0  0  0999 V2000
  161.8450  208.1680  150.0350 C   0  0  0  0  0  0  0  0  0  0  0  0
  161.2240  208.9150  152.3640 C   0  0  0  0  0  0  0  0  0  0  0  0
  162.0330  205.8930  151.0950 C   0  0  0  0  0  0  0  0  0  0  0  0
  162.9360  206.4370  152.1440 C   0  0  0  0  0  2  0  0  0  0  0  0
  160.5880  210.2200  152.5650 C   0  0  0  0  0  0  0  0  0  0  0  0
  160.8760  203.9860  150.1240 C   0  0  0  0  0  0  0  0  0  0  0  0
  159.0700  209.6940  155.7750 N   0  0  0  0  0  0  0  0  0  0  0  0
  161.7110  204.5310  151.1090 C   0  0  0  0  0  3  0  0  0  0  0  0
  159.2970  211.8250  153.9170 C   0  0  0  0  0  3  0  0  0  0  0  0
  161.8950  208.9170  148.7370 C   0  0  0  0  0  3  0  0  0  0  0  0
  161.2550  207.9810  153.3480 C   0  0  0  0  0  0  0  0  0  0  0  0
  159.8770  210.5050  153.6590 C   0  0  0  0  0  0  0  0  0  0  0  0
  159.7660  209.4710  154.7000 C   0  0  0  0  0  0  0  0  0  0  0  0
  162.1370  206.7600  153.3910 C   0  0  0  0  0  2  0  0  0  0  0  0
  161.5040  206.7330  150.1010 C   0  0  0  0  0  0  0  0  0  0  0  0
  158.5730  212.0210  155.0190 C   0  0  0  0  0  3  0  0  0  0  0  0
  161.8590  209.0290  151.0490 C   0  0  2  0  0  3  0  0  0  0  0  0
  160.9100  211.1520  151.4360 C   0  0  0  0  0  2  0  0  0  0  0  0
  161.7910  210.3910  149.1470 C   0  0  1  0  0  3  0  0  0  0  0  0
  158.2650  210.9060  155.9930 C   0  0  0  0  0  2  0  0  0  0  0  0
  160.6860  206.1790  149.1060 C   0  0  0  0  0  3  0  0  0  0  0  0
  160.4930  208.2440  154.5410 N   0  0  0  0  0  2  0  0  0  0  0  0
  160.3700  204.8190  149.1200 C   0  0  0  0  0  3  0  0  0  0  0  0
  161.8080  210.3650  150.5960 N   0  0  2  0  0  0  0  0  0  0  0  0
  160.9510  201.8110  151.0690 O   0  0  0  0  0  1  0  0  0  0  0  0
  159.7540  202.0070  149.1300 O   0  0  0  0  0  0  0  0  0  0  0  0
  160.5390  202.5540  150.1400 C   0  0  0  0  0  0  0  0  0  0  0  0
  162.9930  211.1620  148.6360 C   0  0  0  0  0  2  0  0  0  0  0  0
  162.5340  212.3260  147.7810 C   0  0  0  0  0  2  0  0  0  0  0  0
  161.0900  212.4600  147.8810 N   0  0  0  0  0  2  0  0  0  0  0  0
  160.5670  212.4970  146.5260 C   0  0  0  0  0  2  0  0  0  0  0  0
  161.4860  213.3250  145.6410 C   0  0  0  0  0  2  0  0  0  0  0  0
  161.1450  213.1280  144.2390 N   0  0  0  0  0  0  0  0  0  0  0  0
  160.1820  212.1760  144.2100 O   0  0  0  0  0  1  0  0  0  0  0  0
  163.3130  213.3550  144.1120 C   0  0  0  0  0  1  0  0  0  0  0  0
  162.2390  212.6000  143.6350 O   0  0  0  0  0  0  0  0  0  0  0  0
  1 15  1  0  0  0  0
  2  5  1  0  0  0  0
  2 11  2  0  0  0  0
  3  8  1  0  0  0  0
  3  4  1  0  0  0  0
  4 14  1  0  0  0  0
  5 12  2  0  0  0  0
  6 27  1  0  0  0  0
  6  8  2  0  0  0  0
  7 20  1  0  0  0  0
  9 16  2  0  0  0  0
 10 19  1  0  0  0  0
 10  1  2  0  0  0  0
 11 14  1  0  0  0  0
 11 22  1  0  0  0  0
 12  9  1  0  0  0  0
 12 13  1  0  0  0  0
 13  7  2  0  0  0  0
 15  3  2  0  0  0  0
 16 20  1  0  0  0  0
 17  1  1  6  0  0  0
 17  2  1  0  0  0  0
 18  5  1  0  0  0  0
 19 28  1  6  0  0  0
 19 24  1  0  0  0  0
 21 23  2  0  0  0  0
 21 15  1  0  0  0  0
 22 13  1  0  0  0  0
 23  6  1  0  0  0  0
 24 17  1  0  0  0  0
 24 18  1  1  0  0  0
 26 27  2  0  0  0  0
 27 25  1  0  0  0  0
 29 30  1  0  0  0  0
 29 28  1  0  0  0  0
 31 30  1  0  0  0  0
 32 31  1  0  0  0  0
 33 32  1  0  0  0  0
 34 33  1  0  0  0  0
 36 35  1  0  0  0  0
 36 33  1  0  0  0  0
M  END
>  <MODEL>
1

>  <REMARK>
 VINA RESULT:      -7.2      0.000      0.000
  Name = 
  8 active torsions:
  status: ('A' for Active; 'I' for Inactive)
    1  A    between atoms: N_2  and  C_16
    2  A    between atoms: N_2  and  O_24
    3  A    between atoms: C_8  and  C_33
    4  A    between atoms: N_9  and  C_22
    5  A    between atoms: N_9  and  C_29
    6  A    between atoms: C_16  and  C_29
    7  A    between atoms: C_22  and  C_31
    8  A    between atoms: C_27  and  C_31
                            x       y       z     vdW  Elec       q    Type
                         _______ _______ _______ _____ _____    ______ ____

>  <TORSDO>
F 8

$$$$
=
 OpenBabel11052410253D

 36 41  0  0  1  0  0  0  0  0999 V2000
  161.8820  208.0830  149.9800 C   0  0  0  0  0  0  0  0  0  0  0  0
  161.2690  208.8480  152.3060 C   0  0  0  0  0  0  0  0  0  0  0  0
  162.0450  205.8110  151.0510 C   0  0  0  0  0  0  0  0  0  0  0  0
  162.9540  206.3510  152.0980 C   0  0  0  0  0  2  0  0  0  0  0  0
  160.6470  210.1610  152.5000 C   0  0  0  0  0  0  0  0  0  0  0  0
  160.8680  203.9120  150.0900 C   0  0  0  0  0  0  0  0  0  0  0  0
  159.1220  209.6670  155.7120 N   0  0  0  0  0  0  0  0  0  0  0  0
  161.7090  204.4530  151.0720 C   0  0  0  0  0  3  0  0  0  0  0  0
  159.3730  211.7860  153.8430 C   0  0  0  0  0  3  0  0  0  0  0  0
  161.9410  208.8250  148.6790 C   0  0  0  0  0  3  0  0  0  0  0  0
  161.2900  207.9180  153.2950 C   0  0  0  0  0  0  0  0  0  0  0  0
  159.9390  210.4580  153.5930 C   0  0  0  0  0  0  0  0  0  0  0  0
  159.8160  209.4310  154.6380 C   0  0  0  0  0  0  0  0  0  0  0  0
  162.1580  206.6880  153.3440 C   0  0  0  0  0  2  0  0  0  0  0  0
  161.5260  206.6520  150.0540 C   0  0  0  0  0  0  0  0  0  0  0  0
  158.6510  211.9950  154.9440 C   0  0  0  0  0  3  0  0  0  0  0  0
  161.9060  208.9490  150.9900 C   0  0  2  0  0  3  0  0  0  0  0  0
  160.9800  211.0840  151.3670 C   0  0  0  0  0  2  0  0  0  0  0  0
  161.8530  210.3020  149.0820 C   0  0  1  0  0  3  0  0  0  0  0  0
  158.3300  210.8890  155.9240 C   0  0  0  0  0  2  0  0  0  0  0  0
  160.7020  206.1020  149.0610 C   0  0  0  0  0  3  0  0  0  0  0  0
  160.5290  208.1950  154.4860 N   0  0  0  0  0  2  0  0  0  0  0  0
  160.3710  204.7450  149.0810 C   0  0  0  0  0  3  0  0  0  0  0  0
  161.8690  210.2830  150.5310 N   0  0  2  0  0  0  0  0  0  0  0  0
  160.8710  201.7530  151.0740 O   0  0  0  0  0  1  0  0  0  0  0  0
  159.7780  201.9270  149.0720 O   0  0  0  0  0  0  0  0  0  0  0  0
  160.5150  202.4830  150.1120 C   0  0  0  0  0  0  0  0  0  0  0  0
  163.0640  211.0570  148.5680 C   0  0  0  0  0  2  0  0  0  0  0  0
  162.6510  212.4420  148.1100 C   0  0  0  0  0  2  0  0  0  0  0  0
  161.3260  212.3810  147.5140 N   0  0  0  0  0  2  0  0  0  0  0  0
  161.3370  213.2520  146.3520 C   0  0  0  0  0  2  0  0  0  0  0  0
  159.9130  213.4950  145.8760 C   0  0  0  0  0  2  0  0  0  0  0  0
  159.3000  212.2410  145.4640 N   0  0  0  0  0  0  0  0  0  0  0  0
  159.7070  212.0160  144.1920 O   0  0  0  0  0  1  0  0  0  0  0  0
  157.5870  212.6980  146.7390 C   0  0  0  0  0  1  0  0  0  0  0  0
  157.9590  212.4510  145.4160 O   0  0  0  0  0  0  0  0  0  0  0  0
  1 15  1  0  0  0  0
  2  5  1  0  0  0  0
  2 11  2  0  0  0  0
  3  8  1  0  0  0  0
  3  4  1  0  0  0  0
  4 14  1  0  0  0  0
  5 12  2  0  0  0  0
  6 27  1  0  0  0  0
  6  8  2  0  0  0  0
  7 20  1  0  0  0  0
  9 16  2  0  0  0  0
 10 19  1  0  0  0  0
 10  1  2  0  0  0  0
 11 14  1  0  0  0  0
 11 22  1  0  0  0  0
 12  9  1  0  0  0  0
 12 13  1  0  0  0  0
 13  7  2  0  0  0  0
 15  3  2  0  0  0  0
 16 20  1  0  0  0  0
 17  1  1  6  0  0  0
 17  2  1  0  0  0  0
 18  5  1  0  0  0  0
 19 28  1  6  0  0  0
 19 24  1  0  0  0  0
 21 23  2  0  0  0  0
 21 15  1  0  0  0  0
 22 13  1  0  0  0  0
 23  6  1  0  0  0  0
 24 17  1  0  0  0  0
 24 18  1  1  0  0  0
 26 27  2  0  0  0  0
 27 25  1  0  0  0  0
 29 28  1  0  0  0  0
 30 29  1  0  0  0  0
 31 30  1  0  0  0  0
 32 31  1  0  0  0  0
 33 32  1  0  0  0  0
 34 33  1  0  0  0  0
 36 33  1  0  0  0  0
 36 35  1  0  0  0  0
M  END
>  <MODEL>
2

>  <REMARK>
 VINA RESULT:      -7.1      0.823      1.414
  Name = 
  8 active torsions:
  status: ('A' for Active; 'I' for Inactive)
    1  A    between atoms: N_2  and  C_16
    2  A    between atoms: N_2  and  O_24
    3  A    between atoms: C_8  and  C_33
    4  A    between atoms: N_9  and  C_22
    5  A    between atoms: N_9  and  C_29
    6  A    between atoms: C_16  and  C_29
    7  A    between atoms: C_22  and  C_31
    8  A    between atoms: C_27  and  C_31
                            x       y       z     vdW  Elec       q    Type
                         _______ _______ _______ _____ _____    ______ ____

>  <TORSDO>
F 8

$$$$
=
 OpenBabel11052410253D

 36 41  0  0  1  0  0  0  0  0999 V2000
  161.7730  209.6110  150.0320 C   0  0  0  0  0  0  0  0  0  0  0  0
  160.4850  210.8260  151.8310 C   0  0  0  0  0  0  0  0  0  0  0  0
  161.7380  207.6950  151.6640 C   0  0  0  0  0  0  0  0  0  0  0  0
  162.2820  208.5730  152.7340 C   0  0  0  0  0  2  0  0  0  0  0  0
  159.7680  212.0620  151.5040 C   0  0  0  0  0  0  0  0  0  0  0  0
  160.9800  205.4940  150.9580 C   0  0  0  0  0  0  0  0  0  0  0  0
  157.4180  212.1640  154.2150 N   0  0  0  0  0  0  0  0  0  0  0  0
  161.4770  206.3500  151.9500 C   0  0  0  0  0  3  0  0  0  0  0  0
  158.0850  213.7930  151.9920 C   0  0  0  0  0  3  0  0  0  0  0  0
  162.1640  210.0250  148.6450 C   0  0  0  0  0  3  0  0  0  0  0  0
  160.2690  210.1670  152.9980 C   0  0  0  0  0  0  0  0  0  0  0  0
  158.7650  212.5220  152.2550 C   0  0  0  0  0  0  0  0  0  0  0  0
  158.4000  211.7660  153.4620 C   0  0  0  0  0  0  0  0  0  0  0  0
  161.1480  209.0980  153.5940 C   0  0  0  0  0  2  0  0  0  0  0  0
  161.4830  208.2060  150.3810 C   0  0  0  0  0  0  0  0  0  0  0  0
  157.0700  214.1690  152.7700 C   0  0  0  0  0  3  0  0  0  0  0  0
  161.4650  210.6880  150.7510 C   0  0  2  0  0  3  0  0  0  0  0  0
  160.3640  212.7230  150.2980 C   0  0  0  0  0  2  0  0  0  0  0  0
  161.8910  211.5330  148.6100 C   0  0  1  0  0  3  0  0  0  0  0  0
  156.5390  213.2960  153.8840 C   0  0  0  0  0  2  0  0  0  0  0  0
  161.0050  207.3410  149.3870 C   0  0  0  0  0  3  0  0  0  0  0  0
  159.1880  210.6240  153.8320 N   0  0  0  0  0  2  0  0  0  0  0  0
  160.7500  205.9980  149.6730 C   0  0  0  0  0  3  0  0  0  0  0  0
  161.4940  211.8610  149.9660 N   0  0  2  0  0  0  0  0  0  0  0  0
  160.7130  203.6680  152.4500 O   0  0  0  0  0  1  0  0  0  0  0  0
  160.4330  203.1840  150.2310 O   0  0  0  0  0  0  0  0  0  0  0  0
  160.7070  204.0800  151.2600 C   0  0  0  0  0  0  0  0  0  0  0  0
  163.1590  212.2860  148.2540 C   0  0  0  0  0  2  0  0  0  0  0  0
  162.8070  213.6190  147.6230 C   0  0  0  0  0  2  0  0  0  0  0  0
  161.9280  213.4000  146.4860 N   0  0  0  0  0  2  0  0  0  0  0  0
  160.8310  214.3450  146.6020 C   0  0  0  0  0  2  0  0  0  0  0  0
  159.5040  213.6060  146.5340 C   0  0  0  0  0  2  0  0  0  0  0  0
  158.9810  213.6360  145.1760 N   0  0  0  0  0  0  0  0  0  0  0  0
  157.6370  213.7620  145.2860 O   0  0  0  0  0  1  0  0  0  0  0  0
  159.4440  212.6650  143.2760 C   0  0  0  0  0  1  0  0  0  0  0  0
  159.2190  212.4160  144.6320 O   0  0  0  0  0  0  0  0  0  0  0  0
  1 15  1  0  0  0  0
  2 11  2  0  0  0  0
  3  8  1  0  0  0  0
  3  4  1  0  0  0  0
  4 14  1  0  0  0  0
  5  2  1  0  0  0  0
  5 12  2  0  0  0  0
  6 27  1  0  0  0  0
  6  8  2  0  0  0  0
  9 12  1  0  0  0  0
  9 16  2  0  0  0  0
 10  1  2  0  0  0  0
 11 14  1  0  0  0  0
 11 22  1  0  0  0  0
 12 13  1  0  0  0  0
 13 22  1  0  0  0  0
 13  7  2  0  0  0  0
 15  3  2  0  0  0  0
 16 20  1  0  0  0  0
 17  1  1  6  0  0  0
 17  2  1  0  0  0  0
 18  5  1  0  0  0  0
 19 28  1  1  0  0  0
 19 10  1  0  0  0  0
 19 24  1  0  0  0  0
 20  7  1  0  0  0  0
 21 23  2  0  0  0  0
 21 15  1  0  0  0  0
 23  6  1  0  0  0  0
 24 18  1  6  0  0  0
 24 17  1  0  0  0  0
 26 27  2  0  0  0  0
 27 25  1  0  0  0  0
 29 28  1  0  0  0  0
 30 31  1  0  0  0  0
 30 29  1  0  0  0  0
 32 31  1  0  0  0  0
 33 34  1  0  0  0  0
 33 32  1  0  0  0  0
 35 36  1  0  0  0  0
 36 33  1  0  0  0  0
M  END
>  <MODEL>
3

>  <REMARK>
 VINA RESULT:      -6.2      1.817      2.340
  Name = 
  8 active torsions:
  status: ('A' for Active; 'I' for Inactive)
    1  A    between atoms: N_2  and  C_16
    2  A    between atoms: N_2  and  O_24
    3  A    between atoms: C_8  and  C_33
    4  A    between atoms: N_9  and  C_22
    5  A    between atoms: N_9  and  C_29
    6  A    between atoms: C_16  and  C_29
    7  A    between atoms: C_22  and  C_31
    8  A    between atoms: C_27  and  C_31
                            x       y       z     vdW  Elec       q    Type
                         _______ _______ _______ _____ _____    ______ ____

>  <TORSDO>
F 8

$$$$
=
 OpenBabel11052410253D

 36 41  0  0  1  0  0  0  0  0999 V2000
  160.7210  210.3260  153.4120 C   0  0  0  0  0  0  0  0  0  0  0  0
  161.3480  208.3880  151.9220 C   0  0  0  0  0  0  0  0  0  0  0  0
  160.7640  211.6480  151.2700 C   0  0  0  0  0  0  0  0  0  0  0  0
  162.1290  211.1430  150.9650 C   0  0  0  0  0  2  0  0  0  0  0  0
  161.2030  207.0150  152.4150 C   0  0  0  0  0  0  0  0  0  0  0  0
  158.8700  213.0430  150.6500 C   0  0  0  0  0  0  0  0  0  0  0  0
  161.1020  205.2350  149.2990 N   0  0  0  0  0  0  0  0  0  0  0  0
  160.1490  212.5370  150.3820 C   0  0  0  0  0  3  0  0  0  0  0  0
  161.0480  204.5820  152.0590 C   0  0  0  0  0  3  0  0  0  0  0  0
  160.4050  210.3860  154.8760 C   0  0  0  0  0  3  0  0  0  0  0  0
  161.5570  208.6520  150.6070 C   0  0  0  0  0  0  0  0  0  0  0  0
  161.1160  205.9680  151.5900 C   0  0  0  0  0  0  0  0  0  0  0  0
  161.2000  206.2190  150.1430 C   0  0  0  0  0  0  0  0  0  0  0  0
  162.0390  209.9560  150.0260 C   0  0  0  0  0  2  0  0  0  0  0  0
  160.0940  211.2380  152.4340 C   0  0  0  0  0  0  0  0  0  0  0  0
  160.9310  203.5930  151.1720 C   0  0  0  0  0  3  0  0  0  0  0  0
  161.3760  209.2000  153.1410 C   0  0  2  0  0  3  0  0  0  0  0  0
  161.2420  206.9770  153.9130 C   0  0  0  0  0  2  0  0  0  0  0  0
  160.8550  209.0230  155.4150 C   0  0  1  0  0  3  0  0  0  0  0  0
  160.7940  203.8500  149.6880 C   0  0  0  0  0  2  0  0  0  0  0  0
  158.8230  211.7630  152.7090 C   0  0  0  0  0  3  0  0  0  0  0  0
  161.4600  207.5530  149.6820 N   0  0  0  0  0  2  0  0  0  0  0  0
  158.2130  212.6540  151.8230 C   0  0  0  0  0  3  0  0  0  0  0  0
  161.4740  208.3700  154.2780 N   0  0  2  0  0  0  0  0  0  0  0  0
  158.8300  214.3660  148.6800 O   0  0  0  0  0  0  0  0  0  0  0  0
  156.9360  214.4390  149.9610 O   0  0  0  0  0  1  0  0  0  0  0  0
  158.2250  213.9790  149.7150 C   0  0  0  0  0  0  0  0  0  0  0  0
  161.8800  209.2100  156.5170 C   0  0  0  0  0  2  0  0  0  0  0  0
  162.4000  210.6340  156.5020 C   0  0  0  0  0  2  0  0  0  0  0  0
  163.7230  210.6730  157.1030 N   0  0  0  0  0  2  0  0  0  0  0  0
  164.2830  211.9840  156.8230 C   0  0  0  0  0  2  0  0  0  0  0  0
  165.7390  212.0270  157.2610 C   0  0  0  0  0  2  0  0  0  0  0  0
  166.5560  212.6500  156.2290 N   0  0  0  0  0  0  0  0  0  0  0  0
  167.7780  212.0740  156.3090 O   0  0  0  0  0  1  0  0  0  0  0  0
  167.7130  214.4330  155.7310 C   0  0  0  0  0  1  0  0  0  0  0  0
  166.7100  213.9520  156.5760 O   0  0  0  0  0  0  0  0  0  0  0  0
  1 10  2  0  0  0  0
  2  5  1  0  0  0  0
  3 15  1  0  0  0  0
  4  3  1  0  0  0  0
  5 18  1  0  0  0  0
  6 23  2  0  0  0  0
  7 20  1  0  0  0  0
  7 13  2  0  0  0  0
  8  6  1  0  0  0  0
  8  3  2  0  0  0  0
 10 19  1  0  0  0  0
 11  2  2  0  0  0  0
 12  9  1  0  0  0  0
 12  5  2  0  0  0  0
 13 12  1  0  0  0  0
 14 11  1  0  0  0  0
 14  4  1  0  0  0  0
 15 21  2  0  0  0  0
 15  1  1  0  0  0  0
 16  9  2  0  0  0  0
 17  2  1  6  0  0  0
 17  1  1  0  0  0  0
 17 24  1  0  0  0  0
 19 28  1  1  0  0  0
 20 16  1  0  0  0  0
 22 13  1  0  0  0  0
 22 11  1  0  0  0  0
 23 21  1  0  0  0  0
 24 18  1  6  0  0  0
 24 19  1  0  0  0  0
 25 27  2  0  0  0  0
 27 26  1  0  0  0  0
 27  6  1  0  0  0  0
 29 28  1  0  0  0  0
 29 30  1  0  0  0  0
 31 30  1  0  0  0  0
 31 32  1  0  0  0  0
 33 34  1  0  0  0  0
 33 36  1  0  0  0  0
 33 32  1  0  0  0  0
 35 36  1  0  0  0  0
M  END
>  <MODEL>
4

>  <REMARK>
 VINA RESULT:      -6.2      4.696      8.582
  Name = 
  8 active torsions:
  status: ('A' for Active; 'I' for Inactive)
    1  A    between atoms: N_2  and  C_16
    2  A    between atoms: N_2  and  O_24
    3  A    between atoms: C_8  and  C_33
    4  A    between atoms: N_9  and  C_22
    5  A    between atoms: N_9  and  C_29
    6  A    between atoms: C_16  and  C_29
    7  A    between atoms: C_22  and  C_31
    8  A    between atoms: C_27  and  C_31
                            x       y       z     vdW  Elec       q    Type
                         _______ _______ _______ _____ _____    ______ ____

>  <TORSDO>
F 8

$$$$
=
 OpenBabel11052410253D

 36 41  0  0  1  0  0  0  0  0999 V2000
  160.7700  209.6760  153.2930 C   0  0  0  0  0  0  0  0  0  0  0  0
  161.4270  207.8860  151.6390 C   0  0  0  0  0  0  0  0  0  0  0  0
  161.0320  211.2250  151.3260 C   0  0  0  0  0  0  0  0  0  0  0  0
  162.3940  210.6890  151.0630 C   0  0  0  0  0  2  0  0  0  0  0  0
  161.1880  206.4760  151.9580 C   0  0  0  0  0  0  0  0  0  0  0  0
  159.2520  212.7740  150.7370 C   0  0  0  0  0  0  0  0  0  0  0  0
  161.2510  205.0630  148.6590 N   0  0  0  0  0  0  0  0  0  0  0  0
  160.5250  212.2380  150.5040 C   0  0  0  0  0  3  0  0  0  0  0  0
  160.9580  204.1090  151.3140 C   0  0  0  0  0  3  0  0  0  0  0  0
  160.3450  209.5880  154.7280 C   0  0  0  0  0  3  0  0  0  0  0  0
  161.7470  208.2860  150.3810 C   0  0  0  0  0  0  0  0  0  0  0  0
  161.1200  205.5340  151.0140 C   0  0  0  0  0  0  0  0  0  0  0  0
  161.3250  205.9410  149.6160 C   0  0  0  0  0  0  0  0  0  0  0  0
  162.3270  209.6200  149.9900 C   0  0  0  0  0  2  0  0  0  0  0  0
  160.2580  210.7220  152.3840 C   0  0  0  0  0  0  0  0  0  0  0  0
  160.8680  203.2330  150.3140 C   0  0  0  0  0  3  0  0  0  0  0  0
  161.3960  208.5550  152.9420 C   0  0  2  0  0  3  0  0  0  0  0  0
  161.1090  206.2690  153.4410 C   0  0  0  0  0  2  0  0  0  0  0  0
  160.6950  208.1520  155.1380 C   0  0  1  0  0  3  0  0  0  0  0  0
  160.8560  203.6600  148.8640 C   0  0  0  0  0  2  0  0  0  0  0  0
  158.9930  211.2760  152.6260 C   0  0  0  0  0  3  0  0  0  0  0  0
  161.6750  207.3030  149.3310 N   0  0  0  0  0  2  0  0  0  0  0  0
  158.4910  212.2900  151.8080 C   0  0  0  0  0  3  0  0  0  0  0  0
  161.3710  207.6000  153.9800 N   0  0  2  0  0  0  0  0  0  0  0  0
  159.4510  214.3770  148.9990 O   0  0  0  0  0  0  0  0  0  0  0  0
  157.4000  214.2580  150.0060 O   0  0  0  0  0  1  0  0  0  0  0  0
  158.7200  213.8390  149.8720 C   0  0  0  0  0  0  0  0  0  0  0  0
  161.6400  208.1620  156.3240 C   0  0  0  0  0  2  0  0  0  0  0  0
  162.2840  209.5290  156.4580 C   0  0  0  0  0  2  0  0  0  0  0  0
  161.4310  210.3890  157.2610 N   0  0  0  0  0  2  0  0  0  0  0  0
  161.7160  211.7590  156.8720 C   0  0  0  0  0  2  0  0  0  0  0  0
  160.5200  212.6450  157.1890 C   0  0  0  0  0  2  0  0  0  0  0  0
  159.4880  212.4760  156.1760 N   0  0  0  0  0  0  0  0  0  0  0  0
  159.4650  213.6240  155.4580 O   0  0  0  0  0  1  0  0  0  0  0  0
  157.4150  211.8490  155.8990 C   0  0  0  0  0  1  0  0  0  0  0  0
  158.3000  212.3970  156.8290 O   0  0  0  0  0  0  0  0  0  0  0  0
  1 10  2  0  0  0  0
  2  5  1  0  0  0  0
  3 15  1  0  0  0  0
  4  3  1  0  0  0  0
  5 18  1  0  0  0  0
  6 23  2  0  0  0  0
  7 20  1  0  0  0  0
  7 13  2  0  0  0  0
  8  6  1  0  0  0  0
  8  3  2  0  0  0  0
 10 19  1  0  0  0  0
 11  2  2  0  0  0  0
 12  9  1  0  0  0  0
 12  5  2  0  0  0  0
 13 12  1  0  0  0  0
 14 11  1  0  0  0  0
 14  4  1  0  0  0  0
 15 21  2  0  0  0  0
 15  1  1  0  0  0  0
 16  9  2  0  0  0  0
 17  2  1  6  0  0  0
 17  1  1  0  0  0  0
 17 24  1  0  0  0  0
 19 28  1  1  0  0  0
 20 16  1  0  0  0  0
 22 13  1  0  0  0  0
 22 11  1  0  0  0  0
 23 21  1  0  0  0  0
 24 18  1  6  0  0  0
 24 19  1  0  0  0  0
 25 27  2  0  0  0  0
 27 26  1  0  0  0  0
 27  6  1  0  0  0  0
 28 29  1  0  0  0  0
 29 30  1  0  0  0  0
 31 32  1  0  0  0  0
 31 30  1  0  0  0  0
 33 36  1  0  0  0  0
 33 32  1  0  0  0  0
 34 33  1  0  0  0  0
 35 36  1  0  0  0  0
M  END
>  <MODEL>
5

>  <REMARK>
 VINA RESULT:      -6.0      4.134      8.429
  Name = 
  8 active torsions:
  status: ('A' for Active; 'I' for Inactive)
    1  A    between atoms: N_2  and  C_16
    2  A    between atoms: N_2  and  O_24
    3  A    between atoms: C_8  and  C_33
    4  A    between atoms: N_9  and  C_22
    5  A    between atoms: N_9  and  C_29
    6  A    between atoms: C_16  and  C_29
    7  A    between atoms: C_22  and  C_31
    8  A    between atoms: C_27  and  C_31
                            x       y       z     vdW  Elec       q    Type
                         _______ _______ _______ _____ _____    ______ ____

>  <TORSDO>
F 8

$$$$
=
 OpenBabel11052410253D

 36 41  0  0  1  0  0  0  0  0999 V2000
  160.9080  211.2440  151.8180 C   0  0  0  0  0  0  0  0  0  0  0  0
  161.4980  209.0040  150.8150 C   0  0  0  0  0  0  0  0  0  0  0  0
  161.1210  212.0690  149.4500 C   0  0  0  0  0  0  0  0  0  0  0  0
  162.4690  211.4520  149.3370 C   0  0  0  0  0  2  0  0  0  0  0  0
  161.2560  207.7780  151.5800 C   0  0  0  0  0  0  0  0  0  0  0  0
  159.3360  213.3770  148.4390 C   0  0  0  0  0  0  0  0  0  0  0  0
  161.2030  205.3730  148.9160 N   0  0  0  0  0  0  0  0  0  0  0  0
  160.5970  212.7710  148.3580 C   0  0  0  0  0  3  0  0  0  0  0  0
  160.9860  205.3350  151.7440 C   0  0  0  0  0  3  0  0  0  0  0  0
  160.5280  211.6320  153.2150 C   0  0  0  0  0  3  0  0  0  0  0  0
  161.7810  208.9700  149.4880 C   0  0  0  0  0  0  0  0  0  0  0  0
  161.1510  206.5830  150.9940 C   0  0  0  0  0  0  0  0  0  0  0  0
  161.3150  206.5110  149.5350 C   0  0  0  0  0  0  0  0  0  0  0  0
  162.3590  210.0950  148.6700 C   0  0  0  0  0  2  0  0  0  0  0  0
  160.3770  211.9490  150.6340 C   0  0  0  0  0  0  0  0  0  0  0  0
  160.8570  204.1840  151.0840 C   0  0  0  0  0  3  0  0  0  0  0  0
  161.5130  210.0590  151.8320 C   0  0  2  0  0  3  0  0  0  0  0  0
  161.2230  208.0630  153.0520 C   0  0  0  0  0  2  0  0  0  0  0  0
  160.8790  210.4000  154.0580 C   0  0  1  0  0  3  0  0  0  0  0  0
  160.8030  204.1190  149.5740 C   0  0  0  0  0  2  0  0  0  0  0  0
  159.1250  212.5750  150.7180 C   0  0  0  0  0  3  0  0  0  0  0  0
  161.6670  207.7020  148.8150 N   0  0  0  0  0  2  0  0  0  0  0  0
  158.6060  213.2790  149.6290 C   0  0  0  0  0  3  0  0  0  0  0  0
  161.5140  209.4910  153.1240 N   0  0  2  0  0  0  0  0  0  0  0  0
  157.5740  214.4530  147.2710 O   0  0  0  0  0  1  0  0  0  0  0  0
  159.6040  214.4530  146.2180 O   0  0  0  0  0  0  0  0  0  0  0  0
  158.7860  214.1150  147.2910 C   0  0  0  0  0  0  0  0  0  0  0  0
  161.8610  210.7770  155.1510 C   0  0  0  0  0  2  0  0  0  0  0  0
  161.1080  211.1780  156.4050 C   0  0  0  0  0  2  0  0  0  0  0  0
  159.8140  210.5170  156.4250 N   0  0  0  0  0  2  0  0  0  0  0  0
  158.8610  211.4570  156.9880 C   0  0  0  0  0  2  0  0  0  0  0  0
  158.5010  212.5110  155.9520 C   0  0  0  0  0  2  0  0  0  0  0  0
  157.5290  211.9770  155.0090 N   0  0  0  0  0  0  0  0  0  0  0  0
  156.9310  213.0450  154.4300 O   0  0  0  0  0  1  0  0  0  0  0  0
  155.5550  211.0620  154.8270 C   0  0  0  0  0  1  0  0  0  0  0  0
  156.5770  211.3400  155.7370 O   0  0  0  0  0  0  0  0  0  0  0  0
  1 17  1  0  0  0  0
  1 10  2  0  0  0  0
  2  5  1  0  0  0  0
  3 15  1  0  0  0  0
  4  3  1  0  0  0  0
  5 18  1  0  0  0  0
  6 23  2  0  0  0  0
  7 13  2  0  0  0  0
  7 20  1  0  0  0  0
  8  6  1  0  0  0  0
  8  3  2  0  0  0  0
 10 19  1  0  0  0  0
 11  2  2  0  0  0  0
 12  5  2  0  0  0  0
 12  9  1  0  0  0  0
 13 12  1  0  0  0  0
 14  4  1  0  0  0  0
 14 11  1  0  0  0  0
 15 21  2  0  0  0  0
 15  1  1  0  0  0  0
 16  9  2  0  0  0  0
 17  2  1  6  0  0  0
 17 24  1  0  0  0  0
 19 28  1  1  0  0  0
 20 16  1  0  0  0  0
 22 11  1  0  0  0  0
 22 13  1  0  0  0  0
 23 21  1  0  0  0  0
 24 18  1  6  0  0  0
 24 19  1  0  0  0  0
 25 27  1  0  0  0  0
 26 27  2  0  0  0  0
 27  6  1  0  0  0  0
 28 29  1  0  0  0  0
 29 30  1  0  0  0  0
 30 31  1  0  0  0  0
 32 31  1  0  0  0  0
 33 36  1  0  0  0  0
 33 32  1  0  0  0  0
 34 33  1  0  0  0  0
 35 36  1  0  0  0  0
M  END
>  <MODEL>
6

>  <REMARK>
 VINA RESULT:      -5.5      3.563      8.275
  Name = 
  8 active torsions:
  status: ('A' for Active; 'I' for Inactive)
    1  A    between atoms: N_2  and  C_16
    2  A    between atoms: N_2  and  O_24
    3  A    between atoms: C_8  and  C_33
    4  A    between atoms: N_9  and  C_22
    5  A    between atoms: N_9  and  C_29
    6  A    between atoms: C_16  and  C_29
    7  A    between atoms: C_22  and  C_31
    8  A    between atoms: C_27  and  C_31
                            x       y       z     vdW  Elec       q    Type
                         _______ _______ _______ _____ _____    ______ ____

>  <TORSDO>
F 8

$$$$
