=
 OpenBabel11052409433D

 49 54  0  0  1  0  0  0  0  0999 V2000
  160.5940  209.2330  153.9710 C   0  0  1  0  0  3  0  0  0  0  0  0
  160.8750  204.2140  151.6430 C   0  0  0  0  0  0  0  0  0  0  0  0
  160.9320  202.7190  149.2410 C   0  0  0  0  0  0  0  0  0  0  0  0
  160.9570  209.3490  152.4900 C   0  0  0  0  0  2  0  0  0  0  0  0
  161.2960  204.8240  150.4270 C   0  0  0  0  0  0  0  0  0  0  0  0
  161.6590  208.0430  152.0940 C   0  0  2  0  0  3  0  0  0  0  0  0
  160.6800  204.9860  152.9290 C   0  0  2  0  0  3  0  0  0  0  0  0
  160.5250  202.1220  150.4390 C   0  0  0  0  0  3  0  0  0  0  0  0
  160.7500  207.2810  155.5640 O   0  0  0  0  0  1  0  0  0  0  0  0
  160.9870  207.3560  150.8840 C   0  0  2  0  0  3  0  0  0  0  0  0
  161.9100  205.7580  153.3630 C   0  0  0  0  0  2  0  0  0  0  0  0
  160.4910  202.8630  151.6190 C   0  0  0  0  0  3  0  0  0  0  0  0
  161.5640  207.2090  153.3210 C   0  0  0  0  0  0  0  0  0  0  0  0
  161.3220  204.0630  149.2520 C   0  0  0  0  0  3  0  0  0  0  0  0
  160.9910  207.8520  154.3200 C   0  0  0  0  0  0  0  0  0  0  0  0
  163.1920  206.2750  150.6820 O   0  0  0  0  0  1  0  0  0  0  0  0
  160.2550  204.1680  153.9770 O   0  0  0  0  0  1  0  0  0  0  0  0
  161.8470  206.2180  150.3040 C   0  0  1  0  0  3  0  0  0  0  0  0
  157.6360  213.8470  154.7800 C   0  0  0  0  0  2  0  0  0  0  0  0
  156.9330  212.6310  154.8740 O   0  0  0  0  0  0  0  0  0  0  0  0
  158.3080  210.7200  155.1140 C   0  0  0  0  0  2  0  0  0  0  0  0
  159.2310  212.7900  156.4920 C   0  0  2  0  0  3  0  0  0  0  0  0
  160.8400  211.2090  155.5860 C   0  0  0  0  0  0  0  0  0  0  0  0
  161.6330  212.0600  156.1450 N   0  0  0  0  0  0  0  0  0  0  0  0
  159.0590  213.7810  155.3400 C   0  0  0  0  0  2  0  0  0  0  0  0
  160.8360  213.1790  157.2600 S   0  0  0  0  0  0  0  0  0  0  0  0
  159.4050  211.3440  155.9980 C   0  0  2  0  0  3  0  0  0  0  0  0
  157.6520  211.6860  154.1400 C   0  0  0  0  0  2  0  0  0  0  0  0
  161.3800  210.1830  154.7420 N   0  0  0  0  0  2  0  0  0  0  0  0
  160.9360  201.9700  148.0160 N   0  0  0  0  0  0  0  0  0  0  0  0
  160.0920  202.2990  146.9460 N   0  0  0  0  0  2  0  0  0  0  0  0
  161.3440  200.2950  146.4530 C   0  0  0  0  0  2  0  0  0  0  0  0
  160.1290  201.1320  146.0740 C   0  0  2  0  0  3  0  0  0  0  0  0
  161.6880  200.7450  147.8420 C   0  0  0  0  0  2  0  0  0  0  0  0
  160.1860  201.5670  144.6190 C   0  0  0  0  0  2  0  0  0  0  0  0
  159.9060  203.0550  144.5050 C   0  0  0  0  0  2  0  0  0  0  0  0
  161.1010  203.7900  144.7080 O   0  0  0  0  0  0  0  0  0  0  0  0
  161.0480  205.1730  144.8540 C   0  0  0  0  0  3  0  0  0  0  0  0
  160.4150  205.6810  145.8150 O   0  0  0  0  0  0  0  0  0  0  0  0
  160.7290  208.3640  149.7720 C   0  0  0  0  0  2  0  0  0  0  0  0
  161.7800  208.2490  148.6840 C   0  0  0  0  0  2  0  0  0  0  0  0
  162.5700  209.5400  148.5990 C   0  0  0  0  0  2  0  0  0  0  0  0
  161.6970  210.7240  149.0000 C   0  0  0  0  0  2  0  0  0  0  0  0
  161.7430  211.8660  147.9830 C   0  0  2  0  0  3  0  0  0  0  0  0
  163.1530  212.4080  147.7870 C   0  0  0  0  0  1  0  0  0  0  0  0
  160.0920  213.7200  147.1680 C   0  0  0  0  0  1  0  0  0  0  0  0
  160.0890  213.4330  150.6750 O   0  0  0  0  0  0  0  0  0  0  0  0
  160.4140  213.2040  149.5010 C   0  0  0  0  0  0  0  0  0  0  0  0
  160.7560  212.9620  148.2670 C   0  0  0  0  0  0  0  0  0  0  0  0
  1 15  1  0  0  0  0
  1 29  1  1  0  0  0
  2  7  1  0  0  0  0
  3 14  2  0  0  0  0
  3  8  1  0  0  0  0
  4  1  1  0  0  0  0
  5  2  2  0  0  0  0
  6  4  1  1  0  0  0
  6 13  1  0  0  0  0
  7 11  1  0  0  0  0
  7 17  1  1  0  0  0
  8 12  2  0  0  0  0
 10 40  1  6  0  0  0
 10  6  1  0  0  0  0
 12  2  1  0  0  0  0
 13 11  1  0  0  0  0
 13 15  2  0  0  0  0
 14  5  1  0  0  0  0
 15  9  1  0  0  0  0
 18  5  1  0  0  0  0
 18 16  1  1  0  0  0
 18 10  1  0  0  0  0
 19 20  1  0  0  0  0
 19 25  1  0  0  0  0
 22 25  1  6  0  0  0
 22 26  1  0  0  0  0
 23 27  1  0  0  0  0
 23 24  2  0  0  0  0
 24 26  1  0  0  0  0
 27 21  1  6  0  0  0
 27 22  1  0  0  0  0
 28 20  1  0  0  0  0
 28 21  1  0  0  0  0
 29 23  1  0  0  0  0
 30  3  1  0  0  0  0
 31 30  1  0  0  0  0
 32 34  1  0  0  0  0
 33 35  1  6  0  0  0
 33 32  1  0  0  0  0
 33 31  1  0  0  0  0
 34 30  1  0  0  0  0
 36 35  1  0  0  0  0
 36 37  1  0  0  0  0
 37 38  1  0  0  0  0
 38 39  2  0  0  0  0
 41 40  1  0  0  0  0
 42 41  1  0  0  0  0
 42 43  1  0  0  0  0
 44 45  1  1  0  0  0
 44 49  1  0  0  0  0
 44 43  1  0  0  0  0
 46 49  1  0  0  0  0
 48 47  2  0  0  0  0
 49 48  2  0  0  0  0
M  END
>  <MODEL>
1

>  <REMARK>
 VINA RESULT:      -4.5      0.000      0.000
  Name = 
  12 active torsions:
  status: ('A' for Active; 'I' for Inactive)
    1  A    between atoms: C_1  and  C_24
    2  A    between atoms: C_1  and  C_27
    3  A    between atoms: N_2  and  C_14
    4  A    between atoms: O_4  and  C_13
    5  A    between atoms: O_4  and  C_29
    6  A    between atoms: C_7  and  C_9
    7  A    between atoms: C_9  and  C_29
    8  A    between atoms: C_11  and  N_48
    9  A    between atoms: C_27  and  C_40
   10  A    between atoms: C_32  and  C_38
   11  A    between atoms: C_32  and  C_41
   12  A    between atoms: C_40  and  C_41
                            x       y       z     vdW  Elec       q    Type
                         _______ _______ _______ _____ _____    ______ ____

>  <TORSDO>
F 12

$$$$
=
 OpenBabel11052409433D

 49 54  0  0  1  0  0  0  0  0999 V2000
  160.5440  209.3660  153.9490 C   0  0  1  0  0  3  0  0  0  0  0  0
  160.9670  204.2090  151.9700 C   0  0  0  0  0  0  0  0  0  0  0  0
  161.1180  202.5590  149.6760 C   0  0  0  0  0  0  0  0  0  0  0  0
  160.9490  209.3890  152.4750 C   0  0  0  0  0  2  0  0  0  0  0  0
  161.4160  204.7440  150.7290 C   0  0  0  0  0  0  0  0  0  0  0  0
  161.6820  208.0720  152.1860 C   0  0  2  0  0  3  0  0  0  0  0  0
  160.7230  205.0610  153.1950 C   0  0  2  0  0  3  0  0  0  0  0  0
  160.6850  202.0360  150.8980 C   0  0  0  0  0  3  0  0  0  0  0  0
  160.6810  207.5270  155.6720 O   0  0  0  0  0  1  0  0  0  0  0  0
  161.0560  207.2960  151.0060 C   0  0  2  0  0  3  0  0  0  0  0  0
  161.9280  205.8810  153.6120 C   0  0  0  0  0  2  0  0  0  0  0  0
  160.6040  202.8530  152.0250 C   0  0  0  0  0  3  0  0  0  0  0  0
  161.5620  207.3190  153.4630 C   0  0  0  0  0  0  0  0  0  0  0  0
  161.4880  203.9070  149.6080 C   0  0  0  0  0  3  0  0  0  0  0  0
  160.9510  208.0180  154.4000 C   0  0  0  0  0  0  0  0  0  0  0  0
  163.2820  206.2400  150.9400 O   0  0  0  0  0  1  0  0  0  0  0  0
  160.2790  204.3070  154.2830 O   0  0  0  0  0  1  0  0  0  0  0  0
  161.9500  206.1350  150.5280 C   0  0  1  0  0  3  0  0  0  0  0  0
  157.2500  213.6930  155.0050 C   0  0  0  0  0  2  0  0  0  0  0  0
  156.6650  212.4190  155.1320 O   0  0  0  0  0  0  0  0  0  0  0  0
  158.2170  210.6360  155.2580 C   0  0  0  0  0  2  0  0  0  0  0  0
  159.0440  212.7730  156.5960 C   0  0  2  0  0  3  0  0  0  0  0  0
  160.7220  211.3470  155.5660 C   0  0  0  0  0  0  0  0  0  0  0  0
  161.4720  212.2620  156.0820 N   0  0  0  0  0  0  0  0  0  0  0  0
  158.7080  213.7520  155.4690 C   0  0  0  0  0  2  0  0  0  0  0  0
  160.6550  213.2990  157.2600 S   0  0  0  0  0  0  0  0  0  0  0  0
  159.3110  211.3510  156.0750 C   0  0  2  0  0  3  0  0  0  0  0  0
  157.4140  211.5460  154.3410 C   0  0  0  0  0  2  0  0  0  0  0  0
  161.2930  210.3780  154.6760 N   0  0  0  0  0  2  0  0  0  0  0  0
  161.1690  201.7310  148.5040 N   0  0  0  0  0  0  0  0  0  0  0  0
  160.2870  201.9140  147.4300 N   0  0  0  0  0  2  0  0  0  0  0  0
  161.6970  199.9920  147.0500 C   0  0  0  0  0  2  0  0  0  0  0  0
  160.4110  200.6970  146.6380 C   0  0  2  0  0  3  0  0  0  0  0  0
  162.0200  200.5630  148.3990 C   0  0  0  0  0  2  0  0  0  0  0  0
  160.4130  201.0350  145.1570 C   0  0  0  0  0  2  0  0  0  0  0  0
  160.4320  202.5400  144.9610 C   0  0  0  0  0  2  0  0  0  0  0  0
  159.4160  202.9230  144.0500 O   0  0  0  0  0  0  0  0  0  0  0  0
  158.1620  203.2930  144.5250 C   0  0  0  0  0  3  0  0  0  0  0  0
  157.4930  204.1700  143.9220 O   0  0  0  0  0  0  0  0  0  0  0  0
  160.8170  208.2220  149.8220 C   0  0  0  0  0  2  0  0  0  0  0  0
  162.1160  208.8510  149.3560 C   0  0  0  0  0  2  0  0  0  0  0  0
  162.6330  208.1100  148.1380 C   0  0  0  0  0  2  0  0  0  0  0  0
  161.8550  206.8150  147.9350 C   0  0  0  0  0  2  0  0  0  0  0  0
  161.3080  206.6680  146.5140 C   0  0  2  0  0  3  0  0  0  0  0  0
  159.8200  206.3400  146.4980 C   0  0  0  0  0  1  0  0  0  0  0  0
  163.1480  204.8330  146.2450 C   0  0  0  0  0  1  0  0  0  0  0  0
  161.5360  205.5100  143.1910 O   0  0  0  0  0  0  0  0  0  0  0  0
  161.8120  205.6120  144.3950 C   0  0  0  0  0  0  0  0  0  0  0  0
  162.1000  205.7190  145.6610 C   0  0  0  0  0  0  0  0  0  0  0  0
  1 15  1  0  0  0  0
  1 29  1  1  0  0  0
  2 12  1  0  0  0  0
  2  7  1  0  0  0  0
  3  8  1  0  0  0  0
  4  1  1  0  0  0  0
  5  2  2  0  0  0  0
  6  4  1  1  0  0  0
  6 13  1  0  0  0  0
  7 11  1  0  0  0  0
  7 17  1  1  0  0  0
  8 12  2  0  0  0  0
 10 40  1  6  0  0  0
 10  6  1  0  0  0  0
 13 11  1  0  0  0  0
 13 15  2  0  0  0  0
 14  3  2  0  0  0  0
 14  5  1  0  0  0  0
 15  9  1  0  0  0  0
 18  5  1  0  0  0  0
 18 16  1  1  0  0  0
 18 10  1  0  0  0  0
 19 20  1  0  0  0  0
 19 25  1  0  0  0  0
 22 25  1  6  0  0  0
 22 26  1  0  0  0  0
 23 27  1  0  0  0  0
 23 24  2  0  0  0  0
 24 26  1  0  0  0  0
 27 21  1  6  0  0  0
 27 22  1  0  0  0  0
 28 20  1  0  0  0  0
 28 21  1  0  0  0  0
 29 23  1  0  0  0  0
 30  3  1  0  0  0  0
 31 30  1  0  0  0  0
 32 34  1  0  0  0  0
 33 35  1  6  0  0  0
 33 32  1  0  0  0  0
 33 31  1  0  0  0  0
 34 30  1  0  0  0  0
 36 35  1  0  0  0  0
 37 38  1  0  0  0  0
 37 36  1  0  0  0  0
 39 38  2  0  0  0  0
 41 40  1  0  0  0  0
 42 41  1  0  0  0  0
 43 42  1  0  0  0  0
 44 45  1  1  0  0  0
 44 43  1  0  0  0  0
 47 48  2  0  0  0  0
 48 49  2  0  0  0  0
 49 46  1  0  0  0  0
 49 44  1  0  0  0  0
M  END
>  <MODEL>
2

>  <REMARK>
 VINA RESULT:      -2.1      1.807      3.169
  Name = 
  12 active torsions:
  status: ('A' for Active; 'I' for Inactive)
    1  A    between atoms: C_1  and  C_24
    2  A    between atoms: C_1  and  C_27
    3  A    between atoms: N_2  and  C_14
    4  A    between atoms: O_4  and  C_13
    5  A    between atoms: O_4  and  C_29
    6  A    between atoms: C_7  and  C_9
    7  A    between atoms: C_9  and  C_29
    8  A    between atoms: C_11  and  N_48
    9  A    between atoms: C_27  and  C_40
   10  A    between atoms: C_32  and  C_38
   11  A    between atoms: C_32  and  C_41
   12  A    between atoms: C_40  and  C_41
                            x       y       z     vdW  Elec       q    Type
                         _______ _______ _______ _____ _____    ______ ____

>  <TORSDO>
F 12

$$$$
