=
 OpenBabel11052411073D

 34 35  0  0  1  0  0  0  0  0999 V2000
  161.6000  210.9480  151.9140 C   0  0  1  0  0  3  0  0  0  0  0  0
  162.2010  209.0480  150.8510 C   0  0  0  0  0  0  0  0  0  0  0  0
  162.1260  208.6000  152.2670 C   0  0  1  0  0  3  0  0  0  0  0  0
  161.8970  205.8900  149.1720 O   0  0  0  0  0  0  0  0  0  0  0  0
  160.2320  211.5970  151.8180 C   0  0  0  0  0  1  0  0  0  0  0  0
  161.5710  209.8290  152.9060 C   0  0  0  0  0  0  0  0  0  0  0  0
  161.2150  206.4530  151.3850 C   0  0  0  0  0  0  0  0  0  0  0  0
  160.3880  204.9070  151.5810 Cl  0  0  0  0  0  0  0  0  0  0  0  0
  161.9120  210.2890  150.6550 N   0  0  0  0  0  0  0  0  0  0  0  0
  160.6770  207.0210  153.7270 C   0  0  0  0  0  1  0  0  0  0  0  0
  161.2710  207.3520  152.3950 C   0  0  0  0  0  0  0  0  0  0  0  0
  161.7110  210.0550  154.1840 C   0  0  0  0  0  0  0  0  0  0  0  0
  162.2460  208.1060  149.7860 N   0  0  0  0  0  2  0  0  0  0  0  0
  161.8140  206.7710  150.0650 C   0  0  0  0  0  0  0  0  0  0  0  0
  161.8590  210.2880  155.4610 C   0  0  0  0  0  0  0  0  0  0  0  0
  163.3490  210.8480  157.2330 O   0  0  0  0  0  0  0  0  0  0  0  0
  163.1680  210.7480  155.9900 C   0  0  0  0  0  0  0  0  0  0  0  0
  164.3010  211.0960  155.0780 C   0  0  0  0  0  2  0  0  0  0  0  0
  165.2880  211.8890  155.7920 N   0  0  0  0  0  2  0  0  0  0  0  0
  166.8560  211.7940  154.0680 O   0  0  0  0  0  0  0  0  0  0  0  0
  166.5480  212.2280  155.2110 C   0  0  0  0  0  0  0  0  0  0  0  0
  167.4300  213.0410  155.9230 O   0  0  0  0  0  0  0  0  0  0  0  0
  167.4210  214.4530  155.7880 C   0  0  0  0  0  1  0  0  0  0  0  0
  160.6530  210.1120  156.3460 C   0  0  2  0  0  3  0  0  0  0  0  0
  161.1210  207.8530  157.2150 O   0  0  0  0  0  0  0  0  0  0  0  0
  160.3160  208.7000  156.4880 N   0  0  0  0  0  0  0  0  0  0  0  0
  159.2190  208.2870  156.0610 O   0  0  0  0  0  0  0  0  0  0  0  0
  159.4440  210.9490  155.9130 C   0  0  2  0  0  3  0  0  0  0  0  0
  159.8930  212.2920  155.3560 C   0  0  0  0  0  1  0  0  0  0  0  0
  158.5620  211.1730  157.0500 N   0  0  0  0  0  2  0  0  0  0  0  0
  155.9260  211.3510  157.2590 O   0  0  0  0  0  0  0  0  0  0  0  0
  157.0880  211.8640  156.4550 S   0  0  0  0  0  0  0  0  0  0  0  0
  157.1520  213.5880  156.5680 N   0  0  0  0  0  1  0  0  0  0  0  0
  156.9060  211.4690  155.0170 O   0  0  0  0  0  0  0  0  0  0  0  0
  1  5  1  6  0  0  0
  1  6  1  0  0  0  0
  3  2  1  6  0  0  0
  3 11  1  0  0  0  0
  3  6  1  0  0  0  0
  4 14  2  0  0  0  0
  6 12  2  0  0  0  0
  7  8  1  0  0  0  0
  7 11  2  0  0  0  0
  9  2  2  0  0  0  0
  9  1  1  0  0  0  0
 11 10  1  0  0  0  0
 12 15  2  0  0  0  0
 13 14  1  0  0  0  0
 13  2  1  0  0  0  0
 14  7  1  0  0  0  0
 15 17  1  0  0  0  0
 17 16  2  0  0  0  0
 18 19  1  0  0  0  0
 18 17  1  0  0  0  0
 20 21  2  0  0  0  0
 21 19  1  0  0  0  0
 21 22  1  0  0  0  0
 23 22  1  0  0  0  0
 24 15  1  6  0  0  0
 24 26  1  0  0  0  0
 26 25  2  0  0  0  0
 27 26  2  0  0  0  0
 28 29  1  1  0  0  0
 28 24  1  0  0  0  0
 28 30  1  0  0  0  0
 32 33  1  0  0  0  0
 32 30  1  0  0  0  0
 32 31  2  0  0  0  0
 34 32  2  0  0  0  0
M  END
>  <MODEL>
1

>  <REMARK>
 VINA RESULT:      -4.2      0.000      0.000
  Name = 
  9 active torsions:
  status: ('A' for Active; 'I' for Inactive)
    1  A    between atoms: O_1  and  C_34
    2  A    between atoms: N_3  and  C_5
    3  A    between atoms: S_4  and  N_18
    4  A    between atoms: C_5  and  C_30
    5  A    between atoms: N_10  and  C_21
    6  A    between atoms: C_13  and  N_18
    7  A    between atoms: C_13  and  C_21
    8  A    between atoms: C_21  and  C_33
    9  A    between atoms: C_30  and  C_33
                            x       y       z     vdW  Elec       q    Type
                         _______ _______ _______ _____ _____    ______ ____

>  <TORSDO>
F 9

$$$$
=
 OpenBabel11052411073D

 34 35  0  0  1  0  0  0  0  0999 V2000
  158.6530  212.7310  153.2210 C   0  0  1  0  0  3  0  0  0  0  0  0
  159.6850  213.7180  151.4710 C   0  0  0  0  0  0  0  0  0  0  0  0
  160.5680  212.5510  151.7330 C   0  0  1  0  0  3  0  0  0  0  0  0
  160.5960  214.4530  148.0780 O   0  0  0  0  0  0  0  0  0  0  0  0
  157.3310  211.9900  153.1400 C   0  0  0  0  0  1  0  0  0  0  0  0
  159.7700  211.8420  152.7750 C   0  0  0  0  0  0  0  0  0  0  0  0
  160.8520  212.3990  149.2610 C   0  0  0  0  0  0  0  0  0  0  0  0
  161.3350  211.5520  147.7900 Cl  0  0  0  0  0  0  0  0  0  0  0  0
  158.6610  213.8130  152.2490 N   0  0  0  0  0  0  0  0  0  0  0  0
  161.2590  210.3420  150.5630 C   0  0  0  0  0  1  0  0  0  0  0  0
  160.8220  211.7680  150.4570 C   0  0  0  0  0  0  0  0  0  0  0  0
  160.3240  210.9900  153.5940 C   0  0  0  0  0  0  0  0  0  0  0  0
  159.7810  214.4520  150.2560 N   0  0  0  0  0  2  0  0  0  0  0  0
  160.4320  213.8190  149.1520 C   0  0  0  0  0  0  0  0  0  0  0  0
  160.8780  210.1440  154.4230 C   0  0  0  0  0  0  0  0  0  0  0  0
  162.9500  210.7220  155.4440 O   0  0  0  0  0  0  0  0  0  0  0  0
  161.6980  210.6380  155.5570 C   0  0  0  0  0  0  0  0  0  0  0  0
  161.0750  211.0540  156.8510 C   0  0  0  0  0  2  0  0  0  0  0  0
  160.4540  212.3610  156.7060 N   0  0  0  0  0  2  0  0  0  0  0  0
  158.2830  211.5420  156.9530 O   0  0  0  0  0  0  0  0  0  0  0  0
  159.0400  212.5390  156.7960 C   0  0  0  0  0  0  0  0  0  0  0  0
  158.5080  213.8250  156.7080 O   0  0  0  0  0  0  0  0  0  0  0  0
  157.1490  214.0520  156.3670 C   0  0  0  0  0  1  0  0  0  0  0  0
  160.6150  208.6780  154.2010 C   0  0  2  0  0  3  0  0  0  0  0  0
  159.4810  207.5280  156.0620 O   0  0  0  0  0  0  0  0  0  0  0  0
  160.6460  207.9480  155.4630 N   0  0  0  0  0  0  0  0  0  0  0  0
  161.7430  207.5830  155.9320 O   0  0  0  0  0  0  0  0  0  0  0  0
  161.5300  208.0420  153.1480 C   0  0  2  0  0  3  0  0  0  0  0  0
  162.3250  209.1100  152.4110 C   0  0  0  0  0  1  0  0  0  0  0  0
  160.7350  207.2890  152.1870 N   0  0  0  0  0  2  0  0  0  0  0  0
  160.9890  204.7010  152.6980 O   0  0  0  0  0  0  0  0  0  0  0  0
  161.5640  205.8040  151.8540 S   0  0  0  0  0  0  0  0  0  0  0  0
  161.4010  205.3960  150.1820 N   0  0  0  0  0  1  0  0  0  0  0  0
  163.0200  205.9700  152.1820 O   0  0  0  0  0  0  0  0  0  0  0  0
  1  5  1  6  0  0  0
  2  3  1  0  0  0  0
  2  9  2  0  0  0  0
  3 11  1  6  0  0  0
  3  6  1  0  0  0  0
  4 14  2  0  0  0  0
  6  1  1  0  0  0  0
  6 12  2  0  0  0  0
  7 11  2  0  0  0  0
  8  7  1  0  0  0  0
  9  1  1  0  0  0  0
 11 10  1  0  0  0  0
 12 15  2  0  0  0  0
 13  2  1  0  0  0  0
 14  7  1  0  0  0  0
 14 13  1  0  0  0  0
 15 17  1  0  0  0  0
 16 17  2  0  0  0  0
 17 18  1  0  0  0  0
 19 21  1  0  0  0  0
 19 18  1  0  0  0  0
 21 20  2  0  0  0  0
 22 21  1  0  0  0  0
 23 22  1  0  0  0  0
 24 15  1  1  0  0  0
 24 26  1  0  0  0  0
 26 27  2  0  0  0  0
 26 25  2  0  0  0  0
 28 29  1  6  0  0  0
 28 24  1  0  0  0  0
 30 28  1  0  0  0  0
 32 34  2  0  0  0  0
 32 30  1  0  0  0  0
 32 31  2  0  0  0  0
 33 32  1  0  0  0  0
M  END
>  <MODEL>
2

>  <REMARK>
 VINA RESULT:      -2.7      3.405      6.131
  Name = 
  9 active torsions:
  status: ('A' for Active; 'I' for Inactive)
    1  A    between atoms: O_1  and  C_34
    2  A    between atoms: N_3  and  C_5
    3  A    between atoms: S_4  and  N_18
    4  A    between atoms: C_5  and  C_30
    5  A    between atoms: N_10  and  C_21
    6  A    between atoms: C_13  and  N_18
    7  A    between atoms: C_13  and  C_21
    8  A    between atoms: C_21  and  C_33
    9  A    between atoms: C_30  and  C_33
                            x       y       z     vdW  Elec       q    Type
                         _______ _______ _______ _____ _____    ______ ____

>  <TORSDO>
F 9

$$$$
=
 OpenBabel11052411073D

 34 35  0  0  1  0  0  0  0  0999 V2000
  162.1480  205.0750  152.3030 C   0  0  1  0  0  3  0  0  0  0  0  0
  161.0340  203.8470  150.7700 C   0  0  0  0  0  0  0  0  0  0  0  0
  160.8030  205.2330  150.2840 C   0  0  1  0  0  3  0  0  0  0  0  0
  160.3870  202.0030  147.7590 O   0  0  0  0  0  0  0  0  0  0  0  0
  163.6590  205.1370  152.4300 C   0  0  0  0  0  1  0  0  0  0  0  0
  161.6840  205.9930  151.2180 C   0  0  0  0  0  0  0  0  0  0  0  0
  160.9930  204.2980  147.9800 C   0  0  0  0  0  0  0  0  0  0  0  0
  161.2050  204.4640  146.2370 Cl  0  0  0  0  0  0  0  0  0  0  0  0
  161.7560  203.7560  151.8350 N   0  0  0  0  0  0  0  0  0  0  0  0
  161.4550  206.7080  148.2520 C   0  0  0  0  0  1  0  0  0  0  0  0
  161.1520  205.3540  148.8110 C   0  0  0  0  0  0  0  0  0  0  0  0
  161.5020  207.2660  151.4410 C   0  0  0  0  0  0  0  0  0  0  0  0
  160.7710  202.7240  149.9360 N   0  0  0  0  0  2  0  0  0  0  0  0
  160.6800  202.9550  148.5280 C   0  0  0  0  0  0  0  0  0  0  0  0
  161.3160  208.5390  151.6740 C   0  0  0  0  0  0  0  0  0  0  0  0
  159.4470  209.9220  152.1870 O   0  0  0  0  0  0  0  0  0  0  0  0
  160.2040  208.9830  152.5500 C   0  0  0  0  0  0  0  0  0  0  0  0
  159.9430  208.3340  153.8720 C   0  0  0  0  0  2  0  0  0  0  0  0
  160.9610  208.7310  154.8310 N   0  0  0  0  0  2  0  0  0  0  0  0
  160.2800  207.1900  156.4450 O   0  0  0  0  0  0  0  0  0  0  0  0
  161.0920  208.0910  156.1010 C   0  0  0  0  0  0  0  0  0  0  0  0
  162.1260  208.4760  156.9530 O   0  0  0  0  0  0  0  0  0  0  0  0
  162.6450  209.7970  156.9530 C   0  0  0  0  0  1  0  0  0  0  0  0
  162.2890  209.5100  151.0570 C   0  0  2  0  0  3  0  0  0  0  0  0
  161.7520  211.3120  152.6510 O   0  0  0  0  0  0  0  0  0  0  0  0
  162.6910  210.5260  152.0230 N   0  0  0  0  0  0  0  0  0  0  0  0
  163.8840  210.5880  152.3840 O   0  0  0  0  0  0  0  0  0  0  0  0
  161.7910  210.1300  149.7460 C   0  0  2  0  0  3  0  0  0  0  0  0
  161.9780  209.1590  148.5890 C   0  0  0  0  0  1  0  0  0  0  0  0
  162.5270  211.3560  149.4660 N   0  0  0  0  0  2  0  0  0  0  0  0
  160.3730  212.8350  149.9100 O   0  0  0  0  0  0  0  0  0  0  0  0
  161.4020  212.5260  148.8590 S   0  0  0  0  0  0  0  0  0  0  0  0
  162.2340  213.9770  148.4210 N   0  0  0  0  0  1  0  0  0  0  0  0
  160.7160  211.9650  147.6460 O   0  0  0  0  0  0  0  0  0  0  0  0
  1  5  1  6  0  0  0
  2  9  2  0  0  0  0
  3 11  1  6  0  0  0
  3  2  1  0  0  0  0
  3  6  1  0  0  0  0
  4 14  2  0  0  0  0
  6 12  2  0  0  0  0
  6  1  1  0  0  0  0
  7 14  1  0  0  0  0
  7 11  2  0  0  0  0
  8  7  1  0  0  0  0
  9  1  1  0  0  0  0
 10 11  1  0  0  0  0
 12 15  2  0  0  0  0
 13  2  1  0  0  0  0
 14 13  1  0  0  0  0
 15 17  1  0  0  0  0
 16 17  2  0  0  0  0
 17 18  1  0  0  0  0
 18 19  1  0  0  0  0
 19 21  1  0  0  0  0
 21 20  2  0  0  0  0
 21 22  1  0  0  0  0
 23 22  1  0  0  0  0
 24 15  1  1  0  0  0
 24 26  1  0  0  0  0
 26 27  2  0  0  0  0
 26 25  2  0  0  0  0
 28 29  1  6  0  0  0
 28 24  1  0  0  0  0
 30 28  1  0  0  0  0
 32 30  1  0  0  0  0
 32 31  2  0  0  0  0
 33 32  1  0  0  0  0
 34 32  2  0  0  0  0
M  END
>  <MODEL>
3

>  <REMARK>
 VINA RESULT:      -2.5      3.729      6.308
  Name = 
  9 active torsions:
  status: ('A' for Active; 'I' for Inactive)
    1  A    between atoms: O_1  and  C_34
    2  A    between atoms: N_3  and  C_5
    3  A    between atoms: S_4  and  N_18
    4  A    between atoms: C_5  and  C_30
    5  A    between atoms: N_10  and  C_21
    6  A    between atoms: C_13  and  N_18
    7  A    between atoms: C_13  and  C_21
    8  A    between atoms: C_21  and  C_33
    9  A    between atoms: C_30  and  C_33
                            x       y       z     vdW  Elec       q    Type
                         _______ _______ _______ _____ _____    ______ ____

>  <TORSDO>
F 9

$$$$
=
 OpenBabel11052411073D

 34 35  0  0  1  0  0  0  0  0999 V2000
  162.0220  205.1670  152.4880 C   0  0  1  0  0  3  0  0  0  0  0  0
  160.8950  203.9050  150.9920 C   0  0  0  0  0  0  0  0  0  0  0  0
  160.7170  205.2740  150.4390 C   0  0  1  0  0  3  0  0  0  0  0  0
  160.2400  201.9460  148.0570 O   0  0  0  0  0  0  0  0  0  0  0  0
  163.5310  205.1880  152.6400 C   0  0  0  0  0  1  0  0  0  0  0  0
  161.6050  206.0480  151.3540 C   0  0  0  0  0  0  0  0  0  0  0  0
  160.9160  204.2280  148.1840 C   0  0  0  0  0  0  0  0  0  0  0  0
  161.1620  204.3080  146.4390 Cl  0  0  0  0  0  0  0  0  0  0  0  0
  161.5950  203.8400  152.0730 N   0  0  0  0  0  0  0  0  0  0  0  0
  161.4490  206.6330  148.3550 C   0  0  0  0  0  1  0  0  0  0  0  0
  161.0940  205.3160  148.9690 C   0  0  0  0  0  0  0  0  0  0  0  0
  161.4610  207.3350  151.5160 C   0  0  0  0  0  0  0  0  0  0  0  0
  160.6100  202.7540  150.2060 N   0  0  0  0  0  2  0  0  0  0  0  0
  160.5500  202.9220  148.7870 C   0  0  0  0  0  0  0  0  0  0  0  0
  161.3110  208.6220  151.6870 C   0  0  0  0  0  0  0  0  0  0  0  0
  159.8010  208.4870  153.5230 O   0  0  0  0  0  0  0  0  0  0  0  0
  160.1990  209.1400  152.5220 C   0  0  0  0  0  0  0  0  0  0  0  0
  159.5270  210.4390  152.2110 C   0  0  0  0  0  2  0  0  0  0  0  0
  158.7920  210.9100  153.3740 N   0  0  0  0  0  2  0  0  0  0  0  0
  158.2990  212.9850  152.4290 O   0  0  0  0  0  0  0  0  0  0  0  0
  158.1740  212.1970  153.4060 C   0  0  0  0  0  0  0  0  0  0  0  0
  157.4330  212.5690  154.5270 O   0  0  0  0  0  0  0  0  0  0  0  0
  156.7460  211.6150  155.3220 C   0  0  0  0  0  1  0  0  0  0  0  0
  162.3240  209.5330  151.0450 C   0  0  2  0  0  3  0  0  0  0  0  0
  162.2760  210.7280  153.2000 O   0  0  0  0  0  0  0  0  0  0  0  0
  162.9380  210.4090  152.0370 N   0  0  0  0  0  0  0  0  0  0  0  0
  164.1270  210.7590  151.8920 O   0  0  0  0  0  0  0  0  0  0  0  0
  161.7750  210.3180  149.8480 C   0  0  2  0  0  3  0  0  0  0  0  0
  161.9270  209.5160  148.5640 C   0  0  0  0  0  1  0  0  0  0  0  0
  162.4900  211.5800  149.7120 N   0  0  0  0  0  2  0  0  0  0  0  0
  162.1860  213.9780  148.6240 O   0  0  0  0  0  0  0  0  0  0  0  0
  161.4400  212.7060  148.9150 S   0  0  0  0  0  0  0  0  0  0  0  0
  160.8560  212.0270  147.4350 N   0  0  0  0  0  1  0  0  0  0  0  0
  160.2740  213.0110  149.8120 O   0  0  0  0  0  0  0  0  0  0  0  0
  1  5  1  6  0  0  0
  2  9  2  0  0  0  0
  3 11  1  6  0  0  0
  3  2  1  0  0  0  0
  3  6  1  0  0  0  0
  4 14  2  0  0  0  0
  6 12  2  0  0  0  0
  6  1  1  0  0  0  0
  7 14  1  0  0  0  0
  7 11  2  0  0  0  0
  8  7  1  0  0  0  0
  9  1  1  0  0  0  0
 10 11  1  0  0  0  0
 12 15  2  0  0  0  0
 13  2  1  0  0  0  0
 14 13  1  0  0  0  0
 15 17  1  0  0  0  0
 17 16  2  0  0  0  0
 18 17  1  0  0  0  0
 18 19  1  0  0  0  0
 19 21  1  0  0  0  0
 20 21  2  0  0  0  0
 21 22  1  0  0  0  0
 22 23  1  0  0  0  0
 24 15  1  1  0  0  0
 24 26  1  0  0  0  0
 26 25  2  0  0  0  0
 27 26  2  0  0  0  0
 28 29  1  6  0  0  0
 28 24  1  0  0  0  0
 30 28  1  0  0  0  0
 31 32  2  0  0  0  0
 32 30  1  0  0  0  0
 32 34  2  0  0  0  0
 33 32  1  0  0  0  0
M  END
>  <MODEL>
4

>  <REMARK>
 VINA RESULT:      -1.7      3.973      6.715
  Name = 
  9 active torsions:
  status: ('A' for Active; 'I' for Inactive)
    1  A    between atoms: O_1  and  C_34
    2  A    between atoms: N_3  and  C_5
    3  A    between atoms: S_4  and  N_18
    4  A    between atoms: C_5  and  C_30
    5  A    between atoms: N_10  and  C_21
    6  A    between atoms: C_13  and  N_18
    7  A    between atoms: C_13  and  C_21
    8  A    between atoms: C_21  and  C_33
    9  A    between atoms: C_30  and  C_33
                            x       y       z     vdW  Elec       q    Type
                         _______ _______ _______ _____ _____    ______ ____

>  <TORSDO>
F 9

$$$$
=
 OpenBabel11052411073D

 34 35  0  0  1  0  0  0  0  0999 V2000
  160.9970  206.4620  153.5300 C   0  0  1  0  0  3  0  0  0  0  0  0
  160.6550  205.5290  151.5020 C   0  0  0  0  0  0  0  0  0  0  0  0
  160.4560  206.9740  151.2150 C   0  0  1  0  0  3  0  0  0  0  0  0
  161.3470  204.3160  148.1950 O   0  0  0  0  0  0  0  0  0  0  0  0
  162.3430  206.5610  154.2210 C   0  0  0  0  0  1  0  0  0  0  0  0
  160.8490  207.5630  152.5280 C   0  0  0  0  0  0  0  0  0  0  0  0
  161.5650  206.5410  149.0240 C   0  0  0  0  0  0  0  0  0  0  0  0
  162.3660  207.0700  147.5450 Cl  0  0  0  0  0  0  0  0  0  0  0  0
  160.9530  205.2510  152.7250 N   0  0  0  0  0  0  0  0  0  0  0  0
  161.6160  208.8610  149.8660 C   0  0  0  0  0  1  0  0  0  0  0  0
  161.2930  207.4100  150.0250 C   0  0  0  0  0  0  0  0  0  0  0  0
  160.4540  208.7540  152.8860 C   0  0  0  0  0  0  0  0  0  0  0  0
  160.8400  204.5910  150.4480 N   0  0  0  0  0  2  0  0  0  0  0  0
  161.2330  205.1020  149.1710 C   0  0  0  0  0  0  0  0  0  0  0  0
  160.0510  209.9430  153.2520 C   0  0  0  0  0  0  0  0  0  0  0  0
  157.7670  210.5110  152.8950 O   0  0  0  0  0  0  0  0  0  0  0  0
  158.6550  210.1490  153.7120 C   0  0  0  0  0  0  0  0  0  0  0  0
  158.2610  209.9320  155.1380 C   0  0  0  0  0  2  0  0  0  0  0  0
  157.5890  211.1130  155.6540 N   0  0  0  0  0  2  0  0  0  0  0  0
  155.4490  210.2490  155.3140 O   0  0  0  0  0  0  0  0  0  0  0  0
  156.1660  211.1950  155.7400 C   0  0  0  0  0  0  0  0  0  0  0  0
  155.5820  212.3310  156.2990 O   0  0  0  0  0  0  0  0  0  0  0  0
  156.1630  213.6180  156.1590 C   0  0  0  0  0  1  0  0  0  0  0  0
  161.0610  211.0600  153.2230 C   0  0  2  0  0  3  0  0  0  0  0  0
  160.8170  212.1280  155.4320 O   0  0  0  0  0  0  0  0  0  0  0  0
  161.5510  211.3500  154.5660 N   0  0  0  0  0  0  0  0  0  0  0  0
  162.5790  210.7760  154.9800 O   0  0  0  0  0  0  0  0  0  0  0  0
  160.5630  212.3220  152.5090 C   0  0  2  0  0  3  0  0  0  0  0  0
  159.5220  213.0410  153.3550 C   0  0  0  0  0  1  0  0  0  0  0  0
  159.9750  211.9670  151.2250 N   0  0  0  0  0  2  0  0  0  0  0  0
  160.8310  214.4520  150.8830 O   0  0  0  0  0  0  0  0  0  0  0  0
  160.2150  213.2990  150.1420 S   0  0  0  0  0  0  0  0  0  0  0  0
  161.2530  212.8280  148.8420 N   0  0  0  0  0  1  0  0  0  0  0  0
  158.8860  213.7230  149.5840 O   0  0  0  0  0  0  0  0  0  0  0  0
  1  5  1  6  0  0  0
  2  9  2  0  0  0  0
  3 11  1  6  0  0  0
  3  2  1  0  0  0  0
  3  6  1  0  0  0  0
  4 14  2  0  0  0  0
  6 12  2  0  0  0  0
  6  1  1  0  0  0  0
  7 14  1  0  0  0  0
  7 11  2  0  0  0  0
  8  7  1  0  0  0  0
  9  1  1  0  0  0  0
 10 11  1  0  0  0  0
 12 15  2  0  0  0  0
 13  2  1  0  0  0  0
 14 13  1  0  0  0  0
 15 17  1  0  0  0  0
 16 17  2  0  0  0  0
 17 18  1  0  0  0  0
 18 19  1  0  0  0  0
 19 21  1  0  0  0  0
 20 21  2  0  0  0  0
 21 22  1  0  0  0  0
 23 22  1  0  0  0  0
 24 15  1  1  0  0  0
 24 26  1  0  0  0  0
 26 27  2  0  0  0  0
 26 25  2  0  0  0  0
 28 24  1  0  0  0  0
 28 29  1  1  0  0  0
 30 28  1  0  0  0  0
 32 31  2  0  0  0  0
 32 30  1  0  0  0  0
 33 32  1  0  0  0  0
 34 32  2  0  0  0  0
M  END
>  <MODEL>
5

>  <REMARK>
 VINA RESULT:      -1.4      3.382      6.074
  Name = 
  9 active torsions:
  status: ('A' for Active; 'I' for Inactive)
    1  A    between atoms: O_1  and  C_34
    2  A    between atoms: N_3  and  C_5
    3  A    between atoms: S_4  and  N_18
    4  A    between atoms: C_5  and  C_30
    5  A    between atoms: N_10  and  C_21
    6  A    between atoms: C_13  and  N_18
    7  A    between atoms: C_13  and  C_21
    8  A    between atoms: C_21  and  C_33
    9  A    between atoms: C_30  and  C_33
                            x       y       z     vdW  Elec       q    Type
                         _______ _______ _______ _____ _____    ______ ____

>  <TORSDO>
F 9

$$$$
=
 OpenBabel11052411073D

 34 35  0  0  1  0  0  0  0  0999 V2000
  160.9310  207.4160  154.3980 C   0  0  1  0  0  3  0  0  0  0  0  0
  160.8420  206.8310  152.2190 C   0  0  0  0  0  0  0  0  0  0  0  0
  160.4720  208.2700  152.1680 C   0  0  1  0  0  3  0  0  0  0  0  0
  161.8910  206.3250  148.8230 O   0  0  0  0  0  0  0  0  0  0  0  0
  162.2070  207.5480  155.2070 C   0  0  0  0  0  1  0  0  0  0  0  0
  160.7020  208.6540  153.5910 C   0  0  0  0  0  0  0  0  0  0  0  0
  161.7620  208.3730  150.0370 C   0  0  0  0  0  0  0  0  0  0  0  0
  162.5770  209.2530  148.7430 Cl  0  0  0  0  0  0  0  0  0  0  0  0
  161.0970  206.3740  153.3970 N   0  0  0  0  0  0  0  0  0  0  0  0
  161.4550  210.4930  151.2650 C   0  0  0  0  0  1  0  0  0  0  0  0
  161.3160  209.0090  151.1450 C   0  0  0  0  0  0  0  0  0  0  0  0
  160.1320  209.7060  154.1130 C   0  0  0  0  0  0  0  0  0  0  0  0
  161.2140  206.1270  151.0390 N   0  0  0  0  0  2  0  0  0  0  0  0
  161.6150  206.9020  149.9070 C   0  0  0  0  0  0  0  0  0  0  0  0
  159.5540  210.7520  154.6410 C   0  0  0  0  0  0  0  0  0  0  0  0
  157.2340  210.6630  154.1130 O   0  0  0  0  0  0  0  0  0  0  0  0
  158.1170  210.7050  155.0100 C   0  0  0  0  0  0  0  0  0  0  0  0
  157.6760  210.7010  156.4390 C   0  0  0  0  0  2  0  0  0  0  0  0
  156.8970  211.8960  156.7230 N   0  0  0  0  0  2  0  0  0  0  0  0
  154.8670  210.7500  156.8210 O   0  0  0  0  0  0  0  0  0  0  0  0
  155.4860  211.8440  156.9330 C   0  0  0  0  0  0  0  0  0  0  0  0
  154.8030  213.0150  157.2590 O   0  0  0  0  0  0  0  0  0  0  0  0
  154.8290  214.1570  156.4180 C   0  0  0  0  0  1  0  0  0  0  0  0
  160.4080  211.9680  154.8900 C   0  0  2  0  0  3  0  0  0  0  0  0
  160.6860  212.9860  157.1170 O   0  0  0  0  0  0  0  0  0  0  0  0
  160.9470  211.9550  156.2440 N   0  0  0  0  0  0  0  0  0  0  0  0
  161.5360  210.9360  156.6590 O   0  0  0  0  0  0  0  0  0  0  0  0
  159.7040  213.2910  154.5660 C   0  0  2  0  0  3  0  0  0  0  0  0
  159.5590  214.1430  155.8190 C   0  0  0  0  0  1  0  0  0  0  0  0
  158.3840  213.0290  154.0090 N   0  0  0  0  0  2  0  0  0  0  0  0
  158.6760  212.2310  151.4990 O   0  0  0  0  0  0  0  0  0  0  0  0
  158.4170  213.4570  152.3300 S   0  0  0  0  0  0  0  0  0  0  0  0
  156.9070  214.1600  151.8660 N   0  0  0  0  0  1  0  0  0  0  0  0
  159.5180  214.4520  152.0980 O   0  0  0  0  0  0  0  0  0  0  0  0
  1  5  1  6  0  0  0
  2  9  2  0  0  0  0
  3 11  1  6  0  0  0
  3  2  1  0  0  0  0
  3  6  1  0  0  0  0
  4 14  2  0  0  0  0
  6 12  2  0  0  0  0
  6  1  1  0  0  0  0
  7 11  2  0  0  0  0
  8  7  1  0  0  0  0
  9  1  1  0  0  0  0
 11 10  1  0  0  0  0
 12 15  2  0  0  0  0
 13  2  1  0  0  0  0
 14  7  1  0  0  0  0
 14 13  1  0  0  0  0
 15 17  1  0  0  0  0
 16 17  2  0  0  0  0
 17 18  1  0  0  0  0
 18 19  1  0  0  0  0
 19 21  1  0  0  0  0
 20 21  2  0  0  0  0
 21 22  1  0  0  0  0
 23 22  1  0  0  0  0
 24 15  1  1  0  0  0
 24 26  1  0  0  0  0
 26 27  2  0  0  0  0
 26 25  2  0  0  0  0
 28 24  1  0  0  0  0
 28 29  1  1  0  0  0
 30 28  1  0  0  0  0
 31 32  2  0  0  0  0
 32 30  1  0  0  0  0
 33 32  1  0  0  0  0
 34 32  2  0  0  0  0
M  END
>  <MODEL>
6

>  <REMARK>
 VINA RESULT:      -1.4      3.280      5.798
  Name = 
  9 active torsions:
  status: ('A' for Active; 'I' for Inactive)
    1  A    between atoms: O_1  and  C_34
    2  A    between atoms: N_3  and  C_5
    3  A    between atoms: S_4  and  N_18
    4  A    between atoms: C_5  and  C_30
    5  A    between atoms: N_10  and  C_21
    6  A    between atoms: C_13  and  N_18
    7  A    between atoms: C_13  and  C_21
    8  A    between atoms: C_21  and  C_33
    9  A    between atoms: C_30  and  C_33
                            x       y       z     vdW  Elec       q    Type
                         _______ _______ _______ _____ _____    ______ ____

>  <TORSDO>
F 9

$$$$
=
 OpenBabel11052411073D

 34 35  0  0  1  0  0  0  0  0999 V2000
  162.1280  205.4090  152.7130 C   0  0  1  0  0  3  0  0  0  0  0  0
  161.1360  204.4380  150.9310 C   0  0  0  0  0  0  0  0  0  0  0  0
  160.7180  205.8570  150.7820 C   0  0  1  0  0  3  0  0  0  0  0  0
  160.6430  203.2770  147.5700 O   0  0  0  0  0  0  0  0  0  0  0  0
  163.6220  205.6350  152.8540 C   0  0  0  0  0  1  0  0  0  0  0  0
  161.5220  206.4860  151.8710 C   0  0  0  0  0  0  0  0  0  0  0  0
  160.9610  205.5160  148.3240 C   0  0  0  0  0  0  0  0  0  0  0  0
  161.1010  206.1100  146.6690 Cl  0  0  0  0  0  0  0  0  0  0  0  0
  161.8930  204.1950  151.9470 N   0  0  0  0  0  0  0  0  0  0  0  0
  161.1210  207.8360  149.1550 C   0  0  0  0  0  1  0  0  0  0  0  0
  161.0080  206.3620  149.3800 C   0  0  0  0  0  0  0  0  0  0  0  0
  161.1870  207.6380  152.3860 C   0  0  0  0  0  0  0  0  0  0  0  0
  160.9940  203.5150  149.8570 N   0  0  0  0  0  2  0  0  0  0  0  0
  160.8350  204.0530  148.5420 C   0  0  0  0  0  0  0  0  0  0  0  0
  160.8480  208.7860  152.9100 C   0  0  0  0  0  0  0  0  0  0  0  0
  159.6190  208.0370  154.8080 O   0  0  0  0  0  0  0  0  0  0  0  0
  159.7130  208.8660  153.8630 C   0  0  0  0  0  0  0  0  0  0  0  0
  158.6610  209.9220  153.7400 C   0  0  0  0  0  2  0  0  0  0  0  0
  158.5820  210.6910  154.9710 N   0  0  0  0  0  2  0  0  0  0  0  0
  156.3470  211.2820  154.6540 O   0  0  0  0  0  0  0  0  0  0  0  0
  157.3730  211.3290  155.3860 C   0  0  0  0  0  0  0  0  0  0  0  0
  157.3440  212.0030  156.6070 O   0  0  0  0  0  0  0  0  0  0  0  0
  157.0950  213.3980  156.6860 C   0  0  0  0  0  1  0  0  0  0  0  0
  161.6720  209.9910  152.5400 C   0  0  2  0  0  3  0  0  0  0  0  0
  161.6660  210.7330  154.8910 O   0  0  0  0  0  0  0  0  0  0  0  0
  162.3480  210.5370  153.7120 N   0  0  0  0  0  0  0  0  0  0  0  0
  163.5850  210.6990  153.6850 O   0  0  0  0  0  0  0  0  0  0  0  0
  160.8860  211.0650  151.7800 C   0  0  2  0  0  3  0  0  0  0  0  0
  161.5990  211.4380  150.4880 C   0  0  0  0  0  1  0  0  0  0  0  0
  160.7420  212.2550  152.6070 N   0  0  0  0  0  2  0  0  0  0  0  0
  158.4320  212.2390  151.3080 O   0  0  0  0  0  0  0  0  0  0  0  0
  159.3890  213.1600  152.0110 S   0  0  0  0  0  0  0  0  0  0  0  0
  158.5780  213.9470  153.3190 N   0  0  0  0  0  1  0  0  0  0  0  0
  159.8810  214.1960  151.0400 O   0  0  0  0  0  0  0  0  0  0  0  0
  1  5  1  6  0  0  0
  2  9  2  0  0  0  0
  3 11  1  6  0  0  0
  3  2  1  0  0  0  0
  3  6  1  0  0  0  0
  4 14  2  0  0  0  0
  6 12  2  0  0  0  0
  6  1  1  0  0  0  0
  7 14  1  0  0  0  0
  7 11  2  0  0  0  0
  8  7  1  0  0  0  0
  9  1  1  0  0  0  0
 10 11  1  0  0  0  0
 12 15  2  0  0  0  0
 13  2  1  0  0  0  0
 14 13  1  0  0  0  0
 15 17  1  0  0  0  0
 17 16  2  0  0  0  0
 18 17  1  0  0  0  0
 18 19  1  0  0  0  0
 19 21  1  0  0  0  0
 20 21  2  0  0  0  0
 21 22  1  0  0  0  0
 22 23  1  0  0  0  0
 24 15  1  1  0  0  0
 24 26  1  0  0  0  0
 26 25  2  0  0  0  0
 27 26  2  0  0  0  0
 28 29  1  6  0  0  0
 28 24  1  0  0  0  0
 28 30  1  0  0  0  0
 31 32  2  0  0  0  0
 32 30  1  0  0  0  0
 32 33  1  0  0  0  0
 34 32  2  0  0  0  0
M  END
>  <MODEL>
7

>  <REMARK>
 VINA RESULT:      -1.2      3.277      5.677
  Name = 
  9 active torsions:
  status: ('A' for Active; 'I' for Inactive)
    1  A    between atoms: O_1  and  C_34
    2  A    between atoms: N_3  and  C_5
    3  A    between atoms: S_4  and  N_18
    4  A    between atoms: C_5  and  C_30
    5  A    between atoms: N_10  and  C_21
    6  A    between atoms: C_13  and  N_18
    7  A    between atoms: C_13  and  C_21
    8  A    between atoms: C_21  and  C_33
    9  A    between atoms: C_30  and  C_33
                            x       y       z     vdW  Elec       q    Type
                         _______ _______ _______ _____ _____    ______ ____

>  <TORSDO>
F 9

$$$$
