=
 OpenBabel11052409343D

 44 48  0  0  1  0  0  0  0  0999 V2000
  161.6670  204.6170  146.7260 C   0  0  0  0  0  0  0  0  0  0  0  0
  162.1560  209.2990  150.3380 C   0  0  2  0  0  3  0  0  0  0  0  0
  161.8730  206.2850  152.6160 C   0  0  1  0  0  3  0  0  0  0  0  0
  160.3370  204.3680  152.1730 C   0  0  0  0  0  3  0  0  0  0  0  0
  160.9000  205.2240  153.0330 C   0  0  0  0  0  3  0  0  0  0  0  0
  162.4110  207.6200  148.5220 N   0  0  0  0  0  2  0  0  0  0  0  0
  161.5920  208.7270  149.0190 C   0  0  0  0  0  2  0  0  0  0  0  0
  161.2150  207.2420  151.6510 C   0  0  1  0  0  3  0  0  0  0  0  0
  161.5810  208.6730  151.6110 C   0  0  0  0  0  0  0  0  0  0  0  0
  160.7270  205.4880  150.0450 C   0  0  0  0  0  0  0  0  0  0  0  0
  160.5630  204.4090  150.7560 N   0  0  0  0  0  0  0  0  0  0  0  0
  160.6360  206.7970  150.5890 N   0  0  0  0  0  2  0  0  0  0  0  0
  161.5350  209.3480  152.6750 O   0  0  0  0  0  0  0  0  0  0  0  0
  161.1520  205.4180  148.6430 C   0  0  0  0  0  0  0  0  0  0  0  0
  161.8680  206.4050  147.9680 C   0  0  0  0  0  0  0  0  0  0  0  0
  161.0240  204.3230  147.8760 N   0  0  0  0  0  2  0  0  0  0  0  0
  162.2340  205.8860  146.7450 C   0  0  0  0  0  3  0  0  0  0  0  0
  162.3420  206.9480  153.7530 O   0  0  0  0  0  0  0  0  0  0  0  0
  161.3480  206.7600  154.7180 C   0  0  0  0  0  2  0  0  0  0  0  0
  161.4770  207.8030  155.8160 C   0  0  0  0  0  2  0  0  0  0  0  0
  160.4640  208.8380  155.6570 N   0  0  0  0  0  2  0  0  0  0  0  0
  161.9460  210.6170  155.9670 O   0  0  0  0  0  0  0  0  0  0  0  0
  160.7580  210.2330  155.7810 C   0  0  0  0  0  0  0  0  0  0  0  0
  159.9040  212.5610  156.0450 C   0  0  0  0  0  3  0  0  0  0  0  0
  159.6780  211.2270  155.6810 C   0  0  0  0  0  0  0  0  0  0  0  0
  157.4180  211.7420  155.1190 C   0  0  0  0  0  0  0  0  0  0  0  0
  158.4470  210.8540  155.2290 N   0  0  0  0  0  0  0  0  0  0  0  0
  158.8650  213.4860  155.9390 C   0  0  0  0  0  3  0  0  0  0  0  0
  157.6150  213.0780  155.4740 C   0  0  0  0  0  3  0  0  0  0  0  0
  155.4150  210.3230  155.3090 C   0  0  0  0  0  1  0  0  0  0  0  0
  156.1670  211.3340  154.6560 O   0  0  0  0  0  0  0  0  0  0  0  0
  161.7500  203.6490  145.5770 C   0  0  0  0  0  3  0  0  0  0  0  0
  160.4200  201.8940  145.3310 C   0  0  0  0  0  1  0  0  0  0  0  0
  161.5840  202.3150  145.9780 O   0  0  0  0  0  0  0  0  0  0  0  0
  161.1980  205.2920  144.0800 C   0  0  0  0  0  1  0  0  0  0  0  0
  160.8880  203.9920  144.5100 O   0  0  0  0  0  0  0  0  0  0  0  0
  161.9600  210.8080  150.3480 C   0  0  0  0  0  2  0  0  0  0  0  0
  162.3210  211.3690  149.0540 N   0  0  0  0  0  2  0  0  0  0  0  0
  160.8000  213.5600  146.4290 C   0  0  0  0  0  3  0  0  0  0  0  0
  161.5650  212.4020  148.4210 C   0  0  0  0  0  0  0  0  0  0  0  0
  160.0710  214.4490  147.2250 C   0  0  0  0  0  3  0  0  0  0  0  0
  160.8330  213.2950  149.2130 C   0  0  0  0  0  3  0  0  0  0  0  0
  160.0860  214.3150  148.6160 C   0  0  0  0  0  3  0  0  0  0  0  0
  161.5460  212.5400  147.0250 C   0  0  0  0  0  3  0  0  0  0  0  0
  1 17  2  0  0  0  0
  1 16  1  0  0  0  0
  2 37  1  1  0  0  0
  2  9  1  0  0  0  0
  3  5  1  0  0  0  0
  3 18  1  1  0  0  0
  4  5  2  0  0  0  0
  6  7  1  0  0  0  0
  7  2  1  0  0  0  0
  8 12  1  6  0  0  0
  8  3  1  0  0  0  0
  9  8  1  0  0  0  0
  9 13  2  0  0  0  0
 10 12  1  0  0  0  0
 10 11  2  0  0  0  0
 11  4  1  0  0  0  0
 14 10  1  0  0  0  0
 15  6  1  0  0  0  0
 15 14  2  0  0  0  0
 16 14  1  0  0  0  0
 17 15  1  0  0  0  0
 18 19  1  0  0  0  0
 19 20  1  0  0  0  0
 21 23  1  0  0  0  0
 21 20  1  0  0  0  0
 23 22  2  0  0  0  0
 25 23  1  0  0  0  0
 25 24  2  0  0  0  0
 26 27  2  0  0  0  0
 26 29  1  0  0  0  0
 27 25  1  0  0  0  0
 28 24  1  0  0  0  0
 29 28  2  0  0  0  0
 31 26  1  0  0  0  0
 31 30  1  0  0  0  0
 32 34  1  0  0  0  0
 32  1  1  0  0  0  0
 33 34  1  0  0  0  0
 35 36  1  0  0  0  0
 36 32  1  0  0  0  0
 38 37  1  0  0  0  0
 39 44  2  0  0  0  0
 39 41  1  0  0  0  0
 40 38  1  0  0  0  0
 40 42  2  0  0  0  0
 41 43  2  0  0  0  0
 43 42  1  0  0  0  0
 44 40  1  0  0  0  0
M  END
>  <MODEL>
1

>  <REMARK>
 VINA RESULT:      -7.5      0.000      0.000
  Name = 
  12 active torsions:
  status: ('A' for Active; 'I' for Inactive)
    1  A    between atoms: C_1  and  C_25
    2  A    between atoms: C_5  and  C_44
    3  A    between atoms: N_6  and  C_32
    4  A    between atoms: C_7  and  C_41
    5  A    between atoms: C_9  and  O_17
    6  A    between atoms: C_14  and  O_43
    7  A    between atoms: C_15  and  O_17
    8  A    between atoms: C_15  and  C_32
    9  A    between atoms: O_21  and  C_25
   10  A    between atoms: C_23  and  N_27
   11  A    between atoms: C_25  and  O_31
   12  A    between atoms: N_27  and  C_44
                            x       y       z     vdW  Elec       q    Type
                         _______ _______ _______ _____ _____    ______ ____

>  <TORSDO>
F 12

$$$$
=
 OpenBabel11052409343D

 44 48  0  0  1  0  0  0  0  0999 V2000
  161.3140  205.6970  148.6260 C   0  0  0  0  0  0  0  0  0  0  0  0
  161.0070  208.6990  153.7340 C   0  0  2  0  0  3  0  0  0  0  0  0
  160.8000  211.3170  151.0040 C   0  0  1  0  0  3  0  0  0  0  0  0
  162.1670  211.2370  148.9170 C   0  0  0  0  0  3  0  0  0  0  0  0
  161.6250  211.9400  149.9170 C   0  0  0  0  0  3  0  0  0  0  0  0
  160.7330  207.0680  151.8790 N   0  0  0  0  0  2  0  0  0  0  0  0
  161.6150  207.5110  152.9590 C   0  0  0  0  0  2  0  0  0  0  0  0
  161.6270  210.3160  151.7740 C   0  0  1  0  0  3  0  0  0  0  0  0
  161.4110  210.0820  153.2170 C   0  0  0  0  0  0  0  0  0  0  0  0
  162.0650  208.9700  149.8030 C   0  0  0  0  0  0  0  0  0  0  0  0
  162.0620  209.8090  148.8070 N   0  0  0  0  0  0  0  0  0  0  0  0
  162.2430  209.3690  151.1540 N   0  0  0  0  0  2  0  0  0  0  0  0
  161.4380  211.0640  154.0080 O   0  0  0  0  0  0  0  0  0  0  0  0
  161.7500  207.5510  149.6030 C   0  0  0  0  0  0  0  0  0  0  0  0
  161.1930  206.7060  150.5620 C   0  0  0  0  0  0  0  0  0  0  0  0
  161.8290  206.9270  148.4160 N   0  0  0  0  0  0  0  0  0  0  0  0
  160.8780  205.5200  149.9340 C   0  0  0  0  0  2  0  0  0  0  0  0
  160.3100  212.3250  151.8390 O   0  0  0  0  0  0  0  0  0  0  0  0
  158.9420  212.3910  151.5630 C   0  0  0  0  0  2  0  0  0  0  0  0
  158.5680  213.7850  151.0850 C   0  0  0  0  0  2  0  0  0  0  0  0
  158.8250  213.9210  149.6580 N   0  0  0  0  0  2  0  0  0  0  0  0
  156.7940  212.9780  148.9960 O   0  0  0  0  0  0  0  0  0  0  0  0
  157.9090  213.4630  148.6590 C   0  0  0  0  0  0  0  0  0  0  0  0
  157.3300  214.0550  146.3070 C   0  0  0  0  0  3  0  0  0  0  0  0
  158.2590  213.5650  147.2330 C   0  0  0  0  0  0  0  0  0  0  0  0
  159.8620  213.2600  145.4950 C   0  0  0  0  0  0  0  0  0  0  0  0
  159.4950  213.1820  146.8060 N   0  0  0  0  0  0  0  0  0  0  0  0
  157.6840  214.1450  144.9610 C   0  0  0  0  0  3  0  0  0  0  0  0
  158.9570  213.7460  144.5500 C   0  0  0  0  0  3  0  0  0  0  0  0
  162.3130  213.3250  145.7200 C   0  0  0  0  0  1  0  0  0  0  0  0
  161.1340  212.8610  145.0820 O   0  0  0  0  0  0  0  0  0  0  0  0
  161.2280  204.6610  147.5380 C   0  0  0  0  0  3  0  0  0  0  0  0
  160.5810  205.7850  145.7430 C   0  0  0  0  0  1  0  0  0  0  0  0
  161.6840  205.1360  146.2990 O   0  0  0  0  0  0  0  0  0  0  0  0
  160.8720  202.4260  147.8880 C   0  0  0  0  0  1  0  0  0  0  0  0
  161.8430  203.4400  147.8960 O   0  0  0  0  0  0  0  0  0  0  0  0
  161.3520  208.5580  155.2100 C   0  0  0  0  0  2  0  0  0  0  0  0
  160.1530  208.7040  156.0210 N   0  0  0  0  0  2  0  0  0  0  0  0
  159.2020  212.1050  157.2610 C   0  0  0  0  0  3  0  0  0  0  0  0
  159.4710  209.9500  156.1760 C   0  0  0  0  0  0  0  0  0  0  0  0
  158.0990  212.3790  156.4450 C   0  0  0  0  0  3  0  0  0  0  0  0
  158.3670  210.2300  155.3620 C   0  0  0  0  0  3  0  0  0  0  0  0
  157.6830  211.4420  155.4950 C   0  0  0  0  0  3  0  0  0  0  0  0
  159.8860  210.8940  157.1270 C   0  0  0  0  0  3  0  0  0  0  0  0
  1 17  1  0  0  0  0
  2 37  1  1  0  0  0
  3  8  1  0  0  0  0
  3 18  1  1  0  0  0
  4  5  2  0  0  0  0
  5  3  1  0  0  0  0
  6  7  1  0  0  0  0
  7  2  1  0  0  0  0
  8 12  1  6  0  0  0
  8  9  1  0  0  0  0
  9  2  1  0  0  0  0
  9 13  2  0  0  0  0
 10 12  1  0  0  0  0
 11  4  1  0  0  0  0
 11 10  2  0  0  0  0
 14 10  1  0  0  0  0
 14 15  2  0  0  0  0
 15  6  1  0  0  0  0
 16  1  2  0  0  0  0
 16 14  1  0  0  0  0
 17 15  1  0  0  0  0
 19 18  1  0  0  0  0
 20 19  1  0  0  0  0
 21 20  1  0  0  0  0
 23 22  2  0  0  0  0
 23 21  1  0  0  0  0
 24 25  2  0  0  0  0
 25 23  1  0  0  0  0
 26 27  2  0  0  0  0
 27 25  1  0  0  0  0
 28 24  1  0  0  0  0
 29 28  2  0  0  0  0
 29 26  1  0  0  0  0
 31 26  1  0  0  0  0
 31 30  1  0  0  0  0
 32 36  1  0  0  0  0
 32  1  1  0  0  0  0
 33 34  1  0  0  0  0
 34 32  1  0  0  0  0
 35 36  1  0  0  0  0
 37 38  1  0  0  0  0
 38 40  1  0  0  0  0
 40 44  2  0  0  0  0
 41 39  2  0  0  0  0
 42 43  2  0  0  0  0
 42 40  1  0  0  0  0
 43 41  1  0  0  0  0
 44 39  1  0  0  0  0
M  END
>  <MODEL>
2

>  <REMARK>
 VINA RESULT:      -6.9      2.546      7.078
  Name = 
  12 active torsions:
  status: ('A' for Active; 'I' for Inactive)
    1  A    between atoms: C_1  and  C_25
    2  A    between atoms: C_5  and  C_44
    3  A    between atoms: N_6  and  C_32
    4  A    between atoms: C_7  and  C_41
    5  A    between atoms: C_9  and  O_17
    6  A    between atoms: C_14  and  O_43
    7  A    between atoms: C_15  and  O_17
    8  A    between atoms: C_15  and  C_32
    9  A    between atoms: O_21  and  C_25
   10  A    between atoms: C_23  and  N_27
   11  A    between atoms: C_25  and  O_31
   12  A    between atoms: N_27  and  C_44
                            x       y       z     vdW  Elec       q    Type
                         _______ _______ _______ _____ _____    ______ ____

>  <TORSDO>
F 12

$$$$
=
 OpenBabel11052409343D

 44 48  0  0  1  0  0  0  0  0999 V2000
  161.4230  203.5980  147.1520 C   0  0  0  0  0  0  0  0  0  0  0  0
  162.1720  208.7600  149.9800 C   0  0  2  0  0  3  0  0  0  0  0  0
  161.8850  206.1440  152.7040 C   0  0  1  0  0  3  0  0  0  0  0  0
  160.2810  204.2340  152.6100 C   0  0  0  0  0  3  0  0  0  0  0  0
  160.8970  205.1920  153.3100 C   0  0  0  0  0  3  0  0  0  0  0  0
  162.3150  206.8160  148.4390 N   0  0  0  0  0  2  0  0  0  0  0  0
  161.5460  208.0120  148.7830 C   0  0  0  0  0  2  0  0  0  0  0  0
  161.2210  206.9620  151.6230 C   0  0  1  0  0  3  0  0  0  0  0  0
  161.6250  208.3570  151.3510 C   0  0  0  0  0  0  0  0  0  0  0  0
  160.6270  205.0000  150.3240 C   0  0  0  0  0  0  0  0  0  0  0  0
  160.4570  204.0490  151.1970 N   0  0  0  0  0  0  0  0  0  0  0  0
  160.5920  206.3790  150.6610 N   0  0  0  0  0  2  0  0  0  0  0  0
  161.6360  209.1890  152.3000 O   0  0  0  0  0  0  0  0  0  0  0  0
  161.0000  204.7010  148.9370 C   0  0  0  0  0  0  0  0  0  0  0  0
  161.7190  205.5480  148.0960 C   0  0  0  0  0  0  0  0  0  0  0  0
  160.8140  203.5060  148.3530 N   0  0  0  0  0  2  0  0  0  0  0  0
  162.0270  204.8350  146.9570 C   0  0  0  0  0  3  0  0  0  0  0  0
  162.4120  206.9570  153.7100 O   0  0  0  0  0  0  0  0  0  0  0  0
  161.5510  206.7910  154.7990 C   0  0  0  0  0  2  0  0  0  0  0  0
  161.5220  208.0550  155.6430 C   0  0  0  0  0  2  0  0  0  0  0  0
  160.4840  208.9610  155.1710 N   0  0  0  0  0  2  0  0  0  0  0  0
  160.8720  210.5820  156.8070 O   0  0  0  0  0  0  0  0  0  0  0  0
  160.1820  210.1990  155.8210 C   0  0  0  0  0  0  0  0  0  0  0  0
  158.0060  211.3600  156.1860 C   0  0  0  0  0  3  0  0  0  0  0  0
  159.0730  211.0370  155.3380 C   0  0  0  0  0  0  0  0  0  0  0  0
  158.0750  212.2860  153.5700 C   0  0  0  0  0  0  0  0  0  0  0  0
  159.0810  211.5060  154.0590 N   0  0  0  0  0  0  0  0  0  0  0  0
  156.9670  212.1580  155.7060 C   0  0  0  0  0  3  0  0  0  0  0  0
  156.9990  212.6250  154.3920 C   0  0  0  0  0  3  0  0  0  0  0  0
  158.5660  214.0550  151.9290 C   0  0  0  0  0  1  0  0  0  0  0  0
  158.1060  212.7530  152.2550 O   0  0  0  0  0  0  0  0  0  0  0  0
  161.4380  202.4630  146.1650 C   0  0  0  0  0  3  0  0  0  0  0  0
  161.7230  200.8860  147.6930 C   0  0  0  0  0  1  0  0  0  0  0  0
  160.8580  201.2920  146.6750 O   0  0  0  0  0  0  0  0  0  0  0  0
  159.7980  201.9850  144.6400 C   0  0  0  0  0  1  0  0  0  0  0  0
  160.8910  202.8210  144.9110 O   0  0  0  0  0  0  0  0  0  0  0  0
  162.0200  210.2590  149.7620 C   0  0  0  0  0  2  0  0  0  0  0  0
  161.5690  210.5250  148.4040 N   0  0  0  0  0  2  0  0  0  0  0  0
  162.6700  214.0060  147.5820 C   0  0  0  0  0  3  0  0  0  0  0  0
  161.6370  211.8210  147.8070 C   0  0  0  0  0  0  0  0  0  0  0  0
  161.7270  214.3530  146.6100 C   0  0  0  0  0  3  0  0  0  0  0  0
  160.6950  212.1740  146.8330 C   0  0  0  0  0  3  0  0  0  0  0  0
  160.7410  213.4370  146.2350 C   0  0  0  0  0  3  0  0  0  0  0  0
  162.6260  212.7440  148.1790 C   0  0  0  0  0  3  0  0  0  0  0  0
  1 16  1  0  0  0  0
  2 37  1  6  0  0  0
  2  9  1  0  0  0  0
  3  5  1  0  0  0  0
  3 18  1  1  0  0  0
  4  5  2  0  0  0  0
  6  7  1  0  0  0  0
  7  2  1  0  0  0  0
  8 12  1  6  0  0  0
  8  3  1  0  0  0  0
  9  8  1  0  0  0  0
  9 13  2  0  0  0  0
 10 12  1  0  0  0  0
 10 11  2  0  0  0  0
 11  4  1  0  0  0  0
 14 10  1  0  0  0  0
 15  6  1  0  0  0  0
 15 14  2  0  0  0  0
 16 14  1  0  0  0  0
 17  1  2  0  0  0  0
 17 15  1  0  0  0  0
 18 19  1  0  0  0  0
 19 20  1  0  0  0  0
 21 20  1  0  0  0  0
 21 23  1  0  0  0  0
 23 22  2  0  0  0  0
 25 23  1  0  0  0  0
 25 24  2  0  0  0  0
 26 27  2  0  0  0  0
 26 29  1  0  0  0  0
 27 25  1  0  0  0  0
 28 24  1  0  0  0  0
 29 28  2  0  0  0  0
 30 31  1  0  0  0  0
 31 26  1  0  0  0  0
 32 34  1  0  0  0  0
 32  1  1  0  0  0  0
 34 33  1  0  0  0  0
 35 36  1  0  0  0  0
 36 32  1  0  0  0  0
 38 37  1  0  0  0  0
 39 44  1  0  0  0  0
 40 44  2  0  0  0  0
 40 38  1  0  0  0  0
 41 39  2  0  0  0  0
 42 40  1  0  0  0  0
 43 41  1  0  0  0  0
 43 42  2  0  0  0  0
M  END
>  <MODEL>
3

>  <REMARK>
 VINA RESULT:      -6.7      1.294      1.719
  Name = 
  12 active torsions:
  status: ('A' for Active; 'I' for Inactive)
    1  A    between atoms: C_1  and  C_25
    2  A    between atoms: C_5  and  C_44
    3  A    between atoms: N_6  and  C_32
    4  A    between atoms: C_7  and  C_41
    5  A    between atoms: C_9  and  O_17
    6  A    between atoms: C_14  and  O_43
    7  A    between atoms: C_15  and  O_17
    8  A    between atoms: C_15  and  C_32
    9  A    between atoms: O_21  and  C_25
   10  A    between atoms: C_23  and  N_27
   11  A    between atoms: C_25  and  O_31
   12  A    between atoms: N_27  and  C_44
                            x       y       z     vdW  Elec       q    Type
                         _______ _______ _______ _____ _____    ______ ____

>  <TORSDO>
F 12

$$$$
=
 OpenBabel11052409343D

 44 48  0  0  1  0  0  0  0  0999 V2000
  161.6490  204.6880  146.7480 C   0  0  0  0  0  0  0  0  0  0  0  0
  162.0840  209.2810  150.4780 C   0  0  2  0  0  3  0  0  0  0  0  0
  161.8760  206.2050  152.6780 C   0  0  1  0  0  3  0  0  0  0  0  0
  160.3710  204.2720  152.1970 C   0  0  0  0  0  3  0  0  0  0  0  0
  160.9250  205.1150  153.0750 C   0  0  0  0  0  3  0  0  0  0  0  0
  162.3540  207.6560  148.6170 N   0  0  0  0  0  2  0  0  0  0  0  0
  161.5200  208.7350  149.1500 C   0  0  0  0  0  2  0  0  0  0  0  0
  161.1930  207.1740  151.7440 C   0  0  1  0  0  3  0  0  0  0  0  0
  161.5320  208.6120  151.7390 C   0  0  0  0  0  0  0  0  0  0  0  0
  160.7220  205.4540  150.0970 C   0  0  0  0  0  0  0  0  0  0  0  0
  160.5840  204.3540  150.7790 N   0  0  0  0  0  0  0  0  0  0  0  0
  160.6120  206.7470  150.6760 N   0  0  0  0  0  2  0  0  0  0  0  0
  161.4830  209.2580  152.8210 O   0  0  0  0  0  0  0  0  0  0  0  0
  161.1370  205.4290  148.6890 C   0  0  0  0  0  0  0  0  0  0  0  0
  161.8290  206.4460  148.0350 C   0  0  0  0  0  0  0  0  0  0  0  0
  161.0220  204.3520  147.8950 N   0  0  0  0  0  2  0  0  0  0  0  0
  162.1930  205.9660  146.7950 C   0  0  0  0  0  3  0  0  0  0  0  0
  162.3420  206.8460  153.8290 O   0  0  0  0  0  0  0  0  0  0  0  0
  161.2540  206.8540  154.7050 C   0  0  0  0  0  2  0  0  0  0  0  0
  161.5340  207.7730  155.8830 C   0  0  0  0  0  2  0  0  0  0  0  0
  160.5440  208.8390  155.9460 N   0  0  0  0  0  2  0  0  0  0  0  0
  162.0970  210.5700  155.7330 O   0  0  0  0  0  0  0  0  0  0  0  0
  160.8950  210.2260  155.9010 C   0  0  0  0  0  0  0  0  0  0  0  0
  160.2050  212.6020  156.2050 C   0  0  0  0  0  3  0  0  0  0  0  0
  159.8540  211.2560  156.0420 C   0  0  0  0  0  0  0  0  0  0  0  0
  157.5410  211.8260  156.1360 C   0  0  0  0  0  0  0  0  0  0  0  0
  158.5380  210.9040  156.0110 N   0  0  0  0  0  0  0  0  0  0  0  0
  159.2010  213.5620  156.3330 C   0  0  0  0  0  3  0  0  0  0  0  0
  157.8610  213.1750  156.2990 C   0  0  0  0  0  3  0  0  0  0  0  0
  155.7210  210.4590  155.1950 C   0  0  0  0  0  1  0  0  0  0  0  0
  156.2000  211.4390  156.1030 O   0  0  0  0  0  0  0  0  0  0  0  0
  161.7390  203.7520  145.5730 C   0  0  0  0  0  3  0  0  0  0  0  0
  160.3780  202.0360  145.2500 C   0  0  0  0  0  1  0  0  0  0  0  0
  161.5370  202.4110  145.9310 O   0  0  0  0  0  0  0  0  0  0  0  0
  161.3810  205.3640  143.9870 C   0  0  0  0  0  1  0  0  0  0  0  0
  160.9110  204.1440  144.4970 O   0  0  0  0  0  0  0  0  0  0  0  0
  161.8610  210.7860  150.5290 C   0  0  0  0  0  2  0  0  0  0  0  0
  161.0360  211.1320  151.6770 N   0  0  0  0  0  2  0  0  0  0  0  0
  157.9840  213.1490  152.4660 C   0  0  0  0  0  3  0  0  0  0  0  0
  160.0300  212.1440  151.6290 C   0  0  0  0  0  0  0  0  0  0  0  0
  158.0760  214.1480  151.4920 C   0  0  0  0  0  3  0  0  0  0  0  0
  160.1170  213.1480  150.6570 C   0  0  0  0  0  3  0  0  0  0  0  0
  159.1430  214.1480  150.5890 C   0  0  0  0  0  3  0  0  0  0  0  0
  158.9580  212.1490  152.5340 C   0  0  0  0  0  3  0  0  0  0  0  0
  1 17  2  0  0  0  0
  1 16  1  0  0  0  0
  2 37  1  1  0  0  0
  2  9  1  0  0  0  0
  3  5  1  0  0  0  0
  3 18  1  1  0  0  0
  4  5  2  0  0  0  0
  6  7  1  0  0  0  0
  7  2  1  0  0  0  0
  8 12  1  6  0  0  0
  8  3  1  0  0  0  0
  9  8  1  0  0  0  0
  9 13  2  0  0  0  0
 10 12  1  0  0  0  0
 10 11  2  0  0  0  0
 11  4  1  0  0  0  0
 14 10  1  0  0  0  0
 15  6  1  0  0  0  0
 15 14  2  0  0  0  0
 16 14  1  0  0  0  0
 17 15  1  0  0  0  0
 18 19  1  0  0  0  0
 19 20  1  0  0  0  0
 20 21  1  0  0  0  0
 22 23  2  0  0  0  0
 23 21  1  0  0  0  0
 23 25  1  0  0  0  0
 24 28  1  0  0  0  0
 25 24  2  0  0  0  0
 26 29  1  0  0  0  0
 27 25  1  0  0  0  0
 27 26  2  0  0  0  0
 29 28  2  0  0  0  0
 30 31  1  0  0  0  0
 31 26  1  0  0  0  0
 32 34  1  0  0  0  0
 32  1  1  0  0  0  0
 33 34  1  0  0  0  0
 35 36  1  0  0  0  0
 36 32  1  0  0  0  0
 37 38  1  0  0  0  0
 39 44  1  0  0  0  0
 40 38  1  0  0  0  0
 40 44  2  0  0  0  0
 41 39  2  0  0  0  0
 42 40  1  0  0  0  0
 43 42  2  0  0  0  0
 43 41  1  0  0  0  0
M  END
>  <MODEL>
4

>  <REMARK>
 VINA RESULT:      -6.5      1.308      1.775
  Name = 
  12 active torsions:
  status: ('A' for Active; 'I' for Inactive)
    1  A    between atoms: C_1  and  C_25
    2  A    between atoms: C_5  and  C_44
    3  A    between atoms: N_6  and  C_32
    4  A    between atoms: C_7  and  C_41
    5  A    between atoms: C_9  and  O_17
    6  A    between atoms: C_14  and  O_43
    7  A    between atoms: C_15  and  O_17
    8  A    between atoms: C_15  and  C_32
    9  A    between atoms: O_21  and  C_25
   10  A    between atoms: C_23  and  N_27
   11  A    between atoms: C_25  and  O_31
   12  A    between atoms: N_27  and  C_44
                            x       y       z     vdW  Elec       q    Type
                         _______ _______ _______ _____ _____    ______ ____

>  <TORSDO>
F 12

$$$$
=
 OpenBabel11052409343D

 44 48  0  0  1  0  0  0  0  0999 V2000
  160.7460  203.7120  149.4490 C   0  0  0  0  0  0  0  0  0  0  0  0
  161.2130  208.1300  153.3820 C   0  0  2  0  0  3  0  0  0  0  0  0
  161.4330  209.7750  149.9770 C   0  0  1  0  0  3  0  0  0  0  0  0
  162.6840  208.7920  148.0550 C   0  0  0  0  0  3  0  0  0  0  0  0
  162.3260  209.8590  148.7760 C   0  0  0  0  0  3  0  0  0  0  0  0
  160.5590  206.0980  152.1080 N   0  0  0  0  0  2  0  0  0  0  0  0
  161.5480  206.6660  153.0260 C   0  0  0  0  0  2  0  0  0  0  0  0
  162.0720  208.9140  151.0400 C   0  0  1  0  0  3  0  0  0  0  0  0
  161.8640  209.1800  152.4780 C   0  0  0  0  0  0  0  0  0  0  0  0
  162.1680  206.9710  149.5880 C   0  0  0  0  0  0  0  0  0  0  0  0
  162.2960  207.4490  148.3840 N   0  0  0  0  0  0  0  0  0  0  0  0
  162.4670  207.7200  150.7570 N   0  0  0  0  0  2  0  0  0  0  0  0
  162.1110  210.3300  152.9320 O   0  0  0  0  0  0  0  0  0  0  0  0
  161.5720  205.6510  149.8230 C   0  0  0  0  0  0  0  0  0  0  0  0
  160.8930  205.2670  150.9790 C   0  0  0  0  0  0  0  0  0  0  0  0
  161.4860  204.6920  148.8870 N   0  0  0  0  0  0  0  0  0  0  0  0
  160.3280  204.0340  150.7350 C   0  0  0  0  0  2  0  0  0  0  0  0
  161.1800  211.0660  150.4490 O   0  0  0  0  0  0  0  0  0  0  0  0
  161.6970  211.9180  149.4690 C   0  0  0  0  0  2  0  0  0  0  0  0
  160.6560  212.9490  149.0670 C   0  0  0  0  0  2  0  0  0  0  0  0
  160.6690  213.1520  147.6250 N   0  0  0  0  0  2  0  0  0  0  0  0
  158.4030  212.6660  147.3320 O   0  0  0  0  0  0  0  0  0  0  0  0
  159.5120  212.9590  146.8050 C   0  0  0  0  0  0  0  0  0  0  0  0
  158.5370  213.6440  144.6140 C   0  0  0  0  0  3  0  0  0  0  0  0
  159.6070  213.1100  145.3450 C   0  0  0  0  0  0  0  0  0  0  0  0
  160.8750  212.8570  143.3410 C   0  0  0  0  0  0  0  0  0  0  0  0
  160.7430  212.7330  144.6930 N   0  0  0  0  0  0  0  0  0  0  0  0
  158.6520  213.7800  143.2310 C   0  0  0  0  0  3  0  0  0  0  0  0
  159.8260  213.3860  142.5880 C   0  0  0  0  0  3  0  0  0  0  0  0
  162.0300  211.7380  141.4760 C   0  0  0  0  0  1  0  0  0  0  0  0
  162.0490  212.4610  142.6970 O   0  0  0  0  0  0  0  0  0  0  0  0
  160.4200  202.4320  148.7280 C   0  0  0  0  0  3  0  0  0  0  0  0
  160.8440  201.6800  146.6880 C   0  0  0  0  0  1  0  0  0  0  0  0
  161.4640  201.9950  147.8990 O   0  0  0  0  0  0  0  0  0  0  0  0
  161.0790  200.6550  150.0130 C   0  0  0  0  0  1  0  0  0  0  0  0
  159.9720  201.4130  149.5990 O   0  0  0  0  0  0  0  0  0  0  0  0
  161.5730  208.3800  154.8390 C   0  0  0  0  0  2  0  0  0  0  0  0
  160.3770  208.7020  155.6040 N   0  0  0  0  0  2  0  0  0  0  0  0
  160.4870  212.3330  156.5040 C   0  0  0  0  0  3  0  0  0  0  0  0
  159.9730  210.0440  155.8780 C   0  0  0  0  0  0  0  0  0  0  0  0
  159.1320  212.6630  156.4120 C   0  0  0  0  0  3  0  0  0  0  0  0
  158.6170  210.3810  155.7870 C   0  0  0  0  0  3  0  0  0  0  0  0
  158.1970  211.6880  156.0520 C   0  0  0  0  0  3  0  0  0  0  0  0
  160.9080  211.0270  156.2380 C   0  0  0  0  0  3  0  0  0  0  0  0
  1 17  1  0  0  0  0
  2 37  1  1  0  0  0
  3 18  1  1  0  0  0
  3  8  1  0  0  0  0
  4 11  1  0  0  0  0
  4  5  2  0  0  0  0
  5  3  1  0  0  0  0
  6  7  1  0  0  0  0
  7  2  1  0  0  0  0
  8 12  1  6  0  0  0
  8  9  1  0  0  0  0
  9 13  2  0  0  0  0
  9  2  1  0  0  0  0
 10 14  1  0  0  0  0
 10 12  1  0  0  0  0
 11 10  2  0  0  0  0
 14 15  2  0  0  0  0
 15  6  1  0  0  0  0
 16  1  2  0  0  0  0
 16 14  1  0  0  0  0
 17 15  1  0  0  0  0
 19 18  1  0  0  0  0
 20 19  1  0  0  0  0
 21 20  1  0  0  0  0
 23 22  2  0  0  0  0
 23 21  1  0  0  0  0
 24 25  2  0  0  0  0
 25 23  1  0  0  0  0
 26 27  2  0  0  0  0
 27 25  1  0  0  0  0
 28 24  1  0  0  0  0
 29 28  2  0  0  0  0
 29 26  1  0  0  0  0
 30 31  1  0  0  0  0
 31 26  1  0  0  0  0
 32  1  1  0  0  0  0
 32 36  1  0  0  0  0
 33 34  1  0  0  0  0
 34 32  1  0  0  0  0
 36 35  1  0  0  0  0
 37 38  1  0  0  0  0
 38 40  1  0  0  0  0
 40 44  1  0  0  0  0
 41 39  1  0  0  0  0
 42 40  2  0  0  0  0
 42 43  1  0  0  0  0
 43 41  2  0  0  0  0
 44 39  2  0  0  0  0
M  END
>  <MODEL>
5

>  <REMARK>
 VINA RESULT:      -6.1      2.777      7.645
  Name = 
  12 active torsions:
  status: ('A' for Active; 'I' for Inactive)
    1  A    between atoms: C_1  and  C_25
    2  A    between atoms: C_5  and  C_44
    3  A    between atoms: N_6  and  C_32
    4  A    between atoms: C_7  and  C_41
    5  A    between atoms: C_9  and  O_17
    6  A    between atoms: C_14  and  O_43
    7  A    between atoms: C_15  and  O_17
    8  A    between atoms: C_15  and  C_32
    9  A    between atoms: O_21  and  C_25
   10  A    between atoms: C_23  and  N_27
   11  A    between atoms: C_25  and  O_31
   12  A    between atoms: N_27  and  C_44
                            x       y       z     vdW  Elec       q    Type
                         _______ _______ _______ _____ _____    ______ ____

>  <TORSDO>
F 12

$$$$
=
 OpenBabel11052409343D

 44 48  0  0  1  0  0  0  0  0999 V2000
  161.5300  205.7540  149.0650 C   0  0  0  0  0  0  0  0  0  0  0  0
  160.4710  209.4440  153.5890 C   0  0  2  0  0  3  0  0  0  0  0  0
  160.5950  211.6340  150.5010 C   0  0  1  0  0  3  0  0  0  0  0  0
  162.2370  211.3060  148.6490 C   0  0  0  0  0  3  0  0  0  0  0  0
  161.5510  212.1250  149.4540 C   0  0  0  0  0  3  0  0  0  0  0  0
  160.4830  207.5550  151.9740 N   0  0  0  0  0  2  0  0  0  0  0  0
  161.2000  208.1800  153.0850 C   0  0  0  0  0  2  0  0  0  0  0  0
  161.3250  210.7850  151.5130 C   0  0  1  0  0  3  0  0  0  0  0  0
  160.9180  210.7520  152.9320 C   0  0  0  0  0  0  0  0  0  0  0  0
  162.0540  209.1870  149.8370 C   0  0  0  0  0  0  0  0  0  0  0  0
  162.1730  209.8740  148.7370 N   0  0  0  0  0  0  0  0  0  0  0  0
  162.0370  209.7830  151.1260 N   0  0  0  0  0  2  0  0  0  0  0  0
  160.8190  211.8380  153.5670 O   0  0  0  0  0  0  0  0  0  0  0  0
  161.7940  207.7440  149.8080 C   0  0  0  0  0  0  0  0  0  0  0  0
  161.1260  207.0250  150.7980 C   0  0  0  0  0  0  0  0  0  0  0  0
  162.0460  206.9590  148.7470 N   0  0  0  0  0  0  0  0  0  0  0  0
  160.9200  205.7500  150.3140 C   0  0  0  0  0  2  0  0  0  0  0  0
  159.9770  212.7320  151.1050 O   0  0  0  0  0  0  0  0  0  0  0  0
  160.2840  213.8190  150.2820 C   0  0  0  0  0  2  0  0  0  0  0  0
  159.0870  214.1770  149.4160 C   0  0  0  0  0  2  0  0  0  0  0  0
  159.5040  214.4050  148.0390 N   0  0  0  0  0  2  0  0  0  0  0  0
  158.4790  212.4830  147.1970 O   0  0  0  0  0  0  0  0  0  0  0  0
  159.1960  213.4970  146.9760 C   0  0  0  0  0  0  0  0  0  0  0  0
  161.0840  213.7470  145.3670 C   0  0  0  0  0  3  0  0  0  0  0  0
  159.7060  213.7480  145.6190 C   0  0  0  0  0  0  0  0  0  0  0  0
  159.2650  214.2160  143.3230 C   0  0  0  0  0  0  0  0  0  0  0  0
  158.8360  213.9800  144.5960 N   0  0  0  0  0  0  0  0  0  0  0  0
  161.5450  213.9840  144.0720 C   0  0  0  0  0  3  0  0  0  0  0  0
  160.6330  214.2200  143.0420 C   0  0  0  0  0  3  0  0  0  0  0  0
  158.2200  213.5720  141.1890 C   0  0  0  0  0  1  0  0  0  0  0  0
  158.3540  214.4530  142.2930 O   0  0  0  0  0  0  0  0  0  0  0  0
  161.6120  204.5700  148.1390 C   0  0  0  0  0  3  0  0  0  0  0  0
  161.2380  202.5080  148.8550 C   0  0  0  0  0  1  0  0  0  0  0  0
  160.5870  203.6380  148.3580 O   0  0  0  0  0  0  0  0  0  0  0  0
  163.0100  204.6880  146.3290 C   0  0  0  0  0  1  0  0  0  0  0  0
  161.7050  204.9460  146.7800 O   0  0  0  0  0  0  0  0  0  0  0  0
  160.6120  209.5280  155.1020 C   0  0  0  0  0  2  0  0  0  0  0  0
  159.3000  209.6450  155.7220 N   0  0  0  0  0  2  0  0  0  0  0  0
  158.5780  213.1560  156.8000 C   0  0  0  0  0  3  0  0  0  0  0  0
  158.6420  210.8990  155.9060 C   0  0  0  0  0  0  0  0  0  0  0  0
  157.3070  213.3400  156.2460 C   0  0  0  0  0  3  0  0  0  0  0  0
  157.3700  211.0900  155.3530 C   0  0  0  0  0  3  0  0  0  0  0  0
  156.7040  212.3080  155.5210 C   0  0  0  0  0  3  0  0  0  0  0  0
  159.2440  211.9390  156.6310 C   0  0  0  0  0  3  0  0  0  0  0  0
  1 17  1  0  0  0  0
  2 37  1  1  0  0  0
  3 18  1  1  0  0  0
  3  8  1  0  0  0  0
  4 11  1  0  0  0  0
  4  5  2  0  0  0  0
  5  3  1  0  0  0  0
  6  7  1  0  0  0  0
  7  2  1  0  0  0  0
  8 12  1  6  0  0  0
  8  9  1  0  0  0  0
  9 13  2  0  0  0  0
  9  2  1  0  0  0  0
 10 12  1  0  0  0  0
 11 10  2  0  0  0  0
 14 10  1  0  0  0  0
 14 15  2  0  0  0  0
 15  6  1  0  0  0  0
 16  1  2  0  0  0  0
 16 14  1  0  0  0  0
 17 15  1  0  0  0  0
 19 18  1  0  0  0  0
 20 19  1  0  0  0  0
 21 20  1  0  0  0  0
 23 22  2  0  0  0  0
 23 21  1  0  0  0  0
 24 25  2  0  0  0  0
 25 23  1  0  0  0  0
 26 27  2  0  0  0  0
 27 25  1  0  0  0  0
 28 24  1  0  0  0  0
 29 26  1  0  0  0  0
 29 28  2  0  0  0  0
 30 31  1  0  0  0  0
 31 26  1  0  0  0  0
 32 34  1  0  0  0  0
 32  1  1  0  0  0  0
 34 33  1  0  0  0  0
 35 36  1  0  0  0  0
 36 32  1  0  0  0  0
 37 38  1  0  0  0  0
 38 40  1  0  0  0  0
 40 44  2  0  0  0  0
 41 39  2  0  0  0  0
 42 43  2  0  0  0  0
 42 40  1  0  0  0  0
 43 41  1  0  0  0  0
 44 39  1  0  0  0  0
M  END
>  <MODEL>
6

>  <REMARK>
 VINA RESULT:      -6.0      3.002      7.725
  Name = 
  12 active torsions:
  status: ('A' for Active; 'I' for Inactive)
    1  A    between atoms: C_1  and  C_25
    2  A    between atoms: C_5  and  C_44
    3  A    between atoms: N_6  and  C_32
    4  A    between atoms: C_7  and  C_41
    5  A    between atoms: C_9  and  O_17
    6  A    between atoms: C_14  and  O_43
    7  A    between atoms: C_15  and  O_17
    8  A    between atoms: C_15  and  C_32
    9  A    between atoms: O_21  and  C_25
   10  A    between atoms: C_23  and  N_27
   11  A    between atoms: C_25  and  O_31
   12  A    between atoms: N_27  and  C_44
                            x       y       z     vdW  Elec       q    Type
                         _______ _______ _______ _____ _____    ______ ____

>  <TORSDO>
F 12

$$$$
=
 OpenBabel11052409343D

 44 48  0  0  1  0  0  0  0  0999 V2000
  161.6700  211.0230  148.1950 C   0  0  0  0  0  0  0  0  0  0  0  0
  161.3890  205.6860  150.7730 C   0  0  2  0  0  3  0  0  0  0  0  0
  160.7400  208.1870  153.5430 C   0  0  1  0  0  3  0  0  0  0  0  0
  161.9690  210.3480  153.7590 C   0  0  0  0  0  3  0  0  0  0  0  0
  161.4240  209.2670  154.3270 C   0  0  0  0  0  3  0  0  0  0  0  0
  161.1630  207.6450  149.2590 N   0  0  0  0  0  2  0  0  0  0  0  0
  162.0640  206.5850  149.7150 C   0  0  0  0  0  2  0  0  0  0  0  0
  161.7120  207.5460  152.5830 C   0  0  1  0  0  3  0  0  0  0  0  0
  161.6150  206.1160  152.2250 C   0  0  0  0  0  0  0  0  0  0  0  0
  162.1570  209.6380  151.4360 C   0  0  0  0  0  0  0  0  0  0  0  0
  162.0030  210.5640  152.3390 N   0  0  0  0  0  0  0  0  0  0  0  0
  162.3800  208.2720  151.7540 N   0  0  0  0  0  2  0  0  0  0  0  0
  161.5940  205.2530  153.1440 O   0  0  0  0  0  0  0  0  0  0  0  0
  161.9760  209.9300  150.0100 C   0  0  0  0  0  0  0  0  0  0  0  0
  161.5720  209.0100  149.0440 C   0  0  0  0  0  0  0  0  0  0  0  0
  162.0410  211.1650  149.4850 N   0  0  0  0  0  2  0  0  0  0  0  0
  161.3390  209.7100  147.8790 C   0  0  0  0  0  3  0  0  0  0  0  0
  160.2040  207.2490  154.4310 O   0  0  0  0  0  0  0  0  0  0  0  0
  160.7870  207.5450  155.6660 C   0  0  0  0  0  2  0  0  0  0  0  0
  159.7160  207.9170  156.6780 C   0  0  0  0  0  2  0  0  0  0  0  0
  158.9490  209.0640  156.2110 N   0  0  0  0  0  2  0  0  0  0  0  0
  160.3120  210.6520  157.2460 O   0  0  0  0  0  0  0  0  0  0  0  0
  159.2800  210.4110  156.5610 C   0  0  0  0  0  0  0  0  0  0  0  0
  157.3820  211.9860  156.9290 C   0  0  0  0  0  3  0  0  0  0  0  0
  158.4240  211.5220  156.1160 C   0  0  0  0  0  0  0  0  0  0  0  0
  157.8760  213.1420  154.4540 C   0  0  0  0  0  0  0  0  0  0  0  0
  158.6430  212.1090  154.9060 N   0  0  0  0  0  0  0  0  0  0  0  0
  156.5850  213.0420  156.4880 C   0  0  0  0  0  3  0  0  0  0  0  0
  156.8310  213.6250  155.2440 C   0  0  0  0  0  3  0  0  0  0  0  0
  158.2110  212.9530  152.0220 C   0  0  0  0  0  1  0  0  0  0  0  0
  158.1200  213.7250  153.2100 O   0  0  0  0  0  0  0  0  0  0  0  0
  161.6190  212.1820  147.2370 C   0  0  0  0  0  3  0  0  0  0  0  0
  159.8750  213.1150  146.2400 C   0  0  0  0  0  1  0  0  0  0  0  0
  160.5280  213.0330  147.4710 O   0  0  0  0  0  0  0  0  0  0  0  0
  162.6420  214.1790  147.6950 C   0  0  0  0  0  1  0  0  0  0  0  0
  162.8400  212.8910  147.1720 O   0  0  0  0  0  0  0  0  0  0  0  0
  161.8420  204.2480  150.5630 C   0  0  0  0  0  2  0  0  0  0  0  0
  160.8440  203.5150  149.7980 N   0  0  0  0  0  2  0  0  0  0  0  0
  161.5670  203.9420  146.1500 C   0  0  0  0  0  3  0  0  0  0  0  0
  160.9860  203.2450  148.4030 C   0  0  0  0  0  0  0  0  0  0  0  0
  161.2430  202.6680  145.6720 C   0  0  0  0  0  3  0  0  0  0  0  0
  160.6630  201.9720  147.9180 C   0  0  0  0  0  3  0  0  0  0  0  0
  160.7930  201.6830  146.5560 C   0  0  0  0  0  3  0  0  0  0  0  0
  161.4390  204.2300  147.5120 C   0  0  0  0  0  3  0  0  0  0  0  0
  1 16  1  0  0  0  0
  2 37  1  1  0  0  0
  2  9  1  0  0  0  0
  3  5  1  0  0  0  0
  3 18  1  1  0  0  0
  4  5  2  0  0  0  0
  6  7  1  0  0  0  0
  7  2  1  0  0  0  0
  8 12  1  6  0  0  0
  8  3  1  0  0  0  0
  9  8  1  0  0  0  0
  9 13  2  0  0  0  0
 10 12  1  0  0  0  0
 10 11  2  0  0  0  0
 11  4  1  0  0  0  0
 14 10  1  0  0  0  0
 15  6  1  0  0  0  0
 15 14  2  0  0  0  0
 16 14  1  0  0  0  0
 17  1  2  0  0  0  0
 17 15  1  0  0  0  0
 18 19  1  0  0  0  0
 19 20  1  0  0  0  0
 21 23  1  0  0  0  0
 21 20  1  0  0  0  0
 23 22  2  0  0  0  0
 25 23  1  0  0  0  0
 25 24  2  0  0  0  0
 26 27  2  0  0  0  0
 26 29  1  0  0  0  0
 27 25  1  0  0  0  0
 28 24  1  0  0  0  0
 29 28  2  0  0  0  0
 30 31  1  0  0  0  0
 31 26  1  0  0  0  0
 32 34  1  0  0  0  0
 32  1  1  0  0  0  0
 33 34  1  0  0  0  0
 36 32  1  0  0  0  0
 36 35  1  0  0  0  0
 38 37  1  0  0  0  0
 39 44  1  0  0  0  0
 40 38  1  0  0  0  0
 41 39  2  0  0  0  0
 41 43  1  0  0  0  0
 42 40  1  0  0  0  0
 43 42  2  0  0  0  0
 44 40  2  0  0  0  0
M  END
>  <MODEL>
7

>  <REMARK>
 VINA RESULT:      -5.9      2.412      6.210
  Name = 
  12 active torsions:
  status: ('A' for Active; 'I' for Inactive)
    1  A    between atoms: C_1  and  C_25
    2  A    between atoms: C_5  and  C_44
    3  A    between atoms: N_6  and  C_32
    4  A    between atoms: C_7  and  C_41
    5  A    between atoms: C_9  and  O_17
    6  A    between atoms: C_14  and  O_43
    7  A    between atoms: C_15  and  O_17
    8  A    between atoms: C_15  and  C_32
    9  A    between atoms: O_21  and  C_25
   10  A    between atoms: C_23  and  N_27
   11  A    between atoms: C_25  and  O_31
   12  A    between atoms: N_27  and  C_44
                            x       y       z     vdW  Elec       q    Type
                         _______ _______ _______ _____ _____    ______ ____

>  <TORSDO>
F 12

$$$$
=
 OpenBabel11052409343D

 44 48  0  0  1  0  0  0  0  0999 V2000
  159.4030  212.4110  155.3280 C   0  0  0  0  0  0  0  0  0  0  0  0
  162.0840  209.5060  150.9040 C   0  0  2  0  0  3  0  0  0  0  0  0
  161.4440  212.9980  149.5830 C   0  0  1  0  0  3  0  0  0  0  0  0
  159.3470  214.2740  150.0340 C   0  0  0  0  0  3  0  0  0  0  0  0
  160.3210  213.9120  149.1930 C   0  0  0  0  0  3  0  0  0  0  0  0
  161.4020  210.4540  153.0980 N   0  0  0  0  0  2  0  0  0  0  0  0
  161.0890  209.4480  152.0820 C   0  0  0  0  0  2  0  0  0  0  0  0
  160.8990  211.6490  149.9870 C   0  0  1  0  0  3  0  0  0  0  0  0
  161.6560  210.4050  149.7410 C   0  0  0  0  0  0  0  0  0  0  0  0
  159.5540  212.5860  151.7780 C   0  0  0  0  0  0  0  0  0  0  0  0
  159.2430  213.7860  151.3810 N   0  0  0  0  0  0  0  0  0  0  0  0
  159.9860  211.5630  150.8920 N   0  0  0  0  0  2  0  0  0  0  0  0
  162.0590  210.1530  148.5730 O   0  0  0  0  0  0  0  0  0  0  0  0
  159.6060  212.2460  153.2040 C   0  0  0  0  0  0  0  0  0  0  0  0
  160.4090  211.2560  153.7680 C   0  0  0  0  0  0  0  0  0  0  0  0
  158.9840  212.9500  154.1640 N   0  0  0  0  0  0  0  0  0  0  0  0
  160.3120  211.3770  155.1380 C   0  0  0  0  0  2  0  0  0  0  0  0
  162.3370  212.8900  148.5140 O   0  0  0  0  0  0  0  0  0  0  0  0
  161.8080  213.7120  147.5150 C   0  0  0  0  0  2  0  0  0  0  0  0
  161.1710  212.8690  146.4230 C   0  0  0  0  0  2  0  0  0  0  0  0
  161.6660  213.2710  145.1130 N   0  0  0  0  0  2  0  0  0  0  0  0
  160.3960  211.7090  143.9300 O   0  0  0  0  0  0  0  0  0  0  0  0
  161.2640  212.6240  143.9020 C   0  0  0  0  0  0  0  0  0  0  0  0
  162.7710  214.0870  142.5580 C   0  0  0  0  0  3  0  0  0  0  0  0
  161.8550  213.0290  142.6170 C   0  0  0  0  0  0  0  0  0  0  0  0
  162.0370  212.7140  140.2600 C   0  0  0  0  0  0  0  0  0  0  0  0
  161.5140  212.3720  141.4720 N   0  0  0  0  0  0  0  0  0  0  0  0
  163.3200  214.4530  141.3290 C   0  0  0  0  0  3  0  0  0  0  0  0
  162.9530  213.7640  140.1720 C   0  0  0  0  0  3  0  0  0  0  0  0
  160.6440  212.4960  138.2420 C   0  0  0  0  0  1  0  0  0  0  0  0
  161.6700  212.0260  139.1020 O   0  0  0  0  0  0  0  0  0  0  0  0
  158.9270  212.9090  156.6660 C   0  0  0  0  0  3  0  0  0  0  0  0
  160.5510  214.3270  157.1740 C   0  0  0  0  0  1  0  0  0  0  0  0
  159.1910  214.2720  156.8630 O   0  0  0  0  0  0  0  0  0  0  0  0
  156.8330  213.7800  156.9820 C   0  0  0  0  0  1  0  0  0  0  0  0
  157.5740  212.5900  156.9180 O   0  0  0  0  0  0  0  0  0  0  0  0
  162.3560  208.0900  150.4140 C   0  0  0  0  0  2  0  0  0  0  0  0
  161.1450  207.2880  150.5020 N   0  0  0  0  0  2  0  0  0  0  0  0
  161.1270  204.2620  148.3010 C   0  0  0  0  0  3  0  0  0  0  0  0
  161.0830  205.9300  150.0640 C   0  0  0  0  0  0  0  0  0  0  0  0
  160.9510  203.2510  149.2510 C   0  0  0  0  0  3  0  0  0  0  0  0
  160.9080  204.9140  151.0110 C   0  0  0  0  0  3  0  0  0  0  0  0
  160.8430  203.5780  150.6060 C   0  0  0  0  0  3  0  0  0  0  0  0
  161.1930  205.5980  148.7050 C   0  0  0  0  0  3  0  0  0  0  0  0
  1 32  1  0  0  0  0
  2 37  1  6  0  0  0
  2  7  1  0  0  0  0
  3 18  1  6  0  0  0
  3  8  1  0  0  0  0
  4 11  1  0  0  0  0
  5  3  1  0  0  0  0
  5  4  2  0  0  0  0
  6 15  1  0  0  0  0
  7  6  1  0  0  0  0
  8  9  1  1  0  0  0
  8 12  1  0  0  0  0
  9  2  1  0  0  0  0
 10 14  1  0  0  0  0
 11 10  2  0  0  0  0
 12 10  1  0  0  0  0
 13  9  2  0  0  0  0
 14 15  2  0  0  0  0
 14 16  1  0  0  0  0
 15 17  1  0  0  0  0
 16  1  2  0  0  0  0
 17  1  1  0  0  0  0
 19 18  1  0  0  0  0
 20 19  1  0  0  0  0
 21 20  1  0  0  0  0
 23 22  2  0  0  0  0
 23 21  1  0  0  0  0
 24 25  2  0  0  0  0
 25 23  1  0  0  0  0
 26 27  2  0  0  0  0
 27 25  1  0  0  0  0
 28 24  1  0  0  0  0
 29 26  1  0  0  0  0
 29 28  2  0  0  0  0
 30 31  1  0  0  0  0
 31 26  1  0  0  0  0
 32 34  1  0  0  0  0
 32 36  1  0  0  0  0
 34 33  1  0  0  0  0
 36 35  1  0  0  0  0
 37 38  1  0  0  0  0
 39 44  2  0  0  0  0
 39 41  1  0  0  0  0
 40 38  1  0  0  0  0
 40 42  2  0  0  0  0
 41 43  2  0  0  0  0
 43 42  1  0  0  0  0
 44 40  1  0  0  0  0
M  END
>  <MODEL>
8

>  <REMARK>
 VINA RESULT:      -5.5      3.813     11.100
  Name = 
  12 active torsions:
  status: ('A' for Active; 'I' for Inactive)
    1  A    between atoms: C_1  and  C_25
    2  A    between atoms: C_5  and  C_44
    3  A    between atoms: N_6  and  C_32
    4  A    between atoms: C_7  and  C_41
    5  A    between atoms: C_9  and  O_17
    6  A    between atoms: C_14  and  O_43
    7  A    between atoms: C_15  and  O_17
    8  A    between atoms: C_15  and  C_32
    9  A    between atoms: O_21  and  C_25
   10  A    between atoms: C_23  and  N_27
   11  A    between atoms: C_25  and  O_31
   12  A    between atoms: N_27  and  C_44
                            x       y       z     vdW  Elec       q    Type
                         _______ _______ _______ _____ _____    ______ ____

>  <TORSDO>
F 12

$$$$
=
 OpenBabel11052409343D

 44 48  0  0  1  0  0  0  0  0999 V2000
  161.4280  204.5100  149.7420 C   0  0  0  0  0  0  0  0  0  0  0  0
  161.9040  210.3520  150.6680 C   0  0  2  0  0  3  0  0  0  0  0  0
  161.9230  208.7740  154.1120 C   0  0  1  0  0  3  0  0  0  0  0  0
  160.4630  206.8530  154.7510 C   0  0  0  0  0  3  0  0  0  0  0  0
  161.0340  208.0220  155.0580 C   0  0  0  0  0  3  0  0  0  0  0  0
  162.1290  208.0170  149.8440 N   0  0  0  0  0  2  0  0  0  0  0  0
  161.2880  209.2150  149.8250 C   0  0  0  0  0  2  0  0  0  0  0  0
  161.1570  209.1490  152.8660 C   0  0  1  0  0  3  0  0  0  0  0  0
  161.4450  210.3950  152.1270 C   0  0  0  0  0  0  0  0  0  0  0  0
  160.6580  206.8360  152.3220 C   0  0  0  0  0  0  0  0  0  0  0  0
  160.5950  206.2210  153.4680 N   0  0  0  0  0  0  0  0  0  0  0  0
  160.5340  208.2450  152.1900 N   0  0  0  0  0  2  0  0  0  0  0  0
  161.4320  211.4930  152.7480 O   0  0  0  0  0  0  0  0  0  0  0  0
  160.9960  206.1160  151.0900 C   0  0  0  0  0  0  0  0  0  0  0  0
  161.6160  206.6760  149.9740 C   0  0  0  0  0  0  0  0  0  0  0  0
  160.8760  204.7870  150.9430 N   0  0  0  0  0  2  0  0  0  0  0  0
  161.9290  205.6450  149.1150 C   0  0  0  0  0  3  0  0  0  0  0  0
  162.4290  209.9030  154.7610 O   0  0  0  0  0  0  0  0  0  0  0  0
  162.0350  209.7620  156.0940 C   0  0  0  0  0  2  0  0  0  0  0  0
  161.6880  211.1180  156.6860 C   0  0  0  0  0  2  0  0  0  0  0  0
  160.6740  211.7830  155.8780 N   0  0  0  0  0  2  0  0  0  0  0  0
  158.8670  210.7210  156.9080 O   0  0  0  0  0  0  0  0  0  0  0  0
  159.2750  211.5130  156.0150 C   0  0  0  0  0  0  0  0  0  0  0  0
  156.9380  212.1390  155.4150 C   0  0  0  0  0  3  0  0  0  0  0  0
  158.3070  212.1640  155.1190 C   0  0  0  0  0  0  0  0  0  0  0  0
  157.8770  213.4190  153.1380 C   0  0  0  0  0  0  0  0  0  0  0  0
  158.7390  212.8010  153.9950 N   0  0  0  0  0  0  0  0  0  0  0  0
  156.0380  212.7660  154.5530 C   0  0  0  0  0  3  0  0  0  0  0  0
  156.5070  213.4110  153.4070 C   0  0  0  0  0  3  0  0  0  0  0  0
  157.9810  213.6370  150.6870 C   0  0  0  0  0  1  0  0  0  0  0  0
  158.3450  214.0630  151.9910 O   0  0  0  0  0  0  0  0  0  0  0  0
  161.4870  203.1150  149.1830 C   0  0  0  0  0  3  0  0  0  0  0  0
  160.8240  201.3320  150.3180 C   0  0  0  0  0  1  0  0  0  0  0  0
  160.3490  202.3560  149.4960 O   0  0  0  0  0  0  0  0  0  0  0  0
  160.9530  202.1350  147.1830 C   0  0  0  0  0  1  0  0  0  0  0  0
  161.7740  203.0920  147.7990 O   0  0  0  0  0  0  0  0  0  0  0  0
  161.6320  211.6820  149.9810 C   0  0  0  0  0  2  0  0  0  0  0  0
  162.3450  211.7470  148.7140 N   0  0  0  0  0  2  0  0  0  0  0  0
  160.0330  213.3560  146.2500 C   0  0  0  0  0  3  0  0  0  0  0  0
  161.8600  212.4830  147.5900 C   0  0  0  0  0  0  0  0  0  0  0  0
  160.9540  213.9310  145.3680 C   0  0  0  0  0  3  0  0  0  0  0  0
  162.7770  213.0610  146.7050 C   0  0  0  0  0  3  0  0  0  0  0  0
  162.3250  213.7850  145.5970 C   0  0  0  0  0  3  0  0  0  0  0  0
  160.4840  212.6340  147.3580 C   0  0  0  0  0  3  0  0  0  0  0  0
  1 16  1  0  0  0  0
  2 37  1  6  0  0  0
  2  9  1  0  0  0  0
  3 18  1  1  0  0  0
  3  5  1  0  0  0  0
  4  5  2  0  0  0  0
  6 15  1  0  0  0  0
  7  6  1  0  0  0  0
  7  2  1  0  0  0  0
  8  9  1  6  0  0  0
  8  3  1  0  0  0  0
  9 13  2  0  0  0  0
 10 11  2  0  0  0  0
 11  4  1  0  0  0  0
 12 10  1  0  0  0  0
 12  8  1  0  0  0  0
 14 10  1  0  0  0  0
 15 14  2  0  0  0  0
 16 14  1  0  0  0  0
 17  1  2  0  0  0  0
 17 15  1  0  0  0  0
 18 19  1  0  0  0  0
 19 20  1  0  0  0  0
 21 23  1  0  0  0  0
 21 20  1  0  0  0  0
 23 22  2  0  0  0  0
 25 24  2  0  0  0  0
 25 23  1  0  0  0  0
 26 29  1  0  0  0  0
 26 27  2  0  0  0  0
 27 25  1  0  0  0  0
 28 24  1  0  0  0  0
 29 28  2  0  0  0  0
 30 31  1  0  0  0  0
 31 26  1  0  0  0  0
 32 34  1  0  0  0  0
 32  1  1  0  0  0  0
 34 33  1  0  0  0  0
 35 36  1  0  0  0  0
 36 32  1  0  0  0  0
 38 37  1  0  0  0  0
 39 44  1  0  0  0  0
 40 38  1  0  0  0  0
 41 43  1  0  0  0  0
 41 39  2  0  0  0  0
 42 40  1  0  0  0  0
 43 42  2  0  0  0  0
 44 40  2  0  0  0  0
M  END
>  <MODEL>
9

>  <REMARK>
 VINA RESULT:      -5.4      1.936      2.941
  Name = 
  12 active torsions:
  status: ('A' for Active; 'I' for Inactive)
    1  A    between atoms: C_1  and  C_25
    2  A    between atoms: C_5  and  C_44
    3  A    between atoms: N_6  and  C_32
    4  A    between atoms: C_7  and  C_41
    5  A    between atoms: C_9  and  O_17
    6  A    between atoms: C_14  and  O_43
    7  A    between atoms: C_15  and  O_17
    8  A    between atoms: C_15  and  C_32
    9  A    between atoms: O_21  and  C_25
   10  A    between atoms: C_23  and  N_27
   11  A    between atoms: C_25  and  O_31
   12  A    between atoms: N_27  and  C_44
                            x       y       z     vdW  Elec       q    Type
                         _______ _______ _______ _____ _____    ______ ____

>  <TORSDO>
F 12

$$$$
