=
 OpenBabel11042421473D

 63 69  0  0  1  0  0  0  0  0999 V2000
  160.8530  210.2030  153.4020 C   0  0  2  0  0  3  0  0  0  0  0  0
  160.2850  208.1670  151.9920 C   0  0  0  0  0  2  0  0  0  0  0  0
  162.3640  208.0080  151.0130 C   0  0  0  0  0  2  0  0  0  0  0  0
  162.5920  208.7120  152.3380 C   0  0  0  0  0  2  0  0  0  0  0  0
  161.2300  208.7470  153.0290 C   0  0  1  0  0  0  0  0  0  0  0  0
  161.0930  207.3160  151.1210 N   0  0  0  0  0  0  0  0  0  0  0  0
  160.0160  207.3370  154.7950 N   0  0  0  0  0  2  0  0  0  0  0  0
  161.2380  207.8520  154.2500 C   0  0  0  0  0  0  0  0  0  0  0  0
  162.3290  207.5670  154.8130 O   0  0  0  0  0  0  0  0  0  0  0  0
  160.0210  206.5550  155.9020 O   0  0  0  0  0  0  0  0  0  0  0  0
  160.0190  207.4470  156.9800 C   0  0  0  0  0  1  0  0  0  0  0  0
  159.0510  206.6860  149.7600 C   0  0  0  0  0  1  0  0  0  0  0  0
  160.5120  207.1390  149.7800 C   0  0  2  0  0  3  0  0  0  0  0  0
  161.9510  205.4240  144.2350 C   0  0  0  0  0  2  0  0  0  0  0  0
  163.7470  204.5330  145.9960 O   0  0  0  0  0  1  0  0  0  0  0  0
  161.3960  206.2630  148.8870 C   0  0  1  0  0  3  0  0  0  0  0  0
  160.8230  205.5930  146.4710 C   0  0  2  0  0  3  0  0  0  0  0  0
  160.9250  204.8800  148.9410 N   0  0  1  0  0  0  0  0  0  0  0  0
  160.7330  205.9430  144.9880 C   0  0  0  0  0  2  0  0  0  0  0  0
  162.0920  204.0360  144.4470 O   0  0  0  0  0  0  0  0  0  0  0  0
  162.0520  204.2600  148.1960 C   0  0  2  0  0  3  0  0  0  0  0  0
  161.3500  206.7370  147.3860 C   0  0  0  0  0  2  0  0  0  0  0  0
  161.4560  204.1920  146.7870 C   0  0  2  0  0  3  0  0  0  0  0  0
  162.5520  203.8370  145.7650 C   0  0  2  0  0  3  0  0  0  0  0  0
  161.6930  203.7810  149.5290 C   0  0  2  0  0  3  0  0  0  0  0  0
  161.1520  201.4820  150.3440 O   0  0  0  0  0  1  0  0  0  0  0  0
  160.9460  202.4880  149.4080 C   0  0  0  0  0  0  0  0  0  0  0  0
  160.1160  202.3080  148.4730 O   0  0  0  0  0  0  0  0  0  0  0  0
  160.3980  210.3990  154.8680 C   0  0  1  0  0  3  0  0  0  0  0  0
  161.2550  211.4680  155.4930 C   0  0  0  0  0  3  0  0  0  0  0  0
  162.0300  211.2800  156.5090 N   0  0  0  0  0  0  0  0  0  0  0  0
  162.1630  210.0130  157.1770 C   0  0  0  0  0  1  0  0  0  0  0  0
  158.9090  210.7380  155.0010 C   0  0  0  0  0  2  0  0  0  0  0  0
  158.4780  210.8820  156.4510 C   0  0  0  0  0  2  0  0  0  0  0  0
  158.0680  213.2310  155.7880 C   0  0  0  0  0  1  0  0  0  0  0  0
  157.5620  212.0790  156.6400 C   0  0  1  0  0  3  0  0  0  0  0  0
  155.5940  212.7650  155.4530 O   0  0  0  0  0  1  0  0  0  0  0  0
  156.1430  211.7330  156.2180 C   0  0  0  0  0  2  0  0  0  0  0  0
  159.9180  210.8640  152.3800 C   0  0  0  0  0  2  0  0  0  0  0  0
  156.7320  214.0810  150.4290 C   0  0  0  0  0  3  0  0  0  0  0  0
  158.8790  213.0070  151.8240 C   0  0  0  0  0  0  0  0  0  0  0  0
  159.0280  213.3870  150.5170 C   0  0  0  0  0  0  0  0  0  0  0  0
  160.3390  213.1210  150.0600 N   0  0  0  0  0  0  0  0  0  0  0  0
  160.1330  212.3670  152.3270 C   0  0  2  0  0  3  0  0  0  0  0  0
  157.9690  213.9200  149.7800 C   0  0  0  0  0  3  0  0  0  0  0  0
  161.1410  212.6600  151.1920 C   0  0  0  0  0  2  0  0  0  0  0  0
  156.5750  213.6900  151.7740 C   0  0  0  0  0  3  0  0  0  0  0  0
  157.6550  213.1380  152.4840 C   0  0  0  0  0  3  0  0  0  0  0  0
  160.7460  213.0820  148.6620 C   0  0  0  0  0  2  0  0  0  0  0  0
  159.5830  212.5780  147.8000 C   0  0  0  0  0  2  0  0  0  0  0  0
  160.0480  211.9240  146.6510 O   0  0  0  0  0  0  0  0  0  0  0  0
  160.2170  212.9070  145.6600 C   0  0  2  0  0  3  0  0  0  0  0  0
  159.0420  212.8940  144.6840 C   0  0  0  0  0  1  0  0  0  0  0  0
  162.5640  213.3480  145.5060 O   0  0  0  0  0  1  0  0  0  0  0  0
  161.5160  212.6500  144.8920 C   0  0  2  0  0  3  0  0  0  0  0  0
  162.1600  213.6810  140.4390 C   0  0  0  0  0  3  0  0  0  0  0  0
  160.9090  211.6840  141.2980 C   0  0  0  0  0  0  0  0  0  0  0  0
  160.8870  211.8700  142.6290 C   0  0  0  0  0  3  0  0  0  0  0  0
  161.3800  213.0420  143.4130 C   0  0  2  0  0  3  0  0  0  0  0  0
  162.3680  214.4530  141.7000 C   0  0  0  0  0  2  0  0  0  0  0  0
  162.6980  213.5510  142.8650 C   0  0  0  0  0  2  0  0  0  0  0  0
  161.5270  212.5500  140.3250 N   0  0  0  0  0  0  0  0  0  0  0  0
  160.3440  210.5430  140.8300 F   0  0  0  0  0  0  0  0  0  0  0  0
  1 39  1  6  0  0  0
  1 29  1  0  0  0  0
  2  5  1  0  0  0  0
  3  6  1  0  0  0  0
  3  4  1  0  0  0  0
  4  5  1  0  0  0  0
  5  1  1  0  0  0  0
  5  8  1  1  0  0  0
  6  2  1  0  0  0  0
  7 10  1  0  0  0  0
  8  7  1  0  0  0  0
  8  9  2  0  0  0  0
 10 11  1  0  0  0  0
 13 12  1  1  0  0  0
 13  6  1  0  0  0  0
 14 20  1  0  0  0  0
 14 19  1  0  0  0  0
 16 18  1  0  0  0  0
 16 13  1  1  0  0  0
 17 19  1  6  0  0  0
 17 23  1  0  0  0  0
 17 22  1  0  0  0  0
 18 25  1  0  0  0  0
 20 24  1  0  0  0  0
 21 18  1  0  0  0  0
 21 25  1  0  0  0  0
 22 16  1  0  0  0  0
 23 21  1  0  0  0  0
 24 15  1  0  0  0  0
 24 23  1  0  0  0  0
 27 25  1  0  0  0  0
 27 26  1  0  0  0  0
 28 27  2  0  0  0  0
 29 33  1  0  0  0  0
 29 30  1  0  0  0  0
 30 31  2  0  0  0  0
 31 32  1  0  0  0  0
 33 34  1  0  0  0  0
 34 36  1  0  0  0  0
 35 36  1  0  0  0  0
 37 38  1  0  0  0  0
 38 36  1  0  0  0  0
 40 47  1  0  0  0  0
 41 44  1  0  0  0  0
 41 48  1  0  0  0  0
 42 41  2  0  0  0  0
 43 42  1  0  0  0  0
 43 46  1  0  0  0  0
 44 39  1  0  0  0  0
 45 40  2  0  0  0  0
 45 42  1  0  0  0  0
 46 44  1  0  0  0  0
 47 48  2  0  0  0  0
 49 43  1  0  0  0  0
 50 49  1  0  0  0  0
 51 50  1  0  0  0  0
 52 51  1  0  0  0  0
 53 52  1  0  0  0  0
 55 54  1  0  0  0  0
 55 52  1  0  0  0  0
 56 60  1  0  0  0  0
 57 58  2  0  0  0  0
 58 59  1  0  0  0  0
 59 55  1  0  0  0  0
 60 61  1  0  0  0  0
 61 59  1  0  0  0  0
 62 56  2  0  0  0  0
 62 57  1  0  0  0  0
 63 57  1  0  0  0  0
M  END
>  <MODEL>
1

>  <REMARK>
 VINA RESULT:      -4.1      0.000      0.000
  Name = 
  20 active torsions:
  status: ('A' for Active; 'I' for Inactive)
    1  A    between atoms: C_2  and  O_14
    2  A    between atoms: C_2  and  C_27
    3  A    between atoms: C_5  and  C_35
    4  A    between atoms: C_5  and  C_41
    5  A    between atoms: C_8  and  O_14
    6  A    between atoms: C_8  and  C_23
    7  A    between atoms: O_9  and  N_22
    8  A    between atoms: C_10  and  C_41
    9  A    between atoms: C_20  and  C_62
   10  A    between atoms: C_23  and  C_45
   11  A    between atoms: C_26  and  C_35
   12  A    between atoms: C_26  and  C_46
   13  A    between atoms: C_27  and  N_37
   14  A    between atoms: C_33  and  C_59
   15  A    between atoms: C_36  and  C_43
   16  A    between atoms: C_36  and  C_61
   17  A    between atoms: C_38  and  C_60
   18  A    between atoms: C_41  and  C_61
   19  A    between atoms: N_57  and  C_62
   20  A    between atoms: C_60  and  C_61
                            x       y       z     vdW  Elec       q    Type
                         _______ _______ _______ _____ _____    ______ ____

>  <TORSDO>
F 20

$$$$
=
 OpenBabel11042421473D

 63 69  0  0  1  0  0  0  0  0999 V2000
  160.6190  210.4190  153.5240 C   0  0  2  0  0  3  0  0  0  0  0  0
  160.1800  208.4710  151.9520 C   0  0  0  0  0  2  0  0  0  0  0  0
  162.3580  208.3010  151.2220 C   0  0  0  0  0  2  0  0  0  0  0  0
  162.4400  208.9320  152.6000 C   0  0  0  0  0  2  0  0  0  0  0  0
  161.0050  208.9720  153.1240 C   0  0  1  0  0  0  0  0  0  0  0  0
  161.0680  207.6400  151.1410 N   0  0  0  0  0  0  0  0  0  0  0  0
  159.5890  207.8870  154.9670 N   0  0  0  0  0  2  0  0  0  0  0  0
  160.8450  208.0180  154.2880 C   0  0  0  0  0  0  0  0  0  0  0  0
  161.8310  207.3400  154.6860 O   0  0  0  0  0  0  0  0  0  0  0  0
  159.4520  207.0510  156.0250 O   0  0  0  0  0  0  0  0  0  0  0  0
  160.4490  207.4360  156.9270 C   0  0  0  0  0  1  0  0  0  0  0  0
  159.1530  207.3200  149.5140 C   0  0  0  0  0  1  0  0  0  0  0  0
  160.6490  207.5460  149.7320 C   0  0  2  0  0  3  0  0  0  0  0  0
  162.0560  205.1780  144.4240 C   0  0  0  0  0  2  0  0  0  0  0  0
  163.7980  204.4100  146.2950 O   0  0  0  0  0  1  0  0  0  0  0  0
  161.5020  206.5420  148.9510 C   0  0  1  0  0  3  0  0  0  0  0  0
  160.9200  205.6370  146.6150 C   0  0  2  0  0  3  0  0  0  0  0  0
  160.9710  205.1940  149.1490 N   0  0  1  0  0  0  0  0  0  0  0  0
  160.8570  205.8270  145.1010 C   0  0  0  0  0  2  0  0  0  0  0  0
  162.1350  203.8170  144.7870 O   0  0  0  0  0  0  0  0  0  0  0  0
  162.0750  204.4490  148.4890 C   0  0  2  0  0  3  0  0  0  0  0  0
  161.4880  206.8510  147.4070 C   0  0  0  0  0  2  0  0  0  0  0  0
  161.4880  204.2530  147.0890 C   0  0  2  0  0  3  0  0  0  0  0  0
  162.5750  203.7440  146.1250 C   0  0  2  0  0  3  0  0  0  0  0  0
  161.6860  204.1350  149.8620 C   0  0  2  0  0  3  0  0  0  0  0  0
  160.5770  202.2350  148.6750 O   0  0  0  0  0  0  0  0  0  0  0  0
  160.8830  202.8680  149.8730 C   0  0  0  0  0  0  0  0  0  0  0  0
  160.4960  202.3600  150.9620 O   0  0  0  0  0  1  0  0  0  0  0  0
  160.2440  210.5990  155.0150 C   0  0  1  0  0  3  0  0  0  0  0  0
  161.1970  211.5910  155.6280 C   0  0  0  0  0  3  0  0  0  0  0  0
  162.1170  211.2850  156.4820 N   0  0  0  0  0  0  0  0  0  0  0  0
  162.3380  209.9470  156.9590 C   0  0  0  0  0  1  0  0  0  0  0  0
  158.7880  211.0300  155.2250 C   0  0  0  0  0  2  0  0  0  0  0  0
  158.6390  212.0140  156.3730 C   0  0  0  0  0  2  0  0  0  0  0  0
  156.7340  213.5330  156.8110 C   0  0  0  0  0  1  0  0  0  0  0  0
  157.2000  212.0870  156.8570 C   0  0  1  0  0  3  0  0  0  0  0  0
  155.0030  211.2010  156.4890 O   0  0  0  0  0  1  0  0  0  0  0  0
  156.2980  211.2450  155.9690 C   0  0  0  0  0  2  0  0  0  0  0  0
  159.6140  211.0630  152.5600 C   0  0  0  0  0  2  0  0  0  0  0  0
  156.0600  214.2850  151.4210 C   0  0  0  0  0  3  0  0  0  0  0  0
  158.4680  213.2060  152.2870 C   0  0  0  0  0  0  0  0  0  0  0  0
  158.3220  213.6100  150.9870 C   0  0  0  0  0  0  0  0  0  0  0  0
  159.5010  213.3630  150.2460 N   0  0  0  0  0  0  0  0  0  0  0  0
  159.8050  212.5680  152.4890 C   0  0  2  0  0  3  0  0  0  0  0  0
  157.1250  214.1450  150.5120 C   0  0  0  0  0  3  0  0  0  0  0  0
  160.5350  212.8890  151.1640 C   0  0  0  0  0  2  0  0  0  0  0  0
  156.2070  213.8700  152.7600 C   0  0  0  0  0  3  0  0  0  0  0  0
  157.4190  213.3150  153.2030 C   0  0  0  0  0  3  0  0  0  0  0  0
  159.5890  213.3510  148.7920 C   0  0  0  0  0  2  0  0  0  0  0  0
  158.3890  212.5970  148.2090 C   0  0  0  0  0  2  0  0  0  0  0  0
  158.3820  212.6570  146.8100 O   0  0  0  0  0  0  0  0  0  0  0  0
  158.0030  213.9640  146.4570 C   0  0  2  0  0  3  0  0  0  0  0  0
  156.4910  214.0510  146.2590 C   0  0  0  0  0  1  0  0  0  0  0  0
  157.8850  214.0670  144.0690 O   0  0  0  0  0  1  0  0  0  0  0  0
  158.7060  214.3760  145.1600 C   0  0  2  0  0  3  0  0  0  0  0  0
  163.0040  213.1160  144.0440 C   0  0  0  0  0  3  0  0  0  0  0  0
  162.2930  214.0280  146.2700 C   0  0  0  0  0  0  0  0  0  0  0  0
  160.9580  214.1350  146.1590 C   0  0  0  0  0  3  0  0  0  0  0  0
  160.0810  213.7040  145.0290 C   0  0  2  0  0  3  0  0  0  0  0  0
  161.6810  212.9060  143.3850 C   0  0  0  0  0  2  0  0  0  0  0  0
  160.7140  214.0260  143.6910 C   0  0  0  0  0  2  0  0  0  0  0  0
  163.2000  213.5620  145.2500 N   0  0  0  0  0  0  0  0  0  0  0  0
  162.8460  214.4530  147.4330 F   0  0  0  0  0  0  0  0  0  0  0  0
  1 39  1  6  0  0  0
  1 29  1  0  0  0  0
  2  5  1  0  0  0  0
  3  4  1  0  0  0  0
  4  5  1  0  0  0  0
  5  1  1  0  0  0  0
  5  8  1  1  0  0  0
  6  3  1  0  0  0  0
  6  2  1  0  0  0  0
  7 10  1  0  0  0  0
  8  9  2  0  0  0  0
  8  7  1  0  0  0  0
 10 11  1  0  0  0  0
 13 12  1  1  0  0  0
 13  6  1  0  0  0  0
 14 20  1  0  0  0  0
 14 19  1  0  0  0  0
 16 18  1  0  0  0  0
 16 13  1  1  0  0  0
 17 19  1  6  0  0  0
 17 23  1  0  0  0  0
 17 22  1  0  0  0  0
 18 25  1  0  0  0  0
 20 24  1  0  0  0  0
 21 18  1  0  0  0  0
 21 25  1  0  0  0  0
 22 16  1  0  0  0  0
 23 21  1  0  0  0  0
 24 15  1  0  0  0  0
 24 23  1  0  0  0  0
 25 27  1  0  0  0  0
 26 27  2  0  0  0  0
 27 28  1  0  0  0  0
 29 33  1  0  0  0  0
 29 30  1  0  0  0  0
 30 31  2  0  0  0  0
 31 32  1  0  0  0  0
 33 34  1  0  0  0  0
 34 36  1  0  0  0  0
 35 36  1  0  0  0  0
 38 37  1  0  0  0  0
 38 36  1  0  0  0  0
 40 47  1  0  0  0  0
 41 44  1  0  0  0  0
 41 48  1  0  0  0  0
 42 41  2  0  0  0  0
 43 42  1  0  0  0  0
 43 46  1  0  0  0  0
 44 39  1  0  0  0  0
 45 42  1  0  0  0  0
 45 40  2  0  0  0  0
 46 44  1  0  0  0  0
 47 48  2  0  0  0  0
 49 43  1  0  0  0  0
 50 49  1  0  0  0  0
 51 50  1  0  0  0  0
 52 51  1  0  0  0  0
 53 52  1  0  0  0  0
 54 55  1  0  0  0  0
 55 52  1  0  0  0  0
 56 62  2  0  0  0  0
 57 63  1  0  0  0  0
 58 57  2  0  0  0  0
 59 55  1  0  0  0  0
 59 58  1  0  0  0  0
 60 61  1  0  0  0  0
 60 56  1  0  0  0  0
 61 59  1  0  0  0  0
 62 57  1  0  0  0  0
M  END
>  <MODEL>
2

>  <REMARK>
 VINA RESULT:      -3.2      1.646      2.040
  Name = 
  20 active torsions:
  status: ('A' for Active; 'I' for Inactive)
    1  A    between atoms: C_2  and  O_14
    2  A    between atoms: C_2  and  C_27
    3  A    between atoms: C_5  and  C_35
    4  A    between atoms: C_5  and  C_41
    5  A    between atoms: C_8  and  O_14
    6  A    between atoms: C_8  and  C_23
    7  A    between atoms: O_9  and  N_22
    8  A    between atoms: C_10  and  C_41
    9  A    between atoms: C_20  and  C_62
   10  A    between atoms: C_23  and  C_45
   11  A    between atoms: C_26  and  C_35
   12  A    between atoms: C_26  and  C_46
   13  A    between atoms: C_27  and  N_37
   14  A    between atoms: C_33  and  C_59
   15  A    between atoms: C_36  and  C_43
   16  A    between atoms: C_36  and  C_61
   17  A    between atoms: C_38  and  C_60
   18  A    between atoms: C_41  and  C_61
   19  A    between atoms: N_57  and  C_62
   20  A    between atoms: C_60  and  C_61
                            x       y       z     vdW  Elec       q    Type
                         _______ _______ _______ _____ _____    ______ ____

>  <TORSDO>
F 20

$$$$
=
 OpenBabel11042421473D

 63 69  0  0  1  0  0  0  0  0999 V2000
  161.3870  208.7590  150.3700 C   0  0  2  0  0  3  0  0  0  0  0  0
  162.1370  209.5130  152.6770 C   0  0  0  0  0  2  0  0  0  0  0  0
  160.0060  209.7920  153.5060 C   0  0  0  0  0  2  0  0  0  0  0  0
  159.8790  208.7650  152.3960 C   0  0  0  0  0  2  0  0  0  0  0  0
  161.3010  208.5140  151.8980 C   0  0  1  0  0  0  0  0  0  0  0  0
  161.4010  209.8040  153.9060 N   0  0  0  0  0  0  0  0  0  0  0  0
  160.8890  206.2380  153.0070 N   0  0  0  0  0  2  0  0  0  0  0  0
  161.7420  207.1110  152.2550 C   0  0  0  0  0  0  0  0  0  0  0  0
  162.8830  206.7030  151.9060 O   0  0  0  0  0  0  0  0  0  0  0  0
  161.2940  204.9900  153.3470 O   0  0  0  0  0  0  0  0  0  0  0  0
  160.5370  204.1280  152.5470 C   0  0  0  0  0  1  0  0  0  0  0  0
  162.6820  211.0690  155.6890 C   0  0  0  0  0  1  0  0  0  0  0  0
  161.7370  211.1140  154.4880 C   0  0  2  0  0  3  0  0  0  0  0  0
  156.0380  211.1950  156.3000 C   0  0  0  0  0  2  0  0  0  0  0  0
  157.0160  213.6730  156.1420 O   0  0  0  0  0  1  0  0  0  0  0  0
  160.4840  211.9480  154.7750 C   0  0  1  0  0  3  0  0  0  0  0  0
  158.0930  211.0060  154.8700 C   0  0  2  0  0  3  0  0  0  0  0  0
  159.8430  212.3140  153.5120 N   0  0  1  0  0  0  0  0  0  0  0  0
  157.0030  210.2370  155.6140 C   0  0  0  0  0  2  0  0  0  0  0  0
  155.5040  212.0970  155.3570 O   0  0  0  0  0  0  0  0  0  0  0  0
  158.8370  213.2560  154.0690 C   0  0  2  0  0  3  0  0  0  0  0  0
  159.4410  211.1440  155.6370 C   0  0  0  0  0  2  0  0  0  0  0  0
  157.6190  212.3350  154.1840 C   0  0  2  0  0  3  0  0  0  0  0  0
  156.5130  213.0190  155.0080 C   0  0  2  0  0  3  0  0  0  0  0  0
  159.7510  213.6880  153.0150 C   0  0  2  0  0  3  0  0  0  0  0  0
  157.7920  214.3780  151.6260 O   0  0  0  0  0  1  0  0  0  0  0  0
  159.0180  213.7300  151.7080 C   0  0  0  0  0  0  0  0  0  0  0  0
  159.5120  213.1980  150.6750 O   0  0  0  0  0  0  0  0  0  0  0  0
  161.6730  207.4940  149.5260 C   0  0  1  0  0  3  0  0  0  0  0  0
  160.3890  206.7220  149.3750 C   0  0  0  0  0  3  0  0  0  0  0  0
  160.3100  205.4330  149.3670 N   0  0  0  0  0  0  0  0  0  0  0  0
  161.4540  204.5710  149.4950 C   0  0  0  0  0  1  0  0  0  0  0  0
  162.2950  207.8050  148.1600 C   0  0  0  0  0  2  0  0  0  0  0  0
  162.7720  206.5510  147.4460 C   0  0  0  0  0  2  0  0  0  0  0  0
  162.5290  205.0890  145.4640 C   0  0  0  0  0  1  0  0  0  0  0  0
  162.1740  206.4440  146.0540 C   0  0  1  0  0  3  0  0  0  0  0  0
  160.0530  205.6710  145.2450 O   0  0  0  0  0  1  0  0  0  0  0  0
  160.6620  206.5800  146.1140 C   0  0  0  0  0  2  0  0  0  0  0  0
  162.2760  209.9530  150.0000 C   0  0  0  0  0  2  0  0  0  0  0  0
  163.2590  214.2940  147.8790 C   0  0  0  0  0  3  0  0  0  0  0  0
  162.7840  211.5840  148.2490 C   0  0  0  0  0  0  0  0  0  0  0  0
  161.7510  212.4290  147.9440 C   0  0  0  0  0  0  0  0  0  0  0  0
  160.5230  211.7290  147.8950 N   0  0  0  0  0  0  0  0  0  0  0  0
  162.2710  210.2020  148.5010 C   0  0  2  0  0  3  0  0  0  0  0  0
  161.9490  213.7980  147.7630 C   0  0  0  0  0  3  0  0  0  0  0  0
  160.7970  210.3000  148.0440 C   0  0  0  0  0  2  0  0  0  0  0  0
  164.3250  213.4270  148.1930 C   0  0  0  0  0  3  0  0  0  0  0  0
  164.0910  212.0560  148.3910 C   0  0  0  0  0  3  0  0  0  0  0  0
  159.2050  212.3460  147.9330 C   0  0  0  0  0  2  0  0  0  0  0  0
  158.7830  212.7500  146.5160 C   0  0  0  0  0  2  0  0  0  0  0  0
  159.5840  212.1240  145.5500 O   0  0  0  0  0  0  0  0  0  0  0  0
  160.0410  213.1300  144.6810 C   0  0  2  0  0  3  0  0  0  0  0  0
  158.9300  213.5600  143.7250 C   0  0  0  0  0  1  0  0  0  0  0  0
  162.4020  213.2460  144.3110 O   0  0  0  0  0  1  0  0  0  0  0  0
  161.2330  212.6120  143.8710 C   0  0  2  0  0  3  0  0  0  0  0  0
  161.6400  213.4330  139.3470 C   0  0  0  0  0  3  0  0  0  0  0  0
  161.0520  211.2200  140.3710 C   0  0  0  0  0  0  0  0  0  0  0  0
  160.9380  211.4960  141.6820 C   0  0  0  0  0  3  0  0  0  0  0  0
  161.0200  212.8220  142.3640 C   0  0  2  0  0  3  0  0  0  0  0  0
  161.5630  214.3290  140.5380 C   0  0  0  0  0  2  0  0  0  0  0  0
  162.1280  213.6720  141.7760 C   0  0  0  0  0  2  0  0  0  0  0  0
  161.3950  212.1560  139.3290 N   0  0  0  0  0  0  0  0  0  0  0  0
  160.8830  209.9260  140.0010 F   0  0  0  0  0  0  0  0  0  0  0  0
  1 39  1  1  0  0  0
  1  5  1  0  0  0  0
  2  6  1  0  0  0  0
  3  6  1  0  0  0  0
  4  3  1  0  0  0  0
  5  8  1  1  0  0  0
  5  4  1  0  0  0  0
  5  2  1  0  0  0  0
  6 13  1  0  0  0  0
  7 10  1  0  0  0  0
  8  7  1  0  0  0  0
  9  8  2  0  0  0  0
 11 10  1  0  0  0  0
 13 12  1  1  0  0  0
 16 13  1  6  0  0  0
 16 22  1  0  0  0  0
 17 19  1  1  0  0  0
 17 22  1  0  0  0  0
 18 21  1  0  0  0  0
 18 16  1  0  0  0  0
 19 14  1  0  0  0  0
 20 14  1  0  0  0  0
 21 23  1  0  0  0  0
 23 17  1  0  0  0  0
 23 24  1  0  0  0  0
 24 20  1  0  0  0  0
 24 15  1  0  0  0  0
 25 18  1  0  0  0  0
 25 21  1  0  0  0  0
 26 27  1  0  0  0  0
 27 25  1  0  0  0  0
 28 27  2  0  0  0  0
 29  1  1  0  0  0  0
 30 29  1  0  0  0  0
 31 30  2  0  0  0  0
 31 32  1  0  0  0  0
 33 29  1  0  0  0  0
 34 33  1  0  0  0  0
 35 36  1  0  0  0  0
 36 38  1  0  0  0  0
 36 34  1  0  0  0  0
 37 38  1  0  0  0  0
 40 47  1  0  0  0  0
 41 48  1  0  0  0  0
 41 44  1  0  0  0  0
 42 41  2  0  0  0  0
 43 49  1  0  0  0  0
 43 42  1  0  0  0  0
 43 46  1  0  0  0  0
 44 39  1  0  0  0  0
 45 40  2  0  0  0  0
 45 42  1  0  0  0  0
 46 44  1  0  0  0  0
 47 48  2  0  0  0  0
 50 49  1  0  0  0  0
 51 50  1  0  0  0  0
 52 51  1  0  0  0  0
 53 52  1  0  0  0  0
 55 54  1  0  0  0  0
 55 52  1  0  0  0  0
 56 60  1  0  0  0  0
 57 58  2  0  0  0  0
 58 59  1  0  0  0  0
 59 55  1  0  0  0  0
 60 61  1  0  0  0  0
 61 59  1  0  0  0  0
 62 56  2  0  0  0  0
 62 57  1  0  0  0  0
 63 57  1  0  0  0  0
M  END
>  <MODEL>
3

>  <REMARK>
 VINA RESULT:      -2.0      1.963      7.844
  Name = 
  20 active torsions:
  status: ('A' for Active; 'I' for Inactive)
    1  A    between atoms: C_2  and  O_14
    2  A    between atoms: C_2  and  C_27
    3  A    between atoms: C_5  and  C_35
    4  A    between atoms: C_5  and  C_41
    5  A    between atoms: C_8  and  O_14
    6  A    between atoms: C_8  and  C_23
    7  A    between atoms: O_9  and  N_22
    8  A    between atoms: C_10  and  C_41
    9  A    between atoms: C_20  and  C_62
   10  A    between atoms: C_23  and  C_45
   11  A    between atoms: C_26  and  C_35
   12  A    between atoms: C_26  and  C_46
   13  A    between atoms: C_27  and  N_37
   14  A    between atoms: C_33  and  C_59
   15  A    between atoms: C_36  and  C_43
   16  A    between atoms: C_36  and  C_61
   17  A    between atoms: C_38  and  C_60
   18  A    between atoms: C_41  and  C_61
   19  A    between atoms: N_57  and  C_62
   20  A    between atoms: C_60  and  C_61
                            x       y       z     vdW  Elec       q    Type
                         _______ _______ _______ _____ _____    ______ ____

>  <TORSDO>
F 20

$$$$
