=
 OpenBabel11042421263D

 33 36  0  0  1  0  0  0  0  0999 V2000
  161.6670  209.6020  153.8580 C   0  0  0  0  0  0  0  0  0  0  0  0
  161.8800  210.6260  154.9360 C   0  0  0  0  0  2  0  0  0  0  0  0
  159.7490  210.3120  156.1500 C   0  0  0  0  0  0  0  0  0  0  0  0
  160.5810  211.1090  155.4830 C   0  0  0  0  0  3  0  0  0  0  0  0
  161.1510  208.3820  154.1500 C   0  0  0  0  0  0  0  0  0  0  0  0
  158.6020  210.8630  156.7020 O   0  0  0  0  0  1  0  0  0  0  0  0
  160.0100  208.8760  156.3600 C   0  0  0  0  0  3  0  0  0  0  0  0
  160.6270  208.0500  155.5040 C   0  0  0  0  0  3  0  0  0  0  0  0
  160.7320  206.5340  150.8440 C   0  0  0  0  0  3  0  0  0  0  0  0
  161.2720  205.9610  153.5240 C   0  0  0  0  0  3  0  0  0  0  0  0
  160.9170  205.2090  151.2490 C   0  0  0  0  0  0  0  0  0  0  0  0
  161.1930  204.9250  152.5890 C   0  0  0  0  0  3  0  0  0  0  0  0
  160.8170  207.5690  151.7790 C   0  0  0  0  0  3  0  0  0  0  0  0
  161.0720  207.2950  153.1340 C   0  0  0  0  0  0  0  0  0  0  0  0
  160.7750  204.0950  150.2700 C   0  0  0  0  0  2  0  0  0  0  0  0
  161.7300  204.2450  149.1860 N   0  0  0  0  0  2  0  0  0  0  0  0
  160.9830  204.3470  148.0040 N   0  0  0  0  0  2  0  0  0  0  0  0
  161.2490  206.0670  146.3540 C   0  0  2  0  0  3  0  0  0  0  0  0
  162.1690  206.2490  147.4750 C   0  0  2  0  0  3  0  0  0  0  0  0
  160.8230  205.7180  147.7390 N   0  0  0  0  0  0  0  0  0  0  0  0
  162.2110  207.7110  147.8610 C   0  0  0  0  0  1  0  0  0  0  0  0
  162.9500  204.4130  145.5140 O   0  0  0  0  0  1  0  0  0  0  0  0
  160.8040  204.3830  144.7100 O   0  0  0  0  0  0  0  0  0  0  0  0
  161.6460  204.8940  145.4950 C   0  0  0  0  0  0  0  0  0  0  0  0
  162.0200  209.9350  152.5050 N   0  0  0  0  0  2  0  0  0  0  0  0
  160.0370  211.3500  152.0630 C   0  0  0  0  0  2  0  0  0  0  0  0
  161.9120  210.9690  150.2740 C   0  0  0  0  0  2  0  0  0  0  0  0
  159.6270  212.7400  151.6740 C   0  0  0  0  0  2  0  0  0  0  0  0
  162.1720  211.5740  147.9840 N   0  0  0  0  0  1  0  0  0  0  0  0
  160.7830  213.0430  149.4340 C   0  0  0  0  0  3  0  0  0  0  0  0
  160.0890  213.0910  150.5210 C   0  0  0  0  0  2  0  0  0  0  0  0
  161.6360  211.8420  149.2730 C   0  0  0  0  0  0  0  0  0  0  0  0
  161.5310  211.0850  151.7510 C   0  0  2  0  0  3  0  0  0  0  0  0
  1  5  2  0  0  0  0
  1  2  1  0  0  0  0
  2  4  1  0  0  0  0
  3  7  1  0  0  0  0
  3  6  1  0  0  0  0
  4  3  2  0  0  0  0
  5  8  1  0  0  0  0
  8  7  2  0  0  0  0
  9 11  2  0  0  0  0
  9 13  1  0  0  0  0
 11 12  1  0  0  0  0
 12 10  2  0  0  0  0
 13 14  2  0  0  0  0
 14 10  1  0  0  0  0
 14  5  1  0  0  0  0
 15 11  1  0  0  0  0
 16 15  1  0  0  0  0
 17 16  1  0  0  0  0
 18 24  1  6  0  0  0
 18 19  1  0  0  0  0
 18 20  1  0  0  0  0
 19 20  1  0  0  0  0
 19 21  1  1  0  0  0
 20 17  1  0  0  0  0
 23 24  2  0  0  0  0
 24 22  1  0  0  0  0
 25  1  1  0  0  0  0
 27 33  1  0  0  0  0
 28 26  1  0  0  0  0
 29 32  1  0  0  0  0
 30 31  1  0  0  0  0
 31 28  1  0  0  0  0
 32 30  2  0  0  0  0
 32 27  1  0  0  0  0
 33 26  1  0  0  0  0
 33 25  1  1  0  0  0
M  END
>  <MODEL>
1

>  <REMARK>
 VINA RESULT:      -7.6      0.000      0.000
  Name = 
  8 active torsions:
  status: ('A' for Active; 'I' for Inactive)
    1  A    between atoms: C_3  and  C_29
    2  A    between atoms: C_4  and  N_27
    3  A    between atoms: C_7  and  C_9
    4  A    between atoms: C_7  and  N_20
    5  A    between atoms: N_17  and  N_21
    6  A    between atoms: N_20  and  N_21
    7  A    between atoms: C_22  and  C_32
    8  A    between atoms: N_27  and  C_30
                            x       y       z     vdW  Elec       q    Type
                         _______ _______ _______ _____ _____    ______ ____

>  <TORSDO>
F 8

$$$$
=
 OpenBabel11042421263D

 33 36  0  0  1  0  0  0  0  0999 V2000
  161.3030  209.0130  152.8520 C   0  0  0  0  0  0  0  0  0  0  0  0
  161.4650  209.4720  154.2740 C   0  0  0  0  0  2  0  0  0  0  0  0
  160.2340  207.6350  155.3800 C   0  0  0  0  0  0  0  0  0  0  0  0
  160.3760  208.9370  155.1370 C   0  0  0  0  0  3  0  0  0  0  0  0
  161.4610  207.7080  152.5210 C   0  0  0  0  0  0  0  0  0  0  0  0
  159.2470  207.2290  156.2670 O   0  0  0  0  0  1  0  0  0  0  0  0
  161.1030  206.6080  154.7770 C   0  0  0  0  0  3  0  0  0  0  0  0
  161.6410  206.6480  153.5500 C   0  0  0  0  0  3  0  0  0  0  0  0
  162.3350  207.3380  148.8300 C   0  0  0  0  0  3  0  0  0  0  0  0
  160.5530  206.2590  150.6910 C   0  0  0  0  0  3  0  0  0  0  0  0
  161.4150  206.3640  148.4300 C   0  0  0  0  0  0  0  0  0  0  0  0
  160.5280  205.8220  149.3640 C   0  0  0  0  0  3  0  0  0  0  0  0
  162.3610  207.7700  150.1580 C   0  0  0  0  0  3  0  0  0  0  0  0
  161.4600  207.2490  151.1030 C   0  0  0  0  0  0  0  0  0  0  0  0
  161.3430  205.9350  147.0050 C   0  0  0  0  0  2  0  0  0  0  0  0
  162.4670  205.0780  146.6740 N   0  0  0  0  0  2  0  0  0  0  0  0
  162.1550  203.8000  147.1610 N   0  0  0  0  0  2  0  0  0  0  0  0
  160.2690  202.3330  147.3640 C   0  0  2  0  0  3  0  0  0  0  0  0
  161.0460  202.0490  146.1590 C   0  0  2  0  0  3  0  0  0  0  0  0
  160.9140  203.4430  146.6080 N   0  0  0  0  0  0  0  0  0  0  0  0
  160.1060  201.8090  144.9980 C   0  0  0  0  0  1  0  0  0  0  0  0
  161.7570  200.7360  148.6190 O   0  0  0  0  0  0  0  0  0  0  0  0
  160.8780  202.5740  149.6680 O   0  0  0  0  0  1  0  0  0  0  0  0
  161.0010  201.9030  148.6090 C   0  0  0  0  0  0  0  0  0  0  0  0
  160.9790  209.9840  151.8430 N   0  0  0  0  0  2  0  0  0  0  0  0
  158.9280  211.1140  152.6480 C   0  0  0  0  0  2  0  0  0  0  0  0
  160.4990  212.1820  150.8440 C   0  0  0  0  0  2  0  0  0  0  0  0
  158.4390  212.3730  153.3010 C   0  0  0  0  0  2  0  0  0  0  0  0
  160.3790  214.1330  149.4810 N   0  0  0  0  0  1  0  0  0  0  0  0
  159.2170  214.1660  151.6800 C   0  0  0  0  0  3  0  0  0  0  0  0
  158.7050  213.4290  152.6080 C   0  0  0  0  0  2  0  0  0  0  0  0
  160.0520  213.4530  150.6860 C   0  0  0  0  0  0  0  0  0  0  0  0
  160.3570  211.2840  152.0750 C   0  0  2  0  0  3  0  0  0  0  0  0
  1  2  1  0  0  0  0
  2  4  1  0  0  0  0
  3  6  1  0  0  0  0
  4  3  2  0  0  0  0
  5  1  2  0  0  0  0
  5  8  1  0  0  0  0
  7  3  1  0  0  0  0
  8  7  2  0  0  0  0
  9 13  1  0  0  0  0
 10 14  1  0  0  0  0
 11  9  2  0  0  0  0
 11 12  1  0  0  0  0
 12 10  2  0  0  0  0
 13 14  2  0  0  0  0
 14  5  1  0  0  0  0
 15 11  1  0  0  0  0
 16 15  1  0  0  0  0
 16 17  1  0  0  0  0
 18 24  1  1  0  0  0
 19 21  1  6  0  0  0
 19 20  1  0  0  0  0
 19 18  1  0  0  0  0
 20 17  1  0  0  0  0
 20 18  1  0  0  0  0
 24 22  2  0  0  0  0
 24 23  1  0  0  0  0
 25  1  1  0  0  0  0
 26 28  1  0  0  0  0
 27 33  1  0  0  0  0
 29 32  1  0  0  0  0
 30 31  1  0  0  0  0
 31 28  1  0  0  0  0
 32 27  1  0  0  0  0
 32 30  2  0  0  0  0
 33 25  1  6  0  0  0
 33 26  1  0  0  0  0
M  END
>  <MODEL>
2

>  <REMARK>
 VINA RESULT:      -7.4      2.176      3.155
  Name = 
  8 active torsions:
  status: ('A' for Active; 'I' for Inactive)
    1  A    between atoms: C_3  and  C_29
    2  A    between atoms: C_4  and  N_27
    3  A    between atoms: C_7  and  C_9
    4  A    between atoms: C_7  and  N_20
    5  A    between atoms: N_17  and  N_21
    6  A    between atoms: N_20  and  N_21
    7  A    between atoms: C_22  and  C_32
    8  A    between atoms: N_27  and  C_30
                            x       y       z     vdW  Elec       q    Type
                         _______ _______ _______ _____ _____    ______ ____

>  <TORSDO>
F 8

$$$$
=
 OpenBabel11042421263D

 33 36  0  0  1  0  0  0  0  0999 V2000
  160.9240  208.3830  153.0960 C   0  0  0  0  0  0  0  0  0  0  0  0
  160.5980  207.4500  154.2270 C   0  0  0  0  0  2  0  0  0  0  0  0
  161.4220  208.8500  156.0910 C   0  0  0  0  0  0  0  0  0  0  0  0
  161.4710  207.7090  155.4060 C   0  0  0  0  0  3  0  0  0  0  0  0
  160.6710  209.7110  153.1960 C   0  0  0  0  0  0  0  0  0  0  0  0
  162.2050  208.9740  157.2290 O   0  0  0  0  0  1  0  0  0  0  0  0
  160.5450  209.9740  155.7150 C   0  0  0  0  0  3  0  0  0  0  0  0
  160.2120  210.3340  154.4680 C   0  0  0  0  0  3  0  0  0  0  0  0
  160.2710  212.6810  150.8400 C   0  0  0  0  0  3  0  0  0  0  0  0
  161.7550  210.3210  151.0220 C   0  0  0  0  0  3  0  0  0  0  0  0
  161.1750  212.3460  149.8280 C   0  0  0  0  0  0  0  0  0  0  0  0
  161.9200  211.1680  149.9230 C   0  0  0  0  0  3  0  0  0  0  0  0
  160.1110  211.8350  151.9410 C   0  0  0  0  0  3  0  0  0  0  0  0
  160.8390  210.6360  152.0390 C   0  0  0  0  0  0  0  0  0  0  0  0
  161.3140  213.2140  148.6240 C   0  0  0  0  0  2  0  0  0  0  0  0
  161.7950  212.4410  147.4930 N   0  0  0  0  0  2  0  0  0  0  0  0
  161.1720  212.9680  146.3520 N   0  0  0  0  0  2  0  0  0  0  0  0
  159.6360  212.1990  144.6790 C   0  0  2  0  0  3  0  0  0  0  0  0
  158.9920  213.1110  145.6220 C   0  0  2  0  0  3  0  0  0  0  0  0
  160.0260  212.1890  146.1170 N   0  0  0  0  0  0  0  0  0  0  0  0
  157.6280  212.5730  145.9920 C   0  0  0  0  0  1  0  0  0  0  0  0
  160.3890  214.2670  143.4560 O   0  0  0  0  0  1  0  0  0  0  0  0
  161.5430  212.2990  143.2320 O   0  0  0  0  0  0  0  0  0  0  0  0
  160.5900  212.9260  143.7660 C   0  0  0  0  0  0  0  0  0  0  0  0
  161.5120  207.8450  151.9000 N   0  0  0  0  0  2  0  0  0  0  0  0
  162.1180  205.4440  151.8880 C   0  0  0  0  0  2  0  0  0  0  0  0
  161.1440  206.6520  149.7780 C   0  0  0  0  0  2  0  0  0  0  0  0
  161.5560  204.0740  151.6480 C   0  0  0  0  0  2  0  0  0  0  0  0
  160.7870  206.0090  147.5110 N   0  0  0  0  0  1  0  0  0  0  0  0
  160.7190  204.2380  149.2560 C   0  0  0  0  0  3  0  0  0  0  0  0
  161.0970  203.9260  150.4510 C   0  0  0  0  0  2  0  0  0  0  0  0
  160.8820  205.6640  148.8870 C   0  0  0  0  0  0  0  0  0  0  0  0
  161.2030  206.5480  151.3030 C   0  0  2  0  0  3  0  0  0  0  0  0
  1  5  2  0  0  0  0
  1  2  1  0  0  0  0
  2  4  1  0  0  0  0
  3  6  1  0  0  0  0
  4  3  2  0  0  0  0
  5  8  1  0  0  0  0
  7  3  1  0  0  0  0
  8  7  2  0  0  0  0
  9 13  1  0  0  0  0
 10 14  1  0  0  0  0
 11 12  1  0  0  0  0
 11  9  2  0  0  0  0
 12 10  2  0  0  0  0
 13 14  2  0  0  0  0
 14  5  1  0  0  0  0
 15 11  1  0  0  0  0
 16 15  1  0  0  0  0
 17 16  1  0  0  0  0
 18 24  1  6  0  0  0
 18 19  1  0  0  0  0
 18 20  1  0  0  0  0
 19 21  1  1  0  0  0
 19 20  1  0  0  0  0
 20 17  1  0  0  0  0
 22 24  1  0  0  0  0
 23 24  2  0  0  0  0
 25  1  1  0  0  0  0
 27 33  1  0  0  0  0
 28 26  1  0  0  0  0
 29 32  1  0  0  0  0
 30 31  1  0  0  0  0
 31 28  1  0  0  0  0
 32 30  2  0  0  0  0
 32 27  1  0  0  0  0
 33 26  1  0  0  0  0
 33 25  1  1  0  0  0
M  END
>  <MODEL>
3

>  <REMARK>
 VINA RESULT:      -7.2      3.124      6.336
  Name = 
  8 active torsions:
  status: ('A' for Active; 'I' for Inactive)
    1  A    between atoms: C_3  and  C_29
    2  A    between atoms: C_4  and  N_27
    3  A    between atoms: C_7  and  C_9
    4  A    between atoms: C_7  and  N_20
    5  A    between atoms: N_17  and  N_21
    6  A    between atoms: N_20  and  N_21
    7  A    between atoms: C_22  and  C_32
    8  A    between atoms: N_27  and  C_30
                            x       y       z     vdW  Elec       q    Type
                         _______ _______ _______ _____ _____    ______ ____

>  <TORSDO>
F 8

$$$$
=
 OpenBabel11042421263D

 33 36  0  0  1  0  0  0  0  0999 V2000
  160.5190  211.0870  154.1630 C   0  0  0  0  0  0  0  0  0  0  0  0
  160.3830  212.2550  155.0980 C   0  0  0  0  0  2  0  0  0  0  0  0
  158.6180  211.3310  156.5630 C   0  0  0  0  0  0  0  0  0  0  0  0
  159.0340  212.2830  155.7290 C   0  0  0  0  0  3  0  0  0  0  0  0
  160.5350  209.8170  154.6350 C   0  0  0  0  0  0  0  0  0  0  0  0
  157.3820  211.4800  157.1760 O   0  0  0  0  0  1  0  0  0  0  0  0
  159.4270  210.1440  156.8920 C   0  0  0  0  0  3  0  0  0  0  0  0
  160.2630  209.5020  156.0650 C   0  0  0  0  0  3  0  0  0  0  0  0
  161.1490  207.6750  151.5430 C   0  0  0  0  0  3  0  0  0  0  0  0
  161.0500  207.3860  154.3200 C   0  0  0  0  0  3  0  0  0  0  0  0
  161.3560  206.4190  152.1210 C   0  0  0  0  0  0  0  0  0  0  0  0
  161.3110  206.2780  153.5100 C   0  0  0  0  0  3  0  0  0  0  0  0
  160.8930  208.7830  152.3550 C   0  0  0  0  0  3  0  0  0  0  0  0
  160.8240  208.6510  153.7530 C   0  0  0  0  0  0  0  0  0  0  0  0
  161.5760  205.2210  151.2620 C   0  0  0  0  0  2  0  0  0  0  0  0
  160.3540  204.8640  150.5640 N   0  0  0  0  0  2  0  0  0  0  0  0
  160.6320  204.9560  149.1920 N   0  0  0  0  0  2  0  0  0  0  0  0
  161.9890  203.9520  147.4890 C   0  0  2  0  0  3  0  0  0  0  0  0
  160.7520  203.2020  147.7050 C   0  0  2  0  0  3  0  0  0  0  0  0
  161.4110  203.8360  148.8580 N   0  0  0  0  0  0  0  0  0  0  0  0
  161.0560  201.7210  147.7110 C   0  0  0  0  0  1  0  0  0  0  0  0
  160.7210  205.3760  145.8440 O   0  0  0  0  0  0  0  0  0  0  0  0
  162.4660  206.2560  147.0430 O   0  0  0  0  0  1  0  0  0  0  0  0
  161.7280  205.2650  146.7980 C   0  0  0  0  0  0  0  0  0  0  0  0
  160.6340  211.3390  152.7520 N   0  0  0  0  0  2  0  0  0  0  0  0
  158.4240  212.2710  152.1380 C   0  0  0  0  0  2  0  0  0  0  0  0
  160.5290  212.5280  150.6000 C   0  0  0  0  0  2  0  0  0  0  0  0
  157.7260  213.5530  151.7880 C   0  0  0  0  0  2  0  0  0  0  0  0
  160.8920  213.3970  148.4100 N   0  0  0  0  0  1  0  0  0  0  0  0
  159.0210  214.3410  149.7510 C   0  0  0  0  0  3  0  0  0  0  0  0
  158.2160  214.1150  150.7350 C   0  0  0  0  0  2  0  0  0  0  0  0
  160.1600  213.4020  149.6300 C   0  0  0  0  0  0  0  0  0  0  0  0
  159.9620  212.4050  152.0160 C   0  0  2  0  0  3  0  0  0  0  0  0
  1  5  2  0  0  0  0
  1  2  1  0  0  0  0
  2  4  1  0  0  0  0
  3  7  1  0  0  0  0
  3  6  1  0  0  0  0
  4  3  2  0  0  0  0
  5  8  1  0  0  0  0
  8  7  2  0  0  0  0
  9 11  2  0  0  0  0
  9 13  1  0  0  0  0
 11 12  1  0  0  0  0
 12 10  2  0  0  0  0
 13 14  2  0  0  0  0
 14 10  1  0  0  0  0
 14  5  1  0  0  0  0
 15 11  1  0  0  0  0
 16 15  1  0  0  0  0
 17 16  1  0  0  0  0
 18 24  1  6  0  0  0
 18 19  1  0  0  0  0
 18 20  1  0  0  0  0
 19 21  1  1  0  0  0
 19 20  1  0  0  0  0
 20 17  1  0  0  0  0
 22 24  2  0  0  0  0
 24 23  1  0  0  0  0
 25  1  1  0  0  0  0
 27 33  1  0  0  0  0
 28 26  1  0  0  0  0
 29 32  1  0  0  0  0
 30 31  1  0  0  0  0
 31 28  1  0  0  0  0
 32 30  2  0  0  0  0
 32 27  1  0  0  0  0
 33 26  1  0  0  0  0
 33 25  1  6  0  0  0
M  END
>  <MODEL>
4

>  <REMARK>
 VINA RESULT:      -6.8      1.607      2.247
  Name = 
  8 active torsions:
  status: ('A' for Active; 'I' for Inactive)
    1  A    between atoms: C_3  and  C_29
    2  A    between atoms: C_4  and  N_27
    3  A    between atoms: C_7  and  C_9
    4  A    between atoms: C_7  and  N_20
    5  A    between atoms: N_17  and  N_21
    6  A    between atoms: N_20  and  N_21
    7  A    between atoms: C_22  and  C_32
    8  A    between atoms: N_27  and  C_30
                            x       y       z     vdW  Elec       q    Type
                         _______ _______ _______ _____ _____    ______ ____

>  <TORSDO>
F 8

$$$$
=
 OpenBabel11042421263D

 33 36  0  0  1  0  0  0  0  0999 V2000
  161.3010  207.6870  152.8670 C   0  0  0  0  0  0  0  0  0  0  0  0
  161.4370  206.6060  153.9020 C   0  0  0  0  0  2  0  0  0  0  0  0
  161.2070  204.6520  152.4040 C   0  0  0  0  0  0  0  0  0  0  0  0
  160.7750  205.3490  153.4540 C   0  0  0  0  0  3  0  0  0  0  0  0
  161.9340  207.5890  151.6720 C   0  0  0  0  0  0  0  0  0  0  0  0
  160.5890  203.4450  152.1090 O   0  0  0  0  0  1  0  0  0  0  0  0
  162.3360  205.0880  151.5620 C   0  0  0  0  0  3  0  0  0  0  0  0
  162.6560  206.3540  151.2600 C   0  0  0  0  0  3  0  0  0  0  0  0
  161.9590  209.5420  148.4000 C   0  0  0  0  0  3  0  0  0  0  0  0
  161.9510  210.0380  151.1490 C   0  0  0  0  0  3  0  0  0  0  0  0
  161.9810  210.8580  148.8700 C   0  0  0  0  0  0  0  0  0  0  0  0
  161.9720  211.1040  150.2460 C   0  0  0  0  0  3  0  0  0  0  0  0
  161.9320  208.4770  149.3040 C   0  0  0  0  0  3  0  0  0  0  0  0
  161.9450  208.7100  150.6900 C   0  0  0  0  0  0  0  0  0  0  0  0
  162.0640  211.9990  147.9150 C   0  0  0  0  0  2  0  0  0  0  0  0
  161.1020  213.0280  148.2670 N   0  0  0  0  0  2  0  0  0  0  0  0
  160.5550  213.4950  147.0640 N   0  0  0  0  0  2  0  0  0  0  0  0
  159.4930  212.4230  145.2000 C   0  0  2  0  0  3  0  0  0  0  0  0
  158.5790  213.3300  145.8910 C   0  0  2  0  0  3  0  0  0  0  0  0
  159.5650  212.5750  146.6810 N   0  0  0  0  0  0  0  0  0  0  0  0
  157.2240  212.6720  146.0280 C   0  0  0  0  0  1  0  0  0  0  0  0
  160.2820  214.4440  143.9220 O   0  0  0  0  0  0  0  0  0  0  0  0
  161.6590  212.6320  144.1980 O   0  0  0  0  0  1  0  0  0  0  0  0
  160.5480  213.1770  144.4320 C   0  0  0  0  0  0  0  0  0  0  0  0
  160.4870  208.8340  153.1650 N   0  0  0  0  0  2  0  0  0  0  0  0
  159.2550  210.5470  154.4600 C   0  0  0  0  0  2  0  0  0  0  0  0
  161.7930  210.0430  154.8650 C   0  0  0  0  0  2  0  0  0  0  0  0
  158.8730  210.9390  155.8570 C   0  0  0  0  0  2  0  0  0  0  0  0
  163.4900  211.0330  156.2160 N   0  0  0  0  0  1  0  0  0  0  0  0
  161.1310  211.1980  156.9890 C   0  0  0  0  0  3  0  0  0  0  0  0
  159.8970  211.1590  156.6110 C   0  0  0  0  0  2  0  0  0  0  0  0
  162.1190  210.7250  155.9910 C   0  0  0  0  0  0  0  0  0  0  0  0
  160.4160  209.5220  154.4510 C   0  0  2  0  0  3  0  0  0  0  0  0
  1 25  1  0  0  0  0
  1  2  1  0  0  0  0
  3  4  2  0  0  0  0
  4  2  1  0  0  0  0
  5  1  2  0  0  0  0
  6  3  1  0  0  0  0
  7  3  1  0  0  0  0
  8  7  2  0  0  0  0
  8  5  1  0  0  0  0
  9 11  2  0  0  0  0
  9 13  1  0  0  0  0
 11 12  1  0  0  0  0
 12 10  2  0  0  0  0
 13 14  2  0  0  0  0
 14 10  1  0  0  0  0
 14  5  1  0  0  0  0
 15 16  1  0  0  0  0
 15 11  1  0  0  0  0
 17 16  1  0  0  0  0
 18 24  1  6  0  0  0
 18 19  1  0  0  0  0
 18 20  1  0  0  0  0
 19 21  1  1  0  0  0
 19 20  1  0  0  0  0
 20 17  1  0  0  0  0
 22 24  2  0  0  0  0
 23 24  1  0  0  0  0
 26 28  1  0  0  0  0
 27 32  1  0  0  0  0
 28 31  1  0  0  0  0
 31 30  1  0  0  0  0
 32 29  1  0  0  0  0
 32 30  2  0  0  0  0
 33 25  1  6  0  0  0
 33 26  1  0  0  0  0
 33 27  1  0  0  0  0
M  END
>  <MODEL>
5

>  <REMARK>
 VINA RESULT:      -6.5      3.607      6.469
  Name = 
  8 active torsions:
  status: ('A' for Active; 'I' for Inactive)
    1  A    between atoms: C_3  and  C_29
    2  A    between atoms: C_4  and  N_27
    3  A    between atoms: C_7  and  C_9
    4  A    between atoms: C_7  and  N_20
    5  A    between atoms: N_17  and  N_21
    6  A    between atoms: N_20  and  N_21
    7  A    between atoms: C_22  and  C_32
    8  A    between atoms: N_27  and  C_30
                            x       y       z     vdW  Elec       q    Type
                         _______ _______ _______ _____ _____    ______ ____

>  <TORSDO>
F 8

$$$$
=
 OpenBabel11042421263D

 33 36  0  0  1  0  0  0  0  0999 V2000
  161.3120  208.2410  152.2420 C   0  0  0  0  0  0  0  0  0  0  0  0
  160.8220  207.3740  153.3670 C   0  0  0  0  0  2  0  0  0  0  0  0
  161.1700  208.9720  155.2220 C   0  0  0  0  0  0  0  0  0  0  0  0
  161.4230  207.7890  154.6650 C   0  0  0  0  0  3  0  0  0  0  0  0
  160.9650  209.5490  152.1700 C   0  0  0  0  0  0  0  0  0  0  0  0
  161.7000  209.2430  156.4750 O   0  0  0  0  0  1  0  0  0  0  0  0
  160.3200  209.9940  154.5820 C   0  0  0  0  0  3  0  0  0  0  0  0
  160.2230  210.2310  153.2660 C   0  0  0  0  0  3  0  0  0  0  0  0
  162.3420  210.6850  148.8030 C   0  0  0  0  0  3  0  0  0  0  0  0
  160.8970  211.7360  150.9500 C   0  0  0  0  0  3  0  0  0  0  0  0
  161.9420  212.0240  148.7850 C   0  0  0  0  0  0  0  0  0  0  0  0
  161.2150  212.5460  149.8580 C   0  0  0  0  0  3  0  0  0  0  0  0
  162.0180  209.8740  149.8940 C   0  0  0  0  0  3  0  0  0  0  0  0
  161.3050  210.3930  150.9890 C   0  0  0  0  0  0  0  0  0  0  0  0
  162.3290  212.9110  147.6510 C   0  0  0  0  0  2  0  0  0  0  0  0
  161.2080  213.7450  147.2520 N   0  0  0  0  0  2  0  0  0  0  0  0
  160.2900  212.9030  146.6080 N   0  0  0  0  0  2  0  0  0  0  0  0
  158.8960  213.4920  144.7480 C   0  0  2  0  0  3  0  0  0  0  0  0
  159.5570  212.2050  144.5400 C   0  0  2  0  0  3  0  0  0  0  0  0
  160.2810  213.2700  145.2520 N   0  0  0  0  0  0  0  0  0  0  0  0
  160.0660  212.1250  143.1170 C   0  0  0  0  0  1  0  0  0  0  0  0
  157.1410  212.1990  146.0100 O   0  0  0  0  0  0  0  0  0  0  0  0
  157.4790  214.4260  146.4390 O   0  0  0  0  0  1  0  0  0  0  0  0
  157.8160  213.3970  145.7950 C   0  0  0  0  0  0  0  0  0  0  0  0
  162.1590  207.6590  151.2360 N   0  0  0  0  0  2  0  0  0  0  0  0
  160.8340  206.8140  149.3220 C   0  0  0  0  0  2  0  0  0  0  0  0
  161.5080  205.2870  151.3420 C   0  0  0  0  0  2  0  0  0  0  0  0
  160.8330  205.7760  148.2400 C   0  0  0  0  0  2  0  0  0  0  0  0
  160.9840  203.0530  151.9840 N   0  0  0  0  0  1  0  0  0  0  0  0
  160.9660  203.6100  149.5600 C   0  0  0  0  0  3  0  0  0  0  0  0
  160.8620  204.5720  148.7040 C   0  0  0  0  0  2  0  0  0  0  0  0
  161.1750  204.0270  150.9660 C   0  0  0  0  0  0  0  0  0  0  0  0
  161.8510  206.4750  150.4400 C   0  0  2  0  0  3  0  0  0  0  0  0
  1  2  1  0  0  0  0
  2  4  1  0  0  0  0
  3  6  1  0  0  0  0
  4  3  2  0  0  0  0
  5  1  2  0  0  0  0
  5  8  1  0  0  0  0
  7  3  1  0  0  0  0
  8  7  2  0  0  0  0
  9 13  1  0  0  0  0
 10 14  1  0  0  0  0
 11  9  2  0  0  0  0
 11 12  1  0  0  0  0
 12 10  2  0  0  0  0
 13 14  2  0  0  0  0
 14  5  1  0  0  0  0
 15 11  1  0  0  0  0
 16 15  1  0  0  0  0
 17 16  1  0  0  0  0
 18 20  1  0  0  0  0
 18 24  1  1  0  0  0
 19 21  1  6  0  0  0
 19 18  1  0  0  0  0
 19 20  1  0  0  0  0
 20 17  1  0  0  0  0
 24 22  2  0  0  0  0
 24 23  1  0  0  0  0
 25  1  1  0  0  0  0
 26 33  1  0  0  0  0
 28 31  1  0  0  0  0
 28 26  1  0  0  0  0
 30 32  2  0  0  0  0
 31 30  1  0  0  0  0
 32 27  1  0  0  0  0
 32 29  1  0  0  0  0
 33 25  1  1  0  0  0
 33 27  1  0  0  0  0
M  END
>  <MODEL>
6

>  <REMARK>
 VINA RESULT:      -6.4      3.458      6.802
  Name = 
  8 active torsions:
  status: ('A' for Active; 'I' for Inactive)
    1  A    between atoms: C_3  and  C_29
    2  A    between atoms: C_4  and  N_27
    3  A    between atoms: C_7  and  C_9
    4  A    between atoms: C_7  and  N_20
    5  A    between atoms: N_17  and  N_21
    6  A    between atoms: N_20  and  N_21
    7  A    between atoms: C_22  and  C_32
    8  A    between atoms: N_27  and  C_30
                            x       y       z     vdW  Elec       q    Type
                         _______ _______ _______ _____ _____    ______ ____

>  <TORSDO>
F 8

$$$$
=
 OpenBabel11042421263D

 33 36  0  0  1  0  0  0  0  0999 V2000
  162.0260  204.5190  146.6580 C   0  0  0  0  0  0  0  0  0  0  0  0
  162.1370  203.7940  145.3470 C   0  0  0  0  0  2  0  0  0  0  0  0
  159.8230  204.1480  144.5500 C   0  0  0  0  0  0  0  0  0  0  0  0
  160.8040  203.3130  144.8850 C   0  0  0  0  0  3  0  0  0  0  0  0
  161.3850  205.7110  146.7410 C   0  0  0  0  0  0  0  0  0  0  0  0
  158.6440  203.6170  144.0460 O   0  0  0  0  0  1  0  0  0  0  0  0
  159.9450  205.6130  144.6570 C   0  0  0  0  0  3  0  0  0  0  0  0
  160.6300  206.2840  145.5930 C   0  0  0  0  0  3  0  0  0  0  0  0
  162.3080  208.3190  149.3620 C   0  0  0  0  0  3  0  0  0  0  0  0
  160.4600  206.2550  149.0040 C   0  0  0  0  0  3  0  0  0  0  0  0
  161.3830  208.0290  150.3700 C   0  0  0  0  0  0  0  0  0  0  0  0
  160.4570  206.9990  150.1860 C   0  0  0  0  0  3  0  0  0  0  0  0
  162.3060  207.5780  148.1780 C   0  0  0  0  0  3  0  0  0  0  0  0
  161.3930  206.5250  147.9900 C   0  0  0  0  0  0  0  0  0  0  0  0
  161.4120  208.7780  151.6580 C   0  0  0  0  0  2  0  0  0  0  0  0
  160.7470  208.0190  152.7030 N   0  0  0  0  0  2  0  0  0  0  0  0
  161.4070  208.3240  153.9020 N   0  0  0  0  0  2  0  0  0  0  0  0
  160.4800  209.3520  155.8610 C   0  0  2  0  0  3  0  0  0  0  0  0
  161.2270  208.1400  156.1910 C   0  0  2  0  0  3  0  0  0  0  0  0
  160.4630  208.1850  154.9340 N   0  0  0  0  0  0  0  0  0  0  0  0
  160.4550  207.3340  157.2120 C   0  0  0  0  0  1  0  0  0  0  0  0
  162.7260  210.4900  155.8640 O   0  0  0  0  0  1  0  0  0  0  0  0
  160.9420  211.4400  154.7820 O   0  0  0  0  0  0  0  0  0  0  0  0
  161.3970  210.4750  155.4520 C   0  0  0  0  0  0  0  0  0  0  0  0
  162.6130  203.9270  147.8290 N   0  0  0  0  0  2  0  0  0  0  0  0
  160.8310  202.2140  147.9820 C   0  0  0  0  0  2  0  0  0  0  0  0
  161.5970  203.6270  150.0510 C   0  0  0  0  0  2  0  0  0  0  0  0
  160.4520  200.9500  148.6950 C   0  0  0  0  0  2  0  0  0  0  0  0
  160.8260  203.8400  152.2970 N   0  0  0  0  0  1  0  0  0  0  0  0
  160.4550  201.6740  151.1290 C   0  0  0  0  0  3  0  0  0  0  0  0
  160.3600  201.1070  149.9730 C   0  0  0  0  0  2  0  0  0  0  0  0
  160.9890  203.0560  151.1200 C   0  0  0  0  0  0  0  0  0  0  0  0
  161.9650  202.9690  148.7200 C   0  0  2  0  0  3  0  0  0  0  0  0
  1  5  2  0  0  0  0
  1 25  1  0  0  0  0
  2  1  1  0  0  0  0
  3  7  1  0  0  0  0
  3  4  2  0  0  0  0
  4  2  1  0  0  0  0
  5 14  1  0  0  0  0
  6  3  1  0  0  0  0
  7  8  2  0  0  0  0
  8  5  1  0  0  0  0
  9 11  1  0  0  0  0
 10 12  1  0  0  0  0
 11 15  1  0  0  0  0
 12 11  2  0  0  0  0
 13  9  2  0  0  0  0
 14 13  1  0  0  0  0
 14 10  2  0  0  0  0
 15 16  1  0  0  0  0
 16 17  1  0  0  0  0
 17 20  1  0  0  0  0
 18 24  1  6  0  0  0
 18 19  1  0  0  0  0
 19 21  1  1  0  0  0
 20 18  1  0  0  0  0
 20 19  1  0  0  0  0
 23 24  2  0  0  0  0
 24 22  1  0  0  0  0
 26 28  1  0  0  0  0
 26 33  1  0  0  0  0
 27 32  1  0  0  0  0
 28 31  1  0  0  0  0
 31 30  1  0  0  0  0
 32 30  2  0  0  0  0
 32 29  1  0  0  0  0
 33 25  1  6  0  0  0
 33 27  1  0  0  0  0
M  END
>  <MODEL>
7

>  <REMARK>
 VINA RESULT:      -6.4      2.657      9.391
  Name = 
  8 active torsions:
  status: ('A' for Active; 'I' for Inactive)
    1  A    between atoms: C_3  and  C_29
    2  A    between atoms: C_4  and  N_27
    3  A    between atoms: C_7  and  C_9
    4  A    between atoms: C_7  and  N_20
    5  A    between atoms: N_17  and  N_21
    6  A    between atoms: N_20  and  N_21
    7  A    between atoms: C_22  and  C_32
    8  A    between atoms: N_27  and  C_30
                            x       y       z     vdW  Elec       q    Type
                         _______ _______ _______ _____ _____    ______ ____

>  <TORSDO>
F 8

$$$$
=
 OpenBabel11042421263D

 33 36  0  0  1  0  0  0  0  0999 V2000
  161.5360  209.1530  152.9150 C   0  0  0  0  0  0  0  0  0  0  0  0
  161.6940  210.2830  153.8930 C   0  0  0  0  0  2  0  0  0  0  0  0
  159.6860  209.8450  155.2680 C   0  0  0  0  0  0  0  0  0  0  0  0
  160.3820  210.6680  154.4860 C   0  0  0  0  0  3  0  0  0  0  0  0
  161.1790  207.9150  153.3360 C   0  0  0  0  0  0  0  0  0  0  0  0
  158.5170  210.3150  155.8500 O   0  0  0  0  0  1  0  0  0  0  0  0
  160.1190  208.4690  155.5720 C   0  0  0  0  0  3  0  0  0  0  0  0
  160.7750  207.6450  154.7440 C   0  0  0  0  0  3  0  0  0  0  0  0
  161.3380  204.3460  152.0100 C   0  0  0  0  0  3  0  0  0  0  0  0
  160.9590  206.9380  151.0410 C   0  0  0  0  0  3  0  0  0  0  0  0
  161.1480  204.5570  150.6410 C   0  0  0  0  0  0  0  0  0  0  0  0
  160.9530  205.8540  150.1590 C   0  0  0  0  0  3  0  0  0  0  0  0
  161.3380  205.4300  152.8900 C   0  0  0  0  0  3  0  0  0  0  0  0
  161.1650  206.7420  152.4160 C   0  0  0  0  0  0  0  0  0  0  0  0
  161.2000  203.4130  149.6870 C   0  0  0  0  0  2  0  0  0  0  0  0
  160.7690  203.8330  148.3650 N   0  0  0  0  0  2  0  0  0  0  0  0
  161.9320  204.0520  147.6140 N   0  0  0  0  0  2  0  0  0  0  0  0
  161.7650  203.6570  145.2550 C   0  0  2  0  0  3  0  0  0  0  0  0
  160.6330  203.0820  145.9790 C   0  0  2  0  0  3  0  0  0  0  0  0
  161.9620  203.0700  146.6100 N   0  0  0  0  0  0  0  0  0  0  0  0
  160.3310  201.7050  145.4300 C   0  0  0  0  0  1  0  0  0  0  0  0
  160.4680  205.8090  145.0950 O   0  0  0  0  0  0  0  0  0  0  0  0
  162.7560  205.8380  145.2400 O   0  0  0  0  0  1  0  0  0  0  0  0
  161.6930  205.1620  145.2180 C   0  0  0  0  0  0  0  0  0  0  0  0
  161.7710  209.4060  151.5200 N   0  0  0  0  0  2  0  0  0  0  0  0
  162.3720  211.1130  149.8300 C   0  0  0  0  0  2  0  0  0  0  0  0
  160.5730  211.5500  151.6830 C   0  0  0  0  0  2  0  0  0  0  0  0
  161.7940  211.9690  148.7420 C   0  0  0  0  0  2  0  0  0  0  0  0
  159.3110  213.4560  152.3590 N   0  0  0  0  0  1  0  0  0  0  0  0
  160.0250  213.3050  149.9810 C   0  0  0  0  0  3  0  0  0  0  0  0
  160.8780  212.7700  149.1720 C   0  0  0  0  0  2  0  0  0  0  0  0
  159.9840  212.7230  151.3430 C   0  0  0  0  0  0  0  0  0  0  0  0
  161.2700  210.5480  150.7610 C   0  0  2  0  0  3  0  0  0  0  0  0
  1  5  2  0  0  0  0
  1  2  1  0  0  0  0
  2  4  1  0  0  0  0
  3  7  1  0  0  0  0
  3  6  1  0  0  0  0
  4  3  2  0  0  0  0
  5  8  1  0  0  0  0
  8  7  2  0  0  0  0
  9 13  1  0  0  0  0
 10 14  1  0  0  0  0
 11  9  2  0  0  0  0
 12 11  1  0  0  0  0
 12 10  2  0  0  0  0
 14 13  2  0  0  0  0
 14  5  1  0  0  0  0
 15 11  1  0  0  0  0
 16 15  1  0  0  0  0
 17 16  1  0  0  0  0
 18 24  1  1  0  0  0
 18 19  1  0  0  0  0
 18 20  1  0  0  0  0
 19 21  1  6  0  0  0
 19 20  1  0  0  0  0
 20 17  1  0  0  0  0
 22 24  2  0  0  0  0
 24 23  1  0  0  0  0
 25  1  1  0  0  0  0
 26 33  1  0  0  0  0
 28 31  1  0  0  0  0
 28 26  1  0  0  0  0
 30 32  2  0  0  0  0
 31 30  1  0  0  0  0
 32 27  1  0  0  0  0
 32 29  1  0  0  0  0
 33 25  1  1  0  0  0
 33 27  1  0  0  0  0
M  END
>  <MODEL>
8

>  <REMARK>
 VINA RESULT:      -6.3      1.389      2.494
  Name = 
  8 active torsions:
  status: ('A' for Active; 'I' for Inactive)
    1  A    between atoms: C_3  and  C_29
    2  A    between atoms: C_4  and  N_27
    3  A    between atoms: C_7  and  C_9
    4  A    between atoms: C_7  and  N_20
    5  A    between atoms: N_17  and  N_21
    6  A    between atoms: N_20  and  N_21
    7  A    between atoms: C_22  and  C_32
    8  A    between atoms: N_27  and  C_30
                            x       y       z     vdW  Elec       q    Type
                         _______ _______ _______ _____ _____    ______ ____

>  <TORSDO>
F 8

$$$$
=
 OpenBabel11042421263D

 33 36  0  0  1  0  0  0  0  0999 V2000
  161.2690  207.7210  152.8570 C   0  0  0  0  0  0  0  0  0  0  0  0
  161.3860  206.6500  153.9040 C   0  0  0  0  0  2  0  0  0  0  0  0
  161.2110  204.6810  152.4170 C   0  0  0  0  0  0  0  0  0  0  0  0
  160.7460  205.3830  153.4490 C   0  0  0  0  0  3  0  0  0  0  0  0
  161.9340  207.6170  151.6800 C   0  0  0  0  0  0  0  0  0  0  0  0
  160.6100  203.4670  152.1160 O   0  0  0  0  0  1  0  0  0  0  0  0
  162.3590  205.1190  151.6020 C   0  0  0  0  0  3  0  0  0  0  0  0
  162.6770  206.3850  151.2980 C   0  0  0  0  0  3  0  0  0  0  0  0
  161.9560  209.5450  148.3920 C   0  0  0  0  0  3  0  0  0  0  0  0
  162.0250  210.0610  151.1370 C   0  0  0  0  0  3  0  0  0  0  0  0
  162.0340  210.8630  148.8520 C   0  0  0  0  0  0  0  0  0  0  0  0
  162.0630  211.1190  150.2260 C   0  0  0  0  0  3  0  0  0  0  0  0
  161.9120  208.4890  149.3050 C   0  0  0  0  0  3  0  0  0  0  0  0
  161.9620  208.7310  150.6890 C   0  0  0  0  0  0  0  0  0  0  0  0
  162.1350  211.9940  147.8860 C   0  0  0  0  0  2  0  0  0  0  0  0
  161.0020  212.8900  148.0320 N   0  0  0  0  0  2  0  0  0  0  0  0
  160.0180  212.4430  147.1380 N   0  0  0  0  0  2  0  0  0  0  0  0
  159.0600  213.5130  145.2180 C   0  0  2  0  0  3  0  0  0  0  0  0
  159.6220  212.2060  144.8820 C   0  0  2  0  0  3  0  0  0  0  0  0
  160.2980  213.0330  145.8940 N   0  0  0  0  0  0  0  0  0  0  0  0
  160.3780  212.3040  143.5750 C   0  0  0  0  0  1  0  0  0  0  0  0
  157.0610  212.2040  146.0100 O   0  0  0  0  0  0  0  0  0  0  0  0
  157.3780  214.3690  146.6930 O   0  0  0  0  0  1  0  0  0  0  0  0
  157.7990  213.3830  146.0320 C   0  0  0  0  0  0  0  0  0  0  0  0
  160.4390  208.8640  153.1230 N   0  0  0  0  0  2  0  0  0  0  0  0
  160.1320  209.0120  155.5760 C   0  0  0  0  0  2  0  0  0  0  0  0
  159.8620  211.0890  154.0020 C   0  0  0  0  0  2  0  0  0  0  0  0
  160.6390  209.7160  156.8000 C   0  0  0  0  0  2  0  0  0  0  0  0
  159.1530  213.3410  154.3290 N   0  0  0  0  0  1  0  0  0  0  0  0
  160.2130  212.1560  156.2430 C   0  0  0  0  0  3  0  0  0  0  0  0
  160.4820  210.9950  156.7400 C   0  0  0  0  0  2  0  0  0  0  0  0
  159.7590  212.1570  154.8320 C   0  0  0  0  0  0  0  0  0  0  0  0
  160.5470  209.7490  154.2790 C   0  0  2  0  0  3  0  0  0  0  0  0
  1 25  1  0  0  0  0
  1  2  1  0  0  0  0
  3  4  2  0  0  0  0
  4  2  1  0  0  0  0
  5  1  2  0  0  0  0
  6  3  1  0  0  0  0
  7  3  1  0  0  0  0
  8  7  2  0  0  0  0
  8  5  1  0  0  0  0
  9 11  2  0  0  0  0
  9 13  1  0  0  0  0
 11 12  1  0  0  0  0
 12 10  2  0  0  0  0
 13 14  2  0  0  0  0
 14 10  1  0  0  0  0
 14  5  1  0  0  0  0
 15 16  1  0  0  0  0
 15 11  1  0  0  0  0
 17 16  1  0  0  0  0
 18 20  1  0  0  0  0
 18 24  1  1  0  0  0
 19 21  1  6  0  0  0
 19 18  1  0  0  0  0
 19 20  1  0  0  0  0
 20 17  1  0  0  0  0
 22 24  2  0  0  0  0
 24 23  1  0  0  0  0
 26 28  1  0  0  0  0
 27 33  1  0  0  0  0
 27 32  1  0  0  0  0
 29 32  1  0  0  0  0
 30 31  1  0  0  0  0
 31 28  1  0  0  0  0
 32 30  2  0  0  0  0
 33 25  1  6  0  0  0
 33 26  1  0  0  0  0
M  END
>  <MODEL>
9

>  <REMARK>
 VINA RESULT:      -6.2      3.580      6.481
  Name = 
  8 active torsions:
  status: ('A' for Active; 'I' for Inactive)
    1  A    between atoms: C_3  and  C_29
    2  A    between atoms: C_4  and  N_27
    3  A    between atoms: C_7  and  C_9
    4  A    between atoms: C_7  and  N_20
    5  A    between atoms: N_17  and  N_21
    6  A    between atoms: N_20  and  N_21
    7  A    between atoms: C_22  and  C_32
    8  A    between atoms: N_27  and  C_30
                            x       y       z     vdW  Elec       q    Type
                         _______ _______ _______ _____ _____    ______ ____

>  <TORSDO>
F 8

$$$$
