=
 OpenBabel11052410523D

 28 31  0  0  1  0  0  0  0  0999 V2000
  161.6810  208.0290  149.6590 C   0  0  0  0  0  0  0  0  0  0  0  0
  162.2480  210.3070  149.0020 C   0  0  0  0  0  3  0  0  0  0  0  0
  162.0870  209.0270  148.6550 C   0  0  0  0  0  3  0  0  0  0  0  0
  161.4560  208.4720  151.0550 C   0  0  0  0  0  0  0  0  0  0  0  0
  161.0970  207.6030  151.9630 N   0  0  0  0  0  0  0  0  0  0  0  0
  162.0260  210.7610  150.3900 C   0  0  0  0  0  3  0  0  0  0  0  0
  161.5270  206.7820  149.3020 C   0  0  0  0  0  0  0  0  0  0  0  0
  161.6570  209.9080  151.3510 C   0  0  0  0  0  3  0  0  0  0  0  0
  161.3690  205.5300  148.9620 C   0  0  0  0  0  3  0  0  0  0  0  0
  160.5050  209.0890  153.7960 C   0  0  0  0  0  3  0  0  0  0  0  0
  160.5830  207.0270  155.6410 C   0  0  0  0  0  3  0  0  0  0  0  0
  160.8640  206.7600  154.3010 C   0  0  0  0  0  3  0  0  0  0  0  0
  160.8250  207.8000  153.3610 C   0  0  0  0  0  0  0  0  0  0  0  0
  160.2440  209.3260  155.1500 C   0  0  0  0  0  0  0  0  0  0  0  0
  160.2760  208.2910  156.0340 N   0  0  0  0  0  0  0  0  0  0  0  0
  160.3890  211.7410  154.6410 C   0  0  0  0  0  2  0  0  0  0  0  0
  161.1010  211.5060  155.9520 C   0  0  0  0  0  2  0  0  0  0  0  0
  159.8610  210.6980  155.6100 C   0  0  0  0  0  3  0  0  0  0  0  0
  160.9410  204.4930  149.9590 C   0  0  0  0  0  0  0  0  0  0  0  0
  161.9590  204.2900  150.8950 O   0  0  0  0  0  1  0  0  0  0  0  0
  159.7950  204.9490  150.6200 O   0  0  0  0  0  1  0  0  0  0  0  0
  160.8450  201.9520  150.1610 C   0  0  0  0  0  2  0  0  0  0  0  0
  160.6250  203.1750  149.2390 C   0  0  2  0  0  3  0  0  0  0  0  0
  161.3410  200.6880  149.4420 C   0  0  0  0  0  2  0  0  0  0  0  0
  160.7420  201.6600  146.0430 O   0  0  0  0  0  0  0  0  0  0  0  0
  160.9740  201.7480  147.2760 C   0  0  0  0  0  0  0  0  0  0  0  0
  161.3430  203.0570  147.8870 C   0  0  0  0  0  2  0  0  0  0  0  0
  160.8750  200.6270  148.0970 O   0  0  0  0  0  0  0  0  0  0  0  0
  1  4  1  0  0  0  0
  2  6  1  0  0  0  0
  3  2  2  0  0  0  0
  3  1  1  0  0  0  0
  4  8  1  0  0  0  0
  4  5  2  0  0  0  0
  5 13  1  0  0  0  0
  6  8  2  0  0  0  0
  7  1  2  0  0  0  0
  9  7  2  0  0  0  0
  9 19  1  0  0  0  0
 10 14  1  0  0  0  0
 11 15  1  0  0  0  0
 12 11  2  0  0  0  0
 13 10  2  0  0  0  0
 13 12  1  0  0  0  0
 14 18  1  0  0  0  0
 14 15  2  0  0  0  0
 16 18  1  0  0  0  0
 16 17  1  0  0  0  0
 18 17  1  0  0  0  0
 19 21  1  0  0  0  0
 19 20  1  0  0  0  0
 23 19  1  1  0  0  0
 23 22  1  0  0  0  0
 24 22  1  0  0  0  0
 25 26  2  0  0  0  0
 26 27  1  0  0  0  0
 26 28  1  0  0  0  0
 27 23  1  0  0  0  0
 28 24  1  0  0  0  0
M  END
>  <MODEL>
1

>  <REMARK>
 VINA RESULT:      -8.5      0.000      0.000
  Name = 
  4 active torsions:
  status: ('A' for Active; 'I' for Inactive)
    1  A    between atoms: C_8  and  C_11
    2  A    between atoms: C_8  and  C_28
    3  A    between atoms: C_13  and  N_16
    4  A    between atoms: C_21  and  C_22
                            x       y       z     vdW  Elec       q    Type
                         _______ _______ _______ _____ _____    ______ ____

>  <TORSDO>
F 4

$$$$
=
 OpenBabel11052410523D

 28 31  0  0  1  0  0  0  0  0999 V2000
  161.3220  208.0920  151.0910 C   0  0  0  0  0  0  0  0  0  0  0  0
  161.0750  209.0000  153.3400 C   0  0  0  0  0  3  0  0  0  0  0  0
  161.0720  207.9340  152.5330 C   0  0  0  0  0  3  0  0  0  0  0  0
  161.5770  209.4500  150.5540 C   0  0  0  0  0  0  0  0  0  0  0  0
  161.8000  209.6130  149.2770 N   0  0  0  0  0  0  0  0  0  0  0  0
  161.3290  210.3590  152.8180 C   0  0  0  0  0  3  0  0  0  0  0  0
  161.3160  207.0400  150.3170 C   0  0  0  0  0  0  0  0  0  0  0  0
  161.5620  210.5720  151.5190 C   0  0  0  0  0  3  0  0  0  0  0  0
  161.3140  205.9970  149.5290 C   0  0  0  0  0  3  0  0  0  0  0  0
  161.0210  211.4000  147.8220 C   0  0  0  0  0  3  0  0  0  0  0  0
  163.5110  212.6090  147.7860 C   0  0  0  0  0  3  0  0  0  0  0  0
  163.3270  211.4360  148.5190 C   0  0  0  0  0  3  0  0  0  0  0  0
  162.0690  210.8200  148.5420 C   0  0  0  0  0  0  0  0  0  0  0  0
  161.2420  212.5680  147.0840 C   0  0  0  0  0  0  0  0  0  0  0  0
  162.4740  213.1500  147.0950 N   0  0  0  0  0  0  0  0  0  0  0  0
  159.4460  212.2060  145.4240 C   0  0  0  0  0  2  0  0  0  0  0  0
  160.3970  213.2320  144.8540 C   0  0  0  0  0  2  0  0  0  0  0  0
  160.1120  213.2140  146.3450 C   0  0  0  0  0  3  0  0  0  0  0  0
  161.5810  206.1240  148.0580 C   0  0  0  0  0  0  0  0  0  0  0  0
  160.5120  206.7780  147.4390 O   0  0  0  0  0  1  0  0  0  0  0  0
  162.7460  206.8760  147.8740 O   0  0  0  0  0  1  0  0  0  0  0  0
  161.5720  204.7560  145.9040 C   0  0  0  0  0  2  0  0  0  0  0  0
  161.7680  204.7310  147.4390 C   0  0  2  0  0  3  0  0  0  0  0  0
  160.9540  203.4780  145.3170 C   0  0  0  0  0  2  0  0  0  0  0  0
  161.2990  201.2950  148.1400 O   0  0  0  0  0  0  0  0  0  0  0  0
  161.1800  202.3520  147.4690 C   0  0  0  0  0  0  0  0  0  0  0  0
  160.9290  203.6570  148.1450 C   0  0  0  0  0  2  0  0  0  0  0  0
  161.2960  202.3250  146.0810 O   0  0  0  0  0  0  0  0  0  0  0  0
  1  3  1  0  0  0  0
  3  2  2  0  0  0  0
  4  1  1  0  0  0  0
  4  8  1  0  0  0  0
  5  4  2  0  0  0  0
  6  2  1  0  0  0  0
  7  1  2  0  0  0  0
  8  6  2  0  0  0  0
  9  7  2  0  0  0  0
 10 13  1  0  0  0  0
 11 12  1  0  0  0  0
 12 13  2  0  0  0  0
 13  5  1  0  0  0  0
 14 15  1  0  0  0  0
 14 10  2  0  0  0  0
 15 11  2  0  0  0  0
 16 18  1  0  0  0  0
 17 16  1  0  0  0  0
 17 18  1  0  0  0  0
 18 14  1  0  0  0  0
 19  9  1  0  0  0  0
 20 19  1  0  0  0  0
 21 19  1  0  0  0  0
 22 23  1  0  0  0  0
 23 19  1  1  0  0  0
 23 27  1  0  0  0  0
 24 22  1  0  0  0  0
 24 28  1  0  0  0  0
 26 25  2  0  0  0  0
 26 27  1  0  0  0  0
 28 26  1  0  0  0  0
M  END
>  <MODEL>
2

>  <REMARK>
 VINA RESULT:      -8.0      2.834      5.698
  Name = 
  4 active torsions:
  status: ('A' for Active; 'I' for Inactive)
    1  A    between atoms: C_8  and  C_11
    2  A    between atoms: C_8  and  C_28
    3  A    between atoms: C_13  and  N_16
    4  A    between atoms: C_21  and  C_22
                            x       y       z     vdW  Elec       q    Type
                         _______ _______ _______ _____ _____    ______ ____

>  <TORSDO>
F 4

$$$$
=
 OpenBabel11052410523D

 28 31  0  0  1  0  0  0  0  0999 V2000
  161.2300  204.2270  151.5830 C   0  0  0  0  0  0  0  0  0  0  0  0
  161.0580  201.8040  151.7960 C   0  0  0  0  0  3  0  0  0  0  0  0
  161.2070  202.9940  152.3860 C   0  0  0  0  0  3  0  0  0  0  0  0
  161.0850  204.1220  150.1110 C   0  0  0  0  0  0  0  0  0  0  0  0
  161.1040  205.2040  149.3770 N   0  0  0  0  0  0  0  0  0  0  0  0
  160.9120  201.6870  150.3300 C   0  0  0  0  0  3  0  0  0  0  0  0
  161.3750  205.3810  152.1760 C   0  0  0  0  0  0  0  0  0  0  0  0
  160.9250  202.7660  149.5410 C   0  0  0  0  0  3  0  0  0  0  0  0
  161.5190  206.5440  152.7550 C   0  0  0  0  0  3  0  0  0  0  0  0
  161.1320  204.2020  147.1610 C   0  0  0  0  0  3  0  0  0  0  0  0
  160.6080  206.6280  145.9350 C   0  0  0  0  0  3  0  0  0  0  0  0
  160.7180  206.5700  147.3250 C   0  0  0  0  0  3  0  0  0  0  0  0
  160.9820  205.3440  147.9510 C   0  0  0  0  0  0  0  0  0  0  0  0
  161.0320  204.2970  145.7680 C   0  0  0  0  0  0  0  0  0  0  0  0
  160.7590  205.5010  145.1920 N   0  0  0  0  0  0  0  0  0  0  0  0
  159.7740  202.4980  144.6300 C   0  0  0  0  0  2  0  0  0  0  0  0
  160.6450  201.8530  145.6820 C   0  0  0  0  0  2  0  0  0  0  0  0
  161.1510  203.0670  144.9230 C   0  0  0  0  0  3  0  0  0  0  0  0
  161.5310  207.8190  151.9630 C   0  0  0  0  0  0  0  0  0  0  0  0
  162.7350  207.9280  151.2620 O   0  0  0  0  0  1  0  0  0  0  0  0
  160.4700  207.7930  151.0510 O   0  0  0  0  0  1  0  0  0  0  0  0
  161.0860  208.5730  154.3600 C   0  0  0  0  0  2  0  0  0  0  0  0
  161.3660  209.0200  152.9050 C   0  0  2  0  0  3  0  0  0  0  0  0
  160.1650  209.5120  155.1530 C   0  0  0  0  0  2  0  0  0  0  0  0
  160.1900  212.3570  152.9700 O   0  0  0  0  0  0  0  0  0  0  0  0
  160.2680  211.1630  153.3610 C   0  0  0  0  0  0  0  0  0  0  0  0
  160.3540  210.0480  152.3770 C   0  0  0  0  0  2  0  0  0  0  0  0
  160.2900  210.8640  154.7210 O   0  0  0  0  0  0  0  0  0  0  0  0
  1  7  2  0  0  0  0
  1  3  1  0  0  0  0
  2  3  2  0  0  0  0
  4  1  1  0  0  0  0
  5  4  2  0  0  0  0
  6  2  1  0  0  0  0
  7  9  2  0  0  0  0
  8  4  1  0  0  0  0
  8  6  2  0  0  0  0
 10 13  1  0  0  0  0
 11 12  1  0  0  0  0
 12 13  2  0  0  0  0
 13  5  1  0  0  0  0
 14 10  2  0  0  0  0
 15 14  1  0  0  0  0
 15 11  2  0  0  0  0
 16 18  1  0  0  0  0
 16 17  1  0  0  0  0
 18 17  1  0  0  0  0
 18 14  1  0  0  0  0
 19  9  1  0  0  0  0
 20 19  1  0  0  0  0
 21 19  1  0  0  0  0
 22 24  1  0  0  0  0
 23 19  1  6  0  0  0
 23 22  1  0  0  0  0
 25 26  2  0  0  0  0
 26 28  1  0  0  0  0
 27 23  1  0  0  0  0
 27 26  1  0  0  0  0
 28 24  1  0  0  0  0
M  END
>  <MODEL>
3

>  <REMARK>
 VINA RESULT:      -7.9      3.194      8.784
  Name = 
  4 active torsions:
  status: ('A' for Active; 'I' for Inactive)
    1  A    between atoms: C_8  and  C_11
    2  A    between atoms: C_8  and  C_28
    3  A    between atoms: C_13  and  N_16
    4  A    between atoms: C_21  and  C_22
                            x       y       z     vdW  Elec       q    Type
                         _______ _______ _______ _____ _____    ______ ____

>  <TORSDO>
F 4

$$$$
=
 OpenBabel11052410523D

 28 31  0  0  1  0  0  0  0  0999 V2000
  161.5790  207.6020  151.4450 C   0  0  0  0  0  0  0  0  0  0  0  0
  161.2660  206.3250  153.4990 C   0  0  0  0  0  3  0  0  0  0  0  0
  161.4460  207.5100  152.9090 C   0  0  0  0  0  3  0  0  0  0  0  0
  161.5110  206.3570  150.6430 C   0  0  0  0  0  0  0  0  0  0  0  0
  161.6280  206.4140  149.3430 N   0  0  0  0  0  0  0  0  0  0  0  0
  161.1970  205.0770  152.7110 C   0  0  0  0  0  3  0  0  0  0  0  0
  161.7520  208.7690  150.8850 C   0  0  0  0  0  0  0  0  0  0  0  0
  161.3110  205.0880  151.3790 C   0  0  0  0  0  3  0  0  0  0  0  0
  161.9250  209.9280  150.3090 C   0  0  0  0  0  3  0  0  0  0  0  0
  161.0530  204.1230  148.7610 C   0  0  0  0  0  3  0  0  0  0  0  0
  162.0020  204.4220  146.1770 C   0  0  0  0  0  3  0  0  0  0  0  0
  162.0740  205.4970  147.0650 C   0  0  0  0  0  3  0  0  0  0  0  0
  161.5940  205.3520  148.3740 C   0  0  0  0  0  0  0  0  0  0  0  0
  161.0100  203.0600  147.8520 C   0  0  0  0  0  0  0  0  0  0  0  0
  161.4720  203.2390  146.5830 N   0  0  0  0  0  0  0  0  0  0  0  0
  160.6420  201.4910  149.7270 C   0  0  0  0  0  2  0  0  0  0  0  0
  161.4690  200.7740  148.6870 C   0  0  0  0  0  2  0  0  0  0  0  0
  160.3940  201.7560  148.2520 C   0  0  0  0  0  3  0  0  0  0  0  0
  162.0490  210.0550  148.8180 C   0  0  0  0  0  0  0  0  0  0  0  0
  163.3630  209.7820  148.4290 O   0  0  0  0  0  1  0  0  0  0  0  0
  161.1910  209.1290  148.2150 O   0  0  0  0  0  1  0  0  0  0  0  0
  162.8340  212.1990  147.6800 C   0  0  0  0  0  2  0  0  0  0  0  0
  161.6600  211.4740  148.3800 C   0  0  2  0  0  3  0  0  0  0  0  0
  162.8850  213.7150  147.9200 C   0  0  0  0  0  2  0  0  0  0  0  0
  159.6200  214.2090  149.3190 O   0  0  0  0  0  0  0  0  0  0  0  0
  160.6950  213.6420  148.9920 C   0  0  0  0  0  0  0  0  0  0  0  0
  161.0300  212.2890  149.5190 C   0  0  0  0  0  2  0  0  0  0  0  0
  161.5850  214.2630  148.1190 O   0  0  0  0  0  0  0  0  0  0  0  0
  1  3  1  0  0  0  0
  3  2  2  0  0  0  0
  4  8  1  0  0  0  0
  4  1  1  0  0  0  0
  5  4  2  0  0  0  0
  6  2  1  0  0  0  0
  7  1  2  0  0  0  0
  8  6  2  0  0  0  0
  9  7  2  0  0  0  0
 11 15  2  0  0  0  0
 11 12  1  0  0  0  0
 12 13  2  0  0  0  0
 13 10  1  0  0  0  0
 13  5  1  0  0  0  0
 14 18  1  0  0  0  0
 14 10  2  0  0  0  0
 15 14  1  0  0  0  0
 17 16  1  0  0  0  0
 18 17  1  0  0  0  0
 18 16  1  0  0  0  0
 19  9  1  0  0  0  0
 20 19  1  0  0  0  0
 21 19  1  0  0  0  0
 22 24  1  0  0  0  0
 22 23  1  0  0  0  0
 23 19  1  1  0  0  0
 23 27  1  0  0  0  0
 24 28  1  0  0  0  0
 26 25  2  0  0  0  0
 26 27  1  0  0  0  0
 28 26  1  0  0  0  0
M  END
>  <MODEL>
4

>  <REMARK>
 VINA RESULT:      -7.7      3.625      8.632
  Name = 
  4 active torsions:
  status: ('A' for Active; 'I' for Inactive)
    1  A    between atoms: C_8  and  C_11
    2  A    between atoms: C_8  and  C_28
    3  A    between atoms: C_13  and  N_16
    4  A    between atoms: C_21  and  C_22
                            x       y       z     vdW  Elec       q    Type
                         _______ _______ _______ _____ _____    ______ ____

>  <TORSDO>
F 4

$$$$
=
 OpenBabel11052410523D

 28 31  0  0  1  0  0  0  0  0999 V2000
  161.1020  207.1580  152.8140 C   0  0  0  0  0  0  0  0  0  0  0  0
  160.9920  207.5640  155.2160 C   0  0  0  0  0  3  0  0  0  0  0  0
  161.0490  206.6880  154.2080 C   0  0  0  0  0  3  0  0  0  0  0  0
  161.0900  208.6180  152.5520 C   0  0  0  0  0  0  0  0  0  0  0  0
  161.1340  209.0580  151.3230 N   0  0  0  0  0  0  0  0  0  0  0  0
  160.9800  209.0200  154.9690 C   0  0  0  0  0  3  0  0  0  0  0  0
  161.1590  206.2890  151.8410 C   0  0  0  0  0  0  0  0  0  0  0  0
  161.0240  209.5150  153.7270 C   0  0  0  0  0  3  0  0  0  0  0  0
  161.2170  205.4310  150.8570 C   0  0  0  0  0  3  0  0  0  0  0  0
  161.9150  210.7080  149.7150 C   0  0  0  0  0  3  0  0  0  0  0  0
  160.4330  212.7260  150.8960 C   0  0  0  0  0  3  0  0  0  0  0  0
  160.3870  211.4370  151.4290 C   0  0  0  0  0  3  0  0  0  0  0  0
  161.1340  210.4110  150.8350 C   0  0  0  0  0  0  0  0  0  0  0  0
  161.9520  212.0140  149.2140 C   0  0  0  0  0  0  0  0  0  0  0  0
  161.2020  212.9850  149.8060 N   0  0  0  0  0  0  0  0  0  0  0  0
  162.6380  213.8000  147.6480 C   0  0  0  0  0  2  0  0  0  0  0  0
  161.8460  212.7820  146.8630 C   0  0  0  0  0  2  0  0  0  0  0  0
  162.7560  212.3250  147.9910 C   0  0  0  0  0  3  0  0  0  0  0  0
  161.2870  205.8810  149.4270 C   0  0  0  0  0  0  0  0  0  0  0  0
  160.0560  206.4200  149.0410 O   0  0  0  0  0  1  0  0  0  0  0  0
  162.2740  206.8660  149.3120 O   0  0  0  0  0  1  0  0  0  0  0  0
  161.6710  205.0980  147.0290 C   0  0  0  0  0  2  0  0  0  0  0  0
  161.6420  204.6930  148.5220 C   0  0  2  0  0  3  0  0  0  0  0  0
  161.2200  203.9980  146.0570 C   0  0  0  0  0  2  0  0  0  0  0  0
  161.2710  201.1820  148.2770 O   0  0  0  0  0  0  0  0  0  0  0  0
  161.1920  202.3720  147.8750 C   0  0  0  0  0  0  0  0  0  0  0  0
  160.7710  203.4600  148.8030 C   0  0  0  0  0  2  0  0  0  0  0  0
  161.5120  202.6970  146.5590 O   0  0  0  0  0  0  0  0  0  0  0  0
  1  3  1  0  0  0  0
  3  2  2  0  0  0  0
  4  1  1  0  0  0  0
  4  8  1  0  0  0  0
  5  4  2  0  0  0  0
  6  2  1  0  0  0  0
  7  1  2  0  0  0  0
  8  6  2  0  0  0  0
  9  7  2  0  0  0  0
 10 13  1  0  0  0  0
 11 12  1  0  0  0  0
 13  5  1  0  0  0  0
 13 12  2  0  0  0  0
 14 10  2  0  0  0  0
 14 15  1  0  0  0  0
 15 11  2  0  0  0  0
 16 18  1  0  0  0  0
 17 16  1  0  0  0  0
 17 18  1  0  0  0  0
 18 14  1  0  0  0  0
 19  9  1  0  0  0  0
 20 19  1  0  0  0  0
 21 19  1  0  0  0  0
 22 23  1  0  0  0  0
 23 27  1  0  0  0  0
 23 19  1  1  0  0  0
 24 28  1  0  0  0  0
 24 22  1  0  0  0  0
 26 25  2  0  0  0  0
 26 27  1  0  0  0  0
 28 26  1  0  0  0  0
M  END
>  <MODEL>
5

>  <REMARK>
 VINA RESULT:      -7.7      2.058      4.887
  Name = 
  4 active torsions:
  status: ('A' for Active; 'I' for Inactive)
    1  A    between atoms: C_8  and  C_11
    2  A    between atoms: C_8  and  C_28
    3  A    between atoms: C_13  and  N_16
    4  A    between atoms: C_21  and  C_22
                            x       y       z     vdW  Elec       q    Type
                         _______ _______ _______ _____ _____    ______ ____

>  <TORSDO>
F 4

$$$$
=
 OpenBabel11052410523D

 28 31  0  0  1  0  0  0  0  0999 V2000
  161.2100  204.4020  150.7520 C   0  0  0  0  0  0  0  0  0  0  0  0
  160.8750  204.1110  153.1500 C   0  0  0  0  0  3  0  0  0  0  0  0
  160.9760  203.5590  151.9360 C   0  0  0  0  0  3  0  0  0  0  0  0
  161.3300  205.8690  150.9320 C   0  0  0  0  0  0  0  0  0  0  0  0
  161.5360  206.6360  149.8940 N   0  0  0  0  0  0  0  0  0  0  0  0
  160.9930  205.5710  153.3420 C   0  0  0  0  0  3  0  0  0  0  0  0
  161.3070  203.8460  149.5740 C   0  0  0  0  0  0  0  0  0  0  0  0
  161.2050  206.3940  152.3090 C   0  0  0  0  0  3  0  0  0  0  0  0
  161.4070  203.3050  148.3890 C   0  0  0  0  0  3  0  0  0  0  0  0
  161.5250  208.7990  151.0060 C   0  0  0  0  0  3  0  0  0  0  0  0
  162.1180  210.1360  148.6550 C   0  0  0  0  0  3  0  0  0  0  0  0
  161.9830  208.7470  148.6410 C   0  0  0  0  0  3  0  0  0  0  0  0
  161.6850  208.0650  149.8280 C   0  0  0  0  0  0  0  0  0  0  0  0
  161.6510  210.1930  150.9840 C   0  0  0  0  0  0  0  0  0  0  0  0
  161.9570  210.8240  149.8160 N   0  0  0  0  0  0  0  0  0  0  0  0
  160.4920  210.3330  153.1630 C   0  0  0  0  0  2  0  0  0  0  0  0
  160.1260  211.5650  152.3700 C   0  0  0  0  0  2  0  0  0  0  0  0
  161.5220  210.9780  152.2520 C   0  0  0  0  0  3  0  0  0  0  0  0
  161.6610  204.1370  147.1650 C   0  0  0  0  0  0  0  0  0  0  0  0
  160.9580  205.3420  147.2600 O   0  0  0  0  0  1  0  0  0  0  0  0
  163.0300  204.4100  147.0810 O   0  0  0  0  0  1  0  0  0  0  0  0
  160.4440  204.2830  144.9270 C   0  0  0  0  0  2  0  0  0  0  0  0
  161.2140  203.3710  145.9110 C   0  0  2  0  0  3  0  0  0  0  0  0
  159.3310  203.5780  144.1370 C   0  0  0  0  0  2  0  0  0  0  0  0
  160.1700  200.1640  144.8420 O   0  0  0  0  0  0  0  0  0  0  0  0
  160.0800  201.4120  144.9720 C   0  0  0  0  0  0  0  0  0  0  0  0
  160.4690  202.0720  146.2500 C   0  0  0  0  0  2  0  0  0  0  0  0
  159.6300  202.2020  143.9170 O   0  0  0  0  0  0  0  0  0  0  0  0
  1  4  1  0  0  0  0
  1  3  1  0  0  0  0
  2  6  1  0  0  0  0
  3  2  2  0  0  0  0
  4  8  1  0  0  0  0
  5  4  2  0  0  0  0
  7  1  2  0  0  0  0
  8  6  2  0  0  0  0
  9  7  2  0  0  0  0
 11 15  1  0  0  0  0
 12 11  2  0  0  0  0
 12 13  1  0  0  0  0
 13  5  1  0  0  0  0
 13 10  2  0  0  0  0
 14 10  1  0  0  0  0
 14 18  1  0  0  0  0
 15 14  2  0  0  0  0
 17 16  1  0  0  0  0
 18 17  1  0  0  0  0
 18 16  1  0  0  0  0
 19 20  1  0  0  0  0
 19  9  1  0  0  0  0
 21 19  1  0  0  0  0
 22 23  1  0  0  0  0
 23 27  1  0  0  0  0
 23 19  1  1  0  0  0
 24 22  1  0  0  0  0
 25 26  2  0  0  0  0
 26 27  1  0  0  0  0
 28 24  1  0  0  0  0
 28 26  1  0  0  0  0
M  END
>  <MODEL>
6

>  <REMARK>
 VINA RESULT:      -7.4      2.341      4.547
  Name = 
  4 active torsions:
  status: ('A' for Active; 'I' for Inactive)
    1  A    between atoms: C_8  and  C_11
    2  A    between atoms: C_8  and  C_28
    3  A    between atoms: C_13  and  N_16
    4  A    between atoms: C_21  and  C_22
                            x       y       z     vdW  Elec       q    Type
                         _______ _______ _______ _____ _____    ______ ____

>  <TORSDO>
F 4

$$$$
=
 OpenBabel11052410523D

 28 31  0  0  1  0  0  0  0  0999 V2000
  160.8290  207.5660  154.8300 C   0  0  0  0  0  0  0  0  0  0  0  0
  160.4860  207.6100  157.2440 C   0  0  0  0  0  3  0  0  0  0  0  0
  160.8770  206.9340  156.1590 C   0  0  0  0  0  3  0  0  0  0  0  0
  160.3410  208.9620  154.7200 C   0  0  0  0  0  0  0  0  0  0  0  0
  160.2890  209.5420  153.5510 N   0  0  0  0  0  0  0  0  0  0  0  0
  159.9980  209.0010  157.1470 C   0  0  0  0  0  3  0  0  0  0  0  0
  161.2170  206.8910  153.7810 C   0  0  0  0  0  0  0  0  0  0  0  0
  159.9280  209.6350  155.9720 C   0  0  0  0  0  3  0  0  0  0  0  0
  161.6010  206.2300  152.7210 C   0  0  0  0  0  3  0  0  0  0  0  0
  158.9120  211.4890  154.0270 C   0  0  0  0  0  3  0  0  0  0  0  0
  159.8820  212.8550  151.8230 C   0  0  0  0  0  3  0  0  0  0  0  0
  160.3440  211.5660  152.0910 C   0  0  0  0  0  3  0  0  0  0  0  0
  159.8580  210.8700  153.2060 C   0  0  0  0  0  0  0  0  0  0  0  0
  158.4570  212.7770  153.7220 C   0  0  0  0  0  0  0  0  0  0  0  0
  158.9610  213.4320  152.6390 N   0  0  0  0  0  0  0  0  0  0  0  0
  156.6040  212.4280  155.3220 C   0  0  0  0  0  2  0  0  0  0  0  0
  156.0550  213.2030  154.1470 C   0  0  0  0  0  2  0  0  0  0  0  0
  157.4750  213.4580  154.6230 C   0  0  0  0  0  3  0  0  0  0  0  0
  161.5780  206.8530  151.3560 C   0  0  0  0  0  0  0  0  0  0  0  0
  160.3890  207.5670  151.1820 O   0  0  0  0  0  1  0  0  0  0  0  0
  162.6610  207.7320  151.2440 O   0  0  0  0  0  1  0  0  0  0  0  0
  161.5760  206.3480  148.8550 C   0  0  0  0  0  2  0  0  0  0  0  0
  161.6920  205.7620  150.2820 C   0  0  2  0  0  3  0  0  0  0  0  0
  160.8950  205.4220  147.8350 C   0  0  0  0  0  2  0  0  0  0  0  0
  160.9340  202.3550  149.6930 O   0  0  0  0  0  0  0  0  0  0  0  0
  160.9280  203.5890  149.4440 C   0  0  0  0  0  0  0  0  0  0  0  0
  160.7410  204.5830  150.5380 C   0  0  0  0  0  2  0  0  0  0  0  0
  161.1120  204.0480  148.1420 O   0  0  0  0  0  0  0  0  0  0  0  0
  1  3  1  0  0  0  0
  3  2  2  0  0  0  0
  4  1  1  0  0  0  0
  4  8  1  0  0  0  0
  5  4  2  0  0  0  0
  6  2  1  0  0  0  0
  7  1  2  0  0  0  0
  8  6  2  0  0  0  0
  9  7  2  0  0  0  0
 11 12  2  0  0  0  0
 11 15  1  0  0  0  0
 12 13  1  0  0  0  0
 13  5  1  0  0  0  0
 13 10  2  0  0  0  0
 14 10  1  0  0  0  0
 14 18  1  0  0  0  0
 15 14  2  0  0  0  0
 17 18  1  0  0  0  0
 17 16  1  0  0  0  0
 18 16  1  0  0  0  0
 19  9  1  0  0  0  0
 20 19  1  0  0  0  0
 21 19  1  0  0  0  0
 22 23  1  0  0  0  0
 23 27  1  0  0  0  0
 23 19  1  1  0  0  0
 24 28  1  0  0  0  0
 24 22  1  0  0  0  0
 26 25  2  0  0  0  0
 26 27  1  0  0  0  0
 28 26  1  0  0  0  0
M  END
>  <MODEL>
7

>  <REMARK>
 VINA RESULT:      -7.4      2.482      4.828
  Name = 
  4 active torsions:
  status: ('A' for Active; 'I' for Inactive)
    1  A    between atoms: C_8  and  C_11
    2  A    between atoms: C_8  and  C_28
    3  A    between atoms: C_13  and  N_16
    4  A    between atoms: C_21  and  C_22
                            x       y       z     vdW  Elec       q    Type
                         _______ _______ _______ _____ _____    ______ ____

>  <TORSDO>
F 4

$$$$
=
 OpenBabel11052410523D

 28 31  0  0  1  0  0  0  0  0999 V2000
  161.2240  207.2960  152.4300 C   0  0  0  0  0  0  0  0  0  0  0  0
  161.1580  207.9540  154.7770 C   0  0  0  0  0  3  0  0  0  0  0  0
  161.1380  206.9770  153.8650 C   0  0  0  0  0  3  0  0  0  0  0  0
  161.3320  208.7160  152.0200 C   0  0  0  0  0  0  0  0  0  0  0  0
  161.4080  209.0230  150.7520 N   0  0  0  0  0  0  0  0  0  0  0  0
  161.2660  209.3730  154.3810 C   0  0  0  0  0  3  0  0  0  0  0  0
  161.2050  206.3290  151.5520 C   0  0  0  0  0  0  0  0  0  0  0  0
  161.3470  209.7330  153.0950 C   0  0  0  0  0  3  0  0  0  0  0  0
  161.1860  205.3730  150.6620 C   0  0  0  0  0  3  0  0  0  0  0  0
  160.7810  211.3720  150.6650 C   0  0  0  0  0  3  0  0  0  0  0  0
  162.3910  211.8360  148.4610 C   0  0  0  0  0  3  0  0  0  0  0  0
  162.3310  210.5540  149.0100 C   0  0  0  0  0  3  0  0  0  0  0  0
  161.5190  210.3140  150.1270 C   0  0  0  0  0  0  0  0  0  0  0  0
  160.8520  212.6410  150.0810 C   0  0  0  0  0  0  0  0  0  0  0  0
  161.6630  212.8450  149.0050 N   0  0  0  0  0  0  0  0  0  0  0  0
  158.7260  213.3200  151.1450 C   0  0  0  0  0  2  0  0  0  0  0  0
  158.8580  214.0920  149.8540 C   0  0  0  0  0  2  0  0  0  0  0  0
  160.0950  213.7850  150.6800 C   0  0  0  0  0  3  0  0  0  0  0  0
  161.2880  205.6660  149.1930 C   0  0  0  0  0  0  0  0  0  0  0  0
  160.0810  206.2030  148.7350 O   0  0  0  0  0  1  0  0  0  0  0  0
  162.3110  206.5980  148.9890 O   0  0  0  0  0  1  0  0  0  0  0  0
  161.6000  204.6050  146.8940 C   0  0  0  0  0  2  0  0  0  0  0  0
  161.6100  204.3770  148.4240 C   0  0  2  0  0  3  0  0  0  0  0  0
  161.1150  203.4040  146.0690 C   0  0  0  0  0  2  0  0  0  0  0  0
  161.2090  200.8650  148.6000 O   0  0  0  0  0  0  0  0  0  0  0  0
  161.1270  202.0010  148.0650 C   0  0  0  0  0  0  0  0  0  0  0  0
  160.7390  203.1930  148.8700 C   0  0  0  0  0  2  0  0  0  0  0  0
  161.4120  202.1670  146.7120 O   0  0  0  0  0  0  0  0  0  0  0  0
  1  3  1  0  0  0  0
  3  2  2  0  0  0  0
  4  1  1  0  0  0  0
  4  8  1  0  0  0  0
  5  4  2  0  0  0  0
  6  2  1  0  0  0  0
  7  1  2  0  0  0  0
  8  6  2  0  0  0  0
  9  7  2  0  0  0  0
 11 15  2  0  0  0  0
 11 12  1  0  0  0  0
 12 13  2  0  0  0  0
 13 10  1  0  0  0  0
 13  5  1  0  0  0  0
 14 10  2  0  0  0  0
 14 18  1  0  0  0  0
 15 14  1  0  0  0  0
 17 18  1  0  0  0  0
 17 16  1  0  0  0  0
 18 16  1  0  0  0  0
 19  9  1  0  0  0  0
 20 19  1  0  0  0  0
 21 19  1  0  0  0  0
 22 23  1  0  0  0  0
 23 27  1  0  0  0  0
 23 19  1  1  0  0  0
 24 28  1  0  0  0  0
 24 22  1  0  0  0  0
 26 25  2  0  0  0  0
 26 27  1  0  0  0  0
 28 26  1  0  0  0  0
M  END
>  <MODEL>
8

>  <REMARK>
 VINA RESULT:      -7.4      2.243      4.469
  Name = 
  4 active torsions:
  status: ('A' for Active; 'I' for Inactive)
    1  A    between atoms: C_8  and  C_11
    2  A    between atoms: C_8  and  C_28
    3  A    between atoms: C_13  and  N_16
    4  A    between atoms: C_21  and  C_22
                            x       y       z     vdW  Elec       q    Type
                         _______ _______ _______ _____ _____    ______ ____

>  <TORSDO>
F 4

$$$$
=
 OpenBabel11052410523D

 28 31  0  0  1  0  0  0  0  0999 V2000
  161.5670  209.2490  151.5430 C   0  0  0  0  0  0  0  0  0  0  0  0
  161.2070  208.2330  153.7300 C   0  0  0  0  0  3  0  0  0  0  0  0
  161.3780  209.3390  153.0000 C   0  0  0  0  0  3  0  0  0  0  0  0
  161.5660  207.9110  150.9040 C   0  0  0  0  0  0  0  0  0  0  0  0
  161.7340  207.8070  149.6130 N   0  0  0  0  0  0  0  0  0  0  0  0
  161.2030  206.8940  153.1050 C   0  0  0  0  0  3  0  0  0  0  0  0
  161.7310  210.3410  150.8450 C   0  0  0  0  0  0  0  0  0  0  0  0
  161.3700  206.7400  151.7880 C   0  0  0  0  0  3  0  0  0  0  0  0
  161.8970  211.4240  150.1330 C   0  0  0  0  0  3  0  0  0  0  0  0
  161.2120  205.4530  149.2930 C   0  0  0  0  0  3  0  0  0  0  0  0
  162.3180  205.4370  146.7550 C   0  0  0  0  0  3  0  0  0  0  0  0
  162.3270  206.6160  147.5010 C   0  0  0  0  0  3  0  0  0  0  0  0
  161.7670  206.6310  148.7860 C   0  0  0  0  0  0  0  0  0  0  0  0
  161.2330  204.2830  148.5250 C   0  0  0  0  0  0  0  0  0  0  0  0
  161.7710  204.3070  147.2740 N   0  0  0  0  0  0  0  0  0  0  0  0
  160.4460  203.1170  150.5580 C   0  0  0  0  0  2  0  0  0  0  0  0
  161.5670  202.2960  149.9640 C   0  0  0  0  0  2  0  0  0  0  0  0
  160.6020  203.0310  149.0500 C   0  0  0  0  0  3  0  0  0  0  0  0
  162.0770  211.3650  148.6440 C   0  0  0  0  0  0  0  0  0  0  0  0
  163.4360  211.4520  148.3300 O   0  0  0  0  0  1  0  0  0  0  0  0
  161.5760  210.1450  148.1770 O   0  0  0  0  0  1  0  0  0  0  0  0
  160.4850  213.3250  149.0070 C   0  0  0  0  0  2  0  0  0  0  0  0
  161.3130  212.5190  147.9790 C   0  0  2  0  0  3  0  0  0  0  0  0
  159.1670  213.8960  148.4630 C   0  0  0  0  0  2  0  0  0  0  0  0
  159.7110  213.4090  144.9520 O   0  0  0  0  0  0  0  0  0  0  0  0
  159.7960  213.2480  146.1970 C   0  0  0  0  0  0  0  0  0  0  0  0
  160.4960  212.0600  146.7620 C   0  0  0  0  0  2  0  0  0  0  0  0
  159.2520  214.1860  147.0700 O   0  0  0  0  0  0  0  0  0  0  0  0
  1  3  1  0  0  0  0
  3  2  2  0  0  0  0
  4  1  1  0  0  0  0
  4  8  1  0  0  0  0
  5  4  2  0  0  0  0
  6  2  1  0  0  0  0
  7  1  2  0  0  0  0
  8  6  2  0  0  0  0
  9  7  2  0  0  0  0
 11 15  2  0  0  0  0
 11 12  1  0  0  0  0
 12 13  2  0  0  0  0
 13 10  1  0  0  0  0
 13  5  1  0  0  0  0
 14 18  1  0  0  0  0
 14 10  2  0  0  0  0
 15 14  1  0  0  0  0
 17 16  1  0  0  0  0
 18 17  1  0  0  0  0
 18 16  1  0  0  0  0
 19  9  1  0  0  0  0
 20 19  1  0  0  0  0
 21 19  1  0  0  0  0
 23 19  1  1  0  0  0
 23 22  1  0  0  0  0
 24 22  1  0  0  0  0
 25 26  2  0  0  0  0
 26 27  1  0  0  0  0
 26 28  1  0  0  0  0
 27 23  1  0  0  0  0
 28 24  1  0  0  0  0
M  END
>  <MODEL>
9

>  <REMARK>
 VINA RESULT:      -7.3      3.939      8.249
  Name = 
  4 active torsions:
  status: ('A' for Active; 'I' for Inactive)
    1  A    between atoms: C_8  and  C_11
    2  A    between atoms: C_8  and  C_28
    3  A    between atoms: C_13  and  N_16
    4  A    between atoms: C_21  and  C_22
                            x       y       z     vdW  Elec       q    Type
                         _______ _______ _______ _____ _____    ______ ____

>  <TORSDO>
F 4

$$$$
