=
 OpenBabel11052410493D

 28 30  0  0  1  0  0  0  0  0999 V2000
  160.7820  207.7800  152.5930 C   0  0  2  0  0  3  0  0  0  0  0  0
  161.0330  207.1900  151.2020 C   0  0  1  0  0  3  0  0  0  0  0  0
  162.0140  208.1770  151.8020 C   0  0  1  0  0  3  0  0  0  0  0  0
  162.0270  209.2420  149.8670 C   0  0  0  0  0  1  0  0  0  0  0  0
  161.8110  209.4340  151.2330 O   0  0  0  0  0  0  0  0  0  0  0  0
  161.6020  205.8400  151.2490 N   0  0  0  0  0  2  0  0  0  0  0  0
  160.8170  204.9190  150.4170 C   0  0  1  0  0  3  0  0  0  0  0  0
  160.7200  202.4350  150.2070 C   0  0  0  0  0  3  0  0  0  0  0  0
  160.8450  203.3370  152.3680 O   0  0  0  0  0  1  0  0  0  0  0  0
  161.9030  203.6150  146.9850 C   0  0  0  0  0  3  0  0  0  0  0  0
  161.2940  203.7290  148.1710 C   0  0  0  0  0  0  0  0  0  0  0  0
  161.2320  204.9810  148.9640 C   0  0  0  0  0  0  0  0  0  0  0  0
  161.4620  206.1020  148.4320 O   0  0  0  0  0  0  0  0  0  0  0  0
  160.5880  202.5280  148.7130 C   0  0  0  0  0  2  0  0  0  0  0  0
  160.7980  203.5150  150.9910 C   0  0  0  0  0  0  0  0  0  0  0  0
  162.6460  204.7190  146.3080 C   0  0  0  0  0  2  0  0  0  0  0  0
  161.3300  205.4940  144.1770 N   0  0  0  0  0  0  0  0  0  0  0  0
  161.9120  205.1490  145.1170 C   0  0  0  0  0  0  0  0  0  0  0  0
  161.2020  206.8800  153.7510 C   0  0  0  0  0  2  0  0  0  0  0  0
  160.5370  207.3340  155.0380 C   0  0  0  0  0  2  0  0  0  0  0  0
  161.5340  208.0370  155.9440 C   0  0  1  0  0  3  0  0  0  0  0  0
  161.0810  209.4070  156.1930 N   0  0  0  0  0  0  0  0  0  0  0  0
  160.0370  211.4700  156.4330 O   0  0  0  0  0  0  0  0  0  0  0  0
  160.6420  210.6620  155.6820 C   0  0  0  0  0  0  0  0  0  0  0  0
  160.9740  208.3270  157.0840 O   0  0  0  0  0  0  0  0  0  0  0  0
  160.9580  211.0460  154.2780 C   0  0  0  0  0  2  0  0  0  0  0  0
  159.7310  211.1110  153.5020 N   0  0  0  0  0  2  0  0  0  0  0  0
  159.9130  212.1720  152.5290 C   0  0  0  0  0  1  0  0  0  0  0  0
  1 19  1  1  0  0  0
  2  6  1  1  0  0  0
  2  3  1  0  0  0  0
  2  1  1  0  0  0  0
  3  5  1  6  0  0  0
  3  1  1  0  0  0  0
  4  5  1  0  0  0  0
  7 15  1  0  0  0  0
  7  6  1  1  0  0  0
  8 15  2  0  0  0  0
 10 11  2  0  0  0  0
 11 14  1  0  0  0  0
 11 12  1  0  0  0  0
 12  7  1  0  0  0  0
 13 12  2  0  0  0  0
 14  8  1  0  0  0  0
 15  9  1  0  0  0  0
 16 10  1  0  0  0  0
 17 18  3  0  0  0  0
 18 16  1  0  0  0  0
 19 20  1  0  0  0  0
 21 20  1  6  0  0  0
 21 22  1  0  0  0  0
 21 25  1  0  0  0  0
 22 25  1  0  0  0  0
 24 22  1  0  0  0  0
 24 23  2  0  0  0  0
 26 24  1  0  0  0  0
 27 26  1  0  0  0  0
 28 27  1  0  0  0  0
M  END
>  <MODEL>
1

>  <REMARK>
 VINA RESULT:      -7.6      0.000      0.000
  Name = 
  10 active torsions:
  status: ('A' for Active; 'I' for Inactive)
    1  A    between atoms: C_1  and  N_8
    2  A    between atoms: C_4  and  C_21
    3  A    between atoms: C_5  and  C_27
    4  A    between atoms: N_8  and  C_9
    5  A    between atoms: C_10  and  C_19
    6  A    between atoms: N_11  and  C_18
    7  A    between atoms: O_17  and  C_26
    8  A    between atoms: C_18  and  C_20
    9  A    between atoms: C_19  and  C_28
   10  A    between atoms: C_21  and  C_27
                            x       y       z     vdW  Elec       q    Type
                         _______ _______ _______ _____ _____    ______ ____

>  <TORSDO>
F 10

$$$$
=
 OpenBabel11052410493D

 28 30  0  0  1  0  0  0  0  0999 V2000
  160.8570  208.9200  152.0310 C   0  0  2  0  0  3  0  0  0  0  0  0
  161.1890  208.0760  150.7970 C   0  0  1  0  0  3  0  0  0  0  0  0
  162.1130  209.1980  151.2270 C   0  0  1  0  0  3  0  0  0  0  0  0
  162.0620  209.8270  149.1100 C   0  0  0  0  0  1  0  0  0  0  0  0
  161.9000  210.3090  150.4100 O   0  0  0  0  0  0  0  0  0  0  0  0
  161.7950  206.7850  151.1360 N   0  0  0  0  0  2  0  0  0  0  0  0
  160.9370  205.6790  150.6880 C   0  0  1  0  0  3  0  0  0  0  0  0
  160.8850  203.2310  151.1640 C   0  0  0  0  0  3  0  0  0  0  0  0
  161.2540  204.6790  152.9710 O   0  0  0  0  0  1  0  0  0  0  0  0
  161.6200  203.4950  147.6190 C   0  0  0  0  0  3  0  0  0  0  0  0
  161.1620  203.9270  148.7990 C   0  0  0  0  0  0  0  0  0  0  0  0
  161.1650  205.3460  149.2300 C   0  0  0  0  0  0  0  0  0  0  0  0
  161.2950  206.2820  148.3940 O   0  0  0  0  0  0  0  0  0  0  0  0
  160.5640  202.9200  149.7290 C   0  0  0  0  0  2  0  0  0  0  0  0
  161.0300  204.4810  151.6140 C   0  0  0  0  0  0  0  0  0  0  0  0
  162.2420  204.3710  146.5820 C   0  0  0  0  0  2  0  0  0  0  0  0
  160.7200  204.4270  144.4480 N   0  0  0  0  0  0  0  0  0  0  0  0
  161.3920  204.4050  145.3920 C   0  0  0  0  0  0  0  0  0  0  0  0
  161.2500  208.2850  153.3620 C   0  0  0  0  0  2  0  0  0  0  0  0
  160.7750  209.1480  154.5170 C   0  0  0  0  0  2  0  0  0  0  0  0
  161.7680  210.2600  154.8080 C   0  0  1  0  0  3  0  0  0  0  0  0
  161.0580  211.4110  155.3680 N   0  0  0  0  0  0  0  0  0  0  0  0
  159.6370  213.0030  156.2910 O   0  0  0  0  0  0  0  0  0  0  0  0
  160.0020  212.3620  155.2710 C   0  0  0  0  0  0  0  0  0  0  0  0
  161.8270  210.4830  156.0890 O   0  0  0  0  0  0  0  0  0  0  0  0
  159.3770  212.6480  153.9500 C   0  0  0  0  0  2  0  0  0  0  0  0
  158.2560  211.7490  153.7360 N   0  0  0  0  0  2  0  0  0  0  0  0
  157.0570  212.4920  154.0750 C   0  0  0  0  0  1  0  0  0  0  0  0
  1 19  1  1  0  0  0
  2  6  1  1  0  0  0
  2  3  1  0  0  0  0
  2  1  1  0  0  0  0
  3  5  1  6  0  0  0
  3  1  1  0  0  0  0
  4  5  1  0  0  0  0
  7  6  1  1  0  0  0
  7 15  1  0  0  0  0
  8 15  2  0  0  0  0
 10 11  2  0  0  0  0
 11 12  1  0  0  0  0
 11 14  1  0  0  0  0
 12  7  1  0  0  0  0
 13 12  2  0  0  0  0
 14  8  1  0  0  0  0
 15  9  1  0  0  0  0
 16 10  1  0  0  0  0
 17 18  3  0  0  0  0
 18 16  1  0  0  0  0
 19 20  1  0  0  0  0
 21 20  1  1  0  0  0
 21 22  1  0  0  0  0
 21 25  1  0  0  0  0
 22 25  1  0  0  0  0
 24 22  1  0  0  0  0
 24 23  2  0  0  0  0
 26 24  1  0  0  0  0
 27 26  1  0  0  0  0
 27 28  1  0  0  0  0
M  END
>  <MODEL>
2

>  <REMARK>
 VINA RESULT:      -7.2      1.380      1.536
  Name = 
  10 active torsions:
  status: ('A' for Active; 'I' for Inactive)
    1  A    between atoms: C_1  and  N_8
    2  A    between atoms: C_4  and  C_21
    3  A    between atoms: C_5  and  C_27
    4  A    between atoms: N_8  and  C_9
    5  A    between atoms: C_10  and  C_19
    6  A    between atoms: N_11  and  C_18
    7  A    between atoms: O_17  and  C_26
    8  A    between atoms: C_18  and  C_20
    9  A    between atoms: C_19  and  C_28
   10  A    between atoms: C_21  and  C_27
                            x       y       z     vdW  Elec       q    Type
                         _______ _______ _______ _____ _____    ______ ____

>  <TORSDO>
F 10

$$$$
=
 OpenBabel11052410493D

 28 30  0  0  1  0  0  0  0  0999 V2000
  161.8820  207.0840  148.8200 C   0  0  2  0  0  3  0  0  0  0  0  0
  162.0900  207.7750  150.1720 C   0  0  1  0  0  3  0  0  0  0  0  0
  161.5310  208.5490  148.9950 C   0  0  1  0  0  3  0  0  0  0  0  0
  162.1270  210.6500  148.6620 C   0  0  0  0  0  1  0  0  0  0  0  0
  162.5400  209.3360  148.4390 O   0  0  0  0  0  0  0  0  0  0  0  0
  161.0160  207.4900  151.1270 N   0  0  0  0  0  2  0  0  0  0  0  0
  161.4400  207.8220  152.4940 C   0  0  1  0  0  3  0  0  0  0  0  0
  160.8730  206.9150  154.7480 C   0  0  0  0  0  3  0  0  0  0  0  0
  161.2260  205.3740  153.0160 O   0  0  0  0  0  1  0  0  0  0  0  0
  159.6780  210.3420  154.7750 C   0  0  0  0  0  3  0  0  0  0  0  0
  160.4250  209.3200  154.3420 C   0  0  0  0  0  0  0  0  0  0  0  0
  160.8950  209.1590  152.9450 C   0  0  0  0  0  0  0  0  0  0  0  0
  160.9010  210.1330  152.1420 O   0  0  0  0  0  0  0  0  0  0  0  0
  160.8560  208.2950  155.3420 C   0  0  0  0  0  2  0  0  0  0  0  0
  161.1630  206.6880  153.4630 C   0  0  0  0  0  0  0  0  0  0  0  0
  159.1710  211.4460  153.9060 C   0  0  0  0  0  2  0  0  0  0  0  0
  156.6600  211.9390  154.4740 N   0  0  0  0  0  0  0  0  0  0  0  0
  157.7700  211.7200  154.2250 C   0  0  0  0  0  0  0  0  0  0  0  0
  160.5950  206.2730  148.7110 C   0  0  0  0  0  2  0  0  0  0  0  0
  160.9070  204.7870  148.7190 C   0  0  0  0  0  2  0  0  0  0  0  0
  161.9150  204.4390  147.6370 C   0  0  1  0  0  3  0  0  0  0  0  0
  161.4290  203.2860  146.8750 N   0  0  0  0  0  0  0  0  0  0  0  0
  160.3320  201.5160  145.8440 O   0  0  0  0  0  0  0  0  0  0  0  0
  160.9330  201.9510  146.8600 C   0  0  0  0  0  0  0  0  0  0  0  0
  161.3900  204.6270  146.4600 O   0  0  0  0  0  0  0  0  0  0  0  0
  161.1830  201.0510  148.0190 C   0  0  0  0  0  2  0  0  0  0  0  0
  160.1890  201.2930  149.0490 N   0  0  0  0  0  2  0  0  0  0  0  0
  160.9120  201.4220  150.3010 C   0  0  0  0  0  1  0  0  0  0  0  0
  1 19  1  1  0  0  0
  1  3  1  0  0  0  0
  1  2  1  0  0  0  0
  2  6  1  1  0  0  0
  3  5  1  6  0  0  0
  3  2  1  0  0  0  0
  5  4  1  0  0  0  0
  7  6  1  6  0  0  0
  7 12  1  0  0  0  0
  7 15  1  0  0  0  0
  8 14  1  0  0  0  0
  9 15  1  0  0  0  0
 11 10  2  0  0  0  0
 11 14  1  0  0  0  0
 12 11  1  0  0  0  0
 13 12  2  0  0  0  0
 15  8  2  0  0  0  0
 16 18  1  0  0  0  0
 16 10  1  0  0  0  0
 18 17  3  0  0  0  0
 19 20  1  0  0  0  0
 21 20  1  1  0  0  0
 22 21  1  0  0  0  0
 23 24  2  0  0  0  0
 24 22  1  0  0  0  0
 24 26  1  0  0  0  0
 25 22  1  0  0  0  0
 25 21  1  0  0  0  0
 26 27  1  0  0  0  0
 27 28  1  0  0  0  0
M  END
>  <MODEL>
3

>  <REMARK>
 VINA RESULT:      -7.1      2.328      8.482
  Name = 
  10 active torsions:
  status: ('A' for Active; 'I' for Inactive)
    1  A    between atoms: C_1  and  N_8
    2  A    between atoms: C_4  and  C_21
    3  A    between atoms: C_5  and  C_27
    4  A    between atoms: N_8  and  C_9
    5  A    between atoms: C_10  and  C_19
    6  A    between atoms: N_11  and  C_18
    7  A    between atoms: O_17  and  C_26
    8  A    between atoms: C_18  and  C_20
    9  A    between atoms: C_19  and  C_28
   10  A    between atoms: C_21  and  C_27
                            x       y       z     vdW  Elec       q    Type
                         _______ _______ _______ _____ _____    ______ ____

>  <TORSDO>
F 10

$$$$
=
 OpenBabel11052410493D

 28 30  0  0  1  0  0  0  0  0999 V2000
  162.0290  206.9120  150.0880 C   0  0  2  0  0  3  0  0  0  0  0  0
  161.8940  208.1200  151.0220 C   0  0  1  0  0  3  0  0  0  0  0  0
  161.4250  208.2090  149.5830 C   0  0  1  0  0  3  0  0  0  0  0  0
  162.0330  210.2430  148.9710 C   0  0  0  0  0  1  0  0  0  0  0  0
  162.3760  208.8970  148.8290 O   0  0  0  0  0  0  0  0  0  0  0  0
  160.7330  208.0250  151.9110 N   0  0  0  0  0  2  0  0  0  0  0  0
  161.1180  208.3300  153.2960 C   0  0  1  0  0  3  0  0  0  0  0  0
  160.6390  207.2600  155.4980 C   0  0  0  0  0  3  0  0  0  0  0  0
  161.1520  205.8500  153.6960 O   0  0  0  0  0  1  0  0  0  0  0  0
  159.1040  210.5440  155.6820 C   0  0  0  0  0  3  0  0  0  0  0  0
  159.9510  209.6250  155.2060 C   0  0  0  0  0  0  0  0  0  0  0  0
  160.4390  209.5810  153.8060 C   0  0  0  0  0  0  0  0  0  0  0  0
  160.3490  210.5890  153.0520 O   0  0  0  0  0  0  0  0  0  0  0  0
  160.4810  208.6010  156.1580 C   0  0  0  0  0  2  0  0  0  0  0  0
  160.9540  207.1280  154.2060 C   0  0  0  0  0  0  0  0  0  0  0  0
  158.4900  211.6320  154.8640 C   0  0  0  0  0  2  0  0  0  0  0  0
  155.8900  211.3100  154.7660 N   0  0  0  0  0  0  0  0  0  0  0  0
  157.0390  211.4500  154.8110 C   0  0  0  0  0  0  0  0  0  0  0  0
  160.9230  205.8710  150.2310 C   0  0  0  0  0  2  0  0  0  0  0  0
  161.4760  204.4790  149.9830 C   0  0  0  0  0  2  0  0  0  0  0  0
  160.7600  203.8090  148.8230 C   0  0  1  0  0  3  0  0  0  0  0  0
  161.5910  203.9020  147.6200 N   0  0  0  0  0  0  0  0  0  0  0  0
  163.1830  204.1620  145.9470 O   0  0  0  0  0  0  0  0  0  0  0  0
  162.3420  204.7020  146.7120 C   0  0  0  0  0  0  0  0  0  0  0  0
  161.4280  202.7640  148.4270 O   0  0  0  0  0  0  0  0  0  0  0  0
  162.0840  206.1650  146.6190 C   0  0  0  0  0  2  0  0  0  0  0  0
  160.6570  206.4030  146.4890 N   0  0  0  0  0  2  0  0  0  0  0  0
  160.3010  206.0570  145.1250 C   0  0  0  0  0  1  0  0  0  0  0  0
  1 19  1  1  0  0  0
  1  2  1  0  0  0  0
  2  6  1  1  0  0  0
  3  5  1  6  0  0  0
  3  1  1  0  0  0  0
  3  2  1  0  0  0  0
  5  4  1  0  0  0  0
  7  6  1  6  0  0  0
  7 12  1  0  0  0  0
  7 15  1  0  0  0  0
  8 14  1  0  0  0  0
  9 15  1  0  0  0  0
 11 10  2  0  0  0  0
 11 14  1  0  0  0  0
 12 11  1  0  0  0  0
 13 12  2  0  0  0  0
 15  8  2  0  0  0  0
 16 10  1  0  0  0  0
 17 18  3  0  0  0  0
 18 16  1  0  0  0  0
 20 19  1  0  0  0  0
 21 20  1  1  0  0  0
 22 25  1  0  0  0  0
 22 21  1  0  0  0  0
 23 24  2  0  0  0  0
 24 22  1  0  0  0  0
 25 21  1  0  0  0  0
 26 24  1  0  0  0  0
 27 26  1  0  0  0  0
 28 27  1  0  0  0  0
M  END
>  <MODEL>
4

>  <REMARK>
 VINA RESULT:      -7.0      2.185      8.171
  Name = 
  10 active torsions:
  status: ('A' for Active; 'I' for Inactive)
    1  A    between atoms: C_1  and  N_8
    2  A    between atoms: C_4  and  C_21
    3  A    between atoms: C_5  and  C_27
    4  A    between atoms: N_8  and  C_9
    5  A    between atoms: C_10  and  C_19
    6  A    between atoms: N_11  and  C_18
    7  A    between atoms: O_17  and  C_26
    8  A    between atoms: C_18  and  C_20
    9  A    between atoms: C_19  and  C_28
   10  A    between atoms: C_21  and  C_27
                            x       y       z     vdW  Elec       q    Type
                         _______ _______ _______ _____ _____    ______ ____

>  <TORSDO>
F 10

$$$$
=
 OpenBabel11052410493D

 28 30  0  0  1  0  0  0  0  0999 V2000
  161.6390  205.8080  149.4800 C   0  0  2  0  0  3  0  0  0  0  0  0
  161.6370  207.1080  150.2920 C   0  0  1  0  0  3  0  0  0  0  0  0
  160.8820  207.0240  148.9800 C   0  0  1  0  0  3  0  0  0  0  0  0
  162.1590  208.7850  148.5930 C   0  0  0  0  0  1  0  0  0  0  0  0
  161.6250  207.6510  147.9790 O   0  0  0  0  0  0  0  0  0  0  0  0
  160.6870  207.0800  151.4070 N   0  0  0  0  0  2  0  0  0  0  0  0
  161.3020  207.6330  152.6220 C   0  0  1  0  0  3  0  0  0  0  0  0
  161.0880  207.1210  155.0540 C   0  0  0  0  0  3  0  0  0  0  0  0
  161.2110  205.3090  153.5710 O   0  0  0  0  0  1  0  0  0  0  0  0
  159.8500  210.5120  154.6850 C   0  0  0  0  0  3  0  0  0  0  0  0
  160.5430  209.4270  154.3230 C   0  0  0  0  0  0  0  0  0  0  0  0
  160.8050  209.0310  152.9190 C   0  0  0  0  0  0  0  0  0  0  0  0
  160.6760  209.8560  151.9730 O   0  0  0  0  0  0  0  0  0  0  0  0
  161.1340  208.5810  155.4050 C   0  0  0  0  0  2  0  0  0  0  0  0
  161.1910  206.6800  153.7970 C   0  0  0  0  0  0  0  0  0  0  0  0
  159.2010  211.4590  153.7290 C   0  0  0  0  0  2  0  0  0  0  0  0
  158.9250  213.8090  154.8580 N   0  0  0  0  0  0  0  0  0  0  0  0
  159.0490  212.7700  154.3600 C   0  0  0  0  0  0  0  0  0  0  0  0
  160.6390  204.7590  149.9550 C   0  0  0  0  0  2  0  0  0  0  0  0
  161.2890  203.3880  149.9850 C   0  0  0  0  0  2  0  0  0  0  0  0
  160.2430  202.2900  149.8950 C   0  0  1  0  0  3  0  0  0  0  0  0
  160.6440  201.3190  148.8740 N   0  0  0  0  0  0  0  0  0  0  0  0
  161.6130  199.9570  147.2600 O   0  0  0  0  0  0  0  0  0  0  0  0
  161.0580  201.0510  147.5380 C   0  0  0  0  0  0  0  0  0  0  0  0
  160.7560  201.1510  150.2630 O   0  0  0  0  0  0  0  0  0  0  0  0
  160.7740  202.0360  146.4580 C   0  0  0  0  0  2  0  0  0  0  0  0
  161.5890  203.2230  146.6530 N   0  0  0  0  0  2  0  0  0  0  0  0
  161.4100  204.0470  145.4720 C   0  0  0  0  0  1  0  0  0  0  0  0
  1 19  1  1  0  0  0
  1  2  1  0  0  0  0
  2  6  1  1  0  0  0
  3  5  1  6  0  0  0
  3  1  1  0  0  0  0
  3  2  1  0  0  0  0
  5  4  1  0  0  0  0
  7  6  1  6  0  0  0
  7 12  1  0  0  0  0
  7 15  1  0  0  0  0
  8 14  1  0  0  0  0
  9 15  1  0  0  0  0
 11 10  2  0  0  0  0
 11 14  1  0  0  0  0
 12 11  1  0  0  0  0
 13 12  2  0  0  0  0
 15  8  2  0  0  0  0
 16 18  1  0  0  0  0
 16 10  1  0  0  0  0
 18 17  3  0  0  0  0
 19 20  1  0  0  0  0
 21 20  1  6  0  0  0
 21 25  1  0  0  0  0
 22 21  1  0  0  0  0
 22 25  1  0  0  0  0
 23 24  2  0  0  0  0
 24 22  1  0  0  0  0
 26 27  1  0  0  0  0
 26 24  1  0  0  0  0
 28 27  1  0  0  0  0
M  END
>  <MODEL>
5

>  <REMARK>
 VINA RESULT:      -6.8      2.253      8.457
  Name = 
  10 active torsions:
  status: ('A' for Active; 'I' for Inactive)
    1  A    between atoms: C_1  and  N_8
    2  A    between atoms: C_4  and  C_21
    3  A    between atoms: C_5  and  C_27
    4  A    between atoms: N_8  and  C_9
    5  A    between atoms: C_10  and  C_19
    6  A    between atoms: N_11  and  C_18
    7  A    between atoms: O_17  and  C_26
    8  A    between atoms: C_18  and  C_20
    9  A    between atoms: C_19  and  C_28
   10  A    between atoms: C_21  and  C_27
                            x       y       z     vdW  Elec       q    Type
                         _______ _______ _______ _____ _____    ______ ____

>  <TORSDO>
F 10

$$$$
=
 OpenBabel11052410493D

 28 30  0  0  1  0  0  0  0  0999 V2000
  161.9810  210.2180  151.5470 C   0  0  2  0  0  3  0  0  0  0  0  0
  161.9980  208.8340  152.2040 C   0  0  1  0  0  3  0  0  0  0  0  0
  160.6900  209.4490  151.7480 C   0  0  1  0  0  3  0  0  0  0  0  0
  160.7260  209.4960  153.9570 C   0  0  0  0  0  1  0  0  0  0  0  0
  160.0130  209.9660  152.8530 O   0  0  0  0  0  0  0  0  0  0  0  0
  162.3890  207.7680  151.2780 N   0  0  0  0  0  2  0  0  0  0  0  0
  161.3400  206.7420  151.2000 C   0  0  1  0  0  3  0  0  0  0  0  0
  161.0910  204.4500  152.1540 C   0  0  0  0  0  3  0  0  0  0  0  0
  161.9540  206.1200  153.5550 O   0  0  0  0  0  1  0  0  0  0  0  0
  161.1860  203.9770  148.5560 C   0  0  0  0  0  3  0  0  0  0  0  0
  161.0070  204.6730  149.6850 C   0  0  0  0  0  0  0  0  0  0  0  0
  161.2550  206.1280  149.8200 C   0  0  0  0  0  0  0  0  0  0  0  0
  161.3370  206.8730  148.8040 O   0  0  0  0  0  0  0  0  0  0  0  0
  160.4770  203.9450  150.8780 C   0  0  0  0  0  2  0  0  0  0  0  0
  161.4620  205.7240  152.3180 C   0  0  0  0  0  0  0  0  0  0  0  0
  161.7040  204.5560  147.2800 C   0  0  0  0  0  2  0  0  0  0  0  0
  161.0770  202.9780  145.2820 N   0  0  0  0  0  0  0  0  0  0  0  0
  161.3550  203.6770  146.1640 C   0  0  0  0  0  0  0  0  0  0  0  0
  162.3320  210.2210  150.0620 C   0  0  0  0  0  2  0  0  0  0  0  0
  161.7960  211.4770  149.3980 C   0  0  0  0  0  2  0  0  0  0  0  0
  162.5700  211.7930  148.1300 C   0  0  1  0  0  3  0  0  0  0  0  0
  161.8410  212.7970  147.3530 N   0  0  0  0  0  0  0  0  0  0  0  0
  160.4710  214.4320  146.4290 O   0  0  0  0  0  0  0  0  0  0  0  0
  160.6300  213.2220  146.7340 C   0  0  0  0  0  0  0  0  0  0  0  0
  162.9730  213.0310  148.1490 O   0  0  0  0  0  0  0  0  0  0  0  0
  159.5810  212.2240  146.3860 C   0  0  0  0  0  2  0  0  0  0  0  0
  158.3370  212.5730  147.0500 N   0  0  0  0  0  2  0  0  0  0  0  0
  157.3290  212.6820  146.0100 C   0  0  0  0  0  1  0  0  0  0  0  0
  1 19  1  6  0  0  0
  1  3  1  0  0  0  0
  1  2  1  0  0  0  0
  2  6  1  6  0  0  0
  3  2  1  0  0  0  0
  3  5  1  1  0  0  0
  5  4  1  0  0  0  0
  7  6  1  6  0  0  0
  7 15  1  0  0  0  0
  8 15  2  0  0  0  0
 10 11  2  0  0  0  0
 11 12  1  0  0  0  0
 11 14  1  0  0  0  0
 12  7  1  0  0  0  0
 13 12  2  0  0  0  0
 14  8  1  0  0  0  0
 15  9  1  0  0  0  0
 16 10  1  0  0  0  0
 17 18  3  0  0  0  0
 18 16  1  0  0  0  0
 20 19  1  0  0  0  0
 21 25  1  0  0  0  0
 21 20  1  1  0  0  0
 22 21  1  0  0  0  0
 22 25  1  0  0  0  0
 23 24  2  0  0  0  0
 24 22  1  0  0  0  0
 26 24  1  0  0  0  0
 26 27  1  0  0  0  0
 28 27  1  0  0  0  0
M  END
>  <MODEL>
6

>  <REMARK>
 VINA RESULT:      -6.7      3.458      5.377
  Name = 
  10 active torsions:
  status: ('A' for Active; 'I' for Inactive)
    1  A    between atoms: C_1  and  N_8
    2  A    between atoms: C_4  and  C_21
    3  A    between atoms: C_5  and  C_27
    4  A    between atoms: N_8  and  C_9
    5  A    between atoms: C_10  and  C_19
    6  A    between atoms: N_11  and  C_18
    7  A    between atoms: O_17  and  C_26
    8  A    between atoms: C_18  and  C_20
    9  A    between atoms: C_19  and  C_28
   10  A    between atoms: C_21  and  C_27
                            x       y       z     vdW  Elec       q    Type
                         _______ _______ _______ _____ _____    ______ ____

>  <TORSDO>
F 10

$$$$
=
 OpenBabel11052410493D

 28 30  0  0  1  0  0  0  0  0999 V2000
  161.6900  205.3650  151.7020 C   0  0  2  0  0  3  0  0  0  0  0  0
  161.5680  204.4090  150.5120 C   0  0  1  0  0  3  0  0  0  0  0  0
  160.5350  204.3860  151.6200 C   0  0  1  0  0  3  0  0  0  0  0  0
  161.2620  202.3010  151.6190 C   0  0  0  0  0  1  0  0  0  0  0  0
  160.7860  203.3040  152.4640 O   0  0  0  0  0  0  0  0  0  0  0  0
  160.9990  205.0490  149.3230 N   0  0  0  0  0  2  0  0  0  0  0  0
  161.8300  204.7770  148.1430 C   0  0  1  0  0  3  0  0  0  0  0  0
  162.0290  205.8280  145.8890 C   0  0  0  0  0  3  0  0  0  0  0  0
  161.8440  207.2560  147.7390 O   0  0  0  0  0  1  0  0  0  0  0  0
  160.8350  202.4570  145.2640 C   0  0  0  0  0  3  0  0  0  0  0  0
  161.4260  203.4230  145.9760 C   0  0  0  0  0  0  0  0  0  0  0  0
  161.4290  203.4890  147.4570 C   0  0  0  0  0  0  0  0  0  0  0  0
  161.1600  202.4730  148.1560 O   0  0  0  0  0  0  0  0  0  0  0  0
  162.1740  204.4830  145.2320 C   0  0  0  0  0  2  0  0  0  0  0  0
  161.8990  205.9720  147.2110 C   0  0  0  0  0  0  0  0  0  0  0  0
  160.0560  201.3290  145.8540 C   0  0  0  0  0  2  0  0  0  0  0  0
  161.4200  199.1000  145.6400 N   0  0  0  0  0  0  0  0  0  0  0  0
  160.8190  200.0860  145.7330 C   0  0  0  0  0  0  0  0  0  0  0  0
  161.1680  206.7750  151.4420 C   0  0  0  0  0  2  0  0  0  0  0  0
  161.1790  207.5850  152.7270 C   0  0  0  0  0  2  0  0  0  0  0  0
  160.9020  209.0520  152.4450 C   0  0  1  0  0  3  0  0  0  0  0  0
  161.3860  209.8610  153.5660 N   0  0  0  0  0  0  0  0  0  0  0  0
  162.3250  210.8290  155.4590 O   0  0  0  0  0  0  0  0  0  0  0  0
  161.4080  210.1210  154.9660 C   0  0  0  0  0  0  0  0  0  0  0  0
  162.0230  209.7030  152.3250 O   0  0  0  0  0  0  0  0  0  0  0  0
  160.3120  209.6130  155.8360 C   0  0  0  0  0  2  0  0  0  0  0  0
  160.7710  208.4440  156.5660 N   0  0  0  0  0  2  0  0  0  0  0  0
  159.9470  207.3320  156.1280 C   0  0  0  0  0  1  0  0  0  0  0  0
  1 19  1  6  0  0  0
  2  6  1  6  0  0  0
  2  3  1  0  0  0  0
  2  1  1  0  0  0  0
  3  1  1  0  0  0  0
  3  5  1  1  0  0  0
  4  5  1  0  0  0  0
  7  6  1  1  0  0  0
  8 15  2  0  0  0  0
 10 16  1  0  0  0  0
 10 11  2  0  0  0  0
 11 12  1  0  0  0  0
 12  7  1  0  0  0  0
 12 13  2  0  0  0  0
 14  8  1  0  0  0  0
 14 11  1  0  0  0  0
 15  9  1  0  0  0  0
 15  7  1  0  0  0  0
 17 18  3  0  0  0  0
 18 16  1  0  0  0  0
 19 20  1  0  0  0  0
 21 20  1  1  0  0  0
 21 22  1  0  0  0  0
 22 24  1  0  0  0  0
 24 23  2  0  0  0  0
 24 26  1  0  0  0  0
 25 21  1  0  0  0  0
 25 22  1  0  0  0  0
 26 27  1  0  0  0  0
 28 27  1  0  0  0  0
M  END
>  <MODEL>
7

>  <REMARK>
 VINA RESULT:      -6.7      2.130      4.168
  Name = 
  10 active torsions:
  status: ('A' for Active; 'I' for Inactive)
    1  A    between atoms: C_1  and  N_8
    2  A    between atoms: C_4  and  C_21
    3  A    between atoms: C_5  and  C_27
    4  A    between atoms: N_8  and  C_9
    5  A    between atoms: C_10  and  C_19
    6  A    between atoms: N_11  and  C_18
    7  A    between atoms: O_17  and  C_26
    8  A    between atoms: C_18  and  C_20
    9  A    between atoms: C_19  and  C_28
   10  A    between atoms: C_21  and  C_27
                            x       y       z     vdW  Elec       q    Type
                         _______ _______ _______ _____ _____    ______ ____

>  <TORSDO>
F 10

$$$$
=
 OpenBabel11052410493D

 28 30  0  0  1  0  0  0  0  0999 V2000
  160.5390  205.8360  149.2890 C   0  0  2  0  0  3  0  0  0  0  0  0
  160.8850  205.9770  150.7740 C   0  0  1  0  0  3  0  0  0  0  0  0
  161.1530  204.6750  150.0470 C   0  0  1  0  0  3  0  0  0  0  0  0
  160.8310  202.7070  150.9980 C   0  0  0  0  0  1  0  0  0  0  0  0
  160.1560  203.7530  150.3660 O   0  0  0  0  0  0  0  0  0  0  0  0
  162.1490  206.6830  151.0000 N   0  0  0  0  0  2  0  0  0  0  0  0
  162.1720  207.2850  152.3390 C   0  0  1  0  0  3  0  0  0  0  0  0
  160.8260  206.9430  154.4120 C   0  0  0  0  0  3  0  0  0  0  0  0
  161.4920  205.0340  153.2230 O   0  0  0  0  0  1  0  0  0  0  0  0
  160.1370  210.3550  153.3850 C   0  0  0  0  0  3  0  0  0  0  0  0
  160.8410  209.2190  153.4260 C   0  0  0  0  0  0  0  0  0  0  0  0
  161.6930  208.7200  152.3190 C   0  0  0  0  0  0  0  0  0  0  0  0
  162.0720  209.4870  151.3910 O   0  0  0  0  0  0  0  0  0  0  0  0
  160.8060  208.4200  154.6900 C   0  0  0  0  0  2  0  0  0  0  0  0
  161.4650  206.4170  153.3630 C   0  0  0  0  0  0  0  0  0  0  0  0
  160.0690  211.2650  152.2020 C   0  0  0  0  0  2  0  0  0  0  0  0
  158.1380  213.0050  152.5400 N   0  0  0  0  0  0  0  0  0  0  0  0
  158.9900  212.2360  152.3880 C   0  0  0  0  0  0  0  0  0  0  0  0
  161.5790  206.4140  148.3350 C   0  0  0  0  0  2  0  0  0  0  0  0
  161.0680  206.3650  146.9060 C   0  0  0  0  0  2  0  0  0  0  0  0
  162.0960  205.7320  145.9840 C   0  0  1  0  0  3  0  0  0  0  0  0
  161.5870  204.4480  145.4980 N   0  0  0  0  0  0  0  0  0  0  0  0
  160.4490  202.5200  144.8730 O   0  0  0  0  0  0  0  0  0  0  0  0
  161.0330  203.1670  145.7810 C   0  0  0  0  0  0  0  0  0  0  0  0
  161.6210  205.6500  144.7740 O   0  0  0  0  0  0  0  0  0  0  0  0
  161.2040  202.5630  147.1310 C   0  0  0  0  0  2  0  0  0  0  0  0
  160.8320  201.1590  147.0890 N   0  0  0  0  0  2  0  0  0  0  0  0
  161.2540  200.5800  148.3520 C   0  0  0  0  0  1  0  0  0  0  0  0
  1 19  1  6  0  0  0
  1  3  1  0  0  0  0
  1  2  1  0  0  0  0
  2  6  1  6  0  0  0
  3  5  1  1  0  0  0
  3  2  1  0  0  0  0
  5  4  1  0  0  0  0
  7  6  1  6  0  0  0
  7 15  1  0  0  0  0
  8 14  1  0  0  0  0
  9 15  1  0  0  0  0
 10 11  2  0  0  0  0
 11 14  1  0  0  0  0
 12  7  1  0  0  0  0
 12 11  1  0  0  0  0
 13 12  2  0  0  0  0
 15  8  2  0  0  0  0
 16 18  1  0  0  0  0
 16 10  1  0  0  0  0
 18 17  3  0  0  0  0
 20 19  1  0  0  0  0
 21 20  1  1  0  0  0
 22 24  1  0  0  0  0
 22 21  1  0  0  0  0
 23 24  2  0  0  0  0
 24 26  1  0  0  0  0
 25 22  1  0  0  0  0
 25 21  1  0  0  0  0
 27 26  1  0  0  0  0
 27 28  1  0  0  0  0
M  END
>  <MODEL>
8

>  <REMARK>
 VINA RESULT:      -6.6      2.355      8.589
  Name = 
  10 active torsions:
  status: ('A' for Active; 'I' for Inactive)
    1  A    between atoms: C_1  and  N_8
    2  A    between atoms: C_4  and  C_21
    3  A    between atoms: C_5  and  C_27
    4  A    between atoms: N_8  and  C_9
    5  A    between atoms: C_10  and  C_19
    6  A    between atoms: N_11  and  C_18
    7  A    between atoms: O_17  and  C_26
    8  A    between atoms: C_18  and  C_20
    9  A    between atoms: C_19  and  C_28
   10  A    between atoms: C_21  and  C_27
                            x       y       z     vdW  Elec       q    Type
                         _______ _______ _______ _____ _____    ______ ____

>  <TORSDO>
F 10

$$$$
=
 OpenBabel11052410493D

 28 30  0  0  1  0  0  0  0  0999 V2000
  161.5500  205.7890  151.6220 C   0  0  2  0  0  3  0  0  0  0  0  0
  161.5720  204.7050  150.5400 C   0  0  1  0  0  3  0  0  0  0  0  0
  160.5330  204.6640  151.6420 C   0  0  1  0  0  3  0  0  0  0  0  0
  161.3150  202.6090  151.8550 C   0  0  0  0  0  1  0  0  0  0  0  0
  160.9080  203.7190  152.5970 O   0  0  0  0  0  0  0  0  0  0  0  0
  160.9440  205.1360  149.2890 N   0  0  0  0  0  2  0  0  0  0  0  0
  161.8110  204.8270  148.1430 C   0  0  1  0  0  3  0  0  0  0  0  0
  162.1070  205.8310  145.8790 C   0  0  0  0  0  3  0  0  0  0  0  0
  161.8830  207.2980  147.6950 O   0  0  0  0  0  1  0  0  0  0  0  0
  160.8760  202.4700  145.2740 C   0  0  0  0  0  3  0  0  0  0  0  0
  161.4590  203.4390  145.9890 C   0  0  0  0  0  0  0  0  0  0  0  0
  161.4110  203.5330  147.4680 C   0  0  0  0  0  0  0  0  0  0  0  0
  161.1000  202.5350  148.1760 O   0  0  0  0  0  0  0  0  0  0  0  0
  162.2510  204.4720  145.2530 C   0  0  0  0  0  2  0  0  0  0  0  0
  161.9340  206.0030  147.1930 C   0  0  0  0  0  0  0  0  0  0  0  0
  160.0560  201.3670  145.8580 C   0  0  0  0  0  2  0  0  0  0  0  0
  161.4840  199.1700  145.9580 N   0  0  0  0  0  0  0  0  0  0  0  0
  160.8520  200.1400  145.9160 C   0  0  0  0  0  0  0  0  0  0  0  0
  160.8530  207.0830  151.2120 C   0  0  0  0  0  2  0  0  0  0  0  0
  160.8160  208.0530  152.3800 C   0  0  0  0  0  2  0  0  0  0  0  0
  161.3960  207.4170  153.6320 C   0  0  1  0  0  3  0  0  0  0  0  0
  160.9020  208.1300  154.8120 N   0  0  0  0  0  0  0  0  0  0  0  0
  159.8760  209.4250  156.4460 O   0  0  0  0  0  0  0  0  0  0  0  0
  160.7120  209.3580  155.5080 C   0  0  0  0  0  0  0  0  0  0  0  0
  160.4460  206.8860  154.3460 O   0  0  0  0  0  0  0  0  0  0  0  0
  161.5490  210.5420  155.1720 C   0  0  0  0  0  2  0  0  0  0  0  0
  160.6940  211.6930  154.9380 N   0  0  0  0  0  2  0  0  0  0  0  0
  160.2310  211.5940  153.5660 C   0  0  0  0  0  1  0  0  0  0  0  0
  1 19  1  6  0  0  0
  1  3  1  0  0  0  0
  2  6  1  6  0  0  0
  2  1  1  0  0  0  0
  2  3  1  0  0  0  0
  3  5  1  1  0  0  0
  4  5  1  0  0  0  0
  7  6  1  1  0  0  0
  8 15  2  0  0  0  0
 10 16  1  0  0  0  0
 10 11  2  0  0  0  0
 11 12  1  0  0  0  0
 12  7  1  0  0  0  0
 12 13  2  0  0  0  0
 14  8  1  0  0  0  0
 14 11  1  0  0  0  0
 15  9  1  0  0  0  0
 15  7  1  0  0  0  0
 16 18  1  0  0  0  0
 18 17  3  0  0  0  0
 19 20  1  0  0  0  0
 21 20  1  6  0  0  0
 21 25  1  0  0  0  0
 21 22  1  0  0  0  0
 22 24  1  0  0  0  0
 24 23  2  0  0  0  0
 25 22  1  0  0  0  0
 26 24  1  0  0  0  0
 27 26  1  0  0  0  0
 28 27  1  0  0  0  0
M  END
>  <MODEL>
9

>  <REMARK>
 VINA RESULT:      -6.5      2.155      3.752
  Name = 
  10 active torsions:
  status: ('A' for Active; 'I' for Inactive)
    1  A    between atoms: C_1  and  N_8
    2  A    between atoms: C_4  and  C_21
    3  A    between atoms: C_5  and  C_27
    4  A    between atoms: N_8  and  C_9
    5  A    between atoms: C_10  and  C_19
    6  A    between atoms: N_11  and  C_18
    7  A    between atoms: O_17  and  C_26
    8  A    between atoms: C_18  and  C_20
    9  A    between atoms: C_19  and  C_28
   10  A    between atoms: C_21  and  C_27
                            x       y       z     vdW  Elec       q    Type
                         _______ _______ _______ _____ _____    ______ ____

>  <TORSDO>
F 10

$$$$
