=
 OpenBabel11042421413D

 47 50  0  0  1  0  0  0  0  0999 V2000
  161.3950  206.4590  151.2240 C   0  0  0  0  0  0  0  0  0  0  0  0
  160.9420  205.1030  151.2640 N   0  0  0  0  0  2  0  0  0  0  0  0
  162.7330  208.2390  150.5550 C   0  0  1  0  0  3  0  0  0  0  0  0
  160.5670  207.7310  152.1640 S   0  0  0  0  0  0  0  0  0  0  0  0
  162.2790  209.9000  152.2680 N   0  0  0  0  0  0  0  0  0  0  0  0
  161.9560  208.7680  151.7110 C   0  0  0  0  0  0  0  0  0  0  0  0
  162.4140  206.8180  150.5100 N   0  0  0  0  0  0  0  0  0  0  0  0
  159.9900  212.0860  154.2930 C   0  0  0  0  0  0  0  0  0  0  0  0
  160.5570  211.9380  155.5220 N   0  0  0  0  0  0  0  0  0  0  0  0
  158.8510  212.9260  154.1150 N   0  0  0  0  0  2  0  0  0  0  0  0
  162.1950  210.4470  154.6400 C   0  0  0  0  0  3  0  0  0  0  0  0
  161.6490  210.5920  153.3610 C   0  0  0  0  0  0  0  0  0  0  0  0
  160.5280  211.4130  153.1930 C   0  0  0  0  0  3  0  0  0  0  0  0
  161.6340  211.1360  155.7180 C   0  0  0  0  0  3  0  0  0  0  0  0
  155.7080  211.5240  156.3680 C   0  0  0  0  0  3  0  0  0  0  0  0
  158.3490  213.6970  155.1740 N   0  0  0  0  0  0  0  0  0  0  0  0
  157.4240  213.2550  155.9680 C   0  0  0  0  0  0  0  0  0  0  0  0
  156.8030  214.3350  157.2600 S   0  0  0  0  0  0  0  0  0  0  0  0
  156.8550  211.9020  155.7970 C   0  0  0  0  0  3  0  0  0  0  0  0
  154.8870  212.4160  157.2600 C   0  0  0  0  0  2  0  0  0  0  0  0
  155.0770  213.8880  156.9140 C   0  0  0  0  0  2  0  0  0  0  0  0
  162.3640  208.3420  148.1960 O   0  0  0  0  0  0  0  0  0  0  0  0
  162.2480  208.9230  149.3080 C   0  0  0  0  0  0  0  0  0  0  0  0
  161.7600  210.2660  149.3600 N   0  0  0  0  0  2  0  0  0  0  0  0
  163.4020  211.8550  148.5800 C   0  0  0  0  0  1  0  0  0  0  0  0
  162.0590  211.2130  148.3010 C   0  0  2  0  0  3  0  0  0  0  0  0
  160.9900  212.2890  148.2620 C   0  0  0  0  0  2  0  0  0  0  0  0
  161.2140  213.1790  147.0420 C   0  0  0  0  0  2  0  0  0  0  0  0
  157.0580  214.2030  145.4010 C   0  0  0  0  0  2  0  0  0  0  0  0
  160.4830  213.7780  144.6980 C   0  0  1  0  0  3  0  0  0  0  0  0
  158.0580  213.3740  145.1260 C   0  0  0  0  0  0  0  0  0  0  0  0
  159.0140  213.6340  143.6400 S   0  0  0  0  0  0  0  0  0  0  0  0
  160.2980  212.8170  145.8680 C   0  0  2  0  0  3  0  0  0  0  0  0
  161.6690  213.4110  143.9420 N   0  0  0  0  0  1  0  0  0  0  0  0
  158.8240  212.7960  146.2640 C   0  0  0  0  0  2  0  0  0  0  0  0
  161.7200  203.9850  150.7460 C   0  0  0  0  0  2  0  0  0  0  0  0
  161.3340  203.6870  149.2990 C   0  0  1  0  0  3  0  0  0  0  0  0
  160.2350  202.6250  149.2100 C   0  0  0  0  0  2  0  0  0  0  0  0
  160.7480  201.2030  149.4440 C   0  0  0  0  0  2  0  0  0  0  0  0
  161.7360  200.8190  148.3510 C   0  0  0  0  0  2  0  0  0  0  0  0
  161.5870  199.3000  146.5210 O   0  0  0  0  0  1  0  0  0  0  0  0
  161.0060  200.4400  147.0780 C   0  0  0  0  0  2  0  0  0  0  0  0
  160.9290  204.8830  148.6380 O   0  0  0  0  0  0  0  0  0  0  0  0
  161.1480  205.1050  147.2740 C   0  0  0  0  0  0  0  0  0  0  0  0
  160.5460  206.0640  146.6500 N   0  0  0  0  0  2  0  0  0  0  0  0
  163.0940  205.0690  145.9420 O   0  0  0  0  0  1  0  0  0  0  0  0
  162.1290  204.2580  146.5400 C   0  0  0  0  0  2  0  0  0  0  0  0
  1  2  1  0  0  0  0
  1  4  1  0  0  0  0
  3 23  1  6  0  0  0
  3  6  1  0  0  0  0
  5 12  1  0  0  0  0
  6  4  1  0  0  0  0
  6  5  2  0  0  0  0
  7  3  1  0  0  0  0
  7  1  2  0  0  0  0
  8  9  2  0  0  0  0
  9 14  1  0  0  0  0
 10  8  1  0  0  0  0
 10 16  1  0  0  0  0
 11 14  2  0  0  0  0
 12 11  1  0  0  0  0
 13 12  2  0  0  0  0
 13  8  1  0  0  0  0
 15 20  1  0  0  0  0
 16 17  2  0  0  0  0
 17 18  1  0  0  0  0
 19 17  1  0  0  0  0
 19 15  2  0  0  0  0
 21 20  1  0  0  0  0
 21 18  1  0  0  0  0
 22 23  2  0  0  0  0
 23 24  1  0  0  0  0
 26 25  1  1  0  0  0
 26 24  1  0  0  0  0
 27 26  1  0  0  0  0
 28 27  1  0  0  0  0
 30 34  1  6  0  0  0
 30 33  1  0  0  0  0
 31 29  2  0  0  0  0
 31 35  1  0  0  0  0
 32 30  1  0  0  0  0
 32 31  1  0  0  0  0
 33 35  1  0  0  0  0
 33 28  1  1  0  0  0
 36  2  1  0  0  0  0
 37 38  1  1  0  0  0
 37 36  1  0  0  0  0
 38 39  1  0  0  0  0
 40 39  1  0  0  0  0
 41 42  1  0  0  0  0
 42 40  1  0  0  0  0
 43 37  1  0  0  0  0
 44 43  1  0  0  0  0
 45 44  2  0  0  0  0
 46 47  1  0  0  0  0
 47 44  1  0  0  0  0
M  END
>  <MODEL>
1

>  <REMARK>
 VINA RESULT:      -6.2      0.000      0.000
  Name = 
  16 active torsions:
  status: ('A' for Active; 'I' for Inactive)
    1  A    between atoms: C_1  and  O_15
    2  A    between atoms: C_1  and  C_32
    3  A    between atoms: C_3  and  C_10
    4  A    between atoms: C_3  and  C_41
    5  A    between atoms: N_5  and  N_26
    6  A    between atoms: C_6  and  C_14
    7  A    between atoms: C_6  and  C_22
    8  A    between atoms: C_10  and  O_15
    9  A    between atoms: C_10  and  C_33
   10  A    between atoms: N_12  and  C_33
   11  A    between atoms: C_14  and  C_38
   12  A    between atoms: C_16  and  C_23
   13  A    between atoms: C_18  and  C_41
   14  A    between atoms: C_18  and  C_47
   15  A    between atoms: C_22  and  N_25
   16  A    between atoms: N_34  and  C_37
                            x       y       z     vdW  Elec       q    Type
                         _______ _______ _______ _____ _____    ______ ____

>  <TORSDO>
F 16

$$$$
=
 OpenBabel11042421413D

 47 50  0  0  1  0  0  0  0  0999 V2000
  161.6580  208.2110  150.1560 C   0  0  0  0  0  0  0  0  0  0  0  0
  161.9050  206.8360  149.8460 N   0  0  0  0  0  2  0  0  0  0  0  0
  160.8150  210.0000  151.3780 C   0  0  1  0  0  3  0  0  0  0  0  0
  162.3200  209.5150  149.1330 S   0  0  0  0  0  0  0  0  0  0  0  0
  160.9400  211.8240  149.7780 N   0  0  0  0  0  0  0  0  0  0  0  0
  161.2710  210.6040  150.0950 C   0  0  0  0  0  0  0  0  0  0  0  0
  160.9520  208.5630  151.1830 N   0  0  0  0  0  0  0  0  0  0  0  0
  161.1710  213.1140  146.2570 C   0  0  0  0  0  0  0  0  0  0  0  0
  162.1080  214.0870  146.4290 N   0  0  0  0  0  0  0  0  0  0  0  0
  160.6160  212.8610  144.9680 N   0  0  0  0  0  2  0  0  0  0  0  0
  162.2430  213.6130  148.7610 C   0  0  0  0  0  3  0  0  0  0  0  0
  161.2970  212.5930  148.6160 C   0  0  0  0  0  0  0  0  0  0  0  0
  160.7510  212.3520  147.3500 C   0  0  0  0  0  3  0  0  0  0  0  0
  162.6430  214.3540  147.6470 C   0  0  0  0  0  3  0  0  0  0  0  0
  160.5800  210.9850  141.3070 C   0  0  0  0  0  3  0  0  0  0  0  0
  161.0890  213.5330  143.8320 N   0  0  0  0  0  0  0  0  0  0  0  0
  161.0100  213.0170  142.6450 C   0  0  0  0  0  0  0  0  0  0  0  0
  161.6950  213.9270  141.2570 S   0  0  0  0  0  0  0  0  0  0  0  0
  160.4050  211.6860  142.4310 C   0  0  0  0  0  3  0  0  0  0  0  0
  161.3870  211.4780  140.1350 C   0  0  0  0  0  2  0  0  0  0  0  0
  162.4830  212.4420  140.5710 C   0  0  0  0  0  2  0  0  0  0  0  0
  162.9760  210.3060  152.3510 O   0  0  0  0  0  0  0  0  0  0  0  0
  161.7330  210.4690  152.4720 C   0  0  0  0  0  0  0  0  0  0  0  0
  161.1990  210.9940  153.6900 N   0  0  0  0  0  2  0  0  0  0  0  0
  161.6220  209.2200  155.2720 C   0  0  0  0  0  1  0  0  0  0  0  0
  161.8170  210.6910  154.9690 C   0  0  2  0  0  3  0  0  0  0  0  0
  161.1600  211.5160  156.0600 C   0  0  0  0  0  2  0  0  0  0  0  0
  160.1730  212.4940  155.4270 C   0  0  0  0  0  2  0  0  0  0  0  0
  156.0280  214.4010  154.9860 C   0  0  0  0  0  2  0  0  0  0  0  0
  157.8870  211.4250  155.2930 C   0  0  1  0  0  3  0  0  0  0  0  0
  156.6420  213.5330  155.7810 C   0  0  0  0  0  0  0  0  0  0  0  0
  156.1640  211.8130  155.7170 S   0  0  0  0  0  0  0  0  0  0  0  0
  158.7740  212.4100  156.0480 C   0  0  2  0  0  3  0  0  0  0  0  0
  158.1980  210.0670  155.7040 N   0  0  0  0  0  1  0  0  0  0  0  0
  158.0770  213.7670  156.0990 C   0  0  0  0  0  2  0  0  0  0  0  0
  161.1840  205.7350  150.4700 C   0  0  0  0  0  2  0  0  0  0  0  0
  161.3120  204.4650  149.6310 C   0  0  1  0  0  3  0  0  0  0  0  0
  160.7150  203.2480  150.3450 C   0  0  0  0  0  2  0  0  0  0  0  0
  160.0670  202.2460  149.3880 C   0  0  0  0  0  2  0  0  0  0  0  0
  160.8840  200.9610  149.3470 C   0  0  0  0  0  2  0  0  0  0  0  0
  160.9560  201.5550  147.0400 O   0  0  0  0  0  1  0  0  0  0  0  0
  161.6310  200.8440  148.0340 C   0  0  0  0  0  2  0  0  0  0  0  0
  160.6990  204.6480  148.3570 O   0  0  0  0  0  0  0  0  0  0  0  0
  161.4160  205.0470  147.2240 C   0  0  0  0  0  0  0  0  0  0  0  0
  162.5910  204.5670  146.9760 N   0  0  0  0  0  2  0  0  0  0  0  0
  160.4920  205.3310  145.0730 O   0  0  0  0  0  1  0  0  0  0  0  0
  160.7960  205.9980  146.2590 C   0  0  0  0  0  2  0  0  0  0  0  0
  1  7  2  0  0  0  0
  2  1  1  0  0  0  0
  2 36  1  0  0  0  0
  3 23  1  1  0  0  0
  4  6  1  0  0  0  0
  4  1  1  0  0  0  0
  5  6  2  0  0  0  0
  6  3  1  0  0  0  0
  7  3  1  0  0  0  0
  8  9  2  0  0  0  0
  8 13  1  0  0  0  0
  9 14  1  0  0  0  0
 10  8  1  0  0  0  0
 12 11  1  0  0  0  0
 12  5  1  0  0  0  0
 13 12  2  0  0  0  0
 14 11  2  0  0  0  0
 15 19  2  0  0  0  0
 16 10  1  0  0  0  0
 17 16  2  0  0  0  0
 18 17  1  0  0  0  0
 19 17  1  0  0  0  0
 20 21  1  0  0  0  0
 20 15  1  0  0  0  0
 21 18  1  0  0  0  0
 22 23  2  0  0  0  0
 23 24  1  0  0  0  0
 24 26  1  0  0  0  0
 26 25  1  1  0  0  0
 26 27  1  0  0  0  0
 28 27  1  0  0  0  0
 29 31  2  0  0  0  0
 30 34  1  1  0  0  0
 30 32  1  0  0  0  0
 30 33  1  0  0  0  0
 31 35  1  0  0  0  0
 32 31  1  0  0  0  0
 33 28  1  6  0  0  0
 33 35  1  0  0  0  0
 37 38  1  1  0  0  0
 37 36  1  0  0  0  0
 39 38  1  0  0  0  0
 40 39  1  0  0  0  0
 41 42  1  0  0  0  0
 42 40  1  0  0  0  0
 43 37  1  0  0  0  0
 44 43  1  0  0  0  0
 45 44  2  0  0  0  0
 46 47  1  0  0  0  0
 47 44  1  0  0  0  0
M  END
>  <MODEL>
2

>  <REMARK>
 VINA RESULT:      -5.7      2.228      8.470
  Name = 
  16 active torsions:
  status: ('A' for Active; 'I' for Inactive)
    1  A    between atoms: C_1  and  O_15
    2  A    between atoms: C_1  and  C_32
    3  A    between atoms: C_3  and  C_10
    4  A    between atoms: C_3  and  C_41
    5  A    between atoms: N_5  and  N_26
    6  A    between atoms: C_6  and  C_14
    7  A    between atoms: C_6  and  C_22
    8  A    between atoms: C_10  and  O_15
    9  A    between atoms: C_10  and  C_33
   10  A    between atoms: N_12  and  C_33
   11  A    between atoms: C_14  and  C_38
   12  A    between atoms: C_16  and  C_23
   13  A    between atoms: C_18  and  C_41
   14  A    between atoms: C_18  and  C_47
   15  A    between atoms: C_22  and  N_25
   16  A    between atoms: N_34  and  C_37
                            x       y       z     vdW  Elec       q    Type
                         _______ _______ _______ _____ _____    ______ ____

>  <TORSDO>
F 16

$$$$
=
 OpenBabel11042421413D

 47 50  0  0  1  0  0  0  0  0999 V2000
  161.1080  212.5850  146.2600 C   0  0  0  0  0  0  0  0  0  0  0  0
  160.8680  212.6890  144.8540 N   0  0  0  0  0  2  0  0  0  0  0  0
  161.7490  213.3190  148.3720 C   0  0  1  0  0  3  0  0  0  0  0  0
  160.7560  211.0740  147.1420 S   0  0  0  0  0  0  0  0  0  0  0  0
  162.0730  211.2310  149.5690 N   0  0  0  0  0  0  0  0  0  0  0  0
  161.6190  211.8410  148.5120 C   0  0  0  0  0  0  0  0  0  0  0  0
  161.5850  213.5750  146.9460 N   0  0  0  0  0  0  0  0  0  0  0  0
  161.8230  207.4890  149.3480 C   0  0  0  0  0  0  0  0  0  0  0  0
  161.8590  207.1760  150.6730 N   0  0  0  0  0  0  0  0  0  0  0  0
  161.6980  206.4640  148.3630 N   0  0  0  0  0  2  0  0  0  0  0  0
  162.0760  209.4760  151.2590 C   0  0  0  0  0  3  0  0  0  0  0  0
  162.0230  209.8330  149.9080 C   0  0  0  0  0  0  0  0  0  0  0  0
  161.9050  208.8240  148.9450 C   0  0  0  0  0  3  0  0  0  0  0  0
  161.9890  208.1320  151.6270 C   0  0  0  0  0  3  0  0  0  0  0  0
  161.4830  203.5430  145.4750 C   0  0  0  0  0  3  0  0  0  0  0  0
  161.5080  205.1240  148.7340 N   0  0  0  0  0  0  0  0  0  0  0  0
  161.5280  204.1610  147.8660 C   0  0  0  0  0  0  0  0  0  0  0  0
  161.2180  202.4840  148.4260 S   0  0  0  0  0  0  0  0  0  0  0  0
  161.7620  204.4320  146.4320 C   0  0  0  0  0  3  0  0  0  0  0  0
  160.9270  202.1710  145.7480 C   0  0  0  0  0  2  0  0  0  0  0  0
  160.1060  202.1400  147.0320 C   0  0  0  0  0  2  0  0  0  0  0  0
  160.8730  214.4460  150.2880 O   0  0  0  0  0  0  0  0  0  0  0  0
  160.6360  213.9650  149.1490 C   0  0  0  0  0  0  0  0  0  0  0  0
  159.2950  213.9370  148.6540 N   0  0  0  0  0  2  0  0  0  0  0  0
  156.9270  214.3290  148.9140 C   0  0  0  0  0  1  0  0  0  0  0  0
  158.1700  213.7430  149.5510 C   0  0  2  0  0  3  0  0  0  0  0  0
  158.4380  214.4530  150.8650 C   0  0  0  0  0  2  0  0  0  0  0  0
  157.4100  214.0020  151.9000 C   0  0  0  0  0  2  0  0  0  0  0  0
  156.2550  211.8570  155.7830 C   0  0  0  0  0  2  0  0  0  0  0  0
  158.5010  212.0490  153.0770 C   0  0  1  0  0  3  0  0  0  0  0  0
  157.3260  212.4290  155.2460 C   0  0  0  0  0  0  0  0  0  0  0  0
  158.7050  211.4020  154.7610 S   0  0  0  0  0  0  0  0  0  0  0  0
  158.0550  213.5030  153.1980 C   0  0  2  0  0  3  0  0  0  0  0  0
  159.7680  211.9800  152.3690 N   0  0  0  0  0  1  0  0  0  0  0  0
  157.1250  213.6380  154.4010 C   0  0  0  0  0  2  0  0  0  0  0  0
  161.3760  213.7820  144.0350 C   0  0  0  0  0  2  0  0  0  0  0  0
  161.0960  213.5220  142.5570 C   0  0  1  0  0  3  0  0  0  0  0  0
  162.0990  212.5350  141.9520 C   0  0  0  0  0  2  0  0  0  0  0  0
  161.4680  211.5770  140.9410 C   0  0  0  0  0  2  0  0  0  0  0  0
  162.5500  210.9460  140.0750 C   0  0  0  0  0  2  0  0  0  0  0  0
  162.2170  209.7740  138.0260 O   0  0  0  0  0  1  0  0  0  0  0  0
  162.1840  211.0430  138.6070 C   0  0  0  0  0  2  0  0  0  0  0  0
  159.7620  213.0490  142.3810 O   0  0  0  0  0  0  0  0  0  0  0  0
  158.6630  213.9090  142.2790 C   0  0  0  0  0  0  0  0  0  0  0  0
  158.1410  214.4500  143.3310 N   0  0  0  0  0  2  0  0  0  0  0  0
  157.8330  213.0750  140.2350 O   0  0  0  0  0  1  0  0  0  0  0  0
  158.1170  214.2470  140.9350 C   0  0  0  0  0  2  0  0  0  0  0  0
  1  7  2  0  0  0  0
  1  4  1  0  0  0  0
  2  1  1  0  0  0  0
  3  6  1  0  0  0  0
  3 23  1  1  0  0  0
  4  6  1  0  0  0  0
  5 12  1  0  0  0  0
  6  5  2  0  0  0  0
  7  3  1  0  0  0  0
  8  9  2  0  0  0  0
  9 14  1  0  0  0  0
 10 16  1  0  0  0  0
 10  8  1  0  0  0  0
 11 14  2  0  0  0  0
 12 11  1  0  0  0  0
 13  8  1  0  0  0  0
 13 12  2  0  0  0  0
 15 20  1  0  0  0  0
 15 19  2  0  0  0  0
 17 18  1  0  0  0  0
 17 16  2  0  0  0  0
 19 17  1  0  0  0  0
 20 21  1  0  0  0  0
 21 18  1  0  0  0  0
 23 22  2  0  0  0  0
 24 23  1  0  0  0  0
 24 26  1  0  0  0  0
 26 25  1  6  0  0  0
 26 27  1  0  0  0  0
 27 28  1  0  0  0  0
 30 34  1  6  0  0  0
 30 33  1  0  0  0  0
 30 32  1  0  0  0  0
 31 29  2  0  0  0  0
 32 31  1  0  0  0  0
 33 28  1  6  0  0  0
 33 35  1  0  0  0  0
 35 31  1  0  0  0  0
 36  2  1  0  0  0  0
 37 38  1  1  0  0  0
 37 36  1  0  0  0  0
 39 38  1  0  0  0  0
 40 39  1  0  0  0  0
 41 42  1  0  0  0  0
 42 40  1  0  0  0  0
 43 37  1  0  0  0  0
 44 43  1  0  0  0  0
 44 45  2  0  0  0  0
 46 47  1  0  0  0  0
 47 44  1  0  0  0  0
M  END
>  <MODEL>
3

>  <REMARK>
 VINA RESULT:      -4.8      3.818      9.895
  Name = 
  16 active torsions:
  status: ('A' for Active; 'I' for Inactive)
    1  A    between atoms: C_1  and  O_15
    2  A    between atoms: C_1  and  C_32
    3  A    between atoms: C_3  and  C_10
    4  A    between atoms: C_3  and  C_41
    5  A    between atoms: N_5  and  N_26
    6  A    between atoms: C_6  and  C_14
    7  A    between atoms: C_6  and  C_22
    8  A    between atoms: C_10  and  O_15
    9  A    between atoms: C_10  and  C_33
   10  A    between atoms: N_12  and  C_33
   11  A    between atoms: C_14  and  C_38
   12  A    between atoms: C_16  and  C_23
   13  A    between atoms: C_18  and  C_41
   14  A    between atoms: C_18  and  C_47
   15  A    between atoms: C_22  and  N_25
   16  A    between atoms: N_34  and  C_37
                            x       y       z     vdW  Elec       q    Type
                         _______ _______ _______ _____ _____    ______ ____

>  <TORSDO>
F 16

$$$$
=
 OpenBabel11042421413D

 47 50  0  0  1  0  0  0  0  0999 V2000
  161.9410  210.4280  149.7770 C   0  0  0  0  0  0  0  0  0  0  0  0
  161.9630  211.1860  148.5640 N   0  0  0  0  0  2  0  0  0  0  0  0
  162.3050  210.0120  152.0360 C   0  0  1  0  0  3  0  0  0  0  0  0
  161.2350  208.7890  149.8220 S   0  0  0  0  0  0  0  0  0  0  0  0
  162.1240  207.5930  152.1520 N   0  0  0  0  0  0  0  0  0  0  0  0
  161.9480  208.6840  151.4620 C   0  0  0  0  0  0  0  0  0  0  0  0
  162.4270  210.8960  150.8830 N   0  0  0  0  0  0  0  0  0  0  0  0
  161.6220  204.4120  150.2170 C   0  0  0  0  0  0  0  0  0  0  0  0
  161.1380  203.6120  151.2080 N   0  0  0  0  0  0  0  0  0  0  0  0
  161.7710  203.9120  148.8900 N   0  0  0  0  0  2  0  0  0  0  0  0
  161.3400  205.3790  152.7960 C   0  0  0  0  0  3  0  0  0  0  0  0
  161.8210  206.2310  151.7980 C   0  0  0  0  0  0  0  0  0  0  0  0
  161.9710  205.7350  150.4980 C   0  0  0  0  0  3  0  0  0  0  0  0
  160.9970  204.0620  152.4810 C   0  0  0  0  0  3  0  0  0  0  0  0
  160.7700  203.0460  144.9950 C   0  0  0  0  0  3  0  0  0  0  0  0
  161.3330  202.6240  148.5480 N   0  0  0  0  0  0  0  0  0  0  0  0
  161.0980  202.2800  147.3200 C   0  0  0  0  0  0  0  0  0  0  0  0
  160.4840  200.6260  146.9860 S   0  0  0  0  0  0  0  0  0  0  0  0
  161.2890  203.2380  146.2110 C   0  0  0  0  0  3  0  0  0  0  0  0
  159.9620  201.8340  144.6150 C   0  0  0  0  0  2  0  0  0  0  0  0
  159.2380  201.2400  145.8170 C   0  0  0  0  0  2  0  0  0  0  0  0
  160.7640  211.6490  152.8460 O   0  0  0  0  0  0  0  0  0  0  0  0
  161.1770  210.4620  152.9210 C   0  0  0  0  0  0  0  0  0  0  0  0
  160.6470  209.5870  153.9200 N   0  0  0  0  0  2  0  0  0  0  0  0
  160.1690  208.9320  156.1940 C   0  0  0  0  0  1  0  0  0  0  0  0
  160.2540  210.0920  155.2240 C   0  0  2  0  0  3  0  0  0  0  0  0
  158.8950  210.7600  155.1240 C   0  0  0  0  0  2  0  0  0  0  0  0
  158.6020  211.5020  156.4250 C   0  0  0  0  0  2  0  0  0  0  0  0
  157.2370  214.4530  153.1930 C   0  0  0  0  0  2  0  0  0  0  0  0
  156.2750  212.1660  155.6940 C   0  0  1  0  0  3  0  0  0  0  0  0
  157.0140  214.2180  154.4810 C   0  0  0  0  0  0  0  0  0  0  0  0
  155.4160  213.6010  154.9860 S   0  0  0  0  0  0  0  0  0  0  0  0
  157.6120  212.6580  156.2380 C   0  0  2  0  0  3  0  0  0  0  0  0
  155.4810  211.6030  156.7720 N   0  0  0  0  0  1  0  0  0  0  0  0
  158.1540  213.7460  155.3140 C   0  0  0  0  0  2  0  0  0  0  0  0
  162.7520  212.3990  148.3940 C   0  0  0  0  0  2  0  0  0  0  0  0
  161.8810  213.5380  147.8700 C   0  0  1  0  0  3  0  0  0  0  0  0
  162.2200  213.8940  146.4200 C   0  0  0  0  0  2  0  0  0  0  0  0
  161.1720  213.4070  145.4180 C   0  0  0  0  0  2  0  0  0  0  0  0
  161.8540  212.8960  144.1560 C   0  0  0  0  0  2  0  0  0  0  0  0
  163.4340  213.9200  142.6950 O   0  0  0  0  0  1  0  0  0  0  0  0
  163.2360  213.5010  144.0120 C   0  0  0  0  0  2  0  0  0  0  0  0
  160.5010  213.2030  147.9930 O   0  0  0  0  0  0  0  0  0  0  0  0
  159.7040  213.6600  149.0480 C   0  0  0  0  0  0  0  0  0  0  0  0
  160.2350  214.1110  150.1380 N   0  0  0  0  0  2  0  0  0  0  0  0
  157.6240  213.2350  150.0760 O   0  0  0  0  0  1  0  0  0  0  0  0
  158.2220  213.6770  148.8960 C   0  0  0  0  0  2  0  0  0  0  0  0
  1  4  1  0  0  0  0
  1  7  2  0  0  0  0
  2  1  1  0  0  0  0
  3 23  1  1  0  0  0
  4  6  1  0  0  0  0
  6  3  1  0  0  0  0
  6  5  2  0  0  0  0
  7  3  1  0  0  0  0
  8 13  1  0  0  0  0
  8  9  2  0  0  0  0
  9 14  1  0  0  0  0
 10  8  1  0  0  0  0
 12  5  1  0  0  0  0
 12 11  1  0  0  0  0
 13 12  2  0  0  0  0
 14 11  2  0  0  0  0
 15 19  2  0  0  0  0
 16 10  1  0  0  0  0
 17 16  2  0  0  0  0
 18 17  1  0  0  0  0
 19 17  1  0  0  0  0
 20 15  1  0  0  0  0
 20 21  1  0  0  0  0
 21 18  1  0  0  0  0
 22 23  2  0  0  0  0
 23 24  1  0  0  0  0
 24 26  1  0  0  0  0
 26 25  1  1  0  0  0
 27 26  1  0  0  0  0
 27 28  1  0  0  0  0
 29 31  2  0  0  0  0
 30 33  1  0  0  0  0
 30 34  1  1  0  0  0
 31 32  1  0  0  0  0
 31 35  1  0  0  0  0
 32 30  1  0  0  0  0
 33 28  1  6  0  0  0
 35 33  1  0  0  0  0
 36  2  1  0  0  0  0
 37 38  1  6  0  0  0
 37 43  1  0  0  0  0
 37 36  1  0  0  0  0
 39 38  1  0  0  0  0
 40 39  1  0  0  0  0
 41 42  1  0  0  0  0
 42 40  1  0  0  0  0
 43 44  1  0  0  0  0
 44 45  2  0  0  0  0
 47 44  1  0  0  0  0
 47 46  1  0  0  0  0
M  END
>  <MODEL>
4

>  <REMARK>
 VINA RESULT:      -4.8      3.639     10.252
  Name = 
  16 active torsions:
  status: ('A' for Active; 'I' for Inactive)
    1  A    between atoms: C_1  and  O_15
    2  A    between atoms: C_1  and  C_32
    3  A    between atoms: C_3  and  C_10
    4  A    between atoms: C_3  and  C_41
    5  A    between atoms: N_5  and  N_26
    6  A    between atoms: C_6  and  C_14
    7  A    between atoms: C_6  and  C_22
    8  A    between atoms: C_10  and  O_15
    9  A    between atoms: C_10  and  C_33
   10  A    between atoms: N_12  and  C_33
   11  A    between atoms: C_14  and  C_38
   12  A    between atoms: C_16  and  C_23
   13  A    between atoms: C_18  and  C_41
   14  A    between atoms: C_18  and  C_47
   15  A    between atoms: C_22  and  N_25
   16  A    between atoms: N_34  and  C_37
                            x       y       z     vdW  Elec       q    Type
                         _______ _______ _______ _____ _____    ______ ____

>  <TORSDO>
F 16

$$$$
=
 OpenBabel11042421413D

 47 50  0  0  1  0  0  0  0  0999 V2000
  161.2770  206.5900  151.0710 C   0  0  0  0  0  0  0  0  0  0  0  0
  160.8230  205.2340  151.0890 N   0  0  0  0  0  2  0  0  0  0  0  0
  162.6160  208.3810  150.4310 C   0  0  1  0  0  3  0  0  0  0  0  0
  160.4510  207.8470  152.0330 S   0  0  0  0  0  0  0  0  0  0  0  0
  162.1660  210.0130  152.1730 N   0  0  0  0  0  0  0  0  0  0  0  0
  161.8400  208.8900  151.5970 C   0  0  0  0  0  0  0  0  0  0  0  0
  162.2960  206.9610  150.3620 N   0  0  0  0  0  0  0  0  0  0  0  0
  159.8490  212.1240  154.2440 C   0  0  0  0  0  0  0  0  0  0  0  0
  160.4500  212.0020  155.4600 N   0  0  0  0  0  0  0  0  0  0  0  0
  158.6770  212.9220  154.0910 N   0  0  0  0  0  2  0  0  0  0  0  0
  162.1180  210.5660  154.5440 C   0  0  0  0  0  3  0  0  0  0  0  0
  161.5370  210.6860  153.2780 C   0  0  0  0  0  0  0  0  0  0  0  0
  160.3840  211.4660  153.1340 C   0  0  0  0  0  3  0  0  0  0  0  0
  161.5590  211.2390  155.6330 C   0  0  0  0  0  3  0  0  0  0  0  0
  155.5670  211.4650  156.3560 C   0  0  0  0  0  3  0  0  0  0  0  0
  158.1730  213.6790  155.1590 N   0  0  0  0  0  0  0  0  0  0  0  0
  157.2590  213.2200  155.9560 C   0  0  0  0  0  0  0  0  0  0  0  0
  156.6340  214.2840  157.2610 S   0  0  0  0  0  0  0  0  0  0  0  0
  156.7050  211.8620  155.7800 C   0  0  0  0  0  3  0  0  0  0  0  0
  154.7420  212.3410  157.2600 C   0  0  0  0  0  2  0  0  0  0  0  0
  154.9110  213.8180  156.9230 C   0  0  0  0  0  2  0  0  0  0  0  0
  161.9400  208.4280  148.1400 O   0  0  0  0  0  0  0  0  0  0  0  0
  162.1300  209.0860  149.1960 C   0  0  0  0  0  0  0  0  0  0  0  0
  161.9890  210.5090  149.1820 N   0  0  0  0  0  2  0  0  0  0  0  0
  163.7390  211.8470  148.1960 C   0  0  0  0  0  1  0  0  0  0  0  0
  162.3450  211.2850  148.0080 C   0  0  2  0  0  3  0  0  0  0  0  0
  161.3640  212.4300  147.8370 C   0  0  0  0  0  2  0  0  0  0  0  0
  161.8610  213.3570  146.7300 C   0  0  0  0  0  2  0  0  0  0  0  0
  158.6380  213.7910  143.4990 C   0  0  0  0  0  2  0  0  0  0  0  0
  162.0800  213.7570  144.2440 C   0  0  1  0  0  3  0  0  0  0  0  0
  159.7380  213.0780  143.7150 C   0  0  0  0  0  0  0  0  0  0  0  0
  161.1810  213.3870  142.7100 S   0  0  0  0  0  0  0  0  0  0  0  0
  161.5320  212.8340  145.3270 C   0  0  2  0  0  3  0  0  0  0  0  0
  163.4990  213.5040  144.0530 N   0  0  0  0  0  1  0  0  0  0  0  0
  160.0320  212.6510  145.1100 C   0  0  0  0  0  2  0  0  0  0  0  0
  161.5990  204.1250  150.5510 C   0  0  0  0  0  2  0  0  0  0  0  0
  161.0280  203.6690  149.2100 C   0  0  1  0  0  3  0  0  0  0  0  0
  161.0600  204.7880  148.1660 C   0  0  0  0  0  2  0  0  0  0  0  0
  162.2470  204.6840  147.2070 C   0  0  0  0  0  2  0  0  0  0  0  0
  161.9840  205.5150  145.9590 C   0  0  0  0  0  2  0  0  0  0  0  0
  159.8760  205.8500  144.8980 O   0  0  0  0  0  1  0  0  0  0  0  0
  160.6210  206.1750  146.0320 C   0  0  0  0  0  2  0  0  0  0  0  0
  161.7300  202.5220  148.7370 O   0  0  0  0  0  0  0  0  0  0  0  0
  161.2410  201.2200  148.8870 C   0  0  0  0  0  0  0  0  0  0  0  0
  160.8760  200.7760  150.0460 N   0  0  0  0  0  2  0  0  0  0  0  0
  161.1150  201.1300  146.5340 O   0  0  0  0  0  1  0  0  0  0  0  0
  161.0890  200.3490  147.6890 C   0  0  0  0  0  2  0  0  0  0  0  0
  1  2  1  0  0  0  0
  1  4  1  0  0  0  0
  3 23  1  6  0  0  0
  3  6  1  0  0  0  0
  5 12  1  0  0  0  0
  6  4  1  0  0  0  0
  6  5  2  0  0  0  0
  7  3  1  0  0  0  0
  7  1  2  0  0  0  0
  8  9  2  0  0  0  0
  9 14  1  0  0  0  0
 10  8  1  0  0  0  0
 10 16  1  0  0  0  0
 11 14  2  0  0  0  0
 12 11  1  0  0  0  0
 13 12  2  0  0  0  0
 13  8  1  0  0  0  0
 15 20  1  0  0  0  0
 16 17  2  0  0  0  0
 17 18  1  0  0  0  0
 19 17  1  0  0  0  0
 19 15  2  0  0  0  0
 21 20  1  0  0  0  0
 21 18  1  0  0  0  0
 22 23  2  0  0  0  0
 24 23  1  0  0  0  0
 26 25  1  1  0  0  0
 26 24  1  0  0  0  0
 27 26  1  0  0  0  0
 28 27  1  0  0  0  0
 29 31  2  0  0  0  0
 30 34  1  6  0  0  0
 30 33  1  0  0  0  0
 31 35  1  0  0  0  0
 32 31  1  0  0  0  0
 32 30  1  0  0  0  0
 33 28  1  1  0  0  0
 35 33  1  0  0  0  0
 36  2  1  0  0  0  0
 37 38  1  6  0  0  0
 37 36  1  0  0  0  0
 39 38  1  0  0  0  0
 40 42  1  0  0  0  0
 40 39  1  0  0  0  0
 41 42  1  0  0  0  0
 43 44  1  0  0  0  0
 43 37  1  0  0  0  0
 44 45  2  0  0  0  0
 46 47  1  0  0  0  0
 47 44  1  0  0  0  0
M  END
>  <MODEL>
5

>  <REMARK>
 VINA RESULT:      -3.7      1.233      2.385
  Name = 
  16 active torsions:
  status: ('A' for Active; 'I' for Inactive)
    1  A    between atoms: C_1  and  O_15
    2  A    between atoms: C_1  and  C_32
    3  A    between atoms: C_3  and  C_10
    4  A    between atoms: C_3  and  C_41
    5  A    between atoms: N_5  and  N_26
    6  A    between atoms: C_6  and  C_14
    7  A    between atoms: C_6  and  C_22
    8  A    between atoms: C_10  and  O_15
    9  A    between atoms: C_10  and  C_33
   10  A    between atoms: N_12  and  C_33
   11  A    between atoms: C_14  and  C_38
   12  A    between atoms: C_16  and  C_23
   13  A    between atoms: C_18  and  C_41
   14  A    between atoms: C_18  and  C_47
   15  A    between atoms: C_22  and  N_25
   16  A    between atoms: N_34  and  C_37
                            x       y       z     vdW  Elec       q    Type
                         _______ _______ _______ _____ _____    ______ ____

>  <TORSDO>
F 16

$$$$
=
 OpenBabel11042421413D

 47 50  0  0  1  0  0  0  0  0999 V2000
  161.2160  206.7250  149.8850 C   0  0  0  0  0  0  0  0  0  0  0  0
  160.7850  205.3970  149.5740 N   0  0  0  0  0  2  0  0  0  0  0  0
  162.5170  208.6430  149.6890 C   0  0  1  0  0  3  0  0  0  0  0  0
  160.3850  207.6920  151.1340 S   0  0  0  0  0  0  0  0  0  0  0  0
  162.0660  209.7900  151.7820 N   0  0  0  0  0  0  0  0  0  0  0  0
  161.7510  208.8370  150.9510 C   0  0  0  0  0  0  0  0  0  0  0  0
  162.2190  207.2770  149.2780 N   0  0  0  0  0  0  0  0  0  0  0  0
  159.5290  210.7470  154.3820 C   0  0  0  0  0  0  0  0  0  0  0  0
  160.3540  210.9470  155.4470 N   0  0  0  0  0  0  0  0  0  0  0  0
  158.1220  210.9440  154.5070 N   0  0  0  0  0  2  0  0  0  0  0  0
  162.2600  210.3560  154.1430 C   0  0  0  0  0  3  0  0  0  0  0  0
  161.4430  210.1610  153.0240 C   0  0  0  0  0  0  0  0  0  0  0  0
  160.0620  210.3500  153.1530 C   0  0  0  0  0  3  0  0  0  0  0  0
  161.6940  210.7550  155.3560 C   0  0  0  0  0  3  0  0  0  0  0  0
  154.8800  213.4710  154.3510 C   0  0  0  0  0  3  0  0  0  0  0  0
  157.5640  211.4420  155.6940 N   0  0  0  0  0  0  0  0  0  0  0  0
  156.4870  212.1650  155.6970 C   0  0  0  0  0  0  0  0  0  0  0  0
  155.8790  212.8070  157.2590 S   0  0  0  0  0  0  0  0  0  0  0  0
  155.7860  212.4940  154.4380 C   0  0  0  0  0  3  0  0  0  0  0  0
  154.4590  214.3240  155.5180 C   0  0  0  0  0  2  0  0  0  0  0  0
  155.5700  214.4510  156.5530 C   0  0  0  0  0  2  0  0  0  0  0  0
  161.6210  209.1990  147.5450 O   0  0  0  0  0  0  0  0  0  0  0  0
  162.0020  209.6190  148.6690 C   0  0  0  0  0  0  0  0  0  0  0  0
  162.0460  211.0250  148.9250 N   0  0  0  0  0  2  0  0  0  0  0  0
  163.6690  212.6710  148.2300 C   0  0  0  0  0  1  0  0  0  0  0  0
  162.3770  211.9670  147.8720 C   0  0  2  0  0  3  0  0  0  0  0  0
  161.2690  212.9960  147.7410 C   0  0  0  0  0  2  0  0  0  0  0  0
  160.7930  213.0430  146.2910 C   0  0  0  0  0  2  0  0  0  0  0  0
  156.9850  214.0810  148.6220 C   0  0  0  0  0  2  0  0  0  0  0  0
  158.6590  214.1590  145.5240 C   0  0  1  0  0  3  0  0  0  0  0  0
  157.3240  213.4440  147.5080 C   0  0  0  0  0  0  0  0  0  0  0  0
  156.8900  214.1630  145.9320 S   0  0  0  0  0  0  0  0  0  0  0  0
  159.2710  212.9170  146.1620 C   0  0  2  0  0  3  0  0  0  0  0  0
  158.8290  214.1070  144.0820 N   0  0  0  0  0  1  0  0  0  0  0  0
  158.5920  212.6630  147.5060 C   0  0  0  0  0  2  0  0  0  0  0  0
  161.5710  204.4680  148.7730 C   0  0  0  0  0  2  0  0  0  0  0  0
  160.6590  203.5850  147.9250 C   0  0  1  0  0  3  0  0  0  0  0  0
  161.0090  203.6670  146.4370 C   0  0  0  0  0  2  0  0  0  0  0  0
  162.0100  204.7770  146.1130 C   0  0  0  0  0  2  0  0  0  0  0  0
  162.2480  204.8430  144.6100 C   0  0  0  0  0  2  0  0  0  0  0  0
  160.5160  206.4590  144.8800 O   0  0  0  0  0  1  0  0  0  0  0  0
  161.1700  205.6680  143.9340 C   0  0  0  0  0  2  0  0  0  0  0  0
  160.7170  202.2340  148.3780 O   0  0  0  0  0  0  0  0  0  0  0  0
  160.4650  201.8710  149.7050 C   0  0  0  0  0  0  0  0  0  0  0  0
  159.6380  200.9170  149.9890 N   0  0  0  0  0  2  0  0  0  0  0  0
  161.9540  201.6240  151.5180 O   0  0  0  0  0  1  0  0  0  0  0  0
  161.1960  202.5550  150.8080 C   0  0  0  0  0  2  0  0  0  0  0  0
  1  4  1  0  0  0  0
  2  1  1  0  0  0  0
  3 23  1  6  0  0  0
  3  6  1  0  0  0  0
  5 12  1  0  0  0  0
  6  4  1  0  0  0  0
  6  5  2  0  0  0  0
  7  3  1  0  0  0  0
  7  1  2  0  0  0  0
  8 10  1  0  0  0  0
  8  9  2  0  0  0  0
 10 16  1  0  0  0  0
 11 14  2  0  0  0  0
 12 13  2  0  0  0  0
 12 11  1  0  0  0  0
 13  8  1  0  0  0  0
 14  9  1  0  0  0  0
 15 19  2  0  0  0  0
 15 20  1  0  0  0  0
 16 17  2  0  0  0  0
 17 18  1  0  0  0  0
 19 17  1  0  0  0  0
 20 21  1  0  0  0  0
 21 18  1  0  0  0  0
 22 23  2  0  0  0  0
 23 24  1  0  0  0  0
 26 25  1  1  0  0  0
 26 24  1  0  0  0  0
 27 26  1  0  0  0  0
 28 27  1  0  0  0  0
 30 34  1  6  0  0  0
 30 32  1  0  0  0  0
 30 33  1  0  0  0  0
 31 29  2  0  0  0  0
 32 31  1  0  0  0  0
 33 28  1  1  0  0  0
 33 35  1  0  0  0  0
 35 31  1  0  0  0  0
 36  2  1  0  0  0  0
 37 38  1  6  0  0  0
 37 43  1  0  0  0  0
 37 36  1  0  0  0  0
 39 38  1  0  0  0  0
 40 39  1  0  0  0  0
 42 40  1  0  0  0  0
 42 41  1  0  0  0  0
 43 44  1  0  0  0  0
 44 45  2  0  0  0  0
 44 47  1  0  0  0  0
 47 46  1  0  0  0  0
M  END
>  <MODEL>
6

>  <REMARK>
 VINA RESULT:      -3.7      1.866      2.888
  Name = 
  16 active torsions:
  status: ('A' for Active; 'I' for Inactive)
    1  A    between atoms: C_1  and  O_15
    2  A    between atoms: C_1  and  C_32
    3  A    between atoms: C_3  and  C_10
    4  A    between atoms: C_3  and  C_41
    5  A    between atoms: N_5  and  N_26
    6  A    between atoms: C_6  and  C_14
    7  A    between atoms: C_6  and  C_22
    8  A    between atoms: C_10  and  O_15
    9  A    between atoms: C_10  and  C_33
   10  A    between atoms: N_12  and  C_33
   11  A    between atoms: C_14  and  C_38
   12  A    between atoms: C_16  and  C_23
   13  A    between atoms: C_18  and  C_41
   14  A    between atoms: C_18  and  C_47
   15  A    between atoms: C_22  and  N_25
   16  A    between atoms: N_34  and  C_37
                            x       y       z     vdW  Elec       q    Type
                         _______ _______ _______ _____ _____    ______ ____

>  <TORSDO>
F 16

$$$$
=
 OpenBabel11042421413D

 47 50  0  0  1  0  0  0  0  0999 V2000
  162.0980  209.5640  151.5150 C   0  0  0  0  0  0  0  0  0  0  0  0
  162.4060  209.6640  152.9090 N   0  0  0  0  0  2  0  0  0  0  0  0
  161.1800  210.2260  149.4840 C   0  0  1  0  0  3  0  0  0  0  0  0
  162.6910  208.1910  150.5410 S   0  0  0  0  0  0  0  0  0  0  0  0
  161.2090  208.1610  148.2050 N   0  0  0  0  0  0  0  0  0  0  0  0
  161.5990  208.8130  149.2630 C   0  0  0  0  0  0  0  0  0  0  0  0
  161.3830  210.4580  150.9080 N   0  0  0  0  0  0  0  0  0  0  0  0
  161.3280  204.4130  147.9730 C   0  0  0  0  0  0  0  0  0  0  0  0
  162.2490  204.2720  146.9790 N   0  0  0  0  0  0  0  0  0  0  0  0
  160.7470  203.2670  148.5920 N   0  0  0  0  0  2  0  0  0  0  0  0
  162.4490  206.6380  146.7650 C   0  0  0  0  0  3  0  0  0  0  0  0
  161.5220  206.8180  147.7960 C   0  0  0  0  0  0  0  0  0  0  0  0
  160.9500  205.6900  148.3960 C   0  0  0  0  0  3  0  0  0  0  0  0
  162.8070  205.3470  146.3680 C   0  0  0  0  0  3  0  0  0  0  0  0
  160.0090  201.7340  144.8470 C   0  0  0  0  0  3  0  0  0  0  0  0
  161.1790  201.9720  148.2670 N   0  0  0  0  0  0  0  0  0  0  0  0
  161.0520  201.4850  147.0720 C   0  0  0  0  0  0  0  0  0  0  0  0
  161.5810  199.7970  146.7640 S   0  0  0  0  0  0  0  0  0  0  0  0
  160.4460  202.2810  145.9840 C   0  0  0  0  0  3  0  0  0  0  0  0
  160.1040  200.2630  144.5390 C   0  0  0  0  0  2  0  0  0  0  0  0
  160.0850  199.4190  145.8070 C   0  0  0  0  0  2  0  0  0  0  0  0
  163.3270  211.0760  148.8670 O   0  0  0  0  0  0  0  0  0  0  0  0
  162.0830  211.1160  148.6760 C   0  0  0  0  0  0  0  0  0  0  0  0
  161.5330  212.0830  147.7780 N   0  0  0  0  0  2  0  0  0  0  0  0
  161.4800  214.3410  148.6290 C   0  0  0  0  0  1  0  0  0  0  0  0
  162.1300  213.3990  147.6380 C   0  0  2  0  0  3  0  0  0  0  0  0
  161.8960  213.9170  146.2310 C   0  0  0  0  0  2  0  0  0  0  0  0
  161.2190  212.8300  145.3990 C   0  0  0  0  0  2  0  0  0  0  0  0
  161.2070  211.1030  141.1530 C   0  0  0  0  0  2  0  0  0  0  0  0
  159.4940  213.0200  143.5610 C   0  0  1  0  0  3  0  0  0  0  0  0
  161.0390  212.2780  141.7470 C   0  0  0  0  0  0  0  0  0  0  0  0
  159.4180  213.0260  141.7470 S   0  0  0  0  0  0  0  0  0  0  0  0
  160.9450  213.2710  143.9570 C   0  0  2  0  0  3  0  0  0  0  0  0
  158.6490  214.0760  144.0910 N   0  0  0  0  0  1  0  0  0  0  0  0
  161.8620  212.5780  142.9520 C   0  0  0  0  0  2  0  0  0  0  0  0
  161.7410  210.5970  153.8090 C   0  0  0  0  0  2  0  0  0  0  0  0
  160.5300  209.9400  154.4660 C   0  0  1  0  0  3  0  0  0  0  0  0
  160.9310  209.0770  155.6650 C   0  0  0  0  0  2  0  0  0  0  0  0
  160.7100  207.5810  155.4330 C   0  0  0  0  0  2  0  0  0  0  0  0
  160.6240  207.2920  153.9410 C   0  0  0  0  0  2  0  0  0  0  0  0
  160.8690  205.1100  153.0150 O   0  0  0  0  0  1  0  0  0  0  0  0
  161.5810  206.1820  153.5550 C   0  0  0  0  0  2  0  0  0  0  0  0
  159.5820  210.9300  154.8580 O   0  0  0  0  0  0  0  0  0  0  0  0
  158.4950  211.2940  154.0560 C   0  0  0  0  0  0  0  0  0  0  0  0
  158.6320  211.4510  152.7800 N   0  0  0  0  0  2  0  0  0  0  0  0
  157.2660  211.4800  156.0610 O   0  0  0  0  0  1  0  0  0  0  0  0
  157.1480  211.4540  154.6710 C   0  0  0  0  0  2  0  0  0  0  0  0
  1  2  1  0  0  0  0
  2 36  1  0  0  0  0
  3 23  1  6  0  0  0
  3  7  1  0  0  0  0
  4  1  1  0  0  0  0
  5  6  2  0  0  0  0
  6  3  1  0  0  0  0
  6  4  1  0  0  0  0
  7  1  2  0  0  0  0
  8 13  1  0  0  0  0
  8 10  1  0  0  0  0
  9  8  2  0  0  0  0
 11 12  1  0  0  0  0
 12  5  1  0  0  0  0
 12 13  2  0  0  0  0
 14 11  2  0  0  0  0
 14  9  1  0  0  0  0
 15 19  2  0  0  0  0
 16 10  1  0  0  0  0
 17 16  2  0  0  0  0
 18 17  1  0  0  0  0
 19 17  1  0  0  0  0
 20 15  1  0  0  0  0
 20 21  1  0  0  0  0
 21 18  1  0  0  0  0
 23 22  2  0  0  0  0
 24 23  1  0  0  0  0
 26 24  1  0  0  0  0
 26 25  1  1  0  0  0
 27 26  1  0  0  0  0
 28 27  1  0  0  0  0
 29 31  2  0  0  0  0
 30 33  1  0  0  0  0
 30 34  1  1  0  0  0
 31 35  1  0  0  0  0
 32 31  1  0  0  0  0
 32 30  1  0  0  0  0
 33 28  1  1  0  0  0
 35 33  1  0  0  0  0
 37 36  1  1  0  0  0
 37 43  1  0  0  0  0
 37 38  1  0  0  0  0
 39 38  1  0  0  0  0
 40 39  1  0  0  0  0
 41 42  1  0  0  0  0
 42 40  1  0  0  0  0
 44 47  1  0  0  0  0
 44 43  1  0  0  0  0
 45 44  2  0  0  0  0
 47 46  1  0  0  0  0
M  END
>  <MODEL>
7

>  <REMARK>
 VINA RESULT:      -3.6      3.199      9.091
  Name = 
  16 active torsions:
  status: ('A' for Active; 'I' for Inactive)
    1  A    between atoms: C_1  and  O_15
    2  A    between atoms: C_1  and  C_32
    3  A    between atoms: C_3  and  C_10
    4  A    between atoms: C_3  and  C_41
    5  A    between atoms: N_5  and  N_26
    6  A    between atoms: C_6  and  C_14
    7  A    between atoms: C_6  and  C_22
    8  A    between atoms: C_10  and  O_15
    9  A    between atoms: C_10  and  C_33
   10  A    between atoms: N_12  and  C_33
   11  A    between atoms: C_14  and  C_38
   12  A    between atoms: C_16  and  C_23
   13  A    between atoms: C_18  and  C_41
   14  A    between atoms: C_18  and  C_47
   15  A    between atoms: C_22  and  N_25
   16  A    between atoms: N_34  and  C_37
                            x       y       z     vdW  Elec       q    Type
                         _______ _______ _______ _____ _____    ______ ____

>  <TORSDO>
F 16

$$$$
=
 OpenBabel11042421413D

 47 50  0  0  1  0  0  0  0  0999 V2000
  162.0490  209.5840  151.6060 C   0  0  0  0  0  0  0  0  0  0  0  0
  162.3260  209.6790  153.0060 N   0  0  0  0  0  2  0  0  0  0  0  0
  161.1820  210.2570  149.5550 C   0  0  1  0  0  3  0  0  0  0  0  0
  162.6560  208.2110  150.6410 S   0  0  0  0  0  0  0  0  0  0  0  0
  161.2280  208.1950  148.2730 N   0  0  0  0  0  0  0  0  0  0  0  0
  161.5970  208.8420  149.3410 C   0  0  0  0  0  0  0  0  0  0  0  0
  161.3540  210.4840  150.9850 N   0  0  0  0  0  0  0  0  0  0  0  0
  161.3340  204.4470  148.0370 C   0  0  0  0  0  0  0  0  0  0  0  0
  162.2710  204.3030  147.0600 N   0  0  0  0  0  0  0  0  0  0  0  0
  160.7360  203.3020  148.6440 N   0  0  0  0  0  2  0  0  0  0  0  0
  162.4870  206.6680  146.8530 C   0  0  0  0  0  3  0  0  0  0  0  0
  161.5410  206.8510  147.8670 C   0  0  0  0  0  0  0  0  0  0  0  0
  160.9540  205.7250  148.4550 C   0  0  0  0  0  3  0  0  0  0  0  0
  162.8450  205.3770  146.4600 C   0  0  0  0  0  3  0  0  0  0  0  0
  160.0500  201.7740  144.8860 C   0  0  0  0  0  3  0  0  0  0  0  0
  161.1680  202.0060  148.3240 N   0  0  0  0  0  0  0  0  0  0  0  0
  161.0570  201.5200  147.1270 C   0  0  0  0  0  0  0  0  0  0  0  0
  161.5850  199.8300  146.8260 S   0  0  0  0  0  0  0  0  0  0  0  0
  160.4720  202.3190  146.0310 C   0  0  0  0  0  3  0  0  0  0  0  0
  160.1440  200.3040  144.5790 C   0  0  0  0  0  2  0  0  0  0  0  0
  160.1020  199.4580  145.8460 C   0  0  0  0  0  2  0  0  0  0  0  0
  163.3460  211.1010  148.9950 O   0  0  0  0  0  0  0  0  0  0  0  0
  162.1080  211.1440  148.7710 C   0  0  0  0  0  0  0  0  0  0  0  0
  161.5840  212.1100  147.8570 N   0  0  0  0  0  2  0  0  0  0  0  0
  161.5490  214.3570  148.7380 C   0  0  0  0  0  1  0  0  0  0  0  0
  162.1870  213.4250  147.7300 C   0  0  2  0  0  3  0  0  0  0  0  0
  161.9480  213.9630  146.3310 C   0  0  0  0  0  2  0  0  0  0  0  0
  162.0650  212.8210  145.3250 C   0  0  0  0  0  2  0  0  0  0  0  0
  162.3280  211.4920  140.9460 C   0  0  0  0  0  2  0  0  0  0  0  0
  160.2350  212.3270  143.6530 C   0  0  1  0  0  3  0  0  0  0  0  0
  161.7350  212.4400  141.6620 C   0  0  0  0  0  0  0  0  0  0  0  0
  159.9610  212.3950  141.8590 S   0  0  0  0  0  0  0  0  0  0  0  0
  161.4680  213.1710  143.9580 C   0  0  2  0  0  3  0  0  0  0  0  0
  159.0810  212.8730  144.3460 N   0  0  0  0  0  1  0  0  0  0  0  0
  162.4760  213.0070  142.8230 C   0  0  0  0  0  2  0  0  0  0  0  0
  161.6470  210.6140  153.8930 C   0  0  0  0  0  2  0  0  0  0  0  0
  161.3200  209.9480  155.2270 C   0  0  1  0  0  3  0  0  0  0  0  0
  160.9280  210.9740  156.2950 C   0  0  0  0  0  2  0  0  0  0  0  0
  159.4250  211.0060  156.5780 C   0  0  0  0  0  2  0  0  0  0  0  0
  158.9110  212.4370  156.5060 C   0  0  0  0  0  2  0  0  0  0  0  0
  157.8320  211.3960  154.6530 O   0  0  0  0  0  1  0  0  0  0  0  0
  157.9460  212.6010  155.3490 C   0  0  0  0  0  2  0  0  0  0  0  0
  160.2850  208.9820  155.0580 O   0  0  0  0  0  0  0  0  0  0  0  0
  160.4680  207.6230  155.3320 C   0  0  0  0  0  0  0  0  0  0  0  0
  159.8320  207.0470  156.3000 N   0  0  0  0  0  2  0  0  0  0  0  0
  160.7280  206.5280  153.2590 O   0  0  0  0  0  1  0  0  0  0  0  0
  161.3680  206.8120  154.4650 C   0  0  0  0  0  2  0  0  0  0  0  0
  1  2  1  0  0  0  0
  2 36  1  0  0  0  0
  3 23  1  6  0  0  0
  3  7  1  0  0  0  0
  4  1  1  0  0  0  0
  5  6  2  0  0  0  0
  6  3  1  0  0  0  0
  6  4  1  0  0  0  0
  7  1  2  0  0  0  0
  8 13  1  0  0  0  0
  8 10  1  0  0  0  0
  9  8  2  0  0  0  0
 11 12  1  0  0  0  0
 12  5  1  0  0  0  0
 12 13  2  0  0  0  0
 14 11  2  0  0  0  0
 14  9  1  0  0  0  0
 15 19  2  0  0  0  0
 16 10  1  0  0  0  0
 17 16  2  0  0  0  0
 18 17  1  0  0  0  0
 19 17  1  0  0  0  0
 20 15  1  0  0  0  0
 20 21  1  0  0  0  0
 21 18  1  0  0  0  0
 23 22  2  0  0  0  0
 24 23  1  0  0  0  0
 26 24  1  0  0  0  0
 26 25  1  1  0  0  0
 27 26  1  0  0  0  0
 28 27  1  0  0  0  0
 29 31  2  0  0  0  0
 30 33  1  0  0  0  0
 30 34  1  1  0  0  0
 31 32  1  0  0  0  0
 31 35  1  0  0  0  0
 32 30  1  0  0  0  0
 33 28  1  1  0  0  0
 35 33  1  0  0  0  0
 37 36  1  6  0  0  0
 37 38  1  0  0  0  0
 38 39  1  0  0  0  0
 40 39  1  0  0  0  0
 41 42  1  0  0  0  0
 42 40  1  0  0  0  0
 43 37  1  0  0  0  0
 43 44  1  0  0  0  0
 44 45  2  0  0  0  0
 46 47  1  0  0  0  0
 47 44  1  0  0  0  0
M  END
>  <MODEL>
8

>  <REMARK>
 VINA RESULT:      -3.4      3.406      9.490
  Name = 
  16 active torsions:
  status: ('A' for Active; 'I' for Inactive)
    1  A    between atoms: C_1  and  O_15
    2  A    between atoms: C_1  and  C_32
    3  A    between atoms: C_3  and  C_10
    4  A    between atoms: C_3  and  C_41
    5  A    between atoms: N_5  and  N_26
    6  A    between atoms: C_6  and  C_14
    7  A    between atoms: C_6  and  C_22
    8  A    between atoms: C_10  and  O_15
    9  A    between atoms: C_10  and  C_33
   10  A    between atoms: N_12  and  C_33
   11  A    between atoms: C_14  and  C_38
   12  A    between atoms: C_16  and  C_23
   13  A    between atoms: C_18  and  C_41
   14  A    between atoms: C_18  and  C_47
   15  A    between atoms: C_22  and  N_25
   16  A    between atoms: N_34  and  C_37
                            x       y       z     vdW  Elec       q    Type
                         _______ _______ _______ _____ _____    ______ ____

>  <TORSDO>
F 16

$$$$
=
 OpenBabel11042421413D

 47 50  0  0  1  0  0  0  0  0999 V2000
  161.8320  206.6260  148.8880 C   0  0  0  0  0  0  0  0  0  0  0  0
  162.0520  205.3370  148.3100 N   0  0  0  0  0  2  0  0  0  0  0  0
  160.9930  208.1560  150.4260 C   0  0  1  0  0  3  0  0  0  0  0  0
  162.5670  208.0890  148.1770 S   0  0  0  0  0  0  0  0  0  0  0  0
  161.2280  210.2630  149.2400 N   0  0  0  0  0  0  0  0  0  0  0  0
  161.5130  208.9940  149.3090 C   0  0  0  0  0  0  0  0  0  0  0  0
  161.0980  206.7850  149.9440 N   0  0  0  0  0  0  0  0  0  0  0  0
  161.3710  212.5060  146.2300 C   0  0  0  0  0  0  0  0  0  0  0  0
  162.5870  213.0860  146.4310 N   0  0  0  0  0  0  0  0  0  0  0  0
  160.5890  212.8390  145.0840 N   0  0  0  0  0  2  0  0  0  0  0  0
  162.8840  211.8690  148.4590 C   0  0  0  0  0  3  0  0  0  0  0  0
  161.6490  211.2410  148.2720 C   0  0  0  0  0  0  0  0  0  0  0  0
  160.8830  211.5740  147.1490 C   0  0  0  0  0  3  0  0  0  0  0  0
  163.3430  212.7950  147.5190 C   0  0  0  0  0  3  0  0  0  0  0  0
  161.1380  211.4260  141.2590 C   0  0  0  0  0  3  0  0  0  0  0  0
  161.0920  213.6890  144.0880 N   0  0  0  0  0  0  0  0  0  0  0  0
  161.1920  213.3150  142.8500 C   0  0  0  0  0  0  0  0  0  0  0  0
  161.9010  214.4530  141.6560 S   0  0  0  0  0  0  0  0  0  0  0  0
  160.7710  211.9630  142.4260 C   0  0  0  0  0  3  0  0  0  0  0  0
  161.9940  212.1380  140.2460 C   0  0  0  0  0  2  0  0  0  0  0  0
  162.9220  213.1520  140.9040 C   0  0  0  0  0  2  0  0  0  0  0  0
  162.5160  207.3800  152.0950 O   0  0  0  0  0  0  0  0  0  0  0  0
  161.8820  208.3590  151.6200 C   0  0  0  0  0  0  0  0  0  0  0  0
  161.9240  209.6240  152.2860 N   0  0  0  0  0  2  0  0  0  0  0  0
  161.3400  208.4890  154.3350 C   0  0  0  0  0  1  0  0  0  0  0  0
  162.0110  209.7050  153.7330 C   0  0  2  0  0  3  0  0  0  0  0  0
  161.3030  210.9570  154.2170 C   0  0  0  0  0  2  0  0  0  0  0  0
  161.4830  211.0870  155.7270 C   0  0  0  0  0  2  0  0  0  0  0  0
  158.3810  214.4530  155.4880 C   0  0  0  0  0  2  0  0  0  0  0  0
  158.9570  210.9900  155.7750 C   0  0  1  0  0  3  0  0  0  0  0  0
  158.6650  213.4190  156.2710 C   0  0  0  0  0  0  0  0  0  0  0  0
  157.5550  212.0210  156.2950 S   0  0  0  0  0  0  0  0  0  0  0  0
  160.2090  211.5570  156.4380 C   0  0  2  0  0  3  0  0  0  0  0  0
  158.7470  209.6200  156.2110 N   0  0  0  0  0  1  0  0  0  0  0  0
  160.0980  213.0790  156.4890 C   0  0  0  0  0  2  0  0  0  0  0  0
  161.2780  204.1560  148.6710 C   0  0  0  0  0  2  0  0  0  0  0  0
  160.8970  203.3600  147.4250 C   0  0  1  0  0  3  0  0  0  0  0  0
  161.2600  204.1080  146.1390 C   0  0  0  0  0  2  0  0  0  0  0  0
  160.0870  204.8860  145.5410 C   0  0  0  0  0  2  0  0  0  0  0  0
  160.6040  206.0410  144.6940 C   0  0  0  0  0  2  0  0  0  0  0  0
  161.4980  205.8930  142.4890 O   0  0  0  0  0  1  0  0  0  0  0  0
  161.7630  205.5910  143.8260 C   0  0  0  0  0  2  0  0  0  0  0  0
  161.5160  202.0770  147.4490 O   0  0  0  0  0  0  0  0  0  0  0  0
  161.2120  201.1080  148.4120 C   0  0  0  0  0  0  0  0  0  0  0  0
  161.5540  199.8720  148.2450 N   0  0  0  0  0  2  0  0  0  0  0  0
  159.3730  200.7530  149.8460 O   0  0  0  0  0  1  0  0  0  0  0  0
  160.5300  201.5140  149.6720 C   0  0  0  0  0  2  0  0  0  0  0  0
  1  7  2  0  0  0  0
  2 36  1  0  0  0  0
  2  1  1  0  0  0  0
  3 23  1  1  0  0  0
  4  1  1  0  0  0  0
  4  6  1  0  0  0  0
  5  6  2  0  0  0  0
  6  3  1  0  0  0  0
  7  3  1  0  0  0  0
  8  9  2  0  0  0  0
  8 13  1  0  0  0  0
  9 14  1  0  0  0  0
 10  8  1  0  0  0  0
 12 11  1  0  0  0  0
 12  5  1  0  0  0  0
 13 12  2  0  0  0  0
 14 11  2  0  0  0  0
 15 19  2  0  0  0  0
 16 10  1  0  0  0  0
 17 16  2  0  0  0  0
 18 17  1  0  0  0  0
 19 17  1  0  0  0  0
 20 21  1  0  0  0  0
 20 15  1  0  0  0  0
 21 18  1  0  0  0  0
 23 22  2  0  0  0  0
 23 24  1  0  0  0  0
 24 26  1  0  0  0  0
 26 27  1  0  0  0  0
 26 25  1  1  0  0  0
 27 28  1  0  0  0  0
 29 31  2  0  0  0  0
 30 34  1  1  0  0  0
 30 32  1  0  0  0  0
 30 33  1  0  0  0  0
 31 32  1  0  0  0  0
 31 35  1  0  0  0  0
 33 28  1  6  0  0  0
 33 35  1  0  0  0  0
 37 38  1  6  0  0  0
 37 43  1  0  0  0  0
 37 36  1  0  0  0  0
 39 38  1  0  0  0  0
 40 39  1  0  0  0  0
 41 42  1  0  0  0  0
 42 40  1  0  0  0  0
 43 44  1  0  0  0  0
 44 47  1  0  0  0  0
 45 44  2  0  0  0  0
 47 46  1  0  0  0  0
M  END
>  <MODEL>
9

>  <REMARK>
 VINA RESULT:      -3.4      2.539      8.805
  Name = 
  16 active torsions:
  status: ('A' for Active; 'I' for Inactive)
    1  A    between atoms: C_1  and  O_15
    2  A    between atoms: C_1  and  C_32
    3  A    between atoms: C_3  and  C_10
    4  A    between atoms: C_3  and  C_41
    5  A    between atoms: N_5  and  N_26
    6  A    between atoms: C_6  and  C_14
    7  A    between atoms: C_6  and  C_22
    8  A    between atoms: C_10  and  O_15
    9  A    between atoms: C_10  and  C_33
   10  A    between atoms: N_12  and  C_33
   11  A    between atoms: C_14  and  C_38
   12  A    between atoms: C_16  and  C_23
   13  A    between atoms: C_18  and  C_41
   14  A    between atoms: C_18  and  C_47
   15  A    between atoms: C_22  and  N_25
   16  A    between atoms: N_34  and  C_37
                            x       y       z     vdW  Elec       q    Type
                         _______ _______ _______ _____ _____    ______ ____

>  <TORSDO>
F 16

$$$$
