=
 OpenBabel11052411173D

 27 29  0  0  1  0  0  0  0  0999 V2000
  161.2900  205.9280  149.0180 C   0  0  0  0  0  0  0  0  0  0  0  0
  161.2610  206.2630  150.3370 N   0  0  0  0  0  0  0  0  0  0  0  0
  161.6560  209.1580  152.5600 C   0  0  0  0  0  3  0  0  0  0  0  0
  161.7280  208.5620  149.8210 C   0  0  0  0  0  0  0  0  0  0  0  0
  161.9060  210.1690  151.6300 C   0  0  0  0  0  3  0  0  0  0  0  0
  161.4720  207.5380  150.7660 C   0  0  0  0  0  0  0  0  0  0  0  0
  161.9450  209.8820  150.2630 C   0  0  0  0  0  0  0  0  0  0  0  0
  161.5420  206.9080  148.0570 C   0  0  0  0  0  3  0  0  0  0  0  0
  161.7590  208.2250  148.4610 C   0  0  0  0  0  3  0  0  0  0  0  0
  161.4380  207.8450  152.1370 C   0  0  0  0  0  0  0  0  0  0  0  0
  162.4180  211.8250  148.6020 N   0  0  0  0  0  0  0  0  0  0  0  0
  162.2070  210.9590  149.3410 C   0  0  0  0  0  0  0  0  0  0  0  0
  160.9810  206.0090  153.9180 N   0  0  0  0  0  0  0  0  0  0  0  0
  161.1860  206.8270  153.1250 C   0  0  0  0  0  0  0  0  0  0  0  0
  161.0630  204.5120  148.5840 C   0  0  2  0  0  3  0  0  0  0  0  0
  161.0480  203.5530  149.7330 C   0  0  0  0  0  0  0  0  0  0  0  0
  161.2710  202.7210  151.6600 N   0  0  0  0  0  0  0  0  0  0  0  0
  161.4060  203.8550  150.9940 N   0  0  0  0  0  0  0  0  0  0  0  0
  160.8540  201.7670  150.8420 N   0  0  0  0  0  0  0  0  0  0  0  0
  160.7070  202.2570  149.6220 N   0  0  0  0  0  2  0  0  0  0  0  0
  162.0090  204.0720  147.4640 C   0  0  0  0  0  2  0  0  0  0  0  0
  161.3040  203.9260  146.1960 N   0  0  0  0  0  0  0  0  0  0  0  0
  161.2160  202.5940  145.9650 O   0  0  0  0  0  1  0  0  0  0  0  0
  162.1410  204.4970  145.1410 C   0  0  2  0  0  3  0  0  0  0  0  0
  163.2630  205.1060  145.6810 F   0  0  0  0  0  0  0  0  0  0  0  0
  161.3590  205.5230  144.3260 C   0  0  0  0  0  2  0  0  0  0  0  0
  160.1770  205.9590  145.0530 N   0  0  0  0  0  1  0  0  0  0  0  0
  1  2  1  0  0  0  0
  2  6  2  0  0  0  0
  4  7  1  0  0  0  0
  4  6  1  0  0  0  0
  5  3  1  0  0  0  0
  6 10  1  0  0  0  0
  7  5  2  0  0  0  0
  8  9  1  0  0  0  0
  8  1  2  0  0  0  0
  9  4  2  0  0  0  0
 10  3  2  0  0  0  0
 10 14  1  0  0  0  0
 11 12  3  0  0  0  0
 12  7  1  0  0  0  0
 14 13  3  0  0  0  0
 15 21  1  6  0  0  0
 15  1  1  0  0  0  0
 15 16  1  0  0  0  0
 16 18  2  0  0  0  0
 18 17  1  0  0  0  0
 19 17  2  0  0  0  0
 20 16  1  0  0  0  0
 20 19  1  0  0  0  0
 22 21  1  0  0  0  0
 23 22  1  0  0  0  0
 24 25  1  1  0  0  0
 24 22  1  0  0  0  0
 26 27  1  0  0  0  0
 26 24  1  0  0  0  0
M  END
>  <MODEL>
1

>  <REMARK>
 VINA RESULT:      -8.2      0.000      0.000
  Name = 
  8 active torsions:
  status: ('A' for Active; 'I' for Inactive)
    1  A    between atoms: C_1  and  C_10
    2  A    between atoms: C_7  and  C_10
    3  A    between atoms: C_10  and  C_21
    4  A    between atoms: C_11  and  C_15
    5  A    between atoms: N_12  and  C_15
    6  A    between atoms: N_12  and  C_21
    7  A    between atoms: C_18  and  C_26
    8  A    between atoms: C_19  and  C_27
                            x       y       z     vdW  Elec       q    Type
                         _______ _______ _______ _____ _____    ______ ____

>  <TORSDO>
F 8

$$$$
=
 OpenBabel11052411173D

 27 29  0  0  1  0  0  0  0  0999 V2000
  161.1650  207.1880  152.8050 C   0  0  0  0  0  0  0  0  0  0  0  0
  161.3100  207.4490  151.4770 N   0  0  0  0  0  0  0  0  0  0  0  0
  161.4450  205.7490  148.2260 C   0  0  0  0  0  3  0  0  0  0  0  0
  161.1330  205.1150  150.9390 C   0  0  0  0  0  0  0  0  0  0  0  0
  161.2770  204.4200  148.6190 C   0  0  0  0  0  3  0  0  0  0  0  0
  161.3000  206.4630  150.5380 C   0  0  0  0  0  0  0  0  0  0  0  0
  161.1210  204.0930  149.9690 C   0  0  0  0  0  0  0  0  0  0  0  0
  160.9990  205.8710  153.2400 C   0  0  0  0  0  3  0  0  0  0  0  0
  160.9820  204.8370  152.3050 C   0  0  0  0  0  3  0  0  0  0  0  0
  161.4580  206.7730  149.1760 C   0  0  0  0  0  0  0  0  0  0  0  0
  160.8150  201.5940  150.6130 N   0  0  0  0  0  0  0  0  0  0  0  0
  160.9510  202.7070  150.3260 C   0  0  0  0  0  0  0  0  0  0  0  0
  161.7830  209.2240  148.3790 N   0  0  0  0  0  0  0  0  0  0  0  0
  161.6370  208.1320  148.7340 C   0  0  0  0  0  0  0  0  0  0  0  0
  161.1900  208.2980  153.8100 C   0  0  2  0  0  3  0  0  0  0  0  0
  160.8920  207.8240  155.1990 C   0  0  0  0  0  0  0  0  0  0  0  0
  159.8920  207.0420  156.8860 N   0  0  0  0  0  0  0  0  0  0  0  0
  159.7270  207.2820  155.5960 N   0  0  0  0  0  0  0  0  0  0  0  0
  161.1030  207.4250  157.2610 N   0  0  0  0  0  0  0  0  0  0  0  0
  161.7570  207.9230  156.2240 N   0  0  0  0  0  2  0  0  0  0  0  0
  160.3250  209.4920  153.4010 C   0  0  0  0  0  2  0  0  0  0  0  0
  161.0850  210.7370  153.4330 N   0  0  0  0  0  0  0  0  0  0  0  0
  162.3880  210.3810  153.5320 O   0  0  0  0  0  1  0  0  0  0  0  0
  160.7350  211.4530  154.6600 C   0  0  2  0  0  3  0  0  0  0  0  0
  161.5990  211.1130  155.6890 F   0  0  0  0  0  0  0  0  0  0  0  0
  159.3040  211.1340  155.0830 C   0  0  0  0  0  2  0  0  0  0  0  0
  159.2490  210.8270  156.5050 N   0  0  0  0  0  1  0  0  0  0  0  0
  1  8  1  0  0  0  0
  1 15  1  0  0  0  0
  2  1  2  0  0  0  0
  3  5  2  0  0  0  0
  3 10  1  0  0  0  0
  4  9  1  0  0  0  0
  5  7  1  0  0  0  0
  6  4  1  0  0  0  0
  6  2  1  0  0  0  0
  7 12  1  0  0  0  0
  7  4  2  0  0  0  0
  9  8  2  0  0  0  0
 10  6  2  0  0  0  0
 12 11  3  0  0  0  0
 13 14  3  0  0  0  0
 14 10  1  0  0  0  0
 15 21  1  6  0  0  0
 15 16  1  0  0  0  0
 16 18  2  0  0  0  0
 16 20  1  0  0  0  0
 17 19  2  0  0  0  0
 18 17  1  0  0  0  0
 20 19  1  0  0  0  0
 21 22  1  0  0  0  0
 22 23  1  0  0  0  0
 22 24  1  0  0  0  0
 24 26  1  0  0  0  0
 24 25  1  1  0  0  0
 26 27  1  0  0  0  0
M  END
>  <MODEL>
2

>  <REMARK>
 VINA RESULT:      -7.8      3.918      7.809
  Name = 
  8 active torsions:
  status: ('A' for Active; 'I' for Inactive)
    1  A    between atoms: C_1  and  C_10
    2  A    between atoms: C_7  and  C_10
    3  A    between atoms: C_10  and  C_21
    4  A    between atoms: C_11  and  C_15
    5  A    between atoms: N_12  and  C_15
    6  A    between atoms: N_12  and  C_21
    7  A    between atoms: C_18  and  C_26
    8  A    between atoms: C_19  and  C_27
                            x       y       z     vdW  Elec       q    Type
                         _______ _______ _______ _____ _____    ______ ____

>  <TORSDO>
F 8

$$$$
=
 OpenBabel11052411173D

 27 29  0  0  1  0  0  0  0  0999 V2000
  161.9950  207.7430  149.3340 C   0  0  0  0  0  0  0  0  0  0  0  0
  161.7280  206.7700  150.2470 N   0  0  0  0  0  0  0  0  0  0  0  0
  160.9450  203.1890  150.4620 C   0  0  0  0  0  3  0  0  0  0  0  0
  161.4920  205.1270  148.5110 C   0  0  0  0  0  0  0  0  0  0  0  0
  160.9620  202.8370  149.1120 C   0  0  0  0  0  3  0  0  0  0  0  0
  161.4770  205.4820  149.8820 C   0  0  0  0  0  0  0  0  0  0  0  0
  161.2330  203.7950  148.1310 C   0  0  0  0  0  0  0  0  0  0  0  0
  162.0170  207.4330  147.9730 C   0  0  0  0  0  3  0  0  0  0  0  0
  161.7660  206.1240  147.5640 C   0  0  0  0  0  3  0  0  0  0  0  0
  161.2000  204.5050  150.8540 C   0  0  0  0  0  0  0  0  0  0  0  0
  161.2430  203.0520  145.6400 N   0  0  0  0  0  0  0  0  0  0  0  0
  161.2390  203.3830  146.7500 C   0  0  0  0  0  0  0  0  0  0  0  0
  161.1500  205.0960  153.3840 N   0  0  0  0  0  0  0  0  0  0  0  0
  161.1710  204.8340  152.2570 C   0  0  0  0  0  0  0  0  0  0  0  0
  162.2590  209.1520  149.7730 C   0  0  2  0  0  3  0  0  0  0  0  0
  161.8130  209.4090  151.1790 C   0  0  0  0  0  0  0  0  0  0  0  0
  161.7840  210.0260  153.1970 N   0  0  0  0  0  0  0  0  0  0  0  0
  162.5380  210.0530  152.1110 N   0  0  0  0  0  0  0  0  0  0  0  0
  160.6520  209.3900  152.9410 N   0  0  0  0  0  0  0  0  0  0  0  0
  160.6400  208.9870  151.6810 N   0  0  0  0  0  2  0  0  0  0  0  0
  161.7240  210.1930  148.7870 C   0  0  0  0  0  2  0  0  0  0  0  0
  162.2440  211.5230  149.0820 N   0  0  0  0  0  0  0  0  0  0  0  0
  161.1670  212.2930  149.3690 O   0  0  0  0  0  1  0  0  0  0  0  0
  162.8480  212.0570  147.8620 C   0  0  2  0  0  3  0  0  0  0  0  0
  164.1110  212.5660  148.1230 F   0  0  0  0  0  0  0  0  0  0  0  0
  161.9790  213.1610  147.2650 C   0  0  0  0  0  2  0  0  0  0  0  0
  162.1670  213.2350  145.8240 N   0  0  0  0  0  1  0  0  0  0  0  0
  1 15  1  0  0  0  0
  1  2  1  0  0  0  0
  3 10  2  0  0  0  0
  4  6  1  0  0  0  0
  5  3  1  0  0  0  0
  6  2  2  0  0  0  0
  6 10  1  0  0  0  0
  7  4  1  0  0  0  0
  7  5  2  0  0  0  0
  8  1  2  0  0  0  0
  9  8  1  0  0  0  0
  9  4  2  0  0  0  0
 10 14  1  0  0  0  0
 11 12  3  0  0  0  0
 12  7  1  0  0  0  0
 14 13  3  0  0  0  0
 15 21  1  6  0  0  0
 15 16  1  0  0  0  0
 16 20  1  0  0  0  0
 16 18  2  0  0  0  0
 18 17  1  0  0  0  0
 19 17  2  0  0  0  0
 20 19  1  0  0  0  0
 21 22  1  0  0  0  0
 22 23  1  0  0  0  0
 24 25  1  1  0  0  0
 24 22  1  0  0  0  0
 26 24  1  0  0  0  0
 27 26  1  0  0  0  0
M  END
>  <MODEL>
3

>  <REMARK>
 VINA RESULT:      -7.7      3.146      6.318
  Name = 
  8 active torsions:
  status: ('A' for Active; 'I' for Inactive)
    1  A    between atoms: C_1  and  C_10
    2  A    between atoms: C_7  and  C_10
    3  A    between atoms: C_10  and  C_21
    4  A    between atoms: C_11  and  C_15
    5  A    between atoms: N_12  and  C_15
    6  A    between atoms: N_12  and  C_21
    7  A    between atoms: C_18  and  C_26
    8  A    between atoms: C_19  and  C_27
                            x       y       z     vdW  Elec       q    Type
                         _______ _______ _______ _____ _____    ______ ____

>  <TORSDO>
F 8

$$$$
=
 OpenBabel11052411173D

 27 29  0  0  1  0  0  0  0  0999 V2000
  161.1760  207.1430  152.8070 C   0  0  0  0  0  0  0  0  0  0  0  0
  161.3110  207.4240  151.4810 N   0  0  0  0  0  0  0  0  0  0  0  0
  161.4270  205.7710  148.2050 C   0  0  0  0  0  3  0  0  0  0  0  0
  161.1350  205.0980  150.9110 C   0  0  0  0  0  0  0  0  0  0  0  0
  161.2650  204.4360  148.5800 C   0  0  0  0  0  3  0  0  0  0  0  0
  161.2970  206.4510  150.5280 C   0  0  0  0  0  0  0  0  0  0  0  0
  161.1180  204.0900  149.9270 C   0  0  0  0  0  0  0  0  0  0  0  0
  161.0160  205.8200  153.2240 C   0  0  0  0  0  3  0  0  0  0  0  0
  160.9940  204.7990  152.2740 C   0  0  0  0  0  3  0  0  0  0  0  0
  161.4440  206.7810  149.1700 C   0  0  0  0  0  0  0  0  0  0  0  0
  160.8220  201.5800  150.5360 N   0  0  0  0  0  0  0  0  0  0  0  0
  160.9540  202.6980  150.2640 C   0  0  0  0  0  0  0  0  0  0  0  0
  161.7540  209.2450  148.4080 N   0  0  0  0  0  0  0  0  0  0  0  0
  161.6170  208.1470  148.7460 C   0  0  0  0  0  0  0  0  0  0  0  0
  161.2050  208.2380  153.8280 C   0  0  2  0  0  3  0  0  0  0  0  0
  160.8800  207.7500  155.2050 C   0  0  0  0  0  0  0  0  0  0  0  0
  159.8380  206.9750  156.8700 N   0  0  0  0  0  0  0  0  0  0  0  0
  159.6920  207.2450  155.5840 N   0  0  0  0  0  0  0  0  0  0  0  0
  161.0590  207.3060  157.2610 N   0  0  0  0  0  0  0  0  0  0  0  0
  161.7390  207.7980  156.2380 N   0  0  0  0  0  2  0  0  0  0  0  0
  160.3670  209.4530  153.4230 C   0  0  0  0  0  2  0  0  0  0  0  0
  161.1980  210.6370  153.2390 N   0  0  0  0  0  0  0  0  0  0  0  0
  162.1440  210.5880  154.2080 O   0  0  0  0  0  1  0  0  0  0  0  0
  160.3730  211.8180  153.4960 C   0  0  2  0  0  3  0  0  0  0  0  0
  160.2240  212.0240  154.8590 F   0  0  0  0  0  0  0  0  0  0  0  0
  158.9940  211.6640  152.8610 C   0  0  0  0  0  2  0  0  0  0  0  0
  158.8650  212.5370  151.7040 N   0  0  0  0  0  1  0  0  0  0  0  0
  1  8  1  0  0  0  0
  1 15  1  0  0  0  0
  2  1  2  0  0  0  0
  3  5  2  0  0  0  0
  3 10  1  0  0  0  0
  4  9  1  0  0  0  0
  5  7  1  0  0  0  0
  6  4  1  0  0  0  0
  6  2  1  0  0  0  0
  7 12  1  0  0  0  0
  7  4  2  0  0  0  0
  9  8  2  0  0  0  0
 10  6  2  0  0  0  0
 12 11  3  0  0  0  0
 13 14  3  0  0  0  0
 14 10  1  0  0  0  0
 15 21  1  6  0  0  0
 15 16  1  0  0  0  0
 16 18  2  0  0  0  0
 16 20  1  0  0  0  0
 17 19  2  0  0  0  0
 18 17  1  0  0  0  0
 20 19  1  0  0  0  0
 22 21  1  0  0  0  0
 22 24  1  0  0  0  0
 22 23  1  0  0  0  0
 24 25  1  1  0  0  0
 26 24  1  0  0  0  0
 27 26  1  0  0  0  0
M  END
>  <MODEL>
4

>  <REMARK>
 VINA RESULT:      -7.6      3.910      7.545
  Name = 
  8 active torsions:
  status: ('A' for Active; 'I' for Inactive)
    1  A    between atoms: C_1  and  C_10
    2  A    between atoms: C_7  and  C_10
    3  A    between atoms: C_10  and  C_21
    4  A    between atoms: C_11  and  C_15
    5  A    between atoms: N_12  and  C_15
    6  A    between atoms: N_12  and  C_21
    7  A    between atoms: C_18  and  C_26
    8  A    between atoms: C_19  and  C_27
                            x       y       z     vdW  Elec       q    Type
                         _______ _______ _______ _____ _____    ______ ____

>  <TORSDO>
F 8

$$$$
=
 OpenBabel11052411173D

 27 29  0  0  1  0  0  0  0  0999 V2000
  161.0290  205.6960  149.9750 C   0  0  0  0  0  0  0  0  0  0  0  0
  161.3290  207.0220  149.9140 N   0  0  0  0  0  0  0  0  0  0  0  0
  161.7270  209.9650  152.0720 C   0  0  0  0  0  3  0  0  0  0  0  0
  161.1060  207.2400  152.2950 C   0  0  0  0  0  0  0  0  0  0  0  0
  161.4650  209.4080  153.3250 C   0  0  0  0  0  3  0  0  0  0  0  0
  161.3750  207.8070  151.0260 C   0  0  0  0  0  0  0  0  0  0  0  0
  161.1540  208.0500  153.4470 C   0  0  0  0  0  0  0  0  0  0  0  0
  160.7560  205.1000  151.2080 C   0  0  0  0  0  3  0  0  0  0  0  0
  160.7970  205.8750  152.3670 C   0  0  0  0  0  3  0  0  0  0  0  0
  161.6840  209.1750  150.9220 C   0  0  0  0  0  0  0  0  0  0  0  0
  160.6790  207.0950  155.8170 N   0  0  0  0  0  0  0  0  0  0  0  0
  160.8910  207.5210  154.7620 C   0  0  0  0  0  0  0  0  0  0  0  0
  162.1730  210.2740  148.6190 N   0  0  0  0  0  0  0  0  0  0  0  0
  161.9560  209.7850  149.6450 C   0  0  0  0  0  0  0  0  0  0  0  0
  160.9790  204.8650  148.7290 C   0  0  2  0  0  3  0  0  0  0  0  0
  160.9390  203.3960  149.0170 C   0  0  0  0  0  0  0  0  0  0  0  0
  161.1110  201.3030  148.8150 N   0  0  0  0  0  2  0  0  0  0  0  0
  161.3550  202.4340  148.1750 N   0  0  0  0  0  0  0  0  0  0  0  0
  160.5660  201.5630  149.9930 N   0  0  0  0  0  0  0  0  0  0  0  0
  160.4420  202.8700  150.1500 N   0  0  0  0  0  0  0  0  0  0  0  0
  162.0700  205.2360  147.7210 C   0  0  0  0  0  2  0  0  0  0  0  0
  161.5820  206.1930  146.7350 N   0  0  0  0  0  0  0  0  0  0  0  0
  160.2310  206.1800  146.8330 O   0  0  0  0  0  1  0  0  0  0  0  0
  161.9270  205.6920  145.4040 C   0  0  2  0  0  3  0  0  0  0  0  0
  160.9390  206.0170  144.4870 F   0  0  0  0  0  0  0  0  0  0  0  0
  162.1090  204.1770  145.4260 C   0  0  0  0  0  2  0  0  0  0  0  0
  160.9230  203.5140  144.9060 N   0  0  0  0  0  1  0  0  0  0  0  0
  1  8  1  0  0  0  0
  2  1  2  0  0  0  0
  2  6  1  0  0  0  0
  3  5  1  0  0  0  0
  4  9  1  0  0  0  0
  4  7  1  0  0  0  0
  5  7  2  0  0  0  0
  6  4  2  0  0  0  0
  7 12  1  0  0  0  0
  8  9  2  0  0  0  0
 10  6  1  0  0  0  0
 10  3  2  0  0  0  0
 12 11  3  0  0  0  0
 13 14  3  0  0  0  0
 14 10  1  0  0  0  0
 15 21  1  6  0  0  0
 15 16  1  0  0  0  0
 15  1  1  0  0  0  0
 16 20  1  0  0  0  0
 17 19  1  0  0  0  0
 18 17  1  0  0  0  0
 18 16  2  0  0  0  0
 19 20  2  0  0  0  0
 22 23  1  0  0  0  0
 22 21  1  0  0  0  0
 24 25  1  6  0  0  0
 24 26  1  0  0  0  0
 24 22  1  0  0  0  0
 27 26  1  0  0  0  0
M  END
>  <MODEL>
5

>  <REMARK>
 VINA RESULT:      -7.3      1.517      3.445
  Name = 
  8 active torsions:
  status: ('A' for Active; 'I' for Inactive)
    1  A    between atoms: C_1  and  C_10
    2  A    between atoms: C_7  and  C_10
    3  A    between atoms: C_10  and  C_21
    4  A    between atoms: C_11  and  C_15
    5  A    between atoms: N_12  and  C_15
    6  A    between atoms: N_12  and  C_21
    7  A    between atoms: C_18  and  C_26
    8  A    between atoms: C_19  and  C_27
                            x       y       z     vdW  Elec       q    Type
                         _______ _______ _______ _____ _____    ______ ____

>  <TORSDO>
F 8

$$$$
=
 OpenBabel11052411173D

 27 29  0  0  1  0  0  0  0  0999 V2000
  161.6210  205.5710  148.4980 C   0  0  0  0  0  0  0  0  0  0  0  0
  161.4030  205.1800  149.7840 N   0  0  0  0  0  0  0  0  0  0  0  0
  161.0320  206.5550  153.1680 C   0  0  0  0  0  3  0  0  0  0  0  0
  161.4780  207.4550  150.5500 C   0  0  0  0  0  0  0  0  0  0  0  0
  161.1770  207.9200  152.9120 C   0  0  0  0  0  3  0  0  0  0  0  0
  161.3280  206.0710  150.8110 C   0  0  0  0  0  0  0  0  0  0  0  0
  161.3990  208.3790  151.6110 C   0  0  0  0  0  0  0  0  0  0  0  0
  161.7750  206.9270  148.2010 C   0  0  0  0  0  3  0  0  0  0  0  0
  161.7020  207.8670  149.2290 C   0  0  0  0  0  3  0  0  0  0  0  0
  161.1070  205.6270  152.1260 C   0  0  0  0  0  0  0  0  0  0  0  0
  161.6570  210.9360  151.2250 N   0  0  0  0  0  0  0  0  0  0  0  0
  161.5420  209.7970  151.3970 C   0  0  0  0  0  0  0  0  0  0  0  0
  160.8360  203.1010  152.6670 N   0  0  0  0  0  0  0  0  0  0  0  0
  160.9560  204.2270  152.4280 C   0  0  0  0  0  0  0  0  0  0  0  0
  161.7060  204.5610  147.3950 C   0  0  2  0  0  3  0  0  0  0  0  0
  161.3690  205.1410  146.0570 C   0  0  0  0  0  0  0  0  0  0  0  0
  160.3780  206.1740  144.5050 N   0  0  0  0  0  0  0  0  0  0  0  0
  160.3020  205.9200  145.8000 N   0  0  0  0  0  0  0  0  0  0  0  0
  161.4410  205.5740  143.9920 N   0  0  0  0  0  0  0  0  0  0  0  0
  162.0840  204.9140  144.9420 N   0  0  0  0  0  2  0  0  0  0  0  0
  160.9210  203.2830  147.6960 C   0  0  0  0  0  2  0  0  0  0  0  0
  161.4640  202.1400  146.9710 N   0  0  0  0  0  0  0  0  0  0  0  0
  160.5430  201.8180  146.0310 O   0  0  0  0  0  1  0  0  0  0  0  0
  161.5520  201.0120  147.8990 C   0  0  2  0  0  3  0  0  0  0  0  0
  161.4000  199.8100  147.2240 F   0  0  0  0  0  0  0  0  0  0  0  0
  160.4810  201.1150  148.9800 C   0  0  0  0  0  2  0  0  0  0  0  0
  161.0690  200.9390  150.2990 N   0  0  0  0  0  1  0  0  0  0  0  0
  1  2  1  0  0  0  0
  2  6  2  0  0  0  0
  4  6  1  0  0  0  0
  4  7  1  0  0  0  0
  5  3  1  0  0  0  0
  6 10  1  0  0  0  0
  7  5  2  0  0  0  0
  8  1  2  0  0  0  0
  8  9  1  0  0  0  0
  9  4  2  0  0  0  0
 10 14  1  0  0  0  0
 10  3  2  0  0  0  0
 11 12  3  0  0  0  0
 12  7  1  0  0  0  0
 14 13  3  0  0  0  0
 15 21  1  1  0  0  0
 15  1  1  0  0  0  0
 16 15  1  0  0  0  0
 17 18  1  0  0  0  0
 18 16  2  0  0  0  0
 19 17  2  0  0  0  0
 19 20  1  0  0  0  0
 20 16  1  0  0  0  0
 22 21  1  0  0  0  0
 22 24  1  0  0  0  0
 23 22  1  0  0  0  0
 24 25  1  6  0  0  0
 24 26  1  0  0  0  0
 26 27  1  0  0  0  0
M  END
>  <MODEL>
6

>  <REMARK>
 VINA RESULT:      -7.3      1.861      3.971
  Name = 
  8 active torsions:
  status: ('A' for Active; 'I' for Inactive)
    1  A    between atoms: C_1  and  C_10
    2  A    between atoms: C_7  and  C_10
    3  A    between atoms: C_10  and  C_21
    4  A    between atoms: C_11  and  C_15
    5  A    between atoms: N_12  and  C_15
    6  A    between atoms: N_12  and  C_21
    7  A    between atoms: C_18  and  C_26
    8  A    between atoms: C_19  and  C_27
                            x       y       z     vdW  Elec       q    Type
                         _______ _______ _______ _____ _____    ______ ____

>  <TORSDO>
F 8

$$$$
=
 OpenBabel11052411173D

 27 29  0  0  1  0  0  0  0  0999 V2000
  161.8020  206.1080  148.5510 C   0  0  0  0  0  0  0  0  0  0  0  0
  161.6490  206.2300  149.8980 N   0  0  0  0  0  0  0  0  0  0  0  0
  161.4890  208.7760  152.5390 C   0  0  0  0  0  3  0  0  0  0  0  0
  161.8060  208.6220  149.7570 C   0  0  0  0  0  0  0  0  0  0  0  0
  161.6430  209.9410  151.7870 C   0  0  0  0  0  3  0  0  0  0  0  0
  161.6460  207.4410  150.5210 C   0  0  0  0  0  0  0  0  0  0  0  0
  161.8020  209.8760  150.3990 C   0  0  0  0  0  0  0  0  0  0  0  0
  161.9640  207.2490  147.7640 C   0  0  0  0  0  3  0  0  0  0  0  0
  161.9640  208.5050  148.3690 C   0  0  0  0  0  3  0  0  0  0  0  0
  161.4890  207.5250  151.9160 C   0  0  0  0  0  0  0  0  0  0  0  0
  162.0840  212.0960  149.0780 N   0  0  0  0  0  0  0  0  0  0  0  0
  161.9590  211.1070  149.6660 C   0  0  0  0  0  0  0  0  0  0  0  0
  161.2060  205.3930  153.3730 N   0  0  0  0  0  0  0  0  0  0  0  0
  161.3310  206.3430  152.7240 C   0  0  0  0  0  0  0  0  0  0  0  0
  161.8090  204.7580  147.9010 C   0  0  2  0  0  3  0  0  0  0  0  0
  161.6480  204.8340  146.4150 C   0  0  0  0  0  0  0  0  0  0  0  0
  162.0250  204.7000  144.3430 N   0  0  0  0  0  0  0  0  0  0  0  0
  162.5610  204.4180  145.5180 N   0  0  0  0  0  0  0  0  0  0  0  0
  160.8410  205.2660  144.5130 N   0  0  0  0  0  0  0  0  0  0  0  0
  160.5750  205.3670  145.8050 N   0  0  0  0  0  2  0  0  0  0  0  0
  160.8260  203.7800  148.5490 C   0  0  0  0  0  2  0  0  0  0  0  0
  161.3020  202.4050  148.4570 N   0  0  0  0  0  0  0  0  0  0  0  0
  160.6990  201.8680  147.3690 O   0  0  0  0  0  1  0  0  0  0  0  0
  160.8170  201.6740  149.6280 C   0  0  2  0  0  3  0  0  0  0  0  0
  159.5520  201.1570  149.3930 F   0  0  0  0  0  0  0  0  0  0  0  0
  160.7640  202.5860  150.8510 C   0  0  0  0  0  2  0  0  0  0  0  0
  161.9800  202.4520  151.6390 N   0  0  0  0  0  1  0  0  0  0  0  0
  1  2  1  0  0  0  0
  2  6  2  0  0  0  0
  4  7  1  0  0  0  0
  4  6  1  0  0  0  0
  5  3  1  0  0  0  0
  6 10  1  0  0  0  0
  7  5  2  0  0  0  0
  8  9  1  0  0  0  0
  8  1  2  0  0  0  0
  9  4  2  0  0  0  0
 10  3  2  0  0  0  0
 10 14  1  0  0  0  0
 11 12  3  0  0  0  0
 12  7  1  0  0  0  0
 14 13  3  0  0  0  0
 15 21  1  1  0  0  0
 15  1  1  0  0  0  0
 16 15  1  0  0  0  0
 17 19  2  0  0  0  0
 17 18  1  0  0  0  0
 18 16  2  0  0  0  0
 19 20  1  0  0  0  0
 20 16  1  0  0  0  0
 22 21  1  0  0  0  0
 22 24  1  0  0  0  0
 23 22  1  0  0  0  0
 24 25  1  6  0  0  0
 24 26  1  0  0  0  0
 26 27  1  0  0  0  0
M  END
>  <MODEL>
7

>  <REMARK>
 VINA RESULT:      -7.2      1.611      3.754
  Name = 
  8 active torsions:
  status: ('A' for Active; 'I' for Inactive)
    1  A    between atoms: C_1  and  C_10
    2  A    between atoms: C_7  and  C_10
    3  A    between atoms: C_10  and  C_21
    4  A    between atoms: C_11  and  C_15
    5  A    between atoms: N_12  and  C_15
    6  A    between atoms: N_12  and  C_21
    7  A    between atoms: C_18  and  C_26
    8  A    between atoms: C_19  and  C_27
                            x       y       z     vdW  Elec       q    Type
                         _______ _______ _______ _____ _____    ______ ____

>  <TORSDO>
F 8

$$$$
=
 OpenBabel11052411173D

 27 29  0  0  1  0  0  0  0  0999 V2000
  161.1890  205.2150  150.8330 C   0  0  0  0  0  0  0  0  0  0  0  0
  161.4350  206.5360  150.6150 N   0  0  0  0  0  0  0  0  0  0  0  0
  161.6470  209.7360  152.4010 C   0  0  0  0  0  3  0  0  0  0  0  0
  161.1330  207.0340  152.9450 C   0  0  0  0  0  0  0  0  0  0  0  0
  161.3710  209.3250  153.7060 C   0  0  0  0  0  3  0  0  0  0  0  0
  161.4150  207.4520  151.6220 C   0  0  0  0  0  0  0  0  0  0  0  0
  161.1130  207.9810  153.9890 C   0  0  0  0  0  0  0  0  0  0  0  0
  160.9040  204.7640  152.1230 C   0  0  0  0  0  3  0  0  0  0  0  0
  160.8780  205.6750  153.1780 C   0  0  0  0  0  3  0  0  0  0  0  0
  161.6710  208.8090  151.3570 C   0  0  0  0  0  0  0  0  0  0  0  0
  160.6090  207.3040  156.4470 N   0  0  0  0  0  0  0  0  0  0  0  0
  160.8330  207.6050  155.3520 C   0  0  0  0  0  0  0  0  0  0  0  0
  162.1850  209.6420  148.9500 N   0  0  0  0  0  0  0  0  0  0  0  0
  161.9550  209.2700  150.0220 C   0  0  0  0  0  0  0  0  0  0  0  0
  161.2100  204.2360  149.6980 C   0  0  2  0  0  3  0  0  0  0  0  0
  161.3050  204.9050  148.3620 C   0  0  0  0  0  0  0  0  0  0  0  0
  161.9780  205.4850  146.4480 N   0  0  0  0  0  0  0  0  0  0  0  0
  162.2600  204.6650  147.4460 N   0  0  0  0  0  0  0  0  0  0  0  0
  160.9030  206.1980  146.7440 N   0  0  0  0  0  0  0  0  0  0  0  0
  160.4560  205.8590  147.9420 N   0  0  0  0  0  2  0  0  0  0  0  0
  160.0680  203.2200  149.7660 C   0  0  0  0  0  2  0  0  0  0  0  0
  160.5660  201.8510  149.6870 N   0  0  0  0  0  0  0  0  0  0  0  0
  161.5830  201.7680  150.5770 O   0  0  0  0  0  1  0  0  0  0  0  0
  161.1360  201.6500  148.3550 C   0  0  2  0  0  3  0  0  0  0  0  0
  160.2110  201.9700  147.3720 F   0  0  0  0  0  0  0  0  0  0  0  0
  161.5810  200.2020  148.1690 C   0  0  0  0  0  2  0  0  0  0  0  0
  161.5280  199.8280  146.7640 N   0  0  0  0  0  1  0  0  0  0  0  0
  1  8  1  0  0  0  0
  2  1  2  0  0  0  0
  2  6  1  0  0  0  0
  3  5  1  0  0  0  0
  4  9  1  0  0  0  0
  4  7  1  0  0  0  0
  5  7  2  0  0  0  0
  6  4  2  0  0  0  0
  7 12  1  0  0  0  0
  8  9  2  0  0  0  0
 10  6  1  0  0  0  0
 10  3  2  0  0  0  0
 12 11  3  0  0  0  0
 13 14  3  0  0  0  0
 14 10  1  0  0  0  0
 15 21  1  6  0  0  0
 15  1  1  0  0  0  0
 16 15  1  0  0  0  0
 17 19  2  0  0  0  0
 17 18  1  0  0  0  0
 18 16  2  0  0  0  0
 19 20  1  0  0  0  0
 20 16  1  0  0  0  0
 22 21  1  0  0  0  0
 22 23  1  0  0  0  0
 24 25  1  6  0  0  0
 24 22  1  0  0  0  0
 26 24  1  0  0  0  0
 27 26  1  0  0  0  0
M  END
>  <MODEL>
8

>  <REMARK>
 VINA RESULT:      -7.2      2.213      4.580
  Name = 
  8 active torsions:
  status: ('A' for Active; 'I' for Inactive)
    1  A    between atoms: C_1  and  C_10
    2  A    between atoms: C_7  and  C_10
    3  A    between atoms: C_10  and  C_21
    4  A    between atoms: C_11  and  C_15
    5  A    between atoms: N_12  and  C_15
    6  A    between atoms: N_12  and  C_21
    7  A    between atoms: C_18  and  C_26
    8  A    between atoms: C_19  and  C_27
                            x       y       z     vdW  Elec       q    Type
                         _______ _______ _______ _____ _____    ______ ____

>  <TORSDO>
F 8

$$$$
=
 OpenBabel11052411173D

 27 29  0  0  1  0  0  0  0  0999 V2000
  161.8640  206.6350  149.4440 C   0  0  0  0  0  0  0  0  0  0  0  0
  161.5870  205.3020  149.4920 N   0  0  0  0  0  0  0  0  0  0  0  0
  160.9280  202.4380  147.2920 C   0  0  0  0  0  3  0  0  0  0  0  0
  161.4990  205.1760  147.0950 C   0  0  0  0  0  0  0  0  0  0  0  0
  161.0260  203.0440  146.0380 C   0  0  0  0  0  3  0  0  0  0  0  0
  161.4030  204.5590  148.3660 C   0  0  0  0  0  0  0  0  0  0  0  0
  161.3100  204.4090  145.9290 C   0  0  0  0  0  0  0  0  0  0  0  0
  161.9650  207.2800  148.2090 C   0  0  0  0  0  3  0  0  0  0  0  0
  161.7840  206.5480  147.0370 C   0  0  0  0  0  3  0  0  0  0  0  0
  161.1150  203.1860  148.4570 C   0  0  0  0  0  0  0  0  0  0  0  0
  161.4730  205.4550  143.5550 N   0  0  0  0  0  0  0  0  0  0  0  0
  161.4000  204.9890  144.6120 C   0  0  0  0  0  0  0  0  0  0  0  0
  160.9160  201.9990  150.7590 N   0  0  0  0  0  0  0  0  0  0  0  0
  161.0030  202.5280  149.7330 C   0  0  0  0  0  0  0  0  0  0  0  0
  162.0520  207.4220  150.7040 C   0  0  2  0  0  3  0  0  0  0  0  0
  161.6140  206.6720  151.9230 C   0  0  0  0  0  0  0  0  0  0  0  0
  161.2220  205.1120  153.2900 N   0  0  0  0  0  0  0  0  0  0  0  0
  161.7730  205.3490  152.1120 N   0  0  0  0  0  0  0  0  0  0  0  0
  160.7440  206.2390  153.7960 N   0  0  0  0  0  0  0  0  0  0  0  0
  160.9730  207.2380  152.9600 N   0  0  0  0  0  2  0  0  0  0  0  0
  161.4430  208.8240  150.6270 C   0  0  0  0  0  2  0  0  0  0  0  0
  162.4310  209.8530  150.9320 N   0  0  0  0  0  0  0  0  0  0  0  0
  162.2620  210.1620  152.2400 O   0  0  0  0  0  1  0  0  0  0  0  0
  162.1000  211.0480  150.1560 C   0  0  2  0  0  3  0  0  0  0  0  0
  160.9220  211.6180  150.6140 F   0  0  0  0  0  0  0  0  0  0  0  0
  161.9480  210.7070  148.6760 C   0  0  0  0  0  2  0  0  0  0  0  0
  161.5970  211.8950  147.9130 N   0  0  0  0  0  1  0  0  0  0  0  0
  1  2  1  0  0  0  0
  1 15  1  0  0  0  0
  3 10  2  0  0  0  0
  4  6  1  0  0  0  0
  5  3  1  0  0  0  0
  6 10  1  0  0  0  0
  6  2  2  0  0  0  0
  7  5  2  0  0  0  0
  7  4  1  0  0  0  0
  8  1  2  0  0  0  0
  9  4  2  0  0  0  0
  9  8  1  0  0  0  0
 10 14  1  0  0  0  0
 11 12  3  0  0  0  0
 12  7  1  0  0  0  0
 14 13  3  0  0  0  0
 15 21  1  6  0  0  0
 15 16  1  0  0  0  0
 16 18  2  0  0  0  0
 16 20  1  0  0  0  0
 17 19  2  0  0  0  0
 18 17  1  0  0  0  0
 20 19  1  0  0  0  0
 21 22  1  0  0  0  0
 22 23  1  0  0  0  0
 24 25  1  1  0  0  0
 24 22  1  0  0  0  0
 26 24  1  0  0  0  0
 27 26  1  0  0  0  0
M  END
>  <MODEL>
9

>  <REMARK>
 VINA RESULT:      -7.2      2.819      6.058
  Name = 
  8 active torsions:
  status: ('A' for Active; 'I' for Inactive)
    1  A    between atoms: C_1  and  C_10
    2  A    between atoms: C_7  and  C_10
    3  A    between atoms: C_10  and  C_21
    4  A    between atoms: C_11  and  C_15
    5  A    between atoms: N_12  and  C_15
    6  A    between atoms: N_12  and  C_21
    7  A    between atoms: C_18  and  C_26
    8  A    between atoms: C_19  and  C_27
                            x       y       z     vdW  Elec       q    Type
                         _______ _______ _______ _____ _____    ______ ____

>  <TORSDO>
F 8

$$$$
