=
 OpenBabel11042422033D

 59 64  0  0  1  0  0  0  0  0999 V2000
  159.5870  213.6590  152.6500 C   0  0  0  0  0  3  0  0  0  0  0  0
  160.6750  212.0900  150.5850 C   0  0  0  0  0  0  0  0  0  0  0  0
  160.3790  213.9820  149.0680 C   0  0  0  0  0  3  0  0  0  0  0  0
  159.9580  212.3360  152.9110 C   0  0  0  0  0  0  0  0  0  0  0  0
  161.3210  211.9180  148.2480 C   0  0  0  0  0  3  0  0  0  0  0  0
  160.4980  211.5550  151.8730 C   0  0  0  0  0  3  0  0  0  0  0  0
  160.2660  213.4270  150.3410 C   0  0  0  0  0  0  0  0  0  0  0  0
  160.8940  213.2290  148.0150 C   0  0  0  0  0  0  0  0  0  0  0  0
  159.7370  214.2010  151.3750 C   0  0  0  0  0  3  0  0  0  0  0  0
  161.2290  211.3350  149.5160 C   0  0  0  0  0  0  0  0  0  0  0  0
  159.9990  207.9350  155.4510 C   0  0  0  0  0  3  0  0  0  0  0  0
  159.8410  212.8830  155.3650 C   0  0  0  0  0  2  0  0  0  0  0  0
  161.5790  209.3840  157.2440 C   0  0  0  0  0  3  0  0  0  0  0  0
  159.6770  209.2670  155.7320 C   0  0  0  0  0  0  0  0  0  0  0  0
  158.4670  210.9930  154.5090 C   0  0  0  0  0  0  0  0  0  0  0  0
  158.5120  209.8400  155.1190 N   0  0  0  0  0  0  0  0  0  0  0  0
  160.7040  212.4290  156.4520 N   0  0  0  0  0  2  0  0  0  0  0  0
  160.1010  211.3140  157.0540 N   0  0  0  0  0  2  0  0  0  0  0  0
  161.9080  208.0630  156.9310 C   0  0  0  0  0  3  0  0  0  0  0  0
  159.7180  211.8050  154.2980 C   0  0  1  0  0  3  0  0  0  0  0  0
  160.4620  209.9900  156.6570 C   0  0  0  0  0  0  0  0  0  0  0  0
  161.1150  207.3360  156.0400 C   0  0  0  0  0  3  0  0  0  0  0  0
  157.2400  211.5140  154.0950 O   0  0  0  0  0  0  0  0  0  0  0  0
  156.1970  211.8040  155.0110 C   0  0  0  0  0  1  0  0  0  0  0  0
  161.9180  209.1210  148.6000 C   0  0  0  0  0  3  0  0  0  0  0  0
  161.7520  209.9580  149.6140 C   0  0  0  0  0  3  0  0  0  0  0  0
  162.5540  206.9070  147.9210 C   0  0  0  0  0  0  0  0  0  0  0  0
  162.6730  206.0230  146.9690 C   0  0  0  0  0  3  0  0  0  0  0  0
  162.4300  207.7830  148.8770 C   0  0  0  0  0  3  0  0  0  0  0  0
  162.1580  204.6380  147.1610 C   0  0  2  0  0  3  0  0  0  0  0  0
  160.5040  205.1780  145.5290 O   0  0  0  0  0  0  0  0  0  0  0  0
  161.1840  204.2750  146.0810 C   0  0  0  0  0  0  0  0  0  0  0  0
  161.0150  202.9520  145.6930 O   0  0  0  0  0  1  0  0  0  0  0  0
  161.6320  204.4200  148.5910 C   0  0  2  0  0  3  0  0  0  0  0  0
  161.1010  203.0340  148.7780 C   0  0  0  0  0  0  0  0  0  0  0  0
  159.8870  202.8410  149.0570 O   0  0  0  0  0  1  0  0  0  0  0  0
  161.9560  201.9510  148.6410 O   0  0  0  0  0  0  0  0  0  0  0  0
  160.6150  205.4630  149.0580 C   0  0  0  0  0  2  0  0  0  0  0  0
  160.4080  206.9540  151.0670 C   0  0  0  0  0  1  0  0  0  0  0  0
  160.5240  205.5140  150.5790 C   0  0  2  0  0  3  0  0  0  0  0  0
  161.2140  203.6440  152.1090 C   0  0  0  0  0  1  0  0  0  0  0  0
  161.7020  204.7710  151.2190 C   0  0  0  0  0  3  0  0  0  0  0  0
  162.6240  205.6910  152.0060 C   0  0  0  0  0  1  0  0  0  0  0  0
  161.0240  213.8560  146.6620 C   0  0  1  0  0  3  0  0  0  0  0  0
  163.2270  214.1270  147.2220 O   0  0  0  0  0  0  0  0  0  0  0  0
  162.3300  214.4450  146.5010 N   0  0  0  0  0  0  0  0  0  0  0  0
  160.7350  212.6270  145.3490 S   0  0  0  0  0  0  0  0  0  0  0  0
  162.0500  213.2950  144.2820 C   0  0  0  0  0  2  0  0  0  0  0  0
  161.6340  213.2880  142.8150 C   0  0  0  0  0  2  0  0  0  0  0  0
  160.8350  212.1030  142.5030 N   0  0  0  0  0  2  0  0  0  0  0  0
  162.5000  212.0440  140.8290 O   0  0  0  0  0  1  0  0  0  0  0  0
  161.3730  211.3920  141.3380 C   0  0  2  0  0  3  0  0  0  0  0  0
  158.8150  212.2290  137.3520 C   0  0  0  0  0  3  0  0  0  0  0  0
  160.0930  211.5830  137.8020 C   0  0  0  0  0  2  0  0  0  0  0  0
  158.0540  212.0530  139.6760 C   0  0  0  0  0  2  0  0  0  0  0  0
  160.3230  211.2040  140.2530 C   0  0  2  0  0  3  0  0  0  0  0  0
  157.8450  212.4520  138.2430 C   0  0  0  0  0  3  0  0  0  0  0  0
  160.5780  212.1890  139.1260 C   0  0  2  0  0  3  0  0  0  0  0  0
  159.4580  212.4470  140.1570 C   0  0  1  0  0  3  0  0  0  0  0  0
  1  4  1  0  0  0  0
  2  6  1  0  0  0  0
  3  7  2  0  0  0  0
  5 10  1  0  0  0  0
  6  4  2  0  0  0  0
  7  2  1  0  0  0  0
  7  9  1  0  0  0  0
  8  5  2  0  0  0  0
  8  3  1  0  0  0  0
  9  1  2  0  0  0  0
 10 26  1  0  0  0  0
 10  2  2  0  0  0  0
 11 14  2  0  0  0  0
 11 22  1  0  0  0  0
 12 17  1  0  0  0  0
 14 21  1  0  0  0  0
 15 16  2  0  0  0  0
 16 14  1  0  0  0  0
 17 18  1  0  0  0  0
 19 13  1  0  0  0  0
 20  4  1  6  0  0  0
 20 15  1  0  0  0  0
 20 12  1  0  0  0  0
 21 18  1  0  0  0  0
 21 13  2  0  0  0  0
 22 19  2  0  0  0  0
 23 15  1  0  0  0  0
 23 24  1  0  0  0  0
 25 29  1  0  0  0  0
 25 26  2  0  0  0  0
 27 29  2  0  0  0  0
 28 27  2  0  0  0  0
 30 28  1  1  0  0  0
 30 34  1  0  0  0  0
 31 32  2  0  0  0  0
 32 30  1  0  0  0  0
 33 32  1  0  0  0  0
 34 35  1  0  0  0  0
 34 38  1  6  0  0  0
 35 36  1  0  0  0  0
 37 35  2  0  0  0  0
 38 40  1  0  0  0  0
 40 39  1  1  0  0  0
 40 42  1  0  0  0  0
 42 43  1  0  0  0  0
 42 41  1  0  0  0  0
 44 47  1  6  0  0  0
 44  8  1  0  0  0  0
 46 44  1  0  0  0  0
 46 45  2  0  0  0  0
 48 47  1  0  0  0  0
 49 48  1  0  0  0  0
 50 49  1  0  0  0  0
 52 51  1  6  0  0  0
 52 50  1  0  0  0  0
 53 54  1  0  0  0  0
 53 57  2  0  0  0  0
 56 52  1  1  0  0  0
 57 55  1  0  0  0  0
 58 54  1  6  0  0  0
 58 59  1  0  0  0  0
 58 56  1  0  0  0  0
 59 55  1  6  0  0  0
 59 56  1  0  0  0  0
M  END
>  <MODEL>
1

>  <REMARK>
 VINA RESULT:      -5.8      0.000      0.000
  Name = 
  19 active torsions:
  status: ('A' for Active; 'I' for Inactive)
    1  A    between atoms: C_4  and  C_53
    2  A    between atoms: C_6  and  C_37
    3  A    between atoms: N_8  and  C_43
    4  A    between atoms: N_8  and  C_58
    5  A    between atoms: C_9  and  C_32
    6  A    between atoms: C_9  and  C_53
    7  A    between atoms: C_14  and  O_18
    8  A    between atoms: C_16  and  C_46
    9  A    between atoms: C_17  and  C_54
   10  A    between atoms: S_21  and  C_28
   11  A    between atoms: S_21  and  C_31
   12  A    between atoms: C_27  and  C_58
   13  A    between atoms: C_28  and  C_35
   14  A    between atoms: C_28  and  N_36
   15  A    between atoms: C_31  and  C_43
   16  A    between atoms: C_32  and  C_52
   17  A    between atoms: C_34  and  C_37
   18  A    between atoms: C_37  and  C_53
   19  A    between atoms: C_42  and  C_59
                            x       y       z     vdW  Elec       q    Type
                         _______ _______ _______ _____ _____    ______ ____

>  <TORSDO>
F 19

$$$$
=
 OpenBabel11042422033D

 59 64  0  0  1  0  0  0  0  0999 V2000
  159.2720  213.9570  153.2260 C   0  0  0  0  0  3  0  0  0  0  0  0
  160.3910  212.1200  151.4140 C   0  0  0  0  0  0  0  0  0  0  0  0
  160.7530  213.9650  149.8530 C   0  0  0  0  0  3  0  0  0  0  0  0
  159.3230  212.6000  153.5620 C   0  0  0  0  0  0  0  0  0  0  0  0
  161.4060  211.7240  149.2410 C   0  0  0  0  0  3  0  0  0  0  0  0
  159.8800  211.6860  152.6500 C   0  0  0  0  0  3  0  0  0  0  0  0
  160.3020  213.4990  151.0870 C   0  0  0  0  0  0  0  0  0  0  0  0
  161.2940  213.0810  148.9220 C   0  0  0  0  0  0  0  0  0  0  0  0
  159.7560  214.4040  151.9970 C   0  0  0  0  0  3  0  0  0  0  0  0
  160.9720  211.2270  150.4740 C   0  0  0  0  0  0  0  0  0  0  0  0
  156.3390  214.4460  157.2370 C   0  0  0  0  0  3  0  0  0  0  0  0
  158.6930  210.6750  155.0560 C   0  0  0  0  0  2  0  0  0  0  0  0
  155.0010  212.0160  156.8930 C   0  0  0  0  0  3  0  0  0  0  0  0
  157.0770  213.2780  157.0190 C   0  0  0  0  0  0  0  0  0  0  0  0
  159.2980  212.8440  156.1160 C   0  0  0  0  0  0  0  0  0  0  0  0
  158.5110  213.3560  157.0210 N   0  0  0  0  0  0  0  0  0  0  0  0
  157.3680  210.2490  155.4990 N   0  0  0  0  0  2  0  0  0  0  0  0
  157.1220  210.8180  156.7570 N   0  0  0  0  0  2  0  0  0  0  0  0
  154.2750  213.1940  157.0800 C   0  0  0  0  0  3  0  0  0  0  0  0
  158.7350  212.1870  154.8830 C   0  0  1  0  0  3  0  0  0  0  0  0
  156.4000  212.0470  156.8700 C   0  0  0  0  0  0  0  0  0  0  0  0
  154.9420  214.4080  157.2600 C   0  0  0  0  0  3  0  0  0  0  0  0
  160.6810  212.8480  156.3120 O   0  0  0  0  0  0  0  0  0  0  0  0
  161.3600  211.7580  156.9120 C   0  0  0  0  0  1  0  0  0  0  0  0
  161.8150  209.2330  151.7110 C   0  0  0  0  0  3  0  0  0  0  0  0
  161.1880  209.7810  150.6800 C   0  0  0  0  0  3  0  0  0  0  0  0
  161.7720  207.0660  150.6760 C   0  0  0  0  0  0  0  0  0  0  0  0
  161.5790  206.3440  149.6070 C   0  0  0  0  0  3  0  0  0  0  0  0
  161.9600  207.7810  151.7480 C   0  0  0  0  0  3  0  0  0  0  0  0
  160.7200  205.1270  149.6680 C   0  0  2  0  0  3  0  0  0  0  0  0
  162.0010  204.2730  151.4900 O   0  0  0  0  0  0  0  0  0  0  0  0
  160.8580  204.4420  150.9940 C   0  0  0  0  0  0  0  0  0  0  0  0
  159.7380  203.9800  151.6750 O   0  0  0  0  0  1  0  0  0  0  0  0
  160.9440  204.2100  148.4530 C   0  0  2  0  0  3  0  0  0  0  0  0
  160.9810  202.7690  148.8490 C   0  0  0  0  0  0  0  0  0  0  0  0
  159.9570  202.0420  148.7370 O   0  0  0  0  0  0  0  0  0  0  0  0
  162.1580  202.2260  149.3430 O   0  0  0  0  0  1  0  0  0  0  0  0
  162.1600  204.5740  147.6000 C   0  0  0  0  0  2  0  0  0  0  0  0
  163.3180  204.2140  145.4010 C   0  0  0  0  0  1  0  0  0  0  0  0
  162.0040  204.0850  146.1650 C   0  0  2  0  0  3  0  0  0  0  0  0
  160.0540  203.8540  144.5960 C   0  0  0  0  0  1  0  0  0  0  0  0
  160.8480  204.8100  145.4670 C   0  0  0  0  0  3  0  0  0  0  0  0
  161.3090  206.0020  144.6410 C   0  0  0  0  0  1  0  0  0  0  0  0
  161.7890  213.6120  147.6120 C   0  0  1  0  0  3  0  0  0  0  0  0
  163.8910  212.7970  148.0090 O   0  0  0  0  0  0  0  0  0  0  0  0
  163.2270  213.7090  147.6180 N   0  0  0  0  0  0  0  0  0  0  0  0
  161.2460  212.5470  146.2370 S   0  0  0  0  0  0  0  0  0  0  0  0
  162.0380  213.5900  144.9720 C   0  0  0  0  0  2  0  0  0  0  0  0
  162.0120  212.9210  143.6020 C   0  0  0  0  0  2  0  0  0  0  0  0
  160.6730  212.4220  143.2890 N   0  0  0  0  0  2  0  0  0  0  0  0
  158.9820  212.3390  141.6420 O   0  0  0  0  0  1  0  0  0  0  0  0
  160.2660  212.8100  141.9350 C   0  0  2  0  0  3  0  0  0  0  0  0
  162.0730  211.6840  137.6210 C   0  0  0  0  0  3  0  0  0  0  0  0
  161.8640  212.8640  138.5250 C   0  0  0  0  0  2  0  0  0  0  0  0
  161.8050  210.2730  139.6090 C   0  0  0  0  0  2  0  0  0  0  0  0
  161.2630  212.3420  140.8850 C   0  0  2  0  0  3  0  0  0  0  0  0
  162.0450  210.4520  138.1360 C   0  0  0  0  0  3  0  0  0  0  0  0
  160.7050  212.6120  139.5000 C   0  0  2  0  0  3  0  0  0  0  0  0
  160.6720  211.1890  140.0970 C   0  0  1  0  0  3  0  0  0  0  0  0
  1  4  1  0  0  0  0
  2  6  1  0  0  0  0
  3  7  2  0  0  0  0
  5 10  1  0  0  0  0
  6  4  2  0  0  0  0
  7  2  1  0  0  0  0
  7  9  1  0  0  0  0
  8  5  2  0  0  0  0
  8  3  1  0  0  0  0
  9  1  2  0  0  0  0
 10 26  1  0  0  0  0
 10  2  2  0  0  0  0
 11 22  1  0  0  0  0
 12 17  1  0  0  0  0
 13 19  1  0  0  0  0
 14 16  1  0  0  0  0
 14 11  2  0  0  0  0
 15 23  1  0  0  0  0
 15 16  2  0  0  0  0
 17 18  1  0  0  0  0
 18 21  1  0  0  0  0
 19 22  2  0  0  0  0
 20  4  1  6  0  0  0
 20 12  1  0  0  0  0
 20 15  1  0  0  0  0
 21 13  2  0  0  0  0
 21 14  1  0  0  0  0
 23 24  1  0  0  0  0
 25 29  1  0  0  0  0
 26 25  2  0  0  0  0
 27 29  2  0  0  0  0
 28 27  2  0  0  0  0
 30 28  1  1  0  0  0
 30 32  1  0  0  0  0
 32 31  2  0  0  0  0
 32 33  1  0  0  0  0
 34 38  1  1  0  0  0
 34 35  1  0  0  0  0
 34 30  1  0  0  0  0
 35 37  1  0  0  0  0
 36 35  2  0  0  0  0
 40 39  1  6  0  0  0
 40 38  1  0  0  0  0
 41 42  1  0  0  0  0
 42 40  1  0  0  0  0
 43 42  1  0  0  0  0
 44 47  1  6  0  0  0
 44 46  1  0  0  0  0
 44  8  1  0  0  0  0
 46 45  2  0  0  0  0
 48 47  1  0  0  0  0
 49 48  1  0  0  0  0
 50 49  1  0  0  0  0
 52 51  1  6  0  0  0
 52 50  1  0  0  0  0
 53 57  2  0  0  0  0
 53 54  1  0  0  0  0
 56 52  1  1  0  0  0
 57 55  1  0  0  0  0
 58 54  1  6  0  0  0
 58 59  1  0  0  0  0
 58 56  1  0  0  0  0
 59 55  1  6  0  0  0
 59 56  1  0  0  0  0
M  END
>  <MODEL>
2

>  <REMARK>
 VINA RESULT:      -4.5      1.925      3.912
  Name = 
  19 active torsions:
  status: ('A' for Active; 'I' for Inactive)
    1  A    between atoms: C_4  and  C_53
    2  A    between atoms: C_6  and  C_37
    3  A    between atoms: N_8  and  C_43
    4  A    between atoms: N_8  and  C_58
    5  A    between atoms: C_9  and  C_32
    6  A    between atoms: C_9  and  C_53
    7  A    between atoms: C_14  and  O_18
    8  A    between atoms: C_16  and  C_46
    9  A    between atoms: C_17  and  C_54
   10  A    between atoms: S_21  and  C_28
   11  A    between atoms: S_21  and  C_31
   12  A    between atoms: C_27  and  C_58
   13  A    between atoms: C_28  and  C_35
   14  A    between atoms: C_28  and  N_36
   15  A    between atoms: C_31  and  C_43
   16  A    between atoms: C_32  and  C_52
   17  A    between atoms: C_34  and  C_37
   18  A    between atoms: C_37  and  C_53
   19  A    between atoms: C_42  and  C_59
                            x       y       z     vdW  Elec       q    Type
                         _______ _______ _______ _____ _____    ______ ____

>  <TORSDO>
F 19

$$$$
=
 OpenBabel11042422033D

 59 64  0  0  1  0  0  0  0  0999 V2000
  161.0230  204.9470  149.5460 C   0  0  0  0  0  3  0  0  0  0  0  0
  161.4000  207.6460  150.2400 C   0  0  0  0  0  0  0  0  0  0  0  0
  160.9310  207.0560  152.5640 C   0  0  0  0  0  3  0  0  0  0  0  0
  161.3110  205.8820  148.5470 C   0  0  0  0  0  0  0  0  0  0  0  0
  161.4260  209.3440  151.9790 C   0  0  0  0  0  3  0  0  0  0  0  0
  161.4950  207.2310  148.9000 C   0  0  0  0  0  3  0  0  0  0  0  0
  161.0810  206.6800  151.2300 C   0  0  0  0  0  0  0  0  0  0  0  0
  161.0890  208.3880  152.9420 C   0  0  0  0  0  0  0  0  0  0  0  0
  160.9060  205.3420  150.8780 C   0  0  0  0  0  3  0  0  0  0  0  0
  161.5920  208.9970  150.6340 C   0  0  0  0  0  0  0  0  0  0  0  0
  160.9990  201.5440  145.9200 C   0  0  0  0  0  3  0  0  0  0  0  0
  161.0850  206.4900  146.1150 C   0  0  0  0  0  2  0  0  0  0  0  0
  159.1660  203.0030  144.3970 C   0  0  0  0  0  3  0  0  0  0  0  0
  161.2570  202.8890  145.6330 C   0  0  0  0  0  0  0  0  0  0  0  0
  162.5930  204.6090  146.7260 C   0  0  0  0  0  0  0  0  0  0  0  0
  162.4850  203.4710  146.0980 N   0  0  0  0  0  0  0  0  0  0  0  0
  160.0890  206.0460  145.1430 N   0  0  0  0  0  2  0  0  0  0  0  0
  160.6230  204.9580  144.4350 N   0  0  0  0  0  2  0  0  0  0  0  0
  158.9040  201.6690  144.7160 C   0  0  0  0  0  3  0  0  0  0  0  0
  161.3700  205.3900  147.1260 C   0  0  1  0  0  3  0  0  0  0  0  0
  160.3420  203.6170  144.8420 C   0  0  0  0  0  0  0  0  0  0  0  0
  159.8240  200.9370  145.4710 C   0  0  0  0  0  3  0  0  0  0  0  0
  163.8570  205.1450  146.9840 O   0  0  0  0  0  0  0  0  0  0  0  0
  165.0490  204.4390  146.6840 C   0  0  0  0  0  1  0  0  0  0  0  0
  161.3210  210.4960  148.6600 C   0  0  0  0  0  3  0  0  0  0  0  0
  161.9810  210.1080  149.7420 C   0  0  0  0  0  3  0  0  0  0  0  0
  161.1440  212.6720  147.6600 C   0  0  0  0  0  0  0  0  0  0  0  0
  160.4320  213.7410  147.4330 C   0  0  0  0  0  3  0  0  0  0  0  0
  161.8570  211.6050  147.8770 C   0  0  0  0  0  3  0  0  0  0  0  0
  160.3320  214.2980  146.0550 C   0  0  2  0  0  3  0  0  0  0  0  0
  157.9840  213.9990  146.3540 O   0  0  0  0  0  1  0  0  0  0  0  0
  158.9230  214.2220  145.5480 C   0  0  0  0  0  0  0  0  0  0  0  0
  158.6450  214.3810  144.1960 O   0  0  0  0  0  0  0  0  0  0  0  0
  161.3800  213.6800  145.1130 C   0  0  2  0  0  3  0  0  0  0  0  0
  162.7610  214.1550  145.4370 C   0  0  0  0  0  0  0  0  0  0  0  0
  163.6230  214.2990  144.5290 O   0  0  0  0  0  0  0  0  0  0  0  0
  163.0940  214.4400  146.7530 O   0  0  0  0  0  1  0  0  0  0  0  0
  161.0780  213.8560  143.6240 C   0  0  0  0  0  2  0  0  0  0  0  0
  162.4690  213.8030  141.5350 C   0  0  0  0  0  1  0  0  0  0  0  0
  162.0120  213.0170  142.7600 C   0  0  2  0  0  3  0  0  0  0  0  0
  161.6520  211.3150  140.9470 C   0  0  0  0  0  1  0  0  0  0  0  0
  161.3580  211.6820  142.3890 C   0  0  0  0  0  3  0  0  0  0  0  0
  159.8550  211.6720  142.6310 C   0  0  0  0  0  1  0  0  0  0  0  0
  160.9420  208.7610  154.3850 C   0  0  1  0  0  3  0  0  0  0  0  0
  161.5270  207.8170  156.3870 O   0  0  0  0  0  0  0  0  0  0  0  0
  161.2850  207.6450  155.2310 N   0  0  0  0  0  0  0  0  0  0  0  0
  161.9940  210.1910  154.7930 S   0  0  0  0  0  0  0  0  0  0  0  0
  160.5980  211.3600  154.7790 C   0  0  0  0  0  2  0  0  0  0  0  0
  159.5330  210.9680  155.7970 C   0  0  0  0  0  2  0  0  0  0  0  0
  158.9930  212.1490  156.4720 N   0  0  0  0  0  2  0  0  0  0  0  0
  156.9740  211.0470  155.9350 O   0  0  0  0  0  1  0  0  0  0  0  0
  157.5530  212.2850  156.2310 C   0  0  2  0  0  3  0  0  0  0  0  0
  155.5570  214.2080  152.3000 C   0  0  0  0  0  3  0  0  0  0  0  0
  155.3070  214.0400  153.7700 C   0  0  0  0  0  2  0  0  0  0  0  0
  157.9190  213.7520  152.7770 C   0  0  0  0  0  2  0  0  0  0  0  0
  157.2540  213.2960  155.1330 C   0  0  2  0  0  3  0  0  0  0  0  0
  156.8000  214.0720  151.8270 C   0  0  0  0  0  3  0  0  0  0  0  0
  156.0630  212.8220  154.3210 C   0  0  2  0  0  3  0  0  0  0  0  0
  157.4990  212.6640  153.7760 C   0  0  1  0  0  3  0  0  0  0  0  0
  1  9  1  0  0  0  0
  2 10  1  0  0  0  0
  2  7  1  0  0  0  0
  3  8  2  0  0  0  0
  4  6  1  0  0  0  0
  4  1  2  0  0  0  0
  5  8  1  0  0  0  0
  6  2  2  0  0  0  0
  7  3  1  0  0  0  0
  8 44  1  0  0  0  0
  9  7  2  0  0  0  0
 10  5  2  0  0  0  0
 12 20  1  0  0  0  0
 13 19  2  0  0  0  0
 13 21  1  0  0  0  0
 14 11  1  0  0  0  0
 14 16  1  0  0  0  0
 15 23  1  0  0  0  0
 15 20  1  0  0  0  0
 16 15  2  0  0  0  0
 17 12  1  0  0  0  0
 18 21  1  0  0  0  0
 18 17  1  0  0  0  0
 19 22  1  0  0  0  0
 20  4  1  1  0  0  0
 21 14  2  0  0  0  0
 22 11  2  0  0  0  0
 24 23  1  0  0  0  0
 25 26  2  0  0  0  0
 26 10  1  0  0  0  0
 27 29  2  0  0  0  0
 28 27  2  0  0  0  0
 29 25  1  0  0  0  0
 30 28  1  1  0  0  0
 32 30  1  0  0  0  0
 32 31  1  0  0  0  0
 33 32  2  0  0  0  0
 34 38  1  6  0  0  0
 34 35  1  0  0  0  0
 34 30  1  0  0  0  0
 35 37  1  0  0  0  0
 36 35  2  0  0  0  0
 40 39  1  6  0  0  0
 40 38  1  0  0  0  0
 41 42  1  0  0  0  0
 42 43  1  0  0  0  0
 42 40  1  0  0  0  0
 44 47  1  1  0  0  0
 44 46  1  0  0  0  0
 46 45  2  0  0  0  0
 48 47  1  0  0  0  0
 48 49  1  0  0  0  0
 49 50  1  0  0  0  0
 52 51  1  6  0  0  0
 52 50  1  0  0  0  0
 53 54  1  0  0  0  0
 56 52  1  1  0  0  0
 57 53  2  0  0  0  0
 57 55  1  0  0  0  0
 58 54  1  6  0  0  0
 58 56  1  0  0  0  0
 59 55  1  6  0  0  0
 59 58  1  0  0  0  0
 59 56  1  0  0  0  0
M  END
>  <MODEL>
3

>  <REMARK>
 VINA RESULT:      -4.0      3.134     11.321
  Name = 
  19 active torsions:
  status: ('A' for Active; 'I' for Inactive)
    1  A    between atoms: C_4  and  C_53
    2  A    between atoms: C_6  and  C_37
    3  A    between atoms: N_8  and  C_43
    4  A    between atoms: N_8  and  C_58
    5  A    between atoms: C_9  and  C_32
    6  A    between atoms: C_9  and  C_53
    7  A    between atoms: C_14  and  O_18
    8  A    between atoms: C_16  and  C_46
    9  A    between atoms: C_17  and  C_54
   10  A    between atoms: S_21  and  C_28
   11  A    between atoms: S_21  and  C_31
   12  A    between atoms: C_27  and  C_58
   13  A    between atoms: C_28  and  C_35
   14  A    between atoms: C_28  and  N_36
   15  A    between atoms: C_31  and  C_43
   16  A    between atoms: C_32  and  C_52
   17  A    between atoms: C_34  and  C_37
   18  A    between atoms: C_37  and  C_53
   19  A    between atoms: C_42  and  C_59
                            x       y       z     vdW  Elec       q    Type
                         _______ _______ _______ _____ _____    ______ ____

>  <TORSDO>
F 19

$$$$
=
 OpenBabel11042422033D

 59 64  0  0  1  0  0  0  0  0999 V2000
  160.6720  206.8990  154.2990 C   0  0  0  0  0  3  0  0  0  0  0  0
  160.9950  207.2130  151.5220 C   0  0  0  0  0  0  0  0  0  0  0  0
  160.9240  204.7810  151.2960 C   0  0  0  0  0  3  0  0  0  0  0  0
  160.8190  208.1820  153.7620 C   0  0  0  0  0  0  0  0  0  0  0  0
  161.2060  206.1650  149.3400 C   0  0  0  0  0  3  0  0  0  0  0  0
  160.9840  208.3320  152.3740 C   0  0  0  0  0  3  0  0  0  0  0  0
  160.8710  205.9210  152.0970 C   0  0  0  0  0  0  0  0  0  0  0  0
  161.1040  204.8960  149.9190 C   0  0  0  0  0  0  0  0  0  0  0  0
  160.7000  205.7760  153.4740 C   0  0  0  0  0  3  0  0  0  0  0  0
  161.1470  207.3270  150.1150 C   0  0  0  0  0  0  0  0  0  0  0  0
  158.9500  212.8870  154.1960 C   0  0  0  0  0  3  0  0  0  0  0  0
  161.1920  208.9230  156.1380 C   0  0  0  0  0  2  0  0  0  0  0  0
  158.1600  211.9680  156.7140 C   0  0  0  0  0  3  0  0  0  0  0  0
  159.8100  212.0640  154.9310 C   0  0  0  0  0  0  0  0  0  0  0  0
  161.6210  210.5560  154.3110 C   0  0  0  0  0  0  0  0  0  0  0  0
  161.1000  211.7500  154.3830 N   0  0  0  0  0  0  0  0  0  0  0  0
  160.2330  209.4730  157.0930 N   0  0  0  0  0  2  0  0  0  0  0  0
  160.3150  210.8730  157.0390 N   0  0  0  0  0  2  0  0  0  0  0  0
  157.2960  212.7640  155.9580 C   0  0  0  0  0  3  0  0  0  0  0  0
  160.8310  209.3420  154.7200 C   0  0  1  0  0  3  0  0  0  0  0  0
  159.4200  211.6210  156.2130 C   0  0  0  0  0  0  0  0  0  0  0  0
  157.6940  213.2300  154.7020 C   0  0  0  0  0  3  0  0  0  0  0  0
  162.9480  210.3990  153.9040 O   0  0  0  0  0  0  0  0  0  0  0  0
  163.2940  210.1120  152.5600 C   0  0  0  0  0  1  0  0  0  0  0  0
  162.3300  209.0840  148.7990 C   0  0  0  0  0  3  0  0  0  0  0  0
  161.2340  208.5920  149.3580 C   0  0  0  0  0  3  0  0  0  0  0  0
  162.1670  211.4800  148.7670 C   0  0  0  0  0  0  0  0  0  0  0  0
  162.0820  212.6010  149.4270 C   0  0  0  0  0  3  0  0  0  0  0  0
  162.2450  210.3630  148.1020 C   0  0  0  0  0  3  0  0  0  0  0  0
  161.0550  213.6150  149.0560 C   0  0  2  0  0  3  0  0  0  0  0  0
  159.7270  214.2780  150.9240 O   0  0  0  0  0  1  0  0  0  0  0  0
  159.8490  213.5040  149.9400 C   0  0  0  0  0  0  0  0  0  0  0  0
  158.8730  212.5460  149.6930 O   0  0  0  0  0  0  0  0  0  0  0  0
  160.7430  213.5840  147.5490 C   0  0  2  0  0  3  0  0  0  0  0  0
  161.9510  213.9070  146.7290 C   0  0  0  0  0  0  0  0  0  0  0  0
  161.9640  213.6900  145.4880 O   0  0  0  0  0  0  0  0  0  0  0  0
  163.0680  214.4530  147.3440 O   0  0  0  0  0  1  0  0  0  0  0  0
  159.5510  214.4480  147.1310 C   0  0  0  0  0  2  0  0  0  0  0  0
  158.3600  214.1780  144.9370 C   0  0  0  0  0  1  0  0  0  0  0  0
  158.5190  213.6380  146.3560 C   0  0  2  0  0  3  0  0  0  0  0  0
  156.7100  212.1540  147.2720 C   0  0  0  0  0  1  0  0  0  0  0  0
  157.1880  213.5850  147.1150 C   0  0  0  0  0  3  0  0  0  0  0  0
  156.1010  214.4270  146.4630 C   0  0  0  0  0  1  0  0  0  0  0  0
  161.1380  203.6570  149.0800 C   0  0  1  0  0  3  0  0  0  0  0  0
  162.8220  204.2670  147.6550 O   0  0  0  0  0  0  0  0  0  0  0  0
  162.4360  203.4920  148.4760 N   0  0  0  0  0  0  0  0  0  0  0  0
  160.7300  202.1890  150.0800 S   0  0  0  0  0  0  0  0  0  0  0  0
  161.2670  201.0240  148.7870 C   0  0  0  0  0  2  0  0  0  0  0  0
  160.2770  200.9850  147.6270 C   0  0  0  0  0  2  0  0  0  0  0  0
  160.9520  201.2370  146.3540 N   0  0  0  0  0  2  0  0  0  0  0  0
  160.0470  200.6070  144.2650 O   0  0  0  0  0  1  0  0  0  0  0  0
  159.9880  201.5510  145.2950 C   0  0  2  0  0  3  0  0  0  0  0  0
  161.8510  205.9500  144.7360 C   0  0  0  0  0  3  0  0  0  0  0  0
  162.0560  204.5320  144.2870 C   0  0  0  0  0  2  0  0  0  0  0  0
  159.5660  205.2970  145.3400 C   0  0  0  0  0  2  0  0  0  0  0  0
  160.1820  202.9580  144.7480 C   0  0  2  0  0  3  0  0  0  0  0  0
  160.6670  206.3140  145.2360 C   0  0  0  0  0  3  0  0  0  0  0  0
  161.4670  203.5430  145.3030 C   0  0  2  0  0  3  0  0  0  0  0  0
  160.0990  203.9620  145.8810 C   0  0  1  0  0  3  0  0  0  0  0  0
  2  7  1  0  0  0  0
  2  6  1  0  0  0  0
  3  7  2  0  0  0  0
  4  1  1  0  0  0  0
  5  8  2  0  0  0  0
  5 10  1  0  0  0  0
  6  4  2  0  0  0  0
  7  9  1  0  0  0  0
  8  3  1  0  0  0  0
  9  1  2  0  0  0  0
 10  2  2  0  0  0  0
 11 22  2  0  0  0  0
 11 14  1  0  0  0  0
 12 17  1  0  0  0  0
 14 21  2  0  0  0  0
 15 16  2  0  0  0  0
 15 20  1  0  0  0  0
 16 14  1  0  0  0  0
 18 17  1  0  0  0  0
 19 13  2  0  0  0  0
 20  4  1  6  0  0  0
 20 12  1  0  0  0  0
 21 13  1  0  0  0  0
 21 18  1  0  0  0  0
 22 19  1  0  0  0  0
 23 15  1  0  0  0  0
 24 23  1  0  0  0  0
 25 26  2  0  0  0  0
 26 10  1  0  0  0  0
 27 28  2  0  0  0  0
 29 27  2  0  0  0  0
 29 25  1  0  0  0  0
 30 28  1  1  0  0  0
 30 32  1  0  0  0  0
 32 31  1  0  0  0  0
 33 32  2  0  0  0  0
 34 38  1  1  0  0  0
 34 30  1  0  0  0  0
 35 37  1  0  0  0  0
 35 34  1  0  0  0  0
 36 35  2  0  0  0  0
 40 39  1  6  0  0  0
 40 42  1  0  0  0  0
 40 38  1  0  0  0  0
 42 41  1  0  0  0  0
 43 42  1  0  0  0  0
 44 46  1  1  0  0  0
 44  8  1  0  0  0  0
 44 47  1  0  0  0  0
 45 46  2  0  0  0  0
 48 47  1  0  0  0  0
 49 48  1  0  0  0  0
 50 49  1  0  0  0  0
 52 51  1  6  0  0  0
 52 50  1  0  0  0  0
 53 57  2  0  0  0  0
 54 53  1  0  0  0  0
 56 52  1  1  0  0  0
 56 58  1  0  0  0  0
 56 59  1  0  0  0  0
 57 55  1  0  0  0  0
 58 54  1  6  0  0  0
 58 59  1  0  0  0  0
 59 55  1  6  0  0  0
M  END
>  <MODEL>
4

>  <REMARK>
 VINA RESULT:      -3.5      3.787      8.523
  Name = 
  19 active torsions:
  status: ('A' for Active; 'I' for Inactive)
    1  A    between atoms: C_4  and  C_53
    2  A    between atoms: C_6  and  C_37
    3  A    between atoms: N_8  and  C_43
    4  A    between atoms: N_8  and  C_58
    5  A    between atoms: C_9  and  C_32
    6  A    between atoms: C_9  and  C_53
    7  A    between atoms: C_14  and  O_18
    8  A    between atoms: C_16  and  C_46
    9  A    between atoms: C_17  and  C_54
   10  A    between atoms: S_21  and  C_28
   11  A    between atoms: S_21  and  C_31
   12  A    between atoms: C_27  and  C_58
   13  A    between atoms: C_28  and  C_35
   14  A    between atoms: C_28  and  N_36
   15  A    between atoms: C_31  and  C_43
   16  A    between atoms: C_32  and  C_52
   17  A    between atoms: C_34  and  C_37
   18  A    between atoms: C_37  and  C_53
   19  A    between atoms: C_42  and  C_59
                            x       y       z     vdW  Elec       q    Type
                         _______ _______ _______ _____ _____    ______ ____

>  <TORSDO>
F 19

$$$$
=
 OpenBabel11042422033D

 59 64  0  0  1  0  0  0  0  0999 V2000
  160.0080  213.7350  152.6270 C   0  0  0  0  0  3  0  0  0  0  0  0
  160.5530  211.9370  150.5340 C   0  0  0  0  0  0  0  0  0  0  0  0
  160.5960  213.8320  148.9920 C   0  0  0  0  0  3  0  0  0  0  0  0
  160.0810  212.3650  152.8960 C   0  0  0  0  0  0  0  0  0  0  0  0
  160.9720  211.5980  148.1640 C   0  0  0  0  0  3  0  0  0  0  0  0
  160.3490  211.4710  151.8450 C   0  0  0  0  0  3  0  0  0  0  0  0
  160.4480  213.3310  150.2840 C   0  0  0  0  0  0  0  0  0  0  0  0
  160.8450  212.9690  147.9270 C   0  0  0  0  0  0  0  0  0  0  0  0
  160.1880  214.2160  151.3310 C   0  0  0  0  0  3  0  0  0  0  0  0
  160.8380  211.0640  149.4500 C   0  0  0  0  0  0  0  0  0  0  0  0
  159.5050  208.0870  155.5760 C   0  0  0  0  0  3  0  0  0  0  0  0
  160.1800  212.9850  155.3330 C   0  0  0  0  0  2  0  0  0  0  0  0
  161.3950  209.2890  157.2470 C   0  0  0  0  0  3  0  0  0  0  0  0
  159.4270  209.4600  155.8270 C   0  0  0  0  0  0  0  0  0  0  0  0
  158.4660  211.3360  154.6040 C   0  0  0  0  0  0  0  0  0  0  0  0
  158.3470  210.2080  155.2490 N   0  0  0  0  0  0  0  0  0  0  0  0
  161.0080  212.4190  156.3950 N   0  0  0  0  0  2  0  0  0  0  0  0
  160.2560  211.4380  157.0600 N   0  0  0  0  0  2  0  0  0  0  0  0
  161.4800  207.9240  156.9640 C   0  0  0  0  0  3  0  0  0  0  0  0
  159.8240  211.9170  154.3090 C   0  0  1  0  0  3  0  0  0  0  0  0
  160.3680  210.0620  156.6920 C   0  0  0  0  0  0  0  0  0  0  0  0
  160.5320  207.3210  156.1340 C   0  0  0  0  0  3  0  0  0  0  0  0
  157.3250  212.0480  154.2280 O   0  0  0  0  0  0  0  0  0  0  0  0
  156.0300  211.6860  154.6760 C   0  0  0  0  0  1  0  0  0  0  0  0
  161.6770  208.8500  148.6680 C   0  0  0  0  0  3  0  0  0  0  0  0
  161.0340  209.6040  149.5480 C   0  0  0  0  0  3  0  0  0  0  0  0
  160.8270  206.7950  149.5740 C   0  0  0  0  0  0  0  0  0  0  0  0
  159.8980  206.1710  150.2450 C   0  0  0  0  0  3  0  0  0  0  0  0
  161.7610  207.4140  148.9100 C   0  0  0  0  0  3  0  0  0  0  0  0
  160.2670  205.2330  151.3420 C   0  0  2  0  0  3  0  0  0  0  0  0
  161.1620  205.7960  153.4810 O   0  0  0  0  0  1  0  0  0  0  0  0
  161.3120  205.8350  152.2330 C   0  0  0  0  0  0  0  0  0  0  0  0
  162.4370  206.4480  151.6940 O   0  0  0  0  0  0  0  0  0  0  0  0
  160.6210  203.8360  150.8020 C   0  0  2  0  0  3  0  0  0  0  0  0
  161.1470  202.9440  151.8810 C   0  0  0  0  0  0  0  0  0  0  0  0
  160.4560  202.6910  152.9040 O   0  0  0  0  0  1  0  0  0  0  0  0
  162.4120  202.3890  151.7520 O   0  0  0  0  0  0  0  0  0  0  0  0
  161.5590  203.8420  149.5930 C   0  0  0  0  0  2  0  0  0  0  0  0
  160.7600  201.6940  148.5700 C   0  0  0  0  0  1  0  0  0  0  0  0
  160.9060  203.2000  148.3760 C   0  0  2  0  0  3  0  0  0  0  0  0
  161.9840  205.0380  147.0440 C   0  0  0  0  0  1  0  0  0  0  0  0
  161.6730  203.5540  147.0970 C   0  0  0  0  0  3  0  0  0  0  0  0
  160.9410  203.1320  145.8310 C   0  0  0  0  0  1  0  0  0  0  0  0
  161.0190  213.5370  146.5520 C   0  0  1  0  0  3  0  0  0  0  0  0
  158.8540  213.9540  145.9390 O   0  0  0  0  0  0  0  0  0  0  0  0
  159.9190  214.4090  146.2230 N   0  0  0  0  0  0  0  0  0  0  0  0
  162.5910  214.4490  146.4250 S   0  0  0  0  0  0  0  0  0  0  0  0
  162.8130  214.0390  144.6640 C   0  0  0  0  0  2  0  0  0  0  0  0
  161.4720  213.8600  143.9610 C   0  0  0  0  0  2  0  0  0  0  0  0
  161.5830  214.1680  142.5350 N   0  0  0  0  0  2  0  0  0  0  0  0
  162.0370  212.4690  140.9580 O   0  0  0  0  0  1  0  0  0  0  0  0
  161.0350  213.0840  141.7140 C   0  0  2  0  0  3  0  0  0  0  0  0
  156.7820  213.1530  139.4670 C   0  0  0  0  0  3  0  0  0  0  0  0
  157.4140  213.5250  140.7770 C   0  0  0  0  0  2  0  0  0  0  0  0
  159.0410  213.1710  138.5150 C   0  0  0  0  0  2  0  0  0  0  0  0
  159.9040  213.5670  140.8170 C   0  0  2  0  0  3  0  0  0  0  0  0
  157.5550  212.9850  138.3910 C   0  0  0  0  0  3  0  0  0  0  0  0
  158.6800  212.6950  141.0320 C   0  0  2  0  0  3  0  0  0  0  0  0
  159.5750  212.5010  139.7900 C   0  0  1  0  0  3  0  0  0  0  0  0
  1  4  1  0  0  0  0
  2  6  1  0  0  0  0
  3  7  2  0  0  0  0
  5 10  1  0  0  0  0
  6  4  2  0  0  0  0
  7  2  1  0  0  0  0
  7  9  1  0  0  0  0
  8  5  2  0  0  0  0
  8  3  1  0  0  0  0
  9  1  2  0  0  0  0
 10 26  1  0  0  0  0
 10  2  2  0  0  0  0
 11 14  2  0  0  0  0
 11 22  1  0  0  0  0
 12 17  1  0  0  0  0
 14 21  1  0  0  0  0
 15 16  2  0  0  0  0
 16 14  1  0  0  0  0
 17 18  1  0  0  0  0
 19 13  1  0  0  0  0
 20  4  1  6  0  0  0
 20 15  1  0  0  0  0
 20 12  1  0  0  0  0
 21 18  1  0  0  0  0
 21 13  2  0  0  0  0
 22 19  2  0  0  0  0
 23 15  1  0  0  0  0
 23 24  1  0  0  0  0
 25 29  1  0  0  0  0
 25 26  2  0  0  0  0
 27 28  2  0  0  0  0
 29 27  2  0  0  0  0
 30 28  1  6  0  0  0
 30 32  1  0  0  0  0
 32 31  1  0  0  0  0
 33 32  2  0  0  0  0
 34 38  1  6  0  0  0
 34 30  1  0  0  0  0
 34 35  1  0  0  0  0
 35 36  1  0  0  0  0
 37 35  2  0  0  0  0
 40 39  1  1  0  0  0
 40 38  1  0  0  0  0
 41 42  1  0  0  0  0
 42 40  1  0  0  0  0
 43 42  1  0  0  0  0
 44 46  1  1  0  0  0
 44  8  1  0  0  0  0
 45 46  2  0  0  0  0
 47 44  1  0  0  0  0
 48 47  1  0  0  0  0
 49 48  1  0  0  0  0
 50 49  1  0  0  0  0
 52 51  1  6  0  0  0
 52 50  1  0  0  0  0
 53 54  1  0  0  0  0
 56 58  1  0  0  0  0
 56 52  1  1  0  0  0
 57 55  1  0  0  0  0
 57 53  2  0  0  0  0
 58 54  1  6  0  0  0
 59 55  1  6  0  0  0
 59 56  1  0  0  0  0
 59 58  1  0  0  0  0
M  END
>  <MODEL>
5

>  <REMARK>
 VINA RESULT:      -3.2      1.772      2.856
  Name = 
  19 active torsions:
  status: ('A' for Active; 'I' for Inactive)
    1  A    between atoms: C_4  and  C_53
    2  A    between atoms: C_6  and  C_37
    3  A    between atoms: N_8  and  C_43
    4  A    between atoms: N_8  and  C_58
    5  A    between atoms: C_9  and  C_32
    6  A    between atoms: C_9  and  C_53
    7  A    between atoms: C_14  and  O_18
    8  A    between atoms: C_16  and  C_46
    9  A    between atoms: C_17  and  C_54
   10  A    between atoms: S_21  and  C_28
   11  A    between atoms: S_21  and  C_31
   12  A    between atoms: C_27  and  C_58
   13  A    between atoms: C_28  and  C_35
   14  A    between atoms: C_28  and  N_36
   15  A    between atoms: C_31  and  C_43
   16  A    between atoms: C_32  and  C_52
   17  A    between atoms: C_34  and  C_37
   18  A    between atoms: C_37  and  C_53
   19  A    between atoms: C_42  and  C_59
                            x       y       z     vdW  Elec       q    Type
                         _______ _______ _______ _____ _____    ______ ____

>  <TORSDO>
F 19

$$$$
=
 OpenBabel11042422033D

 59 64  0  0  1  0  0  0  0  0999 V2000
  161.0630  204.9600  149.8170 C   0  0  0  0  0  3  0  0  0  0  0  0
  161.2220  207.5780  150.8340 C   0  0  0  0  0  0  0  0  0  0  0  0
  160.7780  206.6790  153.0630 C   0  0  0  0  0  3  0  0  0  0  0  0
  161.2860  206.0280  148.9430 C   0  0  0  0  0  0  0  0  0  0  0  0
  161.0980  209.0520  152.7630 C   0  0  0  0  0  3  0  0  0  0  0  0
  161.3600  207.3340  149.4560 C   0  0  0  0  0  3  0  0  0  0  0  0
  160.9700  206.4780  151.6970 C   0  0  0  0  0  0  0  0  0  0  0  0
  160.8290  207.9640  153.5990 C   0  0  0  0  0  0  0  0  0  0  0  0
  160.9030  205.1820  151.1840 C   0  0  0  0  0  3  0  0  0  0  0  0
  161.3030  208.8820  151.3900 C   0  0  0  0  0  0  0  0  0  0  0  0
  161.2060  202.0340  145.8020 C   0  0  0  0  0  3  0  0  0  0  0  0
  161.0910  206.9200  146.5970 C   0  0  0  0  0  2  0  0  0  0  0  0
  159.3500  203.6000  144.4170 C   0  0  0  0  0  3  0  0  0  0  0  0
  161.4160  203.4120  145.6870 C   0  0  0  0  0  0  0  0  0  0  0  0
  162.6580  205.0340  147.0160 C   0  0  0  0  0  0  0  0  0  0  0  0
  162.6090  203.9780  146.2510 N   0  0  0  0  0  0  0  0  0  0  0  0
  160.1360  206.5610  145.5520 N   0  0  0  0  0  2  0  0  0  0  0  0
  160.7280  205.5880  144.7320 N   0  0  0  0  0  2  0  0  0  0  0  0
  159.1350  202.2280  144.5650 C   0  0  0  0  0  3  0  0  0  0  0  0
  161.3960  205.7150  147.4750 C   0  0  1  0  0  3  0  0  0  0  0  0
  160.4910  204.1980  144.9660 C   0  0  0  0  0  0  0  0  0  0  0  0
  160.0660  201.4440  145.2510 C   0  0  0  0  0  3  0  0  0  0  0  0
  163.8940  205.5800  147.3710 O   0  0  0  0  0  0  0  0  0  0  0  0
  165.0890  204.8190  147.3440 C   0  0  0  0  0  1  0  0  0  0  0  0
  161.7640  210.2100  149.3300 C   0  0  0  0  0  3  0  0  0  0  0  0
  161.6120  210.1190  150.6440 C   0  0  0  0  0  3  0  0  0  0  0  0
  161.1940  212.4570  148.7020 C   0  0  0  0  0  0  0  0  0  0  0  0
  160.3020  213.4060  148.6400 C   0  0  0  0  0  3  0  0  0  0  0  0
  162.0880  211.5110  148.7540 C   0  0  0  0  0  3  0  0  0  0  0  0
  160.0940  214.1600  147.3720 C   0  0  2  0  0  3  0  0  0  0  0  0
  158.2330  214.4280  145.9030 O   0  0  0  0  0  0  0  0  0  0  0  0
  158.6330  214.3450  147.0930 C   0  0  0  0  0  0  0  0  0  0  0  0
  157.7170  214.4400  148.1340 O   0  0  0  0  0  1  0  0  0  0  0  0
  160.8900  213.5450  146.2070 C   0  0  2  0  0  3  0  0  0  0  0  0
  162.2750  214.1030  146.1300 C   0  0  0  0  0  0  0  0  0  0  0  0
  162.8340  214.2900  145.0160 O   0  0  0  0  0  0  0  0  0  0  0  0
  162.9500  214.4190  147.3000 O   0  0  0  0  0  1  0  0  0  0  0  0
  160.1910  213.6270  144.8480 C   0  0  0  0  0  2  0  0  0  0  0  0
  160.4330  211.1490  145.1740 C   0  0  0  0  0  1  0  0  0  0  0  0
  159.7670  212.2500  144.3530 C   0  0  2  0  0  3  0  0  0  0  0  0
  161.5260  212.0430  142.5700 C   0  0  0  0  0  1  0  0  0  0  0  0
  160.0370  212.1050  142.8510 C   0  0  0  0  0  3  0  0  0  0  0  0
  159.3990  213.2140  142.0260 C   0  0  0  0  0  1  0  0  0  0  0  0
  160.6400  208.1480  155.0730 C   0  0  1  0  0  3  0  0  0  0  0  0
  159.7300  206.9450  156.7950 O   0  0  0  0  0  0  0  0  0  0  0  0
  160.1340  206.9390  155.6720 N   0  0  0  0  0  0  0  0  0  0  0  0
  162.2070  208.6250  155.8700 S   0  0  0  0  0  0  0  0  0  0  0  0
  161.9390  210.4030  155.5840 C   0  0  0  0  0  2  0  0  0  0  0  0
  161.5180  211.1160  156.8640 C   0  0  0  0  0  2  0  0  0  0  0  0
  160.4370  212.0660  156.6030 N   0  0  0  0  0  2  0  0  0  0  0  0
  160.4220  212.2100  154.2450 O   0  0  0  0  0  1  0  0  0  0  0  0
  159.7280  211.7350  155.3630 C   0  0  2  0  0  3  0  0  0  0  0  0
  155.6860  213.7850  156.9770 C   0  0  0  0  0  3  0  0  0  0  0  0
  157.0080  214.1410  156.3620 C   0  0  0  0  0  2  0  0  0  0  0  0
  156.0400  211.5150  156.1180 C   0  0  0  0  0  2  0  0  0  0  0  0
  158.2970  212.2550  155.3700 C   0  0  2  0  0  3  0  0  0  0  0  0
  155.2260  212.5360  156.8610 C   0  0  0  0  0  3  0  0  0  0  0  0
  158.0550  213.0530  156.6380 C   0  0  2  0  0  3  0  0  0  0  0  0
  157.5240  211.6090  156.5030 C   0  0  1  0  0  3  0  0  0  0  0  0
  1  9  1  0  0  0  0
  2 10  1  0  0  0  0
  2  7  1  0  0  0  0
  3  8  2  0  0  0  0
  4  6  1  0  0  0  0
  4  1  2  0  0  0  0
  5  8  1  0  0  0  0
  6  2  2  0  0  0  0
  7  3  1  0  0  0  0
  8 44  1  0  0  0  0
  9  7  2  0  0  0  0
 10  5  2  0  0  0  0
 12 20  1  0  0  0  0
 13 19  2  0  0  0  0
 13 21  1  0  0  0  0
 14 11  1  0  0  0  0
 14 16  1  0  0  0  0
 15 23  1  0  0  0  0
 15 20  1  0  0  0  0
 16 15  2  0  0  0  0
 17 12  1  0  0  0  0
 18 21  1  0  0  0  0
 18 17  1  0  0  0  0
 19 22  1  0  0  0  0
 20  4  1  1  0  0  0
 21 14  2  0  0  0  0
 22 11  2  0  0  0  0
 24 23  1  0  0  0  0
 25 26  2  0  0  0  0
 26 10  1  0  0  0  0
 27 29  2  0  0  0  0
 28 27  2  0  0  0  0
 29 25  1  0  0  0  0
 30 28  1  1  0  0  0
 31 32  2  0  0  0  0
 32 30  1  0  0  0  0
 32 33  1  0  0  0  0
 34 38  1  6  0  0  0
 34 30  1  0  0  0  0
 35 34  1  0  0  0  0
 35 37  1  0  0  0  0
 36 35  2  0  0  0  0
 40 38  1  0  0  0  0
 40 39  1  1  0  0  0
 41 42  1  0  0  0  0
 42 40  1  0  0  0  0
 43 42  1  0  0  0  0
 44 46  1  1  0  0  0
 44 47  1  0  0  0  0
 46 45  2  0  0  0  0
 48 47  1  0  0  0  0
 48 49  1  0  0  0  0
 50 49  1  0  0  0  0
 52 51  1  6  0  0  0
 52 50  1  0  0  0  0
 54 53  1  0  0  0  0
 55 57  1  0  0  0  0
 56 52  1  1  0  0  0
 56 59  1  0  0  0  0
 56 58  1  0  0  0  0
 57 53  2  0  0  0  0
 58 54  1  6  0  0  0
 59 55  1  6  0  0  0
 59 58  1  0  0  0  0
M  END
>  <MODEL>
6

>  <REMARK>
 VINA RESULT:      -3.1      3.167     11.639
  Name = 
  19 active torsions:
  status: ('A' for Active; 'I' for Inactive)
    1  A    between atoms: C_4  and  C_53
    2  A    between atoms: C_6  and  C_37
    3  A    between atoms: N_8  and  C_43
    4  A    between atoms: N_8  and  C_58
    5  A    between atoms: C_9  and  C_32
    6  A    between atoms: C_9  and  C_53
    7  A    between atoms: C_14  and  O_18
    8  A    between atoms: C_16  and  C_46
    9  A    between atoms: C_17  and  C_54
   10  A    between atoms: S_21  and  C_28
   11  A    between atoms: S_21  and  C_31
   12  A    between atoms: C_27  and  C_58
   13  A    between atoms: C_28  and  C_35
   14  A    between atoms: C_28  and  N_36
   15  A    between atoms: C_31  and  C_43
   16  A    between atoms: C_32  and  C_52
   17  A    between atoms: C_34  and  C_37
   18  A    between atoms: C_37  and  C_53
   19  A    between atoms: C_42  and  C_59
                            x       y       z     vdW  Elec       q    Type
                         _______ _______ _______ _____ _____    ______ ____

>  <TORSDO>
F 19

$$$$
