=
 OpenBabel11042421363D

 45 49  0  0  1  0  0  0  0  0999 V2000
  161.1300  210.7340  151.5330 C   0  0  0  0  0  3  0  0  0  0  0  0
  161.3340  208.3120  151.4770 C   0  0  0  0  0  0  0  0  0  0  0  0
  161.9740  209.6570  149.5510 C   0  0  0  0  0  3  0  0  0  0  0  0
  160.9870  209.4960  152.1700 C   0  0  0  0  0  0  0  0  0  0  0  0
  161.6030  210.8220  150.2210 C   0  0  0  0  0  0  0  0  0  0  0  0
  161.8420  208.4150  150.1710 C   0  0  0  0  0  3  0  0  0  0  0  0
  160.8690  208.3430  154.2880 O   0  0  0  0  0  1  0  0  0  0  0  0
  160.5420  209.5220  153.6100 C   0  0  1  0  0  3  0  0  0  0  0  0
  162.2650  210.7670  154.7100 O   0  0  0  0  0  0  0  0  0  0  0  0
  161.0640  210.7270  154.3350 C   0  0  0  0  0  0  0  0  0  0  0  0
  160.2170  211.8470  154.5960 N   0  0  0  0  0  2  0  0  0  0  0  0
  158.5420  212.7160  153.2370 O   0  0  0  0  0  1  0  0  0  0  0  0
  158.7970  211.8400  154.2920 C   0  0  0  0  0  2  0  0  0  0  0  0
  161.7600  212.0880  149.5740 N   0  0  0  0  0  2  0  0  0  0  0  0
  162.5500  212.2870  148.3630 C   0  0  0  0  0  2  0  0  0  0  0  0
  160.4420  212.6490  144.3470 C   0  0  0  0  0  0  0  0  0  0  0  0
  162.4750  212.6960  142.3320 C   0  0  0  0  0  3  0  0  0  0  0  0
  160.1820  212.3310  143.0760 C   0  0  0  0  0  2  0  0  0  0  0  0
  159.2840  212.7720  146.4860 N   0  0  0  0  0  0  0  0  0  0  0  0
  161.6600  212.5540  147.1930 C   0  0  0  0  0  0  0  0  0  0  0  0
  161.8330  212.9850  144.7180 C   0  0  0  0  0  0  0  0  0  0  0  0
  159.3190  212.8190  145.2130 N   0  0  0  0  0  2  0  0  0  0  0  0
  160.3470  212.5100  147.4090 C   0  0  0  0  0  3  0  0  0  0  0  0
  162.3260  212.9330  145.9460 C   0  0  0  0  0  3  0  0  0  0  0  0
  162.7870  213.3850  143.6290 C   0  0  0  0  0  2  0  0  0  0  0  0
  161.2480  212.2480  142.0610 C   0  0  0  0  0  0  0  0  0  0  0  0
  160.9660  211.6320  140.7350 C   0  0  0  0  0  2  0  0  0  0  0  0
  162.1400  210.7880  140.2660 C   0  0  0  0  0  3  0  0  0  0  0  0
  161.7880  209.4390  140.2860 O   0  0  0  0  0  1  0  0  0  0  0  0
  162.4780  211.1560  138.9670 O   0  0  0  0  0  1  0  0  0  0  0  0
  161.1800  206.9670  152.1340 C   0  0  0  0  0  2  0  0  0  0  0  0
  162.2880  205.6660  151.4840 S   0  0  0  0  0  0  0  0  0  0  0  0
  160.0070  205.3920  150.1680 O   0  0  0  0  0  0  0  0  0  0  0  0
  161.0500  204.8350  150.4740 C   0  0  0  0  0  0  0  0  0  0  0  0
  160.3810  201.5350  148.4780 C   0  0  0  0  0  2  0  0  0  0  0  0
  161.4200  202.0400  146.3270 O   0  0  0  0  0  0  0  0  0  0  0  0
  161.8400  204.2080  147.3820 C   0  0  1  0  0  3  0  0  0  0  0  0
  161.2940  203.4180  150.0570 C   0  0  2  0  0  3  0  0  0  0  0  0
  161.9130  203.3360  148.6560 C   0  0  1  0  0  3  0  0  0  0  0  0
  160.4450  202.9910  148.8920 C   0  0  1  0  0  3  0  0  0  0  0  0
  161.2050  203.4300  146.1970 C   0  0  0  0  0  2  0  0  0  0  0  0
  160.2700  201.4990  146.9420 C   0  0  0  0  0  2  0  0  0  0  0  0
  160.4300  206.0870  146.3970 C   0  0  0  0  0  1  0  0  0  0  0  0
  162.5320  206.6000  147.6010 C   0  0  0  0  0  1  0  0  0  0  0  0
  161.3490  205.6570  147.5300 C   0  0  0  0  0  3  0  0  0  0  0  0
  1  4  1  0  0  0  0
  2 31  1  0  0  0  0
  2  4  2  0  0  0  0
  3  6  2  0  0  0  0
  3  5  1  0  0  0  0
  4  8  1  0  0  0  0
  5  1  2  0  0  0  0
  6  2  1  0  0  0  0
  8  7  1  1  0  0  0
  8 10  1  0  0  0  0
 10 11  1  0  0  0  0
 10  9  2  0  0  0  0
 12 13  1  0  0  0  0
 13 11  1  0  0  0  0
 14  5  1  0  0  0  0
 15 14  1  0  0  0  0
 16 21  2  0  0  0  0
 16 22  1  0  0  0  0
 17 25  1  0  0  0  0
 18 16  1  0  0  0  0
 19 23  2  0  0  0  0
 20 23  1  0  0  0  0
 20 15  1  0  0  0  0
 21 24  1  0  0  0  0
 22 19  1  0  0  0  0
 24 20  2  0  0  0  0
 25 21  1  0  0  0  0
 26 17  2  0  0  0  0
 26 18  1  0  0  0  0
 27 26  1  0  0  0  0
 28 29  1  0  0  0  0
 28 27  1  0  0  0  0
 30 28  1  0  0  0  0
 32 31  1  0  0  0  0
 33 34  2  0  0  0  0
 34 32  1  0  0  0  0
 35 40  1  0  0  0  0
 36 42  1  0  0  0  0
 37 45  1  1  0  0  0
 37 39  1  0  0  0  0
 38 34  1  6  0  0  0
 39 40  1  0  0  0  0
 39 38  1  0  0  0  0
 40 38  1  0  0  0  0
 41 36  1  0  0  0  0
 41 37  1  0  0  0  0
 42 35  1  0  0  0  0
 43 45  1  0  0  0  0
 45 44  1  0  0  0  0
M  END
>  <MODEL>
1

>  <REMARK>
 VINA RESULT:      -7.5      0.000      0.000
  Name = 
  13 active torsions:
  status: ('A' for Active; 'I' for Inactive)
    1  A    between atoms: C_1  and  N_15
    2  A    between atoms: C_1  and  C_26
    3  A    between atoms: C_4  and  C_10
    4  A    between atoms: C_9  and  C_28
    5  A    between atoms: C_10  and  C_44
    6  A    between atoms: C_12  and  C_37
    7  A    between atoms: N_15  and  C_29
    8  A    between atoms: C_16  and  C_33
    9  A    between atoms: N_18  and  C_42
   10  A    between atoms: C_21  and  C_35
   11  A    between atoms: C_24  and  C_33
   12  A    between atoms: C_28  and  S_39
   13  A    between atoms: C_35  and  S_39
                            x       y       z     vdW  Elec       q    Type
                         _______ _______ _______ _____ _____    ______ ____

>  <TORSDO>
F 13

$$$$
=
 OpenBabel11042421363D

 45 49  0  0  1  0  0  0  0  0999 V2000
  160.3570  209.4090  153.1340 C   0  0  0  0  0  3  0  0  0  0  0  0
  161.3260  210.6380  151.2740 C   0  0  0  0  0  0  0  0  0  0  0  0
  161.7480  208.2560  151.5420 C   0  0  0  0  0  3  0  0  0  0  0  0
  160.5210  210.6120  152.4370 C   0  0  0  0  0  0  0  0  0  0  0  0
  160.9810  208.2340  152.7050 C   0  0  0  0  0  0  0  0  0  0  0  0
  161.9190  209.4440  150.8330 C   0  0  0  0  0  3  0  0  0  0  0  0
  158.5550  211.9980  152.2320 O   0  0  0  0  0  1  0  0  0  0  0  0
  159.7420  211.8000  152.9430 C   0  0  1  0  0  3  0  0  0  0  0  0
  160.4460  211.7070  155.2300 O   0  0  0  0  0  0  0  0  0  0  0  0
  159.4830  211.7100  154.4180 C   0  0  0  0  0  0  0  0  0  0  0  0
  158.1490  211.6430  154.9220 N   0  0  0  0  0  2  0  0  0  0  0  0
  155.8250  211.6530  154.8140 O   0  0  0  0  0  1  0  0  0  0  0  0
  156.9890  211.5350  154.0540 C   0  0  0  0  0  2  0  0  0  0  0  0
  160.8040  207.0020  153.4110 N   0  0  0  0  0  2  0  0  0  0  0  0
  161.7060  205.8610  153.2880 C   0  0  0  0  0  2  0  0  0  0  0  0
  161.1350  203.8780  149.2330 C   0  0  0  0  0  0  0  0  0  0  0  0
  161.3830  205.9310  147.2520 C   0  0  0  0  0  3  0  0  0  0  0  0
  161.4360  203.5990  147.9620 C   0  0  0  0  0  2  0  0  0  0  0  0
  160.8300  202.7140  151.3500 N   0  0  0  0  0  0  0  0  0  0  0  0
  161.3440  205.0310  152.0990 C   0  0  0  0  0  0  0  0  0  0  0  0
  160.9770  205.2960  149.6230 C   0  0  0  0  0  0  0  0  0  0  0  0
  160.8070  202.7740  150.0770 N   0  0  0  0  0  2  0  0  0  0  0  0
  161.2140  203.7200  152.2940 C   0  0  0  0  0  3  0  0  0  0  0  0
  161.0730  205.7590  150.8590 C   0  0  0  0  0  3  0  0  0  0  0  0
  160.7200  206.3100  148.5450 C   0  0  0  0  0  2  0  0  0  0  0  0
  161.6720  204.6600  146.9660 C   0  0  0  0  0  0  0  0  0  0  0  0
  162.2660  204.3210  145.6440 C   0  0  0  0  0  2  0  0  0  0  0  0
  161.2320  204.4410  144.5350 C   0  0  0  0  0  3  0  0  0  0  0  0
  160.2660  203.4470  144.6820 O   0  0  0  0  0  1  0  0  0  0  0  0
  160.6230  205.6900  144.6120 O   0  0  0  0  0  1  0  0  0  0  0  0
  161.5280  211.9200  150.5120 C   0  0  0  0  0  2  0  0  0  0  0  0
  161.7200  211.7150  148.7050 S   0  0  0  0  0  0  0  0  0  0  0  0
  161.3210  214.3030  149.0940 O   0  0  0  0  0  0  0  0  0  0  0  0
  161.7380  213.4700  148.3050 C   0  0  0  0  0  0  0  0  0  0  0  0
  162.2660  213.1540  144.4390 C   0  0  0  0  0  2  0  0  0  0  0  0
  160.1120  213.9250  143.5820 O   0  0  0  0  0  0  0  0  0  0  0  0
  159.5690  214.0920  145.9620 C   0  0  1  0  0  3  0  0  0  0  0  0
  162.2260  213.8940  146.9540 C   0  0  2  0  0  3  0  0  0  0  0  0
  161.0790  214.4010  146.0690 C   0  0  1  0  0  3  0  0  0  0  0  0
  161.7040  213.0270  145.8400 C   0  0  1  0  0  3  0  0  0  0  0  0
  159.2090  213.4890  144.5770 C   0  0  0  0  0  2  0  0  0  0  0  0
  161.1020  212.9240  143.4560 C   0  0  0  0  0  2  0  0  0  0  0  0
  157.7980  212.4300  146.7310 C   0  0  0  0  0  1  0  0  0  0  0  0
  158.3070  214.4350  148.0930 C   0  0  0  0  0  1  0  0  0  0  0  0
  158.8910  213.3990  147.1550 C   0  0  0  0  0  3  0  0  0  0  0  0
  2  4  1  0  0  0  0
  3  5  2  0  0  0  0
  4  8  1  0  0  0  0
  4  1  2  0  0  0  0
  5  1  1  0  0  0  0
  5 14  1  0  0  0  0
  6  2  2  0  0  0  0
  6  3  1  0  0  0  0
  8  7  1  6  0  0  0
  8 10  1  0  0  0  0
 10 11  1  0  0  0  0
 10  9  2  0  0  0  0
 13 12  1  0  0  0  0
 13 11  1  0  0  0  0
 15 14  1  0  0  0  0
 16 21  2  0  0  0  0
 16 22  1  0  0  0  0
 17 25  1  0  0  0  0
 18 16  1  0  0  0  0
 19 23  2  0  0  0  0
 20 23  1  0  0  0  0
 20 15  1  0  0  0  0
 21 24  1  0  0  0  0
 22 19  1  0  0  0  0
 24 20  2  0  0  0  0
 25 21  1  0  0  0  0
 26 17  2  0  0  0  0
 26 18  1  0  0  0  0
 27 26  1  0  0  0  0
 28 30  1  0  0  0  0
 28 29  1  0  0  0  0
 28 27  1  0  0  0  0
 31  2  1  0  0  0  0
 32 31  1  0  0  0  0
 34 32  1  0  0  0  0
 34 33  2  0  0  0  0
 35 40  1  0  0  0  0
 36 41  1  0  0  0  0
 37 39  1  0  0  0  0
 37 45  1  1  0  0  0
 38 34  1  1  0  0  0
 39 38  1  0  0  0  0
 40 39  1  0  0  0  0
 40 38  1  0  0  0  0
 41 37  1  0  0  0  0
 42 36  1  0  0  0  0
 42 35  1  0  0  0  0
 43 45  1  0  0  0  0
 45 44  1  0  0  0  0
M  END
>  <MODEL>
2

>  <REMARK>
 VINA RESULT:      -7.3      3.206      8.082
  Name = 
  13 active torsions:
  status: ('A' for Active; 'I' for Inactive)
    1  A    between atoms: C_1  and  N_15
    2  A    between atoms: C_1  and  C_26
    3  A    between atoms: C_4  and  C_10
    4  A    between atoms: C_9  and  C_28
    5  A    between atoms: C_10  and  C_44
    6  A    between atoms: C_12  and  C_37
    7  A    between atoms: N_15  and  C_29
    8  A    between atoms: C_16  and  C_33
    9  A    between atoms: N_18  and  C_42
   10  A    between atoms: C_21  and  C_35
   11  A    between atoms: C_24  and  C_33
   12  A    between atoms: C_28  and  S_39
   13  A    between atoms: C_35  and  S_39
                            x       y       z     vdW  Elec       q    Type
                         _______ _______ _______ _____ _____    ______ ____

>  <TORSDO>
F 13

$$$$
=
 OpenBabel11042421363D

 45 49  0  0  1  0  0  0  0  0999 V2000
  161.3100  207.8910  152.6100 C   0  0  0  0  0  3  0  0  0  0  0  0
  160.2590  209.3740  154.2240 C   0  0  0  0  0  0  0  0  0  0  0  0
  160.8130  207.0800  154.8230 C   0  0  0  0  0  3  0  0  0  0  0  0
  160.7890  209.1500  152.9320 C   0  0  0  0  0  0  0  0  0  0  0  0
  161.3080  206.8480  153.5400 C   0  0  0  0  0  0  0  0  0  0  0  0
  160.2950  208.3290  155.1630 C   0  0  0  0  0  3  0  0  0  0  0  0
  160.4490  211.4630  152.3310 O   0  0  0  0  0  1  0  0  0  0  0  0
  160.9110  210.2230  151.8800 C   0  0  1  0  0  3  0  0  0  0  0  0
  163.2920  210.2390  152.1290 O   0  0  0  0  0  0  0  0  0  0  0  0
  162.3090  210.3260  151.3460 C   0  0  0  0  0  0  0  0  0  0  0  0
  162.5470  210.5100  149.9500 N   0  0  0  0  0  2  0  0  0  0  0  0
  161.9050  211.5980  147.9970 O   0  0  0  0  0  1  0  0  0  0  0  0
  161.4730  210.7260  148.9970 C   0  0  0  0  0  2  0  0  0  0  0  0
  161.8500  205.5650  153.2150 N   0  0  0  0  0  2  0  0  0  0  0  0
  161.0530  204.3450  153.1330 C   0  0  0  0  0  2  0  0  0  0  0  0
  161.1100  203.7050  148.6290 C   0  0  0  0  0  0  0  0  0  0  0  0
  161.2840  206.2930  147.4150 C   0  0  0  0  0  3  0  0  0  0  0  0
  161.5600  203.8710  147.3820 C   0  0  0  0  0  2  0  0  0  0  0  0
  160.7570  201.9090  150.2350 N   0  0  0  0  0  0  0  0  0  0  0  0
  160.9080  203.9050  151.7130 C   0  0  0  0  0  0  0  0  0  0  0  0
  160.7420  204.9070  149.4090 C   0  0  1  0  0  3  0  0  0  0  0  0
  160.8450  202.3660  149.0480 N   0  0  0  0  0  0  0  0  0  0  0  0
  160.9240  202.5940  151.4810 C   0  0  0  0  0  3  0  0  0  0  0  0
  160.6650  204.9620  150.7290 C   0  0  0  0  0  3  0  0  0  0  0  0
  160.4620  206.1830  148.6680 C   0  0  0  0  0  2  0  0  0  0  0  0
  161.7530  205.2090  146.7950 C   0  0  0  0  0  0  0  0  0  0  0  0
  162.5040  205.3600  145.5190 C   0  0  0  0  0  2  0  0  0  0  0  0
  161.5970  205.1250  144.3210 C   0  0  0  0  0  3  0  0  0  0  0  0
  160.8140  203.9920  144.5380 O   0  0  0  0  0  1  0  0  0  0  0  0
  160.7690  206.2310  144.1520 O   0  0  0  0  0  1  0  0  0  0  0  0
  159.6830  210.7150  154.5940 C   0  0  0  0  0  2  0  0  0  0  0  0
  160.6360  211.6360  155.8540 S   0  0  0  0  0  0  0  0  0  0  0  0
  158.6580  212.6930  157.2590 O   0  0  0  0  0  0  0  0  0  0  0  0
  159.3420  212.8210  156.2560 C   0  0  0  0  0  0  0  0  0  0  0  0
  158.2720  214.4470  152.8610 C   0  0  0  0  0  2  0  0  0  0  0  0
  155.8370  214.4150  153.0440 O   0  0  0  0  0  0  0  0  0  0  0  0
  156.3150  213.2920  155.1640 C   0  0  1  0  0  3  0  0  0  0  0  0
  159.0770  213.9470  155.3040 C   0  0  2  0  0  3  0  0  0  0  0  0
  157.5740  214.1860  155.1110 C   0  0  1  0  0  3  0  0  0  0  0  0
  158.4090  213.4980  154.0330 C   0  0  1  0  0  3  0  0  0  0  0  0
  155.5970  213.2390  153.7870 C   0  0  0  0  0  2  0  0  0  0  0  0
  156.9230  214.1450  152.1820 C   0  0  0  0  0  2  0  0  0  0  0  0
  155.9370  210.7760  155.0230 C   0  0  0  0  0  1  0  0  0  0  0  0
  155.6440  211.9660  157.1750 C   0  0  0  0  0  1  0  0  0  0  0  0
  156.4260  211.9340  155.8780 C   0  0  0  0  0  3  0  0  0  0  0  0
  1  4  2  0  0  0  0
  1  5  1  0  0  0  0
  2 31  1  0  0  0  0
  2  6  2  0  0  0  0
  3  6  1  0  0  0  0
  4  2  1  0  0  0  0
  5  3  2  0  0  0  0
  8  7  1  1  0  0  0
  8  4  1  0  0  0  0
 10  8  1  0  0  0  0
 10  9  2  0  0  0  0
 11 10  1  0  0  0  0
 12 13  1  0  0  0  0
 13 11  1  0  0  0  0
 14  5  1  0  0  0  0
 15 14  1  0  0  0  0
 16 22  2  0  0  0  0
 16 21  1  0  0  0  0
 17 25  1  0  0  0  0
 18 16  1  0  0  0  0
 19 23  2  0  0  0  0
 20 15  1  0  0  0  0
 21 25  1  1  0  0  0
 21 24  1  0  0  0  0
 22 19  1  0  0  0  0
 23 20  1  0  0  0  0
 24 20  2  0  0  0  0
 26 18  1  0  0  0  0
 26 17  2  0  0  0  0
 27 26  1  0  0  0  0
 28 29  1  0  0  0  0
 28 27  1  0  0  0  0
 30 28  1  0  0  0  0
 31 32  1  0  0  0  0
 32 34  1  0  0  0  0
 34 33  2  0  0  0  0
 35 40  1  0  0  0  0
 36 41  1  0  0  0  0
 37 45  1  6  0  0  0
 38 34  1  1  0  0  0
 39 37  1  0  0  0  0
 39 38  1  0  0  0  0
 40 39  1  0  0  0  0
 40 38  1  0  0  0  0
 41 37  1  0  0  0  0
 42 35  1  0  0  0  0
 42 36  1  0  0  0  0
 43 45  1  0  0  0  0
 45 44  1  0  0  0  0
M  END
>  <MODEL>
3

>  <REMARK>
 VINA RESULT:      -7.2      3.967      9.210
  Name = 
  13 active torsions:
  status: ('A' for Active; 'I' for Inactive)
    1  A    between atoms: C_1  and  N_15
    2  A    between atoms: C_1  and  C_26
    3  A    between atoms: C_4  and  C_10
    4  A    between atoms: C_9  and  C_28
    5  A    between atoms: C_10  and  C_44
    6  A    between atoms: C_12  and  C_37
    7  A    between atoms: N_15  and  C_29
    8  A    between atoms: C_16  and  C_33
    9  A    between atoms: N_18  and  C_42
   10  A    between atoms: C_21  and  C_35
   11  A    between atoms: C_24  and  C_33
   12  A    between atoms: C_28  and  S_39
   13  A    between atoms: C_35  and  S_39
                            x       y       z     vdW  Elec       q    Type
                         _______ _______ _______ _____ _____    ______ ____

>  <TORSDO>
F 13

$$$$
=
 OpenBabel11042421363D

 45 49  0  0  1  0  0  0  0  0999 V2000
  161.7130  208.4540  149.8400 C   0  0  0  0  0  3  0  0  0  0  0  0
  160.9840  208.3850  152.1590 C   0  0  0  0  0  0  0  0  0  0  0  0
  161.6110  210.4940  151.1160 C   0  0  0  0  0  3  0  0  0  0  0  0
  161.2570  207.7190  150.9410 C   0  0  0  0  0  0  0  0  0  0  0  0
  161.9110  209.8350  149.9250 C   0  0  0  0  0  0  0  0  0  0  0  0
  161.1520  209.7790  152.2210 C   0  0  0  0  0  3  0  0  0  0  0  0
  161.0010  205.9120  149.3600 O   0  0  0  0  0  1  0  0  0  0  0  0
  161.0070  206.2490  150.7170 C   0  0  1  0  0  3  0  0  0  0  0  0
  163.0880  205.8620  151.8350 O   0  0  0  0  0  0  0  0  0  0  0  0
  161.9720  205.3950  151.4840 C   0  0  0  0  0  0  0  0  0  0  0  0
  161.6390  204.0530  151.8390 N   0  0  0  0  0  2  0  0  0  0  0  0
  160.6290  202.8590  150.1170 O   0  0  0  0  0  1  0  0  0  0  0  0
  160.4210  203.4040  151.3840 C   0  0  0  0  0  2  0  0  0  0  0  0
  162.3660  210.5880  148.7970 N   0  0  0  0  0  2  0  0  0  0  0  0
  162.2150  212.0350  148.6740 C   0  0  0  0  0  2  0  0  0  0  0  0
  160.9230  212.8130  144.3820 C   0  0  0  0  0  0  0  0  0  0  0  0
  163.2850  213.4520  142.8960 C   0  0  0  0  0  3  0  0  0  0  0  0
  160.9760  212.6870  143.0530 C   0  0  0  0  0  2  0  0  0  0  0  0
  159.3550  212.4280  146.2060 N   0  0  0  0  0  0  0  0  0  0  0  0
  161.5470  212.3860  147.3850 C   0  0  0  0  0  0  0  0  0  0  0  0
  162.1420  213.2500  145.0960 C   0  0  1  0  0  3  0  0  0  0  0  0
  159.6370  212.6950  144.9910 N   0  0  0  0  0  0  0  0  0  0  0  0
  160.2400  212.1440  147.2950 C   0  0  0  0  0  3  0  0  0  0  0  0
  162.3810  213.0510  146.3830 C   0  0  0  0  0  3  0  0  0  0  0  0
  163.2200  213.9440  144.3140 C   0  0  0  0  0  2  0  0  0  0  0  0
  162.2230  212.9100  142.2990 C   0  0  0  0  0  0  0  0  0  0  0  0
  162.3120  212.4990  140.8710 C   0  0  0  0  0  2  0  0  0  0  0  0
  161.6580  211.1430  140.6530 C   0  0  0  0  0  3  0  0  0  0  0  0
  160.5240  211.2900  139.8540 O   0  0  0  0  0  1  0  0  0  0  0  0
  162.5620  210.2980  140.0160 O   0  0  0  0  0  1  0  0  0  0  0  0
  160.5030  207.6180  153.3610 C   0  0  0  0  0  2  0  0  0  0  0  0
  161.5310  207.8190  154.8590 S   0  0  0  0  0  0  0  0  0  0  0  0
  160.2480  208.3690  157.1090 O   0  0  0  0  0  0  0  0  0  0  0  0
  160.2370  208.5190  155.8970 C   0  0  0  0  0  0  0  0  0  0  0  0
  157.3580  211.1590  155.6490 C   0  0  0  0  0  2  0  0  0  0  0  0
  158.5970  213.1920  155.1080 O   0  0  0  0  0  0  0  0  0  0  0  0
  160.5300  211.7060  155.3200 C   0  0  1  0  0  3  0  0  0  0  0  0
  159.1050  209.2480  155.2410 C   0  0  2  0  0  3  0  0  0  0  0  0
  159.5160  210.6600  154.8040 C   0  0  1  0  0  3  0  0  0  0  0  0
  158.6340  210.4380  156.0310 C   0  0  1  0  0  3  0  0  0  0  0  0
  159.8170  213.0030  155.7930 C   0  0  0  0  0  2  0  0  0  0  0  0
  157.5770  212.6580  155.9260 C   0  0  0  0  0  2  0  0  0  0  0  0
  162.0920  212.2800  157.2490 C   0  0  0  0  0  1  0  0  0  0  0  0
  162.8500  210.7800  155.4300 C   0  0  0  0  0  1  0  0  0  0  0  0
  161.6540  211.2210  156.2490 C   0  0  0  0  0  3  0  0  0  0  0  0
  1  5  2  0  0  0  0
  1  4  1  0  0  0  0
  2  6  1  0  0  0  0
  2 31  1  0  0  0  0
  3  6  2  0  0  0  0
  4  2  2  0  0  0  0
  5  3  1  0  0  0  0
  8  7  1  6  0  0  0
  8  4  1  0  0  0  0
  8 10  1  0  0  0  0
 10  9  2  0  0  0  0
 10 11  1  0  0  0  0
 12 13  1  0  0  0  0
 13 11  1  0  0  0  0
 14  5  1  0  0  0  0
 15 14  1  0  0  0  0
 16 22  2  0  0  0  0
 16 21  1  0  0  0  0
 17 25  1  0  0  0  0
 18 16  1  0  0  0  0
 19 23  2  0  0  0  0
 20 15  1  0  0  0  0
 21 25  1  6  0  0  0
 21 24  1  0  0  0  0
 22 19  1  0  0  0  0
 23 20  1  0  0  0  0
 24 20  2  0  0  0  0
 26 17  2  0  0  0  0
 26 18  1  0  0  0  0
 27 26  1  0  0  0  0
 28 27  1  0  0  0  0
 29 28  1  0  0  0  0
 30 28  1  0  0  0  0
 31 32  1  0  0  0  0
 32 34  1  0  0  0  0
 34 33  2  0  0  0  0
 35 42  1  0  0  0  0
 35 40  1  0  0  0  0
 36 41  1  0  0  0  0
 36 42  1  0  0  0  0
 37 41  1  0  0  0  0
 37 45  1  1  0  0  0
 38 34  1  1  0  0  0
 38 40  1  0  0  0  0
 39 38  1  0  0  0  0
 39 37  1  0  0  0  0
 39 40  1  0  0  0  0
 44 45  1  0  0  0  0
 45 43  1  0  0  0  0
M  END
>  <MODEL>
4

>  <REMARK>
 VINA RESULT:      -6.5      2.419      6.745
  Name = 
  13 active torsions:
  status: ('A' for Active; 'I' for Inactive)
    1  A    between atoms: C_1  and  N_15
    2  A    between atoms: C_1  and  C_26
    3  A    between atoms: C_4  and  C_10
    4  A    between atoms: C_9  and  C_28
    5  A    between atoms: C_10  and  C_44
    6  A    between atoms: C_12  and  C_37
    7  A    between atoms: N_15  and  C_29
    8  A    between atoms: C_16  and  C_33
    9  A    between atoms: N_18  and  C_42
   10  A    between atoms: C_21  and  C_35
   11  A    between atoms: C_24  and  C_33
   12  A    between atoms: C_28  and  S_39
   13  A    between atoms: C_35  and  S_39
                            x       y       z     vdW  Elec       q    Type
                         _______ _______ _______ _____ _____    ______ ____

>  <TORSDO>
F 13

$$$$
=
 OpenBabel11042421363D

 45 49  0  0  1  0  0  0  0  0999 V2000
  161.2460  207.3410  152.6300 C   0  0  0  0  0  3  0  0  0  0  0  0
  161.1980  209.1770  154.2240 C   0  0  0  0  0  0  0  0  0  0  0  0
  160.8300  206.8850  154.9580 C   0  0  0  0  0  3  0  0  0  0  0  0
  161.3640  208.7100  152.8980 C   0  0  0  0  0  0  0  0  0  0  0  0
  160.9610  206.4270  153.6490 C   0  0  0  0  0  0  0  0  0  0  0  0
  160.9480  208.2450  155.2440 C   0  0  0  0  0  3  0  0  0  0  0  0
  162.7830  210.4770  152.0680 O   0  0  0  0  0  1  0  0  0  0  0  0
  161.7480  209.5960  151.7410 C   0  0  1  0  0  3  0  0  0  0  0  0
  162.4700  207.6070  150.6210 O   0  0  0  0  0  0  0  0  0  0  0  0
  162.0810  208.8000  150.5140 C   0  0  0  0  0  0  0  0  0  0  0  0
  161.9480  209.3730  149.2120 N   0  0  0  0  0  2  0  0  0  0  0  0
  162.6750  211.4210  148.3850 O   0  0  0  0  0  1  0  0  0  0  0  0
  161.6090  210.7700  149.0040 C   0  0  0  0  0  2  0  0  0  0  0  0
  160.8530  205.0260  153.3770 N   0  0  0  0  0  2  0  0  0  0  0  0
  161.9160  204.2340  152.7660 C   0  0  0  0  0  2  0  0  0  0  0  0
  161.1560  203.3870  148.3610 C   0  0  0  0  0  0  0  0  0  0  0  0
  161.3200  205.8920  146.9830 C   0  0  0  0  0  3  0  0  0  0  0  0
  161.3990  203.4560  147.0490 C   0  0  0  0  0  2  0  0  0  0  0  0
  160.9440  201.7030  150.1070 N   0  0  0  0  0  0  0  0  0  0  0  0
  161.4980  203.7440  151.4180 C   0  0  0  0  0  0  0  0  0  0  0  0
  161.0200  204.6500  149.1180 C   0  0  1  0  0  3  0  0  0  0  0  0
  160.8640  202.0960  148.8970 N   0  0  0  0  0  0  0  0  0  0  0  0
  161.3740  202.4270  151.2650 C   0  0  0  0  0  3  0  0  0  0  0  0
  161.1730  204.7710  150.4270 C   0  0  0  0  0  3  0  0  0  0  0  0
  160.7180  205.9100  148.3590 C   0  0  0  0  0  2  0  0  0  0  0  0
  161.5920  204.7440  146.3590 C   0  0  0  0  0  0  0  0  0  0  0  0
  162.1250  204.7710  144.9700 C   0  0  0  0  0  2  0  0  0  0  0  0
  161.1890  205.5310  144.0420 C   0  0  0  0  0  3  0  0  0  0  0  0
  161.6520  205.4420  142.7300 O   0  0  0  0  0  1  0  0  0  0  0  0
  159.9160  204.9730  144.1200 O   0  0  0  0  0  1  0  0  0  0  0  0
  161.3090  210.6440  154.5380 C   0  0  0  0  0  2  0  0  0  0  0  0
  160.1370  211.2470  155.8050 S   0  0  0  0  0  0  0  0  0  0  0  0
  158.7470  211.0580  153.5590 O   0  0  0  0  0  0  0  0  0  0  0  0
  158.6640  211.1560  154.7730 C   0  0  0  0  0  0  0  0  0  0  0  0
  155.7430  212.9520  156.6610 C   0  0  0  0  0  2  0  0  0  0  0  0
  154.6220  214.1250  154.8360 O   0  0  0  0  0  0  0  0  0  0  0  0
  156.4390  213.1640  153.5080 C   0  0  1  0  0  3  0  0  0  0  0  0
  157.3200  211.2610  155.4270 C   0  0  2  0  0  3  0  0  0  0  0  0
  156.3220  212.0320  154.5540 C   0  0  1  0  0  3  0  0  0  0  0  0
  156.9500  212.6730  155.7890 C   0  0  1  0  0  3  0  0  0  0  0  0
  155.6900  214.4440  153.9700 C   0  0  0  0  0  2  0  0  0  0  0  0
  155.1050  214.2600  156.1560 C   0  0  0  0  0  2  0  0  0  0  0  0
  158.6340  214.4490  153.6500 C   0  0  0  0  0  1  0  0  0  0  0  0
  157.6550  213.8840  151.4460 C   0  0  0  0  0  1  0  0  0  0  0  0
  157.8180  213.4220  152.8800 C   0  0  0  0  0  3  0  0  0  0  0  0
  1  4  2  0  0  0  0
  1  5  1  0  0  0  0
  2 31  1  0  0  0  0
  2  6  2  0  0  0  0
  3  6  1  0  0  0  0
  4  2  1  0  0  0  0
  5  3  2  0  0  0  0
  8  7  1  1  0  0  0
  8  4  1  0  0  0  0
 10  9  2  0  0  0  0
 10  8  1  0  0  0  0
 11 10  1  0  0  0  0
 12 13  1  0  0  0  0
 13 11  1  0  0  0  0
 14  5  1  0  0  0  0
 15 14  1  0  0  0  0
 16 22  2  0  0  0  0
 16 21  1  0  0  0  0
 17 25  1  0  0  0  0
 18 16  1  0  0  0  0
 19 23  2  0  0  0  0
 20 15  1  0  0  0  0
 21 25  1  6  0  0  0
 21 24  1  0  0  0  0
 22 19  1  0  0  0  0
 23 20  1  0  0  0  0
 24 20  2  0  0  0  0
 26 17  2  0  0  0  0
 26 18  1  0  0  0  0
 27 26  1  0  0  0  0
 28 30  1  0  0  0  0
 28 27  1  0  0  0  0
 29 28  1  0  0  0  0
 31 32  1  0  0  0  0
 33 34  2  0  0  0  0
 34 32  1  0  0  0  0
 36 42  1  0  0  0  0
 37 45  1  1  0  0  0
 37 41  1  0  0  0  0
 37 39  1  0  0  0  0
 38 34  1  6  0  0  0
 38 40  1  0  0  0  0
 39 38  1  0  0  0  0
 39 40  1  0  0  0  0
 40 35  1  0  0  0  0
 41 36  1  0  0  0  0
 42 35  1  0  0  0  0
 44 45  1  0  0  0  0
 45 43  1  0  0  0  0
M  END
>  <MODEL>
5

>  <REMARK>
 VINA RESULT:      -6.3      3.817      9.138
  Name = 
  13 active torsions:
  status: ('A' for Active; 'I' for Inactive)
    1  A    between atoms: C_1  and  N_15
    2  A    between atoms: C_1  and  C_26
    3  A    between atoms: C_4  and  C_10
    4  A    between atoms: C_9  and  C_28
    5  A    between atoms: C_10  and  C_44
    6  A    between atoms: C_12  and  C_37
    7  A    between atoms: N_15  and  C_29
    8  A    between atoms: C_16  and  C_33
    9  A    between atoms: N_18  and  C_42
   10  A    between atoms: C_21  and  C_35
   11  A    between atoms: C_24  and  C_33
   12  A    between atoms: C_28  and  S_39
   13  A    between atoms: C_35  and  S_39
                            x       y       z     vdW  Elec       q    Type
                         _______ _______ _______ _____ _____    ______ ____

>  <TORSDO>
F 13

$$$$
=
 OpenBabel11042421363D

 45 49  0  0  1  0  0  0  0  0999 V2000
  161.9080  209.0470  149.5500 C   0  0  0  0  0  3  0  0  0  0  0  0
  161.0250  209.2830  151.8030 C   0  0  0  0  0  0  0  0  0  0  0  0
  161.8740  211.2170  150.5930 C   0  0  0  0  0  3  0  0  0  0  0  0
  161.3270  208.4690  150.6850 C   0  0  0  0  0  0  0  0  0  0  0  0
  162.2010  210.4120  149.5030 C   0  0  0  0  0  0  0  0  0  0  0  0
  161.2920  210.6600  151.7300 C   0  0  0  0  0  3  0  0  0  0  0  0
  160.8290  206.5710  149.2780 O   0  0  0  0  0  1  0  0  0  0  0  0
  160.9830  207.0040  150.5990 C   0  0  1  0  0  3  0  0  0  0  0  0
  163.0870  206.6340  151.6790 O   0  0  0  0  0  0  0  0  0  0  0  0
  161.9750  206.1530  151.3360 C   0  0  0  0  0  0  0  0  0  0  0  0
  161.6700  204.7990  151.6710 N   0  0  0  0  0  2  0  0  0  0  0  0
  160.7260  203.4060  150.0660 O   0  0  0  0  0  1  0  0  0  0  0  0
  160.4570  204.1370  151.2230 C   0  0  0  0  0  2  0  0  0  0  0  0
  162.7840  211.0050  148.3380 N   0  0  0  0  0  2  0  0  0  0  0  0
  162.6500  212.4170  147.9930 C   0  0  0  0  0  2  0  0  0  0  0  0
  160.3800  212.5090  144.0520 C   0  0  0  0  0  0  0  0  0  0  0  0
  162.3330  212.5790  141.9590 C   0  0  0  0  0  3  0  0  0  0  0  0
  160.0910  212.1270  142.8040 C   0  0  0  0  0  2  0  0  0  0  0  0
  159.2970  212.6590  146.2280 N   0  0  0  0  0  0  0  0  0  0  0  0
  161.7060  212.5910  146.8490 C   0  0  0  0  0  0  0  0  0  0  0  0
  161.7650  212.9300  144.3550 C   0  0  0  0  0  0  0  0  0  0  0  0
  159.2820  212.6560  144.9530 N   0  0  0  0  0  2  0  0  0  0  0  0
  160.4050  212.4880  147.1180 C   0  0  0  0  0  3  0  0  0  0  0  0
  162.3040  212.9530  145.5640 C   0  0  0  0  0  3  0  0  0  0  0  0
  162.6560  213.3350  143.2160 C   0  0  0  0  0  2  0  0  0  0  0  0
  161.1220  212.0590  141.7520 C   0  0  0  0  0  0  0  0  0  0  0  0
  160.8240  211.3770  140.4630 C   0  0  0  0  0  2  0  0  0  0  0  0
  161.7750  211.8400  139.3700 C   0  0  0  0  0  3  0  0  0  0  0  0
  162.4870  210.7500  138.8720 O   0  0  0  0  0  1  0  0  0  0  0  0
  161.0390  212.4180  138.3400 O   0  0  0  0  0  1  0  0  0  0  0  0
  160.4100  208.6860  153.0400 C   0  0  0  0  0  2  0  0  0  0  0  0
  161.3040  209.0520  154.5920 S   0  0  0  0  0  0  0  0  0  0  0  0
  160.6680  211.6140  154.7920 O   0  0  0  0  0  0  0  0  0  0  0  0
  160.3110  210.4780  155.0630 C   0  0  0  0  0  0  0  0  0  0  0  0
  157.2390  211.5110  157.2580 C   0  0  0  0  0  2  0  0  0  0  0  0
  155.6850  212.3460  155.5690 O   0  0  0  0  0  0  0  0  0  0  0  0
  157.5420  211.8530  154.0540 C   0  0  1  0  0  3  0  0  0  0  0  0
  159.0570  210.2520  155.8490 C   0  0  2  0  0  3  0  0  0  0  0  0
  157.8150  210.7400  155.0910 C   0  0  1  0  0  3  0  0  0  0  0  0
  158.3840  211.5320  156.2660 C   0  0  1  0  0  3  0  0  0  0  0  0
  156.5480  212.9120  154.6060 C   0  0  0  0  0  2  0  0  0  0  0  0
  156.2480  212.6130  156.8360 C   0  0  0  0  0  2  0  0  0  0  0  0
  158.9360  213.9260  153.5540 C   0  0  0  0  0  1  0  0  0  0  0  0
  158.5800  212.2070  151.8070 C   0  0  0  0  0  1  0  0  0  0  0  0
  158.7440  212.4400  153.2950 C   0  0  0  0  0  3  0  0  0  0  0  0
  1  4  1  0  0  0  0
  2 31  1  0  0  0  0
  3  6  2  0  0  0  0
  4  2  2  0  0  0  0
  5  1  2  0  0  0  0
  5  3  1  0  0  0  0
  6  2  1  0  0  0  0
  8  7  1  6  0  0  0
  8  4  1  0  0  0  0
  8 10  1  0  0  0  0
 10 11  1  0  0  0  0
 10  9  2  0  0  0  0
 12 13  1  0  0  0  0
 13 11  1  0  0  0  0
 14  5  1  0  0  0  0
 15 14  1  0  0  0  0
 16 21  2  0  0  0  0
 16 22  1  0  0  0  0
 17 25  1  0  0  0  0
 18 16  1  0  0  0  0
 19 23  2  0  0  0  0
 20 23  1  0  0  0  0
 20 15  1  0  0  0  0
 21 24  1  0  0  0  0
 22 19  1  0  0  0  0
 24 20  2  0  0  0  0
 25 21  1  0  0  0  0
 26 17  2  0  0  0  0
 26 18  1  0  0  0  0
 27 26  1  0  0  0  0
 28 27  1  0  0  0  0
 29 28  1  0  0  0  0
 30 28  1  0  0  0  0
 31 32  1  0  0  0  0
 32 34  1  0  0  0  0
 33 34  2  0  0  0  0
 36 42  1  0  0  0  0
 37 45  1  1  0  0  0
 37 41  1  0  0  0  0
 37 39  1  0  0  0  0
 38 34  1  6  0  0  0
 38 40  1  0  0  0  0
 39 38  1  0  0  0  0
 39 40  1  0  0  0  0
 40 35  1  0  0  0  0
 41 36  1  0  0  0  0
 42 35  1  0  0  0  0
 44 45  1  0  0  0  0
 45 43  1  0  0  0  0
M  END
>  <MODEL>
6

>  <REMARK>
 VINA RESULT:      -5.6      2.462      6.771
  Name = 
  13 active torsions:
  status: ('A' for Active; 'I' for Inactive)
    1  A    between atoms: C_1  and  N_15
    2  A    between atoms: C_1  and  C_26
    3  A    between atoms: C_4  and  C_10
    4  A    between atoms: C_9  and  C_28
    5  A    between atoms: C_10  and  C_44
    6  A    between atoms: C_12  and  C_37
    7  A    between atoms: N_15  and  C_29
    8  A    between atoms: C_16  and  C_33
    9  A    between atoms: N_18  and  C_42
   10  A    between atoms: C_21  and  C_35
   11  A    between atoms: C_24  and  C_33
   12  A    between atoms: C_28  and  S_39
   13  A    between atoms: C_35  and  S_39
                            x       y       z     vdW  Elec       q    Type
                         _______ _______ _______ _____ _____    ______ ____

>  <TORSDO>
F 13

$$$$
=
 OpenBabel11042421363D

 45 49  0  0  1  0  0  0  0  0999 V2000
  160.7460  209.6240  154.1470 C   0  0  0  0  0  3  0  0  0  0  0  0
  160.9150  207.5210  152.9380 C   0  0  0  0  0  0  0  0  0  0  0  0
  160.6370  207.5450  155.3570 C   0  0  0  0  0  3  0  0  0  0  0  0
  160.8860  208.9360  152.9360 C   0  0  0  0  0  0  0  0  0  0  0  0
  160.6400  208.9380  155.3600 C   0  0  0  0  0  0  0  0  0  0  0  0
  160.7720  206.8420  154.1600 C   0  0  0  0  0  3  0  0  0  0  0  0
  160.1530  210.9380  151.8030 O   0  0  0  0  0  1  0  0  0  0  0  0
  160.9140  209.7710  151.6810 C   0  0  1  0  0  3  0  0  0  0  0  0
  163.1980  210.3460  152.1050 O   0  0  0  0  0  0  0  0  0  0  0  0
  162.3160  210.0800  151.2470 C   0  0  0  0  0  0  0  0  0  0  0  0
  162.6740  210.0640  149.8650 N   0  0  0  0  0  2  0  0  0  0  0  0
  161.7650  208.5580  148.3430 O   0  0  0  0  0  1  0  0  0  0  0  0
  161.6970  209.8720  148.8070 C   0  0  0  0  0  2  0  0  0  0  0  0
  160.4860  209.6420  156.5960 N   0  0  0  0  0  2  0  0  0  0  0  0
  160.4890  211.0970  156.7070 C   0  0  0  0  0  2  0  0  0  0  0  0
  157.0280  212.8520  154.3330 C   0  0  0  0  0  0  0  0  0  0  0  0
  158.1640  214.4530  152.2490 C   0  0  0  0  0  3  0  0  0  0  0  0
  156.3430  213.1620  153.2280 C   0  0  0  0  0  2  0  0  0  0  0  0
  156.7340  211.5640  156.3780 N   0  0  0  0  0  0  0  0  0  0  0  0
  159.2130  211.6670  156.1790 C   0  0  0  0  0  0  0  0  0  0  0  0
  158.4280  213.3150  154.4450 C   0  0  0  0  0  0  0  0  0  0  0  0
  156.2930  212.2540  155.4010 N   0  0  0  0  0  2  0  0  0  0  0  0
  158.0790  211.1690  156.6700 C   0  0  0  0  0  3  0  0  0  0  0  0
  159.3410  212.7860  155.2450 C   0  0  0  0  0  3  0  0  0  0  0  0
  158.8790  214.4490  153.5700 C   0  0  0  0  0  2  0  0  0  0  0  0
  156.9620  213.8930  152.1070 C   0  0  0  0  0  0  0  0  0  0  0  0
  156.2590  213.9800  150.7980 C   0  0  0  0  0  2  0  0  0  0  0  0
  157.1040  213.3780  149.6860 C   0  0  0  0  0  3  0  0  0  0  0  0
  156.9640  214.1370  148.5240 O   0  0  0  0  0  1  0  0  0  0  0  0
  158.4400  213.3770  150.0760 O   0  0  0  0  0  1  0  0  0  0  0  0
  161.0750  206.7570  151.6520 C   0  0  0  0  0  2  0  0  0  0  0  0
  160.4700  205.0320  151.7060 S   0  0  0  0  0  0  0  0  0  0  0  0
  162.2440  203.4830  150.4970 O   0  0  0  0  0  0  0  0  0  0  0  0
  161.4810  204.4230  150.3460 C   0  0  0  0  0  0  0  0  0  0  0  0
  162.4640  205.1430  146.6260 C   0  0  0  0  0  2  0  0  0  0  0  0
  161.2050  203.4190  145.4400 O   0  0  0  0  0  0  0  0  0  0  0  0
  160.5600  202.7600  147.7070 C   0  0  1  0  0  3  0  0  0  0  0  0
  161.4110  205.1290  149.0270 C   0  0  2  0  0  3  0  0  0  0  0  0
  160.7070  204.2770  147.9620 C   0  0  1  0  0  3  0  0  0  0  0  0
  162.2230  204.4560  147.9540 C   0  0  1  0  0  3  0  0  0  0  0  0
  161.2090  202.3450  146.3570 C   0  0  0  0  0  2  0  0  0  0  0  0
  162.4640  204.0520  145.5390 C   0  0  0  0  0  2  0  0  0  0  0  0
  161.5680  200.5360  148.4350 C   0  0  0  0  0  1  0  0  0  0  0  0
  159.5550  201.4280  149.5690 C   0  0  0  0  0  1  0  0  0  0  0  0
  160.8480  201.8020  148.8740 C   0  0  0  0  0  3  0  0  0  0  0  0
  1  5  1  0  0  0  0
  2  6  2  0  0  0  0
  3  5  2  0  0  0  0
  4  2  1  0  0  0  0
  4  1  2  0  0  0  0
  5 14  1  0  0  0  0
  6  3  1  0  0  0  0
  8  7  1  1  0  0  0
  8  4  1  0  0  0  0
 10  8  1  0  0  0  0
 10  9  2  0  0  0  0
 11 10  1  0  0  0  0
 12 13  1  0  0  0  0
 13 11  1  0  0  0  0
 14 15  1  0  0  0  0
 16 21  2  0  0  0  0
 16 22  1  0  0  0  0
 17 25  1  0  0  0  0
 18 16  1  0  0  0  0
 19 23  2  0  0  0  0
 20 23  1  0  0  0  0
 20 15  1  0  0  0  0
 21 24  1  0  0  0  0
 22 19  1  0  0  0  0
 24 20  2  0  0  0  0
 25 21  1  0  0  0  0
 26 17  2  0  0  0  0
 26 18  1  0  0  0  0
 27 26  1  0  0  0  0
 28 30  1  0  0  0  0
 28 27  1  0  0  0  0
 29 28  1  0  0  0  0
 31 32  1  0  0  0  0
 31  2  1  0  0  0  0
 34 33  2  0  0  0  0
 34 32  1  0  0  0  0
 35 40  1  0  0  0  0
 36 42  1  0  0  0  0
 36 41  1  0  0  0  0
 37 39  1  0  0  0  0
 37 45  1  1  0  0  0
 38 34  1  1  0  0  0
 39 38  1  0  0  0  0
 40 39  1  0  0  0  0
 40 38  1  0  0  0  0
 41 37  1  0  0  0  0
 42 35  1  0  0  0  0
 43 45  1  0  0  0  0
 45 44  1  0  0  0  0
M  END
>  <MODEL>
7

>  <REMARK>
 VINA RESULT:      -5.6      4.074      7.076
  Name = 
  13 active torsions:
  status: ('A' for Active; 'I' for Inactive)
    1  A    between atoms: C_1  and  N_15
    2  A    between atoms: C_1  and  C_26
    3  A    between atoms: C_4  and  C_10
    4  A    between atoms: C_9  and  C_28
    5  A    between atoms: C_10  and  C_44
    6  A    between atoms: C_12  and  C_37
    7  A    between atoms: N_15  and  C_29
    8  A    between atoms: C_16  and  C_33
    9  A    between atoms: N_18  and  C_42
   10  A    between atoms: C_21  and  C_35
   11  A    between atoms: C_24  and  C_33
   12  A    between atoms: C_28  and  S_39
   13  A    between atoms: C_35  and  S_39
                            x       y       z     vdW  Elec       q    Type
                         _______ _______ _______ _____ _____    ______ ____

>  <TORSDO>
F 13

$$$$
=
 OpenBabel11042421363D

 45 49  0  0  1  0  0  0  0  0999 V2000
  160.6950  209.7140  153.0640 C   0  0  0  0  0  3  0  0  0  0  0  0
  161.1390  207.4090  152.4290 C   0  0  0  0  0  0  0  0  0  0  0  0
  161.1940  209.1870  150.7670 C   0  0  0  0  0  3  0  0  0  0  0  0
  160.8280  208.3670  153.4230 C   0  0  0  0  0  0  0  0  0  0  0  0
  160.8570  210.1280  151.7390 C   0  0  0  0  0  0  0  0  0  0  0  0
  161.3340  207.8420  151.1080 C   0  0  0  0  0  3  0  0  0  0  0  0
  161.9350  207.6780  155.4550 O   0  0  0  0  0  1  0  0  0  0  0  0
  160.7090  208.0420  154.8910 C   0  0  1  0  0  3  0  0  0  0  0  0
  158.8330  209.3790  155.5420 O   0  0  0  0  0  0  0  0  0  0  0  0
  160.0670  209.1580  155.6600 C   0  0  0  0  0  0  0  0  0  0  0  0
  160.8370  209.9740  156.5430 N   0  0  0  0  0  2  0  0  0  0  0  0
  162.8910  210.6740  155.7060 O   0  0  0  0  0  1  0  0  0  0  0  0
  162.2800  209.8560  156.6570 C   0  0  0  0  0  2  0  0  0  0  0  0
  160.7320  211.5060  151.3740 N   0  0  0  0  0  2  0  0  0  0  0  0
  161.6420  212.1880  150.4600 C   0  0  0  0  0  2  0  0  0  0  0  0
  159.7640  214.1800  146.8270 C   0  0  0  0  0  0  0  0  0  0  0  0
  161.7430  214.1890  144.7570 C   0  0  0  0  0  3  0  0  0  0  0  0
  159.4360  214.2970  145.5370 C   0  0  0  0  0  2  0  0  0  0  0  0
  158.6720  214.0500  148.9990 N   0  0  0  0  0  0  0  0  0  0  0  0
  160.8780  212.9940  149.4620 C   0  0  0  0  0  0  0  0  0  0  0  0
  161.1900  214.0010  147.1750 C   0  0  0  0  0  0  0  0  0  0  0  0
  158.7310  214.4220  147.7810 N   0  0  0  0  0  2  0  0  0  0  0  0
  159.6060  213.2640  149.7490 C   0  0  0  0  0  3  0  0  0  0  0  0
  161.6360  213.4890  148.3120 C   0  0  0  0  0  3  0  0  0  0  0  0
  162.2290  214.3920  146.1630 C   0  0  0  0  0  2  0  0  0  0  0  0
  160.4410  214.1920  144.4640 C   0  0  0  0  0  0  0  0  0  0  0  0
  160.0050  214.0560  143.0480 C   0  0  0  0  0  2  0  0  0  0  0  0
  159.8820  212.5920  142.6540 C   0  0  0  0  0  3  0  0  0  0  0  0
  160.9250  212.2450  141.7950 O   0  0  0  0  0  1  0  0  0  0  0  0
  159.9490  211.8040  143.8000 O   0  0  0  0  0  1  0  0  0  0  0  0
  161.2770  205.9530  152.7860 C   0  0  0  0  0  2  0  0  0  0  0  0
  162.3460  204.9880  151.6600 S   0  0  0  0  0  0  0  0  0  0  0  0
  159.8880  204.6930  150.7210 O   0  0  0  0  0  0  0  0  0  0  0  0
  161.0110  204.2150  150.7310 C   0  0  0  0  0  0  0  0  0  0  0  0
  160.4370  201.4500  148.0200 C   0  0  0  0  0  2  0  0  0  0  0  0
  161.5100  202.4450  146.0650 O   0  0  0  0  0  0  0  0  0  0  0  0
  161.8730  204.3190  147.5960 C   0  0  1  0  0  3  0  0  0  0  0  0
  161.2870  202.9330  150.0080 C   0  0  2  0  0  3  0  0  0  0  0  0
  161.9350  203.1800  148.6390 C   0  0  1  0  0  3  0  0  0  0  0  0
  160.4680  202.7740  148.7560 C   0  0  1  0  0  3  0  0  0  0  0  0
  161.2750  203.8250  146.2500 C   0  0  0  0  0  2  0  0  0  0  0  0
  160.3560  201.7650  146.5140 C   0  0  0  0  0  2  0  0  0  0  0  0
  160.2010  206.2020  147.2120 C   0  0  0  0  0  1  0  0  0  0  0  0
  162.4820  206.7030  148.0370 C   0  0  0  0  0  1  0  0  0  0  0  0
  161.3560  205.6910  148.0590 C   0  0  0  0  0  3  0  0  0  0  0  0
  1  4  1  0  0  0  0
  2 31  1  0  0  0  0
  2  4  2  0  0  0  0
  3  6  2  0  0  0  0
  3  5  1  0  0  0  0
  4  8  1  0  0  0  0
  5  1  2  0  0  0  0
  6  2  1  0  0  0  0
  8  7  1  1  0  0  0
  8 10  1  0  0  0  0
  9 10  2  0  0  0  0
 10 11  1  0  0  0  0
 11 13  1  0  0  0  0
 12 13  1  0  0  0  0
 14  5  1  0  0  0  0
 15 14  1  0  0  0  0
 16 21  2  0  0  0  0
 16 22  1  0  0  0  0
 17 25  1  0  0  0  0
 18 16  1  0  0  0  0
 19 23  2  0  0  0  0
 20 23  1  0  0  0  0
 20 15  1  0  0  0  0
 21 24  1  0  0  0  0
 22 19  1  0  0  0  0
 24 20  2  0  0  0  0
 25 21  1  0  0  0  0
 26 17  2  0  0  0  0
 26 18  1  0  0  0  0
 27 26  1  0  0  0  0
 28 27  1  0  0  0  0
 28 30  1  0  0  0  0
 29 28  1  0  0  0  0
 32 31  1  0  0  0  0
 33 34  2  0  0  0  0
 34 32  1  0  0  0  0
 35 40  1  0  0  0  0
 36 41  1  0  0  0  0
 36 42  1  0  0  0  0
 37 45  1  1  0  0  0
 37 39  1  0  0  0  0
 38 34  1  1  0  0  0
 39 40  1  0  0  0  0
 39 38  1  0  0  0  0
 40 38  1  0  0  0  0
 41 37  1  0  0  0  0
 42 35  1  0  0  0  0
 43 45  1  0  0  0  0
 44 45  1  0  0  0  0
M  END
>  <MODEL>
8

>  <REMARK>
 VINA RESULT:      -5.3      1.764      2.465
  Name = 
  13 active torsions:
  status: ('A' for Active; 'I' for Inactive)
    1  A    between atoms: C_1  and  N_15
    2  A    between atoms: C_1  and  C_26
    3  A    between atoms: C_4  and  C_10
    4  A    between atoms: C_9  and  C_28
    5  A    between atoms: C_10  and  C_44
    6  A    between atoms: C_12  and  C_37
    7  A    between atoms: N_15  and  C_29
    8  A    between atoms: C_16  and  C_33
    9  A    between atoms: N_18  and  C_42
   10  A    between atoms: C_21  and  C_35
   11  A    between atoms: C_24  and  C_33
   12  A    between atoms: C_28  and  S_39
   13  A    between atoms: C_35  and  S_39
                            x       y       z     vdW  Elec       q    Type
                         _______ _______ _______ _____ _____    ______ ____

>  <TORSDO>
F 13

$$$$
=
 OpenBabel11042421363D

 45 49  0  0  1  0  0  0  0  0999 V2000
  161.4390  206.8900  150.2580 C   0  0  0  0  0  3  0  0  0  0  0  0
  161.9760  209.1060  149.4120 C   0  0  0  0  0  0  0  0  0  0  0  0
  161.4620  208.7670  151.7670 C   0  0  0  0  0  3  0  0  0  0  0  0
  161.7960  207.7200  149.1880 C   0  0  0  0  0  0  0  0  0  0  0  0
  161.2530  207.4070  151.5430 C   0  0  0  0  0  0  0  0  0  0  0  0
  161.8210  209.6080  150.7140 C   0  0  0  0  0  3  0  0  0  0  0  0
  163.2240  206.2950  147.8630 O   0  0  0  0  0  1  0  0  0  0  0  0
  162.0460  207.0470  147.8620 C   0  0  1  0  0  3  0  0  0  0  0  0
  159.9320  205.9860  148.2290 O   0  0  0  0  0  0  0  0  0  0  0  0
  160.8740  206.2190  147.4270 C   0  0  0  0  0  0  0  0  0  0  0  0
  160.8010  205.6970  146.1000 N   0  0  0  0  0  2  0  0  0  0  0  0
  161.5400  205.2020  143.9500 O   0  0  0  0  0  1  0  0  0  0  0  0
  161.8890  205.8280  145.1470 C   0  0  0  0  0  2  0  0  0  0  0  0
  160.9000  206.5570  152.6380 N   0  0  0  0  0  2  0  0  0  0  0  0
  161.6570  206.4840  153.8840 C   0  0  0  0  0  2  0  0  0  0  0  0
  159.6920  209.8460  156.2360 C   0  0  0  0  0  0  0  0  0  0  0  0
  159.7840  212.1870  154.5910 C   0  0  0  0  0  3  0  0  0  0  0  0
  158.8600  210.8740  156.4250 C   0  0  0  0  0  2  0  0  0  0  0  0
  160.1270  207.6360  157.1630 N   0  0  0  0  0  0  0  0  0  0  0  0
  161.1160  207.4490  154.8860 C   0  0  0  0  0  0  0  0  0  0  0  0
  160.6490  209.9130  155.1100 C   0  0  0  0  0  0  0  0  0  0  0  0
  159.7180  208.8410  157.2500 N   0  0  0  0  0  2  0  0  0  0  0  0
  160.6500  206.9410  156.0260 C   0  0  0  0  0  3  0  0  0  0  0  0
  161.2410  208.8690  154.5530 C   0  0  0  0  0  3  0  0  0  0  0  0
  160.9600  211.2570  154.5160 C   0  0  0  0  0  2  0  0  0  0  0  0
  158.8320  212.0320  155.5130 C   0  0  0  0  0  0  0  0  0  0  0  0
  157.7200  213.0170  155.5950 C   0  0  0  0  0  2  0  0  0  0  0  0
  156.3690  212.3210  155.5250 C   0  0  0  0  0  3  0  0  0  0  0  0
  155.7100  212.4460  156.7480 O   0  0  0  0  0  1  0  0  0  0  0  0
  155.6020  212.9120  154.5260 O   0  0  0  0  0  1  0  0  0  0  0  0
  162.3490  210.0220  148.2780 C   0  0  0  0  0  2  0  0  0  0  0  0
  161.0170  211.1540  147.7390 S   0  0  0  0  0  0  0  0  0  0  0  0
  162.6530  213.1320  148.3860 O   0  0  0  0  0  0  0  0  0  0  0  0
  162.0730  212.5860  147.4610 C   0  0  0  0  0  0  0  0  0  0  0  0
  161.1310  212.9570  143.6800 C   0  0  0  0  0  2  0  0  0  0  0  0
  159.1910  214.4360  143.7970 O   0  0  0  0  0  0  0  0  0  0  0  0
  159.5690  214.2410  146.2070 C   0  0  1  0  0  3  0  0  0  0  0  0
  162.1850  213.1380  146.0740 C   0  0  2  0  0  3  0  0  0  0  0  0
  161.0400  214.1060  145.7520 C   0  0  1  0  0  3  0  0  0  0  0  0
  161.0670  212.6950  145.1710 C   0  0  1  0  0  3  0  0  0  0  0  0
  158.5870  214.0600  145.0170 C   0  0  0  0  0  2  0  0  0  0  0  0
  159.6970  213.2580  143.2050 C   0  0  0  0  0  2  0  0  0  0  0  0
  157.7210  212.9930  147.4400 C   0  0  0  0  0  1  0  0  0  0  0  0
  159.2890  214.4530  148.6820 C   0  0  0  0  0  1  0  0  0  0  0  0
  159.1470  213.5200  147.4980 C   0  0  0  0  0  3  0  0  0  0  0  0
  1  5  1  0  0  0  0
  2  6  2  0  0  0  0
  4  2  1  0  0  0  0
  4  1  2  0  0  0  0
  5  3  2  0  0  0  0
  5 14  1  0  0  0  0
  6  3  1  0  0  0  0
  8  7  1  1  0  0  0
  8  4  1  0  0  0  0
 10  8  1  0  0  0  0
 10  9  2  0  0  0  0
 11 10  1  0  0  0  0
 12 13  1  0  0  0  0
 13 11  1  0  0  0  0
 14 15  1  0  0  0  0
 15 20  1  0  0  0  0
 16 18  1  0  0  0  0
 16 22  1  0  0  0  0
 17 26  2  0  0  0  0
 19 22  1  0  0  0  0
 20 23  1  0  0  0  0
 21 16  2  0  0  0  0
 23 19  2  0  0  0  0
 24 20  2  0  0  0  0
 24 21  1  0  0  0  0
 25 17  1  0  0  0  0
 25 21  1  0  0  0  0
 26 27  1  0  0  0  0
 26 18  1  0  0  0  0
 28 27  1  0  0  0  0
 28 29  1  0  0  0  0
 30 28  1  0  0  0  0
 31  2  1  0  0  0  0
 32 31  1  0  0  0  0
 34 32  1  0  0  0  0
 34 33  2  0  0  0  0
 35 40  1  0  0  0  0
 36 41  1  0  0  0  0
 37 45  1  1  0  0  0
 38 34  1  1  0  0  0
 39 38  1  0  0  0  0
 39 37  1  0  0  0  0
 40 39  1  0  0  0  0
 40 38  1  0  0  0  0
 41 37  1  0  0  0  0
 42 35  1  0  0  0  0
 42 36  1  0  0  0  0
 43 45  1  0  0  0  0
 45 44  1  0  0  0  0
M  END
>  <MODEL>
9

>  <REMARK>
 VINA RESULT:      -5.2      3.529     10.385
  Name = 
  13 active torsions:
  status: ('A' for Active; 'I' for Inactive)
    1  A    between atoms: C_1  and  N_15
    2  A    between atoms: C_1  and  C_26
    3  A    between atoms: C_4  and  C_10
    4  A    between atoms: C_9  and  C_28
    5  A    between atoms: C_10  and  C_44
    6  A    between atoms: C_12  and  C_37
    7  A    between atoms: N_15  and  C_29
    8  A    between atoms: C_16  and  C_33
    9  A    between atoms: N_18  and  C_42
   10  A    between atoms: C_21  and  C_35
   11  A    between atoms: C_24  and  C_33
   12  A    between atoms: C_28  and  S_39
   13  A    between atoms: C_35  and  S_39
                            x       y       z     vdW  Elec       q    Type
                         _______ _______ _______ _____ _____    ______ ____

>  <TORSDO>
F 13

$$$$
