=
 OpenBabel11042421143D

 32 35  0  0  1  0  0  0  0  0999 V2000
  160.8930  210.0830  152.1290 N   0  0  0  0  0  0  0  0  0  0  0  0
  160.6360  207.2950  155.6860 C   0  0  0  0  0  3  0  0  0  0  0  0
  161.7850  207.9410  151.3820 C   0  0  0  0  0  0  0  0  0  0  0  0
  162.0860  206.7530  151.6750 O   0  0  0  0  0  0  0  0  0  0  0  0
  159.9480  209.6440  155.5700 C   0  0  0  0  0  3  0  0  0  0  0  0
  160.3870  210.6150  153.2690 C   0  0  0  0  0  0  0  0  0  0  0  0
  161.0560  207.3260  154.3430 C   0  0  0  0  0  3  0  0  0  0  0  0
  160.3790  209.6410  154.2450 C   0  0  0  0  0  0  0  0  0  0  0  0
  160.0850  208.4450  156.2950 C   0  0  0  0  0  3  0  0  0  0  0  0
  160.9100  208.5290  153.6500 C   0  0  0  0  0  0  0  0  0  0  0  0
  161.2160  208.8160  152.3690 N   0  0  0  0  0  0  0  0  0  0  0  0
  159.8580  212.0090  153.3880 C   0  0  1  0  0  3  0  0  0  0  0  0
  159.3800  212.5030  152.0370 C   0  0  0  0  0  2  0  0  0  0  0  0
  158.3750  212.0240  153.0610 C   0  0  2  0  0  3  0  0  0  0  0  0
  157.7350  213.2220  153.7360 C   0  0  0  0  0  2  0  0  0  0  0  0
  156.4220  212.8290  154.3940 C   0  0  0  0  0  2  0  0  0  0  0  0
  156.6340  212.3860  155.8380 C   0  0  2  0  0  3  0  0  0  0  0  0
  155.6600  211.2810  156.2440 C   0  0  0  0  0  2  0  0  0  0  0  0
  155.4000  210.3790  155.1320 N   0  0  0  0  0  1  0  0  0  0  0  0
  156.4990  213.5310  156.7250 N   0  0  0  0  0  2  0  0  0  0  0  0
  155.2530  214.1940  156.3810 C   0  0  0  0  0  1  0  0  0  0  0  0
  161.9980  208.4180  149.9830 C   0  0  0  0  0  2  0  0  0  0  0  0
  162.9200  207.1920  148.1620 O   0  0  0  0  0  0  0  0  0  0  0  0
  161.0140  206.2610  149.1290 N   0  0  0  0  0  2  0  0  0  0  0  0
  162.0240  207.2620  149.0440 C   0  0  0  0  0  0  0  0  0  0  0  0
  161.0000  205.1720  148.2450 N   0  0  0  0  0  2  0  0  0  0  0  0
  160.8800  202.2670  150.5740 C   0  0  0  0  0  3  0  0  0  0  0  0
  161.0030  203.8250  148.7190 C   0  0  0  0  0  0  0  0  0  0  0  0
  160.8780  203.5800  150.0910 C   0  0  0  0  0  3  0  0  0  0  0  0
  161.0050  201.1950  149.6850 C   0  0  0  0  0  3  0  0  0  0  0  0
  161.1290  202.7470  147.8300 C   0  0  0  0  0  3  0  0  0  0  0  0
  161.1300  201.4350  148.3130 C   0  0  0  0  0  3  0  0  0  0  0  0
  1 11  1  0  0  0  0
  1  6  2  0  0  0  0
  2  9  1  0  0  0  0
  3  4  2  0  0  0  0
  3 11  1  0  0  0  0
  5  9  2  0  0  0  0
  6  8  1  0  0  0  0
  7  2  2  0  0  0  0
  8  5  1  0  0  0  0
 10  8  2  0  0  0  0
 10  7  1  0  0  0  0
 11 10  1  0  0  0  0
 12  6  1  6  0  0  0
 13 14  1  0  0  0  0
 13 12  1  0  0  0  0
 14 12  1  0  0  0  0
 14 15  1  1  0  0  0
 15 16  1  0  0  0  0
 17 16  1  6  0  0  0
 17 18  1  0  0  0  0
 17 20  1  0  0  0  0
 19 18  1  0  0  0  0
 21 20  1  0  0  0  0
 22  3  1  0  0  0  0
 23 25  2  0  0  0  0
 25 24  1  0  0  0  0
 25 22  1  0  0  0  0
 26 28  1  0  0  0  0
 26 24  1  0  0  0  0
 28 29  2  0  0  0  0
 29 27  1  0  0  0  0
 30 27  2  0  0  0  0
 31 32  2  0  0  0  0
 31 28  1  0  0  0  0
 32 30  1  0  0  0  0
M  END
>  <MODEL>
1

>  <REMARK>
 VINA RESULT:      -7.9      0.000      0.000
  Name = 
  10 active torsions:
  status: ('A' for Active; 'I' for Inactive)
    1  A    between atoms: C_1  and  C_5
    2  A    between atoms: N_3  and  C_14
    3  A    between atoms: N_3  and  N_27
    4  A    between atoms: C_5  and  N_16
    5  A    between atoms: C_5  and  C_25
    6  A    between atoms: C_6  and  C_9
    7  A    between atoms: C_6  and  C_30
    8  A    between atoms: C_8  and  C_17
    9  A    between atoms: C_21  and  C_25
   10  A    between atoms: C_21  and  C_28
                            x       y       z     vdW  Elec       q    Type
                         _______ _______ _______ _____ _____    ______ ____

>  <TORSDO>
F 10

$$$$
=
 OpenBabel11042421143D

 32 35  0  0  1  0  0  0  0  0999 V2000
  161.1880  207.8640  150.9110 N   0  0  0  0  0  0  0  0  0  0  0  0
  160.9980  203.6100  152.4460 C   0  0  0  0  0  3  0  0  0  0  0  0
  161.2640  208.0130  153.3430 C   0  0  0  0  0  0  0  0  0  0  0  0
  161.2360  207.4070  154.4480 O   0  0  0  0  0  0  0  0  0  0  0  0
  160.9760  204.3650  150.1140 C   0  0  0  0  0  3  0  0  0  0  0  0
  161.0950  206.8940  149.9690 C   0  0  0  0  0  0  0  0  0  0  0  0
  161.0750  204.9400  152.9020 C   0  0  0  0  0  3  0  0  0  0  0  0
  161.0480  205.6690  150.6010 C   0  0  0  0  0  0  0  0  0  0  0  0
  160.9500  203.3250  151.0630 C   0  0  0  0  0  3  0  0  0  0  0  0
  161.0980  205.9500  151.9390 C   0  0  0  0  0  0  0  0  0  0  0  0
  161.1810  207.2860  152.1080 N   0  0  0  0  0  0  0  0  0  0  0  0
  161.1260  207.1420  148.4950 C   0  0  1  0  0  3  0  0  0  0  0  0
  162.3120  208.0170  148.1370 C   0  0  0  0  0  2  0  0  0  0  0  0
  162.3790  206.5260  147.8970 C   0  0  2  0  0  3  0  0  0  0  0  0
  162.1340  206.2420  146.4280 C   0  0  0  0  0  2  0  0  0  0  0  0
  162.8530  204.9720  145.9990 C   0  0  0  0  0  2  0  0  0  0  0  0
  161.8910  203.9780  145.3590 C   0  0  2  0  0  3  0  0  0  0  0  0
  160.7790  204.6800  144.5810 C   0  0  0  0  0  2  0  0  0  0  0  0
  161.3240  205.4550  143.4760 N   0  0  0  0  0  1  0  0  0  0  0  0
  161.3230  203.1170  146.3860 N   0  0  0  0  0  2  0  0  0  0  0  0
  160.7530  201.9640  145.7100 C   0  0  0  0  0  1  0  0  0  0  0  0
  161.4170  209.4980  153.3350 C   0  0  0  0  0  2  0  0  0  0  0  0
  161.6870  210.5150  155.4720 O   0  0  0  0  0  0  0  0  0  0  0  0
  159.4820  210.1000  154.8350 N   0  0  0  0  0  2  0  0  0  0  0  0
  160.8880  210.0770  154.6020 C   0  0  0  0  0  0  0  0  0  0  0  0
  158.9560  210.6190  156.0260 N   0  0  0  0  0  2  0  0  0  0  0  0
  156.3870  213.0310  157.2330 C   0  0  0  0  0  3  0  0  0  0  0  0
  157.8500  211.5220  156.0230 C   0  0  0  0  0  0  0  0  0  0  0  0
  157.4690  212.1450  157.2160 C   0  0  0  0  0  3  0  0  0  0  0  0
  155.6830  213.2980  156.0550 C   0  0  0  0  0  3  0  0  0  0  0  0
  157.1410  211.7910  154.8430 C   0  0  0  0  0  3  0  0  0  0  0  0
  156.0600  212.6780  154.8590 C   0  0  0  0  0  3  0  0  0  0  0  0
  1 11  1  0  0  0  0
  2  7  1  0  0  0  0
  3  4  2  0  0  0  0
  5  8  2  0  0  0  0
  5  9  1  0  0  0  0
  6  8  1  0  0  0  0
  6  1  2  0  0  0  0
  8 10  1  0  0  0  0
  9  2  2  0  0  0  0
 10 11  1  0  0  0  0
 10  7  2  0  0  0  0
 11  3  1  0  0  0  0
 12  6  1  1  0  0  0
 13 12  1  0  0  0  0
 14 15  1  6  0  0  0
 14 13  1  0  0  0  0
 14 12  1  0  0  0  0
 16 15  1  0  0  0  0
 17 18  1  1  0  0  0
 17 16  1  0  0  0  0
 17 20  1  0  0  0  0
 19 18  1  0  0  0  0
 21 20  1  0  0  0  0
 22  3  1  0  0  0  0
 22 25  1  0  0  0  0
 24 26  1  0  0  0  0
 25 24  1  0  0  0  0
 25 23  2  0  0  0  0
 28 26  1  0  0  0  0
 28 29  2  0  0  0  0
 29 27  1  0  0  0  0
 30 27  2  0  0  0  0
 31 32  2  0  0  0  0
 31 28  1  0  0  0  0
 32 30  1  0  0  0  0
M  END
>  <MODEL>
2

>  <REMARK>
 VINA RESULT:      -7.9      2.421      9.831
  Name = 
  10 active torsions:
  status: ('A' for Active; 'I' for Inactive)
    1  A    between atoms: C_1  and  C_5
    2  A    between atoms: N_3  and  C_14
    3  A    between atoms: N_3  and  N_27
    4  A    between atoms: C_5  and  N_16
    5  A    between atoms: C_5  and  C_25
    6  A    between atoms: C_6  and  C_9
    7  A    between atoms: C_6  and  C_30
    8  A    between atoms: C_8  and  C_17
    9  A    between atoms: C_21  and  C_25
   10  A    between atoms: C_21  and  C_28
                            x       y       z     vdW  Elec       q    Type
                         _______ _______ _______ _____ _____    ______ ____

>  <TORSDO>
F 10

$$$$
=
 OpenBabel11042421143D

 32 35  0  0  1  0  0  0  0  0999 V2000
  161.8200  207.4200  149.8870 N   0  0  0  0  0  0  0  0  0  0  0  0
  160.9080  208.2990  154.2330 C   0  0  0  0  0  3  0  0  0  0  0  0
  161.8510  209.8480  150.1140 C   0  0  0  0  0  0  0  0  0  0  0  0
  161.6960  210.8490  150.8630 O   0  0  0  0  0  0  0  0  0  0  0  0
  161.0710  206.1070  153.1490 C   0  0  0  0  0  3  0  0  0  0  0  0
  161.5990  206.3440  150.6800 C   0  0  0  0  0  0  0  0  0  0  0  0
  161.1840  208.9490  153.0160 C   0  0  0  0  0  3  0  0  0  0  0  0
  161.3380  206.7840  151.9610 C   0  0  0  0  0  0  0  0  0  0  0  0
  160.8530  206.8880  154.3000 C   0  0  0  0  0  3  0  0  0  0  0  0
  161.3950  208.1490  151.8920 C   0  0  0  0  0  0  0  0  0  0  0  0
  161.6870  208.5170  150.6280 N   0  0  0  0  0  0  0  0  0  0  0  0
  161.7100  204.9230  150.2250 C   0  0  1  0  0  3  0  0  0  0  0  0
  160.3820  204.2130  150.4020 C   0  0  0  0  0  2  0  0  0  0  0  0
  160.8010  204.6940  149.0310 C   0  0  2  0  0  3  0  0  0  0  0  0
  161.3310  203.5220  148.2280 C   0  0  0  0  0  2  0  0  0  0  0  0
  161.9850  204.0050  146.9430 C   0  0  0  0  0  2  0  0  0  0  0  0
  161.4980  203.2070  145.7380 C   0  0  2  0  0  3  0  0  0  0  0  0
  160.5830  204.0360  144.8380 C   0  0  0  0  0  2  0  0  0  0  0  0
  160.7700  205.4600  145.0720 N   0  0  0  0  0  1  0  0  0  0  0  0
  160.8090  202.0080  146.1910 N   0  0  0  0  0  2  0  0  0  0  0  0
  160.0300  201.5120  145.0700 C   0  0  0  0  0  1  0  0  0  0  0  0
  162.2410  210.0640  148.6890 C   0  0  0  0  0  2  0  0  0  0  0  0
  162.9160  212.3410  148.5130 O   0  0  0  0  0  0  0  0  0  0  0  0
  160.7700  211.8720  147.7300 N   0  0  0  0  0  2  0  0  0  0  0  0
  162.0160  211.4850  148.3030 C   0  0  0  0  0  0  0  0  0  0  0  0
  160.5210  213.2060  147.3760 N   0  0  0  0  0  2  0  0  0  0  0  0
  159.2680  214.1720  144.0050 C   0  0  0  0  0  3  0  0  0  0  0  0
  160.5140  213.6280  146.0130 C   0  0  0  0  0  0  0  0  0  0  0  0
  159.2940  213.7610  145.3410 C   0  0  0  0  0  3  0  0  0  0  0  0
  160.4630  214.4530  143.3350 C   0  0  0  0  0  3  0  0  0  0  0  0
  161.7110  213.9100  145.3380 C   0  0  0  0  0  3  0  0  0  0  0  0
  161.6850  214.3220  144.0020 C   0  0  0  0  0  3  0  0  0  0  0  0
  1 11  1  0  0  0  0
  1  6  2  0  0  0  0
  2  9  1  0  0  0  0
  3 11  1  0  0  0  0
  3  4  2  0  0  0  0
  5  9  2  0  0  0  0
  6  8  1  0  0  0  0
  7  2  2  0  0  0  0
  8  5  1  0  0  0  0
 10  8  2  0  0  0  0
 10  7  1  0  0  0  0
 11 10  1  0  0  0  0
 12 13  1  0  0  0  0
 12  6  1  1  0  0  0
 14 15  1  6  0  0  0
 14 12  1  0  0  0  0
 14 13  1  0  0  0  0
 16 15  1  0  0  0  0
 17 18  1  1  0  0  0
 17 20  1  0  0  0  0
 17 16  1  0  0  0  0
 18 19  1  0  0  0  0
 21 20  1  0  0  0  0
 22  3  1  0  0  0  0
 24 25  1  0  0  0  0
 25 23  2  0  0  0  0
 25 22  1  0  0  0  0
 26 24  1  0  0  0  0
 27 29  1  0  0  0  0
 28 26  1  0  0  0  0
 29 28  2  0  0  0  0
 30 32  1  0  0  0  0
 30 27  2  0  0  0  0
 31 28  1  0  0  0  0
 32 31  2  0  0  0  0
M  END
>  <MODEL>
3

>  <REMARK>
 VINA RESULT:      -7.8      4.137      9.482
  Name = 
  10 active torsions:
  status: ('A' for Active; 'I' for Inactive)
    1  A    between atoms: C_1  and  C_5
    2  A    between atoms: N_3  and  C_14
    3  A    between atoms: N_3  and  N_27
    4  A    between atoms: C_5  and  N_16
    5  A    between atoms: C_5  and  C_25
    6  A    between atoms: C_6  and  C_9
    7  A    between atoms: C_6  and  C_30
    8  A    between atoms: C_8  and  C_17
    9  A    between atoms: C_21  and  C_25
   10  A    between atoms: C_21  and  C_28
                            x       y       z     vdW  Elec       q    Type
                         _______ _______ _______ _____ _____    ______ ____

>  <TORSDO>
F 10

$$$$
=
 OpenBabel11042421143D

 32 35  0  0  1  0  0  0  0  0999 V2000
  161.1950  208.6240  150.9580 N   0  0  0  0  0  0  0  0  0  0  0  0
  161.0980  204.7310  153.2640 C   0  0  0  0  0  3  0  0  0  0  0  0
  161.2640  209.2280  153.3190 C   0  0  0  0  0  0  0  0  0  0  0  0
  161.2480  208.8400  154.5170 O   0  0  0  0  0  0  0  0  0  0  0  0
  161.0630  205.0340  150.8320 C   0  0  0  0  0  3  0  0  0  0  0  0
  161.1260  207.4930  150.2150 C   0  0  0  0  0  0  0  0  0  0  0  0
  161.1440  206.1240  153.4620 C   0  0  0  0  0  3  0  0  0  0  0  0
  161.1040  206.4070  151.0660 C   0  0  0  0  0  0  0  0  0  0  0  0
  161.0580  204.1900  151.9590 C   0  0  0  0  0  3  0  0  0  0  0  0
  161.1460  206.9350  152.3270 C   0  0  0  0  0  0  0  0  0  0  0  0
  161.2000  208.2800  152.2420 N   0  0  0  0  0  0  0  0  0  0  0  0
  161.1540  207.4600  148.7200 C   0  0  1  0  0  3  0  0  0  0  0  0
  162.3150  208.2850  148.2020 C   0  0  0  0  0  2  0  0  0  0  0  0
  162.4240  206.7780  148.2450 C   0  0  2  0  0  3  0  0  0  0  0  0
  162.1910  206.2160  146.8560 C   0  0  0  0  0  2  0  0  0  0  0  0
  162.4430  204.7170  146.8340 C   0  0  0  0  0  2  0  0  0  0  0  0
  161.8520  204.0730  145.5840 C   0  0  2  0  0  3  0  0  0  0  0  0
  160.8650  205.0010  144.8770 C   0  0  0  0  0  2  0  0  0  0  0  0
  161.4050  205.4710  143.6100 N   0  0  0  0  0  1  0  0  0  0  0  0
  161.2020  202.8210  145.9400 N   0  0  0  0  0  2  0  0  0  0  0  0
  161.2440  202.7130  147.3880 C   0  0  0  0  0  1  0  0  0  0  0  0
  161.3840  210.6890  153.0320 C   0  0  0  0  0  2  0  0  0  0  0  0
  159.0120  210.7320  153.2400 O   0  0  0  0  0  0  0  0  0  0  0  0
  159.9280  212.4120  151.9070 N   0  0  0  0  0  2  0  0  0  0  0  0
  160.0410  211.2700  152.7520 C   0  0  0  0  0  0  0  0  0  0  0  0
  158.6770  212.9690  151.6090 N   0  0  0  0  0  2  0  0  0  0  0  0
  159.0520  214.1000  148.0800 C   0  0  0  0  0  3  0  0  0  0  0  0
  158.3400  213.3840  150.2850 C   0  0  0  0  0  0  0  0  0  0  0  0
  159.3630  213.6900  149.3800 C   0  0  0  0  0  3  0  0  0  0  0  0
  157.7160  214.2040  147.6790 C   0  0  0  0  0  3  0  0  0  0  0  0
  157.0010  213.4900  149.8800 C   0  0  0  0  0  3  0  0  0  0  0  0
  156.6910  213.8990  148.5800 C   0  0  0  0  0  3  0  0  0  0  0  0
  1 11  1  0  0  0  0
  2  7  1  0  0  0  0
  3  4  2  0  0  0  0
  5  8  2  0  0  0  0
  5  9  1  0  0  0  0
  6  1  2  0  0  0  0
  6  8  1  0  0  0  0
  8 10  1  0  0  0  0
  9  2  2  0  0  0  0
 10  7  2  0  0  0  0
 11 10  1  0  0  0  0
 11  3  1  0  0  0  0
 12  6  1  1  0  0  0
 13 14  1  0  0  0  0
 13 12  1  0  0  0  0
 14 15  1  6  0  0  0
 14 12  1  0  0  0  0
 16 15  1  0  0  0  0
 17 18  1  1  0  0  0
 17 20  1  0  0  0  0
 17 16  1  0  0  0  0
 19 18  1  0  0  0  0
 20 21  1  0  0  0  0
 22  3  1  0  0  0  0
 24 25  1  0  0  0  0
 25 22  1  0  0  0  0
 25 23  2  0  0  0  0
 26 24  1  0  0  0  0
 27 29  1  0  0  0  0
 28 26  1  0  0  0  0
 29 28  2  0  0  0  0
 30 27  2  0  0  0  0
 30 32  1  0  0  0  0
 31 28  1  0  0  0  0
 32 31  2  0  0  0  0
M  END
>  <MODEL>
4

>  <REMARK>
 VINA RESULT:      -7.8      3.229      9.292
  Name = 
  10 active torsions:
  status: ('A' for Active; 'I' for Inactive)
    1  A    between atoms: C_1  and  C_5
    2  A    between atoms: N_3  and  C_14
    3  A    between atoms: N_3  and  N_27
    4  A    between atoms: C_5  and  N_16
    5  A    between atoms: C_5  and  C_25
    6  A    between atoms: C_6  and  C_9
    7  A    between atoms: C_6  and  C_30
    8  A    between atoms: C_8  and  C_17
    9  A    between atoms: C_21  and  C_25
   10  A    between atoms: C_21  and  C_28
                            x       y       z     vdW  Elec       q    Type
                         _______ _______ _______ _____ _____    ______ ____

>  <TORSDO>
F 10

$$$$
=
 OpenBabel11042421143D

 32 35  0  0  1  0  0  0  0  0999 V2000
  160.5200  209.6950  151.9710 N   0  0  0  0  0  0  0  0  0  0  0  0
  160.8260  207.0230  155.6120 C   0  0  0  0  0  3  0  0  0  0  0  0
  161.8390  207.7600  151.2900 C   0  0  0  0  0  0  0  0  0  0  0  0
  162.3770  206.6700  151.6190 O   0  0  0  0  0  0  0  0  0  0  0  0
  159.6690  209.1750  155.4250 C   0  0  0  0  0  3  0  0  0  0  0  0
  159.9100  210.1450  153.0940 C   0  0  0  0  0  0  0  0  0  0  0  0
  161.2380  207.0990  154.2680 C   0  0  0  0  0  3  0  0  0  0  0  0
  160.0980  209.2200  154.1000 C   0  0  0  0  0  0  0  0  0  0  0  0
  160.0470  208.0530  156.1860 C   0  0  0  0  0  3  0  0  0  0  0  0
  160.8500  208.2240  153.5390 C   0  0  0  0  0  0  0  0  0  0  0  0
  161.0970  208.5290  152.2490 N   0  0  0  0  0  0  0  0  0  0  0  0
  159.1040  211.4020  153.1720 C   0  0  1  0  0  3  0  0  0  0  0  0
  159.7100  212.3490  154.1880 C   0  0  0  0  0  2  0  0  0  0  0  0
  159.9440  212.5800  152.7120 C   0  0  2  0  0  3  0  0  0  0  0  0
  159.0230  213.6800  152.2230 C   0  0  0  0  0  2  0  0  0  0  0  0
  159.6570  214.4360  151.0660 C   0  0  0  0  0  2  0  0  0  0  0  0
  158.7500  214.4400  149.8400 C   0  0  2  0  0  3  0  0  0  0  0  0
  157.4950  213.5970  150.0590 C   0  0  0  0  0  2  0  0  0  0  0  0
  157.0750  212.9540  148.8220 N   0  0  0  0  0  1  0  0  0  0  0  0
  159.4890  213.9560  148.6840 N   0  0  0  0  0  2  0  0  0  0  0  0
  160.7480  213.4220  149.1730 C   0  0  0  0  0  1  0  0  0  0  0  0
  161.9560  208.2280  149.8760 C   0  0  0  0  0  2  0  0  0  0  0  0
  162.7240  206.9970  147.9880 O   0  0  0  0  0  0  0  0  0  0  0  0
  160.9150  206.0600  149.1220 N   0  0  0  0  0  2  0  0  0  0  0  0
  161.9080  207.0680  148.9440 C   0  0  0  0  0  0  0  0  0  0  0  0
  160.8310  204.9670  148.2490 N   0  0  0  0  0  2  0  0  0  0  0  0
  161.2080  201.2610  148.2640 C   0  0  0  0  0  3  0  0  0  0  0  0
  160.9070  203.6230  148.7250 C   0  0  0  0  0  0  0  0  0  0  0  0
  161.1320  202.5840  147.8160 C   0  0  0  0  0  3  0  0  0  0  0  0
  161.0600  200.9740  149.6240 C   0  0  0  0  0  3  0  0  0  0  0  0
  160.7590  203.3310  150.0890 C   0  0  0  0  0  3  0  0  0  0  0  0
  160.8350  202.0090  150.5370 C   0  0  0  0  0  3  0  0  0  0  0  0
  1 11  1  0  0  0  0
  1  6  2  0  0  0  0
  2  9  1  0  0  0  0
  3  4  2  0  0  0  0
  3 11  1  0  0  0  0
  5  9  2  0  0  0  0
  6  8  1  0  0  0  0
  7  2  2  0  0  0  0
  8  5  1  0  0  0  0
 10  8  2  0  0  0  0
 10  7  1  0  0  0  0
 11 10  1  0  0  0  0
 12  6  1  1  0  0  0
 12 13  1  0  0  0  0
 14 15  1  6  0  0  0
 14 12  1  0  0  0  0
 14 13  1  0  0  0  0
 16 15  1  0  0  0  0
 17 18  1  1  0  0  0
 17 16  1  0  0  0  0
 19 18  1  0  0  0  0
 20 21  1  0  0  0  0
 20 17  1  0  0  0  0
 22  3  1  0  0  0  0
 23 25  2  0  0  0  0
 25 24  1  0  0  0  0
 25 22  1  0  0  0  0
 26 28  1  0  0  0  0
 26 24  1  0  0  0  0
 27 30  1  0  0  0  0
 28 31  2  0  0  0  0
 29 27  2  0  0  0  0
 29 28  1  0  0  0  0
 30 32  2  0  0  0  0
 31 32  1  0  0  0  0
M  END
>  <MODEL>
5

>  <REMARK>
 VINA RESULT:      -7.5      2.317      3.357
  Name = 
  10 active torsions:
  status: ('A' for Active; 'I' for Inactive)
    1  A    between atoms: C_1  and  C_5
    2  A    between atoms: N_3  and  C_14
    3  A    between atoms: N_3  and  N_27
    4  A    between atoms: C_5  and  N_16
    5  A    between atoms: C_5  and  C_25
    6  A    between atoms: C_6  and  C_9
    7  A    between atoms: C_6  and  C_30
    8  A    between atoms: C_8  and  C_17
    9  A    between atoms: C_21  and  C_25
   10  A    between atoms: C_21  and  C_28
                            x       y       z     vdW  Elec       q    Type
                         _______ _______ _______ _____ _____    ______ ____

>  <TORSDO>
F 10

$$$$
=
 OpenBabel11042421143D

 32 35  0  0  1  0  0  0  0  0999 V2000
  161.5520  206.9340  152.8850 N   0  0  0  0  0  0  0  0  0  0  0  0
  161.9620  209.6040  149.2530 C   0  0  0  0  0  3  0  0  0  0  0  0
  161.2320  209.2180  153.6770 C   0  0  0  0  0  0  0  0  0  0  0  0
  161.2070  210.4460  153.4000 O   0  0  0  0  0  0  0  0  0  0  0  0
  162.1400  207.1620  149.3460 C   0  0  0  0  0  3  0  0  0  0  0  0
  161.8170  206.3090  151.7120 C   0  0  0  0  0  0  0  0  0  0  0  0
  161.7270  209.6650  150.6390 C   0  0  0  0  0  3  0  0  0  0  0  0
  161.9100  207.2590  150.7170 C   0  0  0  0  0  0  0  0  0  0  0  0
  162.1660  208.3620  148.6100 C   0  0  0  0  0  3  0  0  0  0  0  0
  161.7090  208.4590  151.3420 C   0  0  0  0  0  0  0  0  0  0  0  0
  161.4950  208.2420  152.6560 N   0  0  0  0  0  0  0  0  0  0  0  0
  161.9050  204.8250  151.5470 C   0  0  1  0  0  3  0  0  0  0  0  0
  160.8190  204.1440  152.3570 C   0  0  0  0  0  2  0  0  0  0  0  0
  160.6510  204.3100  150.8630 C   0  0  2  0  0  3  0  0  0  0  0  0
  160.9710  202.9980  150.1730 C   0  0  0  0  0  2  0  0  0  0  0  0
  161.1670  203.2110  148.6800 C   0  0  0  0  0  2  0  0  0  0  0  0
  160.7000  202.0000  147.8800 C   0  0  2  0  0  3  0  0  0  0  0  0
  161.4810  200.7390  148.2470 C   0  0  0  0  0  2  0  0  0  0  0  0
  161.5770  199.8340  147.1120 N   0  0  0  0  0  1  0  0  0  0  0  0
  160.8260  202.2750  146.4570 N   0  0  0  0  0  2  0  0  0  0  0  0
  161.6210  203.4840  146.3240 C   0  0  0  0  0  1  0  0  0  0  0  0
  160.9520  208.7850  155.0790 C   0  0  0  0  0  2  0  0  0  0  0  0
  161.0740  210.6080  156.6070 O   0  0  0  0  0  0  0  0  0  0  0  0
  158.9500  210.1560  155.7590 N   0  0  0  0  0  2  0  0  0  0  0  0
  160.3500  209.9060  155.8530 C   0  0  0  0  0  0  0  0  0  0  0  0
  158.3500  211.1910  156.4910 N   0  0  0  0  0  2  0  0  0  0  0  0
  155.6450  213.7280  156.1470 C   0  0  0  0  0  3  0  0  0  0  0  0
  157.4030  212.0770  155.8940 C   0  0  0  0  0  0  0  0  0  0  0  0
  156.5800  212.8560  156.7140 C   0  0  0  0  0  3  0  0  0  0  0  0
  155.5300  213.8240  154.7570 C   0  0  0  0  0  3  0  0  0  0  0  0
  157.2850  212.1750  154.5000 C   0  0  0  0  0  3  0  0  0  0  0  0
  156.3510  213.0470  153.9330 C   0  0  0  0  0  3  0  0  0  0  0  0
  2  7  1  0  0  0  0
  3 22  1  0  0  0  0
  4  3  2  0  0  0  0
  5  8  2  0  0  0  0
  6  1  2  0  0  0  0
  7 10  2  0  0  0  0
  8 10  1  0  0  0  0
  8  6  1  0  0  0  0
  9  2  2  0  0  0  0
  9  5  1  0  0  0  0
 10 11  1  0  0  0  0
 11  1  1  0  0  0  0
 11  3  1  0  0  0  0
 12  6  1  1  0  0  0
 12 13  1  0  0  0  0
 14 15  1  6  0  0  0
 14 12  1  0  0  0  0
 14 13  1  0  0  0  0
 16 15  1  0  0  0  0
 17 18  1  1  0  0  0
 17 16  1  0  0  0  0
 19 18  1  0  0  0  0
 20 17  1  0  0  0  0
 21 20  1  0  0  0  0
 22 25  1  0  0  0  0
 24 25  1  0  0  0  0
 24 26  1  0  0  0  0
 25 23  2  0  0  0  0
 27 29  1  0  0  0  0
 28 26  1  0  0  0  0
 28 29  2  0  0  0  0
 30 27  2  0  0  0  0
 31 28  1  0  0  0  0
 32 31  2  0  0  0  0
 32 30  1  0  0  0  0
M  END
>  <MODEL>
6

>  <REMARK>
 VINA RESULT:      -7.4      2.235     10.044
  Name = 
  10 active torsions:
  status: ('A' for Active; 'I' for Inactive)
    1  A    between atoms: C_1  and  C_5
    2  A    between atoms: N_3  and  C_14
    3  A    between atoms: N_3  and  N_27
    4  A    between atoms: C_5  and  N_16
    5  A    between atoms: C_5  and  C_25
    6  A    between atoms: C_6  and  C_9
    7  A    between atoms: C_6  and  C_30
    8  A    between atoms: C_8  and  C_17
    9  A    between atoms: C_21  and  C_25
   10  A    between atoms: C_21  and  C_28
                            x       y       z     vdW  Elec       q    Type
                         _______ _______ _______ _____ _____    ______ ____

>  <TORSDO>
F 10

$$$$
=
 OpenBabel11042421143D

 32 35  0  0  1  0  0  0  0  0999 V2000
  161.1680  207.7430  150.0020 N   0  0  0  0  0  0  0  0  0  0  0  0
  161.1090  204.1710  152.7810 C   0  0  0  0  0  3  0  0  0  0  0  0
  161.5610  208.6160  152.2440 C   0  0  0  0  0  0  0  0  0  0  0  0
  161.6670  208.3760  153.4760 O   0  0  0  0  0  0  0  0  0  0  0  0
  160.7970  204.1840  150.3500 C   0  0  0  0  0  3  0  0  0  0  0  0
  160.9380  206.5400  149.4220 C   0  0  0  0  0  0  0  0  0  0  0  0
  161.2660  205.5690  152.7940 C   0  0  0  0  0  3  0  0  0  0  0  0
  160.9530  205.5680  150.4000 C   0  0  0  0  0  0  0  0  0  0  0  0
  160.8770  203.4830  151.5680 C   0  0  0  0  0  3  0  0  0  0  0  0
  161.1800  206.2380  151.5720 C   0  0  0  0  0  0  0  0  0  0  0  0
  161.3070  207.5550  151.3110 N   0  0  0  0  0  0  0  0  0  0  0  0
  160.7820  206.3280  147.9490 C   0  0  1  0  0  3  0  0  0  0  0  0
  161.9300  206.9800  147.2040 C   0  0  0  0  0  2  0  0  0  0  0  0
  161.9320  205.4840  147.4280 C   0  0  2  0  0  3  0  0  0  0  0  0
  161.4920  204.7850  146.1570 C   0  0  0  0  0  2  0  0  0  0  0  0
  161.9700  203.3420  146.1450 C   0  0  0  0  0  2  0  0  0  0  0  0
  160.9600  202.4160  146.8140 C   0  0  2  0  0  3  0  0  0  0  0  0
  161.4090  202.0010  148.2150 C   0  0  0  0  0  2  0  0  0  0  0  0
  161.2010  200.5770  148.4300 N   0  0  0  0  0  1  0  0  0  0  0  0
  160.7480  201.2410  145.9830 N   0  0  0  0  0  2  0  0  0  0  0  0
  159.8790  201.6420  144.8900 C   0  0  0  0  0  1  0  0  0  0  0  0
  161.7360  210.0190  151.7620 C   0  0  0  0  0  2  0  0  0  0  0  0
  159.6060  210.3240  152.7820 O   0  0  0  0  0  0  0  0  0  0  0  0
  160.4510  212.1840  151.6590 N   0  0  0  0  0  2  0  0  0  0  0  0
  160.5420  210.8360  152.1130 C   0  0  0  0  0  0  0  0  0  0  0  0
  159.3300  212.9730  151.9550 N   0  0  0  0  0  2  0  0  0  0  0  0
  156.1630  214.0780  150.3360 C   0  0  0  0  0  3  0  0  0  0  0  0
  158.3960  213.3540  150.9450 C   0  0  0  0  0  0  0  0  0  0  0  0
  157.0920  213.7030  151.3130 C   0  0  0  0  0  3  0  0  0  0  0  0
  156.5360  214.1050  148.9890 C   0  0  0  0  0  3  0  0  0  0  0  0
  158.7670  213.3810  149.5930 C   0  0  0  0  0  3  0  0  0  0  0  0
  157.8380  213.7570  148.6170 C   0  0  0  0  0  3  0  0  0  0  0  0
  1 11  1  0  0  0  0
  2  7  1  0  0  0  0
  3  4  2  0  0  0  0
  5  8  2  0  0  0  0
  5  9  1  0  0  0  0
  6  1  2  0  0  0  0
  6  8  1  0  0  0  0
  8 10  1  0  0  0  0
  9  2  2  0  0  0  0
 10  7  2  0  0  0  0
 11 10  1  0  0  0  0
 11  3  1  0  0  0  0
 12  6  1  1  0  0  0
 13 14  1  0  0  0  0
 13 12  1  0  0  0  0
 14 15  1  6  0  0  0
 14 12  1  0  0  0  0
 16 15  1  0  0  0  0
 17 16  1  6  0  0  0
 17 18  1  0  0  0  0
 18 19  1  0  0  0  0
 20 17  1  0  0  0  0
 21 20  1  0  0  0  0
 22 25  1  0  0  0  0
 22  3  1  0  0  0  0
 24 26  1  0  0  0  0
 24 25  1  0  0  0  0
 25 23  2  0  0  0  0
 27 29  1  0  0  0  0
 28 29  2  0  0  0  0
 28 26  1  0  0  0  0
 30 27  2  0  0  0  0
 31 28  1  0  0  0  0
 32 30  1  0  0  0  0
 32 31  2  0  0  0  0
M  END
>  <MODEL>
7

>  <REMARK>
 VINA RESULT:      -7.4      3.123      9.623
  Name = 
  10 active torsions:
  status: ('A' for Active; 'I' for Inactive)
    1  A    between atoms: C_1  and  C_5
    2  A    between atoms: N_3  and  C_14
    3  A    between atoms: N_3  and  N_27
    4  A    between atoms: C_5  and  N_16
    5  A    between atoms: C_5  and  C_25
    6  A    between atoms: C_6  and  C_9
    7  A    between atoms: C_6  and  C_30
    8  A    between atoms: C_8  and  C_17
    9  A    between atoms: C_21  and  C_25
   10  A    between atoms: C_21  and  C_28
                            x       y       z     vdW  Elec       q    Type
                         _______ _______ _______ _____ _____    ______ ____

>  <TORSDO>
F 10

$$$$
=
 OpenBabel11042421143D

 32 35  0  0  1  0  0  0  0  0999 V2000
  161.1270  207.4790  149.9280 N   0  0  0  0  0  0  0  0  0  0  0  0
  160.9390  203.8130  152.5770 C   0  0  0  0  0  3  0  0  0  0  0  0
  161.5460  208.2560  152.2010 C   0  0  0  0  0  0  0  0  0  0  0  0
  161.6410  207.9680  153.4240 O   0  0  0  0  0  0  0  0  0  0  0  0
  160.6330  203.9240  150.1480 C   0  0  0  0  0  3  0  0  0  0  0  0
  160.8570  206.3060  149.3050 C   0  0  0  0  0  0  0  0  0  0  0  0
  161.1450  205.2040  152.6400 C   0  0  0  0  0  3  0  0  0  0  0  0
  160.8360  205.3000  150.2480 C   0  0  0  0  0  0  0  0  0  0  0  0
  160.6860  203.1780  151.3400 C   0  0  0  0  0  3  0  0  0  0  0  0
  161.0840  205.9180  151.4430 C   0  0  0  0  0  0  0  0  0  0  0  0
  161.2570  207.2390  151.2300 N   0  0  0  0  0  0  0  0  0  0  0  0
  160.6960  206.1520  147.8260 C   0  0  1  0  0  3  0  0  0  0  0  0
  161.7640  206.9470  147.1000 C   0  0  0  0  0  2  0  0  0  0  0  0
  161.9110  205.4490  147.2480 C   0  0  2  0  0  3  0  0  0  0  0  0
  161.5170  204.7740  145.9490 C   0  0  0  0  0  2  0  0  0  0  0  0
  162.0000  203.3330  145.9250 C   0  0  0  0  0  2  0  0  0  0  0  0
  161.0330  202.4110  146.6620 C   0  0  2  0  0  3  0  0  0  0  0  0
  161.5990  201.9480  148.0030 C   0  0  0  0  0  2  0  0  0  0  0  0
  161.1890  200.5830  148.3000 N   0  0  0  0  0  1  0  0  0  0  0  0
  160.7160  201.2650  145.8240 N   0  0  0  0  0  2  0  0  0  0  0  0
  159.7040  201.6950  144.8750 C   0  0  0  0  0  1  0  0  0  0  0  0
  161.7710  209.6690  151.7700 C   0  0  0  0  0  2  0  0  0  0  0  0
  161.8890  210.6320  153.9440 O   0  0  0  0  0  0  0  0  0  0  0  0
  160.1860  211.4540  152.5790 N   0  0  0  0  0  2  0  0  0  0  0  0
  161.3070  210.6090  152.8270 C   0  0  0  0  0  0  0  0  0  0  0  0
  159.7140  212.3350  153.5620 N   0  0  0  0  0  2  0  0  0  0  0  0
  156.0940  212.7810  154.3160 C   0  0  0  0  0  3  0  0  0  0  0  0
  158.4340  212.1610  154.1690 C   0  0  0  0  0  0  0  0  0  0  0  0
  157.3560  212.9370  153.7320 C   0  0  0  0  0  3  0  0  0  0  0  0
  155.9070  211.8460  155.3390 C   0  0  0  0  0  3  0  0  0  0  0  0
  158.2440  211.2240  155.1960 C   0  0  0  0  0  3  0  0  0  0  0  0
  156.9830  211.0680  155.7800 C   0  0  0  0  0  3  0  0  0  0  0  0
  1 11  1  0  0  0  0
  2  7  1  0  0  0  0
  3  4  2  0  0  0  0
  5  8  2  0  0  0  0
  5  9  1  0  0  0  0
  6  1  2  0  0  0  0
  6  8  1  0  0  0  0
  8 10  1  0  0  0  0
  9  2  2  0  0  0  0
 10  7  2  0  0  0  0
 11 10  1  0  0  0  0
 11  3  1  0  0  0  0
 12  6  1  1  0  0  0
 13 14  1  0  0  0  0
 13 12  1  0  0  0  0
 14 15  1  6  0  0  0
 14 12  1  0  0  0  0
 16 15  1  0  0  0  0
 17 16  1  6  0  0  0
 17 18  1  0  0  0  0
 18 19  1  0  0  0  0
 20 17  1  0  0  0  0
 21 20  1  0  0  0  0
 22  3  1  0  0  0  0
 22 25  1  0  0  0  0
 24 25  1  0  0  0  0
 24 26  1  0  0  0  0
 25 23  2  0  0  0  0
 26 28  1  0  0  0  0
 27 30  1  0  0  0  0
 28 31  2  0  0  0  0
 29 28  1  0  0  0  0
 29 27  2  0  0  0  0
 30 32  2  0  0  0  0
 31 32  1  0  0  0  0
M  END
>  <MODEL>
8

>  <REMARK>
 VINA RESULT:      -7.3      2.365      9.688
  Name = 
  10 active torsions:
  status: ('A' for Active; 'I' for Inactive)
    1  A    between atoms: C_1  and  C_5
    2  A    between atoms: N_3  and  C_14
    3  A    between atoms: N_3  and  N_27
    4  A    between atoms: C_5  and  N_16
    5  A    between atoms: C_5  and  C_25
    6  A    between atoms: C_6  and  C_9
    7  A    between atoms: C_6  and  C_30
    8  A    between atoms: C_8  and  C_17
    9  A    between atoms: C_21  and  C_25
   10  A    between atoms: C_21  and  C_28
                            x       y       z     vdW  Elec       q    Type
                         _______ _______ _______ _____ _____    ______ ____

>  <TORSDO>
F 10

$$$$
=
 OpenBabel11042421143D

 32 35  0  0  1  0  0  0  0  0999 V2000
  161.2660  209.6650  151.6500 N   0  0  0  0  0  0  0  0  0  0  0  0
  160.6300  206.9110  155.1860 C   0  0  0  0  0  3  0  0  0  0  0  0
  161.9430  207.4410  150.9140 C   0  0  0  0  0  0  0  0  0  0  0  0
  162.1080  206.2270  151.2080 O   0  0  0  0  0  0  0  0  0  0  0  0
  160.2000  209.3210  155.0660 C   0  0  0  0  0  3  0  0  0  0  0  0
  160.7940  210.2440  152.7800 C   0  0  0  0  0  0  0  0  0  0  0  0
  161.0830  206.9000  153.8530 C   0  0  0  0  0  3  0  0  0  0  0  0
  160.6590  209.2740  153.7510 C   0  0  0  0  0  0  0  0  0  0  0  0
  160.1910  208.1130  155.7880 C   0  0  0  0  0  3  0  0  0  0  0  0
  161.0820  208.1130  153.1630 C   0  0  0  0  0  0  0  0  0  0  0  0
  161.4480  208.3690  151.8910 N   0  0  0  0  0  0  0  0  0  0  0  0
  160.4130  211.6860  152.8940 C   0  0  1  0  0  3  0  0  0  0  0  0
  159.5020  212.0780  151.7470 C   0  0  0  0  0  2  0  0  0  0  0  0
  158.9150  211.8060  153.1140 C   0  0  2  0  0  3  0  0  0  0  0  0
  158.6240  213.1230  153.8070 C   0  0  0  0  0  2  0  0  0  0  0  0
  157.2630  213.0830  154.4830 C   0  0  0  0  0  2  0  0  0  0  0  0
  157.1960  211.9790  155.5330 C   0  0  2  0  0  3  0  0  0  0  0  0
  155.7960  211.8450  156.1300 C   0  0  0  0  0  2  0  0  0  0  0  0
  155.0890  210.7100  155.5570 N   0  0  0  0  0  1  0  0  0  0  0  0
  158.1700  212.2410  156.5810 N   0  0  0  0  0  2  0  0  0  0  0  0
  157.7650  213.4690  157.2440 C   0  0  0  0  0  1  0  0  0  0  0  0
  162.2380  207.8960  149.5220 C   0  0  0  0  0  2  0  0  0  0  0  0
  160.3290  206.8330  148.5760 O   0  0  0  0  0  0  0  0  0  0  0  0
  162.3660  206.3010  147.5740 N   0  0  0  0  0  2  0  0  0  0  0  0
  161.5770  206.9970  148.5360 C   0  0  0  0  0  0  0  0  0  0  0  0
  161.7750  205.4320  146.6460 N   0  0  0  0  0  2  0  0  0  0  0  0
  160.8880  201.8340  146.2740 C   0  0  0  0  0  3  0  0  0  0  0  0
  161.4580  204.0820  146.9840 C   0  0  0  0  0  0  0  0  0  0  0  0
  161.2020  203.1610  145.9620 C   0  0  0  0  0  3  0  0  0  0  0  0
  160.8310  201.4240  147.6090 C   0  0  0  0  0  3  0  0  0  0  0  0
  161.4000  203.6670  148.3220 C   0  0  0  0  0  3  0  0  0  0  0  0
  161.0870  202.3400  148.6340 C   0  0  0  0  0  3  0  0  0  0  0  0
  1 11  1  0  0  0  0
  1  6  2  0  0  0  0
  2  9  1  0  0  0  0
  3  4  2  0  0  0  0
  3 11  1  0  0  0  0
  5  9  2  0  0  0  0
  6  8  1  0  0  0  0
  7  2  2  0  0  0  0
  8  5  1  0  0  0  0
 10  8  2  0  0  0  0
 10  7  1  0  0  0  0
 11 10  1  0  0  0  0
 12  6  1  6  0  0  0
 12 14  1  0  0  0  0
 13 12  1  0  0  0  0
 13 14  1  0  0  0  0
 14 15  1  1  0  0  0
 15 16  1  0  0  0  0
 17 16  1  6  0  0  0
 17 18  1  0  0  0  0
 17 20  1  0  0  0  0
 19 18  1  0  0  0  0
 20 21  1  0  0  0  0
 22  3  1  0  0  0  0
 24 25  1  0  0  0  0
 25 23  2  0  0  0  0
 25 22  1  0  0  0  0
 26 28  1  0  0  0  0
 26 24  1  0  0  0  0
 27 30  1  0  0  0  0
 28 31  2  0  0  0  0
 29 27  2  0  0  0  0
 29 28  1  0  0  0  0
 30 32  2  0  0  0  0
 31 32  1  0  0  0  0
M  END
>  <MODEL>
9

>  <REMARK>
 VINA RESULT:      -7.3      1.206      1.607
  Name = 
  10 active torsions:
  status: ('A' for Active; 'I' for Inactive)
    1  A    between atoms: C_1  and  C_5
    2  A    between atoms: N_3  and  C_14
    3  A    between atoms: N_3  and  N_27
    4  A    between atoms: C_5  and  N_16
    5  A    between atoms: C_5  and  C_25
    6  A    between atoms: C_6  and  C_9
    7  A    between atoms: C_6  and  C_30
    8  A    between atoms: C_8  and  C_17
    9  A    between atoms: C_21  and  C_25
   10  A    between atoms: C_21  and  C_28
                            x       y       z     vdW  Elec       q    Type
                         _______ _______ _______ _____ _____    ______ ____

>  <TORSDO>
F 10

$$$$
