=
 OpenBabel11042422453D

 38 42  0  0  1  0  0  0  0  0999 V2000
  161.8710  208.3400  150.6610 C   0  0  0  0  0  0  0  0  0  0  0  0
  161.2730  210.3510  151.8720 C   0  0  0  0  0  3  0  0  0  0  0  0
  160.6500  208.2180  152.7170 N   0  0  0  0  0  0  0  0  0  0  0  0
  161.2380  207.5740  151.6710 C   0  0  0  0  0  0  0  0  0  0  0  0
  162.4770  207.7040  149.4490 C   0  0  0  0  0  1  0  0  0  0  0  0
  160.6550  209.5710  152.8500 C   0  0  0  0  0  0  0  0  0  0  0  0
  161.8850  209.7410  150.7740 C   0  0  0  0  0  0  0  0  0  0  0  0
  160.3740  209.8330  155.3450 C   0  0  0  0  0  0  0  0  0  0  0  0
  158.0680  212.0840  157.2400 N   0  0  0  0  0  2  0  0  0  0  0  0
  158.9910  211.1980  153.8450 C   0  0  0  0  0  0  0  0  0  0  0  0
  158.4060  211.7670  154.9800 C   0  0  0  0  0  0  0  0  0  0  0  0
  161.3950  208.7770  155.6110 C   0  0  0  0  0  1  0  0  0  0  0  0
  159.9940  210.2030  154.0210 C   0  0  0  0  0  0  0  0  0  0  0  0
  158.5790  211.6870  152.4920 C   0  0  0  0  0  1  0  0  0  0  0  0
  158.7810  211.3940  156.2370 C   0  0  0  0  0  0  0  0  0  0  0  0
  157.1390  212.9960  156.5730 C   0  0  1  0  0  3  0  0  0  0  0  0
  157.3460  212.8080  155.0540 C   0  0  0  0  0  2  0  0  0  0  0  0
  159.7590  210.4320  156.4540 C   0  0  0  0  0  3  0  0  0  0  0  0
  155.3830  211.4760  157.1550 O   0  0  0  0  0  1  0  0  0  0  0  0
  155.7310  212.6700  156.9510 C   0  0  0  0  0  0  0  0  0  0  0  0
  154.7930  213.6880  157.0510 O   0  0  0  0  0  0  0  0  0  0  0  0
  161.1660  206.0920  151.6440 C   0  0  0  0  0  0  0  0  0  0  0  0
  160.9410  205.4370  150.4230 C   0  0  0  0  0  3  0  0  0  0  0  0
  160.8310  204.0440  150.3670 C   0  0  0  0  0  0  0  0  0  0  0  0
  161.1450  203.9340  152.7690 C   0  0  0  0  0  3  0  0  0  0  0  0
  160.9350  203.2940  151.5460 C   0  0  0  0  0  3  0  0  0  0  0  0
  161.2550  205.3270  152.8160 C   0  0  0  0  0  3  0  0  0  0  0  0
  160.6160  203.4290  149.1330 O   0  0  0  0  0  0  0  0  0  0  0  0
  161.6370  203.2700  148.2200 N   0  0  0  0  0  2  0  0  0  0  0  0
  161.6380  203.9750  146.9790 C   0  0  0  0  0  0  0  0  0  0  0  0
  161.1440  203.3550  145.8200 C   0  0  0  0  0  0  0  0  0  0  0  0
  162.1330  205.9710  145.6880 C   0  0  0  0  0  3  0  0  0  0  0  0
  162.1330  205.2840  146.9060 C   0  0  0  0  0  3  0  0  0  0  0  0
  161.6370  205.3520  144.5380 C   0  0  0  0  0  3  0  0  0  0  0  0
  160.6560  202.0550  145.8700 O   0  0  0  0  0  1  0  0  0  0  0  0
  161.1440  204.0460  144.6030 C   0  0  0  0  0  3  0  0  0  0  0  0
  162.5150  210.5390  149.7620 N   0  0  0  0  0  2  0  0  0  0  0  0
  161.8040  211.5410  148.9830 C   0  0  0  0  0  1  0  0  0  0  0  0
  1  7  2  0  0  0  0
  1  4  1  0  0  0  0
  2  6  2  0  0  0  0
  3  6  1  0  0  0  0
  4  3  2  0  0  0  0
  5  1  1  0  0  0  0
  6 13  1  0  0  0  0
  7  2  1  0  0  0  0
  8 12  1  0  0  0  0
  8 18  1  0  0  0  0
 10 13  1  0  0  0  0
 10 11  2  0  0  0  0
 11 17  1  0  0  0  0
 11 15  1  0  0  0  0
 13  8  2  0  0  0  0
 14 10  1  0  0  0  0
 15 18  2  0  0  0  0
 15  9  1  0  0  0  0
 16 20  1  6  0  0  0
 16  9  1  0  0  0  0
 17 16  1  0  0  0  0
 20 21  2  0  0  0  0
 20 19  1  0  0  0  0
 22  4  1  0  0  0  0
 22 27  1  0  0  0  0
 23 22  2  0  0  0  0
 24 23  1  0  0  0  0
 24 26  2  0  0  0  0
 25 27  2  0  0  0  0
 26 25  1  0  0  0  0
 28 24  1  0  0  0  0
 29 28  1  0  0  0  0
 30 29  1  0  0  0  0
 31 35  1  0  0  0  0
 31 30  2  0  0  0  0
 32 33  2  0  0  0  0
 33 30  1  0  0  0  0
 34 36  2  0  0  0  0
 34 32  1  0  0  0  0
 36 31  1  0  0  0  0
 37  7  1  0  0  0  0
 38 37  1  0  0  0  0
M  END
>  <MODEL>
1

>  <REMARK>
 VINA RESULT:      -9.7      0.000      0.000
  Name = 
  7 active torsions:
  status: ('A' for Active; 'I' for Inactive)
    1  A    between atoms: C_1  and  C_28
    2  A    between atoms: N_4  and  C_6
    3  A    between atoms: N_4  and  O_23
    4  A    between atoms: N_11  and  C_33
    5  A    between atoms: C_14  and  C_32
    6  A    between atoms: C_20  and  O_23
    7  A    between atoms: C_21  and  CA_25
                            x       y       z     vdW  Elec       q    Type
                         _______ _______ _______ _____ _____    ______ ____

>  <TORSDO>
F 7

$$$$
=
 OpenBabel11042422453D

 38 42  0  0  1  0  0  0  0  0999 V2000
  160.3290  209.2960  154.0920 C   0  0  0  0  0  0  0  0  0  0  0  0
  161.3570  207.5150  152.8100 C   0  0  0  0  0  3  0  0  0  0  0  0
  160.4390  209.4080  151.7030 N   0  0  0  0  0  0  0  0  0  0  0  0
  160.0620  209.9800  152.8800 C   0  0  0  0  0  0  0  0  0  0  0  0
  159.8830  209.8310  155.4160 C   0  0  0  0  0  1  0  0  0  0  0  0
  161.0780  208.2110  151.6330 C   0  0  0  0  0  0  0  0  0  0  0  0
  160.9850  208.0530  154.0450 C   0  0  0  0  0  0  0  0  0  0  0  0
  162.0120  208.4970  149.3050 C   0  0  0  0  0  0  0  0  0  0  0  0
  162.5230  205.9360  146.6310 N   0  0  0  0  0  2  0  0  0  0  0  0
  161.3040  206.2630  150.0330 C   0  0  0  0  0  0  0  0  0  0  0  0
  161.6870  205.7850  148.7760 C   0  0  0  0  0  0  0  0  0  0  0  0
  162.1800  209.9670  149.5110 C   0  0  0  0  0  1  0  0  0  0  0  0
  161.4610  207.6500  150.3110 C   0  0  0  0  0  0  0  0  0  0  0  0
  160.7920  205.2960  151.0530 C   0  0  0  0  0  1  0  0  0  0  0  0
  162.2070  206.6140  147.8270 C   0  0  0  0  0  0  0  0  0  0  0  0
  162.1760  204.5270  146.8190 C   0  0  1  0  0  3  0  0  0  0  0  0
  161.6160  204.3940  148.2510 C   0  0  0  0  0  2  0  0  0  0  0  0
  162.3820  207.9730  148.0590 C   0  0  0  0  0  3  0  0  0  0  0  0
  160.5130  204.9690  145.1540 O   0  0  0  0  0  0  0  0  0  0  0  0
  161.1510  204.1070  145.8170 C   0  0  0  0  0  0  0  0  0  0  0  0
  160.8790  202.7590  145.6340 O   0  0  0  0  0  1  0  0  0  0  0  0
  159.3750  211.2930  152.8210 C   0  0  0  0  0  0  0  0  0  0  0  0
  159.8180  212.2610  151.9050 C   0  0  0  0  0  3  0  0  0  0  0  0
  159.2180  213.5220  151.8480 C   0  0  0  0  0  0  0  0  0  0  0  0
  157.7270  212.8800  153.6500 C   0  0  0  0  0  3  0  0  0  0  0  0
  158.1690  213.8290  152.7250 C   0  0  0  0  0  3  0  0  0  0  0  0
  158.3310  211.6210  153.7000 C   0  0  0  0  0  3  0  0  0  0  0  0
  159.6810  214.4530  150.9190 O   0  0  0  0  0  0  0  0  0  0  0  0
  159.3710  214.3480  149.5790 N   0  0  0  0  0  2  0  0  0  0  0  0
  160.3190  213.8490  148.6360 C   0  0  0  0  0  0  0  0  0  0  0  0
  159.8840  213.0850  147.5410 C   0  0  0  0  0  0  0  0  0  0  0  0
  162.6120  213.6230  147.8700 C   0  0  0  0  0  3  0  0  0  0  0  0
  161.6860  214.1140  148.7950 C   0  0  0  0  0  3  0  0  0  0  0  0
  162.1750  212.8660  146.7800 C   0  0  0  0  0  3  0  0  0  0  0  0
  158.5340  212.8050  147.3700 O   0  0  0  0  0  1  0  0  0  0  0  0
  160.8140  212.5960  146.6160 C   0  0  0  0  0  3  0  0  0  0  0  0
  161.2610  207.3390  155.2580 N   0  0  0  0  0  2  0  0  0  0  0  0
  160.2250  206.9320  156.1940 C   0  0  0  0  0  1  0  0  0  0  0  0
  1  5  1  0  0  0  0
  2  7  2  0  0  0  0
  3  4  1  0  0  0  0
  4  1  2  0  0  0  0
  6  3  2  0  0  0  0
  6  2  1  0  0  0  0
  7  1  1  0  0  0  0
  7 37  1  0  0  0  0
  8 12  1  0  0  0  0
  8 13  1  0  0  0  0
  9 16  1  0  0  0  0
  9 15  1  0  0  0  0
 10 13  2  0  0  0  0
 10 14  1  0  0  0  0
 11 10  1  0  0  0  0
 13  6  1  0  0  0  0
 15 18  1  0  0  0  0
 15 11  2  0  0  0  0
 16 20  1  6  0  0  0
 16 17  1  0  0  0  0
 17 11  1  0  0  0  0
 18  8  2  0  0  0  0
 19 20  2  0  0  0  0
 21 20  1  0  0  0  0
 22  4  1  0  0  0  0
 22 27  1  0  0  0  0
 23 22  2  0  0  0  0
 24 23  1  0  0  0  0
 24 26  2  0  0  0  0
 25 27  2  0  0  0  0
 26 25  1  0  0  0  0
 28 24  1  0  0  0  0
 29 28  1  0  0  0  0
 30 33  1  0  0  0  0
 30 29  1  0  0  0  0
 31 30  2  0  0  0  0
 32 33  2  0  0  0  0
 34 32  1  0  0  0  0
 35 31  1  0  0  0  0
 36 34  2  0  0  0  0
 36 31  1  0  0  0  0
 37 38  1  0  0  0  0
M  END
>  <MODEL>
2

>  <REMARK>
 VINA RESULT:      -8.6      2.798      9.192
  Name = 
  7 active torsions:
  status: ('A' for Active; 'I' for Inactive)
    1  A    between atoms: C_1  and  C_28
    2  A    between atoms: N_4  and  C_6
    3  A    between atoms: N_4  and  O_23
    4  A    between atoms: N_11  and  C_33
    5  A    between atoms: C_14  and  C_32
    6  A    between atoms: C_20  and  O_23
    7  A    between atoms: C_21  and  CA_25
                            x       y       z     vdW  Elec       q    Type
                         _______ _______ _______ _____ _____    ______ ____

>  <TORSDO>
F 7

$$$$
=
 OpenBabel11042422453D

 38 42  0  0  1  0  0  0  0  0999 V2000
  160.6220  209.6510  154.3850 C   0  0  0  0  0  0  0  0  0  0  0  0
  161.3860  207.4690  153.6570 C   0  0  0  0  0  3  0  0  0  0  0  0
  160.4180  208.9790  152.0960 N   0  0  0  0  0  0  0  0  0  0  0  0
  160.2290  209.9290  153.0530 C   0  0  0  0  0  0  0  0  0  0  0  0
  160.3820  210.6200  155.5000 C   0  0  0  0  0  1  0  0  0  0  0  0
  160.9860  207.7720  152.3540 C   0  0  0  0  0  0  0  0  0  0  0  0
  161.2080  208.4060  154.6780 C   0  0  0  0  0  0  0  0  0  0  0  0
  161.4660  207.2280  149.9360 C   0  0  0  0  0  0  0  0  0  0  0  0
  161.6620  203.8940  148.2570 N   0  0  0  0  0  2  0  0  0  0  0  0
  161.0540  205.3870  151.5070 C   0  0  0  0  0  0  0  0  0  0  0  0
  161.2370  204.5010  150.4420 C   0  0  0  0  0  0  0  0  0  0  0  0
  161.5660  208.6770  149.5890 C   0  0  0  0  0  1  0  0  0  0  0  0
  161.1630  206.7850  151.2570 C   0  0  0  0  0  0  0  0  0  0  0  0
  160.8000  204.8380  152.8750 C   0  0  0  0  0  1  0  0  0  0  0  0
  161.5200  204.9470  149.1850 C   0  0  0  0  0  0  0  0  0  0  0  0
  161.4520  202.6390  148.9790 C   0  0  1  0  0  3  0  0  0  0  0  0
  161.1680  203.0140  150.4490 C   0  0  0  0  0  2  0  0  0  0  0  0
  161.6410  206.3010  148.8990 C   0  0  0  0  0  3  0  0  0  0  0  0
  159.3210  201.5580  149.1240 O   0  0  0  0  0  1  0  0  0  0  0  0
  160.2950  201.8940  148.3990 C   0  0  0  0  0  0  0  0  0  0  0  0
  160.3050  201.5470  147.0550 O   0  0  0  0  0  0  0  0  0  0  0  0
  159.6010  211.2090  152.6400 C   0  0  0  0  0  0  0  0  0  0  0  0
  160.2250  211.9960  151.6590 C   0  0  0  0  0  3  0  0  0  0  0  0
  159.6820  213.2250  151.2730 C   0  0  0  0  0  0  0  0  0  0  0  0
  157.8830  212.9170  152.8700 C   0  0  0  0  0  3  0  0  0  0  0  0
  158.5060  213.6830  151.8830 C   0  0  0  0  0  3  0  0  0  0  0  0
  158.4320  211.6890  153.2490 C   0  0  0  0  0  3  0  0  0  0  0  0
  160.3260  213.9730  150.2880 O   0  0  0  0  0  0  0  0  0  0  0  0
  160.8200  213.3840  149.1440 N   0  0  0  0  0  2  0  0  0  0  0  0
  159.9810  213.1360  148.0160 C   0  0  0  0  0  0  0  0  0  0  0  0
  160.5470  212.7530  146.7900 C   0  0  0  0  0  0  0  0  0  0  0  0
  157.7710  213.0340  147.0150 C   0  0  0  0  0  3  0  0  0  0  0  0
  158.5900  213.2760  148.1220 C   0  0  0  0  0  3  0  0  0  0  0  0
  158.3380  212.6490  145.7980 C   0  0  0  0  0  3  0  0  0  0  0  0
  161.9240  212.6160  146.6630 O   0  0  0  0  0  1  0  0  0  0  0  0
  159.7240  212.5100  145.6850 C   0  0  0  0  0  3  0  0  0  0  0  0
  161.6090  208.0980  156.0200 N   0  0  0  0  0  2  0  0  0  0  0  0
  160.7840  207.3310  156.9400 C   0  0  0  0  0  1  0  0  0  0  0  0
  1  7  1  0  0  0  0
  1  5  1  0  0  0  0
  2  7  2  0  0  0  0
  3  6  2  0  0  0  0
  3  4  1  0  0  0  0
  4  1  2  0  0  0  0
  6  2  1  0  0  0  0
  7 37  1  0  0  0  0
  8 13  1  0  0  0  0
  9 16  1  0  0  0  0
  9 15  1  0  0  0  0
 10 14  1  0  0  0  0
 11 17  1  0  0  0  0
 11 10  1  0  0  0  0
 12  8  1  0  0  0  0
 13 10  2  0  0  0  0
 13  6  1  0  0  0  0
 15 11  2  0  0  0  0
 16 20  1  6  0  0  0
 16 17  1  0  0  0  0
 18 15  1  0  0  0  0
 18  8  2  0  0  0  0
 20 19  1  0  0  0  0
 21 20  2  0  0  0  0
 22  4  1  0  0  0  0
 22 27  1  0  0  0  0
 23 22  2  0  0  0  0
 24 23  1  0  0  0  0
 24 26  2  0  0  0  0
 25 27  2  0  0  0  0
 26 25  1  0  0  0  0
 28 24  1  0  0  0  0
 29 28  1  0  0  0  0
 30 33  1  0  0  0  0
 30 29  1  0  0  0  0
 31 30  2  0  0  0  0
 32 33  2  0  0  0  0
 34 32  1  0  0  0  0
 35 31  1  0  0  0  0
 36 34  2  0  0  0  0
 36 31  1  0  0  0  0
 37 38  1  0  0  0  0
M  END
>  <MODEL>
3

>  <REMARK>
 VINA RESULT:      -8.6      3.026      8.942
  Name = 
  7 active torsions:
  status: ('A' for Active; 'I' for Inactive)
    1  A    between atoms: C_1  and  C_28
    2  A    between atoms: N_4  and  C_6
    3  A    between atoms: N_4  and  O_23
    4  A    between atoms: N_11  and  C_33
    5  A    between atoms: C_14  and  C_32
    6  A    between atoms: C_20  and  O_23
    7  A    between atoms: C_21  and  CA_25
                            x       y       z     vdW  Elec       q    Type
                         _______ _______ _______ _____ _____    ______ ____

>  <TORSDO>
F 7

$$$$
=
 OpenBabel11042422453D

 38 42  0  0  1  0  0  0  0  0999 V2000
  160.7130  209.3380  154.4270 C   0  0  0  0  0  0  0  0  0  0  0  0
  161.3230  207.1220  153.6610 C   0  0  0  0  0  3  0  0  0  0  0  0
  160.4420  208.7140  152.1310 N   0  0  0  0  0  0  0  0  0  0  0  0
  160.3250  209.6610  153.1030 C   0  0  0  0  0  0  0  0  0  0  0  0
  160.5480  210.3050  155.5580 C   0  0  0  0  0  1  0  0  0  0  0  0
  160.9310  207.4680  152.3670 C   0  0  0  0  0  0  0  0  0  0  0  0
  161.2170  208.0530  154.6970 C   0  0  0  0  0  0  0  0  0  0  0  0
  160.9590  205.0890  151.5230 C   0  0  0  0  0  0  0  0  0  0  0  0
  161.2990  203.8280  148.0200 N   0  0  0  0  0  2  0  0  0  0  0  0
  161.1770  206.9250  149.9080 C   0  0  0  0  0  0  0  0  0  0  0  0
  161.2590  205.9620  148.8970 C   0  0  0  0  0  0  0  0  0  0  0  0
  160.8360  204.5530  152.9110 C   0  0  0  0  0  1  0  0  0  0  0  0
  161.0310  206.4880  151.2550 C   0  0  0  0  0  0  0  0  0  0  0  0
  161.1980  208.3740  149.5350 C   0  0  0  0  0  1  0  0  0  0  0  0
  161.1940  204.6290  149.1770 C   0  0  0  0  0  0  0  0  0  0  0  0
  161.4460  204.7260  146.8750 C   0  0  1  0  0  3  0  0  0  0  0  0
  161.4190  206.1660  147.4320 C   0  0  0  0  0  2  0  0  0  0  0  0
  161.0450  204.1600  150.4770 C   0  0  0  0  0  3  0  0  0  0  0  0
  163.8360  204.7240  146.7340 O   0  0  0  0  0  1  0  0  0  0  0  0
  162.7380  204.4640  146.1720 C   0  0  0  0  0  0  0  0  0  0  0  0
  162.7280  203.9560  144.8810 O   0  0  0  0  0  0  0  0  0  0  0  0
  159.7800  210.9850  152.7150 C   0  0  0  0  0  0  0  0  0  0  0  0
  160.3470  211.6700  151.6290 C   0  0  0  0  0  3  0  0  0  0  0  0
  159.8830  212.9370  151.2590 C   0  0  0  0  0  0  0  0  0  0  0  0
  158.2840  212.8690  153.0810 C   0  0  0  0  0  3  0  0  0  0  0  0
  158.8470  213.5340  151.9890 C   0  0  0  0  0  3  0  0  0  0  0  0
  158.7520  211.6030  153.4430 C   0  0  0  0  0  3  0  0  0  0  0  0
  160.4660  213.5820  150.1680 O   0  0  0  0  0  0  0  0  0  0  0  0
  159.7100  214.3090  149.2740 N   0  0  0  0  0  2  0  0  0  0  0  0
  159.2450  213.7320  148.0540 C   0  0  0  0  0  0  0  0  0  0  0  0
  160.1060  213.6360  146.9490 C   0  0  0  0  0  0  0  0  0  0  0  0
  157.4760  212.6970  146.7520 C   0  0  0  0  0  3  0  0  0  0  0  0
  157.9290  213.2610  147.9490 C   0  0  0  0  0  3  0  0  0  0  0  0
  158.3360  212.6000  145.6560 C   0  0  0  0  0  3  0  0  0  0  0  0
  161.4110  214.1050  147.0310 O   0  0  0  0  0  1  0  0  0  0  0  0
  159.6490  213.0700  145.7540 C   0  0  0  0  0  3  0  0  0  0  0  0
  161.6110  207.7000  156.0300 N   0  0  0  0  0  2  0  0  0  0  0  0
  160.6850  207.1700  157.0190 C   0  0  0  0  0  1  0  0  0  0  0  0
  1  7  1  0  0  0  0
  1  5  1  0  0  0  0
  2  7  2  0  0  0  0
  3  6  2  0  0  0  0
  3  4  1  0  0  0  0
  4  1  2  0  0  0  0
  6  2  1  0  0  0  0
  7 37  1  0  0  0  0
  8 12  1  0  0  0  0
  9 15  1  0  0  0  0
 10 13  2  0  0  0  0
 11 15  2  0  0  0  0
 11 10  1  0  0  0  0
 13  8  1  0  0  0  0
 13  6  1  0  0  0  0
 14 10  1  0  0  0  0
 15 18  1  0  0  0  0
 16 20  1  1  0  0  0
 16 17  1  0  0  0  0
 16  9  1  0  0  0  0
 17 11  1  0  0  0  0
 18  8  2  0  0  0  0
 20 19  1  0  0  0  0
 21 20  2  0  0  0  0
 22  4  1  0  0  0  0
 22 27  1  0  0  0  0
 23 22  2  0  0  0  0
 24 23  1  0  0  0  0
 24 26  2  0  0  0  0
 25 27  2  0  0  0  0
 26 25  1  0  0  0  0
 28 24  1  0  0  0  0
 29 28  1  0  0  0  0
 30 29  1  0  0  0  0
 31 35  1  0  0  0  0
 31 30  2  0  0  0  0
 32 33  2  0  0  0  0
 33 30  1  0  0  0  0
 34 36  2  0  0  0  0
 34 32  1  0  0  0  0
 36 31  1  0  0  0  0
 37 38  1  0  0  0  0
M  END
>  <MODEL>
4

>  <REMARK>
 VINA RESULT:      -8.3      3.294      9.116
  Name = 
  7 active torsions:
  status: ('A' for Active; 'I' for Inactive)
    1  A    between atoms: C_1  and  C_28
    2  A    between atoms: N_4  and  C_6
    3  A    between atoms: N_4  and  O_23
    4  A    between atoms: N_11  and  C_33
    5  A    between atoms: C_14  and  C_32
    6  A    between atoms: C_20  and  O_23
    7  A    between atoms: C_21  and  CA_25
                            x       y       z     vdW  Elec       q    Type
                         _______ _______ _______ _____ _____    ______ ____

>  <TORSDO>
F 7

$$$$
=
 OpenBabel11042422453D

 38 42  0  0  1  0  0  0  0  0999 V2000
  160.0190  211.9200  155.3500 C   0  0  0  0  0  0  0  0  0  0  0  0
  161.4660  210.0140  154.9670 C   0  0  0  0  0  3  0  0  0  0  0  0
  159.7870  210.5780  153.3800 N   0  0  0  0  0  0  0  0  0  0  0  0
  159.3730  211.6450  154.1190 C   0  0  0  0  0  0  0  0  0  0  0  0
  159.5730  213.0320  156.2460 C   0  0  0  0  0  1  0  0  0  0  0  0
  160.8090  209.7660  153.7600 C   0  0  0  0  0  0  0  0  0  0  0  0
  161.0760  211.0910  155.7670 C   0  0  0  0  0  0  0  0  0  0  0  0
  161.8410  208.8540  151.6440 C   0  0  0  0  0  0  0  0  0  0  0  0
  162.3000  205.3010  150.5800 N   0  0  0  0  0  2  0  0  0  0  0  0
  160.9810  207.2800  153.3200 C   0  0  0  0  0  0  0  0  0  0  0  0
  161.3810  206.2390  152.4770 C   0  0  0  0  0  0  0  0  0  0  0  0
  162.0840  210.2320  151.1220 C   0  0  0  0  0  1  0  0  0  0  0  0
  161.2060  208.6220  152.9000 C   0  0  0  0  0  0  0  0  0  0  0  0
  160.3780  206.9490  154.6490 C   0  0  0  0  0  1  0  0  0  0  0  0
  161.9800  206.4850  151.2770 C   0  0  0  0  0  0  0  0  0  0  0  0
  161.8680  204.1730  151.4060 C   0  0  1  0  0  3  0  0  0  0  0  0
  161.2490  204.7720  152.6880 C   0  0  0  0  0  2  0  0  0  0  0  0
  162.2250  207.7780  150.8320 C   0  0  0  0  0  3  0  0  0  0  0  0
  160.4220  203.7240  149.5510 O   0  0  0  0  0  0  0  0  0  0  0  0
  160.8570  203.3530  150.6740 C   0  0  0  0  0  0  0  0  0  0  0  0
  160.3720  202.1860  151.2480 O   0  0  0  0  0  1  0  0  0  0  0  0
  158.2490  212.4560  153.5910 C   0  0  0  0  0  0  0  0  0  0  0  0
  158.3570  213.0330  152.3150 C   0  0  0  0  0  3  0  0  0  0  0  0
  157.3320  213.8340  151.8020 C   0  0  0  0  0  0  0  0  0  0  0  0
  156.0750  213.5170  153.8510 C   0  0  0  0  0  3  0  0  0  0  0  0
  156.1880  214.0740  152.5750 C   0  0  0  0  0  3  0  0  0  0  0  0
  157.1020  212.7170  154.3570 C   0  0  0  0  0  3  0  0  0  0  0  0
  157.4730  214.3820  150.5270 O   0  0  0  0  0  0  0  0  0  0  0  0
  157.5080  213.5860  149.4010 N   0  0  0  0  0  2  0  0  0  0  0  0
  158.7130  213.4100  148.6560 C   0  0  0  0  0  0  0  0  0  0  0  0
  158.6570  212.9480  147.3310 C   0  0  0  0  0  0  0  0  0  0  0  0
  161.1340  213.5160  148.5060 C   0  0  0  0  0  3  0  0  0  0  0  0
  159.9560  213.6910  149.2390 C   0  0  0  0  0  3  0  0  0  0  0  0
  161.0740  213.0600  147.1870 C   0  0  0  0  0  3  0  0  0  0  0  0
  157.4350  212.6570  146.7380 O   0  0  0  0  0  1  0  0  0  0  0  0
  159.8380  212.7760  146.6010 C   0  0  0  0  0  3  0  0  0  0  0  0
  161.7420  211.3460  157.0110 N   0  0  0  0  0  2  0  0  0  0  0  0
  163.1300  210.9880  157.2570 C   0  0  0  0  0  1  0  0  0  0  0  0
  1  7  1  0  0  0  0
  1  5  1  0  0  0  0
  2  7  2  0  0  0  0
  3  6  2  0  0  0  0
  3  4  1  0  0  0  0
  4  1  2  0  0  0  0
  6  2  1  0  0  0  0
  7 37  1  0  0  0  0
  8 13  1  0  0  0  0
  9 15  1  0  0  0  0
  9 16  1  0  0  0  0
 10 14  1  0  0  0  0
 11 17  1  0  0  0  0
 11 10  1  0  0  0  0
 12  8  1  0  0  0  0
 13 10  2  0  0  0  0
 13  6  1  0  0  0  0
 15 11  2  0  0  0  0
 16 20  1  6  0  0  0
 16 17  1  0  0  0  0
 18 15  1  0  0  0  0
 18  8  2  0  0  0  0
 19 20  2  0  0  0  0
 20 21  1  0  0  0  0
 22  4  1  0  0  0  0
 22 27  1  0  0  0  0
 23 22  2  0  0  0  0
 24 23  1  0  0  0  0
 24 26  2  0  0  0  0
 25 27  2  0  0  0  0
 26 25  1  0  0  0  0
 28 24  1  0  0  0  0
 29 28  1  0  0  0  0
 30 33  1  0  0  0  0
 30 29  1  0  0  0  0
 31 30  2  0  0  0  0
 32 33  2  0  0  0  0
 34 32  1  0  0  0  0
 35 31  1  0  0  0  0
 36 34  2  0  0  0  0
 36 31  1  0  0  0  0
 37 38  1  0  0  0  0
M  END
>  <MODEL>
5

>  <REMARK>
 VINA RESULT:      -8.2      3.193      8.605
  Name = 
  7 active torsions:
  status: ('A' for Active; 'I' for Inactive)
    1  A    between atoms: C_1  and  C_28
    2  A    between atoms: N_4  and  C_6
    3  A    between atoms: N_4  and  O_23
    4  A    between atoms: N_11  and  C_33
    5  A    between atoms: C_14  and  C_32
    6  A    between atoms: C_20  and  O_23
    7  A    between atoms: C_21  and  CA_25
                            x       y       z     vdW  Elec       q    Type
                         _______ _______ _______ _____ _____    ______ ____

>  <TORSDO>
F 7

$$$$
=
 OpenBabel11042422453D

 38 42  0  0  1  0  0  0  0  0999 V2000
  160.8980  208.8480  154.3450 C   0  0  0  0  0  0  0  0  0  0  0  0
  160.6910  211.1560  153.6340 C   0  0  0  0  0  3  0  0  0  0  0  0
  160.7940  209.4130  152.0210 N   0  0  0  0  0  0  0  0  0  0  0  0
  160.8890  208.4550  152.9840 C   0  0  0  0  0  0  0  0  0  0  0  0
  161.0690  207.8580  155.4540 C   0  0  0  0  0  1  0  0  0  0  0  0
  160.6880  210.7380  152.3020 C   0  0  0  0  0  0  0  0  0  0  0  0
  160.7940  210.2150  154.6620 C   0  0  0  0  0  0  0  0  0  0  0  0
  159.7280  212.8580  151.3240 C   0  0  0  0  0  0  0  0  0  0  0  0
  160.4070  214.4510  148.0110 N   0  0  0  0  0  2  0  0  0  0  0  0
  161.3510  211.5710  150.0060 C   0  0  0  0  0  0  0  0  0  0  0  0
  161.2230  212.5320  148.9990 C   0  0  0  0  0  0  0  0  0  0  0  0
  158.8720  213.0730  152.5280 C   0  0  0  0  0  1  0  0  0  0  0  0
  160.5850  211.7250  151.1970 C   0  0  0  0  0  0  0  0  0  0  0  0
  162.3190  210.4450  149.8190 C   0  0  0  0  0  1  0  0  0  0  0  0
  160.3930  213.6040  149.1400 C   0  0  0  0  0  0  0  0  0  0  0  0
  161.3380  213.8740  147.0400 C   0  0  1  0  0  3  0  0  0  0  0  0
  161.9040  212.5870  147.6770 C   0  0  0  0  0  2  0  0  0  0  0  0
  159.6330  213.7970  150.2870 C   0  0  0  0  0  3  0  0  0  0  0  0
  160.5370  214.4160  144.8500 O   0  0  0  0  0  0  0  0  0  0  0  0
  160.6260  213.5550  145.7660 C   0  0  0  0  0  0  0  0  0  0  0  0
  160.0360  212.3100  145.6010 O   0  0  0  0  0  1  0  0  0  0  0  0
  160.9950  207.0410  152.5450 C   0  0  0  0  0  0  0  0  0  0  0  0
  160.8740  206.7350  151.1810 C   0  0  0  0  0  3  0  0  0  0  0  0
  160.9310  205.4100  150.7360 C   0  0  0  0  0  0  0  0  0  0  0  0
  161.2060  204.6660  153.0270 C   0  0  0  0  0  3  0  0  0  0  0  0
  161.0980  204.3750  151.6650 C   0  0  0  0  0  3  0  0  0  0  0  0
  161.1500  205.9920  153.4630 C   0  0  0  0  0  3  0  0  0  0  0  0
  160.8150  205.1470  149.3710 O   0  0  0  0  0  0  0  0  0  0  0  0
  161.7490  204.3820  148.7040 N   0  0  0  0  0  2  0  0  0  0  0  0
  161.3680  203.5010  147.6470 C   0  0  0  0  0  0  0  0  0  0  0  0
  160.9090  202.2080  147.9430 C   0  0  0  0  0  0  0  0  0  0  0  0
  161.0780  203.0520  145.2790 C   0  0  0  0  0  3  0  0  0  0  0  0
  161.4510  203.9170  146.3120 C   0  0  0  0  0  3  0  0  0  0  0  0
  160.6190  201.7660  145.5770 C   0  0  0  0  0  3  0  0  0  0  0  0
  160.8270  201.7740  149.2600 O   0  0  0  0  0  1  0  0  0  0  0  0
  160.5350  201.3450  146.9070 C   0  0  0  0  0  3  0  0  0  0  0  0
  160.8060  210.6390  156.0320 N   0  0  0  0  0  2  0  0  0  0  0  0
  159.7060  211.3640  156.6490 C   0  0  0  0  0  1  0  0  0  0  0  0
  1  7  1  0  0  0  0
  1  5  1  0  0  0  0
  2  7  2  0  0  0  0
  3  6  2  0  0  0  0
  3  4  1  0  0  0  0
  4  1  2  0  0  0  0
  6  2  1  0  0  0  0
  7 37  1  0  0  0  0
  8 12  1  0  0  0  0
  9 15  1  0  0  0  0
 10 13  2  0  0  0  0
 11 15  2  0  0  0  0
 11 10  1  0  0  0  0
 13  8  1  0  0  0  0
 13  6  1  0  0  0  0
 14 10  1  0  0  0  0
 15 18  1  0  0  0  0
 16 20  1  6  0  0  0
 16 17  1  0  0  0  0
 16  9  1  0  0  0  0
 17 11  1  0  0  0  0
 18  8  2  0  0  0  0
 19 20  2  0  0  0  0
 21 20  1  0  0  0  0
 22  4  1  0  0  0  0
 22 27  1  0  0  0  0
 23 22  2  0  0  0  0
 24 23  1  0  0  0  0
 24 26  2  0  0  0  0
 25 27  2  0  0  0  0
 26 25  1  0  0  0  0
 28 24  1  0  0  0  0
 29 28  1  0  0  0  0
 30 31  1  0  0  0  0
 30 29  1  0  0  0  0
 31 35  1  0  0  0  0
 32 34  2  0  0  0  0
 32 33  1  0  0  0  0
 33 30  2  0  0  0  0
 34 36  1  0  0  0  0
 36 31  2  0  0  0  0
 37 38  1  0  0  0  0
M  END
>  <MODEL>
6

>  <REMARK>
 VINA RESULT:      -8.2      3.306      5.849
  Name = 
  7 active torsions:
  status: ('A' for Active; 'I' for Inactive)
    1  A    between atoms: C_1  and  C_28
    2  A    between atoms: N_4  and  C_6
    3  A    between atoms: N_4  and  O_23
    4  A    between atoms: N_11  and  C_33
    5  A    between atoms: C_14  and  C_32
    6  A    between atoms: C_20  and  O_23
    7  A    between atoms: C_21  and  CA_25
                            x       y       z     vdW  Elec       q    Type
                         _______ _______ _______ _____ _____    ______ ____

>  <TORSDO>
F 7

$$$$
=
 OpenBabel11042422453D

 38 42  0  0  1  0  0  0  0  0999 V2000
  161.5510  209.2860  152.2320 C   0  0  0  0  0  0  0  0  0  0  0  0
  161.6810  207.5700  150.5270 C   0  0  0  0  0  3  0  0  0  0  0  0
  160.9610  207.0180  152.7240 N   0  0  0  0  0  0  0  0  0  0  0  0
  161.0940  208.3060  153.1480 C   0  0  0  0  0  0  0  0  0  0  0  0
  161.7870  210.7050  152.6450 C   0  0  0  0  0  1  0  0  0  0  0  0
  161.2310  206.6260  151.4510 C   0  0  0  0  0  0  0  0  0  0  0  0
  161.8420  208.9040  150.9110 C   0  0  0  0  0  0  0  0  0  0  0  0
  161.0220  204.1850  152.0600 C   0  0  0  0  0  0  0  0  0  0  0  0
  160.5440  201.2250  149.8280 N   0  0  0  0  0  2  0  0  0  0  0  0
  160.9100  204.8320  149.6950 C   0  0  0  0  0  0  0  0  0  0  0  0
  160.7430  203.4800  149.3820 C   0  0  0  0  0  0  0  0  0  0  0  0
  161.2020  204.4900  153.5110 C   0  0  0  0  0  1  0  0  0  0  0  0
  161.0600  205.2020  151.0620 C   0  0  0  0  0  0  0  0  0  0  0  0
  160.8760  205.8430  148.5920 C   0  0  0  0  0  1  0  0  0  0  0  0
  160.7170  202.5230  150.3530 C   0  0  0  0  0  0  0  0  0  0  0  0
  160.4490  201.3480  148.3730 C   0  0  1  0  0  3  0  0  0  0  0  0
  160.5750  202.8510  148.0440 C   0  0  0  0  0  2  0  0  0  0  0  0
  160.8520  202.8410  151.6990 C   0  0  0  0  0  3  0  0  0  0  0  0
  162.7070  200.5730  148.2010 O   0  0  0  0  0  1  0  0  0  0  0  0
  161.5450  200.5760  147.7140 C   0  0  0  0  0  0  0  0  0  0  0  0
  161.2870  199.8790  146.5420 O   0  0  0  0  0  0  0  0  0  0  0  0
  160.7620  208.6050  154.5620 C   0  0  0  0  0  0  0  0  0  0  0  0
  159.9930  209.7410  154.8620 C   0  0  0  0  0  3  0  0  0  0  0  0
  159.6930  210.0740  156.1870 C   0  0  0  0  0  0  0  0  0  0  0  0
  160.9550  208.1470  156.9440 C   0  0  0  0  0  3  0  0  0  0  0  0
  160.1770  209.2710  157.2280 C   0  0  0  0  0  3  0  0  0  0  0  0
  161.2490  207.8190  155.6180 C   0  0  0  0  0  3  0  0  0  0  0  0
  158.9190  211.2050  156.4440 O   0  0  0  0  0  0  0  0  0  0  0  0
  157.5970  211.2750  156.0580 N   0  0  0  0  0  2  0  0  0  0  0  0
  157.1520  212.2420  155.1060 C   0  0  0  0  0  0  0  0  0  0  0  0
  155.9750  212.9700  155.3420 C   0  0  0  0  0  0  0  0  0  0  0  0
  157.4430  213.4140  153.0000 C   0  0  0  0  0  3  0  0  0  0  0  0
  157.8820  212.4680  153.9310 C   0  0  0  0  0  3  0  0  0  0  0  0
  156.2730  214.1390  153.2400 C   0  0  0  0  0  3  0  0  0  0  0  0
  155.2340  212.7540  156.4980 O   0  0  0  0  0  1  0  0  0  0  0  0
  155.5400  213.9170  154.4080 C   0  0  0  0  0  3  0  0  0  0  0  0
  162.3110  209.8760  149.9670 N   0  0  0  0  0  2  0  0  0  0  0  0
  161.9570  209.8500  148.5560 C   0  0  0  0  0  1  0  0  0  0  0  0
  1  5  1  0  0  0  0
  1  4  1  0  0  0  0
  2  7  1  0  0  0  0
  2  6  2  0  0  0  0
  3  4  2  0  0  0  0
  4 22  1  0  0  0  0
  6  3  1  0  0  0  0
  7  1  2  0  0  0  0
  8 12  1  0  0  0  0
  9 15  1  0  0  0  0
 10 13  1  0  0  0  0
 11 10  2  0  0  0  0
 11 15  1  0  0  0  0
 13  6  1  0  0  0  0
 13  8  2  0  0  0  0
 14 10  1  0  0  0  0
 15 18  2  0  0  0  0
 16 20  1  6  0  0  0
 16  9  1  0  0  0  0
 17 16  1  0  0  0  0
 17 11  1  0  0  0  0
 18  8  1  0  0  0  0
 20 19  1  0  0  0  0
 21 20  2  0  0  0  0
 22 23  2  0  0  0  0
 22 27  1  0  0  0  0
 23 24  1  0  0  0  0
 24 28  1  0  0  0  0
 24 26  2  0  0  0  0
 25 26  1  0  0  0  0
 27 25  2  0  0  0  0
 29 28  1  0  0  0  0
 30 31  1  0  0  0  0
 30 29  1  0  0  0  0
 31 35  1  0  0  0  0
 32 34  2  0  0  0  0
 32 33  1  0  0  0  0
 33 30  2  0  0  0  0
 34 36  1  0  0  0  0
 36 31  2  0  0  0  0
 37  7  1  0  0  0  0
 38 37  1  0  0  0  0
M  END
>  <MODEL>
7

>  <REMARK>
 VINA RESULT:      -7.4      1.786      9.955
  Name = 
  7 active torsions:
  status: ('A' for Active; 'I' for Inactive)
    1  A    between atoms: C_1  and  C_28
    2  A    between atoms: N_4  and  C_6
    3  A    between atoms: N_4  and  O_23
    4  A    between atoms: N_11  and  C_33
    5  A    between atoms: C_14  and  C_32
    6  A    between atoms: C_20  and  O_23
    7  A    between atoms: C_21  and  CA_25
                            x       y       z     vdW  Elec       q    Type
                         _______ _______ _______ _____ _____    ______ ____

>  <TORSDO>
F 7

$$$$
=
 OpenBabel11042422453D

 38 42  0  0  1  0  0  0  0  0999 V2000
  160.8320  209.6110  153.9540 C   0  0  0  0  0  0  0  0  0  0  0  0
  161.2850  207.3130  153.3330 C   0  0  0  0  0  3  0  0  0  0  0  0
  160.6950  208.9050  151.6700 N   0  0  0  0  0  0  0  0  0  0  0  0
  160.5900  209.9050  152.5890 C   0  0  0  0  0  0  0  0  0  0  0  0
  160.6690  210.6430  155.0250 C   0  0  0  0  0  1  0  0  0  0  0  0
  161.0380  207.6320  151.9970 C   0  0  0  0  0  0  0  0  0  0  0  0
  161.1850  208.3000  154.3180 C   0  0  0  0  0  0  0  0  0  0  0  0
  161.1100  205.2110  151.2850 C   0  0  0  0  0  0  0  0  0  0  0  0
  161.3880  203.7660  147.8490 N   0  0  0  0  0  2  0  0  0  0  0  0
  161.2320  206.9590  149.5650 C   0  0  0  0  0  0  0  0  0  0  0  0
  161.3120  205.9430  148.6080 C   0  0  0  0  0  0  0  0  0  0  0  0
  161.0390  204.7500  152.7040 C   0  0  0  0  0  1  0  0  0  0  0  0
  161.1350  206.5940  150.9390 C   0  0  0  0  0  0  0  0  0  0  0  0
  161.2020  208.3850  149.1130 C   0  0  0  0  0  1  0  0  0  0  0  0
  161.2930  204.6270  148.9620 C   0  0  0  0  0  0  0  0  0  0  0  0
  161.4780  204.6020  146.6510 C   0  0  1  0  0  3  0  0  0  0  0  0
  161.4260  206.0700  147.1290 C   0  0  0  0  0  2  0  0  0  0  0  0
  161.1920  204.2280  150.2890 C   0  0  0  0  0  3  0  0  0  0  0  0
  163.8590  204.6970  146.4200 O   0  0  0  0  0  1  0  0  0  0  0  0
  162.7570  204.3350  145.9270 C   0  0  0  0  0  0  0  0  0  0  0  0
  162.7290  203.7080  144.6900 O   0  0  0  0  0  0  0  0  0  0  0  0
  160.2110  211.2540  152.1010 C   0  0  0  0  0  0  0  0  0  0  0  0
  159.0340  211.8520  152.5790 C   0  0  0  0  0  3  0  0  0  0  0  0
  158.6270  213.1060  152.1130 C   0  0  0  0  0  0  0  0  0  0  0  0
  160.5630  213.1800  150.6560 C   0  0  0  0  0  3  0  0  0  0  0  0
  159.3980  213.7690  151.1490 C   0  0  0  0  0  3  0  0  0  0  0  0
  160.9640  211.9270  151.1270 C   0  0  0  0  0  3  0  0  0  0  0  0
  157.4560  213.6700  152.6190 O   0  0  0  0  0  0  0  0  0  0  0  0
  157.4050  214.2090  153.8870 N   0  0  0  0  0  2  0  0  0  0  0  0
  157.1040  213.4010  155.0250 C   0  0  0  0  0  0  0  0  0  0  0  0
  158.0010  213.3430  156.1020 C   0  0  0  0  0  0  0  0  0  0  0  0
  155.6230  211.8680  156.1880 C   0  0  0  0  0  3  0  0  0  0  0  0
  155.9150  212.6590  155.0730 C   0  0  0  0  0  3  0  0  0  0  0  0
  156.5170  211.8150  157.2600 C   0  0  0  0  0  3  0  0  0  0  0  0
  159.1880  214.0650  156.0700 O   0  0  0  0  0  1  0  0  0  0  0  0
  157.7050  212.5500  157.2170 C   0  0  0  0  0  3  0  0  0  0  0  0
  161.4290  207.9760  155.6940 N   0  0  0  0  0  2  0  0  0  0  0  0
  160.4430  207.3300  156.5460 C   0  0  0  0  0  1  0  0  0  0  0  0
  1  7  1  0  0  0  0
  1  5  1  0  0  0  0
  2  7  2  0  0  0  0
  3  6  2  0  0  0  0
  3  4  1  0  0  0  0
  4  1  2  0  0  0  0
  6  2  1  0  0  0  0
  7 37  1  0  0  0  0
  8 12  1  0  0  0  0
  9 15  1  0  0  0  0
 10 13  2  0  0  0  0
 11 15  2  0  0  0  0
 11 10  1  0  0  0  0
 13  8  1  0  0  0  0
 13  6  1  0  0  0  0
 14 10  1  0  0  0  0
 15 18  1  0  0  0  0
 16 20  1  1  0  0  0
 16 17  1  0  0  0  0
 16  9  1  0  0  0  0
 17 11  1  0  0  0  0
 18  8  2  0  0  0  0
 20 19  1  0  0  0  0
 21 20  2  0  0  0  0
 22 23  1  0  0  0  0
 22  4  1  0  0  0  0
 24 23  2  0  0  0  0
 24 28  1  0  0  0  0
 25 27  1  0  0  0  0
 25 26  2  0  0  0  0
 26 24  1  0  0  0  0
 27 22  2  0  0  0  0
 28 29  1  0  0  0  0
 29 30  1  0  0  0  0
 30 33  2  0  0  0  0
 30 31  1  0  0  0  0
 31 36  2  0  0  0  0
 32 34  2  0  0  0  0
 33 32  1  0  0  0  0
 35 31  1  0  0  0  0
 36 34  1  0  0  0  0
 37 38  1  0  0  0  0
M  END
>  <MODEL>
8

>  <REMARK>
 VINA RESULT:      -7.2      2.032     10.365
  Name = 
  7 active torsions:
  status: ('A' for Active; 'I' for Inactive)
    1  A    between atoms: C_1  and  C_28
    2  A    between atoms: N_4  and  C_6
    3  A    between atoms: N_4  and  O_23
    4  A    between atoms: N_11  and  C_33
    5  A    between atoms: C_14  and  C_32
    6  A    between atoms: C_20  and  O_23
    7  A    between atoms: C_21  and  CA_25
                            x       y       z     vdW  Elec       q    Type
                         _______ _______ _______ _____ _____    ______ ____

>  <TORSDO>
F 7

$$$$
=
 OpenBabel11042422453D

 38 42  0  0  1  0  0  0  0  0999 V2000
  160.7460  209.5690  154.0530 C   0  0  0  0  0  0  0  0  0  0  0  0
  161.2930  207.2800  153.4730 C   0  0  0  0  0  3  0  0  0  0  0  0
  160.6450  208.8190  151.7810 N   0  0  0  0  0  0  0  0  0  0  0  0
  160.4970  209.8290  152.6830 C   0  0  0  0  0  0  0  0  0  0  0  0
  160.5380  210.6100  155.1070 C   0  0  0  0  0  1  0  0  0  0  0  0
  161.0390  207.5660  152.1310 C   0  0  0  0  0  0  0  0  0  0  0  0
  161.1500  208.2780  154.4410 C   0  0  0  0  0  0  0  0  0  0  0  0
  161.4610  206.8770  149.7390 C   0  0  0  0  0  0  0  0  0  0  0  0
  161.5820  203.4480  148.2540 N   0  0  0  0  0  2  0  0  0  0  0  0
  161.0600  205.1360  151.4240 C   0  0  0  0  0  0  0  0  0  0  0  0
  161.2100  204.1870  150.4080 C   0  0  0  0  0  0  0  0  0  0  0  0
  161.5710  208.3020  149.3070 C   0  0  0  0  0  1  0  0  0  0  0  0
  161.1800  206.5160  151.0900 C   0  0  0  0  0  0  0  0  0  0  0  0
  160.8290  204.6710  152.8270 C   0  0  0  0  0  1  0  0  0  0  0  0
  161.4720  204.5560  149.1220 C   0  0  0  0  0  0  0  0  0  0  0  0
  161.3720  202.2410  149.0530 C   0  0  1  0  0  3  0  0  0  0  0  0
  161.1240  202.7040  150.5050 C   0  0  0  0  0  2  0  0  0  0  0  0
  161.6030  205.8890  148.7550 C   0  0  0  0  0  3  0  0  0  0  0  0
  160.2790  200.8090  147.4760 O   0  0  0  0  0  0  0  0  0  0  0  0
  160.1950  201.4790  148.5410 C   0  0  0  0  0  0  0  0  0  0  0  0
  158.9900  201.5300  149.2280 O   0  0  0  0  0  1  0  0  0  0  0  0
  160.0660  211.1540  152.1710 C   0  0  0  0  0  0  0  0  0  0  0  0
  158.8070  211.6550  152.5380 C   0  0  0  0  0  3  0  0  0  0  0  0
  158.3530  212.8830  152.0450 C   0  0  0  0  0  0  0  0  0  0  0  0
  160.4090  213.1210  150.7810 C   0  0  0  0  0  3  0  0  0  0  0  0
  159.1600  213.6150  151.1640 C   0  0  0  0  0  3  0  0  0  0  0  0
  160.8560  211.8940  151.2790 C   0  0  0  0  0  3  0  0  0  0  0  0
  157.1010  213.3510  152.4400 O   0  0  0  0  0  0  0  0  0  0  0  0
  156.9590  214.2210  153.5010 N   0  0  0  0  0  2  0  0  0  0  0  0
  157.5710  213.9580  154.7630 C   0  0  0  0  0  0  0  0  0  0  0  0
  156.8910  213.2020  155.7300 C   0  0  0  0  0  0  0  0  0  0  0  0
  159.4490  214.1940  156.2840 C   0  0  0  0  0  3  0  0  0  0  0  0
  158.8510  214.4530  155.0470 C   0  0  0  0  0  3  0  0  0  0  0  0
  158.7690  213.4380  157.2430 C   0  0  0  0  0  3  0  0  0  0  0  0
  155.6180  212.7090  155.4700 O   0  0  0  0  0  1  0  0  0  0  0  0
  157.4920  212.9440  156.9670 C   0  0  0  0  0  3  0  0  0  0  0  0
  161.4020  207.9880  155.8220 N   0  0  0  0  0  2  0  0  0  0  0  0
  160.3460  207.8720  156.8160 C   0  0  0  0  0  1  0  0  0  0  0  0
  1  7  1  0  0  0  0
  1  5  1  0  0  0  0
  2  7  2  0  0  0  0
  3  6  2  0  0  0  0
  3  4  1  0  0  0  0
  4  1  2  0  0  0  0
  6  2  1  0  0  0  0
  7 37  1  0  0  0  0
  8 13  1  0  0  0  0
  9 16  1  0  0  0  0
  9 15  1  0  0  0  0
 10 14  1  0  0  0  0
 11 17  1  0  0  0  0
 11 10  1  0  0  0  0
 12  8  1  0  0  0  0
 13 10  2  0  0  0  0
 13  6  1  0  0  0  0
 15 11  2  0  0  0  0
 16 20  1  6  0  0  0
 16 17  1  0  0  0  0
 18 15  1  0  0  0  0
 18  8  2  0  0  0  0
 19 20  2  0  0  0  0
 20 21  1  0  0  0  0
 22 23  1  0  0  0  0
 22  4  1  0  0  0  0
 24 28  1  0  0  0  0
 24 23  2  0  0  0  0
 25 26  2  0  0  0  0
 25 27  1  0  0  0  0
 26 24  1  0  0  0  0
 27 22  2  0  0  0  0
 28 29  1  0  0  0  0
 29 30  1  0  0  0  0
 30 33  2  0  0  0  0
 30 31  1  0  0  0  0
 31 36  2  0  0  0  0
 32 34  2  0  0  0  0
 33 32  1  0  0  0  0
 35 31  1  0  0  0  0
 36 34  1  0  0  0  0
 37 38  1  0  0  0  0
M  END
>  <MODEL>
9

>  <REMARK>
 VINA RESULT:      -7.2      2.062     10.282
  Name = 
  7 active torsions:
  status: ('A' for Active; 'I' for Inactive)
    1  A    between atoms: C_1  and  C_28
    2  A    between atoms: N_4  and  C_6
    3  A    between atoms: N_4  and  O_23
    4  A    between atoms: N_11  and  C_33
    5  A    between atoms: C_14  and  C_32
    6  A    between atoms: C_20  and  O_23
    7  A    between atoms: C_21  and  CA_25
                            x       y       z     vdW  Elec       q    Type
                         _______ _______ _______ _____ _____    ______ ____

>  <TORSDO>
F 7

$$$$
