=
 OpenBabel11042420553D

 64 75  0  0  1  0  0  0  0  0999 V2000
  162.7700  208.0560  147.4070 C   0  0  0  0  0  0  0  0  0  0  0  0
  162.8570  207.5890  146.1900 C   0  0  0  0  0  3  0  0  0  0  0  0
  161.4920  206.8830  155.1920 N   0  0  0  0  0  0  0  0  0  0  0  0
  162.7920  210.9530  148.7390 C   0  0  0  0  0  0  0  0  0  0  0  0
  161.2980  206.2240  152.8700 C   0  0  2  0  0  3  0  0  0  0  0  0
  161.3490  205.7980  154.2970 C   0  0  0  0  0  0  0  0  0  0  0  0
  159.9400  206.3100  150.0090 O   0  0  0  0  0  1  0  0  0  0  0  0
  162.0490  204.0050  151.8820 C   0  0  0  0  0  2  0  0  0  0  0  0
  162.7210  208.4910  148.6370 C   0  0  0  0  0  3  0  0  0  0  0  0
  160.4500  208.5740  152.3540 C   0  0  0  0  0  2  0  0  0  0  0  0
  162.3410  205.5230  151.9640 C   0  0  2  0  0  0  0  0  0  0  0  0
  160.8090  203.6540  148.1930 C   0  0  1  0  0  3  0  0  0  0  0  0
  161.2020  204.6130  154.6900 O   0  0  0  0  0  0  0  0  0  0  0  0
  163.4100  211.6160  149.6720 N   0  0  0  0  0  0  0  0  0  0  0  0
  160.0420  205.4080  145.9760 O   0  0  0  0  0  1  0  0  0  0  0  0
  160.7510  208.8180  150.9440 N   0  0  0  0  0  0  0  0  0  0  0  0
  160.9810  204.1710  149.6380 C   0  0  2  0  0  3  0  0  0  0  0  0
  162.4720  210.3710  151.4640 N   0  0  0  0  0  0  0  0  0  0  0  0
  162.5000  205.8560  144.6410 O   0  0  0  0  0  0  0  0  0  0  0  0
  161.9710  209.7220  149.0540 C   0  0  1  0  0  3  0  0  0  0  0  0
  162.9490  211.3540  147.3830 N   0  0  0  0  0  1  0  0  0  0  0  0
  161.2470  205.6040  146.6600 C   0  0  2  0  0  3  0  0  0  0  0  0
  163.7580  205.6920  152.5140 C   0  0  0  0  0  1  0  0  0  0  0  0
  161.5470  207.7420  153.0070 C   0  0  1  0  0  3  0  0  0  0  0  0
  161.1430  205.6900  149.6950 C   0  0  2  0  0  3  0  0  0  0  0  0
  162.2300  206.3190  145.7810 C   0  0  0  0  0  0  0  0  0  0  0  0
  161.6750  209.6300  150.5280 C   0  0  0  0  0  0  0  0  0  0  0  0
  163.2910  211.2910  151.0610 C   0  0  0  0  0  3  0  0  0  0  0  0
  162.3060  206.1680  150.5760 C   0  0  0  0  0  2  0  0  0  0  0  0
  161.7940  204.2780  147.1850 C   0  0  0  0  0  2  0  0  0  0  0  0
  162.0610  203.4470  150.4530 C   0  0  0  0  0  2  0  0  0  0  0  0
  161.5720  207.9590  154.4890 C   0  0  0  0  0  0  0  0  0  0  0  0
  160.9390  198.0480  146.2370 C   0  0  0  0  0  3  0  0  0  0  0  0
  161.5660  198.1960  145.1070 N   0  0  0  0  0  0  0  0  0  0  0  0
  160.2690  201.3900  147.0790 C   0  0  2  0  0  3  0  0  0  0  0  0
  160.6060  201.4660  145.7860 C   0  0  0  0  0  2  0  0  0  0  0  0
  160.7750  202.1850  148.1360 N   0  0  2  0  0  0  0  0  0  0  0  0
  160.7910  201.3440  149.3410 C   0  0  0  0  0  2  0  0  0  0  0  0
  160.4840  200.0810  145.3310 C   0  0  2  0  0  3  0  0  0  0  0  0
  160.1630  199.2560  146.4540 C   0  0  2  0  0  3  0  0  0  0  0  0
  160.0580  200.0440  147.5070 C   0  0  1  0  0  3  0  0  0  0  0  0
  161.3420  199.4810  144.5790 N   0  0  0  0  0  2  0  0  0  0  0  0
  160.5760  199.8800  148.8840 C   0  0  0  0  0  2  0  0  0  0  0  0
  161.5970  209.5750  155.2580 S   0  0  0  0  0  0  0  0  0  0  0  0
  159.4390  211.2580  155.1360 C   0  0  2  0  0  3  0  0  0  0  0  0
  159.7960  209.7850  155.1680 C   0  0  2  0  0  3  0  0  0  0  0  0
  159.3650  210.4790  156.4370 C   0  0  0  0  0  2  0  0  0  0  0  0
  157.8340  212.6550  153.7010 C   0  0  2  0  0  0  0  0  0  0  0  0
  158.0470  211.2680  153.1070 C   0  0  2  0  0  0  0  0  0  0  0  0
  157.4520  210.1950  153.9860 C   0  0  0  0  0  2  0  0  0  0  0  0
  158.0190  211.4440  154.6220 C   0  0  1  0  0  0  0  0  0  0  0  0
  156.4220  213.2280  153.8050 C   0  0  2  0  0  3  0  0  0  0  0  0
  156.3540  214.4530  153.1360 O   0  0  0  0  0  1  0  0  0  0  0  0
  155.0830  212.2240  155.7500 C   0  0  0  0  0  0  0  0  0  0  0  0
  155.3140  211.7730  157.1890 C   0  0  0  0  0  1  0  0  0  0  0  0
  154.6290  211.1700  154.7440 C   0  0  0  0  0  1  0  0  0  0  0  0
  156.0100  213.3500  155.2850 C   0  0  2  0  0  3  0  0  0  0  0  0
  154.5200  213.6180  155.4900 C   0  0  2  0  0  3  0  0  0  0  0  0
  152.8980  214.3680  157.2150 C   0  0  0  0  0  1  0  0  0  0  0  0
  154.3380  214.4500  156.7540 C   0  0  0  0  0  2  0  0  0  0  0  0
  158.9210  213.5600  153.7330 O   0  0  0  0  0  0  0  0  0  0  0  0
  159.7660  214.4530  151.7050 C   0  0  0  0  0  1  0  0  0  0  0  0
  159.7780  213.2720  152.6610 C   0  0  2  0  0  3  0  0  0  0  0  0
  159.2710  212.0530  151.9130 C   0  0  0  0  0  2  0  0  0  0  0  0
  1  9  2  0  0  0  0
  2  1  2  0  0  0  0
  4 20  1  0  0  0  0
  4 14  2  0  0  0  0
  5 24  1  0  0  0  0
  5  6  1  1  0  0  0
  6 13  2  0  0  0  0
  6  3  1  0  0  0  0
  8 11  1  0  0  0  0
 11 23  1  1  0  0  0
 11  5  1  0  0  0  0
 12 30  1  6  0  0  0
 12 17  1  0  0  0  0
 14 28  1  0  0  0  0
 16 10  1  0  0  0  0
 17 25  1  0  0  0  0
 17 31  1  6  0  0  0
 19 26  2  0  0  0  0
 20  9  1  1  0  0  0
 20 27  1  0  0  0  0
 21  4  1  0  0  0  0
 22 15  1  6  0  0  0
 22 30  1  0  0  0  0
 24 10  1  6  0  0  0
 24 32  1  0  0  0  0
 25  7  1  1  0  0  0
 25 29  1  0  0  0  0
 26  2  1  0  0  0  0
 26 22  1  0  0  0  0
 27 16  2  0  0  0  0
 27 18  1  0  0  0  0
 28 18  2  0  0  0  0
 29 11  1  0  0  0  0
 31  8  1  0  0  0  0
 32  3  2  0  0  0  0
 32 44  1  0  0  0  0
 34 33  2  0  0  0  0
 35 36  1  6  0  0  0
 35 41  1  0  0  0  0
 35 37  1  0  0  0  0
 37 12  1  0  0  0  0
 37 38  1  1  0  0  0
 39 36  1  1  0  0  0
 39 40  1  0  0  0  0
 40 33  1  1  0  0  0
 40 41  1  0  0  0  0
 41 43  1  1  0  0  0
 42 34  1  0  0  0  0
 42 39  1  0  0  0  0
 43 38  1  0  0  0  0
 45 46  1  0  0  0  0
 45 47  1  1  0  0  0
 46 44  1  1  0  0  0
 46 47  1  0  0  0  0
 48 61  1  0  0  0  0
 48 52  1  6  0  0  0
 48 51  1  0  0  0  0
 49 64  1  6  0  0  0
 49 48  1  0  0  0  0
 49 50  1  0  0  0  0
 49 51  1  0  0  0  0
 51 50  1  1  0  0  0
 51 45  1  0  0  0  0
 52 53  1  1  0  0  0
 54 55  1  0  0  0  0
 56 54  1  0  0  0  0
 57 52  1  6  0  0  0
 57 58  1  0  0  0  0
 57 54  1  0  0  0  0
 58 54  1  0  0  0  0
 58 60  1  1  0  0  0
 60 59  1  0  0  0  0
 63 62  1  6  0  0  0
 63 61  1  0  0  0  0
 64 63  1  0  0  0  0
M  END
>  <MODEL>
1

>  <REMARK>
 VINA RESULT:      17.5      0.000      0.000
  Name = 
  9 active torsions:
  status: ('A' for Active; 'I' for Inactive)
    1  A    between atoms: O_6  and  C_19
    2  A    between atoms: O_6  and  C_21
    3  A    between atoms: C_14  and  C_19
    4  A    between atoms: C_14  and  C_57
    5  A    between atoms: C_22  and  N_30
    6  A    between atoms: C_24  and  C_51
    7  A    between atoms: C_41  and  C_64
    8  A    between atoms: S_52  and  C_60
    9  A    between atoms: S_52  and  C_63
                            x       y       z     vdW  Elec       q    Type
                         _______ _______ _______ _____ _____    ______ ____

>  <TORSDO>
F 9

$$$$
=
 OpenBabel11042420553D

 64 74  0  0  1  0  0  0  0  0999 V2000
  162.2720  208.2530  147.7790 C   0  0  0  0  0  0  0  0  0  0  0  0
  162.3610  207.8030  146.5550 C   0  0  0  0  0  3  0  0  0  0  0  0
  161.2130  206.9350  155.5730 N   0  0  0  0  0  0  0  0  0  0  0  0
  162.1590  211.1330  149.1420 C   0  0  0  0  0  0  0  0  0  0  0  0
  161.0110  206.2890  153.2480 C   0  0  2  0  0  3  0  0  0  0  0  0
  161.1130  205.8520  154.6690 C   0  0  0  0  0  0  0  0  0  0  0  0
  159.5940  206.3270  150.4150 O   0  0  0  0  0  1  0  0  0  0  0  0
  161.8630  204.1250  152.2230 C   0  0  0  0  0  2  0  0  0  0  0  0
  162.2230  208.6720  149.0140 C   0  0  0  0  0  3  0  0  0  0  0  0
  160.0230  208.5930  152.7740 C   0  0  0  0  0  2  0  0  0  0  0  0
  162.0730  205.6550  152.3150 C   0  0  2  0  0  0  0  0  0  0  0  0
  160.5730  203.7410  148.5530 C   0  0  1  0  0  3  0  0  0  0  0  0
  161.0390  204.6570  155.0520 O   0  0  0  0  0  0  0  0  0  0  0  0
  162.7580  211.8200  150.0690 N   0  0  0  0  0  0  0  0  0  0  0  0
  159.6680  205.4720  146.3710 O   0  0  0  0  0  1  0  0  0  0  0  0
  160.2830  208.8660  151.3610 N   0  0  0  0  0  0  0  0  0  0  0  0
  160.7440  204.2520  150.0010 C   0  0  2  0  0  3  0  0  0  0  0  0
  161.9250  210.5080  151.8650 N   0  0  0  0  0  0  0  0  0  0  0  0
  162.0700  206.0690  144.9940 O   0  0  0  0  0  0  0  0  0  0  0  0
  161.4140  209.8550  149.4590 C   0  0  1  0  0  3  0  0  0  0  0  0
  162.2680  211.5560  147.7870 N   0  0  0  0  0  1  0  0  0  0  0  0
  160.8730  205.7270  147.0340 C   0  0  2  0  0  3  0  0  0  0  0  0
  163.4890  205.8970  152.8400 C   0  0  0  0  0  1  0  0  0  0  0  0
  161.1770  207.8170  153.3970 C   0  0  1  0  0  3  0  0  0  0  0  0
  160.8230  205.7780  150.0710 C   0  0  2  0  0  3  0  0  0  0  0  0
  161.7970  206.5040  146.1440 C   0  0  0  0  0  0  0  0  0  0  0  0
  161.1530  209.7330  150.9370 C   0  0  0  0  0  0  0  0  0  0  0  0
  162.6840  211.4760  151.4570 C   0  0  0  0  0  3  0  0  0  0  0  0
  161.9750  206.3110  150.9350 C   0  0  0  0  0  2  0  0  0  0  0  0
  161.5020  204.4290  147.5340 C   0  0  0  0  0  2  0  0  0  0  0  0
  161.8790  203.5820  150.7870 C   0  0  0  0  0  2  0  0  0  0  0  0
  161.2190  208.0210  154.8810 C   0  0  0  0  0  0  0  0  0  0  0  0
  161.2220  198.1760  146.5860 C   0  0  0  0  0  3  0  0  0  0  0  0
  161.9760  198.3700  145.5430 N   0  0  0  0  0  0  0  0  0  0  0  0
  160.2880  201.4690  147.3640 C   0  0  2  0  0  3  0  0  0  0  0  0
  160.7780  201.5790  146.1230 C   0  0  0  0  0  2  0  0  0  0  0  0
  160.6190  202.2730  148.4810 N   0  0  2  0  0  0  0  0  0  0  0  0
  160.5280  201.4170  149.6730 C   0  0  0  0  0  2  0  0  0  0  0  0
  160.7830  200.1970  145.6460 C   0  0  2  0  0  3  0  0  0  0  0  0
  160.3670  199.3420  146.7140 C   0  0  2  0  0  3  0  0  0  0  0  0
  160.0920  200.1090  147.7520 C   0  0  1  0  0  3  0  0  0  0  0  0
  161.7560  199.6500  145.0020 N   0  0  0  0  0  2  0  0  0  0  0  0
  160.4440  199.9520  149.1810 C   0  0  0  0  0  2  0  0  0  0  0  0
  161.1700  209.6280  155.6660 S   0  0  0  0  0  0  0  0  0  0  0  0
  159.0860  211.3980  155.5130 C   0  0  2  0  0  3  0  0  0  0  0  0
  159.5120  210.0220  155.0410 C   0  0  2  0  0  3  0  0  0  0  0  0
  158.6040  210.1560  156.2390 C   0  0  0  0  0  2  0  0  0  0  0  0
  158.0980  213.3660  154.1930 C   0  0  2  0  0  0  0  0  0  0  0  0
  158.4890  212.2180  153.2710 C   0  0  2  0  0  3  0  0  0  0  0  0
  157.6140  211.0090  153.4920 C   0  0  0  0  0  2  0  0  0  0  0  0
  157.9370  211.9150  154.6590 C   0  0  1  0  0  0  0  0  0  0  0  0
  156.7450  214.0530  154.0180 C   0  0  2  0  0  3  0  0  0  0  0  0
  155.7300  213.2430  154.5320 O   0  0  0  0  0  1  0  0  0  0  0  0
  155.3560  213.6250  151.9040 C   0  0  0  0  0  0  0  0  0  0  0  0
  154.5530  214.4210  150.8790 C   0  0  0  0  0  1  0  0  0  0  0  0
  154.6050  212.5950  152.7430 C   0  0  0  0  0  1  0  0  0  0  0  0
  156.5170  214.3990  152.5330 C   0  0  2  0  0  3  0  0  0  0  0  0
  156.7950  213.2370  151.5810 C   0  0  2  0  0  3  0  0  0  0  0  0
  158.7350  213.3740  150.0350 C   0  0  0  0  0  1  0  0  0  0  0  0
  157.2970  213.7970  150.2550 C   0  0  0  0  0  2  0  0  0  0  0  0
  159.1160  214.0690  154.8800 O   0  0  0  0  0  0  0  0  0  0  0  0
  157.7030  214.4490  156.7460 C   0  0  0  0  0  1  0  0  0  0  0  0
  158.9920  213.8140  156.2530 C   0  0  0  0  0  3  0  0  0  0  0  0
  160.1500  214.4500  156.9990 C   0  0  0  0  0  1  0  0  0  0  0  0
  1  9  2  0  0  0  0
  2  1  2  0  0  0  0
  4 20  1  0  0  0  0
  4 14  2  0  0  0  0
  5 24  1  0  0  0  0
  5  6  1  1  0  0  0
  6 13  2  0  0  0  0
  6  3  1  0  0  0  0
  8 11  1  0  0  0  0
 11 23  1  1  0  0  0
 11  5  1  0  0  0  0
 12 30  1  6  0  0  0
 12 17  1  0  0  0  0
 14 28  1  0  0  0  0
 16 10  1  0  0  0  0
 17 25  1  0  0  0  0
 17 31  1  6  0  0  0
 19 26  2  0  0  0  0
 20  9  1  1  0  0  0
 20 27  1  0  0  0  0
 21  4  1  0  0  0  0
 22 15  1  6  0  0  0
 22 30  1  0  0  0  0
 24 10  1  1  0  0  0
 24 32  1  0  0  0  0
 25  7  1  1  0  0  0
 25 29  1  0  0  0  0
 26  2  1  0  0  0  0
 26 22  1  0  0  0  0
 27 16  2  0  0  0  0
 27 18  1  0  0  0  0
 28 18  2  0  0  0  0
 29 11  1  0  0  0  0
 31  8  1  0  0  0  0
 32  3  2  0  0  0  0
 32 44  1  0  0  0  0
 34 33  2  0  0  0  0
 35 36  1  6  0  0  0
 35 41  1  0  0  0  0
 35 37  1  0  0  0  0
 37 12  1  0  0  0  0
 37 38  1  1  0  0  0
 39 36  1  1  0  0  0
 39 40  1  0  0  0  0
 40 33  1  1  0  0  0
 40 41  1  0  0  0  0
 41 43  1  1  0  0  0
 42 34  1  0  0  0  0
 42 39  1  0  0  0  0
 43 38  1  0  0  0  0
 45 47  1  1  0  0  0
 46 45  1  0  0  0  0
 46 44  1  1  0  0  0
 46 47  1  0  0  0  0
 48 51  1  0  0  0  0
 48 61  1  1  0  0  0
 49 50  1  6  0  0  0
 49 48  1  0  0  0  0
 49 51  1  0  0  0  0
 51 50  1  1  0  0  0
 51 45  1  0  0  0  0
 52 48  1  0  0  0  0
 52 53  1  6  0  0  0
 54 57  1  0  0  0  0
 54 56  1  0  0  0  0
 55 54  1  0  0  0  0
 57 52  1  1  0  0  0
 58 60  1  6  0  0  0
 58 54  1  0  0  0  0
 58 57  1  0  0  0  0
 59 60  1  0  0  0  0
 61 63  1  0  0  0  0
 63 62  1  0  0  0  0
 63 64  1  0  0  0  0
M  END
>  <MODEL>
2

>  <REMARK>
 VINA RESULT:      17.8      1.289      2.296
  Name = 
  9 active torsions:
  status: ('A' for Active; 'I' for Inactive)
    1  A    between atoms: O_6  and  C_19
    2  A    between atoms: O_6  and  C_21
    3  A    between atoms: C_14  and  C_19
    4  A    between atoms: C_14  and  C_57
    5  A    between atoms: C_22  and  N_30
    6  A    between atoms: C_24  and  C_51
    7  A    between atoms: C_41  and  C_64
    8  A    between atoms: S_52  and  C_60
    9  A    between atoms: S_52  and  C_63
                            x       y       z     vdW  Elec       q    Type
                         _______ _______ _______ _____ _____    ______ ____

>  <TORSDO>
F 9

$$$$
=
 OpenBabel11042420553D

 64 74  0  0  1  0  0  0  0  0999 V2000
  160.1350  201.8930  147.5980 C   0  0  0  0  0  0  0  0  0  0  0  0
  159.8910  201.2490  146.4870 C   0  0  0  0  0  3  0  0  0  0  0  0
  161.9490  208.6540  151.4200 N   0  0  0  0  0  0  0  0  0  0  0  0
  160.5500  201.0810  150.6530 C   0  0  0  0  0  0  0  0  0  0  0  0
  161.8650  207.2790  149.4270 C   0  0  2  0  0  3  0  0  0  0  0  0
  161.8920  208.6530  150.0070 C   0  0  0  0  0  0  0  0  0  0  0  0
  162.9710  205.0200  147.5020 O   0  0  0  0  0  1  0  0  0  0  0  0
  160.7910  207.9240  147.2160 C   0  0  0  0  0  2  0  0  0  0  0  0
  160.3380  202.5660  148.6970 C   0  0  0  0  0  3  0  0  0  0  0  0
  162.9200  205.3910  150.7800 C   0  0  0  0  0  2  0  0  0  0  0  0
  160.6760  207.0230  148.4680 C   0  0  2  0  0  0  0  0  0  0  0  0
  161.6590  205.3010  144.4510 C   0  0  1  0  0  3  0  0  0  0  0  0
  161.9420  209.7090  149.3270 O   0  0  0  0  0  0  0  0  0  0  0  0
  160.0920  201.3790  151.8330 N   0  0  0  0  0  0  0  0  0  0  0  0
  162.4190  202.4780  144.2890 O   0  0  0  0  0  1  0  0  0  0  0  0
  162.5260  204.1470  150.1210 N   0  0  0  0  0  0  0  0  0  0  0  0
  161.6720  206.0890  145.7790 C   0  0  2  0  0  3  0  0  0  0  0  0
  161.0390  203.5560  151.8770 N   0  0  0  0  0  0  0  0  0  0  0  0
  159.9190  201.1550  144.1370 O   0  0  0  0  0  0  0  0  0  0  0  0
  161.2540  202.1090  149.7940 C   0  0  1  0  0  3  0  0  0  0  0  0
  160.3200  199.7790  150.1280 N   0  0  0  0  0  1  0  0  0  0  0  0
  161.3070  202.8780  145.0390 C   0  0  2  0  0  3  0  0  0  0  0  0
  159.3400  207.3360  149.1420 C   0  0  0  0  0  1  0  0  0  0  0  0
  161.7990  206.4210  150.7090 C   0  0  1  0  0  3  0  0  0  0  0  0
  161.6840  205.1680  147.0000 C   0  0  2  0  0  3  0  0  0  0  0  0
  160.3360  201.7420  145.1700 C   0  0  0  0  0  0  0  0  0  0  0  0
  161.6650  203.3070  150.6100 C   0  0  0  0  0  0  0  0  0  0  0  0
  160.2950  202.6580  152.4430 C   0  0  0  0  0  3  0  0  0  0  0  0
  160.6620  205.5410  148.0830 C   0  0  0  0  0  2  0  0  0  0  0  0
  160.6650  204.1240  144.4330 C   0  0  0  0  0  2  0  0  0  0  0  0
  160.5930  207.1750  145.8910 C   0  0  0  0  0  2  0  0  0  0  0  0
  161.9270  207.4270  151.8110 C   0  0  0  0  0  0  0  0  0  0  0  0
  161.8630  207.5000  138.9380 C   0  0  0  0  0  3  0  0  0  0  0  0
  161.9650  206.4070  138.2410 N   0  0  0  0  0  0  0  0  0  0  0  0
  162.4090  206.2820  142.1850 C   0  0  2  0  0  3  0  0  0  0  0  0
  162.8310  205.2760  141.4100 C   0  0  0  0  0  2  0  0  0  0  0  0
  161.5260  206.1910  143.2870 N   0  0  2  0  0  0  0  0  0  0  0  0
  160.7560  207.4430  143.3300 C   0  0  0  0  0  2  0  0  0  0  0  0
  162.9950  205.9120  140.1030 C   0  0  2  0  0  3  0  0  0  0  0  0
  162.5530  207.2680  140.1950 C   0  0  2  0  0  3  0  0  0  0  0  0
  162.1800  207.4800  141.4420 C   0  0  1  0  0  3  0  0  0  0  0  0
  162.6030  205.3990  138.9870 N   0  0  0  0  0  2  0  0  0  0  0  0
  160.9890  208.1720  141.9840 C   0  0  0  0  0  2  0  0  0  0  0  0
  162.1480  206.9940  153.5340 S   0  0  0  0  0  0  0  0  0  0  0  0
  161.0150  209.2090  154.6790 C   0  0  2  0  0  3  0  0  0  0  0  0
  160.6520  207.8670  154.0750 C   0  0  2  0  0  3  0  0  0  0  0  0
  160.7400  208.0150  155.5750 C   0  0  0  0  0  2  0  0  0  0  0  0
  159.7700  211.0910  155.9020 C   0  0  2  0  0  0  0  0  0  0  0  0
  160.2730  211.5510  154.5390 C   0  0  2  0  0  3  0  0  0  0  0  0
  159.5520  210.8440  153.4180 C   0  0  0  0  0  2  0  0  0  0  0  0
  159.7930  210.1160  154.7210 C   0  0  1  0  0  0  0  0  0  0  0  0
  158.3420  211.4170  156.3330 C   0  0  2  0  0  3  0  0  0  0  0  0
  157.5360  210.2820  156.2100 O   0  0  0  0  0  1  0  0  0  0  0  0
  156.3490  212.9590  155.8470 C   0  0  0  0  0  0  0  0  0  0  0  0
  156.0400  214.4530  155.8000 C   0  0  0  0  0  1  0  0  0  0  0  0
  155.5920  212.1140  156.8670 C   0  0  0  0  0  1  0  0  0  0  0  0
  157.8010  212.6050  155.5130 C   0  0  2  0  0  3  0  0  0  0  0  0
  156.6760  212.2260  154.5500 C   0  0  2  0  0  3  0  0  0  0  0  0
  157.7150  214.2710  153.5960 C   0  0  0  0  0  1  0  0  0  0  0  0
  156.7440  213.1400  153.3310 C   0  0  0  0  0  2  0  0  0  0  0  0
  160.7130  210.7790  156.9100 O   0  0  0  0  0  0  0  0  0  0  0  0
  163.0560  210.6790  157.2600 C   0  0  0  0  0  1  0  0  0  0  0  0
  161.9110  211.4510  156.6290 C   0  0  0  0  0  3  0  0  0  0  0  0
  161.8770  212.8370  157.2470 C   0  0  0  0  0  1  0  0  0  0  0  0
  1  9  2  0  0  0  0
  2  1  2  0  0  0  0
  3 32  2  0  0  0  0
  4 14  2  0  0  0  0
  5  6  1  1  0  0  0
  5 24  1  0  0  0  0
  6  3  1  0  0  0  0
  8 11  1  0  0  0  0
 11 23  1  1  0  0  0
 11  5  1  0  0  0  0
 12 30  1  1  0  0  0
 12 17  1  0  0  0  0
 13  6  2  0  0  0  0
 14 28  1  0  0  0  0
 16 27  2  0  0  0  0
 16 10  1  0  0  0  0
 17 31  1  1  0  0  0
 17 25  1  0  0  0  0
 18 28  2  0  0  0  0
 19 26  2  0  0  0  0
 20  9  1  6  0  0  0
 20 27  1  0  0  0  0
 20  4  1  0  0  0  0
 21  4  1  0  0  0  0
 22 15  1  6  0  0  0
 22 26  1  0  0  0  0
 24 10  1  6  0  0  0
 24 32  1  0  0  0  0
 25  7  1  1  0  0  0
 25 29  1  0  0  0  0
 26  2  1  0  0  0  0
 27 18  1  0  0  0  0
 29 11  1  0  0  0  0
 30 22  1  0  0  0  0
 31  8  1  0  0  0  0
 32 44  1  0  0  0  0
 34 33  2  0  0  0  0
 34 42  1  0  0  0  0
 35 36  1  6  0  0  0
 35 37  1  0  0  0  0
 37 38  1  1  0  0  0
 37 12  1  0  0  0  0
 39 40  1  0  0  0  0
 39 36  1  1  0  0  0
 40 33  1  6  0  0  0
 40 41  1  0  0  0  0
 41 43  1  6  0  0  0
 41 35  1  0  0  0  0
 42 39  1  0  0  0  0
 43 38  1  0  0  0  0
 45 51  1  0  0  0  0
 45 47  1  1  0  0  0
 46 44  1  6  0  0  0
 46 45  1  0  0  0  0
 46 47  1  0  0  0  0
 48 52  1  0  0  0  0
 48 61  1  1  0  0  0
 49 50  1  6  0  0  0
 49 51  1  0  0  0  0
 49 48  1  0  0  0  0
 51 50  1  6  0  0  0
 51 48  1  0  0  0  0
 52 53  1  6  0  0  0
 54 56  1  0  0  0  0
 55 54  1  0  0  0  0
 57 54  1  0  0  0  0
 57 52  1  1  0  0  0
 58 60  1  6  0  0  0
 58 57  1  0  0  0  0
 58 54  1  0  0  0  0
 60 59  1  0  0  0  0
 63 61  1  0  0  0  0
 63 64  1  0  0  0  0
 63 62  1  0  0  0  0
M  END
>  <MODEL>
3

>  <REMARK>
 VINA RESULT:      20.2      3.214      6.181
  Name = 
  9 active torsions:
  status: ('A' for Active; 'I' for Inactive)
    1  A    between atoms: O_6  and  C_19
    2  A    between atoms: O_6  and  C_21
    3  A    between atoms: C_14  and  C_19
    4  A    between atoms: C_14  and  C_57
    5  A    between atoms: C_22  and  N_30
    6  A    between atoms: C_24  and  C_51
    7  A    between atoms: C_41  and  C_64
    8  A    between atoms: S_52  and  C_60
    9  A    between atoms: S_52  and  C_63
                            x       y       z     vdW  Elec       q    Type
                         _______ _______ _______ _____ _____    ______ ____

>  <TORSDO>
F 9

$$$$
