=
 OpenBabel11042422403D

 66 73  0  0  1  0  0  0  0  0999 V2000
  161.7240  205.1740  151.7600 C   0  0  0  0  0  3  0  0  0  0  0  0
  161.3110  203.9390  149.8730 C   0  0  0  0  0  0  0  0  0  0  0  0
  161.8910  207.5200  146.8720 C   0  0  0  0  0  3  0  0  0  0  0  0
  160.8070  201.4930  149.5140 C   0  0  0  0  0  1  0  0  0  0  0  0
  162.0570  207.5220  150.7180 C   0  0  0  0  0  0  0  0  0  0  0  0
  160.9410  203.0060  147.6260 N   0  0  0  0  0  0  0  0  0  0  0  0
  161.5060  205.3360  149.5420 C   0  0  0  0  0  0  0  0  0  0  0  0
  161.4040  205.3670  147.0830 C   0  0  0  0  0  0  0  0  0  0  0  0
  161.4630  203.8930  151.2690 C   0  0  0  0  0  0  0  0  0  0  0  0
  161.8240  207.2500  148.1920 N   0  0  0  0  0  0  0  0  0  0  0  0
  161.0220  202.8810  148.9850 C   0  0  0  0  0  0  0  0  0  0  0  0
  161.1020  204.0500  146.7660 C   0  0  0  0  0  3  0  0  0  0  0  0
  161.5640  205.9380  148.3150 C   0  0  0  0  0  0  0  0  0  0  0  0
  161.6170  206.3660  146.1450 C   0  0  0  0  0  3  0  0  0  0  0  0
  162.0760  208.1960  149.2930 C   0  0  0  0  0  0  0  0  0  0  0  0
  161.7390  206.0430  150.6880 C   0  0  0  0  0  0  0  0  0  0  0  0
  159.8580  202.4050  152.5220 C   0  0  0  0  0  1  0  0  0  0  0  0
  161.3110  202.6760  152.1310 C   0  0  0  0  0  2  0  0  0  0  0  0
  161.1570  209.4200  149.1530 C   0  0  0  0  0  2  0  0  0  0  0  0
  161.8290  210.5210  148.3410 C   0  0  2  0  0  3  0  0  0  0  0  0
  162.0420  211.7930  149.1840 C   0  0  2  0  0  3  0  0  0  0  0  0
  160.7910  212.6080  149.5280 C   0  0  0  0  0  1  0  0  0  0  0  0
  163.1900  212.5480  148.8480 O   0  0  0  0  0  0  0  0  0  0  0  0
  162.8140  213.5750  147.9690 C   0  0  0  0  0  1  0  0  0  0  0  0
  161.0810  210.7530  147.0600 C   0  0  0  0  0  3  0  0  0  0  0  0
  160.7170  211.9680  146.6420 C   0  0  0  0  0  3  0  0  0  0  0  0
  159.9310  212.1390  145.3840 C   0  0  0  0  0  2  0  0  0  0  0  0
  161.7080  213.2330  143.9970 C   0  0  0  0  0  2  0  0  0  0  0  0
  159.7880  211.8370  142.6830 S   0  0  0  0  0  0  0  0  0  0  0  0
  160.8280  212.0050  144.1590 C   0  0  2  0  0  3  0  0  0  0  0  0
  160.7100  213.1150  141.7430 C   0  0  2  0  0  0  0  0  0  0  0  0
  161.9900  213.3880  142.5170 C   0  0  0  0  0  2  0  0  0  0  0  0
  158.5410  214.2350  142.5950 C   0  0  0  0  0  2  0  0  0  0  0  0
  158.5330  214.4470  141.0930 C   0  0  0  0  0  2  0  0  0  0  0  0
  159.8440  214.4050  141.8460 C   0  0  0  0  0  3  0  0  0  0  0  0
  161.0740  212.5740  140.3970 N   0  0  0  0  0  0  0  0  0  0  0  0
  160.4990  211.3720  139.9220 N   0  0  0  0  0  0  0  0  0  0  0  0
  160.0870  211.2400  138.7240 N   0  0  0  0  0  0  0  0  0  0  0  0
  159.5640  209.9610  138.2630 C   0  0  0  0  0  2  0  0  0  0  0  0
  158.0980  209.8310  138.6680 C   0  0  1  0  0  3  0  0  0  0  0  0
  156.0190  210.8790  138.2660 C   0  0  0  0  0  2  0  0  0  0  0  0
  157.4270  211.1730  138.7150 C   0  0  0  0  0  2  0  0  0  0  0  0
  157.3260  209.0380  137.6400 C   0  0  0  0  0  2  0  0  0  0  0  0
  156.0570  209.7150  137.3880 N   0  0  0  0  0  2  0  0  0  0  0  0
  161.9500  213.2520  139.4490 C   0  0  0  0  0  2  0  0  0  0  0  0
  162.4880  214.4000  140.0280 O   0  0  0  0  0  1  0  0  0  0  0  0
  161.1460  208.2340  151.7130 C   0  0  0  0  0  2  0  0  0  0  0  0
  161.3680  209.7450  151.6790 C   0  0  0  0  0  2  0  0  0  0  0  0
  162.1990  210.2230  152.8660 C   0  0  0  0  0  2  0  0  0  0  0  0
  159.9190  211.3550  155.6840 C   0  0  1  0  0  3  0  0  0  0  0  0
  160.1830  209.4360  153.9490 O   0  0  0  0  0  0  0  0  0  0  0  0
  161.3980  210.1170  154.1580 C   0  0  2  0  0  3  0  0  0  0  0  0
  161.1130  211.4950  154.7390 C   0  0  0  0  0  2  0  0  0  0  0  0
  159.6220  209.1120  155.2160 C   0  0  2  0  0  3  0  0  0  0  0  0
  159.8810  210.0620  156.2490 O   0  0  0  0  0  0  0  0  0  0  0  0
  160.6880  207.0560  154.6330 F   0  0  0  0  0  0  0  0  0  0  0  0
  160.9390  207.8480  156.7220 F   0  0  0  0  0  0  0  0  0  0  0  0
  160.0600  207.7240  155.6660 C   0  0  0  0  0  0  0  0  0  0  0  0
  158.9550  206.9960  156.0820 F   0  0  0  0  0  0  0  0  0  0  0  0
  161.0130  212.7930  157.2250 O   0  0  0  0  0  0  0  0  0  0  0  0
  159.9490  212.4070  156.7580 C   0  0  0  0  0  0  0  0  0  0  0  0
  158.6650  213.0170  157.2420 C   0  0  0  0  0  2  0  0  0  0  0  0
  158.3440  214.3120  156.4940 C   0  0  1  0  0  3  0  0  0  0  0  0
  159.1740  214.4290  155.3750 O   0  0  0  0  0  1  0  0  0  0  0  0
  156.9010  214.3000  156.0270 C   0  0  0  0  0  2  0  0  0  0  0  0
  156.5840  213.0710  155.4490 O   0  0  0  0  0  1  0  0  0  0  0  0
  2  9  2  0  0  0  0
  3 10  1  0  0  0  0
  5 47  1  0  0  0  0
  6 11  2  0  0  0  0
  7  2  1  0  0  0  0
  7 16  1  0  0  0  0
  8 13  1  0  0  0  0
  9  1  1  0  0  0  0
  9 18  1  0  0  0  0
 10 13  1  0  0  0  0
 10 15  1  0  0  0  0
 11  4  1  0  0  0  0
 11  2  1  0  0  0  0
 12  8  2  0  0  0  0
 12  6  1  0  0  0  0
 13  7  2  0  0  0  0
 14  3  2  0  0  0  0
 14  8  1  0  0  0  0
 15  5  2  0  0  0  0
 16  5  1  0  0  0  0
 16  1  2  0  0  0  0
 18 17  1  0  0  0  0
 19 15  1  0  0  0  0
 20 25  1  6  0  0  0
 20 19  1  0  0  0  0
 20 21  1  0  0  0  0
 21 22  1  6  0  0  0
 23 21  1  0  0  0  0
 24 23  1  0  0  0  0
 26 25  2  0  0  0  0
 27 26  1  0  0  0  0
 28 30  1  0  0  0  0
 29 30  1  0  0  0  0
 30 27  1  1  0  0  0
 31 36  1  6  0  0  0
 31 35  1  0  0  0  0
 31 32  1  0  0  0  0
 31 29  1  0  0  0  0
 32 28  1  0  0  0  0
 34 35  1  0  0  0  0
 34 33  1  0  0  0  0
 35 33  1  0  0  0  0
 37 36  1  0  0  0  0
 38 37  2  0  0  0  0
 39 38  1  0  0  0  0
 40 39  1  6  0  0  0
 40 42  1  0  0  0  0
 41 42  1  0  0  0  0
 43 40  1  0  0  0  0
 44 43  1  0  0  0  0
 44 41  1  0  0  0  0
 45 46  1  0  0  0  0
 45 36  1  0  0  0  0
 48 47  1  0  0  0  0
 48 49  1  0  0  0  0
 50 55  1  0  0  0  0
 50 61  1  1  0  0  0
 51 52  1  0  0  0  0
 51 54  1  0  0  0  0
 52 49  1  6  0  0  0
 52 53  1  0  0  0  0
 53 50  1  0  0  0  0
 54 58  1  1  0  0  0
 54 55  1  0  0  0  0
 56 58  1  0  0  0  0
 58 59  1  0  0  0  0
 58 57  1  0  0  0  0
 61 60  2  0  0  0  0
 61 62  1  0  0  0  0
 63 64  1  6  0  0  0
 63 62  1  0  0  0  0
 65 63  1  0  0  0  0
 66 65  1  0  0  0  0
M  END
>  <MODEL>
1

>  <REMARK>
 VINA RESULT:      -4.3      0.000      0.000
  Name = 
  23 active torsions:
  status: ('A' for Active; 'I' for Inactive)
    1  A    between atoms: C_1  and  C_5
    2  A    between atoms: C_1  and  C_27
    3  A    between atoms: N_2  and  N_11
    4  A    between atoms: C_5  and  C_37
    5  A    between atoms: C_7  and  C_10
    6  A    between atoms: C_7  and  N_59
    7  A    between atoms: C_9  and  N_11
    8  A    between atoms: N_11  and  C_54
    9  A    between atoms: C_12  and  C_53
   10  A    between atoms: C_12  and  C_64
   11  A    between atoms: C_13  and  C_53
   12  A    between atoms: C_23  and  C_37
   13  A    between atoms: C_24  and  C_38
   14  A    between atoms: C_24  and  C_56
   15  A    between atoms: C_28  and  C_36
   16  A    between atoms: C_28  and  C_46
   17  A    between atoms: C_30  and  C_51
   18  A    between atoms: C_35  and  C_61
   19  A    between atoms: O_41  and  C_44
   20  A    between atoms: C_42  and  C_54
   21  A    between atoms: C_44  and  C_53
   22  A    between atoms: C_47  and  C_50
   23  A    between atoms: C_51  and  C_56
                            x       y       z     vdW  Elec       q    Type
                         _______ _______ _______ _____ _____    ______ ____

>  <TORSDO>
F 23

$$$$
=
 OpenBabel11042422403D

 66 73  0  0  1  0  0  0  0  0999 V2000
  159.2030  213.1370  151.7140 C   0  0  0  0  0  3  0  0  0  0  0  0
  157.5990  212.7510  153.3070 C   0  0  0  0  0  0  0  0  0  0  0  0
  160.4430  210.3940  156.2270 C   0  0  0  0  0  3  0  0  0  0  0  0
  155.1750  213.4270  153.4830 C   0  0  0  0  0  1  0  0  0  0  0  0
  161.2120  211.8790  152.7600 C   0  0  0  0  0  0  0  0  0  0  0  0
  156.2140  212.1250  155.2420 N   0  0  0  0  0  0  0  0  0  0  0  0
  158.8450  212.1030  153.6630 C   0  0  0  0  0  0  0  0  0  0  0  0
  158.3830  211.1410  155.8800 C   0  0  0  0  0  0  0  0  0  0  0  0
  157.8800  213.3870  152.0850 C   0  0  0  0  0  0  0  0  0  0  0  0
  160.4150  210.9390  154.9940 N   0  0  0  0  0  0  0  0  0  0  0  0
  156.3860  212.7290  154.0280 C   0  0  0  0  0  0  0  0  0  0  0  0
  157.0420  211.4360  156.0770 C   0  0  0  0  0  3  0  0  0  0  0  0
  159.1760  211.4210  154.8020 C   0  0  0  0  0  0  0  0  0  0  0  0
  159.1820  210.4890  156.8080 C   0  0  0  0  0  3  0  0  0  0  0  0
  161.5510  211.0610  154.0640 C   0  0  0  0  0  0  0  0  0  0  0  0
  159.7730  212.3440  152.6890 C   0  0  0  0  0  0  0  0  0  0  0  0
  156.3510  213.3640  150.0800 C   0  0  0  0  0  1  0  0  0  0  0  0
  156.9060  214.1670  151.2550 C   0  0  0  0  0  2  0  0  0  0  0  0
  162.1700  209.6780  153.8080 C   0  0  0  0  0  2  0  0  0  0  0  0
  161.1320  208.7040  153.2660 C   0  0  2  0  0  3  0  0  0  0  0  0
  161.1190  207.3890  154.0700 C   0  0  2  0  0  3  0  0  0  0  0  0
  161.3220  206.0950  153.2750 C   0  0  0  0  0  1  0  0  0  0  0  0
  160.1540  207.3270  155.1020 O   0  0  0  0  0  0  0  0  0  0  0  0
  160.8080  207.4340  156.3390 C   0  0  0  0  0  1  0  0  0  0  0  0
  161.3150  208.5160  151.7880 C   0  0  0  0  0  3  0  0  0  0  0  0
  160.2900  208.4270  150.9360 C   0  0  0  0  0  3  0  0  0  0  0  0
  160.5260  208.1920  149.4800 C   0  0  0  0  0  2  0  0  0  0  0  0
  162.6800  207.5900  148.3540 C   0  0  0  0  0  2  0  0  0  0  0  0
  160.7730  205.6660  148.4950 S   0  0  0  0  0  0  0  0  0  0  0  0
  161.5690  207.1020  149.2660 C   0  0  2  0  0  3  0  0  0  0  0  0
  162.0620  205.4970  147.2010 C   0  0  2  0  0  0  0  0  0  0  0  0
  163.2260  206.3790  147.6260 C   0  0  0  0  0  2  0  0  0  0  0  0
  159.9660  206.4200  146.0020 C   0  0  0  0  0  2  0  0  0  0  0  0
  160.4960  205.3290  145.0900 C   0  0  0  0  0  2  0  0  0  0  0  0
  161.4520  206.1500  145.9250 C   0  0  0  0  0  3  0  0  0  0  0  0
  162.5330  204.0780  147.1520 N   0  0  0  0  0  0  0  0  0  0  0  0
  161.8270  203.0590  147.8350 N   0  0  0  0  0  0  0  0  0  0  0  0
  160.7790  202.5170  147.3560 N   0  0  0  0  0  0  0  0  0  0  0  0
  160.1260  201.4250  148.0640 C   0  0  0  0  0  2  0  0  0  0  0  0
  160.1710  201.6910  149.5670 C   0  0  1  0  0  3  0  0  0  0  0  0
  161.7440  202.1480  151.2700 C   0  0  0  0  0  2  0  0  0  0  0  0
  161.4350  201.1580  150.1750 C   0  0  0  0  0  2  0  0  0  0  0  0
  160.1910  203.1750  149.8480 C   0  0  0  0  0  2  0  0  0  0  0  0
  161.1850  203.4390  150.8840 N   0  0  0  0  0  2  0  0  0  0  0  0
  163.6630  203.6150  146.3570 C   0  0  0  0  0  2  0  0  0  0  0  0
  163.7510  204.3460  145.1740 O   0  0  0  0  0  1  0  0  0  0  0  0
  161.5930  211.1540  151.4730 C   0  0  0  0  0  2  0  0  0  0  0  0
  161.0440  211.8820  150.2480 C   0  0  0  0  0  2  0  0  0  0  0  0
  162.0420  211.8810  149.0940 C   0  0  0  0  0  2  0  0  0  0  0  0
  161.8120  213.0130  145.4760 C   0  0  1  0  0  3  0  0  0  0  0  0
  160.4610  211.7020  147.2700 O   0  0  0  0  0  0  0  0  0  0  0  0
  161.4330  212.5340  147.8580 C   0  0  2  0  0  3  0  0  0  0  0  0
  162.5060  212.8640  146.8300 C   0  0  0  0  0  2  0  0  0  0  0  0
  159.7300  212.4640  146.3160 C   0  0  2  0  0  3  0  0  0  0  0  0
  160.4880  213.4700  145.6440 O   0  0  0  0  0  0  0  0  0  0  0  0
  157.6370  212.0980  147.4060 F   0  0  0  0  0  0  0  0  0  0  0  0
  158.8720  213.8770  148.0090 F   0  0  0  0  0  0  0  0  0  0  0  0
  158.4910  213.0830  146.9470 C   0  0  0  0  0  0  0  0  0  0  0  0
  157.8290  213.8670  146.0130 F   0  0  0  0  0  0  0  0  0  0  0  0
  163.6600  214.3950  144.9170 O   0  0  0  0  0  0  0  0  0  0  0  0
  162.5830  213.9290  144.5670 C   0  0  0  0  0  0  0  0  0  0  0  0
  162.0470  214.2510  143.2020 C   0  0  0  0  0  2  0  0  0  0  0  0
  161.5820  212.9910  142.4710 C   0  0  1  0  0  3  0  0  0  0  0  0
  160.1990  213.0440  142.2730 O   0  0  0  0  0  1  0  0  0  0  0  0
  162.2620  212.8910  141.1190 C   0  0  0  0  0  2  0  0  0  0  0  0
  162.8310  214.1140  140.7670 O   0  0  0  0  0  1  0  0  0  0  0  0
  1  9  2  0  0  0  0
  1 16  1  0  0  0  0
  2  7  1  0  0  0  0
  2 11  2  0  0  0  0
  3 14  2  0  0  0  0
  4 11  1  0  0  0  0
  5 15  2  0  0  0  0
  6 12  2  0  0  0  0
  7 13  1  0  0  0  0
  8 12  1  0  0  0  0
  8 14  1  0  0  0  0
  9  2  1  0  0  0  0
 10  3  1  0  0  0  0
 11  6  1  0  0  0  0
 13 10  1  0  0  0  0
 13  8  2  0  0  0  0
 15 10  1  0  0  0  0
 16  5  1  0  0  0  0
 16  7  2  0  0  0  0
 17 18  1  0  0  0  0
 18  9  1  0  0  0  0
 19 15  1  0  0  0  0
 20 25  1  6  0  0  0
 20 19  1  0  0  0  0
 20 21  1  0  0  0  0
 21 22  1  6  0  0  0
 21 23  1  0  0  0  0
 23 24  1  0  0  0  0
 26 25  2  0  0  0  0
 27 26  1  0  0  0  0
 28 30  1  0  0  0  0
 29 30  1  0  0  0  0
 30 27  1  6  0  0  0
 31 36  1  6  0  0  0
 31 32  1  0  0  0  0
 31 29  1  0  0  0  0
 32 28  1  0  0  0  0
 34 35  1  0  0  0  0
 34 33  1  0  0  0  0
 35 33  1  0  0  0  0
 35 31  1  0  0  0  0
 36 37  1  0  0  0  0
 38 37  2  0  0  0  0
 38 39  1  0  0  0  0
 40 39  1  6  0  0  0
 40 43  1  0  0  0  0
 40 42  1  0  0  0  0
 42 41  1  0  0  0  0
 43 44  1  0  0  0  0
 44 41  1  0  0  0  0
 45 36  1  0  0  0  0
 46 45  1  0  0  0  0
 47  5  1  0  0  0  0
 48 47  1  0  0  0  0
 49 48  1  0  0  0  0
 50 61  1  6  0  0  0
 50 55  1  0  0  0  0
 50 53  1  0  0  0  0
 51 52  1  0  0  0  0
 52 49  1  1  0  0  0
 53 52  1  0  0  0  0
 54 58  1  1  0  0  0
 54 51  1  0  0  0  0
 55 54  1  0  0  0  0
 58 56  1  0  0  0  0
 58 57  1  0  0  0  0
 59 58  1  0  0  0  0
 61 60  2  0  0  0  0
 62 61  1  0  0  0  0
 63 64  1  6  0  0  0
 63 62  1  0  0  0  0
 65 63  1  0  0  0  0
 66 65  1  0  0  0  0
M  END
>  <MODEL>
2

>  <REMARK>
 VINA RESULT:      -2.5      4.594     10.537
  Name = 
  23 active torsions:
  status: ('A' for Active; 'I' for Inactive)
    1  A    between atoms: C_1  and  C_5
    2  A    between atoms: C_1  and  C_27
    3  A    between atoms: N_2  and  N_11
    4  A    between atoms: C_5  and  C_37
    5  A    between atoms: C_7  and  C_10
    6  A    between atoms: C_7  and  N_59
    7  A    between atoms: C_9  and  N_11
    8  A    between atoms: N_11  and  C_54
    9  A    between atoms: C_12  and  C_53
   10  A    between atoms: C_12  and  C_64
   11  A    between atoms: C_13  and  C_53
   12  A    between atoms: C_23  and  C_37
   13  A    between atoms: C_24  and  C_38
   14  A    between atoms: C_24  and  C_56
   15  A    between atoms: C_28  and  C_36
   16  A    between atoms: C_28  and  C_46
   17  A    between atoms: C_30  and  C_51
   18  A    between atoms: C_35  and  C_61
   19  A    between atoms: O_41  and  C_44
   20  A    between atoms: C_42  and  C_54
   21  A    between atoms: C_44  and  C_53
   22  A    between atoms: C_47  and  C_50
   23  A    between atoms: C_51  and  C_56
                            x       y       z     vdW  Elec       q    Type
                         _______ _______ _______ _____ _____    ______ ____

>  <TORSDO>
F 23

$$$$
