=
 OpenBabel11042421253D

 33 38  0  0  1  0  0  0  0  0999 V2000
  161.3970  206.0560  150.3670 N   0  0  0  0  0  0  0  0  0  0  0  0
  160.9960  203.6990  147.6440 N   0  0  0  0  0  0  0  0  0  0  0  0
  161.7030  207.9450  153.3460 O   0  0  0  0  0  0  0  0  0  0  0  0
  161.7750  209.3550  148.7220 C   0  0  0  0  0  3  0  0  0  0  0  0
  161.9200  207.7380  152.0010 C   0  0  2  0  0  3  0  0  0  0  0  0
  161.2080  205.6950  152.8440 C   0  0  0  0  0  2  0  0  0  0  0  0
  161.9220  208.6970  151.0620 C   0  0  0  0  0  0  0  0  0  0  0  0
  161.9890  206.2940  151.6830 C   0  0  1  0  0  3  0  0  0  0  0  0
  161.2390  204.7870  149.7520 C   0  0  0  0  0  0  0  0  0  0  0  0
  161.1200  204.8370  148.3760 C   0  0  0  0  0  0  0  0  0  0  0  0
  162.0350  211.0360  150.4400 C   0  0  0  0  0  3  0  0  0  0  0  0
  161.9320  210.7040  149.0780 C   0  0  0  0  0  0  0  0  0  0  0  0
  161.7530  208.3470  149.6940 C   0  0  0  0  0  0  0  0  0  0  0  0
  161.0800  201.1210  150.2930 N   0  0  0  0  0  1  0  0  0  0  0  0
  161.2000  206.4820  147.6690 S   0  0  0  0  0  0  0  0  0  0  0  0
  160.9780  202.4820  148.2580 C   0  0  0  0  0  3  0  0  0  0  0  0
  162.0240  210.0440  151.4220 C   0  0  0  0  0  3  0  0  0  0  0  0
  161.4820  207.0680  149.3560 C   0  0  2  0  0  3  0  0  0  0  0  0
  161.2340  203.5600  150.4160 C   0  0  0  0  0  3  0  0  0  0  0  0
  161.3830  206.7150  153.9840 C   0  0  2  0  0  3  0  0  0  0  0  0
  161.0950  202.3920  149.6550 C   0  0  0  0  0  0  0  0  0  0  0  0
  161.9500  211.7340  148.0670 N   0  0  0  0  0  0  0  0  0  0  0  0
  161.9610  214.3430  146.5370 C   0  0  0  0  0  2  0  0  0  0  0  0
  159.9610  213.0400  147.3920 C   0  0  0  0  0  2  0  0  0  0  0  0
  163.1280  213.7460  147.2630 C   0  0  0  0  0  3  0  0  0  0  0  0
  160.7300  214.3640  147.4330 C   0  0  0  0  0  2  0  0  0  0  0  0
  163.1040  212.5900  147.9420 C   0  0  0  0  0  3  0  0  0  0  0  0
  160.8440  211.8240  147.1110 C   0  0  0  0  0  2  0  0  0  0  0  0
  160.0850  206.8450  154.7580 C   0  0  0  0  0  2  0  0  0  0  0  0
  160.3770  207.0990  156.2260 C   0  0  0  0  0  2  0  0  0  0  0  0
  159.8030  209.4090  156.1850 O   0  0  0  0  0  0  0  0  0  0  0  0
  161.9630  208.9400  156.8990 N   0  0  0  0  0  1  0  0  0  0  0  0
  160.6760  208.5410  156.4390 C   0  0  0  0  0  0  0  0  0  0  0  0
  1  8  1  0  0  0  0
  2 16  2  0  0  0  0
  2 10  1  0  0  0  0
  3 20  1  0  0  0  0
  4 12  2  0  0  0  0
  4 13  1  0  0  0  0
  5  7  1  6  0  0  0
  5  3  1  0  0  0  0
  6 20  1  0  0  0  0
  7 17  1  0  0  0  0
  8  5  1  0  0  0  0
  8  6  1  1  0  0  0
  9  1  1  0  0  0  0
  9 19  1  0  0  0  0
 10  9  2  0  0  0  0
 11 17  2  0  0  0  0
 12 11  1  0  0  0  0
 13  7  2  0  0  0  0
 15 10  1  0  0  0  0
 16 21  1  0  0  0  0
 18 15  1  1  0  0  0
 18 13  1  0  0  0  0
 18  1  1  0  0  0  0
 20 29  1  6  0  0  0
 21 14  1  0  0  0  0
 21 19  2  0  0  0  0
 22 12  1  0  0  0  0
 23 25  1  0  0  0  0
 23 26  1  0  0  0  0
 24 26  1  0  0  0  0
 25 27  2  0  0  0  0
 27 22  1  0  0  0  0
 28 24  1  0  0  0  0
 28 22  1  0  0  0  0
 29 30  1  0  0  0  0
 30 33  1  0  0  0  0
 31 33  2  0  0  0  0
 33 32  1  0  0  0  0
M  END
>  <MODEL>
1

>  <REMARK>
 VINA RESULT:      -9.1      0.000      0.000
  Name = 
  4 active torsions:
  status: ('A' for Active; 'I' for Inactive)
    1  A    between atoms: N_6  and  C_18
    2  A    between atoms: C_11  and  C_21
    3  A    between atoms: C_11  and  C_31
    4  A    between atoms: C_21  and  C_25
                            x       y       z     vdW  Elec       q    Type
                         _______ _______ _______ _____ _____    ______ ____

>  <TORSDO>
F 4

$$$$
=
 OpenBabel11042421253D

 33 38  0  0  1  0  0  0  0  0999 V2000
  161.4470  208.9230  151.7780 N   0  0  0  0  0  0  0  0  0  0  0  0
  160.7420  208.0520  155.2240 N   0  0  0  0  0  0  0  0  0  0  0  0
  162.1020  210.2760  148.5730 O   0  0  0  0  0  0  0  0  0  0  0  0
  161.5310  205.6850  149.9760 C   0  0  0  0  0  3  0  0  0  0  0  0
  162.1440  209.2610  149.5040 C   0  0  2  0  0  3  0  0  0  0  0  0
  161.5960  211.1800  150.6900 C   0  0  0  0  0  2  0  0  0  0  0  0
  162.0000  207.9550  149.2300 C   0  0  0  0  0  0  0  0  0  0  0  0
  162.2020  209.7970  150.8820 C   0  0  1  0  0  3  0  0  0  0  0  0
  161.2370  209.1450  153.1640 C   0  0  0  0  0  0  0  0  0  0  0  0
  160.9360  208.0020  153.8800 C   0  0  0  0  0  0  0  0  0  0  0  0
  161.9780  206.1250  147.6420 C   0  0  0  0  0  3  0  0  0  0  0  0
  161.7040  205.2050  148.6680 C   0  0  0  0  0  0  0  0  0  0  0  0
  161.6600  207.0480  150.2710 C   0  0  0  0  0  0  0  0  0  0  0  0
  161.2330  211.6550  155.8950 N   0  0  0  0  0  1  0  0  0  0  0  0
  160.8850  206.4940  152.9130 S   0  0  0  0  0  0  0  0  0  0  0  0
  160.8320  209.2370  155.8910 C   0  0  0  0  0  3  0  0  0  0  0  0
  162.1190  207.4870  147.9180 C   0  0  0  0  0  3  0  0  0  0  0  0
  161.3750  207.5170  151.5050 C   0  0  2  0  0  3  0  0  0  0  0  0
  161.3480  210.3750  153.8130 C   0  0  0  0  0  3  0  0  0  0  0  0
  161.8980  211.5250  149.2210 C   0  0  2  0  0  3  0  0  0  0  0  0
  161.1350  210.4200  155.1960 C   0  0  0  0  0  0  0  0  0  0  0  0
  161.5650  203.7990  148.3770 N   0  0  0  0  0  0  0  0  0  0  0  0
  160.5850  201.0520  147.5710 C   0  0  0  0  0  2  0  0  0  0  0  0
  160.3290  202.2080  149.8140 C   0  0  0  0  0  2  0  0  0  0  0  0
  160.9900  202.1500  146.6350 C   0  0  0  0  0  3  0  0  0  0  0  0
  159.6110  201.5780  148.6180 C   0  0  0  0  0  2  0  0  0  0  0  0
  161.4160  203.3640  147.0100 C   0  0  0  0  0  3  0  0  0  0  0  0
  161.6840  202.8230  149.4640 C   0  0  0  0  0  2  0  0  0  0  0  0
  160.7110  212.2470  148.6100 C   0  0  0  0  0  2  0  0  0  0  0  0
  160.8060  212.2180  147.0960 C   0  0  0  0  0  2  0  0  0  0  0  0
  161.6350  214.4430  147.2670 O   0  0  0  0  0  0  0  0  0  0  0  0
  162.3690  213.2540  145.4110 N   0  0  0  0  0  1  0  0  0  0  0  0
  161.6240  213.3650  146.6190 C   0  0  0  0  0  0  0  0  0  0  0  0
  1  9  1  0  0  0  0
  2 16  1  0  0  0  0
  3 20  1  0  0  0  0
  4 13  1  0  0  0  0
  5  3  1  6  0  0  0
  5  8  1  0  0  0  0
  7  5  1  0  0  0  0
  7 13  2  0  0  0  0
  8  6  1  6  0  0  0
  8  1  1  0  0  0  0
  9 19  2  0  0  0  0
  9 10  1  0  0  0  0
 10  2  2  0  0  0  0
 11 17  2  0  0  0  0
 11 12  1  0  0  0  0
 12  4  2  0  0  0  0
 15 10  1  0  0  0  0
 17  7  1  0  0  0  0
 18 13  1  6  0  0  0
 18  1  1  0  0  0  0
 18 15  1  0  0  0  0
 19 21  1  0  0  0  0
 20 29  1  6  0  0  0
 20  6  1  0  0  0  0
 21 16  2  0  0  0  0
 21 14  1  0  0  0  0
 22 12  1  0  0  0  0
 22 28  1  0  0  0  0
 23 26  1  0  0  0  0
 25 27  2  0  0  0  0
 25 23  1  0  0  0  0
 26 24  1  0  0  0  0
 27 22  1  0  0  0  0
 28 24  1  0  0  0  0
 30 29  1  0  0  0  0
 32 33  1  0  0  0  0
 33 30  1  0  0  0  0
 33 31  2  0  0  0  0
M  END
>  <MODEL>
2

>  <REMARK>
 VINA RESULT:      -8.1      2.550      8.215
  Name = 
  4 active torsions:
  status: ('A' for Active; 'I' for Inactive)
    1  A    between atoms: N_6  and  C_18
    2  A    between atoms: C_11  and  C_21
    3  A    between atoms: C_11  and  C_31
    4  A    between atoms: C_21  and  C_25
                            x       y       z     vdW  Elec       q    Type
                         _______ _______ _______ _____ _____    ______ ____

>  <TORSDO>
F 4

$$$$
=
 OpenBabel11042421253D

 33 38  0  0  1  0  0  0  0  0999 V2000
  161.4610  208.8160  151.7820 N   0  0  0  0  0  0  0  0  0  0  0  0
  160.7410  207.9880  155.2370 N   0  0  0  0  0  0  0  0  0  0  0  0
  162.1360  210.1280  148.5640 O   0  0  0  0  0  0  0  0  0  0  0  0
  161.5090  205.5590  150.0140 C   0  0  0  0  0  3  0  0  0  0  0  0
  162.1640  209.1230  149.5060 C   0  0  2  0  0  3  0  0  0  0  0  0
  161.6370  211.0600  150.6720 C   0  0  0  0  0  2  0  0  0  0  0  0
  162.0060  207.8150  149.2460 C   0  0  0  0  0  0  0  0  0  0  0  0
  162.2270  209.6720  150.8790 C   0  0  1  0  0  3  0  0  0  0  0  0
  161.2510  209.0540  153.1650 C   0  0  0  0  0  0  0  0  0  0  0  0
  160.9360  207.9230  153.8930 C   0  0  0  0  0  0  0  0  0  0  0  0
  161.9640  205.9690  147.6760 C   0  0  0  0  0  3  0  0  0  0  0  0
  161.6770  205.0640  148.7110 C   0  0  0  0  0  0  0  0  0  0  0  0
  161.6530  206.9230  150.2960 C   0  0  0  0  0  0  0  0  0  0  0  0
  161.2730  211.5920  155.8710 N   0  0  0  0  0  1  0  0  0  0  0  0
  160.8690  206.4060  152.9420 S   0  0  0  0  0  0  0  0  0  0  0  0
  160.8440  209.1800  155.8910 C   0  0  0  0  0  3  0  0  0  0  0  0
  162.1210  207.3320  147.9380 C   0  0  0  0  0  3  0  0  0  0  0  0
  161.3730  207.4080  151.5240 C   0  0  2  0  0  3  0  0  0  0  0  0
  161.3750  210.2900  153.8020 C   0  0  0  0  0  3  0  0  0  0  0  0
  161.9440  211.3860  149.1990 C   0  0  2  0  0  3  0  0  0  0  0  0
  161.1620  210.3510  155.1840 C   0  0  0  0  0  0  0  0  0  0  0  0
  161.5230  203.6560  148.4350 N   0  0  0  0  0  0  0  0  0  0  0  0
  160.5020  200.9080  147.6860 C   0  0  0  0  0  2  0  0  0  0  0  0
  160.3410  202.0770  149.9300 C   0  0  0  0  0  2  0  0  0  0  0  0
  160.8730  201.9990  146.7270 C   0  0  0  0  0  3  0  0  0  0  0  0
  159.5730  201.4430  148.7670 C   0  0  0  0  0  2  0  0  0  0  0  0
  161.3180  203.2140  147.0770 C   0  0  0  0  0  3  0  0  0  0  0  0
  161.6830  202.6870  149.5210 C   0  0  0  0  0  2  0  0  0  0  0  0
  160.7670  212.1150  148.5800 C   0  0  0  0  0  2  0  0  0  0  0  0
  160.8410  213.5960  148.9060 C   0  0  0  0  0  2  0  0  0  0  0  0
  159.6940  214.0680  150.9370 O   0  0  0  0  0  0  0  0  0  0  0  0
  158.4180  214.2850  149.0080 N   0  0  0  0  0  1  0  0  0  0  0  0
  159.6390  214.0030  149.6820 C   0  0  0  0  0  0  0  0  0  0  0  0
  1  9  1  0  0  0  0
  2 16  1  0  0  0  0
  3 20  1  0  0  0  0
  4 13  1  0  0  0  0
  5  3  1  6  0  0  0
  5  8  1  0  0  0  0
  7  5  1  0  0  0  0
  7 13  2  0  0  0  0
  8  6  1  6  0  0  0
  8  1  1  0  0  0  0
  9 19  2  0  0  0  0
  9 10  1  0  0  0  0
 10  2  2  0  0  0  0
 11 17  2  0  0  0  0
 11 12  1  0  0  0  0
 12  4  2  0  0  0  0
 15 10  1  0  0  0  0
 17  7  1  0  0  0  0
 18 13  1  6  0  0  0
 18  1  1  0  0  0  0
 18 15  1  0  0  0  0
 19 21  1  0  0  0  0
 20 29  1  6  0  0  0
 20  6  1  0  0  0  0
 21 14  1  0  0  0  0
 21 16  2  0  0  0  0
 22 12  1  0  0  0  0
 22 28  1  0  0  0  0
 23 26  1  0  0  0  0
 25 27  2  0  0  0  0
 25 23  1  0  0  0  0
 26 24  1  0  0  0  0
 27 22  1  0  0  0  0
 28 24  1  0  0  0  0
 29 30  1  0  0  0  0
 30 33  1  0  0  0  0
 32 33  1  0  0  0  0
 33 31  2  0  0  0  0
M  END
>  <MODEL>
3

>  <REMARK>
 VINA RESULT:      -7.8      2.491      7.940
  Name = 
  4 active torsions:
  status: ('A' for Active; 'I' for Inactive)
    1  A    between atoms: N_6  and  C_18
    2  A    between atoms: C_11  and  C_21
    3  A    between atoms: C_11  and  C_31
    4  A    between atoms: C_21  and  C_25
                            x       y       z     vdW  Elec       q    Type
                         _______ _______ _______ _____ _____    ______ ____

>  <TORSDO>
F 4

$$$$
=
 OpenBabel11042421253D

 33 38  0  0  1  0  0  0  0  0999 V2000
  161.2480  208.9940  152.9400 N   0  0  0  0  0  0  0  0  0  0  0  0
  160.6770  207.8590  156.3340 N   0  0  0  0  0  0  0  0  0  0  0  0
  161.7490  210.5890  149.8190 O   0  0  0  0  0  0  0  0  0  0  0  0
  161.4600  205.8910  150.9230 C   0  0  0  0  0  3  0  0  0  0  0  0
  161.8680  209.5190  150.6790 C   0  0  2  0  0  3  0  0  0  0  0  0
  161.2480  211.3220  152.0030 C   0  0  0  0  0  2  0  0  0  0  0  0
  161.7880  208.2270  150.3210 C   0  0  0  0  0  0  0  0  0  0  0  0
  161.9320  209.9650  152.0890 C   0  0  1  0  0  3  0  0  0  0  0  0
  161.0610  209.1120  154.3410 C   0  0  0  0  0  0  0  0  0  0  0  0
  160.8400  207.9100  154.9860 C   0  0  0  0  0  0  0  0  0  0  0  0
  161.8240  206.5080  148.6140 C   0  0  0  0  0  3  0  0  0  0  0  0
  161.6250  205.5090  149.5820 C   0  0  0  0  0  0  0  0  0  0  0  0
  161.5230  207.2370  151.3060 C   0  0  0  0  0  0  0  0  0  0  0  0
  160.9910  211.4320  157.2340 N   0  0  0  0  0  1  0  0  0  0  0  0
  160.8460  206.4680  153.9210 S   0  0  0  0  0  0  0  0  0  0  0  0
  160.7200  209.0020  157.0770 C   0  0  0  0  0  3  0  0  0  0  0  0
  161.8990  207.8540  148.9780 C   0  0  0  0  0  3  0  0  0  0  0  0
  161.2450  207.6070  152.5750 C   0  0  2  0  0  3  0  0  0  0  0  0
  161.1220  210.3010  155.0690 C   0  0  0  0  0  3  0  0  0  0  0  0
  161.4940  211.7790  150.5540 C   0  0  2  0  0  3  0  0  0  0  0  0
  160.9420  210.2420  156.4560 C   0  0  0  0  0  0  0  0  0  0  0  0
  161.5550  204.1190  149.2010 N   0  0  0  0  0  0  0  0  0  0  0  0
  160.7390  201.4050  148.1410 C   0  0  0  0  0  2  0  0  0  0  0  0
  160.2110  202.4240  150.4020 C   0  0  0  0  0  2  0  0  0  0  0  0
  161.2160  202.5630  147.3170 C   0  0  0  0  0  3  0  0  0  0  0  0
  159.6430  201.8510  149.1010 C   0  0  0  0  0  2  0  0  0  0  0  0
  161.5680  203.7610  147.8030 C   0  0  0  0  0  3  0  0  0  0  0  0
  161.5800  203.0850  150.2380 C   0  0  0  0  0  2  0  0  0  0  0  0
  160.2550  212.4730  150.0190 C   0  0  0  0  0  2  0  0  0  0  0  0
  159.3440  212.8710  151.1660 C   0  0  0  0  0  2  0  0  0  0  0  0
  158.1720  214.0150  149.4380 O   0  0  0  0  0  0  0  0  0  0  0  0
  157.3620  214.3720  151.5860 N   0  0  0  0  0  1  0  0  0  0  0  0
  158.2660  213.7680  150.6680 C   0  0  0  0  0  0  0  0  0  0  0  0
  1  9  1  0  0  0  0
  2 16  1  0  0  0  0
  3 20  1  0  0  0  0
  4 13  1  0  0  0  0
  5  3  1  1  0  0  0
  5  8  1  0  0  0  0
  7  5  1  0  0  0  0
  7 13  2  0  0  0  0
  8  6  1  6  0  0  0
  8  1  1  0  0  0  0
  9 10  1  0  0  0  0
  9 19  2  0  0  0  0
 10  2  2  0  0  0  0
 11 17  2  0  0  0  0
 11 12  1  0  0  0  0
 12  4  2  0  0  0  0
 15 10  1  0  0  0  0
 17  7  1  0  0  0  0
 18 13  1  6  0  0  0
 18  1  1  0  0  0  0
 18 15  1  0  0  0  0
 19 21  1  0  0  0  0
 20 29  1  6  0  0  0
 20  6  1  0  0  0  0
 21 16  2  0  0  0  0
 21 14  1  0  0  0  0
 22 12  1  0  0  0  0
 22 28  1  0  0  0  0
 23 26  1  0  0  0  0
 25 27  2  0  0  0  0
 25 23  1  0  0  0  0
 26 24  1  0  0  0  0
 27 22  1  0  0  0  0
 28 24  1  0  0  0  0
 29 30  1  0  0  0  0
 31 33  2  0  0  0  0
 33 30  1  0  0  0  0
 33 32  1  0  0  0  0
M  END
>  <MODEL>
4

>  <REMARK>
 VINA RESULT:      -7.0      2.795      7.844
  Name = 
  4 active torsions:
  status: ('A' for Active; 'I' for Inactive)
    1  A    between atoms: N_6  and  C_18
    2  A    between atoms: C_11  and  C_21
    3  A    between atoms: C_11  and  C_31
    4  A    between atoms: C_21  and  C_25
                            x       y       z     vdW  Elec       q    Type
                         _______ _______ _______ _____ _____    ______ ____

>  <TORSDO>
F 4

$$$$
=
 OpenBabel11042421253D

 33 38  0  0  1  0  0  0  0  0999 V2000
  161.4420  209.6940  150.8510 N   0  0  0  0  0  0  0  0  0  0  0  0
  161.9780  211.3020  147.6480 N   0  0  0  0  0  0  0  0  0  0  0  0
  160.9440  208.6080  154.1840 O   0  0  0  0  0  0  0  0  0  0  0  0
  161.4560  206.0630  150.1060 C   0  0  0  0  0  3  0  0  0  0  0  0
  160.8580  208.4450  152.8180 C   0  0  2  0  0  3  0  0  0  0  0  0
  161.3420  210.6910  153.1520 C   0  0  0  0  0  2  0  0  0  0  0  0
  161.0180  207.2810  152.1680 C   0  0  0  0  0  0  0  0  0  0  0  0
  160.7300  209.7470  152.1270 C   0  0  1  0  0  3  0  0  0  0  0  0
  161.5830  210.7720  149.9390 C   0  0  0  0  0  0  0  0  0  0  0  0
  161.8510  210.3830  148.6400 C   0  0  0  0  0  0  0  0  0  0  0  0
  161.1240  204.8600  152.1760 C   0  0  0  0  0  3  0  0  0  0  0  0
  161.3490  204.8410  150.7890 C   0  0  0  0  0  0  0  0  0  0  0  0
  161.3090  207.2840  150.7760 C   0  0  0  0  0  0  0  0  0  0  0  0
  161.4450  214.4530  149.5090 N   0  0  0  0  0  1  0  0  0  0  0  0
  161.9530  208.6120  148.3870 S   0  0  0  0  0  0  0  0  0  0  0  0
  161.8520  212.6320  147.9200 C   0  0  0  0  0  3  0  0  0  0  0  0
  160.9660  206.0670  152.8600 C   0  0  0  0  0  3  0  0  0  0  0  0
  161.5310  208.4530  150.1380 C   0  0  2  0  0  3  0  0  0  0  0  0
  161.4370  212.1230  150.2540 C   0  0  0  0  0  3  0  0  0  0  0  0
  161.1130  209.9850  154.5000 C   0  0  2  0  0  3  0  0  0  0  0  0
  161.5810  213.0650  149.2280 C   0  0  0  0  0  0  0  0  0  0  0  0
  161.5060  203.5900  150.0870 N   0  0  0  0  0  0  0  0  0  0  0  0
  161.1420  201.1160  148.3840 C   0  0  0  0  0  2  0  0  0  0  0  0
  160.4570  201.4660  150.8000 C   0  0  0  0  0  2  0  0  0  0  0  0
  161.4230  202.4990  147.8770 C   0  0  0  0  0  3  0  0  0  0  0  0
  159.9900  201.1390  149.3800 C   0  0  0  0  0  2  0  0  0  0  0  0
  161.5750  203.5860  148.6460 C   0  0  0  0  0  3  0  0  0  0  0  0
  161.7000  202.3550  150.8500 C   0  0  0  0  0  2  0  0  0  0  0  0
  162.3270  210.1740  155.3910 C   0  0  0  0  0  2  0  0  0  0  0  0
  161.9160  210.1180  156.8510 C   0  0  0  0  0  2  0  0  0  0  0  0
  161.2020  212.3510  157.2610 O   0  0  0  0  0  0  0  0  0  0  0  0
  159.5120  210.7570  157.2600 N   0  0  0  0  0  1  0  0  0  0  0  0
  160.8750  211.1450  157.1230 C   0  0  0  0  0  0  0  0  0  0  0  0
  1  8  1  0  0  0  0
  2 16  2  0  0  0  0
  2 10  1  0  0  0  0
  3 20  1  0  0  0  0
  4 13  2  0  0  0  0
  4 12  1  0  0  0  0
  5  7  1  6  0  0  0
  5  3  1  0  0  0  0
  6 20  1  0  0  0  0
  7 17  2  0  0  0  0
  8  5  1  0  0  0  0
  8  6  1  1  0  0  0
  9 19  1  0  0  0  0
  9  1  1  0  0  0  0
 10  9  2  0  0  0  0
 11 17  1  0  0  0  0
 12 11  2  0  0  0  0
 13  7  1  0  0  0  0
 15 10  1  0  0  0  0
 16 21  1  0  0  0  0
 18 15  1  1  0  0  0
 18 13  1  0  0  0  0
 18  1  1  0  0  0  0
 20 29  1  1  0  0  0
 21 14  1  0  0  0  0
 21 19  2  0  0  0  0
 22 12  1  0  0  0  0
 22 28  1  0  0  0  0
 23 26  1  0  0  0  0
 24 28  1  0  0  0  0
 25 23  1  0  0  0  0
 25 27  2  0  0  0  0
 26 24  1  0  0  0  0
 27 22  1  0  0  0  0
 29 30  1  0  0  0  0
 30 33  1  0  0  0  0
 33 32  1  0  0  0  0
 33 31  2  0  0  0  0
M  END
>  <MODEL>
5

>  <REMARK>
 VINA RESULT:      -6.9      1.876      7.260
  Name = 
  4 active torsions:
  status: ('A' for Active; 'I' for Inactive)
    1  A    between atoms: N_6  and  C_18
    2  A    between atoms: C_11  and  C_21
    3  A    between atoms: C_11  and  C_31
    4  A    between atoms: C_21  and  C_25
                            x       y       z     vdW  Elec       q    Type
                         _______ _______ _______ _____ _____    ______ ____

>  <TORSDO>
F 4

$$$$
=
 OpenBabel11042421253D

 33 38  0  0  1  0  0  0  0  0999 V2000
  161.4220  211.2250  149.6320 N   0  0  0  0  0  0  0  0  0  0  0  0
  160.9730  214.4530  148.0470 N   0  0  0  0  0  0  0  0  0  0  0  0
  162.0310  207.9070  150.7070 O   0  0  0  0  0  0  0  0  0  0  0  0
  160.0940  211.6570  153.0640 C   0  0  0  0  0  3  0  0  0  0  0  0
  161.8490  209.2530  150.9370 C   0  0  2  0  0  3  0  0  0  0  0  0
  162.1930  209.0470  148.6500 C   0  0  0  0  0  2  0  0  0  0  0  0
  161.2170  209.7780  151.9980 C   0  0  0  0  0  0  0  0  0  0  0  0
  162.2960  210.0620  149.7800 C   0  0  1  0  0  3  0  0  0  0  0  0
  161.5110  212.1970  148.6020 C   0  0  0  0  0  0  0  0  0  0  0  0
  160.9360  213.4120  148.9200 C   0  0  0  0  0  0  0  0  0  0  0  0
  160.3170  209.5550  154.2370 C   0  0  0  0  0  3  0  0  0  0  0  0
  159.8920  210.8940  154.2260 C   0  0  0  0  0  0  0  0  0  0  0  0
  160.7360  211.1160  151.9440 C   0  0  0  0  0  0  0  0  0  0  0  0
  162.7940  212.9460  145.2030 N   0  0  0  0  0  1  0  0  0  0  0  0
  160.2160  213.5020  150.5590 S   0  0  0  0  0  0  0  0  0  0  0  0
  161.5720  214.3110  146.8300 C   0  0  0  0  0  3  0  0  0  0  0  0
  160.9680  209.0000  153.1330 C   0  0  0  0  0  3  0  0  0  0  0  0
  160.8210  211.8140  150.7920 C   0  0  2  0  0  3  0  0  0  0  0  0
  162.1420  212.0160  147.3700 C   0  0  0  0  0  3  0  0  0  0  0  0
  162.3770  207.6860  149.3460 C   0  0  2  0  0  3  0  0  0  0  0  0
  162.1650  213.0900  146.4710 C   0  0  0  0  0  0  0  0  0  0  0  0
  159.2250  211.4640  155.3720 N   0  0  0  0  0  0  0  0  0  0  0  0
  157.5010  213.0820  157.2590 C   0  0  0  0  0  2  0  0  0  0  0  0
  159.7930  213.6660  156.3450 C   0  0  0  0  0  2  0  0  0  0  0  0
  157.0320  211.9580  156.3860 C   0  0  0  0  0  3  0  0  0  0  0  0
  158.3220  214.0780  156.4490 C   0  0  0  0  0  2  0  0  0  0  0  0
  157.8090  211.2550  155.5500 C   0  0  0  0  0  3  0  0  0  0  0  0
  160.0150  212.1540  156.3950 C   0  0  0  0  0  2  0  0  0  0  0  0
  161.4430  206.6640  148.7240 C   0  0  0  0  0  2  0  0  0  0  0  0
  161.1550  205.5510  149.7160 C   0  0  0  0  0  2  0  0  0  0  0  0
  160.7180  203.2130  149.6150 O   0  0  0  0  0  0  0  0  0  0  0  0
  161.5410  204.1510  147.6550 N   0  0  0  0  0  1  0  0  0  0  0  0
  161.1100  204.2440  149.0080 C   0  0  0  0  0  0  0  0  0  0  0  0
  1  8  1  0  0  0  0
  1 18  1  0  0  0  0
  2 10  1  0  0  0  0
  4 12  1  0  0  0  0
  5  3  1  6  0  0  0
  5  7  1  0  0  0  0
  6 20  1  0  0  0  0
  7 17  2  0  0  0  0
  8  6  1  6  0  0  0
  8  5  1  0  0  0  0
  9 10  2  0  0  0  0
  9  1  1  0  0  0  0
 10 15  1  0  0  0  0
 12 11  2  0  0  0  0
 12 22  1  0  0  0  0
 13  7  1  0  0  0  0
 13  4  2  0  0  0  0
 14 21  1  0  0  0  0
 16  2  2  0  0  0  0
 17 11  1  0  0  0  0
 18 15  1  6  0  0  0
 18 13  1  0  0  0  0
 19  9  1  0  0  0  0
 20 29  1  6  0  0  0
 20  3  1  0  0  0  0
 21 16  1  0  0  0  0
 21 19  2  0  0  0  0
 22 27  1  0  0  0  0
 22 28  1  0  0  0  0
 24 28  1  0  0  0  0
 24 26  1  0  0  0  0
 25 23  1  0  0  0  0
 26 23  1  0  0  0  0
 27 25  2  0  0  0  0
 29 30  1  0  0  0  0
 32 33  1  0  0  0  0
 33 31  2  0  0  0  0
 33 30  1  0  0  0  0
M  END
>  <MODEL>
6

>  <REMARK>
 VINA RESULT:      -6.8      3.213      7.915
  Name = 
  4 active torsions:
  status: ('A' for Active; 'I' for Inactive)
    1  A    between atoms: N_6  and  C_18
    2  A    between atoms: C_11  and  C_21
    3  A    between atoms: C_11  and  C_31
    4  A    between atoms: C_21  and  C_25
                            x       y       z     vdW  Elec       q    Type
                         _______ _______ _______ _____ _____    ______ ____

>  <TORSDO>
F 4

$$$$
=
 OpenBabel11042421253D

 33 38  0  0  1  0  0  0  0  0999 V2000
  161.4050  207.6870  150.3090 N   0  0  0  0  0  0  0  0  0  0  0  0
  161.1100  204.6570  148.3420 N   0  0  0  0  0  0  0  0  0  0  0  0
  161.6480  210.3300  152.6520 O   0  0  0  0  0  0  0  0  0  0  0  0
  161.4800  210.4330  147.8220 C   0  0  0  0  0  3  0  0  0  0  0  0
  161.8420  209.7800  151.4040 C   0  0  2  0  0  3  0  0  0  0  0  0
  161.3150  208.0000  152.7980 C   0  0  0  0  0  2  0  0  0  0  0  0
  161.7430  210.4460  150.2420 C   0  0  0  0  0  0  0  0  0  0  0  0
  162.0140  208.3120  151.4820 C   0  0  1  0  0  3  0  0  0  0  0  0
  161.3270  206.2910  150.0660 C   0  0  0  0  0  0  0  0  0  0  0  0
  161.1660  205.9570  148.7350 C   0  0  0  0  0  0  0  0  0  0  0  0
  161.6570  212.5310  149.0100 C   0  0  0  0  0  3  0  0  0  0  0  0
  161.5420  211.8350  147.7940 C   0  0  0  0  0  0  0  0  0  0  0  0
  161.5630  209.7270  149.0280 C   0  0  0  0  0  0  0  0  0  0  0  0
  161.4690  202.9080  151.5800 N   0  0  0  0  0  1  0  0  0  0  0  0
  161.0980  207.3490  147.6090 S   0  0  0  0  0  0  0  0  0  0  0  0
  161.2030  203.6550  149.2620 C   0  0  0  0  0  3  0  0  0  0  0  0
  161.7510  211.8440  150.2220 C   0  0  0  0  0  3  0  0  0  0  0  0
  161.3830  208.3890  149.0600 C   0  0  2  0  0  3  0  0  0  0  0  0
  161.4370  205.2920  151.0350 C   0  0  0  0  0  3  0  0  0  0  0  0
  161.4430  209.3010  153.6120 C   0  0  2  0  0  3  0  0  0  0  0  0
  161.3670  203.9560  150.6240 C   0  0  0  0  0  0  0  0  0  0  0  0
  161.4510  212.5500  146.5430 N   0  0  0  0  0  0  0  0  0  0  0  0
  161.4710  213.3930  143.6380 C   0  0  0  0  0  2  0  0  0  0  0  0
  163.4130  213.3530  145.2670 C   0  0  0  0  0  2  0  0  0  0  0  0
  160.4110  212.5710  144.3070 C   0  0  0  0  0  3  0  0  0  0  0  0
  162.8530  212.8300  143.9420 C   0  0  0  0  0  2  0  0  0  0  0  0
  160.4220  212.2010  145.5960 C   0  0  0  0  0  3  0  0  0  0  0  0
  162.3370  213.6910  146.3000 C   0  0  0  0  0  2  0  0  0  0  0  0
  160.1620  209.5490  154.3850 C   0  0  0  0  0  2  0  0  0  0  0  0
  160.1170  208.6670  155.6190 C   0  0  0  0  0  2  0  0  0  0  0  0
  161.9230  208.3090  157.1270 O   0  0  0  0  0  0  0  0  0  0  0  0
  161.1640  210.5000  156.9960 N   0  0  0  0  0  1  0  0  0  0  0  0
  161.1250  209.1310  156.6090 C   0  0  0  0  0  0  0  0  0  0  0  0
  1  8  1  0  0  0  0
  2 10  2  0  0  0  0
  2 16  1  0  0  0  0
  3 20  1  0  0  0  0
  4 13  1  0  0  0  0
  5  7  1  6  0  0  0
  5  8  1  0  0  0  0
  5  3  1  0  0  0  0
  6 20  1  0  0  0  0
  8  6  1  1  0  0  0
  9  1  1  0  0  0  0
  9 19  2  0  0  0  0
 10  9  1  0  0  0  0
 11 17  2  0  0  0  0
 12  4  2  0  0  0  0
 12 11  1  0  0  0  0
 13 18  1  0  0  0  0
 13  7  2  0  0  0  0
 15 10  1  0  0  0  0
 16 21  2  0  0  0  0
 17  7  1  0  0  0  0
 18 15  1  1  0  0  0
 18  1  1  0  0  0  0
 20 29  1  6  0  0  0
 21 19  1  0  0  0  0
 21 14  1  0  0  0  0
 22 12  1  0  0  0  0
 23 26  1  0  0  0  0
 23 25  1  0  0  0  0
 24 28  1  0  0  0  0
 25 27  2  0  0  0  0
 26 24  1  0  0  0  0
 27 22  1  0  0  0  0
 28 22  1  0  0  0  0
 29 30  1  0  0  0  0
 30 33  1  0  0  0  0
 33 32  1  0  0  0  0
 33 31  2  0  0  0  0
M  END
>  <MODEL>
7

>  <REMARK>
 VINA RESULT:      -6.1      1.671      2.322
  Name = 
  4 active torsions:
  status: ('A' for Active; 'I' for Inactive)
    1  A    between atoms: N_6  and  C_18
    2  A    between atoms: C_11  and  C_21
    3  A    between atoms: C_11  and  C_31
    4  A    between atoms: C_21  and  C_25
                            x       y       z     vdW  Elec       q    Type
                         _______ _______ _______ _____ _____    ______ ____

>  <TORSDO>
F 4

$$$$
