=
 OpenBabel11042420553D

 64 71  0  0  1  0  0  0  0  0999 V2000
  160.8660  211.0910  151.6570 C   0  0  0  0  0  0  0  0  0  0  0  0
  159.5560  211.5420  151.7220 F   0  0  0  0  0  0  0  0  0  0  0  0
  161.6280  211.8430  152.5370 F   0  0  0  0  0  0  0  0  0  0  0  0
  162.7590  211.7260  150.2980 O   0  0  0  0  0  1  0  0  0  0  0  0
  161.4290  211.3010  150.2420 C   0  0  2  0  0  3  0  0  0  0  0  0
  159.6440  212.9480  149.9500 N   0  0  0  0  0  2  0  0  0  0  0  0
  159.8080  213.3920  147.7700 C   0  0  0  0  0  0  0  0  0  0  0  0
  160.6440  212.2390  149.4450 N   0  0  0  0  0  0  0  0  0  0  0  0
  158.1570  214.4530  149.0580 O   0  0  0  0  0  0  0  0  0  0  0  0
  160.7680  212.4600  148.1150 C   0  0  0  0  0  3  0  0  0  0  0  0
  159.1280  213.6590  148.9350 C   0  0  0  0  0  0  0  0  0  0  0  0
  159.5220  213.9170  146.4060 C   0  0  0  0  0  2  0  0  0  0  0  0
  162.1110  214.4200  145.9310 C   0  0  0  0  0  1  0  0  0  0  0  0
  160.9020  213.5610  145.3040 S   0  0  2  0  0  3  0  0  0  0  0  0
  160.5050  214.4200  143.8890 O   0  0  0  0  0  0  0  0  0  0  0  0
  160.3490  213.4390  142.9060 C   0  0  0  0  0  2  0  0  0  0  0  0
  160.9640  213.9020  141.5930 C   0  0  1  0  0  3  0  0  0  0  0  0
  162.3390  214.4520  141.8180 C   0  0  0  0  0  3  0  0  0  0  0  0
  163.1410  213.8490  142.5120 O   0  0  0  0  0  0  0  0  0  0  0  0
  160.9880  212.7500  140.5930 C   0  0  0  0  0  2  0  0  0  0  0  0
  160.8470  213.2280  139.2740 O   0  0  0  0  0  0  0  0  0  0  0  0
  160.3240  210.5860  138.9330 P   0  0  2  0  0  0  0  0  0  0  0  0
  158.6060  210.0440  138.9180 C   0  0  2  0  0  3  0  0  0  0  0  0
  160.9400  210.3980  140.3020 O   0  0  0  0  0  1  0  0  0  0  0  0
  158.0230  210.3580  137.6660 O   0  0  0  0  0  0  0  0  0  0  0  0
  157.7930  211.2660  138.7160 C   0  0  2  0  0  0  0  0  0  0  0  0
  160.0600  212.3280  138.5170 C   0  0  1  0  0  3  0  0  0  0  0  0
  158.5510  212.5960  138.5550 C   0  0  0  0  0  2  0  0  0  0  0  0
  161.2360  209.7970  137.7480 O   0  0  0  0  0  0  0  0  0  0  0  0
  156.3590  211.2270  139.2240 C   0  0  1  0  0  3  0  0  0  0  0  0
  155.8590  212.5260  139.3260 O   0  0  0  0  0  1  0  0  0  0  0  0
  155.4830  210.4190  138.2860 C   0  0  0  0  0  1  0  0  0  0  0  0
  160.9460  209.6130  152.0710 C   0  0  1  0  0  3  0  0  0  0  0  0
  160.9360  205.3000  151.3970 C   0  0  0  0  0  0  0  0  0  0  0  0
  161.5230  208.7970  150.9990 N   0  0  0  0  0  2  0  0  0  0  0  0
  161.4670  207.3670  150.9350 C   0  0  0  0  0  0  0  0  0  0  0  0
  161.7970  205.1390  150.1920 C   0  0  2  0  0  3  0  0  0  0  0  0
  160.8120  206.6540  151.7880 N   0  0  0  0  0  0  0  0  0  0  0  0
  162.1340  206.5890  149.8490 C   0  0  0  0  0  2  0  0  0  0  0  0
  160.5930  204.3020  152.1990 C   0  0  0  0  0  2  0  0  0  0  0  0
  161.0110  204.5320  149.0350 C   0  0  0  0  0  2  0  0  0  0  0  0
  161.5250  203.6120  145.5340 O   0  0  0  0  0  0  0  0  0  0  0  0
  161.4930  205.6220  146.7720 C   0  0  1  0  0  3  0  0  0  0  0  0
  160.1160  205.8850  146.7930 O   0  0  0  0  0  1  0  0  0  0  0  0
  161.8340  204.5110  147.7380 C   0  0  2  0  0  3  0  0  0  0  0  0
  161.2290  205.6290  144.2570 C   0  0  0  0  0  1  0  0  0  0  0  0
  161.7290  203.2330  146.8810 C   0  0  1  0  0  3  0  0  0  0  0  0
  161.8780  204.9680  145.4620 C   0  0  2  0  0  3  0  0  0  0  0  0
  160.9960  201.6870  148.5710 O   0  0  0  0  0  1  0  0  0  0  0  0
  160.6420  202.2470  147.3360 C   0  0  2  0  0  3  0  0  0  0  0  0
  160.3620  201.6600  145.0170 O   0  0  0  0  0  1  0  0  0  0  0  0
  160.3870  201.1360  146.3120 C   0  0  1  0  0  3  0  0  0  0  0  0
  161.4440  200.0850  146.4030 C   0  0  0  0  0  3  0  0  0  0  0  0
  161.2630  198.9870  145.8980 O   0  0  0  0  0  0  0  0  0  0  0  0
  161.6800  209.4610  153.2590 O   0  0  0  0  0  0  0  0  0  0  0  0
  159.7850  210.1160  154.7460 C   0  0  0  0  0  0  0  0  0  0  0  0
  161.4930  209.2380  155.5270 C   0  0  2  0  0  3  0  0  0  0  0  0
  160.0250  210.9090  157.0430 N   0  0  0  0  0  0  0  0  0  0  0  0
  160.7650  209.1040  154.2610 C   0  0  2  0  0  0  0  0  0  0  0  0
  158.9040  211.6770  156.8220 C   0  0  0  0  0  3  0  0  0  0  0  0
  161.0150  207.8750  155.1060 C   0  0  0  0  0  2  0  0  0  0  0  0
  160.4180  210.1530  156.0020 C   0  0  0  0  0  0  0  0  0  0  0  0
  158.6510  210.8610  154.4810 C   0  0  0  0  0  3  0  0  0  0  0  0
  158.2140  211.6660  155.5640 C   0  0  0  0  0  3  0  0  0  0  0  0
  1  2  1  0  0  0  0
  1 33  1  0  0  0  0
  1  3  1  0  0  0  0
  5  4  1  1  0  0  0
  5  1  1  0  0  0  0
  7 10  2  0  0  0  0
  7 11  1  0  0  0  0
  8  6  1  0  0  0  0
  8  5  1  0  0  0  0
 10  8  1  0  0  0  0
 11  9  2  0  0  0  0
 11  6  1  0  0  0  0
 12  7  1  0  0  0  0
 14 13  1  1  0  0  0
 14 12  1  0  0  0  0
 15 14  1  0  0  0  0
 16 15  1  0  0  0  0
 17 20  1  6  0  0  0
 17 18  1  0  0  0  0
 17 16  1  0  0  0  0
 18 19  2  0  0  0  0
 21 20  1  0  0  0  0
 22 29  2  6  0  0  0
 22 24  1  0  0  0  0
 23 25  1  6  0  0  0
 23 22  1  0  0  0  0
 25 26  1  0  0  0  0
 26 23  1  0  0  0  0
 26 30  1  1  0  0  0
 27 28  1  0  0  0  0
 27 22  1  0  0  0  0
 27 21  1  1  0  0  0
 28 26  1  0  0  0  0
 30 32  1  6  0  0  0
 30 31  1  0  0  0  0
 33 35  1  6  0  0  0
 33 55  1  0  0  0  0
 34 38  1  0  0  0  0
 34 40  2  0  0  0  0
 36 35  1  0  0  0  0
 36 38  2  0  0  0  0
 37 41  1  6  0  0  0
 37 34  1  0  0  0  0
 39 37  1  0  0  0  0
 39 36  1  0  0  0  0
 42 47  1  0  0  0  0
 43 44  1  6  0  0  0
 43 45  1  0  0  0  0
 45 41  1  1  0  0  0
 47 50  1  1  0  0  0
 47 45  1  0  0  0  0
 48 46  1  6  0  0  0
 48 42  1  0  0  0  0
 48 43  1  0  0  0  0
 50 49  1  1  0  0  0
 52 51  1  6  0  0  0
 52 53  1  0  0  0  0
 52 50  1  0  0  0  0
 54 53  2  0  0  0  0
 56 62  1  0  0  0  0
 57 61  1  1  0  0  0
 57 62  1  0  0  0  0
 59 55  1  6  0  0  0
 59 56  1  0  0  0  0
 59 61  1  0  0  0  0
 59 57  1  0  0  0  0
 60 58  1  0  0  0  0
 62 58  2  0  0  0  0
 63 56  2  0  0  0  0
 63 64  1  0  0  0  0
 64 60  2  0  0  0  0
M  END
>  <MODEL>
1

>  <REMARK>
 VINA RESULT:      -5.3      0.000      0.000
  Name = 
  21 active torsions:
  status: ('A' for Active; 'I' for Inactive)
    1  A    between atoms: C_4  and  C_35
    2  A    between atoms: O_6  and  C_28
    3  A    between atoms: O_6  and  C_30
    4  A    between atoms: C_7  and  C_9
    5  A    between atoms: C_7  and  N_20
    6  A    between atoms: C_9  and  C_28
    7  A    between atoms: C_11  and  C_17
    8  A    between atoms: C_11  and  S_36
    9  A    between atoms: C_13  and  O_16
   10  A    between atoms: C_13  and  C_56
   11  A    between atoms: N_15  and  C_28
   12  A    between atoms: O_16  and  S_36
   13  A    between atoms: C_23  and  C_42
   14  A    between atoms: C_25  and  C_56
   15  A    between atoms: C_27  and  C_34
   16  A    between atoms: C_33  and  C_34
   17  A    between atoms: C_42  and  C_49
   18  A    between atoms: O_43  and  C_44
   19  A    between atoms: O_43  and  C_47
   20  A    between atoms: C_47  and  C_56
   21  A    between atoms: C_48  and  C_49
                            x       y       z     vdW  Elec       q    Type
                         _______ _______ _______ _____ _____    ______ ____

>  <TORSDO>
F 21

$$$$
