=
 OpenBabel11042420453D

 27 29  0  0  1  0  0  0  0  0999 V2000
  161.2920  207.6560  151.6360 C   0  0  1  0  0  3  0  0  0  0  0  0
  161.1730  203.9300  150.9770 C   0  0  0  0  0  3  0  0  0  0  0  0
  160.9870  206.2950  149.5700 N   0  0  0  0  0  0  0  0  0  0  0  0
  161.2850  205.1500  151.6450 C   0  0  0  0  0  3  0  0  0  0  0  0
  160.9660  203.9020  149.5920 C   0  0  0  0  0  0  0  0  0  0  0  0
  161.1970  206.3380  150.9160 C   0  0  0  0  0  0  0  0  0  0  0  0
  160.8740  205.1170  148.9030 C   0  0  0  0  0  3  0  0  0  0  0  0
  160.2660  201.5250  149.4920 O   0  0  0  0  0  1  0  0  0  0  0  0
  160.8450  202.6250  148.8720 C   0  0  0  0  0  0  0  0  0  0  0  0
  161.2660  202.5170  147.6890 O   0  0  0  0  0  0  0  0  0  0  0  0
  161.9510  209.9800  150.8490 C   0  0  0  0  0  0  0  0  0  0  0  0
  161.1530  208.7980  150.7340 N   0  0  0  0  0  2  0  0  0  0  0  0
  162.7920  210.0850  151.7830 O   0  0  0  0  0  0  0  0  0  0  0  0
  160.8810  213.2390  149.2720 C   0  0  0  0  0  3  0  0  0  0  0  0
  161.3580  214.1170  147.1110 F   0  0  0  0  0  0  0  0  0  0  0  0
  161.0320  212.2080  150.2010 C   0  0  0  0  0  3  0  0  0  0  0  0
  161.4940  213.1250  148.0220 C   0  0  0  0  0  0  0  0  0  0  0  0
  162.2260  212.0190  147.7200 N   0  0  0  0  0  0  0  0  0  0  0  0
  162.3830  211.0040  148.6120 C   0  0  0  0  0  3  0  0  0  0  0  0
  161.7880  211.0760  149.8780 C   0  0  0  0  0  0  0  0  0  0  0  0
  160.4170  207.7410  152.7450 O   0  0  0  0  0  0  0  0  0  0  0  0
  160.7660  209.3060  154.5030 C   0  0  0  0  0  2  0  0  0  0  0  0
  161.1660  207.9750  153.9120 C   0  0  1  0  0  3  0  0  0  0  0  0
  160.8000  206.9460  154.9620 C   0  0  0  0  0  2  0  0  0  0  0  0
  160.2270  207.0800  157.2230 C   0  0  0  0  0  1  0  0  0  0  0  0
  160.2190  208.9890  155.8770 C   0  0  0  0  0  2  0  0  0  0  0  0
  159.8860  207.5750  155.9010 N   0  0  0  0  0  0  0  0  0  0  0  0
  1 12  1  6  0  0  0
  1 21  1  0  0  0  0
  2  4  1  0  0  0  0
  3  6  1  0  0  0  0
  5  2  2  0  0  0  0
  6  1  1  0  0  0  0
  6  4  2  0  0  0  0
  7  3  2  0  0  0  0
  7  5  1  0  0  0  0
  9  8  1  0  0  0  0
  9  5  1  0  0  0  0
 10  9  2  0  0  0  0
 11 13  2  0  0  0  0
 12 11  1  0  0  0  0
 14 16  1  0  0  0  0
 15 17  1  0  0  0  0
 17 14  2  0  0  0  0
 18 17  1  0  0  0  0
 18 19  2  0  0  0  0
 19 20  1  0  0  0  0
 20 16  2  0  0  0  0
 20 11  1  0  0  0  0
 22 26  1  0  0  0  0
 23 21  1  6  0  0  0
 23 22  1  0  0  0  0
 23 24  1  0  0  0  0
 24 27  1  0  0  0  0
 26 27  1  0  0  0  0
 27 25  1  0  0  0  0
M  END
>  <MODEL>
1

>  <REMARK>
 VINA RESULT:      -7.1      0.000      0.000
  Name = 
  6 active torsions:
  status: ('A' for Active; 'I' for Inactive)
    1  A    between atoms: C_6  and  C_21
    2  A    between atoms: C_8  and  O_10
    3  A    between atoms: C_8  and  N_15
    4  A    between atoms: C_8  and  C_18
    5  A    between atoms: O_10  and  C_23
    6  A    between atoms: C_11  and  C_17
                            x       y       z     vdW  Elec       q    Type
                         _______ _______ _______ _____ _____    ______ ____

>  <TORSDO>
F 6

$$$$
=
 OpenBabel11042420453D

 27 29  0  0  1  0  0  0  0  0999 V2000
  161.1180  207.2310  151.2470 C   0  0  1  0  0  3  0  0  0  0  0  0
  162.0170  209.4390  148.3070 C   0  0  0  0  0  3  0  0  0  0  0  0
  161.6530  209.6560  151.0320 N   0  0  0  0  0  0  0  0  0  0  0  0
  161.6800  208.3130  149.0580 C   0  0  0  0  0  3  0  0  0  0  0  0
  162.1730  210.6810  148.9330 C   0  0  0  0  0  0  0  0  0  0  0  0
  161.5070  208.4380  150.4380 C   0  0  0  0  0  0  0  0  0  0  0  0
  161.9810  210.7640  150.3170 C   0  0  0  0  0  3  0  0  0  0  0  0
  161.5340  212.7230  147.6780 O   0  0  0  0  0  0  0  0  0  0  0  0
  162.5280  211.8790  148.1570 C   0  0  0  0  0  0  0  0  0  0  0  0
  163.7360  212.1510  147.9200 O   0  0  0  0  0  1  0  0  0  0  0  0
  160.8020  204.7230  150.9890 C   0  0  0  0  0  0  0  0  0  0  0  0
  161.2800  205.9820  150.5040 N   0  0  0  0  0  2  0  0  0  0  0  0
  160.2480  204.6510  152.1200 O   0  0  0  0  0  0  0  0  0  0  0  0
  161.2380  202.4490  148.0080 C   0  0  0  0  0  3  0  0  0  0  0  0
  161.3960  200.0760  147.9100 F   0  0  0  0  0  0  0  0  0  0  0  0
  161.0920  203.6040  148.7770 C   0  0  0  0  0  3  0  0  0  0  0  0
  161.2540  201.2050  148.6420 C   0  0  0  0  0  0  0  0  0  0  0  0
  161.1250  201.1280  149.9930 N   0  0  0  0  0  0  0  0  0  0  0  0
  160.9800  202.2420  150.7600 C   0  0  0  0  0  3  0  0  0  0  0  0
  160.9600  203.5110  150.1670 C   0  0  0  0  0  0  0  0  0  0  0  0
  161.7540  207.1880  152.5100 O   0  0  0  0  0  0  0  0  0  0  0  0
  161.2160  206.7010  154.7760 C   0  0  0  0  0  2  0  0  0  0  0  0
  160.8060  207.4310  153.5200 C   0  0  1  0  0  3  0  0  0  0  0  0
  160.8230  208.9000  153.8870 C   0  0  0  0  0  2  0  0  0  0  0  0
  160.9150  210.0560  155.9150 C   0  0  0  0  0  1  0  0  0  0  0  0
  161.4200  207.7770  155.8190 C   0  0  0  0  0  2  0  0  0  0  0  0
  161.5810  209.0420  155.1200 N   0  0  0  0  0  0  0  0  0  0  0  0
  1 12  1  6  0  0  0
  1 21  1  0  0  0  0
  2  5  2  0  0  0  0
  2  4  1  0  0  0  0
  4  6  2  0  0  0  0
  5  7  1  0  0  0  0
  6  3  1  0  0  0  0
  6  1  1  0  0  0  0
  7  3  2  0  0  0  0
  8  9  2  0  0  0  0
  9  5  1  0  0  0  0
 10  9  1  0  0  0  0
 11 13  2  0  0  0  0
 12 11  1  0  0  0  0
 14 17  2  0  0  0  0
 14 16  1  0  0  0  0
 15 17  1  0  0  0  0
 16 20  2  0  0  0  0
 17 18  1  0  0  0  0
 18 19  2  0  0  0  0
 20 19  1  0  0  0  0
 20 11  1  0  0  0  0
 22 26  1  0  0  0  0
 23 21  1  6  0  0  0
 23 24  1  0  0  0  0
 23 22  1  0  0  0  0
 24 27  1  0  0  0  0
 27 26  1  0  0  0  0
 27 25  1  0  0  0  0
M  END
>  <MODEL>
2

>  <REMARK>
 VINA RESULT:      -7.0      3.420      7.158
  Name = 
  6 active torsions:
  status: ('A' for Active; 'I' for Inactive)
    1  A    between atoms: C_6  and  C_21
    2  A    between atoms: C_8  and  O_10
    3  A    between atoms: C_8  and  N_15
    4  A    between atoms: C_8  and  C_18
    5  A    between atoms: O_10  and  C_23
    6  A    between atoms: C_11  and  C_17
                            x       y       z     vdW  Elec       q    Type
                         _______ _______ _______ _____ _____    ______ ____

>  <TORSDO>
F 6

$$$$
=
 OpenBabel11042420453D

 27 29  0  0  1  0  0  0  0  0999 V2000
  161.7950  208.0660  149.7150 C   0  0  1  0  0  3  0  0  0  0  0  0
  160.9870  204.4070  149.1760 C   0  0  0  0  0  3  0  0  0  0  0  0
  162.1170  206.5110  147.7950 N   0  0  0  0  0  0  0  0  0  0  0  0
  161.1060  205.6580  149.7830 C   0  0  0  0  0  3  0  0  0  0  0  0
  161.4410  204.2160  147.8650 C   0  0  0  0  0  0  0  0  0  0  0  0
  161.6880  206.7100  149.0730 C   0  0  0  0  0  0  0  0  0  0  0  0
  162.0090  205.3010  147.1860 C   0  0  0  0  0  3  0  0  0  0  0  0
  161.1860  201.7510  147.9710 O   0  0  0  0  0  1  0  0  0  0  0  0
  161.3240  202.9050  147.2090 C   0  0  0  0  0  0  0  0  0  0  0  0
  161.3470  202.8150  145.9520 O   0  0  0  0  0  0  0  0  0  0  0  0
  161.9930  210.5110  149.0530 C   0  0  0  0  0  0  0  0  0  0  0  0
  161.6480  209.1560  148.7510 N   0  0  0  0  0  2  0  0  0  0  0  0
  162.4060  210.8160  150.2050 O   0  0  0  0  0  0  0  0  0  0  0  0
  162.7500  213.4620  146.8230 C   0  0  0  0  0  3  0  0  0  0  0  0
  161.4330  214.4530  145.1050 F   0  0  0  0  0  0  0  0  0  0  0  0
  162.8870  212.4790  147.8040 C   0  0  0  0  0  3  0  0  0  0  0  0
  161.5810  213.5060  146.0610 C   0  0  0  0  0  0  0  0  0  0  0  0
  160.5900  212.6000  146.2790 N   0  0  0  0  0  0  0  0  0  0  0  0
  160.7040  211.6350  147.2310 C   0  0  0  0  0  3  0  0  0  0  0  0
  161.8600  211.5520  148.0190 C   0  0  0  0  0  0  0  0  0  0  0  0
  160.9340  208.2180  150.8270 O   0  0  0  0  0  0  0  0  0  0  0  0
  161.3830  209.5660  152.7360 C   0  0  0  0  0  2  0  0  0  0  0  0
  161.6990  208.2830  152.0050 C   0  0  1  0  0  3  0  0  0  0  0  0
  161.2770  207.1730  152.9460 C   0  0  0  0  0  2  0  0  0  0  0  0
  160.7220  207.1040  155.2140 C   0  0  0  0  0  1  0  0  0  0  0  0
  160.8240  209.1400  154.0740 C   0  0  0  0  0  2  0  0  0  0  0  0
  160.4050  207.7530  153.9550 N   0  0  0  0  0  0  0  0  0  0  0  0
  1 12  1  6  0  0  0
  1 21  1  0  0  0  0
  2  4  1  0  0  0  0
  3  6  1  0  0  0  0
  5  2  2  0  0  0  0
  6  1  1  0  0  0  0
  6  4  2  0  0  0  0
  7  3  2  0  0  0  0
  7  5  1  0  0  0  0
  9  5  1  0  0  0  0
  9  8  1  0  0  0  0
 10  9  2  0  0  0  0
 11 13  2  0  0  0  0
 12 11  1  0  0  0  0
 14 16  1  0  0  0  0
 15 17  1  0  0  0  0
 16 20  2  0  0  0  0
 17 18  1  0  0  0  0
 17 14  2  0  0  0  0
 18 19  2  0  0  0  0
 19 20  1  0  0  0  0
 20 11  1  0  0  0  0
 22 26  1  0  0  0  0
 23 21  1  6  0  0  0
 23 22  1  0  0  0  0
 23 24  1  0  0  0  0
 24 27  1  0  0  0  0
 27 26  1  0  0  0  0
 27 25  1  0  0  0  0
M  END
>  <MODEL>
3

>  <REMARK>
 VINA RESULT:      -6.8      1.666      2.077
  Name = 
  6 active torsions:
  status: ('A' for Active; 'I' for Inactive)
    1  A    between atoms: C_6  and  C_21
    2  A    between atoms: C_8  and  O_10
    3  A    between atoms: C_8  and  N_15
    4  A    between atoms: C_8  and  C_18
    5  A    between atoms: O_10  and  C_23
    6  A    between atoms: C_11  and  C_17
                            x       y       z     vdW  Elec       q    Type
                         _______ _______ _______ _____ _____    ______ ____

>  <TORSDO>
F 6

$$$$
=
 OpenBabel11042420453D

 27 29  0  0  1  0  0  0  0  0999 V2000
  161.9220  207.4220  151.1550 C   0  0  1  0  0  3  0  0  0  0  0  0
  160.8100  206.5000  154.6540 C   0  0  0  0  0  3  0  0  0  0  0  0
  161.2510  208.7660  153.1430 N   0  0  0  0  0  0  0  0  0  0  0  0
  161.2310  206.3850  153.3290 C   0  0  0  0  0  3  0  0  0  0  0  0
  160.6090  207.7650  155.2200 C   0  0  0  0  0  0  0  0  0  0  0  0
  161.4430  207.5420  152.5760 C   0  0  0  0  0  0  0  0  0  0  0  0
  160.8420  208.8990  154.4320 C   0  0  0  0  0  3  0  0  0  0  0  0
  160.1890  209.1490  157.2350 O   0  0  0  0  0  0  0  0  0  0  0  0
  160.1640  207.9060  156.6150 C   0  0  0  0  0  0  0  0  0  0  0  0
  159.7580  206.9020  157.2600 O   0  0  0  0  0  1  0  0  0  0  0  0
  160.9530  205.6020  149.6700 C   0  0  0  0  0  0  0  0  0  0  0  0
  161.8820  206.0450  150.6640 N   0  0  0  0  0  2  0  0  0  0  0  0
  160.0940  206.4020  149.2070 O   0  0  0  0  0  0  0  0  0  0  0  0
  160.8070  201.8300  149.6020 C   0  0  0  0  0  3  0  0  0  0  0  0
  161.1410  200.3230  147.7890 F   0  0  0  0  0  0  0  0  0  0  0  0
  160.7600  203.1450  150.0670 C   0  0  0  0  0  3  0  0  0  0  0  0
  161.0930  201.5930  148.2560 C   0  0  0  0  0  0  0  0  0  0  0  0
  161.3220  202.6360  147.4140 N   0  0  0  0  0  0  0  0  0  0  0  0
  161.2810  203.9240  147.8480 C   0  0  0  0  0  3  0  0  0  0  0  0
  160.9970  204.2100  149.1900 C   0  0  0  0  0  0  0  0  0  0  0  0
  161.2720  208.3210  150.2770 O   0  0  0  0  0  0  0  0  0  0  0  0
  161.9880  209.2860  148.2230 C   0  0  0  0  0  2  0  0  0  0  0  0
  162.2220  209.1900  149.7120 C   0  0  1  0  0  3  0  0  0  0  0  0
  162.0030  210.5930  150.2410 C   0  0  0  0  0  2  0  0  0  0  0  0
  161.8390  212.6920  149.2300 C   0  0  0  0  0  1  0  0  0  0  0  0
  161.6770  210.7410  147.9560 C   0  0  0  0  0  2  0  0  0  0  0  0
  161.2940  211.3470  149.2210 N   0  0  0  0  0  0  0  0  0  0  0  0
  1 21  1  6  0  0  0
  1  6  1  0  0  0  0
  2  5  1  0  0  0  0
  3  7  1  0  0  0  0
  4  2  2  0  0  0  0
  5  9  1  0  0  0  0
  6  3  2  0  0  0  0
  6  4  1  0  0  0  0
  7  5  2  0  0  0  0
  9  8  2  0  0  0  0
  9 10  1  0  0  0  0
 11 12  1  0  0  0  0
 12  1  1  0  0  0  0
 13 11  2  0  0  0  0
 14 16  1  0  0  0  0
 15 17  1  0  0  0  0
 17 14  2  0  0  0  0
 18 19  2  0  0  0  0
 18 17  1  0  0  0  0
 19 20  1  0  0  0  0
 20 11  1  0  0  0  0
 20 16  2  0  0  0  0
 22 23  1  0  0  0  0
 23 24  1  0  0  0  0
 23 21  1  1  0  0  0
 26 22  1  0  0  0  0
 26 27  1  0  0  0  0
 27 25  1  0  0  0  0
 27 24  1  0  0  0  0
M  END
>  <MODEL>
4

>  <REMARK>
 VINA RESULT:      -6.5      3.375      7.636
  Name = 
  6 active torsions:
  status: ('A' for Active; 'I' for Inactive)
    1  A    between atoms: C_6  and  C_21
    2  A    between atoms: C_8  and  O_10
    3  A    between atoms: C_8  and  N_15
    4  A    between atoms: C_8  and  C_18
    5  A    between atoms: O_10  and  C_23
    6  A    between atoms: C_11  and  C_17
                            x       y       z     vdW  Elec       q    Type
                         _______ _______ _______ _____ _____    ______ ____

>  <TORSDO>
F 6

$$$$
=
 OpenBabel11042420453D

 27 29  0  0  1  0  0  0  0  0999 V2000
  161.7190  208.2570  150.5150 C   0  0  1  0  0  3  0  0  0  0  0  0
  161.2060  206.6170  153.8880 C   0  0  0  0  0  3  0  0  0  0  0  0
  161.2140  209.1470  152.7870 N   0  0  0  0  0  0  0  0  0  0  0  0
  161.4440  206.7840  152.5230 C   0  0  0  0  0  3  0  0  0  0  0  0
  160.9700  207.7320  154.7020 C   0  0  0  0  0  0  0  0  0  0  0  0
  161.4370  208.0710  151.9810 C   0  0  0  0  0  0  0  0  0  0  0  0
  160.9810  209.0040  154.1190 C   0  0  0  0  0  3  0  0  0  0  0  0
  161.6010  208.1100  157.0710 O   0  0  0  0  0  1  0  0  0  0  0  0
  160.7170  207.5740  156.1420 C   0  0  0  0  0  0  0  0  0  0  0  0
  159.6970  206.9530  156.5480 O   0  0  0  0  0  0  0  0  0  0  0  0
  162.0010  206.8330  148.4300 C   0  0  0  0  0  0  0  0  0  0  0  0
  161.4570  207.0480  149.7360 N   0  0  0  0  0  2  0  0  0  0  0  0
  162.7100  207.7240  147.8860 O   0  0  0  0  0  0  0  0  0  0  0  0
  161.2060  203.2060  147.7480 C   0  0  0  0  0  3  0  0  0  0  0  0
  160.9860  202.0560  145.6750 F   0  0  0  0  0  0  0  0  0  0  0  0
  161.4580  204.3970  148.4310 C   0  0  0  0  0  3  0  0  0  0  0  0
  161.2300  203.2030  146.3520 C   0  0  0  0  0  0  0  0  0  0  0  0
  161.4960  204.3500  145.6720 N   0  0  0  0  0  0  0  0  0  0  0  0
  161.7460  205.5200  146.3200 C   0  0  0  0  0  3  0  0  0  0  0  0
  161.7310  205.5710  147.7200 C   0  0  0  0  0  0  0  0  0  0  0  0
  161.0750  209.3930  149.9710 O   0  0  0  0  0  0  0  0  0  0  0  0
  162.4950  210.7070  148.5860 C   0  0  0  0  0  2  0  0  0  0  0  0
  161.9620  210.4840  149.9810 C   0  0  1  0  0  3  0  0  0  0  0  0
  161.2060  211.7490  150.3280 C   0  0  0  0  0  2  0  0  0  0  0  0
  161.1180  213.8860  149.3870 C   0  0  0  0  0  1  0  0  0  0  0  0
  162.0500  212.1010  148.2040 C   0  0  0  0  0  2  0  0  0  0  0  0
  160.9610  212.4740  149.0910 N   0  0  0  0  0  0  0  0  0  0  0  0
  1 12  1  6  0  0  0
  1  6  1  0  0  0  0
  2  5  1  0  0  0  0
  3  7  1  0  0  0  0
  4  2  2  0  0  0  0
  5  9  1  0  0  0  0
  6  4  1  0  0  0  0
  6  3  2  0  0  0  0
  7  5  2  0  0  0  0
  9 10  2  0  0  0  0
  9  8  1  0  0  0  0
 11 12  1  0  0  0  0
 13 11  2  0  0  0  0
 14 16  1  0  0  0  0
 15 17  1  0  0  0  0
 17 14  2  0  0  0  0
 18 19  2  0  0  0  0
 18 17  1  0  0  0  0
 19 20  1  0  0  0  0
 20 11  1  0  0  0  0
 20 16  2  0  0  0  0
 21  1  1  0  0  0  0
 22 23  1  0  0  0  0
 23 21  1  6  0  0  0
 23 24  1  0  0  0  0
 26 22  1  0  0  0  0
 26 27  1  0  0  0  0
 27 25  1  0  0  0  0
 27 24  1  0  0  0  0
M  END
>  <MODEL>
5

>  <REMARK>
 VINA RESULT:      -6.3      3.285      7.119
  Name = 
  6 active torsions:
  status: ('A' for Active; 'I' for Inactive)
    1  A    between atoms: C_6  and  C_21
    2  A    between atoms: C_8  and  O_10
    3  A    between atoms: C_8  and  N_15
    4  A    between atoms: C_8  and  C_18
    5  A    between atoms: O_10  and  C_23
    6  A    between atoms: C_11  and  C_17
                            x       y       z     vdW  Elec       q    Type
                         _______ _______ _______ _____ _____    ______ ____

>  <TORSDO>
F 6

$$$$
=
 OpenBabel11042420453D

 27 29  0  0  1  0  0  0  0  0999 V2000
  161.5800  207.4570  152.5390 C   0  0  1  0  0  3  0  0  0  0  0  0
  161.1130  204.2520  150.5790 C   0  0  0  0  0  3  0  0  0  0  0  0
  161.6240  206.9210  150.1050 N   0  0  0  0  0  0  0  0  0  0  0  0
  161.2210  205.1430  151.6480 C   0  0  0  0  0  3  0  0  0  0  0  0
  161.2640  204.7100  149.2650 C   0  0  0  0  0  0  0  0  0  0  0  0
  161.4880  206.4890  151.3910 C   0  0  0  0  0  0  0  0  0  0  0  0
  161.5200  206.0690  149.0520 C   0  0  0  0  0  3  0  0  0  0  0  0
  160.8460  202.4460  148.3390 O   0  0  0  0  0  1  0  0  0  0  0  0
  161.1530  203.7850  148.1260 C   0  0  0  0  0  0  0  0  0  0  0  0
  161.3350  204.1960  146.9490 O   0  0  0  0  0  0  0  0  0  0  0  0
  161.3390  209.9530  152.1270 C   0  0  0  0  0  0  0  0  0  0  0  0
  160.7690  208.6560  152.3270 N   0  0  0  0  0  2  0  0  0  0  0  0
  162.5910  210.1060  152.1680 O   0  0  0  0  0  0  0  0  0  0  0  0
  158.5000  212.4240  152.4120 C   0  0  0  0  0  3  0  0  0  0  0  0
  158.0370  214.3720  151.1230 F   0  0  0  0  0  0  0  0  0  0  0  0
  159.3250  211.3260  152.6600 C   0  0  0  0  0  3  0  0  0  0  0  0
  158.8260  213.3010  151.3750 C   0  0  0  0  0  0  0  0  0  0  0  0
  159.9360  213.0810  150.6200 N   0  0  0  0  0  0  0  0  0  0  0  0
  160.7510  212.0160  150.8460 C   0  0  0  0  0  3  0  0  0  0  0  0
  160.4630  211.1100  151.8760 C   0  0  0  0  0  0  0  0  0  0  0  0
  161.3220  206.8520  153.7910 O   0  0  0  0  0  0  0  0  0  0  0  0
  160.1060  207.0220  155.8290 C   0  0  0  0  0  2  0  0  0  0  0  0
  160.6090  207.7500  154.6050 C   0  0  1  0  0  3  0  0  0  0  0  0
  161.5510  208.8130  155.1320 C   0  0  0  0  0  2  0  0  0  0  0  0
  161.9540  209.7050  157.2530 C   0  0  0  0  0  1  0  0  0  0  0  0
  160.7530  207.7170  157.0060 C   0  0  0  0  0  2  0  0  0  0  0  0
  161.8930  208.4650  156.5020 N   0  0  0  0  0  0  0  0  0  0  0  0
  1 12  1  6  0  0  0
  1 21  1  0  0  0  0
  2  4  1  0  0  0  0
  3  6  1  0  0  0  0
  5  2  2  0  0  0  0
  6  4  2  0  0  0  0
  6  1  1  0  0  0  0
  7  5  1  0  0  0  0
  7  3  2  0  0  0  0
  9  8  1  0  0  0  0
  9  5  1  0  0  0  0
 10  9  2  0  0  0  0
 11 13  2  0  0  0  0
 11 12  1  0  0  0  0
 14 16  1  0  0  0  0
 15 17  1  0  0  0  0
 17 14  2  0  0  0  0
 18 19  2  0  0  0  0
 18 17  1  0  0  0  0
 19 20  1  0  0  0  0
 20 11  1  0  0  0  0
 20 16  2  0  0  0  0
 22 26  1  0  0  0  0
 23 21  1  6  0  0  0
 23 24  1  0  0  0  0
 23 22  1  0  0  0  0
 24 27  1  0  0  0  0
 27 26  1  0  0  0  0
 27 25  1  0  0  0  0
M  END
>  <MODEL>
6

>  <REMARK>
 VINA RESULT:      -6.1      1.998      2.369
  Name = 
  6 active torsions:
  status: ('A' for Active; 'I' for Inactive)
    1  A    between atoms: C_6  and  C_21
    2  A    between atoms: C_8  and  O_10
    3  A    between atoms: C_8  and  N_15
    4  A    between atoms: C_8  and  C_18
    5  A    between atoms: O_10  and  C_23
    6  A    between atoms: C_11  and  C_17
                            x       y       z     vdW  Elec       q    Type
                         _______ _______ _______ _____ _____    ______ ____

>  <TORSDO>
F 6

$$$$
=
 OpenBabel11042420453D

 27 29  0  0  1  0  0  0  0  0999 V2000
  161.9460  209.3320  149.7740 C   0  0  1  0  0  3  0  0  0  0  0  0
  161.2530  207.1020  152.7540 C   0  0  0  0  0  3  0  0  0  0  0  0
  161.5200  209.7890  152.1860 N   0  0  0  0  0  0  0  0  0  0  0  0
  161.5140  207.5180  151.4480 C   0  0  0  0  0  3  0  0  0  0  0  0
  161.1260  208.0470  153.7800 C   0  0  0  0  0  0  0  0  0  0  0  0
  161.6390  208.8820  151.1760 C   0  0  0  0  0  0  0  0  0  0  0  0
  161.2670  209.4040  153.4650 C   0  0  0  0  0  3  0  0  0  0  0  0
  161.6910  208.0260  156.1950 O   0  0  0  0  0  1  0  0  0  0  0  0
  160.8500  207.6280  155.1630 C   0  0  0  0  0  0  0  0  0  0  0  0
  159.8520  206.9040  155.4240 O   0  0  0  0  0  0  0  0  0  0  0  0
  162.3710  207.3560  148.2340 C   0  0  0  0  0  0  0  0  0  0  0  0
  161.5080  208.3660  148.7670 N   0  0  0  0  0  2  0  0  0  0  0  0
  163.5760  207.2970  148.6010 O   0  0  0  0  0  0  0  0  0  0  0  0
  161.8980  204.1930  146.2280 C   0  0  0  0  0  3  0  0  0  0  0  0
  160.3540  203.7120  144.4800 F   0  0  0  0  0  0  0  0  0  0  0  0
  162.3960  205.1020  147.1620 C   0  0  0  0  0  3  0  0  0  0  0  0
  160.8500  204.5820  145.3900 C   0  0  0  0  0  0  0  0  0  0  0  0
  160.3280  205.8340  145.4890 N   0  0  0  0  0  0  0  0  0  0  0  0
  160.8020  206.7340  146.3920 C   0  0  0  0  0  3  0  0  0  0  0  0
  161.8500  206.3870  147.2530 C   0  0  0  0  0  0  0  0  0  0  0  0
  161.4760  210.6380  149.5000 O   0  0  0  0  0  0  0  0  0  0  0  0
  160.8360  211.5450  147.3960 C   0  0  0  0  0  2  0  0  0  0  0  0
  161.9790  211.0640  148.2580 C   0  0  1  0  0  3  0  0  0  0  0  0
  162.8650  212.2750  148.4590 C   0  0  0  0  0  2  0  0  0  0  0  0
  163.0000  214.3660  147.4260 C   0  0  0  0  0  1  0  0  0  0  0  0
  161.1310  213.0010  147.1120 C   0  0  0  0  0  2  0  0  0  0  0  0
  162.0950  213.4550  148.1010 N   0  0  0  0  0  0  0  0  0  0  0  0
  1 12  1  6  0  0  0
  1  6  1  0  0  0  0
  2  5  1  0  0  0  0
  3  7  1  0  0  0  0
  4  2  2  0  0  0  0
  5  9  1  0  0  0  0
  6  4  1  0  0  0  0
  6  3  2  0  0  0  0
  7  5  2  0  0  0  0
  9 10  2  0  0  0  0
  9  8  1  0  0  0  0
 11 13  2  0  0  0  0
 11 12  1  0  0  0  0
 14 16  1  0  0  0  0
 15 17  1  0  0  0  0
 16 20  2  0  0  0  0
 17 18  1  0  0  0  0
 17 14  2  0  0  0  0
 18 19  2  0  0  0  0
 19 20  1  0  0  0  0
 20 11  1  0  0  0  0
 21  1  1  0  0  0  0
 22 23  1  0  0  0  0
 23 24  1  0  0  0  0
 23 21  1  1  0  0  0
 25 27  1  0  0  0  0
 26 22  1  0  0  0  0
 26 27  1  0  0  0  0
 27 24  1  0  0  0  0
M  END
>  <MODEL>
7

>  <REMARK>
 VINA RESULT:      -6.0      3.382      7.181
  Name = 
  6 active torsions:
  status: ('A' for Active; 'I' for Inactive)
    1  A    between atoms: C_6  and  C_21
    2  A    between atoms: C_8  and  O_10
    3  A    between atoms: C_8  and  N_15
    4  A    between atoms: C_8  and  C_18
    5  A    between atoms: O_10  and  C_23
    6  A    between atoms: C_11  and  C_17
                            x       y       z     vdW  Elec       q    Type
                         _______ _______ _______ _____ _____    ______ ____

>  <TORSDO>
F 6

$$$$
=
 OpenBabel11042420453D

 27 29  0  0  1  0  0  0  0  0999 V2000
  161.7190  209.0870  149.3900 C   0  0  1  0  0  3  0  0  0  0  0  0
  160.7760  205.4790  148.7420 C   0  0  0  0  0  3  0  0  0  0  0  0
  162.3710  207.4400  147.6370 N   0  0  0  0  0  0  0  0  0  0  0  0
  160.8450  206.7390  149.3350 C   0  0  0  0  0  3  0  0  0  0  0  0
  161.5170  205.2050  147.5850 C   0  0  0  0  0  0  0  0  0  0  0  0
  161.6630  207.7190  148.7670 C   0  0  0  0  0  0  0  0  0  0  0  0
  162.3160  206.2180  147.0440 C   0  0  0  0  0  3  0  0  0  0  0  0
  161.2660  203.7750  145.5740 O   0  0  0  0  0  0  0  0  0  0  0  0
  161.4570  203.8810  146.9460 C   0  0  0  0  0  0  0  0  0  0  0  0
  161.5780  202.8330  147.6350 O   0  0  0  0  0  1  0  0  0  0  0  0
  161.1670  209.7550  151.7780 C   0  0  0  0  0  0  0  0  0  0  0  0
  161.9630  209.0380  150.8310 N   0  0  0  0  0  2  0  0  0  0  0  0
  160.2300  210.5010  151.3800 O   0  0  0  0  0  0  0  0  0  0  0  0
  162.2020  210.5730  155.3150 C   0  0  0  0  0  3  0  0  0  0  0  0
  162.2040  209.2000  157.2600 F   0  0  0  0  0  0  0  0  0  0  0  0
  161.9420  210.7080  153.9510 C   0  0  0  0  0  3  0  0  0  0  0  0
  161.9580  209.3470  155.9370 C   0  0  0  0  0  0  0  0  0  0  0  0
  161.4730  208.3010  155.2160 N   0  0  0  0  0  0  0  0  0  0  0  0
  161.2140  208.4130  153.8850 C   0  0  0  0  0  3  0  0  0  0  0  0
  161.4430  209.6250  153.2190 C   0  0  0  0  0  0  0  0  0  0  0  0
  162.6150  209.9570  148.7250 O   0  0  0  0  0  0  0  0  0  0  0  0
  163.1860  212.2200  148.2600 C   0  0  0  0  0  2  0  0  0  0  0  0
  162.1650  211.2820  148.8600 C   0  0  1  0  0  3  0  0  0  0  0  0
  160.9100  211.4780  148.0350 C   0  0  0  0  0  2  0  0  0  0  0  0
  160.2280  213.0950  146.4930 C   0  0  0  0  0  1  0  0  0  0  0  0
  162.4670  212.9350  147.1400 C   0  0  0  0  0  2  0  0  0  0  0  0
  161.2880  212.1530  146.8040 N   0  0  0  0  0  0  0  0  0  0  0  0
  1 21  1  6  0  0  0
  1 12  1  0  0  0  0
  2  4  1  0  0  0  0
  3  6  1  0  0  0  0
  5  2  2  0  0  0  0
  6  4  2  0  0  0  0
  6  1  1  0  0  0  0
  7  5  1  0  0  0  0
  7  3  2  0  0  0  0
  8  9  2  0  0  0  0
  9  5  1  0  0  0  0
  9 10  1  0  0  0  0
 11 20  1  0  0  0  0
 12 11  1  0  0  0  0
 13 11  2  0  0  0  0
 14 17  1  0  0  0  0
 16 14  2  0  0  0  0
 17 15  1  0  0  0  0
 18 17  2  0  0  0  0
 19 18  1  0  0  0  0
 20 19  2  0  0  0  0
 20 16  1  0  0  0  0
 22 23  1  0  0  0  0
 23 21  1  6  0  0  0
 24 23  1  0  0  0  0
 25 27  1  0  0  0  0
 26 22  1  0  0  0  0
 27 26  1  0  0  0  0
 27 24  1  0  0  0  0
M  END
>  <MODEL>
8

>  <REMARK>
 VINA RESULT:      -5.8      2.903      6.123
  Name = 
  6 active torsions:
  status: ('A' for Active; 'I' for Inactive)
    1  A    between atoms: C_6  and  C_21
    2  A    between atoms: C_8  and  O_10
    3  A    between atoms: C_8  and  N_15
    4  A    between atoms: C_8  and  C_18
    5  A    between atoms: O_10  and  C_23
    6  A    between atoms: C_11  and  C_17
                            x       y       z     vdW  Elec       q    Type
                         _______ _______ _______ _____ _____    ______ ____

>  <TORSDO>
F 6

$$$$
=
 OpenBabel11042420453D

 27 29  0  0  1  0  0  0  0  0999 V2000
  162.1510  209.3620  150.4360 C   0  0  1  0  0  3  0  0  0  0  0  0
  160.0100  210.3020  153.4130 C   0  0  0  0  0  3  0  0  0  0  0  0
  162.6780  209.9730  152.7940 N   0  0  0  0  0  0  0  0  0  0  0  0
  160.3870  209.9370  152.1200 C   0  0  0  0  0  3  0  0  0  0  0  0
  160.9850  210.5040  154.3990 C   0  0  0  0  0  0  0  0  0  0  0  0
  161.7420  209.7820  151.8220 C   0  0  0  0  0  0  0  0  0  0  0  0
  162.3310  210.3280  154.0580 C   0  0  0  0  0  3  0  0  0  0  0  0
  159.2680  211.0580  156.1010 O   0  0  0  0  0  0  0  0  0  0  0  0
  160.6060  210.8900  155.7670 C   0  0  0  0  0  0  0  0  0  0  0  0
  161.4890  211.0720  156.6470 O   0  0  0  0  0  1  0  0  0  0  0  0
  161.6900  207.4000  148.8880 C   0  0  0  0  0  0  0  0  0  0  0  0
  161.9280  207.9370  150.1930 N   0  0  0  0  0  2  0  0  0  0  0  0
  161.6250  208.1700  147.8910 O   0  0  0  0  0  0  0  0  0  0  0  0
  160.8300  203.7870  149.5640 C   0  0  0  0  0  3  0  0  0  0  0  0
  161.0590  201.8770  148.1620 F   0  0  0  0  0  0  0  0  0  0  0  0
  160.9870  205.1620  149.7410 C   0  0  0  0  0  3  0  0  0  0  0  0
  161.2060  203.2090  148.3500 C   0  0  0  0  0  0  0  0  0  0  0  0
  161.7200  203.9830  147.3570 N   0  0  0  0  0  0  0  0  0  0  0  0
  161.8820  205.3250  147.5110 C   0  0  0  0  0  3  0  0  0  0  0  0
  161.5170  205.9480  148.7120 C   0  0  0  0  0  0  0  0  0  0  0  0
  161.5810  210.1720  149.4250 O   0  0  0  0  0  0  0  0  0  0  0  0
  163.0180  211.6500  148.2370 C   0  0  0  0  0  2  0  0  0  0  0  0
  162.1650  211.4500  149.4670 C   0  0  1  0  0  3  0  0  0  0  0  0
  161.0810  212.5050  149.3760 C   0  0  0  0  0  2  0  0  0  0  0  0
  160.8030  214.4270  148.0770 C   0  0  0  0  0  1  0  0  0  0  0  0
  162.4090  212.8280  147.5110 C   0  0  0  0  0  2  0  0  0  0  0  0
  161.0540  212.9990  148.0090 N   0  0  0  0  0  0  0  0  0  0  0  0
  1 21  1  6  0  0  0
  1  6  1  0  0  0  0
  2  5  1  0  0  0  0
  3  7  1  0  0  0  0
  4  2  2  0  0  0  0
  5  9  1  0  0  0  0
  6  4  1  0  0  0  0
  6  3  2  0  0  0  0
  7  5  2  0  0  0  0
  9  8  2  0  0  0  0
  9 10  1  0  0  0  0
 11 12  1  0  0  0  0
 12  1  1  0  0  0  0
 13 11  2  0  0  0  0
 14 16  1  0  0  0  0
 15 17  1  0  0  0  0
 17 14  2  0  0  0  0
 18 19  2  0  0  0  0
 18 17  1  0  0  0  0
 19 20  1  0  0  0  0
 20 11  1  0  0  0  0
 20 16  2  0  0  0  0
 22 23  1  0  0  0  0
 23 21  1  6  0  0  0
 24 23  1  0  0  0  0
 26 27  1  0  0  0  0
 26 22  1  0  0  0  0
 27 25  1  0  0  0  0
 27 24  1  0  0  0  0
M  END
>  <MODEL>
9

>  <REMARK>
 VINA RESULT:      -5.7      3.597      7.877
  Name = 
  6 active torsions:
  status: ('A' for Active; 'I' for Inactive)
    1  A    between atoms: C_6  and  C_21
    2  A    between atoms: C_8  and  O_10
    3  A    between atoms: C_8  and  N_15
    4  A    between atoms: C_8  and  C_18
    5  A    between atoms: O_10  and  C_23
    6  A    between atoms: C_11  and  C_17
                            x       y       z     vdW  Elec       q    Type
                         _______ _______ _______ _____ _____    ______ ____

>  <TORSDO>
F 6

$$$$
