=
 OpenBabel11042423133D

 35 37  0  0  1  0  0  0  0  0999 V2000
  160.8860  209.4020  152.7310 O   0  0  0  0  0  1  0  0  0  0  0  0
  161.9880  209.4800  150.6100 C   0  0  0  0  0  0  0  0  0  0  0  0
  160.9650  212.0530  150.4110 N   0  0  0  0  0  0  0  0  0  0  0  0
  162.2450  208.0590  150.6210 N   0  0  0  0  0  0  0  0  0  0  0  0
  161.6310  210.2260  151.8820 C   0  0  1  0  0  3  0  0  0  0  0  0
  162.0790  210.1370  149.4880 N   0  0  0  0  0  0  0  0  0  0  0  0
  161.9360  211.5900  149.4230 C   0  0  0  0  0  2  0  0  0  0  0  0
  160.8270  211.4640  151.5620 C   0  0  0  0  0  0  0  0  0  0  0  0
  162.0290  207.2390  149.4310 C   0  0  2  0  0  3  0  0  0  0  0  0
  162.8140  207.7070  148.3750 O   0  0  0  0  0  1  0  0  0  0  0  0
  160.6800  207.2640  149.0720 O   0  0  0  0  0  0  0  0  0  0  0  0
  160.2760  205.9270  149.0960 C   0  0  0  0  0  2  0  0  0  0  0  0
  161.1020  205.1090  148.1150 C   0  0  0  0  0  2  0  0  0  0  0  0
  161.1360  201.2940  147.8710 C   0  0  0  0  0  0  0  0  0  0  0  0
  161.2080  202.6480  147.4880 C   0  0  0  0  0  0  0  0  0  0  0  0
  161.0740  203.6540  148.4680 C   0  0  0  0  0  0  0  0  0  0  0  0
  161.4280  203.0110  146.0540 C   0  0  0  0  0  1  0  0  0  0  0  0
  160.8750  203.2990  149.8070 C   0  0  0  0  0  3  0  0  0  0  0  0
  160.9380  200.9580  149.2140 C   0  0  0  0  0  3  0  0  0  0  0  0
  160.8070  201.9560  150.1800 C   0  0  0  0  0  3  0  0  0  0  0  0
  161.2870  199.9950  146.6980 Cl  0  0  0  0  0  0  0  0  0  0  0  0
  158.6560  211.6840  152.5510 C   0  0  0  0  0  3  0  0  0  0  0  0
  159.9160  211.9820  152.5400 N   0  0  0  0  0  0  0  0  0  0  0  0
  157.7170  212.2100  153.5600 C   0  0  0  0  0  0  0  0  0  0  0  0
  157.0710  214.2870  152.2150 C   0  0  0  0  0  1  0  0  0  0  0  0
  157.5690  211.4540  154.7290 C   0  0  0  0  0  3  0  0  0  0  0  0
  156.7120  211.8730  155.7480 C   0  0  0  0  0  3  0  0  0  0  0  0
  156.9780  213.4120  153.4200 C   0  0  0  0  0  0  0  0  0  0  0  0
  155.9910  213.0580  155.6080 C   0  0  0  0  0  0  0  0  0  0  0  0
  156.1240  213.8230  154.4480 C   0  0  0  0  0  3  0  0  0  0  0  0
  155.1410  213.4780  156.6220 O   0  0  0  0  0  1  0  0  0  0  0  0
  162.6710  207.3690  151.8320 C   0  0  0  0  0  2  0  0  0  0  0  0
  162.3440  205.8820  151.7490 C   0  0  0  0  0  2  0  0  0  0  0  0
  161.1650  205.5700  152.5390 N   0  0  0  0  0  2  0  0  0  0  0  0
  161.3210  206.2320  153.8220 C   0  0  0  0  0  1  0  0  0  0  0  0
  2  4  1  0  0  0  0
  2  5  1  0  0  0  0
  3  8  2  0  0  0  0
  4 32  1  0  0  0  0
  5  1  1  1  0  0  0
  6  2  2  0  0  0  0
  7  6  1  0  0  0  0
  7  3  1  0  0  0  0
  8  5  1  0  0  0  0
  8 23  1  0  0  0  0
  9 10  1  6  0  0  0
  9  4  1  0  0  0  0
 11 12  1  0  0  0  0
 11  9  1  0  0  0  0
 13 16  1  0  0  0  0
 13 12  1  0  0  0  0
 14 19  1  0  0  0  0
 15 14  2  0  0  0  0
 15 16  1  0  0  0  0
 16 18  2  0  0  0  0
 17 15  1  0  0  0  0
 18 20  1  0  0  0  0
 19 20  2  0  0  0  0
 21 14  1  0  0  0  0
 22 24  1  0  0  0  0
 23 22  2  0  0  0  0
 24 26  1  0  0  0  0
 25 28  1  0  0  0  0
 26 27  2  0  0  0  0
 28 24  2  0  0  0  0
 28 30  1  0  0  0  0
 29 27  1  0  0  0  0
 29 31  1  0  0  0  0
 30 29  2  0  0  0  0
 33 32  1  0  0  0  0
 33 34  1  0  0  0  0
 34 35  1  0  0  0  0
M  END
>  <MODEL>
1

>  <REMARK>
 VINA RESULT:      -7.4      0.000      0.000
  Name = 
  10 active torsions:
  status: ('A' for Active; 'I' for Inactive)
    1  A    between atoms: C_3  and  C_7
    2  A    between atoms: C_5  and  N_6
    3  A    between atoms: C_5  and  O_8
    4  A    between atoms: N_6  and  C_12
    5  A    between atoms: O_8  and  C_17
    6  A    between atoms: N_10  and  C_28
    7  A    between atoms: C_12  and  C_19
    8  A    between atoms: C_14  and  C_16
    9  A    between atoms: C_14  and  C_17
   10  A    between atoms: C_19  and  N_21
                            x       y       z     vdW  Elec       q    Type
                         _______ _______ _______ _____ _____    ______ ____

>  <TORSDO>
F 10

$$$$
=
 OpenBabel11042423133D

 35 37  0  0  1  0  0  0  0  0999 V2000
  159.7960  211.8560  144.9970 O   0  0  0  0  0  1  0  0  0  0  0  0
  161.6500  213.1120  145.8400 C   0  0  0  0  0  0  0  0  0  0  0  0
  162.6580  212.9550  143.2590 N   0  0  0  0  0  0  0  0  0  0  0  0
  161.2390  212.9160  147.2110 N   0  0  0  0  0  0  0  0  0  0  0  0
  160.6850  212.8910  144.6900 C   0  0  1  0  0  3  0  0  0  0  0  0
  162.8670  213.5000  145.5880 N   0  0  0  0  0  0  0  0  0  0  0  0
  163.3180  213.8180  144.2340 C   0  0  0  0  0  2  0  0  0  0  0  0
  161.4370  212.5400  143.4280 C   0  0  0  0  0  0  0  0  0  0  0  0
  162.2040  212.5630  148.2490 C   0  0  2  0  0  3  0  0  0  0  0  0
  163.3170  211.9390  147.6810 O   0  0  0  0  0  1  0  0  0  0  0  0
  161.6090  211.7160  149.1870 O   0  0  0  0  0  0  0  0  0  0  0  0
  162.1170  210.4470  148.9000 C   0  0  0  0  0  2  0  0  0  0  0  0
  161.9960  209.5430  150.1180 C   0  0  0  0  0  2  0  0  0  0  0  0
  161.0780  205.8350  150.2460 C   0  0  0  0  0  0  0  0  0  0  0  0
  161.3800  207.1420  150.6770 C   0  0  0  0  0  0  0  0  0  0  0  0
  161.6320  208.1460  149.7190 C   0  0  0  0  0  0  0  0  0  0  0  0
  161.4280  207.4580  152.1380 C   0  0  0  0  0  1  0  0  0  0  0  0
  161.5770  207.8380  148.3560 C   0  0  0  0  0  3  0  0  0  0  0  0
  161.0270  205.5450  148.8790 C   0  0  0  0  0  3  0  0  0  0  0  0
  161.2750  206.5410  147.9360 C   0  0  0  0  0  3  0  0  0  0  0  0
  160.7630  204.5370  151.3880 Cl  0  0  0  0  0  0  0  0  0  0  0  0
  161.1760  211.7400  141.1850 C   0  0  0  0  0  3  0  0  0  0  0  0
  160.7900  211.7510  142.4210 N   0  0  0  0  0  0  0  0  0  0  0  0
  160.5180  210.9240  140.1470 C   0  0  0  0  0  0  0  0  0  0  0  0
  158.3980  212.3500  140.0400 C   0  0  0  0  0  1  0  0  0  0  0  0
  161.2300  209.8110  139.6850 C   0  0  0  0  0  3  0  0  0  0  0  0
  160.6880  208.9690  138.7110 C   0  0  0  0  0  3  0  0  0  0  0  0
  159.2340  211.1910  139.6090 C   0  0  0  0  0  0  0  0  0  0  0  0
  159.4240  209.2350  138.1880 C   0  0  0  0  0  0  0  0  0  0  0  0
  158.7000  210.3410  138.6360 C   0  0  0  0  0  3  0  0  0  0  0  0
  158.8820  208.3970  137.2230 O   0  0  0  0  0  1  0  0  0  0  0  0
  159.8390  212.9990  147.6090 C   0  0  0  0  0  2  0  0  0  0  0  0
  159.4920  214.4110  148.0690 C   0  0  0  0  0  2  0  0  0  0  0  0
  158.9800  214.3980  149.4280 N   0  0  0  0  0  2  0  0  0  0  0  0
  157.8160  213.5290  149.4390 C   0  0  0  0  0  1  0  0  0  0  0  0
  2  4  1  0  0  0  0
  3  8  2  0  0  0  0
  3  7  1  0  0  0  0
  4 32  1  0  0  0  0
  4  9  1  0  0  0  0
  5  1  1  1  0  0  0
  5  2  1  0  0  0  0
  6  2  2  0  0  0  0
  7  6  1  0  0  0  0
  8  5  1  0  0  0  0
  9 10  1  6  0  0  0
  9 11  1  0  0  0  0
 12 11  1  0  0  0  0
 12 13  1  0  0  0  0
 14 15  1  0  0  0  0
 14 21  1  0  0  0  0
 15 17  1  0  0  0  0
 16 13  1  0  0  0  0
 16 15  2  0  0  0  0
 18 16  1  0  0  0  0
 19 14  2  0  0  0  0
 20 18  2  0  0  0  0
 20 19  1  0  0  0  0
 22 23  2  0  0  0  0
 23  8  1  0  0  0  0
 24 22  1  0  0  0  0
 26 24  1  0  0  0  0
 27 26  2  0  0  0  0
 28 25  1  0  0  0  0
 28 24  2  0  0  0  0
 29 30  2  0  0  0  0
 29 27  1  0  0  0  0
 30 28  1  0  0  0  0
 31 29  1  0  0  0  0
 32 33  1  0  0  0  0
 33 34  1  0  0  0  0
 34 35  1  0  0  0  0
M  END
>  <MODEL>
2

>  <REMARK>
 VINA RESULT:      -7.4      6.161      9.903
  Name = 
  10 active torsions:
  status: ('A' for Active; 'I' for Inactive)
    1  A    between atoms: C_3  and  C_7
    2  A    between atoms: C_5  and  N_6
    3  A    between atoms: C_5  and  O_8
    4  A    between atoms: N_6  and  C_12
    5  A    between atoms: O_8  and  C_17
    6  A    between atoms: N_10  and  C_28
    7  A    between atoms: C_12  and  C_19
    8  A    between atoms: C_14  and  C_16
    9  A    between atoms: C_14  and  C_17
   10  A    between atoms: C_19  and  N_21
                            x       y       z     vdW  Elec       q    Type
                         _______ _______ _______ _____ _____    ______ ____

>  <TORSDO>
F 10

$$$$
=
 OpenBabel11042423133D

 35 37  0  0  1  0  0  0  0  0999 V2000
  160.5090  208.3850  152.6770 O   0  0  0  0  0  1  0  0  0  0  0  0
  161.8680  209.0160  150.8130 C   0  0  0  0  0  0  0  0  0  0  0  0
  160.8460  211.5680  151.2020 N   0  0  0  0  0  0  0  0  0  0  0  0
  162.1390  207.6410  150.4650 N   0  0  0  0  0  0  0  0  0  0  0  0
  161.3440  209.3930  152.1860 C   0  0  1  0  0  3  0  0  0  0  0  0
  162.0910  209.9530  149.9350 N   0  0  0  0  0  0  0  0  0  0  0  0
  161.9380  211.3710  150.2540 C   0  0  0  0  0  2  0  0  0  0  0  0
  160.5720  210.6890  152.1210 C   0  0  0  0  0  0  0  0  0  0  0  0
  162.0850  207.1830  149.0790 C   0  0  2  0  0  3  0  0  0  0  0  0
  162.6360  208.1470  148.2320 O   0  0  0  0  0  1  0  0  0  0  0  0
  160.7620  206.9260  148.7120 O   0  0  0  0  0  0  0  0  0  0  0  0
  160.8460  206.3440  147.4450 C   0  0  0  0  0  2  0  0  0  0  0  0
  162.0140  205.3700  147.3890 C   0  0  0  0  0  2  0  0  0  0  0  0
  160.6650  201.9590  146.3140 C   0  0  0  0  0  0  0  0  0  0  0  0
  161.1440  203.2810  146.2320 C   0  0  0  0  0  0  0  0  0  0  0  0
  161.5350  203.9510  147.4100 C   0  0  0  0  0  0  0  0  0  0  0  0
  161.2380  203.9640  144.9050 C   0  0  0  0  0  1  0  0  0  0  0  0
  161.4480  203.2980  148.6440 C   0  0  0  0  0  3  0  0  0  0  0  0
  160.5860  201.3210  147.5560 C   0  0  0  0  0  3  0  0  0  0  0  0
  160.9750  201.9860  148.7180 C   0  0  0  0  0  3  0  0  0  0  0  0
  160.1540  201.0730  144.8860 Cl  0  0  0  0  0  0  0  0  0  0  0  0
  159.3670  212.0960  153.6400 C   0  0  0  0  0  3  0  0  0  0  0  0
  159.5390  210.9400  153.0830 N   0  0  0  0  0  0  0  0  0  0  0  0
  158.3000  212.3610  154.6250 C   0  0  0  0  0  0  0  0  0  0  0  0
  159.7850  213.6950  156.2230 C   0  0  0  0  0  1  0  0  0  0  0  0
  157.0380  211.8320  154.3330 C   0  0  0  0  0  3  0  0  0  0  0  0
  155.9650  212.0170  155.2080 C   0  0  0  0  0  3  0  0  0  0  0  0
  158.4780  213.0960  155.8240 C   0  0  0  0  0  0  0  0  0  0  0  0
  156.1460  212.7380  156.3870 C   0  0  0  0  0  0  0  0  0  0  0  0
  157.3980  213.2740  156.6930 C   0  0  0  0  0  3  0  0  0  0  0  0
  155.0820  212.9200  157.2600 O   0  0  0  0  0  1  0  0  0  0  0  0
  162.4190  206.6360  151.4840 C   0  0  0  0  0  2  0  0  0  0  0  0
  161.5270  205.4140  151.2940 C   0  0  0  0  0  2  0  0  0  0  0  0
  161.1430  204.8530  152.5780 N   0  0  0  0  0  2  0  0  0  0  0  0
  161.0090  203.4180  152.3950 C   0  0  0  0  0  1  0  0  0  0  0  0
  2  5  1  0  0  0  0
  3  8  2  0  0  0  0
  4  2  1  0  0  0  0
  4 32  1  0  0  0  0
  5  1  1  6  0  0  0
  6  7  1  0  0  0  0
  6  2  2  0  0  0  0
  7  3  1  0  0  0  0
  8  5  1  0  0  0  0
  8 23  1  0  0  0  0
  9 10  1  6  0  0  0
  9  4  1  0  0  0  0
 11  9  1  0  0  0  0
 12 11  1  0  0  0  0
 13 16  1  0  0  0  0
 13 12  1  0  0  0  0
 14 19  1  0  0  0  0
 15 14  2  0  0  0  0
 15 16  1  0  0  0  0
 16 18  2  0  0  0  0
 17 15  1  0  0  0  0
 18 20  1  0  0  0  0
 19 20  2  0  0  0  0
 21 14  1  0  0  0  0
 22 24  1  0  0  0  0
 23 22  2  0  0  0  0
 24 28  1  0  0  0  0
 26 24  2  0  0  0  0
 26 27  1  0  0  0  0
 27 29  2  0  0  0  0
 28 25  1  0  0  0  0
 28 30  2  0  0  0  0
 29 30  1  0  0  0  0
 29 31  1  0  0  0  0
 33 32  1  0  0  0  0
 33 34  1  0  0  0  0
 35 34  1  0  0  0  0
M  END
>  <MODEL>
3

>  <REMARK>
 VINA RESULT:      -7.2      1.302      1.613
  Name = 
  10 active torsions:
  status: ('A' for Active; 'I' for Inactive)
    1  A    between atoms: C_3  and  C_7
    2  A    between atoms: C_5  and  N_6
    3  A    between atoms: C_5  and  O_8
    4  A    between atoms: N_6  and  C_12
    5  A    between atoms: O_8  and  C_17
    6  A    between atoms: N_10  and  C_28
    7  A    between atoms: C_12  and  C_19
    8  A    between atoms: C_14  and  C_16
    9  A    between atoms: C_14  and  C_17
   10  A    between atoms: C_19  and  N_21
                            x       y       z     vdW  Elec       q    Type
                         _______ _______ _______ _____ _____    ______ ____

>  <TORSDO>
F 10

$$$$
=
 OpenBabel11042423133D

 35 37  0  0  1  0  0  0  0  0999 V2000
  160.5830  207.2450  153.5640 O   0  0  0  0  0  1  0  0  0  0  0  0
  161.1360  209.5620  153.3510 C   0  0  0  0  0  0  0  0  0  0  0  0
  162.3240  208.8400  150.9480 N   0  0  0  0  0  0  0  0  0  0  0  0
  160.7760  209.8390  154.7220 N   0  0  0  0  0  0  0  0  0  0  0  0
  160.6650  208.3000  152.6510 C   0  0  1  0  0  3  0  0  0  0  0  0
  161.8670  210.4200  152.6970 N   0  0  0  0  0  0  0  0  0  0  0  0
  162.1800  210.2540  151.2790 C   0  0  0  0  0  2  0  0  0  0  0  0
  161.6160  207.9240  151.5410 C   0  0  0  0  0  0  0  0  0  0  0  0
  161.6180  210.6750  155.5740 C   0  0  2  0  0  3  0  0  0  0  0  0
  162.6460  209.9120  156.1310 O   0  0  0  0  0  1  0  0  0  0  0  0
  160.8490  211.2520  156.5870 O   0  0  0  0  0  0  0  0  0  0  0  0
  160.4330  212.4800  156.0680 C   0  0  0  0  0  2  0  0  0  0  0  0
  158.9140  212.5770  156.0980 C   0  0  0  0  0  2  0  0  0  0  0  0
  156.5680  213.7520  153.3180 C   0  0  0  0  0  0  0  0  0  0  0  0
  157.0320  213.4010  154.6010 C   0  0  0  0  0  0  0  0  0  0  0  0
  158.3750  212.9990  154.7650 C   0  0  0  0  0  0  0  0  0  0  0  0
  156.1090  213.4610  155.7750 C   0  0  0  0  0  1  0  0  0  0  0  0
  159.2290  212.9550  153.6580 C   0  0  0  0  0  3  0  0  0  0  0  0
  157.4360  213.7030  152.2230 C   0  0  0  0  0  3  0  0  0  0  0  0
  158.7630  213.3060  152.3910 C   0  0  0  0  0  3  0  0  0  0  0  0
  154.9060  214.2530  153.0440 Cl  0  0  0  0  0  0  0  0  0  0  0  0
  160.8200  205.9470  150.4470 C   0  0  0  0  0  3  0  0  0  0  0  0
  161.7270  206.5500  151.1460 N   0  0  0  0  0  0  0  0  0  0  0  0
  160.9340  204.5350  150.0330 C   0  0  0  0  0  0  0  0  0  0  0  0
  160.6620  203.5790  152.3890 C   0  0  0  0  0  1  0  0  0  0  0  0
  161.1310  204.2990  148.6670 C   0  0  0  0  0  3  0  0  0  0  0  0
  161.2620  202.9990  148.1770 C   0  0  0  0  0  3  0  0  0  0  0  0
  160.8650  203.4300  150.9190 C   0  0  0  0  0  0  0  0  0  0  0  0
  161.1960  201.9160  149.0530 C   0  0  0  0  0  0  0  0  0  0  0  0
  160.9990  202.1320  150.4170 C   0  0  0  0  0  3  0  0  0  0  0  0
  161.3300  200.6220  148.5680 O   0  0  0  0  0  1  0  0  0  0  0  0
  159.5930  209.2470  155.3360 C   0  0  0  0  0  2  0  0  0  0  0  0
  159.9410  208.6170  156.6790 C   0  0  0  0  0  2  0  0  0  0  0  0
  159.8220  207.1710  156.6160 N   0  0  0  0  0  2  0  0  0  0  0  0
  160.9990  206.6150  157.2610 C   0  0  0  0  0  1  0  0  0  0  0  0
  2  4  1  0  0  0  0
  3  7  1  0  0  0  0
  3  8  2  0  0  0  0
  4 32  1  0  0  0  0
  4  9  1  0  0  0  0
  5  2  1  0  0  0  0
  5  1  1  1  0  0  0
  6  2  2  0  0  0  0
  7  6  1  0  0  0  0
  8  5  1  0  0  0  0
  9 10  1  1  0  0  0
  9 11  1  0  0  0  0
 12 13  1  0  0  0  0
 12 11  1  0  0  0  0
 14 15  1  0  0  0  0
 15 16  2  0  0  0  0
 15 17  1  0  0  0  0
 16 13  1  0  0  0  0
 18 16  1  0  0  0  0
 19 20  1  0  0  0  0
 19 14  2  0  0  0  0
 20 18  2  0  0  0  0
 21 14  1  0  0  0  0
 22 23  2  0  0  0  0
 23  8  1  0  0  0  0
 24 22  1  0  0  0  0
 24 28  1  0  0  0  0
 26 24  2  0  0  0  0
 27 26  1  0  0  0  0
 27 29  2  0  0  0  0
 28 25  1  0  0  0  0
 29 30  1  0  0  0  0
 30 28  2  0  0  0  0
 31 29  1  0  0  0  0
 32 33  1  0  0  0  0
 34 33  1  0  0  0  0
 34 35  1  0  0  0  0
M  END
>  <MODEL>
4

>  <REMARK>
 VINA RESULT:      -7.2      3.816      9.794
  Name = 
  10 active torsions:
  status: ('A' for Active; 'I' for Inactive)
    1  A    between atoms: C_3  and  C_7
    2  A    between atoms: C_5  and  N_6
    3  A    between atoms: C_5  and  O_8
    4  A    between atoms: N_6  and  C_12
    5  A    between atoms: O_8  and  C_17
    6  A    between atoms: N_10  and  C_28
    7  A    between atoms: C_12  and  C_19
    8  A    between atoms: C_14  and  C_16
    9  A    between atoms: C_14  and  C_17
   10  A    between atoms: C_19  and  N_21
                            x       y       z     vdW  Elec       q    Type
                         _______ _______ _______ _____ _____    ______ ____

>  <TORSDO>
F 10

$$$$
=
 OpenBabel11042423133D

 35 37  0  0  1  0  0  0  0  0999 V2000
  161.8050  209.2680  148.4210 O   0  0  0  0  0  1  0  0  0  0  0  0
  161.7730  210.7400  150.3060 C   0  0  0  0  0  0  0  0  0  0  0  0
  161.7890  208.4280  151.8430 N   0  0  0  0  0  0  0  0  0  0  0  0
  161.4700  211.8870  149.4840 N   0  0  0  0  0  0  0  0  0  0  0  0
  162.3290  209.4630  149.7020 C   0  0  1  0  0  3  0  0  0  0  0  0
  161.5810  210.8070  151.5930 N   0  0  0  0  0  0  0  0  0  0  0  0
  161.9650  209.7220  152.4950 C   0  0  0  0  0  2  0  0  0  0  0  0
  161.9810  208.2740  150.5660 C   0  0  0  0  0  0  0  0  0  0  0  0
  160.4580  212.8620  149.8850 C   0  0  2  0  0  3  0  0  0  0  0  0
  160.9850  214.1540  149.8290 O   0  0  0  0  0  1  0  0  0  0  0  0
  160.0120  212.5840  151.1790 O   0  0  0  0  0  0  0  0  0  0  0  0
  158.8100  213.2840  151.3030 C   0  0  0  0  0  2  0  0  0  0  0  0
  158.7120  213.9210  152.6820 C   0  0  0  0  0  2  0  0  0  0  0  0
  157.1320  211.6410  155.3130 C   0  0  0  0  0  0  0  0  0  0  0  0
  157.2490  212.6020  154.2890 C   0  0  0  0  0  0  0  0  0  0  0  0
  158.5200  212.8820  153.7440 C   0  0  0  0  0  0  0  0  0  0  0  0
  156.0340  213.3140  153.7850 C   0  0  0  0  0  1  0  0  0  0  0  0
  159.6470  212.2040  154.2210 C   0  0  0  0  0  3  0  0  0  0  0  0
  158.2690  210.9720  155.7760 C   0  0  0  0  0  3  0  0  0  0  0  0
  159.5230  211.2510  155.2330 C   0  0  0  0  0  3  0  0  0  0  0  0
  155.5800  211.2530  156.0390 Cl  0  0  0  0  0  0  0  0  0  0  0  0
  161.2770  205.9840  150.5470 C   0  0  0  0  0  3  0  0  0  0  0  0
  161.8700  206.9770  149.9650 N   0  0  0  0  0  0  0  0  0  0  0  0
  161.1550  204.6500  149.9290 C   0  0  0  0  0  0  0  0  0  0  0  0
  160.7810  203.4060  152.1310 C   0  0  0  0  0  1  0  0  0  0  0  0
  161.2830  204.5940  148.5360 C   0  0  0  0  0  3  0  0  0  0  0  0
  161.1930  203.3780  147.8570 C   0  0  0  0  0  3  0  0  0  0  0  0
  160.9270  203.4490  150.6470 C   0  0  0  0  0  0  0  0  0  0  0  0
  160.9730  202.1990  148.5690 C   0  0  0  0  0  0  0  0  0  0  0  0
  160.8410  202.2360  149.9580 C   0  0  0  0  0  3  0  0  0  0  0  0
  160.8870  200.9880  147.8960 O   0  0  0  0  0  1  0  0  0  0  0  0
  162.1120  212.0930  148.1910 C   0  0  0  0  0  2  0  0  0  0  0  0
  161.0700  212.3230  147.1020 C   0  0  0  0  0  2  0  0  0  0  0  0
  161.3130  213.5790  146.4140 N   0  0  0  0  0  2  0  0  0  0  0  0
  162.3340  213.3280  145.4130 C   0  0  0  0  0  1  0  0  0  0  0  0
  2  6  2  0  0  0  0
  3  7  1  0  0  0  0
  4  9  1  0  0  0  0
  4  2  1  0  0  0  0
  5  1  1  6  0  0  0
  5  2  1  0  0  0  0
  5  8  1  0  0  0  0
  6  7  1  0  0  0  0
  8  3  2  0  0  0  0
  9 10  1  1  0  0  0
  9 11  1  0  0  0  0
 11 12  1  0  0  0  0
 12 13  1  0  0  0  0
 13 16  1  0  0  0  0
 14 19  1  0  0  0  0
 14 21  1  0  0  0  0
 15 14  2  0  0  0  0
 16 18  2  0  0  0  0
 16 15  1  0  0  0  0
 17 15  1  0  0  0  0
 18 20  1  0  0  0  0
 20 19  2  0  0  0  0
 23 22  2  0  0  0  0
 23  8  1  0  0  0  0
 24 22  1  0  0  0  0
 24 28  1  0  0  0  0
 26 24  2  0  0  0  0
 27 26  1  0  0  0  0
 27 29  2  0  0  0  0
 28 25  1  0  0  0  0
 29 30  1  0  0  0  0
 30 28  2  0  0  0  0
 31 29  1  0  0  0  0
 32  4  1  0  0  0  0
 33 32  1  0  0  0  0
 34 33  1  0  0  0  0
 35 34  1  0  0  0  0
M  END
>  <MODEL>
5

>  <REMARK>
 VINA RESULT:      -7.1      3.511      9.655
  Name = 
  10 active torsions:
  status: ('A' for Active; 'I' for Inactive)
    1  A    between atoms: C_3  and  C_7
    2  A    between atoms: C_5  and  N_6
    3  A    between atoms: C_5  and  O_8
    4  A    between atoms: N_6  and  C_12
    5  A    between atoms: O_8  and  C_17
    6  A    between atoms: N_10  and  C_28
    7  A    between atoms: C_12  and  C_19
    8  A    between atoms: C_14  and  C_16
    9  A    between atoms: C_14  and  C_17
   10  A    between atoms: C_19  and  N_21
                            x       y       z     vdW  Elec       q    Type
                         _______ _______ _______ _____ _____    ______ ____

>  <TORSDO>
F 10

$$$$
=
 OpenBabel11042423133D

 35 37  0  0  1  0  0  0  0  0999 V2000
  161.9360  209.2750  148.5280 O   0  0  0  0  0  1  0  0  0  0  0  0
  161.6720  210.8010  150.3510 C   0  0  0  0  0  0  0  0  0  0  0  0
  161.3000  208.5380  151.9150 N   0  0  0  0  0  0  0  0  0  0  0  0
  161.5750  211.9380  149.4660 N   0  0  0  0  0  0  0  0  0  0  0  0
  162.2480  209.4800  149.8760 C   0  0  1  0  0  3  0  0  0  0  0  0
  161.2710  210.9170  151.5850 N   0  0  0  0  0  0  0  0  0  0  0  0
  161.4370  209.8410  152.5610 C   0  0  0  0  0  2  0  0  0  0  0  0
  161.6950  208.3370  150.6920 C   0  0  0  0  0  0  0  0  0  0  0  0
  160.5670  212.9760  149.6700 C   0  0  2  0  0  3  0  0  0  0  0  0
  161.1630  214.2380  149.6420 O   0  0  0  0  0  1  0  0  0  0  0  0
  159.9210  212.7800  150.8930 O   0  0  0  0  0  0  0  0  0  0  0  0
  158.7720  213.5720  150.8240 C   0  0  0  0  0  2  0  0  0  0  0  0
  158.6520  214.4350  152.0720 C   0  0  0  0  0  2  0  0  0  0  0  0
  156.9100  212.5360  154.8960 C   0  0  0  0  0  0  0  0  0  0  0  0
  157.9370  213.0440  154.0750 C   0  0  0  0  0  0  0  0  0  0  0  0
  157.6070  213.8970  153.0010 C   0  0  0  0  0  0  0  0  0  0  0  0
  159.3620  212.6830  154.3480 C   0  0  0  0  0  1  0  0  0  0  0  0
  156.2700  214.2310  152.7620 C   0  0  0  0  0  3  0  0  0  0  0  0
  155.5790  212.8820  154.6430 C   0  0  0  0  0  3  0  0  0  0  0  0
  155.2580  213.7270  153.5800 C   0  0  0  0  0  3  0  0  0  0  0  0
  157.2530  211.4630  156.2440 Cl  0  0  0  0  0  0  0  0  0  0  0  0
  161.1980  205.9940  150.7640 C   0  0  0  0  0  3  0  0  0  0  0  0
  161.6120  207.0310  150.1080 N   0  0  0  0  0  0  0  0  0  0  0  0
  161.1060  204.6490  150.1640 C   0  0  0  0  0  0  0  0  0  0  0  0
  160.7980  203.4230  152.3860 C   0  0  0  0  0  1  0  0  0  0  0  0
  161.2170  204.5800  148.7700 C   0  0  0  0  0  3  0  0  0  0  0  0
  161.1530  203.3530  148.1070 C   0  0  0  0  0  3  0  0  0  0  0  0
  160.9230  203.4520  150.9000 C   0  0  0  0  0  0  0  0  0  0  0  0
  160.9760  202.1770  148.8360 C   0  0  0  0  0  0  0  0  0  0  0  0
  160.8630  202.2280  150.2260 C   0  0  0  0  0  3  0  0  0  0  0  0
  160.9170  200.9560  148.1800 O   0  0  0  0  0  1  0  0  0  0  0  0
  162.4350  212.0720  148.2960 C   0  0  0  0  0  2  0  0  0  0  0  0
  161.6120  212.4080  147.0580 C   0  0  0  0  0  2  0  0  0  0  0  0
  162.3640  213.2620  146.1550 N   0  0  0  0  0  2  0  0  0  0  0  0
  161.6270  213.3200  144.9060 C   0  0  0  0  0  1  0  0  0  0  0  0
  2  6  2  0  0  0  0
  3  7  1  0  0  0  0
  4  9  1  0  0  0  0
  4  2  1  0  0  0  0
  5  1  1  6  0  0  0
  5  2  1  0  0  0  0
  5  8  1  0  0  0  0
  6  7  1  0  0  0  0
  8  3  2  0  0  0  0
  9 10  1  1  0  0  0
  9 11  1  0  0  0  0
 12 11  1  0  0  0  0
 12 13  1  0  0  0  0
 13 16  1  0  0  0  0
 14 21  1  0  0  0  0
 15 17  1  0  0  0  0
 15 14  2  0  0  0  0
 16 15  1  0  0  0  0
 18 16  2  0  0  0  0
 18 20  1  0  0  0  0
 19 14  1  0  0  0  0
 20 19  2  0  0  0  0
 23  8  1  0  0  0  0
 23 22  2  0  0  0  0
 24 22  1  0  0  0  0
 24 28  1  0  0  0  0
 26 24  2  0  0  0  0
 27 26  1  0  0  0  0
 27 29  2  0  0  0  0
 28 25  1  0  0  0  0
 29 30  1  0  0  0  0
 30 28  2  0  0  0  0
 31 29  1  0  0  0  0
 32  4  1  0  0  0  0
 33 32  1  0  0  0  0
 34 33  1  0  0  0  0
 35 34  1  0  0  0  0
M  END
>  <MODEL>
6

>  <REMARK>
 VINA RESULT:      -7.1      3.520      9.881
  Name = 
  10 active torsions:
  status: ('A' for Active; 'I' for Inactive)
    1  A    between atoms: C_3  and  C_7
    2  A    between atoms: C_5  and  N_6
    3  A    between atoms: C_5  and  O_8
    4  A    between atoms: N_6  and  C_12
    5  A    between atoms: O_8  and  C_17
    6  A    between atoms: N_10  and  C_28
    7  A    between atoms: C_12  and  C_19
    8  A    between atoms: C_14  and  C_16
    9  A    between atoms: C_14  and  C_17
   10  A    between atoms: C_19  and  N_21
                            x       y       z     vdW  Elec       q    Type
                         _______ _______ _______ _____ _____    ______ ____

>  <TORSDO>
F 10

$$$$
=
 OpenBabel11042423133D

 35 37  0  0  1  0  0  0  0  0999 V2000
  161.7820  207.6800  151.2970 O   0  0  0  0  0  1  0  0  0  0  0  0
  161.1950  208.6500  153.4030 C   0  0  0  0  0  0  0  0  0  0  0  0
  160.8240  206.0360  154.2630 N   0  0  0  0  0  0  0  0  0  0  0  0
  161.1120  209.9770  152.8400 N   0  0  0  0  0  0  0  0  0  0  0  0
  161.9220  207.5300  152.6800 C   0  0  1  0  0  3  0  0  0  0  0  0
  160.6490  208.4130  154.5620 N   0  0  0  0  0  0  0  0  0  0  0  0
  160.7850  207.1230  155.2370 C   0  0  0  0  0  2  0  0  0  0  0  0
  161.3690  206.1870  153.0920 C   0  0  0  0  0  0  0  0  0  0  0  0
  160.0110  210.8760  153.1740 C   0  0  2  0  0  3  0  0  0  0  0  0
  158.8820  210.5560  152.4160 O   0  0  0  0  0  1  0  0  0  0  0  0
  160.3850  212.2000  152.9370 O   0  0  0  0  0  0  0  0  0  0  0  0
  159.2100  212.8410  152.5390 C   0  0  0  0  0  2  0  0  0  0  0  0
  159.5250  213.9480  151.5440 C   0  0  0  0  0  2  0  0  0  0  0  0
  158.8890  213.5040  147.8000 C   0  0  0  0  0  0  0  0  0  0  0  0
  159.5750  213.7100  149.0130 C   0  0  0  0  0  0  0  0  0  0  0  0
  158.8560  213.6970  150.2270 C   0  0  0  0  0  0  0  0  0  0  0  0
  161.0540  213.9360  149.0100 C   0  0  0  0  0  1  0  0  0  0  0  0
  157.4740  213.4780  150.2150 C   0  0  0  0  0  3  0  0  0  0  0  0
  157.5080  213.2860  147.8080 C   0  0  0  0  0  3  0  0  0  0  0  0
  156.8010  213.2720  149.0100 C   0  0  0  0  0  3  0  0  0  0  0  0
  159.7250  213.5180  146.2550 Cl  0  0  0  0  0  0  0  0  0  0  0  0
  160.8500  205.0700  151.0370 C   0  0  0  0  0  3  0  0  0  0  0  0
  161.4550  205.0830  152.1820 N   0  0  0  0  0  0  0  0  0  0  0  0
  160.9410  203.9370  150.0960 C   0  0  0  0  0  0  0  0  0  0  0  0
  161.2950  205.3890  148.0200 C   0  0  0  0  0  1  0  0  0  0  0  0
  160.8070  202.6570  150.6460 C   0  0  0  0  0  3  0  0  0  0  0  0
  160.8680  201.5210  149.8360 C   0  0  0  0  0  3  0  0  0  0  0  0
  161.1450  204.0690  148.6990 C   0  0  0  0  0  0  0  0  0  0  0  0
  161.0650  201.6550  148.4630 C   0  0  0  0  0  0  0  0  0  0  0  0
  161.2020  202.9240  147.8970 C   0  0  0  0  0  3  0  0  0  0  0  0
  161.1220  200.5270  147.6560 O   0  0  0  0  0  1  0  0  0  0  0  0
  162.0870  210.4570  151.8670 C   0  0  0  0  0  2  0  0  0  0  0  0
  161.4270  210.6870  150.5120 C   0  0  0  0  0  2  0  0  0  0  0  0
  162.3960  210.5460  149.4380 N   0  0  0  0  0  2  0  0  0  0  0  0
  161.9560  209.4400  148.6070 C   0  0  0  0  0  1  0  0  0  0  0  0
  2  6  2  0  0  0  0
  3  7  1  0  0  0  0
  4  9  1  0  0  0  0
  4  2  1  0  0  0  0
  5  1  1  6  0  0  0
  5  8  1  0  0  0  0
  5  2  1  0  0  0  0
  6  7  1  0  0  0  0
  8  3  2  0  0  0  0
  9 10  1  6  0  0  0
 11  9  1  0  0  0  0
 12 11  1  0  0  0  0
 13 12  1  0  0  0  0
 14 19  2  0  0  0  0
 14 15  1  0  0  0  0
 15 16  2  0  0  0  0
 16 13  1  0  0  0  0
 17 15  1  0  0  0  0
 18 16  1  0  0  0  0
 19 20  1  0  0  0  0
 20 18  2  0  0  0  0
 21 14  1  0  0  0  0
 22 23  2  0  0  0  0
 23  8  1  0  0  0  0
 24 26  1  0  0  0  0
 24 22  1  0  0  0  0
 25 28  1  0  0  0  0
 27 26  2  0  0  0  0
 28 24  2  0  0  0  0
 29 27  1  0  0  0  0
 30 29  2  0  0  0  0
 30 28  1  0  0  0  0
 31 29  1  0  0  0  0
 32  4  1  0  0  0  0
 33 32  1  0  0  0  0
 34 33  1  0  0  0  0
 35 34  1  0  0  0  0
M  END
>  <MODEL>
7

>  <REMARK>
 VINA RESULT:      -7.1      3.313      9.380
  Name = 
  10 active torsions:
  status: ('A' for Active; 'I' for Inactive)
    1  A    between atoms: C_3  and  C_7
    2  A    between atoms: C_5  and  N_6
    3  A    between atoms: C_5  and  O_8
    4  A    between atoms: N_6  and  C_12
    5  A    between atoms: O_8  and  C_17
    6  A    between atoms: N_10  and  C_28
    7  A    between atoms: C_12  and  C_19
    8  A    between atoms: C_14  and  C_16
    9  A    between atoms: C_14  and  C_17
   10  A    between atoms: C_19  and  N_21
                            x       y       z     vdW  Elec       q    Type
                         _______ _______ _______ _____ _____    ______ ____

>  <TORSDO>
F 10

$$$$
=
 OpenBabel11042423133D

 35 37  0  0  1  0  0  0  0  0999 V2000
  160.8120  207.2030  153.7650 O   0  0  0  0  0  1  0  0  0  0  0  0
  161.1710  209.5520  153.5000 C   0  0  0  0  0  0  0  0  0  0  0  0
  161.9840  208.9220  150.9210 N   0  0  0  0  0  0  0  0  0  0  0  0
  161.0280  209.7980  154.9150 N   0  0  0  0  0  0  0  0  0  0  0  0
  160.6710  208.2660  152.8680 C   0  0  1  0  0  3  0  0  0  0  0  0
  161.7260  210.4600  152.7470 N   0  0  0  0  0  0  0  0  0  0  0  0
  161.8070  210.3220  151.2940 C   0  0  0  0  0  2  0  0  0  0  0  0
  161.4450  207.9580  151.6090 C   0  0  0  0  0  0  0  0  0  0  0  0
  161.9440  210.6840  155.6290 C   0  0  2  0  0  3  0  0  0  0  0  0
  162.9660  209.9400  156.2240 O   0  0  0  0  0  1  0  0  0  0  0  0
  161.2500  211.4070  156.6010 O   0  0  0  0  0  0  0  0  0  0  0  0
  160.5140  212.3550  155.8880 C   0  0  0  0  0  2  0  0  0  0  0  0
  159.2850  212.7730  156.6820 C   0  0  0  0  0  2  0  0  0  0  0  0
  156.4310  213.0460  154.1520 C   0  0  0  0  0  0  0  0  0  0  0  0
  157.6420  213.3170  154.8200 C   0  0  0  0  0  0  0  0  0  0  0  0
  158.0280  212.5090  155.9100 C   0  0  0  0  0  0  0  0  0  0  0  0
  158.5090  214.4500  154.3700 C   0  0  0  0  0  1  0  0  0  0  0  0
  157.2100  211.4490  156.3150 C   0  0  0  0  0  3  0  0  0  0  0  0
  155.6270  211.9820  154.5700 C   0  0  0  0  0  3  0  0  0  0  0  0
  156.0130  211.1840  155.6470 C   0  0  0  0  0  3  0  0  0  0  0  0
  155.8890  214.0200  152.7940 Cl  0  0  0  0  0  0  0  0  0  0  0  0
  160.7690  206.0490  150.3300 C   0  0  0  0  0  3  0  0  0  0  0  0
  161.5770  206.5970  151.1800 N   0  0  0  0  0  0  0  0  0  0  0  0
  160.9060  204.6500  149.8810 C   0  0  0  0  0  0  0  0  0  0  0  0
  161.3940  205.2360  147.4400 C   0  0  0  0  0  1  0  0  0  0  0  0
  160.7280  203.6620  150.8560 C   0  0  0  0  0  3  0  0  0  0  0  0
  160.8260  202.3080  150.5300 C   0  0  0  0  0  3  0  0  0  0  0  0
  161.1930  204.2580  148.5490 C   0  0  0  0  0  0  0  0  0  0  0  0
  161.1050  201.9280  149.2180 C   0  0  0  0  0  0  0  0  0  0  0  0
  161.2870  202.9000  148.2320 C   0  0  0  0  0  3  0  0  0  0  0  0
  161.1990  200.5820  148.8900 O   0  0  0  0  0  1  0  0  0  0  0  0
  160.0040  209.1270  155.7080 C   0  0  0  0  0  2  0  0  0  0  0  0
  160.5600  208.7130  157.0660 C   0  0  0  0  0  2  0  0  0  0  0  0
  160.4290  207.2790  157.2600 N   0  0  0  0  0  2  0  0  0  0  0  0
  159.3130  206.8360  156.4440 C   0  0  0  0  0  1  0  0  0  0  0  0
  2  4  1  0  0  0  0
  3  7  1  0  0  0  0
  3  8  2  0  0  0  0
  4  9  1  0  0  0  0
  4 32  1  0  0  0  0
  5  2  1  0  0  0  0
  5  1  1  1  0  0  0
  6  2  2  0  0  0  0
  7  6  1  0  0  0  0
  8  5  1  0  0  0  0
  9 10  1  1  0  0  0
  9 11  1  0  0  0  0
 12 11  1  0  0  0  0
 12 13  1  0  0  0  0
 14 19  2  0  0  0  0
 14 15  1  0  0  0  0
 15 16  2  0  0  0  0
 16 18  1  0  0  0  0
 16 13  1  0  0  0  0
 17 15  1  0  0  0  0
 19 20  1  0  0  0  0
 20 18  2  0  0  0  0
 21 14  1  0  0  0  0
 22 23  2  0  0  0  0
 23  8  1  0  0  0  0
 24 22  1  0  0  0  0
 24 26  1  0  0  0  0
 25 28  1  0  0  0  0
 27 26  2  0  0  0  0
 28 24  2  0  0  0  0
 29 27  1  0  0  0  0
 30 28  1  0  0  0  0
 30 29  2  0  0  0  0
 31 29  1  0  0  0  0
 32 33  1  0  0  0  0
 33 34  1  0  0  0  0
 35 34  1  0  0  0  0
M  END
>  <MODEL>
8

>  <REMARK>
 VINA RESULT:      -6.9      3.792      9.704
  Name = 
  10 active torsions:
  status: ('A' for Active; 'I' for Inactive)
    1  A    between atoms: C_3  and  C_7
    2  A    between atoms: C_5  and  N_6
    3  A    between atoms: C_5  and  O_8
    4  A    between atoms: N_6  and  C_12
    5  A    between atoms: O_8  and  C_17
    6  A    between atoms: N_10  and  C_28
    7  A    between atoms: C_12  and  C_19
    8  A    between atoms: C_14  and  C_16
    9  A    between atoms: C_14  and  C_17
   10  A    between atoms: C_19  and  N_21
                            x       y       z     vdW  Elec       q    Type
                         _______ _______ _______ _____ _____    ______ ____

>  <TORSDO>
F 10

$$$$
=
 OpenBabel11042423133D

 35 37  0  0  1  0  0  0  0  0999 V2000
  159.1320  212.7630  145.0600 O   0  0  0  0  0  1  0  0  0  0  0  0
  161.3380  213.0940  145.9230 C   0  0  0  0  0  0  0  0  0  0  0  0
  162.1800  212.8140  143.2920 N   0  0  0  0  0  0  0  0  0  0  0  0
  160.8950  212.9390  147.2880 N   0  0  0  0  0  0  0  0  0  0  0  0
  160.3550  213.3890  144.8040 C   0  0  1  0  0  3  0  0  0  0  0  0
  162.6080  212.9950  145.6480 N   0  0  0  0  0  0  0  0  0  0  0  0
  163.1360  213.2450  144.3080 C   0  0  0  0  0  2  0  0  0  0  0  0
  160.8960  212.9000  143.4820 C   0  0  0  0  0  0  0  0  0  0  0  0
  161.6490  212.1310  148.2440 C   0  0  2  0  0  3  0  0  0  0  0  0
  162.9750  212.5650  148.2990 O   0  0  0  0  0  1  0  0  0  0  0  0
  161.6020  210.7850  147.8750 O   0  0  0  0  0  0  0  0  0  0  0  0
  161.9590  210.0830  149.0290 C   0  0  0  0  0  2  0  0  0  0  0  0
  162.0020  208.5890  148.7430 C   0  0  0  0  0  2  0  0  0  0  0  0
  161.0880  205.7460  151.1310 C   0  0  0  0  0  0  0  0  0  0  0  0
  161.3610  206.4360  149.9330 C   0  0  0  0  0  0  0  0  0  0  0  0
  161.7380  207.7940  149.9850 C   0  0  0  0  0  0  0  0  0  0  0  0
  161.2560  205.7280  148.6200 C   0  0  0  0  0  1  0  0  0  0  0  0
  161.8380  208.4420  151.2220 C   0  0  0  0  0  3  0  0  0  0  0  0
  161.1950  206.4090  152.3570 C   0  0  0  0  0  3  0  0  0  0  0  0
  161.5690  207.7520  152.4050 C   0  0  0  0  0  3  0  0  0  0  0  0
  160.6070  204.0570  151.1330 Cl  0  0  0  0  0  0  0  0  0  0  0  0
  160.3680  212.0200  141.3170 C   0  0  0  0  0  3  0  0  0  0  0  0
  159.9810  212.5350  142.4400 N   0  0  0  0  0  0  0  0  0  0  0  0
  159.4290  211.6370  140.2450 C   0  0  0  0  0  0  0  0  0  0  0  0
  160.8760  209.7350  139.3360 C   0  0  0  0  0  1  0  0  0  0  0  0
  158.2490  212.3850  140.1540 C   0  0  0  0  0  3  0  0  0  0  0  0
  157.3020  212.1090  139.1670 C   0  0  0  0  0  3  0  0  0  0  0  0
  159.6500  210.5850  139.3210 C   0  0  0  0  0  0  0  0  0  0  0  0
  157.5250  211.0750  138.2580 C   0  0  0  0  0  0  0  0  0  0  0  0
  158.6950  210.3180  138.3350 C   0  0  0  0  0  3  0  0  0  0  0  0
  156.5860  210.8010  137.2730 O   0  0  0  0  0  1  0  0  0  0  0  0
  159.6460  213.5260  147.7590 C   0  0  0  0  0  2  0  0  0  0  0  0
  159.4960  213.3400  149.2640 C   0  0  0  0  0  2  0  0  0  0  0  0
  158.1370  213.6350  149.6860 N   0  0  0  0  0  2  0  0  0  0  0  0
  157.2980  213.5680  148.5040 C   0  0  0  0  0  1  0  0  0  0  0  0
  2  4  1  0  0  0  0
  3  8  2  0  0  0  0
  3  7  1  0  0  0  0
  4 32  1  0  0  0  0
  4  9  1  0  0  0  0
  5  1  1  1  0  0  0
  5  2  1  0  0  0  0
  6  2  2  0  0  0  0
  7  6  1  0  0  0  0
  8  5  1  0  0  0  0
  9 10  1  6  0  0  0
 11  9  1  0  0  0  0
 11 12  1  0  0  0  0
 13 12  1  0  0  0  0
 13 16  1  0  0  0  0
 14 21  1  0  0  0  0
 14 19  1  0  0  0  0
 15 16  1  0  0  0  0
 15 14  2  0  0  0  0
 16 18  2  0  0  0  0
 17 15  1  0  0  0  0
 18 20  1  0  0  0  0
 19 20  2  0  0  0  0
 22 23  2  0  0  0  0
 23  8  1  0  0  0  0
 24 22  1  0  0  0  0
 26 24  1  0  0  0  0
 27 26  2  0  0  0  0
 28 25  1  0  0  0  0
 28 24  2  0  0  0  0
 29 30  2  0  0  0  0
 29 27  1  0  0  0  0
 30 28  1  0  0  0  0
 31 29  1  0  0  0  0
 32 33  1  0  0  0  0
 33 34  1  0  0  0  0
 35 34  1  0  0  0  0
M  END
>  <MODEL>
9

>  <REMARK>
 VINA RESULT:      -6.9      6.424      9.721
  Name = 
  10 active torsions:
  status: ('A' for Active; 'I' for Inactive)
    1  A    between atoms: C_3  and  C_7
    2  A    between atoms: C_5  and  N_6
    3  A    between atoms: C_5  and  O_8
    4  A    between atoms: N_6  and  C_12
    5  A    between atoms: O_8  and  C_17
    6  A    between atoms: N_10  and  C_28
    7  A    between atoms: C_12  and  C_19
    8  A    between atoms: C_14  and  C_16
    9  A    between atoms: C_14  and  C_17
   10  A    between atoms: C_19  and  N_21
                            x       y       z     vdW  Elec       q    Type
                         _______ _______ _______ _____ _____    ______ ____

>  <TORSDO>
F 10

$$$$
