=
 OpenBabel11042421233D

 33 36  0  0  1  0  0  0  0  0999 V2000
  160.8370  206.1510  154.1410 C   0  0  0  0  0  2  0  0  0  0  0  0
  158.7580  207.0210  156.1160 O   0  0  0  0  0  0  0  0  0  0  0  0
  159.3510  212.2840  154.6430 C   0  0  0  0  0  0  0  0  0  0  0  0
  159.6660  210.9110  152.6580 C   0  0  0  0  0  0  0  0  0  0  0  0
  160.7210  207.3010  151.8780 C   0  0  0  0  0  2  0  0  0  0  0  0
  161.3920  206.6160  157.1230 N   0  0  0  0  0  1  0  0  0  0  0  0
  159.5440  207.9480  156.2580 C   0  0  0  0  0  0  0  0  0  0  0  0
  161.5420  208.6160  153.8970 C   0  0  0  0  0  2  0  0  0  0  0  0
  161.0290  207.6860  156.2030 C   0  0  2  0  0  3  0  0  0  0  0  0
  161.1930  206.0640  152.6590 C   0  0  0  0  0  2  0  0  0  0  0  0
  159.3370  211.4520  157.0130 C   0  0  0  0  0  2  0  0  0  0  0  0
  160.5020  208.5300  152.7680 C   0  0  1  0  0  3  0  0  0  0  0  0
  158.3810  213.0400  153.9620 C   0  0  0  0  0  0  0  0  0  0  0  0
  161.5390  207.3640  154.7870 C   0  0  1  0  0  3  0  0  0  0  0  0
  158.7160  211.6840  151.9740 C   0  0  0  0  0  3  0  0  0  0  0  0
  161.0710  212.8950  156.1720 O   0  0  0  0  0  1  0  0  0  0  0  0
  160.0170  210.2690  156.6860 O   0  0  0  0  0  0  0  0  0  0  0  0
  157.7270  214.0900  154.5960 O   0  0  0  0  0  1  0  0  0  0  0  0
  160.3920  209.8150  151.9330 C   0  0  2  0  0  3  0  0  0  0  0  0
  158.9950  209.3260  156.4810 C   0  0  0  0  0  2  0  0  0  0  0  0
  159.7110  212.5930  156.0650 C   0  0  1  0  0  3  0  0  0  0  0  0
  159.9920  211.2360  153.9780 C   0  0  0  0  0  3  0  0  0  0  0  0
  158.0740  212.7410  152.6290 C   0  0  0  0  0  3  0  0  0  0  0  0
  162.4880  209.4200  150.2270 O   0  0  0  0  0  0  0  0  0  0  0  0
  161.9470  210.3970  151.2320 S   0  0  0  0  0  0  0  0  0  0  0  0
  162.9710  210.5840  152.3180 O   0  0  0  0  0  0  0  0  0  0  0  0
  161.6860  211.9670  150.4270 C   0  0  0  0  0  2  0  0  0  0  0  0
  160.4630  212.7360  146.8720 C   0  0  0  0  0  2  0  0  0  0  0  0
  161.5920  211.8240  148.9130 C   0  0  2  0  0  3  0  0  0  0  0  0
  162.8960  212.2260  148.2590 C   0  0  0  0  0  3  0  0  0  0  0  0
  162.9580  212.9450  147.1240 C   0  0  0  0  0  3  0  0  0  0  0  0
  161.7250  213.4890  146.4480 C   0  0  0  0  0  2  0  0  0  0  0  0
  160.4120  212.6520  148.3930 C   0  0  0  0  0  2  0  0  0  0  0  0
  1 14  1  0  0  0  0
  2  7  2  0  0  0  0
  3 21  1  0  0  0  0
  4 22  2  0  0  0  0
  5 10  1  0  0  0  0
  7 20  1  0  0  0  0
  9  7  1  0  0  0  0
  9  6  1  1  0  0  0
 10  1  1  0  0  0  0
 12  5  1  6  0  0  0
 12  8  1  0  0  0  0
 13 18  1  0  0  0  0
 13  3  2  0  0  0  0
 14  8  1  6  0  0  0
 14  9  1  0  0  0  0
 15 23  2  0  0  0  0
 15  4  1  0  0  0  0
 17 11  1  0  0  0  0
 19 25  1  1  0  0  0
 19  4  1  0  0  0  0
 19 12  1  0  0  0  0
 20 17  1  0  0  0  0
 21 16  1  6  0  0  0
 21 11  1  0  0  0  0
 22  3  1  0  0  0  0
 23 13  1  0  0  0  0
 24 25  2  0  0  0  0
 25 26  2  0  0  0  0
 27 25  1  0  0  0  0
 28 33  1  0  0  0  0
 29 27  1  1  0  0  0
 30 29  1  0  0  0  0
 31 30  2  0  0  0  0
 32 28  1  0  0  0  0
 32 31  1  0  0  0  0
 33 29  1  0  0  0  0
M  END
>  <MODEL>
1

>  <REMARK>
 VINA RESULT:      -2.8      0.000      0.000
  Name = 
  3 active torsions:
  status: ('A' for Active; 'I' for Inactive)
    1  A    between atoms: C_3  and  C_31
    2  A    between atoms: S_7  and  C_27
    3  A    between atoms: S_7  and  C_31
                            x       y       z     vdW  Elec       q    Type
                         _______ _______ _______ _____ _____    ______ ____

>  <TORSDO>
F 3

$$$$
=
 OpenBabel11042421233D

 33 36  0  0  1  0  0  0  0  0999 V2000
  160.3740  209.9230  157.1330 C   0  0  0  0  0  2  0  0  0  0  0  0
  162.3900  207.8110  156.4630 O   0  0  0  0  0  0  0  0  0  0  0  0
  161.3490  208.3160  151.0880 C   0  0  0  0  0  0  0  0  0  0  0  0
  161.1320  210.5180  152.1030 C   0  0  0  0  0  0  0  0  0  0  0  0
  160.3740  211.9420  155.5890 C   0  0  0  0  0  2  0  0  0  0  0  0
  159.8080  206.9100  157.2600 N   0  0  0  0  0  1  0  0  0  0  0  0
  161.5310  207.5090  155.6450 C   0  0  0  0  0  0  0  0  0  0  0  0
  159.4650  209.7250  154.7320 C   0  0  0  0  0  2  0  0  0  0  0  0
  160.0720  207.6210  156.0150 C   0  0  2  0  0  3  0  0  0  0  0  0
  160.0140  211.3990  156.9810 C   0  0  0  0  0  2  0  0  0  0  0  0
  161.4520  206.1340  152.3290 C   0  0  0  0  0  2  0  0  0  0  0  0
  160.4980  210.8430  154.5270 C   0  0  1  0  0  3  0  0  0  0  0  0
  162.2460  208.8430  150.1440 C   0  0  0  0  0  0  0  0  0  0  0  0
  159.5800  209.0750  156.1190 C   0  0  1  0  0  3  0  0  0  0  0  0
  162.0090  211.0450  151.1430 C   0  0  0  0  0  3  0  0  0  0  0  0
  159.5970  206.7130  150.9080 O   0  0  0  0  0  1  0  0  0  0  0  0
  160.8700  206.6730  153.4860 O   0  0  0  0  0  0  0  0  0  0  0  0
  162.8160  208.0260  149.1740 O   0  0  0  0  0  1  0  0  0  0  0  0
  160.4940  211.4330  153.1070 C   0  0  2  0  0  3  0  0  0  0  0  0
  161.9650  207.0380  154.2880 C   0  0  0  0  0  2  0  0  0  0  0  0
  160.9760  206.8640  151.0710 C   0  0  1  0  0  3  0  0  0  0  0  0
  160.7920  209.1630  152.0490 C   0  0  0  0  0  3  0  0  0  0  0  0
  162.5660  210.2070  150.1710 C   0  0  0  0  0  3  0  0  0  0  0  0
  157.8680  210.9280  152.5520 O   0  0  0  0  0  0  0  0  0  0  0  0
  158.8900  212.0280  152.5410 S   0  0  0  0  0  0  0  0  0  0  0  0
  158.9980  212.5660  151.1400 O   0  0  0  0  0  0  0  0  0  0  0  0
  158.3330  213.3440  153.6090 C   0  0  0  0  0  2  0  0  0  0  0  0
  155.6950  213.2760  156.3940 C   0  0  0  0  0  2  0  0  0  0  0  0
  157.0030  213.0150  154.2740 C   0  0  2  0  0  3  0  0  0  0  0  0
  155.8700  213.7530  153.5930 C   0  0  0  0  0  3  0  0  0  0  0  0
  154.8560  214.3240  154.2660 C   0  0  0  0  0  3  0  0  0  0  0  0
  154.8050  214.3530  155.7730 C   0  0  0  0  0  2  0  0  0  0  0  0
  157.0840  213.3450  155.7690 C   0  0  0  0  0  2  0  0  0  0  0  0
  3 22  1  0  0  0  0
  4 19  1  0  0  0  0
  5 10  1  0  0  0  0
  7  9  1  0  0  0  0
  7  2  2  0  0  0  0
  9 14  1  0  0  0  0
  9  6  1  1  0  0  0
 10  1  1  0  0  0  0
 11 17  1  0  0  0  0
 12  8  1  6  0  0  0
 12  5  1  0  0  0  0
 13 23  1  0  0  0  0
 13  3  2  0  0  0  0
 14  8  1  6  0  0  0
 14  1  1  0  0  0  0
 15  4  1  0  0  0  0
 17 20  1  0  0  0  0
 18 13  1  0  0  0  0
 19 25  1  6  0  0  0
 19 12  1  0  0  0  0
 20  7  1  0  0  0  0
 21 16  1  1  0  0  0
 21  3  1  0  0  0  0
 21 11  1  0  0  0  0
 22  4  2  0  0  0  0
 23 15  2  0  0  0  0
 25 24  2  0  0  0  0
 25 27  1  0  0  0  0
 26 25  2  0  0  0  0
 29 27  1  6  0  0  0
 29 33  1  0  0  0  0
 30 31  2  0  0  0  0
 30 29  1  0  0  0  0
 31 32  1  0  0  0  0
 32 28  1  0  0  0  0
 33 28  1  0  0  0  0
M  END
>  <MODEL>
2

>  <REMARK>
 VINA RESULT:      -2.1      2.541      6.182
  Name = 
  3 active torsions:
  status: ('A' for Active; 'I' for Inactive)
    1  A    between atoms: C_3  and  C_31
    2  A    between atoms: S_7  and  C_27
    3  A    between atoms: S_7  and  C_31
                            x       y       z     vdW  Elec       q    Type
                         _______ _______ _______ _____ _____    ______ ____

>  <TORSDO>
F 3

$$$$
=
 OpenBabel11042421233D

 33 36  0  0  1  0  0  0  0  0999 V2000
  160.6000  205.8010  154.3030 C   0  0  0  0  0  2  0  0  0  0  0  0
  158.6590  206.9320  156.2860 O   0  0  0  0  0  0  0  0  0  0  0  0
  159.7510  212.0660  154.6500 C   0  0  0  0  0  0  0  0  0  0  0  0
  159.8860  210.6130  152.7000 C   0  0  0  0  0  0  0  0  0  0  0  0
  160.5570  206.8950  152.0090 C   0  0  0  0  0  2  0  0  0  0  0  0
  161.2580  206.2900  157.2610 N   0  0  0  0  0  1  0  0  0  0  0  0
  159.5370  207.7780  156.3880 C   0  0  0  0  0  0  0  0  0  0  0  0
  161.5450  208.1750  153.9750 C   0  0  0  0  0  2  0  0  0  0  0  0
  160.9880  207.3660  156.3150 C   0  0  2  0  0  3  0  0  0  0  0  0
  160.9170  205.6380  152.8190 C   0  0  0  0  0  2  0  0  0  0  0  0
  159.7010  211.3040  157.0430 C   0  0  0  0  0  2  0  0  0  0  0  0
  160.4800  208.1630  152.8670 C   0  0  1  0  0  3  0  0  0  0  0  0
  158.8500  212.8960  153.9630 C   0  0  0  0  0  0  0  0  0  0  0  0
  161.4340  206.9550  154.9010 C   0  0  1  0  0  3  0  0  0  0  0  0
  159.0060  211.4600  152.0110 C   0  0  0  0  0  3  0  0  0  0  0  0
  161.5540  212.5410  156.1300 O   0  0  0  0  0  1  0  0  0  0  0  0
  160.2510  210.0500  156.7400 O   0  0  0  0  0  0  0  0  0  0  0  0
  158.3170  214.0250  154.5770 O   0  0  0  0  0  1  0  0  0  0  0  0
  160.4840  209.4300  151.9960 C   0  0  2  0  0  3  0  0  0  0  0  0
  159.1350  209.2110  156.5800 C   0  0  0  0  0  2  0  0  0  0  0  0
  160.1690  212.3750  156.0560 C   0  0  1  0  0  3  0  0  0  0  0  0
  160.2700  210.9400  154.0050 C   0  0  0  0  0  3  0  0  0  0  0  0
  158.4870  212.5940  152.6440 C   0  0  0  0  0  3  0  0  0  0  0  0
  163.0440  210.3370  152.2820 O   0  0  0  0  0  0  0  0  0  0  0  0
  162.0760  209.8310  151.2520 S   0  0  0  0  0  0  0  0  0  0  0  0
  161.9060  210.8890  150.1950 O   0  0  0  0  0  0  0  0  0  0  0  0
  162.7580  208.3720  150.4850 C   0  0  0  0  0  2  0  0  0  0  0  0
  162.3250  206.7610  147.0300 C   0  0  0  0  0  2  0  0  0  0  0  0
  162.0740  208.0490  149.1630 C   0  0  2  0  0  3  0  0  0  0  0  0
  160.8180  207.2390  149.3970 C   0  0  0  0  0  3  0  0  0  0  0  0
  160.4560  206.2030  148.6200 C   0  0  0  0  0  3  0  0  0  0  0  0
  161.3220  205.7030  147.4910 C   0  0  0  0  0  2  0  0  0  0  0  0
  163.0600  207.3230  148.2410 C   0  0  0  0  0  2  0  0  0  0  0  0
  1 14  1  0  0  0  0
  2  7  2  0  0  0  0
  3 21  1  0  0  0  0
  4 22  2  0  0  0  0
  5 10  1  0  0  0  0
  7 20  1  0  0  0  0
  9  7  1  0  0  0  0
  9  6  1  1  0  0  0
 10  1  1  0  0  0  0
 12  5  1  6  0  0  0
 12  8  1  0  0  0  0
 13 18  1  0  0  0  0
 13  3  2  0  0  0  0
 14  8  1  6  0  0  0
 14  9  1  0  0  0  0
 15 23  2  0  0  0  0
 15  4  1  0  0  0  0
 17 11  1  0  0  0  0
 19 25  1  1  0  0  0
 19  4  1  0  0  0  0
 19 12  1  0  0  0  0
 20 17  1  0  0  0  0
 21 16  1  6  0  0  0
 21 11  1  0  0  0  0
 22  3  1  0  0  0  0
 23 13  1  0  0  0  0
 25 24  2  0  0  0  0
 26 25  2  0  0  0  0
 27 25  1  0  0  0  0
 28 32  1  0  0  0  0
 28 33  1  0  0  0  0
 29 30  1  0  0  0  0
 29 27  1  1  0  0  0
 31 30  2  0  0  0  0
 32 31  1  0  0  0  0
 33 29  1  0  0  0  0
M  END
>  <MODEL>
3

>  <REMARK>
 VINA RESULT:      -2.0      2.220      2.834
  Name = 
  3 active torsions:
  status: ('A' for Active; 'I' for Inactive)
    1  A    between atoms: C_3  and  C_31
    2  A    between atoms: S_7  and  C_27
    3  A    between atoms: S_7  and  C_31
                            x       y       z     vdW  Elec       q    Type
                         _______ _______ _______ _____ _____    ______ ____

>  <TORSDO>
F 3

$$$$
=
 OpenBabel11042421233D

 33 36  0  0  1  0  0  0  0  0999 V2000
  161.2060  202.0490  151.0160 C   0  0  0  0  0  2  0  0  0  0  0  0
  161.6560  200.2990  148.6250 O   0  0  0  0  0  0  0  0  0  0  0  0
  160.9960  204.5530  145.2040 C   0  0  0  0  0  0  0  0  0  0  0  0
  162.0850  205.3750  147.2210 C   0  0  0  0  0  0  0  0  0  0  0  0
  162.3270  204.3280  150.9080 C   0  0  0  0  0  2  0  0  0  0  0  0
  159.0320  200.3030  149.7350 N   0  0  0  0  0  1  0  0  0  0  0  0
  160.7640  201.0040  148.1710 C   0  0  0  0  0  0  0  0  0  0  0  0
  160.3050  203.8690  149.4320 C   0  0  0  0  0  2  0  0  0  0  0  0
  159.6320  201.4490  149.0650 C   0  0  2  0  0  3  0  0  0  0  0  0
  161.7450  203.2320  151.8160 C   0  0  0  0  0  2  0  0  0  0  0  0
  159.8630  202.3250  144.9560 C   0  0  0  0  0  2  0  0  0  0  0  0
  161.7880  204.2720  149.4740 C   0  0  1  0  0  3  0  0  0  0  0  0
  162.0190  205.1210  144.4260 C   0  0  0  0  0  0  0  0  0  0  0  0
  160.0540  202.5090  150.0980 C   0  0  1  0  0  3  0  0  0  0  0  0
  163.0890  205.9620  146.4370 C   0  0  0  0  0  3  0  0  0  0  0  0
  158.6420  204.3980  144.8860 O   0  0  0  0  0  1  0  0  0  0  0  0
  159.7100  202.1580  146.3400 O   0  0  0  0  0  0  0  0  0  0  0  0
  162.0080  204.9950  143.0410 O   0  0  0  0  0  1  0  0  0  0  0  0
  162.0950  205.5700  148.7090 C   0  0  2  0  0  3  0  0  0  0  0  0
  160.8310  201.4050  146.7260 C   0  0  0  0  0  2  0  0  0  0  0  0
  159.8650  203.8040  144.5660 C   0  0  1  0  0  3  0  0  0  0  0  0
  161.0340  204.6980  146.5930 C   0  0  0  0  0  3  0  0  0  0  0  0
  163.0570  205.8290  145.0450 C   0  0  0  0  0  3  0  0  0  0  0  0
  159.7060  206.5780  149.5660 O   0  0  0  0  0  0  0  0  0  0  0  0
  161.1030  206.9920  149.2020 S   0  0  0  0  0  0  0  0  0  0  0  0
  161.0300  207.9910  148.0800 O   0  0  0  0  0  0  0  0  0  0  0  0
  161.8580  207.7820  150.6120 C   0  0  0  0  0  2  0  0  0  0  0  0
  160.8310  206.9540  154.2150 C   0  0  0  0  0  2  0  0  0  0  0  0
  160.9580  207.7390  151.8400 C   0  0  2  0  0  3  0  0  0  0  0  0
  160.7330  209.1320  152.3860 C   0  0  0  0  0  3  0  0  0  0  0  0
  160.7260  209.4150  153.7000 C   0  0  0  0  0  3  0  0  0  0  0  0
  161.0270  208.3730  154.7490 C   0  0  0  0  0  2  0  0  0  0  0  0
  161.5700  206.8050  152.8900 C   0  0  0  0  0  2  0  0  0  0  0  0
  1 10  1  0  0  0  0
  3 22  1  0  0  0  0
  4 19  1  0  0  0  0
  5 10  1  0  0  0  0
  7  2  2  0  0  0  0
  7  9  1  0  0  0  0
  9  6  1  1  0  0  0
  9 14  1  0  0  0  0
 11 17  1  0  0  0  0
 12  8  1  1  0  0  0
 12  5  1  0  0  0  0
 13 23  1  0  0  0  0
 13  3  2  0  0  0  0
 14  8  1  6  0  0  0
 14  1  1  0  0  0  0
 15  4  1  0  0  0  0
 17 20  1  0  0  0  0
 18 13  1  0  0  0  0
 19 25  1  6  0  0  0
 19 12  1  0  0  0  0
 20  7  1  0  0  0  0
 21 16  1  1  0  0  0
 21 11  1  0  0  0  0
 21  3  1  0  0  0  0
 22  4  2  0  0  0  0
 23 15  2  0  0  0  0
 25 24  2  0  0  0  0
 25 27  1  0  0  0  0
 26 25  2  0  0  0  0
 28 32  1  0  0  0  0
 29 27  1  6  0  0  0
 29 30  1  0  0  0  0
 29 33  1  0  0  0  0
 30 31  2  0  0  0  0
 31 32  1  0  0  0  0
 33 28  1  0  0  0  0
M  END
>  <MODEL>
4

>  <REMARK>
 VINA RESULT:      -2.0      5.762      9.474
  Name = 
  3 active torsions:
  status: ('A' for Active; 'I' for Inactive)
    1  A    between atoms: C_3  and  C_31
    2  A    between atoms: S_7  and  C_27
    3  A    between atoms: S_7  and  C_31
                            x       y       z     vdW  Elec       q    Type
                         _______ _______ _______ _____ _____    ______ ____

>  <TORSDO>
F 3

$$$$
=
 OpenBabel11042421233D

 33 36  0  0  1  0  0  0  0  0999 V2000
  161.8900  211.7490  149.3310 C   0  0  0  0  0  2  0  0  0  0  0  0
  161.1050  214.4520  150.3600 O   0  0  0  0  0  0  0  0  0  0  0  0
  159.1480  212.2750  155.0140 C   0  0  0  0  0  0  0  0  0  0  0  0
  161.0800  210.9630  154.3270 C   0  0  0  0  0  0  0  0  0  0  0  0
  162.9420  210.2050  151.0540 C   0  0  0  0  0  2  0  0  0  0  0  0
  159.2900  213.1880  148.5640 N   0  0  0  0  0  1  0  0  0  0  0  0
  160.1390  213.8160  150.7600 C   0  0  0  0  0  0  0  0  0  0  0  0
  160.4490  210.6970  151.1880 C   0  0  0  0  0  2  0  0  0  0  0  0
  159.5680  212.7060  149.9120 C   0  0  2  0  0  3  0  0  0  0  0  0
  162.7920  210.5390  149.5610 C   0  0  0  0  0  2  0  0  0  0  0  0
  157.9230  213.9370  153.5830 C   0  0  0  0  0  2  0  0  0  0  0  0
  161.8020  210.7610  151.9150 C   0  0  1  0  0  3  0  0  0  0  0  0
  159.7230  212.4500  156.2840 C   0  0  0  0  0  0  0  0  0  0  0  0
  160.4680  211.4590  149.8550 C   0  0  1  0  0  3  0  0  0  0  0  0
  161.6380  211.1190  155.6040 C   0  0  0  0  0  3  0  0  0  0  0  0
  156.9070  211.8810  154.3130 O   0  0  0  0  0  1  0  0  0  0  0  0
  158.4160  213.3930  152.3880 O   0  0  0  0  0  0  0  0  0  0  0  0
  159.0700  213.1930  157.2610 O   0  0  0  0  0  1  0  0  0  0  0  0
  161.7840  210.1140  153.3090 C   0  0  2  0  0  3  0  0  0  0  0  0
  159.5530  214.1670  152.0960 C   0  0  0  0  0  2  0  0  0  0  0  0
  157.8160  212.8760  154.6800 C   0  0  1  0  0  3  0  0  0  0  0  0
  159.8280  211.5210  154.0530 C   0  0  0  0  0  3  0  0  0  0  0  0
  160.9620  211.8650  156.5760 C   0  0  0  0  0  3  0  0  0  0  0  0
  159.7120  208.3420  153.1440 O   0  0  0  0  0  0  0  0  0  0  0  0
  161.1990  208.4090  153.3430 S   0  0  0  0  0  0  0  0  0  0  0  0
  161.5350  207.7690  154.6630 O   0  0  0  0  0  0  0  0  0  0  0  0
  161.9980  207.4800  152.0460 C   0  0  0  0  0  2  0  0  0  0  0  0
  160.4840  206.1530  148.7800 C   0  0  0  0  0  2  0  0  0  0  0  0
  160.9920  206.7630  151.1550 C   0  0  2  0  0  3  0  0  0  0  0  0
  160.9940  205.2760  151.4400 C   0  0  0  0  0  3  0  0  0  0  0  0
  160.9150  204.3440  150.4740 C   0  0  0  0  0  3  0  0  0  0  0  0
  160.9030  204.7010  149.0090 C   0  0  0  0  0  2  0  0  0  0  0  0
  161.3040  207.0650  149.6850 C   0  0  0  0  0  2  0  0  0  0  0  0
  1 10  1  0  0  0  0
  2  7  2  0  0  0  0
  3 13  1  0  0  0  0
  4 15  2  0  0  0  0
  7 20  1  0  0  0  0
  8 12  1  0  0  0  0
  9  6  1  6  0  0  0
  9  7  1  0  0  0  0
 10  5  1  0  0  0  0
 11 21  1  0  0  0  0
 12  5  1  6  0  0  0
 12 19  1  0  0  0  0
 13 23  2  0  0  0  0
 13 18  1  0  0  0  0
 14  1  1  1  0  0  0
 14  9  1  0  0  0  0
 14  8  1  0  0  0  0
 15 23  1  0  0  0  0
 17 11  1  0  0  0  0
 19 25  1  6  0  0  0
 19  4  1  0  0  0  0
 20 17  1  0  0  0  0
 21 16  1  6  0  0  0
 21  3  1  0  0  0  0
 22  4  1  0  0  0  0
 22  3  2  0  0  0  0
 24 25  2  0  0  0  0
 25 26  2  0  0  0  0
 27 25  1  0  0  0  0
 28 32  1  0  0  0  0
 28 33  1  0  0  0  0
 29 30  1  0  0  0  0
 29 27  1  1  0  0  0
 31 30  2  0  0  0  0
 32 31  1  0  0  0  0
 33 29  1  0  0  0  0
M  END
>  <MODEL>
5

>  <REMARK>
 VINA RESULT:      -1.9      3.038      5.819
  Name = 
  3 active torsions:
  status: ('A' for Active; 'I' for Inactive)
    1  A    between atoms: C_3  and  C_31
    2  A    between atoms: S_7  and  C_27
    3  A    between atoms: S_7  and  C_31
                            x       y       z     vdW  Elec       q    Type
                         _______ _______ _______ _____ _____    ______ ____

>  <TORSDO>
F 3

$$$$
=
 OpenBabel11042421233D

 33 36  0  0  1  0  0  0  0  0999 V2000
  162.1840  211.9570  147.8860 C   0  0  0  0  0  2  0  0  0  0  0  0
  161.5370  214.4530  149.4140 O   0  0  0  0  0  0  0  0  0  0  0  0
  159.8100  211.5330  153.7410 C   0  0  0  0  0  0  0  0  0  0  0  0
  161.6600  210.3280  152.7140 C   0  0  0  0  0  0  0  0  0  0  0  0
  163.2960  210.1200  149.2450 C   0  0  0  0  0  2  0  0  0  0  0  0
  159.5820  213.5490  147.5490 N   0  0  0  0  0  1  0  0  0  0  0  0
  160.5800  213.7730  149.7610 C   0  0  0  0  0  0  0  0  0  0  0  0
  160.8300  210.6220  149.6240 C   0  0  0  0  0  2  0  0  0  0  0  0
  159.9280  212.8370  148.7730 C   0  0  2  0  0  3  0  0  0  0  0  0
  163.0640  210.7110  147.8450 C   0  0  0  0  0  2  0  0  0  0  0  0
  158.5460  213.4380  152.7000 C   0  0  0  0  0  2  0  0  0  0  0  0
  162.2260  210.5370  150.2610 C   0  0  1  0  0  3  0  0  0  0  0  0
  160.4670  211.4750  154.9810 C   0  0  0  0  0  0  0  0  0  0  0  0
  160.7880  211.6040  148.4440 C   0  0  1  0  0  3  0  0  0  0  0  0
  162.2990  210.2510  153.9600 C   0  0  0  0  0  3  0  0  0  0  0  0
  157.5200  211.3030  153.1300 O   0  0  0  0  0  1  0  0  0  0  0  0
  158.9500  213.1020  151.4000 O   0  0  0  0  0  0  0  0  0  0  0  0
  159.8950  212.0480  156.1120 O   0  0  0  0  0  1  0  0  0  0  0  0
  162.2760  209.6580  151.5210 C   0  0  2  0  0  3  0  0  0  0  0  0
  160.0870  213.8960  151.1730 C   0  0  0  0  0  2  0  0  0  0  0  0
  158.4770  212.2050  153.6030 C   0  0  1  0  0  3  0  0  0  0  0  0
  160.4090  210.9470  152.6230 C   0  0  0  0  0  3  0  0  0  0  0  0
  161.7040  210.8280  155.0870 C   0  0  0  0  0  3  0  0  0  0  0  0
  160.4440  207.7370  152.1620 O   0  0  0  0  0  0  0  0  0  0  0  0
  161.6480  207.9830  151.2990 S   0  0  0  0  0  0  0  0  0  0  0  0
  162.7080  206.9770  151.6580 O   0  0  0  0  0  0  0  0  0  0  0  0
  161.1950  207.7400  149.5910 C   0  0  0  0  0  2  0  0  0  0  0  0
  161.3640  204.1400  148.2730 C   0  0  0  0  0  2  0  0  0  0  0  0
  161.8360  206.4890  149.0030 C   0  0  2  0  0  3  0  0  0  0  0  0
  162.2910  206.7420  147.5820 C   0  0  0  0  0  3  0  0  0  0  0  0
  162.1420  205.8440  146.5920 C   0  0  0  0  0  3  0  0  0  0  0  0
  161.4260  204.5330  146.7960 C   0  0  0  0  0  2  0  0  0  0  0  0
  160.8480  205.3200  149.0890 C   0  0  0  0  0  2  0  0  0  0  0  0
  2  7  2  0  0  0  0
  3 13  1  0  0  0  0
  4 15  2  0  0  0  0
  7 20  1  0  0  0  0
  8 12  1  0  0  0  0
  9  6  1  6  0  0  0
  9  7  1  0  0  0  0
 10  1  1  0  0  0  0
 10  5  1  0  0  0  0
 11 21  1  0  0  0  0
 12  5  1  6  0  0  0
 12 19  1  0  0  0  0
 13 23  2  0  0  0  0
 13 18  1  0  0  0  0
 14  1  1  1  0  0  0
 14  9  1  0  0  0  0
 14  8  1  0  0  0  0
 15 23  1  0  0  0  0
 17 11  1  0  0  0  0
 19 25  1  6  0  0  0
 19  4  1  0  0  0  0
 20 17  1  0  0  0  0
 21 16  1  6  0  0  0
 21  3  1  0  0  0  0
 22  4  1  0  0  0  0
 22  3  2  0  0  0  0
 25 26  2  0  0  0  0
 25 24  2  0  0  0  0
 27 25  1  0  0  0  0
 28 33  1  0  0  0  0
 29 33  1  0  0  0  0
 29 27  1  6  0  0  0
 30 29  1  0  0  0  0
 31 32  1  0  0  0  0
 31 30  2  0  0  0  0
 32 28  1  0  0  0  0
M  END
>  <MODEL>
6

>  <REMARK>
 VINA RESULT:      -1.6      3.474      6.122
  Name = 
  3 active torsions:
  status: ('A' for Active; 'I' for Inactive)
    1  A    between atoms: C_3  and  C_31
    2  A    between atoms: S_7  and  C_27
    3  A    between atoms: S_7  and  C_31
                            x       y       z     vdW  Elec       q    Type
                         _______ _______ _______ _____ _____    ______ ____

>  <TORSDO>
F 3

$$$$
=
 OpenBabel11042421233D

 33 36  0  0  1  0  0  0  0  0999 V2000
  160.4750  209.8930  157.1510 C   0  0  0  0  0  2  0  0  0  0  0  0
  162.4240  207.7460  156.3960 O   0  0  0  0  0  0  0  0  0  0  0  0
  161.2800  208.3790  151.0560 C   0  0  0  0  0  0  0  0  0  0  0  0
  161.1390  210.5660  152.1170 C   0  0  0  0  0  0  0  0  0  0  0  0
  160.4920  211.9400  155.6450 C   0  0  0  0  0  2  0  0  0  0  0  0
  159.8380  206.8920  157.2340 N   0  0  0  0  0  1  0  0  0  0  0  0
  161.5410  207.4810  155.5920 C   0  0  0  0  0  0  0  0  0  0  0  0
  159.5100  209.7630  154.7670 C   0  0  0  0  0  2  0  0  0  0  0  0
  160.0930  207.6200  155.9970 C   0  0  2  0  0  3  0  0  0  0  0  0
  160.1480  211.3800  157.0340 C   0  0  0  0  0  2  0  0  0  0  0  0
  161.3560  206.1720  152.2540 C   0  0  0  0  0  2  0  0  0  0  0  0
  160.5660  210.8600  154.5600 C   0  0  1  0  0  3  0  0  0  0  0  0
  162.1690  208.9030  150.1030 C   0  0  0  0  0  0  0  0  0  0  0  0
  159.6380  209.0840  156.1380 C   0  0  1  0  0  3  0  0  0  0  0  0
  162.0070  211.0900  151.1480 C   0  0  0  0  0  3  0  0  0  0  0  0
  159.4860  206.8230  150.8850 O   0  0  0  0  0  1  0  0  0  0  0  0
  160.8130  206.7030  153.4340 O   0  0  0  0  0  0  0  0  0  0  0  0
  162.6980  208.0910  149.1060 O   0  0  0  0  0  1  0  0  0  0  0  0
  160.5450  211.4770  153.1520 C   0  0  2  0  0  3  0  0  0  0  0  0
  161.9340  207.0260  154.2180 C   0  0  0  0  0  2  0  0  0  0  0  0
  160.8710  206.9370  151.0210 C   0  0  1  0  0  3  0  0  0  0  0  0
  160.7640  209.2210  152.0450 C   0  0  0  0  0  3  0  0  0  0  0  0
  162.5230  210.2580  150.1490 C   0  0  0  0  0  3  0  0  0  0  0  0
  158.3080  212.9360  153.7220 O   0  0  0  0  0  0  0  0  0  0  0  0
  158.9440  212.1210  152.6320 S   0  0  0  0  0  0  0  0  0  0  0  0
  158.0170  210.9910  152.2760 O   0  0  0  0  0  0  0  0  0  0  0  0
  159.1580  213.1510  151.1910 C   0  0  0  0  0  2  0  0  0  0  0  0
  155.9690  214.0930  149.2750 C   0  0  0  0  0  2  0  0  0  0  0  0
  158.0170  212.9830  150.1950 C   0  0  2  0  0  3  0  0  0  0  0  0
  158.5440  212.9860  148.7770 C   0  0  0  0  0  3  0  0  0  0  0  0
  157.9240  213.6170  147.7640 C   0  0  0  0  0  3  0  0  0  0  0  0
  156.6870  214.4530  147.9740 C   0  0  0  0  0  2  0  0  0  0  0  0
  156.9740  214.0830  150.4220 C   0  0  0  0  0  2  0  0  0  0  0  0
  3 22  1  0  0  0  0
  4 19  1  0  0  0  0
  5 10  1  0  0  0  0
  7  9  1  0  0  0  0
  7  2  2  0  0  0  0
  9 14  1  0  0  0  0
  9  6  1  1  0  0  0
 10  1  1  0  0  0  0
 11 17  1  0  0  0  0
 12  8  1  6  0  0  0
 12  5  1  0  0  0  0
 13 23  1  0  0  0  0
 13  3  2  0  0  0  0
 14  8  1  6  0  0  0
 14  1  1  0  0  0  0
 15  4  1  0  0  0  0
 17 20  1  0  0  0  0
 18 13  1  0  0  0  0
 19 25  1  6  0  0  0
 19 12  1  0  0  0  0
 20  7  1  0  0  0  0
 21 16  1  1  0  0  0
 21  3  1  0  0  0  0
 21 11  1  0  0  0  0
 22  4  2  0  0  0  0
 23 15  2  0  0  0  0
 25 24  2  0  0  0  0
 26 25  2  0  0  0  0
 27 25  1  0  0  0  0
 28 33  1  0  0  0  0
 29 33  1  0  0  0  0
 29 27  1  1  0  0  0
 30 29  1  0  0  0  0
 31 32  1  0  0  0  0
 31 30  2  0  0  0  0
 32 28  1  0  0  0  0
M  END
>  <MODEL>
7

>  <REMARK>
 VINA RESULT:      -1.4      2.260      5.015
  Name = 
  3 active torsions:
  status: ('A' for Active; 'I' for Inactive)
    1  A    between atoms: C_3  and  C_31
    2  A    between atoms: S_7  and  C_27
    3  A    between atoms: S_7  and  C_31
                            x       y       z     vdW  Elec       q    Type
                         _______ _______ _______ _____ _____    ______ ____

>  <TORSDO>
F 3

$$$$
=
 OpenBabel11042421233D

 33 36  0  0  1  0  0  0  0  0999 V2000
  161.7310  205.8330  150.1360 C   0  0  0  0  0  2  0  0  0  0  0  0
  160.3780  204.8440  152.6210 O   0  0  0  0  0  0  0  0  0  0  0  0
  160.4640  209.8720  154.8450 C   0  0  0  0  0  0  0  0  0  0  0  0
  160.1400  210.1190  152.4450 C   0  0  0  0  0  0  0  0  0  0  0  0
  160.9050  208.0800  149.2820 C   0  0  0  0  0  2  0  0  0  0  0  0
  163.1970  204.4600  152.4570 N   0  0  0  0  0  1  0  0  0  0  0  0
  161.1670  205.6230  153.1400 C   0  0  0  0  0  0  0  0  0  0  0  0
  162.3170  208.0010  151.3980 C   0  0  0  0  0  2  0  0  0  0  0  0
  162.5600  205.7660  152.5760 C   0  0  2  0  0  3  0  0  0  0  0  0
  161.6020  206.7560  148.9270 C   0  0  0  0  0  2  0  0  0  0  0  0
  161.2010  207.7740  156.0140 C   0  0  0  0  0  2  0  0  0  0  0  0
  160.9740  208.4170  150.7760 C   0  0  1  0  0  3  0  0  0  0  0  0
  159.3270  210.6650  155.0760 C   0  0  0  0  0  0  0  0  0  0  0  0
  162.5970  206.5010  151.2250 C   0  0  1  0  0  3  0  0  0  0  0  0
  159.0210  210.9320  152.6810 C   0  0  0  0  0  3  0  0  0  0  0  0
  162.5770  209.7470  155.9360 O   0  0  0  0  0  1  0  0  0  0  0  0
  161.7450  207.2180  154.8470 O   0  0  0  0  0  0  0  0  0  0  0  0
  158.9040  210.9350  156.3730 O   0  0  0  0  0  1  0  0  0  0  0  0
  160.6030  209.8850  151.0360 C   0  0  2  0  0  3  0  0  0  0  0  0
  160.7130  206.4180  154.3290 C   0  0  0  0  0  2  0  0  0  0  0  0
  161.2540  209.3030  155.9850 C   0  0  1  0  0  3  0  0  0  0  0  0
  160.8650  209.6190  153.5310 C   0  0  0  0  0  3  0  0  0  0  0  0
  158.6160  211.1970  153.9940 C   0  0  0  0  0  3  0  0  0  0  0  0
  163.1730  210.7970  151.2060 O   0  0  0  0  0  0  0  0  0  0  0  0
  161.8570  211.0820  150.5400 S   0  0  0  0  0  0  0  0  0  0  0  0
  161.4240  212.4750  150.9100 O   0  0  0  0  0  0  0  0  0  0  0  0
  162.0780  211.0110  148.7710 C   0  0  0  0  0  2  0  0  0  0  0  0
  162.4570  214.1090  146.5380 C   0  0  0  0  0  2  0  0  0  0  0  0
  161.6650  212.3110  148.0910 C   0  0  2  0  0  3  0  0  0  0  0  0
  160.5590  212.0600  147.0900 C   0  0  0  0  0  3  0  0  0  0  0  0
  160.5120  212.6530  145.8840 C   0  0  0  0  0  3  0  0  0  0  0  0
  161.6100  213.5600  145.3890 C   0  0  0  0  0  2  0  0  0  0  0  0
  162.8920  212.9590  147.4400 C   0  0  0  0  0  2  0  0  0  0  0  0
  2  7  2  0  0  0  0
  3 13  1  0  0  0  0
  3 21  1  0  0  0  0
  4 15  2  0  0  0  0
  4 22  1  0  0  0  0
  7 20  1  0  0  0  0
  9  6  1  6  0  0  0
  9  7  1  0  0  0  0
 10  5  1  0  0  0  0
 10  1  1  0  0  0  0
 12  5  1  6  0  0  0
 12 19  1  0  0  0  0
 12  8  1  0  0  0  0
 13 18  1  0  0  0  0
 14  1  1  6  0  0  0
 14  8  1  0  0  0  0
 14  9  1  0  0  0  0
 15 23  1  0  0  0  0
 17 11  1  0  0  0  0
 19 25  1  1  0  0  0
 19  4  1  0  0  0  0
 20 17  1  0  0  0  0
 21 16  1  6  0  0  0
 21 11  1  0  0  0  0
 22  3  2  0  0  0  0
 23 13  2  0  0  0  0
 25 26  2  0  0  0  0
 25 24  2  0  0  0  0
 27 25  1  0  0  0  0
 28 33  1  0  0  0  0
 29 27  1  6  0  0  0
 30 29  1  0  0  0  0
 31 30  2  0  0  0  0
 32 31  1  0  0  0  0
 32 28  1  0  0  0  0
 33 29  1  0  0  0  0
M  END
>  <MODEL>
8

>  <REMARK>
 VINA RESULT:      -1.1      2.011      3.076
  Name = 
  3 active torsions:
  status: ('A' for Active; 'I' for Inactive)
    1  A    between atoms: C_3  and  C_31
    2  A    between atoms: S_7  and  C_27
    3  A    between atoms: S_7  and  C_31
                            x       y       z     vdW  Elec       q    Type
                         _______ _______ _______ _____ _____    ______ ____

>  <TORSDO>
F 3

$$$$
