=
 OpenBabel11052412013D

 61 65  0  0  1  0  0  0  0  0999 V2000
  162.1620  210.4630  148.9390 C   0  0  0  0  0  0  0  0  0  0  0  0
  163.1920  210.6470  152.7820 O   0  0  0  0  0  0  0  0  0  0  0  0
  161.2880  209.4040  153.3860 N   0  0  0  0  0  2  0  0  0  0  0  0
  160.3380  207.6320  152.1070 N   0  0  0  0  0  0  0  0  0  0  0  0
  161.9970  210.3130  150.3320 C   0  0  0  0  0  3  0  0  0  0  0  0
  161.0880  208.1040  149.9660 C   0  0  0  0  0  0  0  0  0  0  0  0
  161.2160  208.2300  148.5800 C   0  0  0  0  0  3  0  0  0  0  0  0
  160.9980  208.7500  152.1410 C   0  0  0  0  0  0  0  0  0  0  0  0
  160.3270  207.0830  150.7480 C   0  0  1  0  0  3  0  0  0  0  0  0
  162.4100  210.2450  153.6920 C   0  0  0  0  0  0  0  0  0  0  0  0
  161.7770  209.4150  148.0690 C   0  0  0  0  0  3  0  0  0  0  0  0
  161.4810  209.1090  150.8150 C   0  0  0  0  0  0  0  0  0  0  0  0
  161.0930  205.0000  149.5330 C   0  0  0  0  0  0  0  0  0  0  0  0
  160.9580  205.7070  150.7430 C   0  0  0  0  0  0  0  0  0  0  0  0
  161.1970  205.0310  151.9460 C   0  0  0  0  0  3  0  0  0  0  0  0
  161.5410  203.6770  151.9310 C   0  0  0  0  0  3  0  0  0  0  0  0
  160.7400  205.6370  148.2260 C   0  0  0  0  0  1  0  0  0  0  0  0
  161.4330  203.6810  149.5430 N   0  0  0  0  0  0  0  0  0  0  0  0
  161.6260  203.0070  150.7100 C   0  0  0  0  0  0  0  0  0  0  0  0
  161.8860  201.5340  150.6980 C   0  0  0  0  0  2  0  0  0  0  0  0
  160.7660  200.8290  150.0860 N   0  0  0  0  0  0  0  0  0  0  0  0
  159.8650  201.7690  149.7050 O   0  0  0  0  0  1  0  0  0  0  0  0
  161.0190  200.8600  147.0560 C   0  0  1  0  0  0  0  0  0  0  0  0
  161.2760  200.1210  148.9070 C   0  0  1  0  0  3  0  0  0  0  0  0
  160.2520  200.0690  147.9340 O   0  0  0  0  0  0  0  0  0  0  0  0
  162.1650  200.9850  148.0280 C   0  0  0  0  0  2  0  0  0  0  0  0
  160.2770  199.7900  145.0250 O   0  0  0  0  0  1  0  0  0  0  0  0
  161.3950  200.0410  145.8250 C   0  0  0  0  0  2  0  0  0  0  0  0
  160.3310  202.1760  146.6670 C   0  0  0  0  0  2  0  0  0  0  0  0
  160.7030  202.7030  145.2770 C   0  0  0  0  0  2  0  0  0  0  0  0
  161.3560  204.0720  145.3740 C   0  0  0  0  0  2  0  0  0  0  0  0
  162.6900  203.9510  145.9480 N   0  0  0  0  0  2  0  0  0  0  0  0
  163.2940  205.1480  145.7720 O   0  0  0  0  0  1  0  0  0  0  0  0
  163.8610  212.1290  149.0880 O   0  0  0  0  0  1  0  0  0  0  0  0
  162.7450  211.7140  148.3510 C   0  0  2  0  0  3  0  0  0  0  0  0
  161.1520  213.3120  149.2310 C   0  0  0  0  0  3  0  0  0  0  0  0
  160.1870  214.4530  149.2480 C   0  0  0  0  0  2  0  0  0  0  0  0
  160.2050  213.7750  146.3770 C   0  0  0  0  0  3  0  0  0  0  0  0
  161.7330  212.8220  148.1270 C   0  0  0  0  0  0  0  0  0  0  0  0
  158.9750  213.8700  147.1900 C   0  0  0  0  0  3  0  0  0  0  0  0
  158.9320  214.1240  148.4960 C   0  0  0  0  0  0  0  0  0  0  0  0
  161.4270  213.3480  146.7550 C   0  0  0  0  0  0  0  0  0  0  0  0
  156.9750  213.0910  149.3330 O   0  0  0  0  0  0  0  0  0  0  0  0
  156.3360  213.9540  151.9030 O   0  0  0  0  0  0  0  0  0  0  0  0
  157.5720  214.2820  149.1220 C   0  0  0  0  0  2  0  0  0  0  0  0
  158.6940  212.7620  151.3110 O   0  0  0  0  0  0  0  0  0  0  0  0
  157.6160  213.7100  150.8350 P   0  0  0  0  0  0  0  0  0  0  0  0
  163.5090  214.2900  146.1270 O   0  0  0  0  0  1  0  0  0  0  0  0
  162.5180  213.3980  145.7180 C   0  0  2  0  0  3  0  0  0  0  0  0
  161.9880  213.8080  144.3490 C   0  0  0  0  0  2  0  0  0  0  0  0
  161.9000  212.6240  143.3960 C   0  0  0  0  0  2  0  0  0  0  0  0
  160.5890  211.6350  141.5070 C   0  0  0  0  0  1  0  0  0  0  0  0
  160.6030  212.6850  142.6050 C   0  0  0  0  0  3  0  0  0  0  0  0
  159.4250  212.4640  143.5260 C   0  0  0  0  0  1  0  0  0  0  0  0
  162.7380  210.5320  155.1260 C   0  0  0  0  0  2  0  0  0  0  0  0
  162.2850  208.5420  156.3580 O   0  0  0  0  0  0  0  0  0  0  0  0
  161.9120  209.7140  156.0620 C   0  0  0  0  0  0  0  0  0  0  0  0
  160.0530  211.4710  156.3680 C   0  0  0  0  0  0  0  0  0  0  0  0
  160.7300  210.2450  156.6920 N   0  0  0  0  0  2  0  0  0  0  0  0
  158.9560  211.9520  157.2520 C   0  0  0  0  0  1  0  0  0  0  0  0
  160.3600  212.1550  155.3150 N   0  0  0  0  0  2  0  0  0  0  0  0
  1  5  1  0  0  0  0
  2 10  2  0  0  0  0
  3 10  1  0  0  0  0
  4  8  2  0  0  0  0
  5 12  2  0  0  0  0
  6  9  1  0  0  0  0
  6 12  1  0  0  0  0
  7  6  2  0  0  0  0
  8  3  1  0  0  0  0
  9 14  1  1  0  0  0
  9  4  1  0  0  0  0
 10 55  1  0  0  0  0
 11  7  1  0  0  0  0
 11  1  2  0  0  0  0
 12  8  1  0  0  0  0
 13 18  2  0  0  0  0
 13 14  1  0  0  0  0
 14 15  2  0  0  0  0
 16 15  1  0  0  0  0
 17 13  1  0  0  0  0
 18 19  1  0  0  0  0
 19 16  2  0  0  0  0
 20 19  1  0  0  0  0
 21 20  1  0  0  0  0
 22 21  1  0  0  0  0
 23 28  1  6  0  0  0
 23 25  1  0  0  0  0
 23 26  1  0  0  0  0
 24 21  1  1  0  0  0
 25 24  1  0  0  0  0
 26 24  1  0  0  0  0
 27 28  1  0  0  0  0
 29 23  1  0  0  0  0
 30 31  1  0  0  0  0
 30 29  1  0  0  0  0
 31 32  1  0  0  0  0
 33 32  1  0  0  0  0
 35  1  1  0  0  0  0
 35 34  1  1  0  0  0
 36 37  1  0  0  0  0
 38 42  2  0  0  0  0
 38 40  1  0  0  0  0
 39 35  1  0  0  0  0
 39 36  2  0  0  0  0
 40 41  2  0  0  0  0
 41 45  1  0  0  0  0
 41 37  1  0  0  0  0
 42 39  1  0  0  0  0
 43 47  1  0  0  0  0
 45 43  1  0  0  0  0
 47 46  2  0  0  0  0
 47 44  2  0  0  0  0
 49 48  1  1  0  0  0
 49 42  1  0  0  0  0
 50 49  1  0  0  0  0
 51 50  1  0  0  0  0
 52 53  1  0  0  0  0
 53 51  1  0  0  0  0
 53 54  1  0  0  0  0
 55 57  1  0  0  0  0
 57 56  2  0  0  0  0
 57 59  1  0  0  0  0
 58 59  1  0  0  0  0
 58 60  1  0  0  0  0
 61 58  2  0  0  0  0
M  END
>  <MODEL>
1

>  <REMARK>
 VINA RESULT:      -4.8      0.000      0.000
  Name = 
  18 active torsions:
  status: ('A' for Active; 'I' for Inactive)
    1  A    between atoms: C_2  and  C_40
    2  A    between atoms: C_7  and  C_30
    3  A    between atoms: C_7  and  C_49
    4  A    between atoms: N_11  and  C_36
    5  A    between atoms: C_15  and  C_18
    6  A    between atoms: C_17  and  C_41
    7  A    between atoms: C_18  and  C_48
    8  A    between atoms: C_20  and  C_40
    9  A    between atoms: C_21  and  C_22
   10  A    between atoms: C_21  and  C_53
   11  A    between atoms: C_22  and  C_46
   12  A    between atoms: C_23  and  C_30
   13  A    between atoms: N_24  and  C_38
   14  A    between atoms: N_24  and  C_43
   15  A    between atoms: C_32  and  C_44
   16  A    between atoms: C_36  and  C_49
   17  A    between atoms: C_38  and  C_58
   18  A    between atoms: C_42  and  C_53
                            x       y       z     vdW  Elec       q    Type
                         _______ _______ _______ _____ _____    ______ ____

>  <TORSDO>
F 18

$$$$
=
 OpenBabel11052412013D

 61 65  0  0  1  0  0  0  0  0999 V2000
  161.6160  210.0530  150.6730 C   0  0  0  0  0  0  0  0  0  0  0  0
  158.3490  211.4750  152.4520 O   0  0  0  0  0  0  0  0  0  0  0  0
  159.0820  213.6830  152.1070 N   0  0  0  0  0  2  0  0  0  0  0  0
  160.2800  214.4530  150.1970 N   0  0  0  0  0  0  0  0  0  0  0  0
  160.7790  211.0290  151.2520 C   0  0  0  0  0  3  0  0  0  0  0  0
  161.2550  212.5070  149.4010 C   0  0  0  0  0  0  0  0  0  0  0  0
  162.1100  211.5710  148.8140 C   0  0  0  0  0  3  0  0  0  0  0  0
  159.9950  213.4870  151.0160 C   0  0  0  0  0  0  0  0  0  0  0  0
  161.0890  213.9570  149.0790 C   0  0  1  0  0  3  0  0  0  0  0  0
  158.2290  212.7050  152.7210 C   0  0  0  0  0  0  0  0  0  0  0  0
  162.2720  210.3270  149.4500 C   0  0  0  0  0  3  0  0  0  0  0  0
  160.5980  212.2370  150.5760 C   0  0  0  0  0  0  0  0  0  0  0  0
  158.9860  214.0020  147.6730 C   0  0  0  0  0  0  0  0  0  0  0  0
  160.3730  214.2180  147.7700 C   0  0  0  0  0  0  0  0  0  0  0  0
  161.1020  214.4470  146.5970 C   0  0  0  0  0  3  0  0  0  0  0  0
  160.4540  214.4360  145.3580 C   0  0  0  0  0  3  0  0  0  0  0  0
  158.1760  213.6400  148.8780 C   0  0  0  0  0  1  0  0  0  0  0  0
  158.3750  214.0000  146.4550 N   0  0  0  0  0  0  0  0  0  0  0  0
  159.0840  214.1810  145.3060 C   0  0  0  0  0  0  0  0  0  0  0  0
  158.4100  214.0600  143.9760 C   0  0  0  0  0  2  0  0  0  0  0  0
  159.3410  213.5370  142.9840 N   0  0  0  0  0  0  0  0  0  0  0  0
  159.7020  212.2960  143.3930 O   0  0  0  0  0  1  0  0  0  0  0  0
  159.6220  213.3080  139.9650 C   0  0  1  0  0  0  0  0  0  0  0  0
  158.6280  213.4520  141.7050 C   0  0  1  0  0  3  0  0  0  0  0  0
  159.2140  214.3660  140.8000 O   0  0  0  0  0  0  0  0  0  0  0  0
  159.0380  212.2510  140.8690 C   0  0  0  0  0  2  0  0  0  0  0  0
  158.2750  212.1770  138.3130 O   0  0  0  0  0  1  0  0  0  0  0  0
  158.8850  213.3940  138.6310 C   0  0  0  0  0  2  0  0  0  0  0  0
  161.1420  213.2430  139.7650 C   0  0  0  0  0  2  0  0  0  0  0  0
  161.5950  213.2830  138.3010 C   0  0  0  0  0  2  0  0  0  0  0  0
  163.1000  213.0950  138.1950 C   0  0  0  0  0  2  0  0  0  0  0  0
  163.6270  212.5630  139.4450 N   0  0  0  0  0  2  0  0  0  0  0  0
  163.7560  211.2290  139.2720 O   0  0  0  0  0  1  0  0  0  0  0  0
  162.9540  208.7470  152.1530 O   0  0  0  0  0  1  0  0  0  0  0  0
  161.8260  208.7170  151.3240 C   0  0  2  0  0  3  0  0  0  0  0  0
  162.5000  207.7480  149.2090 C   0  0  0  0  0  3  0  0  0  0  0  0
  162.6960  206.7120  148.1500 C   0  0  0  0  0  2  0  0  0  0  0  0
  160.5410  205.4830  149.7480 C   0  0  0  0  0  3  0  0  0  0  0  0
  161.8300  207.5510  150.3540 C   0  0  0  0  0  0  0  0  0  0  0  0
  160.4620  205.6950  148.2880 C   0  0  0  0  0  3  0  0  0  0  0  0
  161.3900  206.2900  147.5430 C   0  0  0  0  0  0  0  0  0  0  0  0
  161.1480  206.2530  150.6740 C   0  0  0  0  0  0  0  0  0  0  0  0
  162.2500  205.8870  145.3760 O   0  0  0  0  0  0  0  0  0  0  0  0
  160.5570  204.2910  143.8440 O   0  0  0  0  0  0  0  0  0  0  0  0
  161.1660  206.3180  146.0550 C   0  0  0  0  0  2  0  0  0  0  0  0
  161.6000  203.4630  146.2010 O   0  0  0  0  0  0  0  0  0  0  0  0
  161.0370  204.6310  145.4240 P   0  0  0  0  0  0  0  0  0  0  0  0
  162.3660  205.9180  152.6790 O   0  0  0  0  0  1  0  0  0  0  0  0
  161.1070  205.7670  152.0980 C   0  0  2  0  0  3  0  0  0  0  0  0
  160.6650  204.3110  152.1940 C   0  0  0  0  0  2  0  0  0  0  0  0
  160.3570  203.7200  150.8240 C   0  0  0  0  0  2  0  0  0  0  0  0
  162.0350  202.1490  151.8160 C   0  0  0  0  0  1  0  0  0  0  0  0
  161.2210  202.4930  150.5790 C   0  0  0  0  0  3  0  0  0  0  0  0
  160.3530  201.3140  150.2050 C   0  0  0  0  0  1  0  0  0  0  0  0
  157.0930  213.1650  153.5820 C   0  0  0  0  0  2  0  0  0  0  0  0
  158.4000  214.0900  155.3480 O   0  0  0  0  0  0  0  0  0  0  0  0
  157.4870  213.2780  155.0170 C   0  0  0  0  0  0  0  0  0  0  0  0
  155.8840  211.4510  155.8700 C   0  0  0  0  0  0  0  0  0  0  0  0
  156.8140  212.5320  156.0500 N   0  0  0  0  0  2  0  0  0  0  0  0
  155.1430  210.9250  157.0500 C   0  0  0  0  0  1  0  0  0  0  0  0
  155.6910  210.9100  154.7130 N   0  0  0  0  0  2  0  0  0  0  0  0
  1  5  1  0  0  0  0
  1 35  1  0  0  0  0
  2 10  2  0  0  0  0
  3 10  1  0  0  0  0
  4  8  2  0  0  0  0
  6 12  1  0  0  0  0
  7  6  2  0  0  0  0
  7 11  1  0  0  0  0
  8  3  1  0  0  0  0
  9 14  1  6  0  0  0
  9  6  1  0  0  0  0
  9  4  1  0  0  0  0
 10 55  1  0  0  0  0
 11  1  2  0  0  0  0
 12  8  1  0  0  0  0
 12  5  2  0  0  0  0
 13 14  1  0  0  0  0
 13 17  1  0  0  0  0
 15 14  2  0  0  0  0
 16 15  1  0  0  0  0
 18 13  2  0  0  0  0
 19 16  2  0  0  0  0
 19 18  1  0  0  0  0
 20 19  1  0  0  0  0
 21 22  1  0  0  0  0
 21 20  1  0  0  0  0
 23 28  1  6  0  0  0
 23 25  1  0  0  0  0
 23 26  1  0  0  0  0
 24 21  1  1  0  0  0
 25 24  1  0  0  0  0
 26 24  1  0  0  0  0
 27 28  1  0  0  0  0
 29 23  1  0  0  0  0
 30 29  1  0  0  0  0
 31 30  1  0  0  0  0
 31 32  1  0  0  0  0
 33 32  1  0  0  0  0
 35 34  1  6  0  0  0
 36 39  2  0  0  0  0
 37 36  1  0  0  0  0
 38 42  2  0  0  0  0
 39 42  1  0  0  0  0
 39 35  1  0  0  0  0
 40 38  1  0  0  0  0
 41 37  1  0  0  0  0
 41 40  2  0  0  0  0
 42 49  1  0  0  0  0
 43 47  1  0  0  0  0
 43 45  1  0  0  0  0
 44 47  2  0  0  0  0
 45 41  1  0  0  0  0
 47 46  2  0  0  0  0
 49 50  1  0  0  0  0
 49 48  1  6  0  0  0
 51 50  1  0  0  0  0
 53 51  1  0  0  0  0
 53 52  1  0  0  0  0
 54 53  1  0  0  0  0
 55 57  1  0  0  0  0
 57 56  2  0  0  0  0
 57 59  1  0  0  0  0
 58 59  1  0  0  0  0
 58 60  1  0  0  0  0
 61 58  2  0  0  0  0
M  END
>  <MODEL>
2

>  <REMARK>
 VINA RESULT:      -4.3      4.018      9.857
  Name = 
  18 active torsions:
  status: ('A' for Active; 'I' for Inactive)
    1  A    between atoms: C_2  and  C_40
    2  A    between atoms: C_7  and  C_30
    3  A    between atoms: C_7  and  C_49
    4  A    between atoms: N_11  and  C_36
    5  A    between atoms: C_15  and  C_18
    6  A    between atoms: C_17  and  C_41
    7  A    between atoms: C_18  and  C_48
    8  A    between atoms: C_20  and  C_40
    9  A    between atoms: C_21  and  C_22
   10  A    between atoms: C_21  and  C_53
   11  A    between atoms: C_22  and  C_46
   12  A    between atoms: C_23  and  C_30
   13  A    between atoms: N_24  and  C_38
   14  A    between atoms: N_24  and  C_43
   15  A    between atoms: C_32  and  C_44
   16  A    between atoms: C_36  and  C_49
   17  A    between atoms: C_38  and  C_58
   18  A    between atoms: C_42  and  C_53
                            x       y       z     vdW  Elec       q    Type
                         _______ _______ _______ _____ _____    ______ ____

>  <TORSDO>
F 18

$$$$
=
 OpenBabel11052412013D

 61 65  0  0  1  0  0  0  0  0999 V2000
  161.6220  211.2810  147.7560 C   0  0  0  0  0  0  0  0  0  0  0  0
  160.9020  207.5160  146.6780 O   0  0  0  0  0  0  0  0  0  0  0  0
  162.4220  206.7280  148.2920 N   0  0  0  0  0  2  0  0  0  0  0  0
  162.7740  207.6970  150.4400 N   0  0  0  0  0  0  0  0  0  0  0  0
  161.8180  209.8850  147.7220 C   0  0  0  0  0  3  0  0  0  0  0  0
  162.0620  209.8800  150.1260 C   0  0  0  0  0  0  0  0  0  0  0  0
  161.8950  211.2660  150.1920 C   0  0  0  0  0  3  0  0  0  0  0  0
  162.4500  207.8470  149.1910 C   0  0  0  0  0  0  0  0  0  0  0  0
  162.5570  208.9440  151.1800 C   0  0  1  0  0  3  0  0  0  0  0  0
  161.5940  206.5590  147.1320 C   0  0  0  0  0  0  0  0  0  0  0  0
  161.6530  211.9640  148.9950 C   0  0  0  0  0  3  0  0  0  0  0  0
  162.0090  209.2090  148.9290 C   0  0  0  0  0  0  0  0  0  0  0  0
  160.7980  209.7780  152.7970 C   0  0  0  0  0  0  0  0  0  0  0  0
  161.5720  208.7090  152.3060 C   0  0  0  0  0  0  0  0  0  0  0  0
  161.5850  207.5050  153.0210 C   0  0  0  0  0  3  0  0  0  0  0  0
  160.8560  207.3880  154.2080 C   0  0  0  0  0  3  0  0  0  0  0  0
  160.8360  211.1210  152.1400 C   0  0  0  0  0  1  0  0  0  0  0  0
  160.0930  209.6400  153.9550 N   0  0  0  0  0  0  0  0  0  0  0  0
  160.1340  208.4860  154.6770 C   0  0  0  0  0  0  0  0  0  0  0  0
  159.4430  208.3990  156.0010 C   0  0  0  0  0  2  0  0  0  0  0  0
  160.0560  209.3180  156.9510 N   0  0  0  0  0  0  0  0  0  0  0  0
  161.2780  208.8160  157.2600 O   0  0  0  0  0  1  0  0  0  0  0  0
  158.7950  212.0380  156.4440 C   0  0  1  0  0  0  0  0  0  0  0  0
  160.2050  210.6150  156.2840 C   0  0  1  0  0  3  0  0  0  0  0  0
  158.9980  210.9190  155.6130 O   0  0  0  0  0  0  0  0  0  0  0  0
  160.0600  211.7960  157.2290 C   0  0  0  0  0  2  0  0  0  0  0  0
  159.3430  214.3860  156.3740 O   0  0  0  0  0  1  0  0  0  0  0  0
  158.8700  213.3150  155.6110 C   0  0  0  0  0  2  0  0  0  0  0  0
  157.4900  211.9680  157.2490 C   0  0  0  0  0  2  0  0  0  0  0  0
  156.2160  211.9510  156.3990 C   0  0  0  0  0  2  0  0  0  0  0  0
  155.5600  210.5810  156.4350 C   0  0  0  0  0  2  0  0  0  0  0  0
  154.3600  210.6210  157.2600 N   0  0  0  0  0  2  0  0  0  0  0  0
  153.4950  209.7310  156.7250 O   0  0  0  0  0  1  0  0  0  0  0  0
  162.5250  212.7670  146.1250 O   0  0  0  0  0  1  0  0  0  0  0  0
  161.3730  212.0670  146.5030 C   0  0  2  0  0  3  0  0  0  0  0  0
  159.8680  213.5000  147.7470 C   0  0  0  0  0  3  0  0  0  0  0  0
  158.7470  214.4530  148.0060 C   0  0  0  0  0  2  0  0  0  0  0  0
  157.9450  213.3380  145.3950 C   0  0  0  0  0  3  0  0  0  0  0  0
  160.1360  212.9420  146.5570 C   0  0  0  0  0  0  0  0  0  0  0  0
  157.0680  213.3580  146.5840 C   0  0  0  0  0  3  0  0  0  0  0  0
  157.4120  213.8060  147.7890 C   0  0  0  0  0  0  0  0  0  0  0  0
  159.2840  213.1850  145.3460 C   0  0  0  0  0  0  0  0  0  0  0  0
  156.2460  212.6570  149.4970 O   0  0  0  0  0  0  0  0  0  0  0  0
  156.2050  214.0780  151.8930 O   0  0  0  0  0  0  0  0  0  0  0  0
  156.3390  213.8350  148.8450 C   0  0  0  0  0  2  0  0  0  0  0  0
  158.5080  213.3210  150.6870 O   0  0  0  0  0  0  0  0  0  0  0  0
  157.0950  213.8200  150.4860 P   0  0  0  0  0  0  0  0  0  0  0  0
  159.1950  214.1040  143.1630 O   0  0  0  0  0  1  0  0  0  0  0  0
  159.9270  213.2490  143.9860 C   0  0  2  0  0  3  0  0  0  0  0  0
  160.0330  211.8740  143.3370 C   0  0  0  0  0  2  0  0  0  0  0  0
  159.8890  211.9480  141.8220 C   0  0  0  0  0  2  0  0  0  0  0  0
  160.7020  210.4140  140.0200 C   0  0  0  0  0  1  0  0  0  0  0  0
  161.1110  211.3410  141.1520 C   0  0  0  0  0  3  0  0  0  0  0  0
  162.0000  212.4360  140.6080 C   0  0  0  0  0  1  0  0  0  0  0  0
  161.4400  205.1910  146.5390 C   0  0  0  0  0  2  0  0  0  0  0  0
  161.5660  204.4360  148.7970 O   0  0  0  0  0  0  0  0  0  0  0  0
  161.3390  204.1350  147.5890 C   0  0  0  0  0  0  0  0  0  0  0  0
  160.7930  202.2090  145.9670 C   0  0  0  0  0  0  0  0  0  0  0  0
  160.9290  202.7890  147.2750 N   0  0  0  0  0  2  0  0  0  0  0  0
  160.1750  200.8610  145.8290 C   0  0  0  0  0  1  0  0  0  0  0  0
  161.2140  202.8210  144.9090 N   0  0  0  0  0  2  0  0  0  0  0  0
  1 11  1  0  0  0  0
  2 10  2  0  0  0  0
  3  8  1  0  0  0  0
  4  9  1  0  0  0  0
  5  1  2  0  0  0  0
  5 12  1  0  0  0  0
  6  7  1  0  0  0  0
  6  9  1  0  0  0  0
  8  4  2  0  0  0  0
  9 14  1  1  0  0  0
 10  3  1  0  0  0  0
 11  7  2  0  0  0  0
 12  8  1  0  0  0  0
 12  6  2  0  0  0  0
 13 18  1  0  0  0  0
 14 13  2  0  0  0  0
 14 15  1  0  0  0  0
 15 16  2  0  0  0  0
 16 19  1  0  0  0  0
 17 13  1  0  0  0  0
 18 19  2  0  0  0  0
 19 20  1  0  0  0  0
 20 21  1  0  0  0  0
 21 22  1  0  0  0  0
 23 28  1  6  0  0  0
 23 26  1  0  0  0  0
 23 29  1  0  0  0  0
 24 21  1  1  0  0  0
 24 26  1  0  0  0  0
 25 24  1  0  0  0  0
 25 23  1  0  0  0  0
 28 27  1  0  0  0  0
 30 31  1  0  0  0  0
 30 29  1  0  0  0  0
 31 32  1  0  0  0  0
 33 32  1  0  0  0  0
 35 34  1  1  0  0  0
 35 39  1  0  0  0  0
 35  1  1  0  0  0  0
 36 37  1  0  0  0  0
 38 40  1  0  0  0  0
 39 36  2  0  0  0  0
 40 41  2  0  0  0  0
 41 37  1  0  0  0  0
 41 45  1  0  0  0  0
 42 38  2  0  0  0  0
 42 39  1  0  0  0  0
 43 47  1  0  0  0  0
 45 43  1  0  0  0  0
 47 46  2  0  0  0  0
 47 44  2  0  0  0  0
 49 48  1  6  0  0  0
 49 42  1  0  0  0  0
 50 49  1  0  0  0  0
 51 50  1  0  0  0  0
 52 53  1  0  0  0  0
 53 51  1  0  0  0  0
 54 53  1  0  0  0  0
 55 10  1  0  0  0  0
 55 57  1  0  0  0  0
 57 56  2  0  0  0  0
 58 59  1  0  0  0  0
 59 57  1  0  0  0  0
 60 58  1  0  0  0  0
 61 58  2  0  0  0  0
M  END
>  <MODEL>
3

>  <REMARK>
 VINA RESULT:      -4.1      2.358      8.545
  Name = 
  18 active torsions:
  status: ('A' for Active; 'I' for Inactive)
    1  A    between atoms: C_2  and  C_40
    2  A    between atoms: C_7  and  C_30
    3  A    between atoms: C_7  and  C_49
    4  A    between atoms: N_11  and  C_36
    5  A    between atoms: C_15  and  C_18
    6  A    between atoms: C_17  and  C_41
    7  A    between atoms: C_18  and  C_48
    8  A    between atoms: C_20  and  C_40
    9  A    between atoms: C_21  and  C_22
   10  A    between atoms: C_21  and  C_53
   11  A    between atoms: C_22  and  C_46
   12  A    between atoms: C_23  and  C_30
   13  A    between atoms: N_24  and  C_38
   14  A    between atoms: N_24  and  C_43
   15  A    between atoms: C_32  and  C_44
   16  A    between atoms: C_36  and  C_49
   17  A    between atoms: C_38  and  C_58
   18  A    between atoms: C_42  and  C_53
                            x       y       z     vdW  Elec       q    Type
                         _______ _______ _______ _____ _____    ______ ____

>  <TORSDO>
F 18

$$$$
=
 OpenBabel11052412013D

 61 65  0  0  1  0  0  0  0  0999 V2000
  160.0670  208.5520  155.2710 C   0  0  0  0  0  0  0  0  0  0  0  0
  159.7960  210.7580  151.9660 O   0  0  0  0  0  0  0  0  0  0  0  0
  161.8860  209.9690  151.2290 N   0  0  0  0  0  2  0  0  0  0  0  0
  162.7250  207.7650  151.5700 N   0  0  0  0  0  0  0  0  0  0  0  0
  160.5140  209.1520  154.0760 C   0  0  0  0  0  3  0  0  0  0  0  0
  161.5300  207.0590  153.4260 C   0  0  0  0  0  0  0  0  0  0  0  0
  161.1230  206.4400  154.6110 C   0  0  0  0  0  3  0  0  0  0  0  0
  161.9850  208.7500  151.9810 C   0  0  0  0  0  0  0  0  0  0  0  0
  162.5200  206.5830  152.4120 C   0  0  1  0  0  3  0  0  0  0  0  0
  160.7740  210.8750  151.1720 C   0  0  0  0  0  0  0  0  0  0  0  0
  160.3670  207.1930  155.5280 C   0  0  0  0  0  3  0  0  0  0  0  0
  161.2210  208.3700  153.1610 C   0  0  0  0  0  0  0  0  0  0  0  0
  161.3710  205.6800  150.3460 C   0  0  0  0  0  0  0  0  0  0  0  0
  162.0270  205.4270  151.5660 C   0  0  0  0  0  0  0  0  0  0  0  0
  162.0050  204.1270  152.0840 C   0  0  0  0  0  3  0  0  0  0  0  0
  161.3230  203.1140  151.4030 C   0  0  0  0  0  3  0  0  0  0  0  0
  161.2630  207.0700  149.8020 C   0  0  0  0  0  1  0  0  0  0  0  0
  160.7160  204.6760  149.6980 N   0  0  0  0  0  0  0  0  0  0  0  0
  160.6550  203.4190  150.2170 C   0  0  0  0  0  0  0  0  0  0  0  0
  159.8350  202.3630  149.5450 C   0  0  0  0  0  2  0  0  0  0  0  0
  160.6440  201.1750  149.3000 N   0  0  0  0  0  0  0  0  0  0  0  0
  160.2050  200.2130  150.1510 O   0  0  0  0  0  1  0  0  0  0  0  0
  160.7390  202.0120  146.3790 C   0  0  1  0  0  0  0  0  0  0  0  0
  160.4120  200.7570  147.9140 C   0  0  1  0  0  3  0  0  0  0  0  0
  159.6670  201.7640  147.2580 O   0  0  0  0  0  0  0  0  0  0  0  0
  161.6200  200.9670  147.0160 C   0  0  0  0  0  2  0  0  0  0  0  0
  159.4540  202.5770  144.4170 O   0  0  0  0  0  1  0  0  0  0  0  0
  160.3340  201.6350  144.9570 C   0  0  0  0  0  2  0  0  0  0  0  0
  161.2610  203.4540  146.4510 C   0  0  0  0  0  2  0  0  0  0  0  0
  161.6240  204.0690  145.0950 C   0  0  0  0  0  2  0  0  0  0  0  0
  162.6750  205.1550  145.2590 C   0  0  0  0  0  2  0  0  0  0  0  0
  162.1260  206.2730  146.0140 N   0  0  0  0  0  2  0  0  0  0  0  0
  160.8090  206.3300  145.7150 O   0  0  0  0  0  1  0  0  0  0  0  0
  157.9730  208.8000  156.3830 O   0  0  0  0  0  1  0  0  0  0  0  0
  159.2690  209.3210  156.2820 C   0  0  2  0  0  3  0  0  0  0  0  0
  158.1360  211.4610  156.3030 C   0  0  0  0  0  3  0  0  0  0  0  0
  157.9550  212.9430  156.2350 C   0  0  0  0  0  2  0  0  0  0  0  0
  160.5510  212.6300  154.8670 C   0  0  0  0  0  3  0  0  0  0  0  0
  159.2930  210.8230  156.0760 C   0  0  0  0  0  0  0  0  0  0  0  0
  159.3970  213.3450  154.2850 C   0  0  0  0  0  3  0  0  0  0  0  0
  158.1980  213.4640  154.8490 C   0  0  0  0  0  0  0  0  0  0  0  0
  160.5440  211.5460  155.6700 C   0  0  0  0  0  0  0  0  0  0  0  0
  156.9280  213.8700  152.8950 O   0  0  0  0  0  0  0  0  0  0  0  0
  154.2100  214.1550  153.4360 O   0  0  0  0  0  0  0  0  0  0  0  0
  157.1840  214.3220  154.1400 C   0  0  0  0  0  2  0  0  0  0  0  0
  155.5910  211.9100  154.0560 O   0  0  0  0  0  0  0  0  0  0  0  0
  155.6290  213.4190  153.9720 P   0  0  0  0  0  0  0  0  0  0  0  0
  162.2840  211.7960  157.2600 O   0  0  0  0  0  1  0  0  0  0  0  0
  161.8800  211.0480  156.1540 C   0  0  2  0  0  3  0  0  0  0  0  0
  162.9460  211.1190  155.0660 C   0  0  0  0  0  2  0  0  0  0  0  0
  164.3300  210.7760  155.6040 C   0  0  0  0  0  2  0  0  0  0  0  0
  165.7570  212.1630  157.1210 C   0  0  0  0  0  1  0  0  0  0  0  0
  165.1690  212.0380  155.7260 C   0  0  0  0  0  3  0  0  0  0  0  0
  166.2870  212.0170  154.7090 C   0  0  0  0  0  1  0  0  0  0  0  0
  160.7080  211.8820  150.0640 C   0  0  0  0  0  2  0  0  0  0  0  0
  162.5810  210.8000  149.0610 O   0  0  0  0  0  0  0  0  0  0  0  0
  161.5200  211.4670  148.8830 C   0  0  0  0  0  0  0  0  0  0  0  0
  160.0330  212.6260  147.1280 C   0  0  0  0  0  0  0  0  0  0  0  0
  161.0980  211.7500  147.5340 N   0  0  0  0  0  2  0  0  0  0  0  0
  159.6170  212.6490  145.6980 C   0  0  0  0  0  1  0  0  0  0  0  0
  159.4430  213.4090  147.9690 N   0  0  0  0  0  2  0  0  0  0  0  0
  1 11  1  0  0  0  0
  1 35  1  0  0  0  0
  3  8  1  0  0  0  0
  4  8  2  0  0  0  0
  4  9  1  0  0  0  0
  5  1  2  0  0  0  0
  6  7  1  0  0  0  0
  7 11  2  0  0  0  0
  8 12  1  0  0  0  0
  9 14  1  6  0  0  0
  9  6  1  0  0  0  0
 10  3  1  0  0  0  0
 10  2  2  0  0  0  0
 12  6  2  0  0  0  0
 12  5  1  0  0  0  0
 13 14  1  0  0  0  0
 14 15  2  0  0  0  0
 16 15  1  0  0  0  0
 17 13  1  0  0  0  0
 18 19  1  0  0  0  0
 18 13  2  0  0  0  0
 19 16  2  0  0  0  0
 20 19  1  0  0  0  0
 21 20  1  0  0  0  0
 21 22  1  0  0  0  0
 23 28  1  6  0  0  0
 23 29  1  0  0  0  0
 23 26  1  0  0  0  0
 23 25  1  0  0  0  0
 24 21  1  1  0  0  0
 25 24  1  0  0  0  0
 26 24  1  0  0  0  0
 27 28  1  0  0  0  0
 30 31  1  0  0  0  0
 30 29  1  0  0  0  0
 31 32  1  0  0  0  0
 33 32  1  0  0  0  0
 35 34  1  6  0  0  0
 37 36  1  0  0  0  0
 38 42  2  0  0  0  0
 39 35  1  0  0  0  0
 39 36  2  0  0  0  0
 40 41  2  0  0  0  0
 40 38  1  0  0  0  0
 41 37  1  0  0  0  0
 42 39  1  0  0  0  0
 42 49  1  0  0  0  0
 43 47  1  0  0  0  0
 43 45  1  0  0  0  0
 44 47  2  0  0  0  0
 45 41  1  0  0  0  0
 47 46  2  0  0  0  0
 49 48  1  1  0  0  0
 50 51  1  0  0  0  0
 50 49  1  0  0  0  0
 51 53  1  0  0  0  0
 53 52  1  0  0  0  0
 54 53  1  0  0  0  0
 55 10  1  0  0  0  0
 57 56  2  0  0  0  0
 57 55  1  0  0  0  0
 58 59  1  0  0  0  0
 58 61  2  0  0  0  0
 59 57  1  0  0  0  0
 60 58  1  0  0  0  0
M  END
>  <MODEL>
4

>  <REMARK>
 VINA RESULT:      -3.7      2.439      6.611
  Name = 
  18 active torsions:
  status: ('A' for Active; 'I' for Inactive)
    1  A    between atoms: C_2  and  C_40
    2  A    between atoms: C_7  and  C_30
    3  A    between atoms: C_7  and  C_49
    4  A    between atoms: N_11  and  C_36
    5  A    between atoms: C_15  and  C_18
    6  A    between atoms: C_17  and  C_41
    7  A    between atoms: C_18  and  C_48
    8  A    between atoms: C_20  and  C_40
    9  A    between atoms: C_21  and  C_22
   10  A    between atoms: C_21  and  C_53
   11  A    between atoms: C_22  and  C_46
   12  A    between atoms: C_23  and  C_30
   13  A    between atoms: N_24  and  C_38
   14  A    between atoms: N_24  and  C_43
   15  A    between atoms: C_32  and  C_44
   16  A    between atoms: C_36  and  C_49
   17  A    between atoms: C_38  and  C_58
   18  A    between atoms: C_42  and  C_53
                            x       y       z     vdW  Elec       q    Type
                         _______ _______ _______ _____ _____    ______ ____

>  <TORSDO>
F 18

$$$$
=
 OpenBabel11052412013D

 61 65  0  0  1  0  0  0  0  0999 V2000
  161.8150  210.7660  150.5200 C   0  0  0  0  0  0  0  0  0  0  0  0
  162.6640  207.6820  148.1490 O   0  0  0  0  0  0  0  0  0  0  0  0
  160.9030  208.2650  146.7030 N   0  0  0  0  0  2  0  0  0  0  0  0
  160.2240  210.4900  146.1870 N   0  0  0  0  0  0  0  0  0  0  0  0
  161.6150  209.8520  149.4660 C   0  0  0  0  0  3  0  0  0  0  0  0
  160.9950  211.6840  148.0190 C   0  0  0  0  0  0  0  0  0  0  0  0
  161.1600  212.6140  149.0470 C   0  0  0  0  0  3  0  0  0  0  0  0
  160.7430  209.6530  147.0350 C   0  0  0  0  0  0  0  0  0  0  0  0
  160.3320  211.8630  146.6910 C   0  0  1  0  0  3  0  0  0  0  0  0
  161.9020  207.3580  147.1930 C   0  0  0  0  0  0  0  0  0  0  0  0
  161.5940  212.1480  150.3020 C   0  0  0  0  0  3  0  0  0  0  0  0
  161.2300  210.3460  148.2180 C   0  0  0  0  0  0  0  0  0  0  0  0
  160.4550  213.5710  144.8280 C   0  0  0  0  0  0  0  0  0  0  0  0
  161.1250  212.7070  145.7150 C   0  0  0  0  0  0  0  0  0  0  0  0
  162.4920  212.4740  145.5220 C   0  0  0  0  0  3  0  0  0  0  0  0
  163.1600  213.0760  144.4520 C   0  0  0  0  0  3  0  0  0  0  0  0
  158.9740  213.7690  144.9160 C   0  0  0  0  0  1  0  0  0  0  0  0
  161.1280  214.1510  143.7950 N   0  0  0  0  0  0  0  0  0  0  0  0
  162.4470  213.8950  143.5760 C   0  0  0  0  0  0  0  0  0  0  0  0
  163.1340  214.4520  142.3690 C   0  0  0  0  0  2  0  0  0  0  0  0
  162.5460  213.9000  141.1540 N   0  0  0  0  0  0  0  0  0  0  0  0
  163.4370  214.1080  140.1520 O   0  0  0  0  0  1  0  0  0  0  0  0
  161.5540  211.2970  139.9370 C   0  0  1  0  0  0  0  0  0  0  0  0
  162.3590  212.4610  141.3630 C   0  0  1  0  0  3  0  0  0  0  0  0
  161.0470  212.1150  140.9650 O   0  0  0  0  0  0  0  0  0  0  0  0
  162.9910  211.6100  140.2750 C   0  0  0  0  0  2  0  0  0  0  0  0
  161.5640  209.0170  139.1490 O   0  0  0  0  0  1  0  0  0  0  0  0
  161.2010  209.8400  140.2200 C   0  0  0  0  0  2  0  0  0  0  0  0
  161.0940  211.7250  138.5360 C   0  0  0  0  0  2  0  0  0  0  0  0
  159.5970  211.5300  138.2700 C   0  0  0  0  0  2  0  0  0  0  0  0
  158.8350  212.8260  138.4920 C   0  0  0  0  0  2  0  0  0  0  0  0
  157.4000  212.5800  138.4270 N   0  0  0  0  0  2  0  0  0  0  0  0
  157.2180  211.2780  138.7430 O   0  0  0  0  0  1  0  0  0  0  0  0
  163.5720  210.7450  152.1310 O   0  0  0  0  0  1  0  0  0  0  0  0
  162.2650  210.3110  151.8770 C   0  0  2  0  0  3  0  0  0  0  0  0
  162.6870  208.0060  151.2670 C   0  0  0  0  0  3  0  0  0  0  0  0
  162.6910  206.5150  151.3710 C   0  0  0  0  0  2  0  0  0  0  0  0
  160.5070  207.2020  153.2320 C   0  0  0  0  0  3  0  0  0  0  0  0
  162.0700  208.8280  152.1280 C   0  0  0  0  0  0  0  0  0  0  0  0
  160.3640  206.2450  152.1160 C   0  0  0  0  0  3  0  0  0  0  0  0
  161.3090  205.9480  151.2280 C   0  0  0  0  0  0  0  0  0  0  0  0
  161.2580  208.3220  153.2840 C   0  0  0  0  0  0  0  0  0  0  0  0
  162.0520  204.0490  150.0290 O   0  0  0  0  0  0  0  0  0  0  0  0
  160.3160  201.8860  150.2870 O   0  0  0  0  0  0  0  0  0  0  0  0
  160.9990  204.8690  150.2260 C   0  0  0  0  0  2  0  0  0  0  0  0
  161.5150  203.0530  152.4160 O   0  0  0  0  0  0  0  0  0  0  0  0
  160.8780  203.2730  151.0630 P   0  0  0  0  0  0  0  0  0  0  0  0
  161.5300  208.2290  155.6360 O   0  0  0  0  0  1  0  0  0  0  0  0
  161.2460  209.0910  154.5770 C   0  0  2  0  0  3  0  0  0  0  0  0
  159.9100  209.7830  154.8200 C   0  0  0  0  0  2  0  0  0  0  0  0
  159.6760  210.9270  153.8410 C   0  0  0  0  0  2  0  0  0  0  0  0
  157.6470  211.1290  155.2920 C   0  0  0  0  0  1  0  0  0  0  0  0
  158.2280  211.3860  153.9120 C   0  0  0  0  0  3  0  0  0  0  0  0
  158.1380  212.8610  153.5950 C   0  0  0  0  0  1  0  0  0  0  0  0
  162.1370  206.0690  146.4650 C   0  0  0  0  0  2  0  0  0  0  0  0
  160.2980  206.6030  145.0440 O   0  0  0  0  0  0  0  0  0  0  0  0
  160.9770  205.6940  145.6050 C   0  0  0  0  0  0  0  0  0  0  0  0
  161.1720  203.1560  146.0020 C   0  0  0  0  0  0  0  0  0  0  0  0
  160.6430  204.3170  145.3400 N   0  0  0  0  0  2  0  0  0  0  0  0
  160.8510  201.8040  145.4670 C   0  0  0  0  0  1  0  0  0  0  0  0
  161.9020  203.2560  147.0630 N   0  0  0  0  0  2  0  0  0  0  0  0
  1 35  1  0  0  0  0
  3  8  1  0  0  0  0
  3 10  1  0  0  0  0
  4  9  1  0  0  0  0
  4  8  2  0  0  0  0
  5  1  2  0  0  0  0
  6 12  2  0  0  0  0
  6  7  1  0  0  0  0
  7 11  2  0  0  0  0
  8 12  1  0  0  0  0
  9 14  1  6  0  0  0
  9  6  1  0  0  0  0
 10  2  2  0  0  0  0
 11  1  1  0  0  0  0
 12  5  1  0  0  0  0
 13 17  1  0  0  0  0
 13 14  1  0  0  0  0
 15 14  2  0  0  0  0
 16 15  1  0  0  0  0
 18 13  2  0  0  0  0
 19 18  1  0  0  0  0
 19 16  2  0  0  0  0
 20 19  1  0  0  0  0
 21 20  1  0  0  0  0
 22 21  1  0  0  0  0
 23 29  1  6  0  0  0
 23 28  1  0  0  0  0
 23 26  1  0  0  0  0
 23 25  1  0  0  0  0
 24 21  1  6  0  0  0
 25 24  1  0  0  0  0
 26 24  1  0  0  0  0
 27 28  1  0  0  0  0
 30 31  1  0  0  0  0
 30 29  1  0  0  0  0
 32 31  1  0  0  0  0
 32 33  1  0  0  0  0
 35 39  1  0  0  0  0
 35 34  1  6  0  0  0
 36 37  1  0  0  0  0
 36 39  2  0  0  0  0
 38 42  2  0  0  0  0
 39 42  1  0  0  0  0
 40 38  1  0  0  0  0
 41 37  1  0  0  0  0
 41 40  2  0  0  0  0
 42 49  1  0  0  0  0
 43 45  1  0  0  0  0
 43 47  1  0  0  0  0
 44 47  2  0  0  0  0
 45 41  1  0  0  0  0
 47 46  2  0  0  0  0
 49 50  1  0  0  0  0
 49 48  1  1  0  0  0
 51 53  1  0  0  0  0
 51 50  1  0  0  0  0
 53 52  1  0  0  0  0
 54 53  1  0  0  0  0
 55 10  1  0  0  0  0
 56 57  2  0  0  0  0
 57 55  1  0  0  0  0
 58 61  2  0  0  0  0
 59 57  1  0  0  0  0
 59 58  1  0  0  0  0
 60 58  1  0  0  0  0
M  END
>  <MODEL>
5

>  <REMARK>
 VINA RESULT:      -2.4      4.111     10.429
  Name = 
  18 active torsions:
  status: ('A' for Active; 'I' for Inactive)
    1  A    between atoms: C_2  and  C_40
    2  A    between atoms: C_7  and  C_30
    3  A    between atoms: C_7  and  C_49
    4  A    between atoms: N_11  and  C_36
    5  A    between atoms: C_15  and  C_18
    6  A    between atoms: C_17  and  C_41
    7  A    between atoms: C_18  and  C_48
    8  A    between atoms: C_20  and  C_40
    9  A    between atoms: C_21  and  C_22
   10  A    between atoms: C_21  and  C_53
   11  A    between atoms: C_22  and  C_46
   12  A    between atoms: C_23  and  C_30
   13  A    between atoms: N_24  and  C_38
   14  A    between atoms: N_24  and  C_43
   15  A    between atoms: C_32  and  C_44
   16  A    between atoms: C_36  and  C_49
   17  A    between atoms: C_38  and  C_58
   18  A    between atoms: C_42  and  C_53
                            x       y       z     vdW  Elec       q    Type
                         _______ _______ _______ _____ _____    ______ ____

>  <TORSDO>
F 18

$$$$
=
 OpenBabel11052412013D

 61 65  0  0  1  0  0  0  0  0999 V2000
  160.4720  211.1990  151.7190 C   0  0  0  0  0  0  0  0  0  0  0  0
  160.0920  213.1220  148.2520 O   0  0  0  0  0  0  0  0  0  0  0  0
  162.1750  212.3030  147.5310 N   0  0  0  0  0  2  0  0  0  0  0  0
  163.0530  210.1440  148.0300 N   0  0  0  0  0  0  0  0  0  0  0  0
  160.8830  211.7050  150.4680 C   0  0  0  0  0  3  0  0  0  0  0  0
  161.9130  209.5780  149.9670 C   0  0  0  0  0  0  0  0  0  0  0  0
  161.5430  209.0530  151.2070 C   0  0  0  0  0  3  0  0  0  0  0  0
  162.3090  211.1510  148.3780 C   0  0  0  0  0  0  0  0  0  0  0  0
  162.8850  209.0330  148.9710 C   0  0  1  0  0  3  0  0  0  0  0  0
  161.0490  213.1860  147.4280 C   0  0  0  0  0  0  0  0  0  0  0  0
  160.7980  209.8690  152.0790 C   0  0  0  0  0  3  0  0  0  0  0  0
  161.5790  210.8590  149.6030 C   0  0  0  0  0  0  0  0  0  0  0  0
  163.2100  206.6660  148.1370 C   0  0  0  0  0  0  0  0  0  0  0  0
  162.3890  207.8060  148.2340 C   0  0  0  0  0  0  0  0  0  0  0  0
  161.2290  207.8670  147.4530 C   0  0  0  0  0  3  0  0  0  0  0  0
  160.9160  206.8190  146.5830 C   0  0  0  0  0  3  0  0  0  0  0  0
  164.5180  206.5940  148.8600 C   0  0  0  0  0  1  0  0  0  0  0  0
  162.8820  205.6550  147.2840 N   0  0  0  0  0  0  0  0  0  0  0  0
  161.7780  205.7260  146.4910 C   0  0  0  0  0  0  0  0  0  0  0  0
  161.5020  204.6570  145.4820 C   0  0  0  0  0  2  0  0  0  0  0  0
  160.2880  203.9310  145.8350 N   0  0  0  0  0  0  0  0  0  0  0  0
  159.4760  203.9610  144.7490 O   0  0  0  0  0  1  0  0  0  0  0  0
  160.6580  201.8470  148.0180 C   0  0  1  0  0  0  0  0  0  0  0  0
  160.6680  202.5470  146.1340 C   0  0  1  0  0  3  0  0  0  0  0  0
  161.5770  202.5520  147.2170 O   0  0  0  0  0  0  0  0  0  0  0  0
  159.6140  201.7950  146.9300 C   0  0  0  0  0  2  0  0  0  0  0  0
  161.9850  199.9700  147.2870 O   0  0  0  0  0  1  0  0  0  0  0  0
  161.2180  200.4650  148.3450 C   0  0  0  0  0  2  0  0  0  0  0  0
  160.2540  202.6050  149.2900 C   0  0  0  0  0  2  0  0  0  0  0  0
  161.3650  202.7320  150.3370 C   0  0  0  0  0  2  0  0  0  0  0  0
  160.9840  203.7390  151.4100 C   0  0  0  0  0  2  0  0  0  0  0  0
  160.9270  205.0790  150.8420 N   0  0  0  0  0  2  0  0  0  0  0  0
  161.5910  205.8890  151.6970 O   0  0  0  0  0  1  0  0  0  0  0  0
  159.7660  213.3910  152.3330 O   0  0  0  0  0  1  0  0  0  0  0  0
  159.6870  212.0380  152.6830 C   0  0  2  0  0  3  0  0  0  0  0  0
  161.0310  210.9280  154.3650 C   0  0  0  0  0  3  0  0  0  0  0  0
  161.5720  210.5900  155.7160 C   0  0  0  0  0  2  0  0  0  0  0  0
  159.0150  211.8720  156.4400 C   0  0  0  0  0  3  0  0  0  0  0  0
  160.0200  211.7790  154.1400 C   0  0  0  0  0  0  0  0  0  0  0  0
  159.4240  210.5320  156.9100 C   0  0  0  0  0  3  0  0  0  0  0  0
  160.5450  209.9020  156.5660 C   0  0  0  0  0  0  0  0  0  0  0  0
  159.2760  212.4580  155.2530 C   0  0  0  0  0  0  0  0  0  0  0  0
  159.7370  207.7900  157.2610 O   0  0  0  0  0  0  0  0  0  0  0  0
  161.3380  205.6950  156.3630 O   0  0  0  0  0  0  0  0  0  0  0  0
  160.8280  208.5840  157.2350 C   0  0  0  0  0  2  0  0  0  0  0  0
  160.1340  207.4350  154.6740 O   0  0  0  0  0  0  0  0  0  0  0  0
  160.8290  207.2610  156.0050 P   0  0  0  0  0  0  0  0  0  0  0  0
  158.5320  214.4480  156.3030 O   0  0  0  0  0  1  0  0  0  0  0  0
  158.7660  213.8610  155.0590 C   0  0  2  0  0  3  0  0  0  0  0  0
  157.4920  213.8970  154.2240 C   0  0  0  0  0  2  0  0  0  0  0  0
  156.2560  214.1350  155.0830 C   0  0  0  0  0  2  0  0  0  0  0  0
  154.7900  213.5220  153.1490 C   0  0  0  0  0  1  0  0  0  0  0  0
  155.1130  213.2510  154.6090 C   0  0  0  0  0  3  0  0  0  0  0  0
  155.4780  211.7950  154.7810 C   0  0  0  0  0  1  0  0  0  0  0  0
  160.9430  214.0980  146.2430 C   0  0  0  0  0  2  0  0  0  0  0  0
  158.7430  213.4970  145.5460 O   0  0  0  0  0  0  0  0  0  0  0  0
  159.9660  213.5930  145.2340 C   0  0  0  0  0  0  0  0  0  0  0  0
  161.7080  213.1480  143.3890 C   0  0  0  0  0  0  0  0  0  0  0  0
  160.3660  213.2680  143.8880 N   0  0  0  0  0  2  0  0  0  0  0  0
  161.9290  212.9920  141.9250 C   0  0  0  0  0  1  0  0  0  0  0  0
  162.7270  213.1510  144.1830 N   0  0  0  0  0  2  0  0  0  0  0  0
  1 11  1  0  0  0  0
  1 35  1  0  0  0  0
  3  8  1  0  0  0  0
  4  8  2  0  0  0  0
  4  9  1  0  0  0  0
  5  1  2  0  0  0  0
  6  7  1  0  0  0  0
  7 11  2  0  0  0  0
  8 12  1  0  0  0  0
  9 14  1  6  0  0  0
  9  6  1  0  0  0  0
 10  3  1  0  0  0  0
 10  2  2  0  0  0  0
 12  6  2  0  0  0  0
 12  5  1  0  0  0  0
 13 14  1  0  0  0  0
 13 17  1  0  0  0  0
 15 14  2  0  0  0  0
 16 15  1  0  0  0  0
 18 13  2  0  0  0  0
 19 16  2  0  0  0  0
 19 18  1  0  0  0  0
 20 21  1  0  0  0  0
 20 19  1  0  0  0  0
 22 21  1  0  0  0  0
 23 28  1  1  0  0  0
 23 29  1  0  0  0  0
 24 21  1  1  0  0  0
 24 26  1  0  0  0  0
 24 25  1  0  0  0  0
 25 23  1  0  0  0  0
 26 23  1  0  0  0  0
 27 28  1  0  0  0  0
 29 30  1  0  0  0  0
 30 31  1  0  0  0  0
 32 31  1  0  0  0  0
 32 33  1  0  0  0  0
 35 34  1  6  0  0  0
 35 39  1  0  0  0  0
 36 37  1  0  0  0  0
 37 41  1  0  0  0  0
 38 40  1  0  0  0  0
 39 36  2  0  0  0  0
 39 42  1  0  0  0  0
 41 40  2  0  0  0  0
 41 45  1  0  0  0  0
 42 38  2  0  0  0  0
 45 43  1  0  0  0  0
 46 47  2  0  0  0  0
 47 44  2  0  0  0  0
 47 43  1  0  0  0  0
 49 42  1  0  0  0  0
 49 48  1  1  0  0  0
 50 49  1  0  0  0  0
 50 51  1  0  0  0  0
 52 53  1  0  0  0  0
 53 54  1  0  0  0  0
 53 51  1  0  0  0  0
 55 10  1  0  0  0  0
 57 56  2  0  0  0  0
 57 55  1  0  0  0  0
 58 59  1  0  0  0  0
 58 61  2  0  0  0  0
 59 57  1  0  0  0  0
 60 58  1  0  0  0  0
M  END
>  <MODEL>
6

>  <REMARK>
 VINA RESULT:      -2.2      3.346      7.873
  Name = 
  18 active torsions:
  status: ('A' for Active; 'I' for Inactive)
    1  A    between atoms: C_2  and  C_40
    2  A    between atoms: C_7  and  C_30
    3  A    between atoms: C_7  and  C_49
    4  A    between atoms: N_11  and  C_36
    5  A    between atoms: C_15  and  C_18
    6  A    between atoms: C_17  and  C_41
    7  A    between atoms: C_18  and  C_48
    8  A    between atoms: C_20  and  C_40
    9  A    between atoms: C_21  and  C_22
   10  A    between atoms: C_21  and  C_53
   11  A    between atoms: C_22  and  C_46
   12  A    between atoms: C_23  and  C_30
   13  A    between atoms: N_24  and  C_38
   14  A    between atoms: N_24  and  C_43
   15  A    between atoms: C_32  and  C_44
   16  A    between atoms: C_36  and  C_49
   17  A    between atoms: C_38  and  C_58
   18  A    between atoms: C_42  and  C_53
                            x       y       z     vdW  Elec       q    Type
                         _______ _______ _______ _____ _____    ______ ____

>  <TORSDO>
F 18

$$$$
