=
 OpenBabel11052411453D

 40 44  0  0  1  0  0  0  0  0999 V2000
  162.2410  209.0850  149.6180 C   0  0  0  0  0  0  0  0  0  0  0  0
  162.0450  209.5140  151.0580 C   0  0  1  0  0  3  0  0  0  0  0  0
  160.8450  207.0480  147.8200 C   0  0  0  0  0  2  0  0  0  0  0  0
  160.9140  202.9990  150.8850 C   0  0  0  0  0  0  0  0  0  0  0  0
  159.7490  212.1310  152.1000 O   0  0  0  0  0  0  0  0  0  0  0  0
  160.2410  206.5230  152.0150 C   0  0  0  0  0  2  0  0  0  0  0  0
  161.1600  201.5810  151.2470 C   0  0  0  0  0  3  0  0  0  0  0  0
  161.2370  210.7010  151.0990 O   0  0  0  0  0  0  0  0  0  0  0  0
  160.2370  206.6900  149.0570 O   0  0  0  0  0  0  0  0  0  0  0  0
  161.1030  201.8370  148.9590 N   0  0  0  0  0  0  0  0  0  0  0  0
  160.6520  204.3020  148.8870 C   0  0  0  0  0  2  0  0  0  0  0  0
  160.0740  210.0360  153.2260 C   0  0  1  0  0  3  0  0  0  0  0  0
  162.7170  207.7770  149.2640 N   0  0  0  0  0  0  0  0  0  0  0  0
  160.7150  204.1070  151.7020 C   0  0  0  0  0  3  0  0  0  0  0  0
  160.3730  211.0370  152.1450 C   0  0  0  0  0  0  0  0  0  0  0  0
  160.3870  207.7720  151.3910 O   0  0  0  0  0  0  0  0  0  0  0  0
  161.5050  208.3880  151.9780 C   0  0  2  0  0  3  0  0  0  0  0  0
  161.1400  208.9490  153.3650 C   0  0  1  0  0  3  0  0  0  0  0  0
  161.2770  200.8590  149.9610 N   0  0  0  0  0  0  0  0  0  0  0  0
  160.8840  203.0970  149.5410 C   0  0  0  0  0  0  0  0  0  0  0  0
  160.4500  205.4550  149.6740 C   0  0  0  0  0  0  0  0  0  0  0  0
  161.9760  209.9090  148.7000 O   0  0  0  0  0  0  0  0  0  0  0  0
  160.4870  205.3590  151.0950 C   0  0  0  0  0  0  0  0  0  0  0  0
  162.3630  207.1770  147.9790 C   0  0  0  0  0  2  0  0  0  0  0  0
  162.6480  210.6960  153.9880 F   0  0  0  0  0  0  0  0  0  0  0  0
  162.1590  209.1350  155.5500 F   0  0  0  0  0  0  0  0  0  0  0  0
  162.3580  209.3620  154.2000 C   0  0  0  0  0  3  0  0  0  0  0  0
  163.5370  207.0430  150.1330 C   0  0  0  0  0  0  0  0  0  0  0  0
  164.2320  206.4070  150.8850 C   0  0  0  0  0  3  0  0  0  0  0  0
  159.3510  209.4760  155.5960 C   0  0  0  0  0  1  0  0  0  0  0  0
  159.4840  210.5620  154.5420 C   0  0  1  0  0  3  0  0  0  0  0  0
  160.2790  211.6100  155.0210 O   0  0  0  0  0  0  0  0  0  0  0  0
  160.7340  212.2860  157.2610 C   0  0  0  0  0  1  0  0  0  0  0  0
  159.6700  212.0380  156.2110 C   0  0  1  0  0  3  0  0  0  0  0  0
  158.8330  213.3130  156.0150 C   0  0  2  0  0  3  0  0  0  0  0  0
  157.3530  212.9280  156.0190 C   0  0  0  0  0  3  0  0  0  0  0  0
  157.1060  211.9820  157.1820 C   0  0  0  0  0  2  0  0  0  0  0  0
  156.6210  213.4140  157.2610 C   0  0  0  0  0  2  0  0  0  0  0  0
  159.1920  213.9780  154.8340 O   0  0  0  0  0  0  0  0  0  0  0  0
  157.9850  214.3280  154.2310 C   0  0  0  0  0  1  0  0  0  0  0  0
  2  1  1  6  0  0  0
  2  8  1  0  0  0  0
  2 17  1  0  0  0  0
  3 24  1  0  0  0  0
  3  9  1  0  0  0  0
  4  7  1  0  0  0  0
  4 14  2  0  0  0  0
  5 15  2  0  0  0  0
  8 15  1  0  0  0  0
  9 21  1  0  0  0  0
 10 20  2  0  0  0  0
 10 19  1  0  0  0  0
 11 20  1  0  0  0  0
 11 21  1  0  0  0  0
 12 18  1  0  0  0  0
 12 31  1  1  0  0  0
 13  1  1  0  0  0  0
 13 28  1  0  0  0  0
 15 12  1  0  0  0  0
 16  6  1  0  0  0  0
 17 16  1  6  0  0  0
 17 18  1  0  0  0  0
 18 27  1  6  0  0  0
 19  7  2  0  0  0  0
 20  4  1  0  0  0  0
 21 23  2  0  0  0  0
 22  1  2  0  0  0  0
 23 14  1  0  0  0  0
 23  6  1  0  0  0  0
 24 13  1  0  0  0  0
 25 27  1  0  0  0  0
 27 26  1  0  0  0  0
 28 29  3  0  0  0  0
 31 32  1  0  0  0  0
 31 30  1  1  0  0  0
 32 34  1  0  0  0  0
 34 33  1  1  0  0  0
 35 39  1  6  0  0  0
 35 36  1  0  0  0  0
 35 34  1  0  0  0  0
 36 37  1  0  0  0  0
 36 38  1  0  0  0  0
 37 38  1  0  0  0  0
 40 39  1  0  0  0  0
M  END
>  <MODEL>
1

>  <REMARK>
 VINA RESULT:      -1.7      0.000      0.000
  Name = 
  8 active torsions:
  status: ('A' for Active; 'I' for Inactive)
    1  A    between atoms: C_4  and  N_23
    2  A    between atoms: C_8  and  C_17
    3  A    between atoms: O_9  and  C_35
    4  A    between atoms: O_9  and  C_40
    5  A    between atoms: C_17  and  O_19
    6  A    between atoms: C_17  and  C_35
    7  A    between atoms: C_22  and  C_40
    8  A    between atoms: C_29  and  C_30
                            x       y       z     vdW  Elec       q    Type
                         _______ _______ _______ _____ _____    ______ ____

>  <TORSDO>
F 8

$$$$
=
 OpenBabel11052411453D

 40 44  0  0  1  0  0  0  0  0999 V2000
  161.6220  207.3220  155.0380 C   0  0  0  0  0  0  0  0  0  0  0  0
  161.9220  207.4280  153.5580 C   0  0  1  0  0  3  0  0  0  0  0  0
  159.2030  208.0580  156.7530 C   0  0  0  0  0  2  0  0  0  0  0  0
  158.4090  212.8060  155.1340 C   0  0  0  0  0  0  0  0  0  0  0  0
  161.0710  204.8640  151.1270 O   0  0  0  0  0  0  0  0  0  0  0  0
  159.3810  209.9270  152.9170 C   0  0  0  0  0  2  0  0  0  0  0  0
  158.1750  214.2640  155.2810 C   0  0  0  0  0  3  0  0  0  0  0  0
  161.6520  206.1680  152.9220 O   0  0  0  0  0  0  0  0  0  0  0  0
  158.7920  208.6690  155.5340 O   0  0  0  0  0  0  0  0  0  0  0  0
  157.7190  213.1640  157.2520 N   0  0  0  0  0  0  0  0  0  0  0  0
  158.2270  210.8320  156.4850 C   0  0  0  0  0  3  0  0  0  0  0  0
  160.8210  207.2290  150.7990 C   0  0  1  0  0  3  0  0  0  0  0  0
  161.4790  208.4780  155.8780 N   0  0  0  0  0  0  0  0  0  0  0  0
  158.8270  212.0770  154.0240 C   0  0  0  0  0  3  0  0  0  0  0  0
  161.2300  206.0220  151.5970 C   0  0  0  0  0  0  0  0  0  0  0  0
  159.8460  208.6300  153.1820 O   0  0  0  0  0  0  0  0  0  0  0  0
  161.2130  208.6170  152.8590 C   0  0  2  0  0  3  0  0  0  0  0  0
  161.4000  208.5390  151.3320 C   0  0  1  0  0  3  0  0  0  0  0  0
  157.7260  214.4530  156.6790 N   0  0  0  0  0  2  0  0  0  0  0  0
  158.1240  212.2070  156.3070 C   0  0  0  0  0  0  0  0  0  0  0  0
  158.6530  210.0510  155.3900 C   0  0  0  0  0  0  0  0  0  0  0  0
  161.4930  206.1750  155.5490 O   0  0  0  0  0  0  0  0  0  0  0  0
  158.9610  210.6790  154.1490 C   0  0  0  0  0  0  0  0  0  0  0  0
  160.6530  208.4280  157.0830 C   0  0  0  0  0  2  0  0  0  0  0  0
  163.4200  209.7610  151.7070 F   0  0  0  0  0  0  0  0  0  0  0  0
  163.6070  207.6790  150.8430 F   0  0  0  0  0  0  0  0  0  0  0  0
  162.8350  208.8270  150.8740 C   0  0  0  0  0  3  0  0  0  0  0  0
  162.1300  209.6820  155.5730 C   0  0  0  0  0  0  0  0  0  0  0  0
  162.6990  210.7110  155.3070 C   0  0  0  0  0  3  0  0  0  0  0  0
  161.2480  208.3490  148.5600 C   0  0  0  0  0  1  0  0  0  0  0  0
  160.7760  207.0920  149.2710 C   0  0  1  0  0  3  0  0  0  0  0  0
  161.5510  205.9930  148.8810 O   0  0  0  0  0  0  0  0  0  0  0  0
  160.3880  206.3030  146.8240 C   0  0  0  0  0  1  0  0  0  0  0  0
  160.7970  205.3220  147.9050 C   0  0  1  0  0  3  0  0  0  0  0  0
  161.5660  204.1500  147.2730 C   0  0  2  0  0  3  0  0  0  0  0  0
  161.6560  203.0200  148.2980 C   0  0  0  0  0  3  0  0  0  0  0  0
  160.2540  202.7120  148.7990 C   0  0  0  0  0  2  0  0  0  0  0  0
  160.9390  201.7560  147.8460 C   0  0  0  0  0  2  0  0  0  0  0  0
  162.8350  204.5540  146.8350 O   0  0  0  0  0  0  0  0  0  0  0  0
  162.8390  204.3170  145.4620 C   0  0  0  0  0  1  0  0  0  0  0  0
  1 22  2  0  0  0  0
  1 13  1  0  0  0  0
  2  8  1  6  0  0  0
  2  1  1  0  0  0  0
  3 24  1  0  0  0  0
  4  7  2  0  0  0  0
  4 20  1  0  0  0  0
  5 15  2  0  0  0  0
  6 16  1  0  0  0  0
  6 23  1  0  0  0  0
  7 19  1  0  0  0  0
  9  3  1  0  0  0  0
 12 31  1  6  0  0  0
 12 18  1  0  0  0  0
 12 15  1  0  0  0  0
 13 24  1  0  0  0  0
 14 23  2  0  0  0  0
 14  4  1  0  0  0  0
 15  8  1  0  0  0  0
 17 16  1  6  0  0  0
 17  2  1  0  0  0  0
 18 27  1  1  0  0  0
 18 17  1  0  0  0  0
 19 10  1  0  0  0  0
 20 11  1  0  0  0  0
 20 10  2  0  0  0  0
 21  9  1  0  0  0  0
 21 11  2  0  0  0  0
 23 21  1  0  0  0  0
 26 27  1  0  0  0  0
 27 25  1  0  0  0  0
 28 13  1  0  0  0  0
 29 28  3  0  0  0  0
 31 30  1  6  0  0  0
 32 31  1  0  0  0  0
 34 33  1  6  0  0  0
 34 32  1  0  0  0  0
 35 39  1  1  0  0  0
 35 34  1  0  0  0  0
 35 36  1  0  0  0  0
 36 37  1  0  0  0  0
 38 36  1  0  0  0  0
 38 37  1  0  0  0  0
 40 39  1  0  0  0  0
M  END
>  <MODEL>
2

>  <REMARK>
 VINA RESULT:      -1.3      3.383      9.155
  Name = 
  8 active torsions:
  status: ('A' for Active; 'I' for Inactive)
    1  A    between atoms: C_4  and  N_23
    2  A    between atoms: C_8  and  C_17
    3  A    between atoms: O_9  and  C_35
    4  A    between atoms: O_9  and  C_40
    5  A    between atoms: C_17  and  O_19
    6  A    between atoms: C_17  and  C_35
    7  A    between atoms: C_22  and  C_40
    8  A    between atoms: C_29  and  C_30
                            x       y       z     vdW  Elec       q    Type
                         _______ _______ _______ _____ _____    ______ ____

>  <TORSDO>
F 8

$$$$
=
 OpenBabel11052411453D

 40 44  0  0  1  0  0  0  0  0999 V2000
  161.5850  208.4370  155.3860 C   0  0  0  0  0  0  0  0  0  0  0  0
  161.9780  208.5220  153.9260 C   0  0  1  0  0  3  0  0  0  0  0  0
  158.9190  208.6490  156.8640 C   0  0  0  0  0  2  0  0  0  0  0  0
  157.1310  212.9360  154.8080 C   0  0  0  0  0  0  0  0  0  0  0  0
  161.9950  205.6790  151.6610 O   0  0  0  0  0  0  0  0  0  0  0  0
  158.9680  210.2590  152.9080 C   0  0  0  0  0  2  0  0  0  0  0  0
  156.5360  214.2950  154.8190 C   0  0  0  0  0  3  0  0  0  0  0  0
  162.0800  207.1970  153.3790 O   0  0  0  0  0  0  0  0  0  0  0  0
  158.4790  209.0600  155.5730 O   0  0  0  0  0  0  0  0  0  0  0  0
  156.1930  213.2420  156.8380 N   0  0  0  0  0  0  0  0  0  0  0  0
  157.3210  211.0680  156.3020 C   0  0  0  0  0  3  0  0  0  0  0  0
  161.2030  207.8810  151.1240 C   0  0  1  0  0  3  0  0  0  0  0  0
  161.0910  209.5710  156.1160 N   0  0  0  0  0  0  0  0  0  0  0  0
  157.8110  212.2670  153.7940 C   0  0  0  0  0  3  0  0  0  0  0  0
  161.8240  206.8670  152.0450 C   0  0  0  0  0  0  0  0  0  0  0  0
  159.7110  209.1390  153.3110 O   0  0  0  0  0  0  0  0  0  0  0  0
  161.0630  209.4490  153.0840 C   0  0  2  0  0  3  0  0  0  0  0  0
  161.3960  209.3250  151.5850 C   0  0  1  0  0  3  0  0  0  0  0  0
  155.9340  214.4530  156.1620 N   0  0  0  0  0  2  0  0  0  0  0  0
  156.9010  212.3590  156.0040 C   0  0  0  0  0  0  0  0  0  0  0  0
  158.0190  210.3520  155.3070 C   0  0  0  0  0  0  0  0  0  0  0  0
  161.6960  207.3280  155.9790 O   0  0  0  0  0  0  0  0  0  0  0  0
  158.2710  210.9580  154.0430 C   0  0  0  0  0  0  0  0  0  0  0  0
  160.2000  209.3910  157.2610 C   0  0  0  0  0  2  0  0  0  0  0  0
  162.6070  210.7670  150.1130 F   0  0  0  0  0  0  0  0  0  0  0  0
  163.3130  210.6350  152.2570 F   0  0  0  0  0  0  0  0  0  0  0  0
  162.7500  209.9340  151.2050 C   0  0  0  0  0  3  0  0  0  0  0  0
  161.4510  210.8770  155.7580 C   0  0  0  0  0  0  0  0  0  0  0  0
  161.7500  212.0030  155.4460 C   0  0  0  0  0  3  0  0  0  0  0  0
  162.7210  207.1980  149.2060 C   0  0  0  0  0  1  0  0  0  0  0  0
  161.3260  207.6410  149.6130 C   0  0  1  0  0  3  0  0  0  0  0  0
  160.3780  206.6910  149.2150 O   0  0  0  0  0  0  0  0  0  0  0  0
  160.7410  204.3580  149.5390 C   0  0  0  0  0  1  0  0  0  0  0  0
  161.1140  205.5930  148.7430 C   0  0  1  0  0  3  0  0  0  0  0  0
  160.8820  205.3300  147.2460 C   0  0  2  0  0  3  0  0  0  0  0  0
  161.9070  204.3020  146.7690 C   0  0  0  0  0  3  0  0  0  0  0  0
  161.2960  202.9170  146.8990 C   0  0  0  0  0  2  0  0  0  0  0  0
  161.4500  203.5450  145.5310 C   0  0  0  0  0  2  0  0  0  0  0  0
  160.9570  206.5190  146.5060 O   0  0  0  0  0  0  0  0  0  0  0  0
  160.2150  206.2770  145.3520 C   0  0  0  0  0  1  0  0  0  0  0  0
  1 22  2  0  0  0  0
  1 13  1  0  0  0  0
  2  8  1  6  0  0  0
  2  1  1  0  0  0  0
  3 24  1  0  0  0  0
  4  7  2  0  0  0  0
  4 20  1  0  0  0  0
  5 15  2  0  0  0  0
  6 16  1  0  0  0  0
  6 23  1  0  0  0  0
  7 19  1  0  0  0  0
  9  3  1  0  0  0  0
 12 31  1  6  0  0  0
 12 18  1  0  0  0  0
 12 15  1  0  0  0  0
 13 24  1  0  0  0  0
 14 23  2  0  0  0  0
 14  4  1  0  0  0  0
 15  8  1  0  0  0  0
 17 16  1  6  0  0  0
 17  2  1  0  0  0  0
 18 27  1  1  0  0  0
 18 17  1  0  0  0  0
 19 10  1  0  0  0  0
 20 11  1  0  0  0  0
 20 10  2  0  0  0  0
 21  9  1  0  0  0  0
 21 11  2  0  0  0  0
 23 21  1  0  0  0  0
 25 27  1  0  0  0  0
 27 26  1  0  0  0  0
 28 13  1  0  0  0  0
 29 28  3  0  0  0  0
 31 30  1  1  0  0  0
 32 31  1  0  0  0  0
 34 32  1  0  0  0  0
 34 33  1  1  0  0  0
 35 39  1  6  0  0  0
 35 34  1  0  0  0  0
 36 37  1  0  0  0  0
 36 35  1  0  0  0  0
 38 36  1  0  0  0  0
 38 37  1  0  0  0  0
 40 39  1  0  0  0  0
M  END
>  <MODEL>
3

>  <REMARK>
 VINA RESULT:      -1.2      3.464      9.131
  Name = 
  8 active torsions:
  status: ('A' for Active; 'I' for Inactive)
    1  A    between atoms: C_4  and  N_23
    2  A    between atoms: C_8  and  C_17
    3  A    between atoms: O_9  and  C_35
    4  A    between atoms: O_9  and  C_40
    5  A    between atoms: C_17  and  O_19
    6  A    between atoms: C_17  and  C_35
    7  A    between atoms: C_22  and  C_40
    8  A    between atoms: C_29  and  C_30
                            x       y       z     vdW  Elec       q    Type
                         _______ _______ _______ _____ _____    ______ ____

>  <TORSDO>
F 8

$$$$
=
 OpenBabel11052411453D

 40 44  0  0  1  0  0  0  0  0999 V2000
  162.1630  209.0500  148.8100 C   0  0  0  0  0  0  0  0  0  0  0  0
  162.1450  209.6900  150.1830 C   0  0  1  0  0  3  0  0  0  0  0  0
  160.5700  206.7840  147.5220 C   0  0  0  0  0  2  0  0  0  0  0  0
  161.0540  203.2340  151.1220 C   0  0  0  0  0  0  0  0  0  0  0  0
  159.9760  212.4570  151.1020 O   0  0  0  0  0  0  0  0  0  0  0  0
  160.4990  206.8940  151.7910 C   0  0  0  0  0  2  0  0  0  0  0  0
  161.3550  201.8830  151.6580 C   0  0  0  0  0  3  0  0  0  0  0  0
  161.3390  210.8780  150.1470 O   0  0  0  0  0  0  0  0  0  0  0  0
  160.1240  206.6190  148.8650 O   0  0  0  0  0  0  0  0  0  0  0  0
  161.0100  201.7970  149.3830 N   0  0  0  0  0  0  0  0  0  0  0  0
  160.5340  204.2280  149.0020 C   0  0  0  0  0  2  0  0  0  0  0  0
  160.4560  210.5490  152.4780 C   0  0  1  0  0  3  0  0  0  0  0  0
  162.6020  207.6990  148.5980 N   0  0  0  0  0  0  0  0  0  0  0  0
  160.9500  204.4530  151.7850 C   0  0  0  0  0  3  0  0  0  0  0  0
  160.6090  211.3750  151.2320 C   0  0  0  0  0  0  0  0  0  0  0  0
  160.5560  208.0340  150.9760 O   0  0  0  0  0  0  0  0  0  0  0  0
  161.7330  208.7190  151.3200 C   0  0  2  0  0  3  0  0  0  0  0  0
  161.5400  209.4840  152.6430 C   0  0  1  0  0  3  0  0  0  0  0  0
  161.3160  200.9760  150.4890 N   0  0  0  0  0  0  0  0  0  0  0  0
  160.8550  203.1320  149.7930 C   0  0  0  0  0  0  0  0  0  0  0  0
  160.4220  205.4880  149.6280 C   0  0  0  0  0  0  0  0  0  0  0  0
  161.7790  209.7320  147.8200 O   0  0  0  0  0  0  0  0  0  0  0  0
  160.6370  205.6030  151.0310 C   0  0  0  0  0  0  0  0  0  0  0  0
  162.0950  206.9190  147.4710 C   0  0  0  0  0  2  0  0  0  0  0  0
  163.6340  210.5720  152.2650 F   0  0  0  0  0  0  0  0  0  0  0  0
  162.6220  210.9240  154.2560 F   0  0  0  0  0  0  0  0  0  0  0  0
  162.8490  210.0030  153.2480 C   0  0  0  0  0  3  0  0  0  0  0  0
  163.5290  207.0930  149.4570 C   0  0  0  0  0  0  0  0  0  0  0  0
  164.3220  206.5620  150.1940 C   0  0  0  0  0  3  0  0  0  0  0  0
  159.5660  212.6940  153.5060 C   0  0  0  0  0  1  0  0  0  0  0  0
  160.0300  211.2710  153.7640 C   0  0  1  0  0  3  0  0  0  0  0  0
  159.0180  210.5360  154.3950 O   0  0  0  0  0  0  0  0  0  0  0  0
  158.0120  210.2670  156.5380 C   0  0  0  0  0  1  0  0  0  0  0  0
  159.2600  210.6590  155.7720 C   0  0  1  0  0  3  0  0  0  0  0  0
  160.4440  209.7970  156.2400 C   0  0  2  0  0  3  0  0  0  0  0  0
  159.9050  208.4430  156.7010 C   0  0  0  0  0  3  0  0  0  0  0  0
  160.2070  207.4130  155.6250 C   0  0  0  0  0  2  0  0  0  0  0  0
  161.0040  207.4120  156.9110 C   0  0  0  0  0  2  0  0  0  0  0  0
  161.1680  210.4390  157.2540 O   0  0  0  0  0  0  0  0  0  0  0  0
  161.0370  211.8010  156.9890 C   0  0  0  0  0  1  0  0  0  0  0  0
  2  1  1  6  0  0  0
  2 17  1  0  0  0  0
  3  9  1  0  0  0  0
  4  7  1  0  0  0  0
  4 14  2  0  0  0  0
  5 15  2  0  0  0  0
  8  2  1  0  0  0  0
  8 15  1  0  0  0  0
  9 21  1  0  0  0  0
 10 20  2  0  0  0  0
 10 19  1  0  0  0  0
 11 21  1  0  0  0  0
 11 20  1  0  0  0  0
 12 18  1  0  0  0  0
 12 31  1  1  0  0  0
 13  1  1  0  0  0  0
 13 28  1  0  0  0  0
 15 12  1  0  0  0  0
 16  6  1  0  0  0  0
 17 16  1  6  0  0  0
 17 18  1  0  0  0  0
 18 27  1  6  0  0  0
 19  7  2  0  0  0  0
 20  4  1  0  0  0  0
 21 23  2  0  0  0  0
 22  1  2  0  0  0  0
 23 14  1  0  0  0  0
 23  6  1  0  0  0  0
 24  3  1  0  0  0  0
 24 13  1  0  0  0  0
 25 27  1  0  0  0  0
 27 26  1  0  0  0  0
 28 29  3  0  0  0  0
 31 30  1  6  0  0  0
 31 32  1  0  0  0  0
 32 34  1  0  0  0  0
 34 35  1  0  0  0  0
 34 33  1  1  0  0  0
 35 36  1  0  0  0  0
 35 39  1  1  0  0  0
 36 38  1  0  0  0  0
 37 36  1  0  0  0  0
 37 38  1  0  0  0  0
 40 39  1  0  0  0  0
M  END
>  <MODEL>
4

>  <REMARK>
 VINA RESULT:       0.1      1.378      2.408
  Name = 
  8 active torsions:
  status: ('A' for Active; 'I' for Inactive)
    1  A    between atoms: C_4  and  N_23
    2  A    between atoms: C_8  and  C_17
    3  A    between atoms: O_9  and  C_35
    4  A    between atoms: O_9  and  C_40
    5  A    between atoms: C_17  and  O_19
    6  A    between atoms: C_17  and  C_35
    7  A    between atoms: C_22  and  C_40
    8  A    between atoms: C_29  and  C_30
                            x       y       z     vdW  Elec       q    Type
                         _______ _______ _______ _____ _____    ______ ____

>  <TORSDO>
F 8

$$$$
