=
 OpenBabel11042420343D

 49 53  0  0  1  0  0  0  0  0999 V2000
  161.2530  205.2400  149.4730 C   0  0  0  0  0  0  0  0  0  0  0  0
  161.9090  207.4330  148.5210 C   0  0  0  0  0  0  0  0  0  0  0  0
  162.1700  208.8000  148.6220 C   0  0  0  0  0  3  0  0  0  0  0  0
  161.1670  204.7420  148.2740 N   0  0  0  0  0  0  0  0  0  0  0  0
  161.1860  205.5740  147.0650 C   0  0  0  0  0  2  0  0  0  0  0  0
  161.5170  208.7620  150.9470 C   0  0  0  0  0  3  0  0  0  0  0  0
  161.4770  206.7020  149.6470 C   0  0  0  0  0  0  0  0  0  0  0  0
  161.2720  207.3850  150.8720 C   0  0  0  0  0  0  0  0  0  0  0  0
  161.9600  209.4720  149.8320 C   0  0  0  0  0  0  0  0  0  0  0  0
  162.1700  206.7310  147.2250 C   0  0  0  0  0  2  0  0  0  0  0  0
  162.2690  210.9280  149.9890 C   0  0  0  0  0  2  0  0  0  0  0  0
  162.4500  212.3560  147.9020 C   0  0  0  0  0  0  0  0  0  0  0  0
  163.7090  212.2620  147.9150 O   0  0  0  0  0  0  0  0  0  0  0  0
  161.6680  211.7250  148.9250 N   0  0  0  0  0  2  0  0  0  0  0  0
  162.3070  213.3150  145.6520 O   0  0  0  0  0  0  0  0  0  0  0  0
  160.5650  213.7500  146.9430 C   0  0  0  0  0  3  0  0  0  0  0  0
  160.3630  214.3390  145.7080 C   0  0  0  0  0  3  0  0  0  0  0  0
  161.4780  214.0410  144.9410 C   0  0  0  0  0  3  0  0  0  0  0  0
  161.7920  213.1260  146.8420 C   0  0  0  0  0  0  0  0  0  0  0  0
  160.7490  206.7020  152.0960 C   0  0  0  0  0  2  0  0  0  0  0  0
  162.4250  205.8300  153.5350 O   0  0  0  0  0  1  0  0  0  0  0  0
  161.6460  206.9630  153.2960 C   0  0  2  0  0  3  0  0  0  0  0  0
  160.8110  207.2720  154.5300 C   0  0  0  0  0  2  0  0  0  0  0  0
  161.2720  208.5660  155.1800 C   0  0  0  0  0  2  0  0  0  0  0  0
  160.2010  209.1240  156.1050 C   0  0  0  0  0  2  0  0  0  0  0  0
  155.0350  213.8110  154.1270 O   0  0  0  0  0  0  0  0  0  0  0  0
  159.8590  210.5470  155.7000 C   0  0  1  0  0  3  0  0  0  0  0  0
  160.0150  211.6670  153.3570 C   0  0  1  0  0  3  0  0  0  0  0  0
  156.6810  212.3500  154.8280 O   0  0  0  0  0  0  0  0  0  0  0  0
  159.5540  210.6660  152.5020 O   0  0  0  0  0  1  0  0  0  0  0  0
  158.4730  213.6490  153.1260 C   0  0  0  0  0  0  0  0  0  0  0  0
  158.8580  212.5330  153.7950 C   0  0  0  0  0  0  0  0  0  0  0  0
  160.7560  211.0290  154.5430 C   0  0  0  0  0  2  0  0  0  0  0  0
  158.0770  212.1290  155.0280 C   0  0  2  0  0  3  0  0  0  0  0  0
  156.2610  213.5290  154.2070 C   0  0  0  0  0  0  0  0  0  0  0  0
  158.3640  210.6870  155.4230 C   0  0  0  0  0  2  0  0  0  0  0  0
  157.2930  214.4520  153.6290 C   0  0  0  0  0  2  0  0  0  0  0  0
  158.8470  213.7050  150.6540 C   0  0  0  0  0  1  0  0  0  0  0  0
  159.1180  214.1420  151.9830 O   0  0  0  0  0  0  0  0  0  0  0  0
  161.2070  204.3950  150.5890 O   0  0  0  0  0  0  0  0  0  0  0  0
  160.4040  203.2230  150.6440 C   0  0  0  0  0  2  0  0  0  0  0  0
  161.2740  201.9910  150.4740 C   0  0  0  0  0  2  0  0  0  0  0  0
  159.3390  201.3930  149.2150 O   0  0  0  0  0  1  0  0  0  0  0  0
  160.6650  201.0370  149.4560 C   0  0  1  0  0  3  0  0  0  0  0  0
  161.4530  201.0190  148.1470 C   0  0  0  0  0  2  0  0  0  0  0  0
  160.5590  201.5750  145.8590 C   0  0  0  0  0  0  0  0  0  0  0  0
  159.8120  201.2870  144.8880 O   0  0  0  0  0  0  0  0  0  0  0  0
  160.5850  200.7320  147.0120 N   0  0  0  0  0  2  0  0  0  0  0  0
  161.3610  202.7080  145.7910 O   0  0  0  0  0  1  0  0  0  0  0  0
  1  7  1  0  0  0  0
  1 40  1  0  0  0  0
  2  3  2  0  0  0  0
  2  7  1  0  0  0  0
  3  9  1  0  0  0  0
  4  1  2  0  0  0  0
  5 10  1  0  0  0  0
  5  4  1  0  0  0  0
  7  8  2  0  0  0  0
  8  6  1  0  0  0  0
  8 20  1  0  0  0  0
  9 11  1  0  0  0  0
  9  6  2  0  0  0  0
 10  2  1  0  0  0  0
 12 13  2  0  0  0  0
 12 14  1  0  0  0  0
 14 11  1  0  0  0  0
 15 19  1  0  0  0  0
 17 16  1  0  0  0  0
 18 15  1  0  0  0  0
 18 17  2  0  0  0  0
 19 16  2  0  0  0  0
 19 12  1  0  0  0  0
 20 22  1  0  0  0  0
 22 21  1  1  0  0  0
 22 23  1  0  0  0  0
 23 24  1  0  0  0  0
 24 25  1  0  0  0  0
 26 35  2  0  0  0  0
 27 25  1  6  0  0  0
 28 30  1  6  0  0  0
 28 32  1  0  0  0  0
 28 33  1  0  0  0  0
 29 34  1  0  0  0  0
 31 37  1  0  0  0  0
 31 32  2  0  0  0  0
 32 34  1  0  0  0  0
 33 27  1  0  0  0  0
 34 36  1  6  0  0  0
 35 29  1  0  0  0  0
 36 27  1  0  0  0  0
 37 35  1  0  0  0  0
 38 39  1  0  0  0  0
 39 31  1  0  0  0  0
 40 41  1  0  0  0  0
 42 41  1  0  0  0  0
 44 43  1  6  0  0  0
 44 42  1  0  0  0  0
 45 44  1  0  0  0  0
 46 48  1  0  0  0  0
 47 46  2  0  0  0  0
 48 45  1  0  0  0  0
 49 46  1  0  0  0  0
M  END
>  <MODEL>
1

>  <REMARK>
 VINA RESULT:      -8.0      0.000      0.000
  Name = 
  16 active torsions:
  status: ('A' for Active; 'I' for Inactive)
    1  A    between atoms: C_1  and  O_14
    2  A    between atoms: C_3  and  C_43
    3  A    between atoms: C_4  and  C_19
    4  A    between atoms: C_4  and  C_45
    5  A    between atoms: C_11  and  C_29
    6  A    between atoms: O_14  and  C_19
    7  A    between atoms: C_17  and  O_27
    8  A    between atoms: C_21  and  C_32
    9  A    between atoms: C_21  and  C_40
   10  A    between atoms: C_29  and  C_32
   11  A    between atoms: C_30  and  C_39
   12  A    between atoms: C_30  and  C_40
   13  A    between atoms: C_35  and  N_41
   14  A    between atoms: C_35  and  C_45
   15  A    between atoms: C_36  and  N_42
   16  A    between atoms: C_36  and  C_47
                            x       y       z     vdW  Elec       q    Type
                         _______ _______ _______ _____ _____    ______ ____

>  <TORSDO>
F 16

$$$$
=
 OpenBabel11042420343D

 49 53  0  0  1  0  0  0  0  0999 V2000
  158.5120  212.2310  155.5540 C   0  0  0  0  0  0  0  0  0  0  0  0
  157.3290  213.7840  154.0250 C   0  0  0  0  0  0  0  0  0  0  0  0
  156.9510  214.2260  152.7570 C   0  0  0  0  0  3  0  0  0  0  0  0
  158.2720  213.0300  156.5540 N   0  0  0  0  0  0  0  0  0  0  0  0
  157.7710  214.3970  156.3760 C   0  0  0  0  0  2  0  0  0  0  0  0
  158.3070  212.5040  151.7430 C   0  0  0  0  0  3  0  0  0  0  0  0
  158.1800  212.6680  154.1690 C   0  0  0  0  0  0  0  0  0  0  0  0
  158.6790  212.0310  153.0060 C   0  0  0  0  0  0  0  0  0  0  0  0
  157.4520  213.5970  151.6110 C   0  0  0  0  0  0  0  0  0  0  0  0
  156.7560  214.4530  155.2360 C   0  0  0  0  0  2  0  0  0  0  0  0
  157.0350  214.0180  150.2360 C   0  0  0  0  0  2  0  0  0  0  0  0
  158.2520  213.2260  148.1580 C   0  0  0  0  0  0  0  0  0  0  0  0
  157.3420  212.3870  147.9130 O   0  0  0  0  0  0  0  0  0  0  0  0
  158.1680  214.0640  149.3190 N   0  0  0  0  0  2  0  0  0  0  0  0
  159.4110  214.0550  146.1640 O   0  0  0  0  0  0  0  0  0  0  0  0
  160.6180  212.6950  147.4240 C   0  0  0  0  0  3  0  0  0  0  0  0
  161.3790  213.0930  146.3400 C   0  0  0  0  0  3  0  0  0  0  0  0
  160.5810  213.9370  145.5840 C   0  0  0  0  0  3  0  0  0  0  0  0
  159.4030  213.3300  147.2560 C   0  0  0  0  0  0  0  0  0  0  0  0
  159.6410  210.8870  153.0670 C   0  0  0  0  0  2  0  0  0  0  0  0
  160.7450  211.6920  151.1240 O   0  0  0  0  0  1  0  0  0  0  0  0
  160.9720  211.2530  152.4290 C   0  0  2  0  0  3  0  0  0  0  0  0
  161.9020  210.0490  152.4030 C   0  0  0  0  0  2  0  0  0  0  0  0
  161.3970  209.0020  151.4230 C   0  0  0  0  0  2  0  0  0  0  0  0
  162.0470  209.1730  150.0590 C   0  0  0  0  0  2  0  0  0  0  0  0
  160.9830  204.6500  144.4930 O   0  0  0  0  0  0  0  0  0  0  0  0
  162.3350  207.8110  149.4500 C   0  0  1  0  0  3  0  0  0  0  0  0
  161.1560  205.5340  149.8950 C   0  0  1  0  0  3  0  0  0  0  0  0
  161.3930  206.1050  146.2380 O   0  0  0  0  0  0  0  0  0  0  0  0
  159.8100  205.8910  149.9730 O   0  0  0  0  0  1  0  0  0  0  0  0
  161.4150  203.9190  147.9750 C   0  0  0  0  0  0  0  0  0  0  0  0
  161.5040  205.1800  148.4690 C   0  0  0  0  0  0  0  0  0  0  0  0
  162.0240  206.6770  150.4470 C   0  0  0  0  0  2  0  0  0  0  0  0
  161.9580  206.2850  147.5370 C   0  0  2  0  0  3  0  0  0  0  0  0
  161.3590  204.8230  145.6830 C   0  0  0  0  0  0  0  0  0  0  0  0
  161.6320  207.6610  148.1030 C   0  0  0  0  0  2  0  0  0  0  0  0
  161.7730  203.6560  146.5290 C   0  0  0  0  0  2  0  0  0  0  0  0
  160.4640  201.6160  148.1850 C   0  0  0  0  0  1  0  0  0  0  0  0
  161.0260  202.8050  148.7330 O   0  0  0  0  0  0  0  0  0  0  0  0
  159.0100  210.9440  155.7870 O   0  0  0  0  0  0  0  0  0  0  0  0
  159.5690  210.5410  157.0320 C   0  0  0  0  0  2  0  0  0  0  0  0
  161.0000  211.0360  157.1400 C   0  0  0  0  0  2  0  0  0  0  0  0
  163.2600  210.3620  156.7930 O   0  0  0  0  0  1  0  0  0  0  0  0
  161.9490  210.1130  156.3900 C   0  0  1  0  0  3  0  0  0  0  0  0
  161.6010  208.6410  156.6020 C   0  0  0  0  0  2  0  0  0  0  0  0
  160.5140  207.1010  154.9310 C   0  0  0  0  0  0  0  0  0  0  0  0
  160.5530  206.4960  153.8280 O   0  0  0  0  0  0  0  0  0  0  0  0
  161.6190  207.9080  155.3420 N   0  0  0  0  0  2  0  0  0  0  0  0
  159.3840  206.9850  155.7320 O   0  0  0  0  0  1  0  0  0  0  0  0
  1 40  1  0  0  0  0
  1  4  2  0  0  0  0
  2  7  1  0  0  0  0
  2 10  1  0  0  0  0
  3  2  2  0  0  0  0
  5  4  1  0  0  0  0
  6  8  1  0  0  0  0
  7  1  1  0  0  0  0
  8 20  1  0  0  0  0
  8  7  2  0  0  0  0
  9  6  2  0  0  0  0
  9  3  1  0  0  0  0
 10  5  1  0  0  0  0
 11  9  1  0  0  0  0
 12 14  1  0  0  0  0
 13 12  2  0  0  0  0
 14 11  1  0  0  0  0
 15 19  1  0  0  0  0
 17 16  1  0  0  0  0
 18 15  1  0  0  0  0
 18 17  2  0  0  0  0
 19 16  2  0  0  0  0
 19 12  1  0  0  0  0
 22 21  1  6  0  0  0
 22 20  1  0  0  0  0
 23 22  1  0  0  0  0
 24 23  1  0  0  0  0
 25 24  1  0  0  0  0
 26 35  2  0  0  0  0
 27 25  1  1  0  0  0
 27 33  1  0  0  0  0
 28 30  1  6  0  0  0
 28 33  1  0  0  0  0
 29 34  1  0  0  0  0
 31 32  2  0  0  0  0
 31 39  1  0  0  0  0
 32 28  1  0  0  0  0
 34 36  1  1  0  0  0
 34 32  1  0  0  0  0
 35 29  1  0  0  0  0
 35 37  1  0  0  0  0
 36 27  1  0  0  0  0
 37 31  1  0  0  0  0
 38 39  1  0  0  0  0
 40 41  1  0  0  0  0
 41 42  1  0  0  0  0
 44 45  1  0  0  0  0
 44 43  1  1  0  0  0
 44 42  1  0  0  0  0
 46 48  1  0  0  0  0
 46 49  1  0  0  0  0
 47 46  2  0  0  0  0
 48 45  1  0  0  0  0
M  END
>  <MODEL>
2

>  <REMARK>
 VINA RESULT:      -6.6      2.774      8.958
  Name = 
  16 active torsions:
  status: ('A' for Active; 'I' for Inactive)
    1  A    between atoms: C_1  and  O_14
    2  A    between atoms: C_3  and  C_43
    3  A    between atoms: C_4  and  C_19
    4  A    between atoms: C_4  and  C_45
    5  A    between atoms: C_11  and  C_29
    6  A    between atoms: O_14  and  C_19
    7  A    between atoms: C_17  and  O_27
    8  A    between atoms: C_21  and  C_32
    9  A    between atoms: C_21  and  C_40
   10  A    between atoms: C_29  and  C_32
   11  A    between atoms: C_30  and  C_39
   12  A    between atoms: C_30  and  C_40
   13  A    between atoms: C_35  and  N_41
   14  A    between atoms: C_35  and  C_45
   15  A    between atoms: C_36  and  N_42
   16  A    between atoms: C_36  and  C_47
                            x       y       z     vdW  Elec       q    Type
                         _______ _______ _______ _____ _____    ______ ____

>  <TORSDO>
F 16

$$$$
=
 OpenBabel11042420343D

 49 53  0  0  1  0  0  0  0  0999 V2000
  159.1190  211.9380  154.8380 C   0  0  0  0  0  0  0  0  0  0  0  0
  157.9870  213.7230  153.5420 C   0  0  0  0  0  0  0  0  0  0  0  0
  157.5830  214.3220  152.3480 C   0  0  0  0  0  3  0  0  0  0  0  0
  158.9900  212.6430  155.9260 N   0  0  0  0  0  0  0  0  0  0  0  0
  158.5880  214.0540  155.9150 C   0  0  0  0  0  2  0  0  0  0  0  0
  158.7530  212.6230  151.0910 C   0  0  0  0  0  3  0  0  0  0  0  0
  158.7560  212.5410  153.5250 C   0  0  0  0  0  0  0  0  0  0  0  0
  159.1470  211.9950  152.2780 C   0  0  0  0  0  0  0  0  0  0  0  0
  157.9780  213.7830  151.1180 C   0  0  0  0  0  0  0  0  0  0  0  0
  157.5270  214.3020  154.8440 C   0  0  0  0  0  2  0  0  0  0  0  0
  157.5300  214.3740  149.8180 C   0  0  0  0  0  2  0  0  0  0  0  0
  158.2370  213.3920  147.5910 C   0  0  0  0  0  0  0  0  0  0  0  0
  157.1170  212.8270  147.4550 O   0  0  0  0  0  0  0  0  0  0  0  0
  158.5160  214.1690  148.7640 N   0  0  0  0  0  2  0  0  0  0  0  0
  160.4240  213.8350  146.5780 O   0  0  0  0  0  0  0  0  0  0  0  0
  159.1400  212.4600  145.4160 C   0  0  0  0  0  3  0  0  0  0  0  0
  160.3380  212.6250  144.7450 C   0  0  0  0  0  3  0  0  0  0  0  0
  161.1020  213.4930  145.5090 C   0  0  0  0  0  3  0  0  0  0  0  0
  159.2570  213.2380  146.5500 C   0  0  0  0  0  0  0  0  0  0  0  0
  160.0200  210.7850  152.1690 C   0  0  0  0  0  2  0  0  0  0  0  0
  161.0770  211.6330  150.2180 O   0  0  0  0  0  1  0  0  0  0  0  0
  161.3390  211.1170  151.4880 C   0  0  2  0  0  3  0  0  0  0  0  0
  162.2030  209.8720  151.3600 C   0  0  0  0  0  2  0  0  0  0  0  0
  161.7140  208.9930  150.2190 C   0  0  0  0  0  2  0  0  0  0  0  0
  161.0000  207.7590  150.7490 C   0  0  0  0  0  2  0  0  0  0  0  0
  161.3550  201.0100  148.1230 O   0  0  0  0  0  0  0  0  0  0  0  0
  160.6730  206.8190  149.6010 C   0  0  1  0  0  3  0  0  0  0  0  0
  161.9940  206.4010  147.3990 C   0  0  1  0  0  3  0  0  0  0  0  0
  161.1670  203.1480  148.9750 O   0  0  0  0  0  0  0  0  0  0  0  0
  163.3210  206.3950  147.8270 O   0  0  0  0  0  1  0  0  0  0  0  0
  161.5000  204.1430  146.3890 C   0  0  0  0  0  0  0  0  0  0  0  0
  161.4410  204.9960  147.4420 C   0  0  0  0  0  0  0  0  0  0  0  0
  161.1800  207.3810  148.2580 C   0  0  0  0  0  2  0  0  0  0  0  0
  160.8060  204.5070  148.7270 C   0  0  2  0  0  3  0  0  0  0  0  0
  161.1630  202.2380  147.9150 C   0  0  0  0  0  0  0  0  0  0  0  0
  161.1630  205.4050  149.9040 C   0  0  0  0  0  2  0  0  0  0  0  0
  160.9320  202.7480  146.5240 C   0  0  0  0  0  2  0  0  0  0  0  0
  161.3480  205.1840  144.1200 C   0  0  0  0  0  1  0  0  0  0  0  0
  162.0450  204.4740  145.1390 O   0  0  0  0  0  0  0  0  0  0  0  0
  159.5270  210.6010  154.9120 O   0  0  0  0  0  0  0  0  0  0  0  0
  159.1010  209.7150  155.9400 C   0  0  0  0  0  2  0  0  0  0  0  0
  160.3050  209.1850  156.6980 C   0  0  0  0  0  2  0  0  0  0  0  0
  159.7450  206.9370  157.2600 O   0  0  0  0  0  1  0  0  0  0  0  0
  160.5240  207.7090  156.3990 C   0  0  1  0  0  3  0  0  0  0  0  0
  160.2030  207.3670  154.9450 C   0  0  0  0  0  2  0  0  0  0  0  0
  161.8010  206.1290  153.4430 C   0  0  0  0  0  0  0  0  0  0  0  0
  162.8420  206.1250  152.7360 O   0  0  0  0  0  0  0  0  0  0  0  0
  161.4140  207.3170  154.1350 N   0  0  0  0  0  2  0  0  0  0  0  0
  161.0310  204.9750  153.5300 O   0  0  0  0  0  1  0  0  0  0  0  0
  1 40  1  0  0  0  0
  1  4  2  0  0  0  0
  2 10  1  0  0  0  0
  3  2  2  0  0  0  0
  5  4  1  0  0  0  0
  6  9  2  0  0  0  0
  6  8  1  0  0  0  0
  7  2  1  0  0  0  0
  7  1  1  0  0  0  0
  8  7  2  0  0  0  0
  9  3  1  0  0  0  0
 10  5  1  0  0  0  0
 11  9  1  0  0  0  0
 12 14  1  0  0  0  0
 13 12  2  0  0  0  0
 14 11  1  0  0  0  0
 16 19  2  0  0  0  0
 17 16  1  0  0  0  0
 17 18  2  0  0  0  0
 18 15  1  0  0  0  0
 19 15  1  0  0  0  0
 19 12  1  0  0  0  0
 20  8  1  0  0  0  0
 22 21  1  6  0  0  0
 22 20  1  0  0  0  0
 23 22  1  0  0  0  0
 24 25  1  0  0  0  0
 24 23  1  0  0  0  0
 27 36  1  0  0  0  0
 27 25  1  1  0  0  0
 28 32  1  0  0  0  0
 28 30  1  1  0  0  0
 28 33  1  0  0  0  0
 31 37  1  0  0  0  0
 31 32  2  0  0  0  0
 32 34  1  0  0  0  0
 33 27  1  0  0  0  0
 34 29  1  0  0  0  0
 34 36  1  1  0  0  0
 35 26  2  0  0  0  0
 35 29  1  0  0  0  0
 37 35  1  0  0  0  0
 38 39  1  0  0  0  0
 39 31  1  0  0  0  0
 40 41  1  0  0  0  0
 41 42  1  0  0  0  0
 44 42  1  0  0  0  0
 44 43  1  1  0  0  0
 45 44  1  0  0  0  0
 46 49  1  0  0  0  0
 46 48  1  0  0  0  0
 47 46  2  0  0  0  0
 48 45  1  0  0  0  0
M  END
>  <MODEL>
3

>  <REMARK>
 VINA RESULT:      -6.0      2.573      8.574
  Name = 
  16 active torsions:
  status: ('A' for Active; 'I' for Inactive)
    1  A    between atoms: C_1  and  O_14
    2  A    between atoms: C_3  and  C_43
    3  A    between atoms: C_4  and  C_19
    4  A    between atoms: C_4  and  C_45
    5  A    between atoms: C_11  and  C_29
    6  A    between atoms: O_14  and  C_19
    7  A    between atoms: C_17  and  O_27
    8  A    between atoms: C_21  and  C_32
    9  A    between atoms: C_21  and  C_40
   10  A    between atoms: C_29  and  C_32
   11  A    between atoms: C_30  and  C_39
   12  A    between atoms: C_30  and  C_40
   13  A    between atoms: C_35  and  N_41
   14  A    between atoms: C_35  and  C_45
   15  A    between atoms: C_36  and  N_42
   16  A    between atoms: C_36  and  C_47
                            x       y       z     vdW  Elec       q    Type
                         _______ _______ _______ _____ _____    ______ ____

>  <TORSDO>
F 16

$$$$
=
 OpenBabel11042420343D

 49 53  0  0  1  0  0  0  0  0999 V2000
  161.8310  208.0800  149.5640 C   0  0  0  0  0  0  0  0  0  0  0  0
  161.5400  205.8100  148.6070 C   0  0  0  0  0  0  0  0  0  0  0  0
  161.1800  204.4650  148.6940 C   0  0  0  0  0  3  0  0  0  0  0  0
  162.4760  208.4500  148.4950 N   0  0  0  0  0  0  0  0  0  0  0  0
  162.9510  207.4990  147.4840 C   0  0  0  0  0  2  0  0  0  0  0  0
  160.7230  204.7320  151.0510 C   0  0  0  0  0  3  0  0  0  0  0  0
  161.4650  206.6460  149.7410 C   0  0  0  0  0  0  0  0  0  0  0  0
  161.0580  206.0900  150.9780 C   0  0  0  0  0  0  0  0  0  0  0  0
  160.7850  203.9180  149.9210 C   0  0  0  0  0  0  0  0  0  0  0  0
  161.9310  206.3800  147.2790 C   0  0  0  0  0  2  0  0  0  0  0  0
  160.3510  202.4910  150.0430 C   0  0  0  0  0  2  0  0  0  0  0  0
  161.2200  200.9130  148.2590 C   0  0  0  0  0  0  0  0  0  0  0  0
  162.2390  200.6470  148.9550 O   0  0  0  0  0  0  0  0  0  0  0  0
  160.2420  201.8460  148.7400 N   0  0  0  0  0  2  0  0  0  0  0  0
  161.5510  199.1060  146.6380 O   0  0  0  0  0  0  0  0  0  0  0  0
  160.3500  200.8020  145.8830 C   0  0  0  0  0  3  0  0  0  0  0  0
  160.4620  199.8540  144.8830 C   0  0  0  0  0  3  0  0  0  0  0  0
  161.2210  198.8180  145.4020 C   0  0  0  0  0  3  0  0  0  0  0  0
  161.0490  200.2760  146.9510 C   0  0  0  0  0  0  0  0  0  0  0  0
  161.0160  206.8870  152.2440 C   0  0  0  0  0  2  0  0  0  0  0  0
  161.1970  204.7860  153.3360 O   0  0  0  0  0  1  0  0  0  0  0  0
  161.6260  206.1120  153.4020 C   0  0  2  0  0  3  0  0  0  0  0  0
  161.2010  206.7160  154.7320 C   0  0  0  0  0  2  0  0  0  0  0  0
  160.8200  208.1780  154.5600 C   0  0  0  0  0  2  0  0  0  0  0  0
  161.0480  208.9560  155.8470 C   0  0  0  0  0  2  0  0  0  0  0  0
  155.4940  213.6160  155.9430 O   0  0  0  0  0  0  0  0  0  0  0  0
  160.5870  210.3920  155.6710 C   0  0  1  0  0  3  0  0  0  0  0  0
  159.9800  211.6620  153.4820 C   0  0  1  0  0  3  0  0  0  0  0  0
  157.2860  212.1590  155.9810 O   0  0  0  0  0  0  0  0  0  0  0  0
  159.2750  210.7050  152.7520 O   0  0  0  0  0  1  0  0  0  0  0  0
  158.4330  213.6120  153.8910 C   0  0  0  0  0  0  0  0  0  0  0  0
  159.0180  212.4660  154.3240 C   0  0  0  0  0  0  0  0  0  0  0  0
  161.0640  210.9710  154.3240 C   0  0  0  0  0  2  0  0  0  0  0  0
  158.6740  211.9640  155.7110 C   0  0  2  0  0  3  0  0  0  0  0  0
  156.6830  213.3630  155.6080 C   0  0  0  0  0  0  0  0  0  0  0  0
  159.0810  210.5080  155.8940 C   0  0  0  0  0  2  0  0  0  0  0  0
  157.4710  214.3480  154.7970 C   0  0  0  0  0  2  0  0  0  0  0  0
  158.2400  213.6460  151.3980 C   0  0  0  0  0  1  0  0  0  0  0  0
  158.6770  214.1940  152.6380 O   0  0  0  0  0  0  0  0  0  0  0  0
  161.4220  209.0330  150.5040 O   0  0  0  0  0  0  0  0  0  0  0  0
  162.0140  210.3220  150.6100 C   0  0  0  0  0  2  0  0  0  0  0  0
  161.1260  211.3560  149.9400 C   0  0  0  0  0  2  0  0  0  0  0  0
  162.7270  211.4890  148.1790 O   0  0  0  0  0  1  0  0  0  0  0  0
  161.9440  212.2640  149.0340 C   0  0  1  0  0  3  0  0  0  0  0  0
  161.0590  213.2120  148.2270 C   0  0  0  0  0  2  0  0  0  0  0  0
  159.7090  212.5590  146.2030 C   0  0  0  0  0  0  0  0  0  0  0  0
  159.6660  212.2170  144.9930 O   0  0  0  0  0  0  0  0  0  0  0  0
  160.9700  212.7930  146.8330 N   0  0  0  0  0  2  0  0  0  0  0  0
  158.5230  212.7180  146.9100 O   0  0  0  0  0  1  0  0  0  0  0  0
  1  7  1  0  0  0  0
  1 40  1  0  0  0  0
  2  3  2  0  0  0  0
  2  7  1  0  0  0  0
  3  9  1  0  0  0  0
  4  1  2  0  0  0  0
  5  4  1  0  0  0  0
  7  8  2  0  0  0  0
  8  6  1  0  0  0  0
  8 20  1  0  0  0  0
  9 11  1  0  0  0  0
  9  6  2  0  0  0  0
 10  5  1  0  0  0  0
 10  2  1  0  0  0  0
 12 14  1  0  0  0  0
 12 13  2  0  0  0  0
 14 11  1  0  0  0  0
 15 19  1  0  0  0  0
 16 19  2  0  0  0  0
 17 18  2  0  0  0  0
 17 16  1  0  0  0  0
 18 15  1  0  0  0  0
 19 12  1  0  0  0  0
 20 22  1  0  0  0  0
 22 21  1  1  0  0  0
 22 23  1  0  0  0  0
 24 23  1  0  0  0  0
 24 25  1  0  0  0  0
 27 25  1  6  0  0  0
 27 36  1  0  0  0  0
 28 30  1  1  0  0  0
 28 33  1  0  0  0  0
 28 32  1  0  0  0  0
 31 32  2  0  0  0  0
 31 37  1  0  0  0  0
 32 34  1  0  0  0  0
 33 27  1  0  0  0  0
 34 36  1  6  0  0  0
 34 29  1  0  0  0  0
 35 26  2  0  0  0  0
 35 29  1  0  0  0  0
 37 35  1  0  0  0  0
 38 39  1  0  0  0  0
 39 31  1  0  0  0  0
 40 41  1  0  0  0  0
 42 41  1  0  0  0  0
 44 43  1  6  0  0  0
 44 42  1  0  0  0  0
 45 44  1  0  0  0  0
 46 48  1  0  0  0  0
 46 49  1  0  0  0  0
 47 46  2  0  0  0  0
 48 45  1  0  0  0  0
M  END
>  <MODEL>
4

>  <REMARK>
 VINA RESULT:      -5.9      1.647      7.284
  Name = 
  16 active torsions:
  status: ('A' for Active; 'I' for Inactive)
    1  A    between atoms: C_1  and  O_14
    2  A    between atoms: C_3  and  C_43
    3  A    between atoms: C_4  and  C_19
    4  A    between atoms: C_4  and  C_45
    5  A    between atoms: C_11  and  C_29
    6  A    between atoms: O_14  and  C_19
    7  A    between atoms: C_17  and  O_27
    8  A    between atoms: C_21  and  C_32
    9  A    between atoms: C_21  and  C_40
   10  A    between atoms: C_29  and  C_32
   11  A    between atoms: C_30  and  C_39
   12  A    between atoms: C_30  and  C_40
   13  A    between atoms: C_35  and  N_41
   14  A    between atoms: C_35  and  C_45
   15  A    between atoms: C_36  and  N_42
   16  A    between atoms: C_36  and  C_47
                            x       y       z     vdW  Elec       q    Type
                         _______ _______ _______ _____ _____    ______ ____

>  <TORSDO>
F 16

$$$$
=
 OpenBabel11042420343D

 49 53  0  0  1  0  0  0  0  0999 V2000
  159.1630  213.4460  152.0760 C   0  0  0  0  0  0  0  0  0  0  0  0
  159.2870  212.1190  154.1680 C   0  0  0  0  0  0  0  0  0  0  0  0
  159.8220  211.1040  154.9620 C   0  0  0  0  0  3  0  0  0  0  0  0
  158.0630  214.0040  152.4930 N   0  0  0  0  0  0  0  0  0  0  0  0
  157.3130  213.5130  153.6550 C   0  0  0  0  0  2  0  0  0  0  0  0
  161.2520  210.4210  153.1400 C   0  0  0  0  0  3  0  0  0  0  0  0
  159.7550  212.3200  152.8530 C   0  0  0  0  0  0  0  0  0  0  0  0
  160.7450  211.4490  152.3360 C   0  0  0  0  0  0  0  0  0  0  0  0
  160.7960  210.2420  154.4450 C   0  0  0  0  0  0  0  0  0  0  0  0
  158.2680  213.0480  154.7530 C   0  0  0  0  0  2  0  0  0  0  0  0
  161.4220  209.1690  155.2800 C   0  0  0  0  0  2  0  0  0  0  0  0
  160.8320  206.9000  154.3160 C   0  0  0  0  0  0  0  0  0  0  0  0
  159.7060  206.9210  154.8860 O   0  0  0  0  0  0  0  0  0  0  0  0
  161.7490  207.9890  154.4880 N   0  0  0  0  0  2  0  0  0  0  0  0
  160.4830  204.6570  153.3930 O   0  0  0  0  0  0  0  0  0  0  0  0
  162.3380  205.6480  152.7100 C   0  0  0  0  0  3  0  0  0  0  0  0
  162.2550  204.4000  152.1200 C   0  0  0  0  0  3  0  0  0  0  0  0
  161.0830  203.8220  152.5800 C   0  0  0  0  0  3  0  0  0  0  0  0
  161.2030  205.7480  153.4890 C   0  0  0  0  0  0  0  0  0  0  0  0
  161.2470  211.5460  150.9290 C   0  0  0  0  0  2  0  0  0  0  0  0
  162.3380  210.3610  149.1840 O   0  0  0  0  0  1  0  0  0  0  0  0
  162.0680  210.3230  150.5530 C   0  0  2  0  0  3  0  0  0  0  0  0
  161.3080  209.0470  150.8840 C   0  0  0  0  0  2  0  0  0  0  0  0
  161.8850  207.8650  150.1210 C   0  0  0  0  0  2  0  0  0  0  0  0
  161.4150  207.8670  148.6740 C   0  0  0  0  0  2  0  0  0  0  0  0
  161.2920  200.7450  150.0270 O   0  0  0  0  0  0  0  0  0  0  0  0
  160.8240  206.5130  148.3220 C   0  0  1  0  0  3  0  0  0  0  0  0
  161.5140  204.8670  146.4280 C   0  0  1  0  0  3  0  0  0  0  0  0
  161.2640  203.0200  149.6340 O   0  0  0  0  0  0  0  0  0  0  0  0
  162.9070  204.9330  146.4490 O   0  0  0  0  0  1  0  0  0  0  0  0
  160.8490  202.4860  146.9260 C   0  0  0  0  0  0  0  0  0  0  0  0
  161.0450  203.7610  147.3440 C   0  0  0  0  0  0  0  0  0  0  0  0
  160.9270  206.2360  146.8080 C   0  0  0  0  0  2  0  0  0  0  0  0
  160.8000  204.0850  148.8030 C   0  0  2  0  0  3  0  0  0  0  0  0
  161.0060  201.7000  149.2560 C   0  0  0  0  0  0  0  0  0  0  0  0
  161.4280  205.4150  149.1940 C   0  0  0  0  0  2  0  0  0  0  0  0
  160.3890  201.4370  147.9150 C   0  0  0  0  0  2  0  0  0  0  0  0
  160.0720  201.2840  144.8740 C   0  0  0  0  0  1  0  0  0  0  0  0
  161.0230  202.0570  145.6010 O   0  0  0  0  0  0  0  0  0  0  0  0
  159.8220  213.9480  150.9480 O   0  0  0  0  0  0  0  0  0  0  0  0
  159.1390  214.3720  149.7750 C   0  0  0  0  0  2  0  0  0  0  0  0
  160.1000  214.4050  148.6000 C   0  0  0  0  0  2  0  0  0  0  0  0
  158.9270  212.9090  147.1620 O   0  0  0  0  0  1  0  0  0  0  0  0
  160.1140  213.0670  147.8760 C   0  0  1  0  0  3  0  0  0  0  0  0
  161.3150  212.9360  146.9420 C   0  0  0  0  0  2  0  0  0  0  0  0
  161.6430  213.1670  144.4550 C   0  0  0  0  0  0  0  0  0  0  0  0
  161.2600  212.9150  143.2830 O   0  0  0  0  0  0  0  0  0  0  0  0
  160.8910  212.6830  145.5700 N   0  0  0  0  0  2  0  0  0  0  0  0
  162.8040  213.9050  144.6490 O   0  0  0  0  0  1  0  0  0  0  0  0
  1  4  2  0  0  0  0
  1  7  1  0  0  0  0
  2 10  1  0  0  0  0
  2  3  1  0  0  0  0
  4  5  1  0  0  0  0
  5 10  1  0  0  0  0
  6  9  1  0  0  0  0
  7  2  2  0  0  0  0
  8  7  1  0  0  0  0
  8  6  2  0  0  0  0
  9  3  2  0  0  0  0
  9 11  1  0  0  0  0
 12 14  1  0  0  0  0
 12 13  2  0  0  0  0
 14 11  1  0  0  0  0
 15 19  1  0  0  0  0
 16 19  2  0  0  0  0
 17 18  2  0  0  0  0
 17 16  1  0  0  0  0
 18 15  1  0  0  0  0
 19 12  1  0  0  0  0
 20  8  1  0  0  0  0
 22 21  1  6  0  0  0
 22 23  1  0  0  0  0
 22 20  1  0  0  0  0
 24 23  1  0  0  0  0
 25 24  1  0  0  0  0
 27 25  1  6  0  0  0
 27 36  1  0  0  0  0
 28 30  1  1  0  0  0
 28 33  1  0  0  0  0
 28 32  1  0  0  0  0
 31 32  2  0  0  0  0
 31 37  1  0  0  0  0
 32 34  1  0  0  0  0
 33 27  1  0  0  0  0
 34 36  1  1  0  0  0
 34 29  1  0  0  0  0
 35 29  1  0  0  0  0
 35 26  2  0  0  0  0
 37 35  1  0  0  0  0
 38 39  1  0  0  0  0
 39 31  1  0  0  0  0
 40  1  1  0  0  0  0
 41 40  1  0  0  0  0
 42 41  1  0  0  0  0
 44 43  1  6  0  0  0
 44 42  1  0  0  0  0
 45 44  1  0  0  0  0
 46 49  1  0  0  0  0
 46 48  1  0  0  0  0
 47 46  2  0  0  0  0
 48 45  1  0  0  0  0
M  END
>  <MODEL>
5

>  <REMARK>
 VINA RESULT:      -5.8      2.553     10.115
  Name = 
  16 active torsions:
  status: ('A' for Active; 'I' for Inactive)
    1  A    between atoms: C_1  and  O_14
    2  A    between atoms: C_3  and  C_43
    3  A    between atoms: C_4  and  C_19
    4  A    between atoms: C_4  and  C_45
    5  A    between atoms: C_11  and  C_29
    6  A    between atoms: O_14  and  C_19
    7  A    between atoms: C_17  and  O_27
    8  A    between atoms: C_21  and  C_32
    9  A    between atoms: C_21  and  C_40
   10  A    between atoms: C_29  and  C_32
   11  A    between atoms: C_30  and  C_39
   12  A    between atoms: C_30  and  C_40
   13  A    between atoms: C_35  and  N_41
   14  A    between atoms: C_35  and  C_45
   15  A    between atoms: C_36  and  N_42
   16  A    between atoms: C_36  and  C_47
                            x       y       z     vdW  Elec       q    Type
                         _______ _______ _______ _____ _____    ______ ____

>  <TORSDO>
F 16

$$$$
=
 OpenBabel11042420343D

 49 53  0  0  1  0  0  0  0  0999 V2000
  161.5810  204.8170  148.7930 C   0  0  0  0  0  0  0  0  0  0  0  0
  161.0360  204.3070  151.1580 C   0  0  0  0  0  0  0  0  0  0  0  0
  160.9480  204.6420  152.5090 C   0  0  0  0  0  3  0  0  0  0  0  0
  161.4250  203.5620  148.4840 N   0  0  0  0  0  0  0  0  0  0  0  0
  161.3150  202.5030  149.4940 C   0  0  0  0  0  2  0  0  0  0  0  0
  161.9420  206.7950  152.0490 C   0  0  0  0  0  3  0  0  0  0  0  0
  161.5510  205.2300  150.2240 C   0  0  0  0  0  0  0  0  0  0  0  0
  162.0170  206.4860  150.6850 C   0  0  0  0  0  0  0  0  0  0  0  0
  161.4160  205.8820  152.9620 C   0  0  0  0  0  0  0  0  0  0  0  0
  160.5020  202.9880  150.6930 C   0  0  0  0  0  2  0  0  0  0  0  0
  161.2990  206.2910  154.3970 C   0  0  0  0  0  2  0  0  0  0  0  0
  161.0880  208.4660  155.6820 C   0  0  0  0  0  0  0  0  0  0  0  0
  161.7500  207.9910  156.6460 O   0  0  0  0  0  0  0  0  0  0  0  0
  160.8100  207.6580  154.5300 N   0  0  0  0  0  2  0  0  0  0  0  0
  161.0240  210.8150  154.9890 O   0  0  0  0  0  0  0  0  0  0  0  0
  159.6170  210.3040  156.6180 C   0  0  0  0  0  3  0  0  0  0  0  0
  159.4830  211.6470  156.3170 C   0  0  0  0  0  3  0  0  0  0  0  0
  160.3830  211.9170  155.2980 C   0  0  0  0  0  3  0  0  0  0  0  0
  160.5910  209.8430  155.7540 C   0  0  0  0  0  0  0  0  0  0  0  0
  162.6420  207.4960  149.7750 C   0  0  0  0  0  2  0  0  0  0  0  0
  161.0910  208.4040  148.2220 O   0  0  0  0  0  1  0  0  0  0  0  0
  161.6770  208.6310  149.4680 C   0  0  2  0  0  3  0  0  0  0  0  0
  162.4090  209.9640  149.4480 C   0  0  0  0  0  2  0  0  0  0  0  0
  161.9770  210.7960  148.2510 C   0  0  0  0  0  2  0  0  0  0  0  0
  162.4040  212.2470  148.4140 C   0  0  0  0  0  2  0  0  0  0  0  0
  157.4020  212.1910  153.6620 O   0  0  0  0  0  0  0  0  0  0  0  0
  161.3300  213.0210  149.1590 C   0  0  1  0  0  3  0  0  0  0  0  0
  158.8370  213.3980  148.5170 C   0  0  1  0  0  3  0  0  0  0  0  0
  159.0410  212.2500  152.0370 O   0  0  0  0  0  0  0  0  0  0  0  0
  158.4520  212.1530  148.0190 O   0  0  0  0  0  1  0  0  0  0  0  0
  157.3890  213.9090  150.5170 C   0  0  0  0  0  0  0  0  0  0  0  0
  158.5590  213.4590  150.0000 C   0  0  0  0  0  0  0  0  0  0  0  0
  160.3160  213.6500  148.1830 C   0  0  0  0  0  2  0  0  0  0  0  0
  159.6290  212.9770  150.9580 C   0  0  2  0  0  3  0  0  0  0  0  0
  157.8750  212.7390  152.6310 C   0  0  0  0  0  0  0  0  0  0  0  0
  160.6910  212.1530  150.2410 C   0  0  0  0  0  2  0  0  0  0  0  0
  157.1910  213.9240  152.0170 C   0  0  0  0  0  2  0  0  0  0  0  0
  154.9560  214.3430  150.1340 C   0  0  0  0  0  1  0  0  0  0  0  0
  156.3250  214.3980  149.7440 O   0  0  0  0  0  0  0  0  0  0  0  0
  161.7020  205.7790  147.7830 O   0  0  0  0  0  0  0  0  0  0  0  0
  162.4090  205.5470  146.5700 C   0  0  0  0  0  2  0  0  0  0  0  0
  161.6930  206.2270  145.4170 C   0  0  0  0  0  2  0  0  0  0  0  0
  161.5590  205.3600  143.2000 O   0  0  0  0  0  1  0  0  0  0  0  0
  161.0610  205.1970  144.4920 C   0  0  1  0  0  3  0  0  0  0  0  0
  161.3040  203.7690  144.9770 C   0  0  0  0  0  2  0  0  0  0  0  0
  160.0810  201.5830  145.2430 C   0  0  0  0  0  0  0  0  0  0  0  0
  159.0290  200.9050  145.1040 O   0  0  0  0  0  0  0  0  0  0  0  0
  160.1130  202.9450  144.8120 N   0  0  0  0  0  2  0  0  0  0  0  0
  161.1970  200.9980  145.8290 O   0  0  0  0  0  1  0  0  0  0  0  0
  1  7  1  0  0  0  0
  2  3  1  0  0  0  0
  3  9  2  0  0  0  0
  4  1  2  0  0  0  0
  4  5  1  0  0  0  0
  5 10  1  0  0  0  0
  6  9  1  0  0  0  0
  7  8  1  0  0  0  0
  7  2  2  0  0  0  0
  8  6  2  0  0  0  0
  9 11  1  0  0  0  0
 10  2  1  0  0  0  0
 11 14  1  0  0  0  0
 12 19  1  0  0  0  0
 12 13  2  0  0  0  0
 14 12  1  0  0  0  0
 15 18  1  0  0  0  0
 15 19  1  0  0  0  0
 17 16  1  0  0  0  0
 18 17  2  0  0  0  0
 19 16  2  0  0  0  0
 20  8  1  0  0  0  0
 22 21  1  6  0  0  0
 22 20  1  0  0  0  0
 23 22  1  0  0  0  0
 24 25  1  0  0  0  0
 24 23  1  0  0  0  0
 27 25  1  6  0  0  0
 27 36  1  0  0  0  0
 28 30  1  1  0  0  0
 28 32  1  0  0  0  0
 29 35  1  0  0  0  0
 31 37  1  0  0  0  0
 32 31  2  0  0  0  0
 32 34  1  0  0  0  0
 33 28  1  0  0  0  0
 33 27  1  0  0  0  0
 34 36  1  6  0  0  0
 34 29  1  0  0  0  0
 35 26  2  0  0  0  0
 37 35  1  0  0  0  0
 39 38  1  0  0  0  0
 39 31  1  0  0  0  0
 40  1  1  0  0  0  0
 41 40  1  0  0  0  0
 42 41  1  0  0  0  0
 44 43  1  6  0  0  0
 44 45  1  0  0  0  0
 44 42  1  0  0  0  0
 46 49  1  0  0  0  0
 47 46  2  0  0  0  0
 48 45  1  0  0  0  0
 48 46  1  0  0  0  0
M  END
>  <MODEL>
6

>  <REMARK>
 VINA RESULT:      -5.7      2.268      5.797
  Name = 
  16 active torsions:
  status: ('A' for Active; 'I' for Inactive)
    1  A    between atoms: C_1  and  O_14
    2  A    between atoms: C_3  and  C_43
    3  A    between atoms: C_4  and  C_19
    4  A    between atoms: C_4  and  C_45
    5  A    between atoms: C_11  and  C_29
    6  A    between atoms: O_14  and  C_19
    7  A    between atoms: C_17  and  O_27
    8  A    between atoms: C_21  and  C_32
    9  A    between atoms: C_21  and  C_40
   10  A    between atoms: C_29  and  C_32
   11  A    between atoms: C_30  and  C_39
   12  A    between atoms: C_30  and  C_40
   13  A    between atoms: C_35  and  N_41
   14  A    between atoms: C_35  and  C_45
   15  A    between atoms: C_36  and  N_42
   16  A    between atoms: C_36  and  C_47
                            x       y       z     vdW  Elec       q    Type
                         _______ _______ _______ _____ _____    ______ ____

>  <TORSDO>
F 16

$$$$
=
 OpenBabel11042420343D

 49 53  0  0  1  0  0  0  0  0999 V2000
  159.0860  212.4600  153.2230 C   0  0  0  0  0  0  0  0  0  0  0  0
  159.2700  210.6650  154.9240 C   0  0  0  0  0  0  0  0  0  0  0  0
  159.7660  209.4490  155.3940 C   0  0  0  0  0  3  0  0  0  0  0  0
  158.1010  212.9920  153.8880 N   0  0  0  0  0  0  0  0  0  0  0  0
  157.4210  212.3020  154.9890 C   0  0  0  0  0  2  0  0  0  0  0  0
  160.9250  209.1050  153.3030 C   0  0  0  0  0  3  0  0  0  0  0  0
  159.6240  211.1350  153.6430 C   0  0  0  0  0  0  0  0  0  0  0  0
  160.4560  210.3340  152.8230 C   0  0  0  0  0  0  0  0  0  0  0  0
  160.5830  208.6570  154.5780 C   0  0  0  0  0  0  0  0  0  0  0  0
  158.4230  211.5080  155.8260 C   0  0  0  0  0  2  0  0  0  0  0  0
  161.1670  207.3660  155.0630 C   0  0  0  0  0  2  0  0  0  0  0  0
  161.6310  205.7640  153.1550 C   0  0  0  0  0  0  0  0  0  0  0  0
  162.7330  206.3300  152.9130 O   0  0  0  0  0  0  0  0  0  0  0  0
  160.7870  206.2470  154.2090 N   0  0  0  0  0  2  0  0  0  0  0  0
  161.7910  203.4450  152.3790 O   0  0  0  0  0  0  0  0  0  0  0  0
  160.1660  204.6130  151.4380 C   0  0  0  0  0  3  0  0  0  0  0  0
  160.1500  203.3300  150.9230 C   0  0  0  0  0  3  0  0  0  0  0  0
  161.1830  202.6430  151.5390 C   0  0  0  0  0  3  0  0  0  0  0  0
  161.2100  204.6200  152.3410 C   0  0  0  0  0  0  0  0  0  0  0  0
  160.8240  210.7220  151.4260 C   0  0  0  0  0  2  0  0  0  0  0  0
  162.5040  210.4630  149.7670 O   0  0  0  0  0  1  0  0  0  0  0  0
  161.9460  209.8480  150.8890 C   0  0  2  0  0  3  0  0  0  0  0  0
  161.4150  208.4750  150.5020 C   0  0  0  0  0  2  0  0  0  0  0  0
  162.4530  207.7040  149.7020 C   0  0  0  0  0  2  0  0  0  0  0  0
  162.1210  207.7200  148.2180 C   0  0  0  0  0  2  0  0  0  0  0  0
  161.7210  200.4810  148.2830 O   0  0  0  0  0  0  0  0  0  0  0  0
  161.3140  206.4850  147.8560 C   0  0  1  0  0  3  0  0  0  0  0  0
  161.1860  205.2180  145.5870 C   0  0  1  0  0  3  0  0  0  0  0  0
  161.7980  202.7890  148.3210 O   0  0  0  0  0  0  0  0  0  0  0  0
  162.5100  205.2260  145.1500 O   0  0  0  0  0  1  0  0  0  0  0  0
  160.4790  202.8120  145.8610 C   0  0  0  0  0  0  0  0  0  0  0  0
  160.9280  203.9730  146.4020 C   0  0  0  0  0  0  0  0  0  0  0  0
  160.8950  206.5070  146.3730 C   0  0  0  0  0  2  0  0  0  0  0  0
  161.2010  204.0120  147.8910 C   0  0  2  0  0  3  0  0  0  0  0  0
  161.3000  201.5790  147.8300 C   0  0  0  0  0  0  0  0  0  0  0  0
  162.0530  205.2150  148.2710 C   0  0  0  0  0  2  0  0  0  0  0  0
  160.2600  201.6090  146.7500 C   0  0  0  0  0  2  0  0  0  0  0  0
  159.0030  203.1610  143.8720 C   0  0  0  0  0  1  0  0  0  0  0  0
  160.1730  202.6460  144.5020 O   0  0  0  0  0  0  0  0  0  0  0  0
  159.6810  213.1610  152.1670 O   0  0  0  0  0  0  0  0  0  0  0  0
  159.1530  214.3740  151.6450 C   0  0  0  0  0  2  0  0  0  0  0  0
  158.8300  214.2060  150.1720 C   0  0  0  0  0  2  0  0  0  0  0  0
  156.5290  214.0600  150.7820 O   0  0  0  0  0  1  0  0  0  0  0  0
  157.5110  213.4670  149.9890 C   0  0  1  0  0  3  0  0  0  0  0  0
  157.0680  213.4440  148.5280 C   0  0  0  0  0  2  0  0  0  0  0  0
  158.2240  213.0360  146.3270 C   0  0  0  0  0  0  0  0  0  0  0  0
  159.2100  213.2290  145.5680 O   0  0  0  0  0  0  0  0  0  0  0  0
  158.2010  213.6250  147.6290 N   0  0  0  0  0  2  0  0  0  0  0  0
  157.1610  212.2600  145.8810 O   0  0  0  0  0  1  0  0  0  0  0  0
  1  7  1  0  0  0  0
  1  4  2  0  0  0  0
  2  3  1  0  0  0  0
  2 10  1  0  0  0  0
  4  5  1  0  0  0  0
  5 10  1  0  0  0  0
  6  9  1  0  0  0  0
  7  2  2  0  0  0  0
  8  6  2  0  0  0  0
  8  7  1  0  0  0  0
  9 11  1  0  0  0  0
  9  3  2  0  0  0  0
 12 14  1  0  0  0  0
 13 12  2  0  0  0  0
 14 11  1  0  0  0  0
 16 19  2  0  0  0  0
 17 16  1  0  0  0  0
 17 18  2  0  0  0  0
 18 15  1  0  0  0  0
 19 15  1  0  0  0  0
 19 12  1  0  0  0  0
 20  8  1  0  0  0  0
 22 21  1  6  0  0  0
 22 20  1  0  0  0  0
 23 22  1  0  0  0  0
 24 23  1  0  0  0  0
 25 24  1  0  0  0  0
 27 25  1  6  0  0  0
 27 36  1  0  0  0  0
 28 30  1  1  0  0  0
 28 33  1  0  0  0  0
 28 32  1  0  0  0  0
 31 32  2  0  0  0  0
 31 37  1  0  0  0  0
 32 34  1  0  0  0  0
 33 27  1  0  0  0  0
 34 36  1  6  0  0  0
 34 29  1  0  0  0  0
 35 26  2  0  0  0  0
 35 29  1  0  0  0  0
 37 35  1  0  0  0  0
 38 39  1  0  0  0  0
 39 31  1  0  0  0  0
 40  1  1  0  0  0  0
 41 40  1  0  0  0  0
 42 41  1  0  0  0  0
 44 42  1  0  0  0  0
 44 43  1  1  0  0  0
 45 44  1  0  0  0  0
 46 48  1  0  0  0  0
 47 46  2  0  0  0  0
 48 45  1  0  0  0  0
 49 46  1  0  0  0  0
M  END
>  <MODEL>
7

>  <REMARK>
 VINA RESULT:      -5.7      2.511     10.314
  Name = 
  16 active torsions:
  status: ('A' for Active; 'I' for Inactive)
    1  A    between atoms: C_1  and  O_14
    2  A    between atoms: C_3  and  C_43
    3  A    between atoms: C_4  and  C_19
    4  A    between atoms: C_4  and  C_45
    5  A    between atoms: C_11  and  C_29
    6  A    between atoms: O_14  and  C_19
    7  A    between atoms: C_17  and  O_27
    8  A    between atoms: C_21  and  C_32
    9  A    between atoms: C_21  and  C_40
   10  A    between atoms: C_29  and  C_32
   11  A    between atoms: C_30  and  C_39
   12  A    between atoms: C_30  and  C_40
   13  A    between atoms: C_35  and  N_41
   14  A    between atoms: C_35  and  C_45
   15  A    between atoms: C_36  and  N_42
   16  A    between atoms: C_36  and  C_47
                            x       y       z     vdW  Elec       q    Type
                         _______ _______ _______ _____ _____    ______ ____

>  <TORSDO>
F 16

$$$$
=
 OpenBabel11042420343D

 49 53  0  0  1  0  0  0  0  0999 V2000
  161.4300  205.9480  150.0760 C   0  0  0  0  0  0  0  0  0  0  0  0
  161.1120  206.3720  152.4990 C   0  0  0  0  0  0  0  0  0  0  0  0
  161.0090  207.2140  153.6070 C   0  0  0  0  0  3  0  0  0  0  0  0
  161.5440  204.6730  150.3120 N   0  0  0  0  0  0  0  0  0  0  0  0
  161.7150  204.1270  151.6640 C   0  0  0  0  0  2  0  0  0  0  0  0
  161.4780  209.1260  152.2080 C   0  0  0  0  0  3  0  0  0  0  0  0
  161.3680  206.9030  151.2180 C   0  0  0  0  0  0  0  0  0  0  0  0
  161.5620  208.3000  151.0800 C   0  0  0  0  0  0  0  0  0  0  0  0
  161.2070  208.5920  153.4670 C   0  0  0  0  0  0  0  0  0  0  0  0
  160.8660  204.9050  152.6680 C   0  0  0  0  0  2  0  0  0  0  0  0
  161.0630  209.5300  154.6250 C   0  0  0  0  0  2  0  0  0  0  0  0
  159.4260  211.3990  155.1290 C   0  0  0  0  0  0  0  0  0  0  0  0
  160.3710  212.1800  155.4310 O   0  0  0  0  0  0  0  0  0  0  0  0
  159.7050  210.0490  154.7340 N   0  0  0  0  0  2  0  0  0  0  0  0
  157.2670  211.7110  156.2440 O   0  0  0  0  0  0  0  0  0  0  0  0
  157.3710  212.5520  154.2010 C   0  0  0  0  0  3  0  0  0  0  0  0
  156.1120  212.7940  154.7200 C   0  0  0  0  0  3  0  0  0  0  0  0
  156.0970  212.2480  155.9940 C   0  0  0  0  0  3  0  0  0  0  0  0
  158.0420  211.8760  155.2000 C   0  0  0  0  0  0  0  0  0  0  0  0
  161.9080  208.9390  149.7720 C   0  0  0  0  0  2  0  0  0  0  0  0
  161.1290  211.0160  150.6210 O   0  0  0  0  0  1  0  0  0  0  0  0
  162.1950  210.4230  149.9440 C   0  0  2  0  0  3  0  0  0  0  0  0
  162.3700  211.0930  148.5890 C   0  0  0  0  0  2  0  0  0  0  0  0
  161.0580  211.6990  148.1160 C   0  0  0  0  0  2  0  0  0  0  0  0
  161.1460  213.2160  148.0650 C   0  0  0  0  0  2  0  0  0  0  0  0
  159.6260  211.4680  141.1940 O   0  0  0  0  0  0  0  0  0  0  0  0
  161.0100  213.6930  146.6290 C   0  0  1  0  0  3  0  0  0  0  0  0
  162.8570  213.9980  144.8210 C   0  0  1  0  0  3  0  0  0  0  0  0
  160.0400  212.0580  143.3880 O   0  0  0  0  0  0  0  0  0  0  0  0
  163.6700  212.8810  145.0150 O   0  0  0  0  0  1  0  0  0  0  0  0
  161.9410  213.8860  142.4730 C   0  0  0  0  0  0  0  0  0  0  0  0
  161.7870  213.6750  143.8050 C   0  0  0  0  0  0  0  0  0  0  0  0
  162.2720  214.4490  146.1690 C   0  0  0  0  0  2  0  0  0  0  0  0
  160.4850  213.0710  144.2900 C   0  0  2  0  0  3  0  0  0  0  0  0
  160.1230  212.2870  142.0120 C   0  0  0  0  0  0  0  0  0  0  0  0
  160.6120  212.5380  145.7110 C   0  0  0  0  0  2  0  0  0  0  0  0
  160.8210  213.5220  141.5240 C   0  0  0  0  0  2  0  0  0  0  0  0
  163.3900  214.4120  140.5040 C   0  0  0  0  0  1  0  0  0  0  0  0
  163.0870  214.4530  141.8960 O   0  0  0  0  0  0  0  0  0  0  0  0
  161.2910  206.4090  148.7620 O   0  0  0  0  0  0  0  0  0  0  0  0
  162.3430  206.3600  147.8060 C   0  0  0  0  0  2  0  0  0  0  0  0
  162.4870  204.9480  147.2680 C   0  0  0  0  0  2  0  0  0  0  0  0
  162.7510  204.3980  144.9630 O   0  0  0  0  0  1  0  0  0  0  0  0
  161.8160  204.8180  145.9080 C   0  0  1  0  0  3  0  0  0  0  0  0
  160.6310  203.8540  145.9460 C   0  0  0  0  0  2  0  0  0  0  0  0
  160.9570  201.6160  147.0560 C   0  0  0  0  0  0  0  0  0  0  0  0
  161.3350  200.4170  146.9890 O   0  0  0  0  0  0  0  0  0  0  0  0
  161.0790  202.4660  145.9140 N   0  0  0  0  0  2  0  0  0  0  0  0
  160.4120  202.0940  148.2410 O   0  0  0  0  0  1  0  0  0  0  0  0
  1  4  2  0  0  0  0
  1  7  1  0  0  0  0
  2 10  1  0  0  0  0
  2  3  1  0  0  0  0
  4  5  1  0  0  0  0
  5 10  1  0  0  0  0
  6  9  1  0  0  0  0
  7  2  2  0  0  0  0
  8  7  1  0  0  0  0
  8  6  2  0  0  0  0
  9  3  2  0  0  0  0
  9 11  1  0  0  0  0
 11 14  1  0  0  0  0
 12 19  1  0  0  0  0
 12 13  2  0  0  0  0
 14 12  1  0  0  0  0
 16 17  1  0  0  0  0
 16 19  2  0  0  0  0
 17 18  2  0  0  0  0
 18 15  1  0  0  0  0
 19 15  1  0  0  0  0
 20 22  1  0  0  0  0
 20  8  1  0  0  0  0
 22 21  1  6  0  0  0
 23 22  1  0  0  0  0
 24 23  1  0  0  0  0
 25 24  1  0  0  0  0
 26 35  2  0  0  0  0
 27 25  1  1  0  0  0
 28 30  1  1  0  0  0
 28 33  1  0  0  0  0
 29 34  1  0  0  0  0
 31 32  2  0  0  0  0
 32 34  1  0  0  0  0
 32 28  1  0  0  0  0
 33 27  1  0  0  0  0
 34 36  1  1  0  0  0
 35 29  1  0  0  0  0
 36 27  1  0  0  0  0
 37 35  1  0  0  0  0
 37 31  1  0  0  0  0
 38 39  1  0  0  0  0
 39 31  1  0  0  0  0
 40  1  1  0  0  0  0
 41 40  1  0  0  0  0
 42 41  1  0  0  0  0
 44 43  1  6  0  0  0
 44 45  1  0  0  0  0
 44 42  1  0  0  0  0
 46 49  1  0  0  0  0
 47 46  2  0  0  0  0
 48 45  1  0  0  0  0
 48 46  1  0  0  0  0
M  END
>  <MODEL>
8

>  <REMARK>
 VINA RESULT:      -5.3      2.309      7.815
  Name = 
  16 active torsions:
  status: ('A' for Active; 'I' for Inactive)
    1  A    between atoms: C_1  and  O_14
    2  A    between atoms: C_3  and  C_43
    3  A    between atoms: C_4  and  C_19
    4  A    between atoms: C_4  and  C_45
    5  A    between atoms: C_11  and  C_29
    6  A    between atoms: O_14  and  C_19
    7  A    between atoms: C_17  and  O_27
    8  A    between atoms: C_21  and  C_32
    9  A    between atoms: C_21  and  C_40
   10  A    between atoms: C_29  and  C_32
   11  A    between atoms: C_30  and  C_39
   12  A    between atoms: C_30  and  C_40
   13  A    between atoms: C_35  and  N_41
   14  A    between atoms: C_35  and  C_45
   15  A    between atoms: C_36  and  N_42
   16  A    between atoms: C_36  and  C_47
                            x       y       z     vdW  Elec       q    Type
                         _______ _______ _______ _____ _____    ______ ____

>  <TORSDO>
F 16

$$$$
=
 OpenBabel11042420343D

 49 53  0  0  1  0  0  0  0  0999 V2000
  160.8850  210.0490  155.2220 C   0  0  0  0  0  0  0  0  0  0  0  0
  159.4000  212.0320  155.0950 C   0  0  0  0  0  0  0  0  0  0  0  0
  158.5730  212.9180  154.4060 C   0  0  0  0  0  3  0  0  0  0  0  0
  161.2380  210.3880  156.4280 N   0  0  0  0  0  0  0  0  0  0  0  0
  160.9270  211.6990  157.0080 C   0  0  0  0  0  2  0  0  0  0  0  0
  159.0570  211.7730  152.3350 C   0  0  0  0  0  3  0  0  0  0  0  0
  160.0450  210.9780  154.4140 C   0  0  0  0  0  0  0  0  0  0  0  0
  159.8730  210.8590  153.0130 C   0  0  0  0  0  0  0  0  0  0  0  0
  158.4110  212.8010  153.0200 C   0  0  0  0  0  0  0  0  0  0  0  0
  159.5340  212.1590  156.5810 C   0  0  0  0  0  2  0  0  0  0  0  0
  157.4990  213.7080  152.2540 C   0  0  0  0  0  2  0  0  0  0  0  0
  156.9820  213.7690  149.7730 C   0  0  0  0  0  0  0  0  0  0  0  0
  155.7580  213.5530  149.9960 O   0  0  0  0  0  0  0  0  0  0  0  0
  157.9120  213.8390  150.8620 N   0  0  0  0  0  2  0  0  0  0  0  0
  156.7150  213.6650  147.3400 O   0  0  0  0  0  0  0  0  0  0  0  0
  158.6980  214.3770  148.0130 C   0  0  0  0  0  3  0  0  0  0  0  0
  158.6730  214.3680  146.6300 C   0  0  0  0  0  3  0  0  0  0  0  0
  157.4170  213.9140  146.2600 C   0  0  0  0  0  3  0  0  0  0  0  0
  157.4480  213.9310  148.3930 C   0  0  0  0  0  0  0  0  0  0  0  0
  160.5740  209.8150  152.2020 C   0  0  0  0  0  2  0  0  0  0  0  0
  161.5900  211.4560  150.8190 O   0  0  0  0  0  1  0  0  0  0  0  0
  161.8730  210.3500  151.6210 C   0  0  2  0  0  3  0  0  0  0  0  0
  162.5650  209.2830  150.7870 C   0  0  0  0  0  2  0  0  0  0  0  0
  161.5840  208.6370  149.8210 C   0  0  0  0  0  2  0  0  0  0  0  0
  162.0900  208.7260  148.3890 C   0  0  0  0  0  2  0  0  0  0  0  0
  159.6330  203.5370  143.9610 O   0  0  0  0  0  0  0  0  0  0  0  0
  162.2930  207.3300  147.8260 C   0  0  1  0  0  3  0  0  0  0  0  0
  161.6090  205.0360  148.8440 C   0  0  1  0  0  3  0  0  0  0  0  0
  160.4700  205.2060  145.3190 O   0  0  0  0  0  0  0  0  0  0  0  0
  160.3470  205.2960  149.3790 O   0  0  0  0  0  1  0  0  0  0  0  0
  161.3490  203.2390  147.0940 C   0  0  0  0  0  0  0  0  0  0  0  0
  161.4660  204.5500  147.4210 C   0  0  0  0  0  0  0  0  0  0  0  0
  162.4830  206.2960  148.9530 C   0  0  0  0  0  2  0  0  0  0  0  0
  161.4340  205.5750  146.3060 C   0  0  2  0  0  3  0  0  0  0  0  0
  160.3850  203.8720  144.9160 C   0  0  0  0  0  0  0  0  0  0  0  0
  161.1790  206.9770  146.8430 C   0  0  0  0  0  2  0  0  0  0  0  0
  161.1980  202.8420  145.6420 C   0  0  0  0  0  2  0  0  0  0  0  0
  161.0490  200.8370  147.7260 C   0  0  0  0  0  1  0  0  0  0  0  0
  161.3800  202.1900  148.0260 O   0  0  0  0  0  0  0  0  0  0  0  0
  161.2300  208.7900  154.7160 O   0  0  0  0  0  0  0  0  0  0  0  0
  160.5850  207.5880  155.1200 C   0  0  0  0  0  2  0  0  0  0  0  0
  161.3940  206.3880  154.6600 C   0  0  0  0  0  2  0  0  0  0  0  0
  161.2550  206.6030  152.2900 O   0  0  0  0  0  1  0  0  0  0  0  0
  160.8310  205.8230  153.3650 C   0  0  1  0  0  3  0  0  0  0  0  0
  161.2380  204.3660  153.1530 C   0  0  0  0  0  2  0  0  0  0  0  0
  160.8470  202.5830  151.4170 C   0  0  0  0  0  0  0  0  0  0  0  0
  160.0870  202.0390  150.5730 O   0  0  0  0  0  0  0  0  0  0  0  0
  160.3960  203.7230  152.1510 N   0  0  0  0  0  2  0  0  0  0  0  0
  162.1140  202.0560  151.6340 O   0  0  0  0  0  1  0  0  0  0  0  0
  1  4  2  0  0  0  0
  2 10  1  0  0  0  0
  3  2  2  0  0  0  0
  4  5  1  0  0  0  0
  6  8  1  0  0  0  0
  6  9  2  0  0  0  0
  7  2  1  0  0  0  0
  7  1  1  0  0  0  0
  8  7  2  0  0  0  0
  9  3  1  0  0  0  0
 10  5  1  0  0  0  0
 11  9  1  0  0  0  0
 12 13  2  0  0  0  0
 12 14  1  0  0  0  0
 14 11  1  0  0  0  0
 15 19  1  0  0  0  0
 16 19  2  0  0  0  0
 17 16  1  0  0  0  0
 18 17  2  0  0  0  0
 18 15  1  0  0  0  0
 19 12  1  0  0  0  0
 20  8  1  0  0  0  0
 22 21  1  6  0  0  0
 22 20  1  0  0  0  0
 23 22  1  0  0  0  0
 24 23  1  0  0  0  0
 25 24  1  0  0  0  0
 26 35  2  0  0  0  0
 27 25  1  1  0  0  0
 27 33  1  0  0  0  0
 28 33  1  0  0  0  0
 28 30  1  6  0  0  0
 29 34  1  0  0  0  0
 31 32  2  0  0  0  0
 31 39  1  0  0  0  0
 32 28  1  0  0  0  0
 34 36  1  1  0  0  0
 34 32  1  0  0  0  0
 35 29  1  0  0  0  0
 35 37  1  0  0  0  0
 36 27  1  0  0  0  0
 37 31  1  0  0  0  0
 38 39  1  0  0  0  0
 40 41  1  0  0  0  0
 40  1  1  0  0  0  0
 42 41  1  0  0  0  0
 44 43  1  6  0  0  0
 44 42  1  0  0  0  0
 45 44  1  0  0  0  0
 46 49  1  0  0  0  0
 46 48  1  0  0  0  0
 47 46  2  0  0  0  0
 48 45  1  0  0  0  0
M  END
>  <MODEL>
9

>  <REMARK>
 VINA RESULT:      -5.3      2.465      8.227
  Name = 
  16 active torsions:
  status: ('A' for Active; 'I' for Inactive)
    1  A    between atoms: C_1  and  O_14
    2  A    between atoms: C_3  and  C_43
    3  A    between atoms: C_4  and  C_19
    4  A    between atoms: C_4  and  C_45
    5  A    between atoms: C_11  and  C_29
    6  A    between atoms: O_14  and  C_19
    7  A    between atoms: C_17  and  O_27
    8  A    between atoms: C_21  and  C_32
    9  A    between atoms: C_21  and  C_40
   10  A    between atoms: C_29  and  C_32
   11  A    between atoms: C_30  and  C_39
   12  A    between atoms: C_30  and  C_40
   13  A    between atoms: C_35  and  N_41
   14  A    between atoms: C_35  and  C_45
   15  A    between atoms: C_36  and  N_42
   16  A    between atoms: C_36  and  C_47
                            x       y       z     vdW  Elec       q    Type
                         _______ _______ _______ _____ _____    ______ ____

>  <TORSDO>
F 16

$$$$
