=
 OpenBabel11052410553D

 30 31  0  0  1  0  0  0  0  0999 V2000
  161.2060  206.4680  152.8670 C   0  0  0  0  0  0  0  0  0  0  0  0
  160.9970  204.6390  150.7230 C   0  0  0  0  0  0  0  0  0  0  0  0
  161.1740  205.0860  153.1090 C   0  0  0  0  0  3  0  0  0  0  0  0
  161.0290  206.0220  150.4870 C   0  0  0  0  0  3  0  0  0  0  0  0
  161.0690  204.1830  152.0490 C   0  0  0  0  0  3  0  0  0  0  0  0
  161.1300  206.9380  151.5450 C   0  0  0  0  0  0  0  0  0  0  0  0
  161.3510  201.0400  148.2340 C   0  0  0  0  0  2  0  0  0  0  0  0
  160.2470  201.2830  149.1990 C   0  0  0  0  0  3  0  0  0  0  0  0
  160.0670  202.4570  149.8000 C   0  0  0  0  0  3  0  0  0  0  0  0
  161.1580  201.8680  147.0510 N   0  0  0  0  0  0  0  0  0  0  0  0
  161.3840  203.2850  147.1230 C   0  0  0  0  0  0  0  0  0  0  0  0
  160.8730  203.6860  149.5870 C   0  0  0  0  0  0  0  0  0  0  0  0
  161.4110  204.0270  148.4010 C   0  0  0  0  0  3  0  0  0  0  0  0
  161.6000  203.9340  146.0650 O   0  0  0  0  0  0  0  0  0  0  0  0
  159.6920  201.5690  145.1450 C   0  0  0  0  0  2  0  0  0  0  0  0
  160.8150  201.2730  145.7900 C   0  0  0  0  0  3  0  0  0  0  0  0
  161.3090  207.3830  153.9210 O   0  0  0  0  0  0  0  0  0  0  0  0
  160.6650  207.1920  155.1730 C   0  0  0  0  0  1  0  0  0  0  0  0
  161.1570  208.4170  151.2710 C   0  0  1  0  0  3  0  0  0  0  0  0
  161.1300  209.2430  152.5630 C   0  0  0  0  0  3  0  0  0  0  0  0
  159.8640  210.0770  152.6350 C   0  0  0  0  0  1  0  0  0  0  0  0
  162.3500  210.1420  152.7200 C   0  0  0  0  0  1  0  0  0  0  0  0
  162.2840  208.8170  150.3160 C   0  0  0  0  0  2  0  0  0  0  0  0
  161.7360  209.1550  149.0120 N   0  0  0  0  0  2  0  0  0  0  0  0
  162.4150  210.3590  148.5610 C   0  0  0  0  0  2  0  0  0  0  0  0
  161.2830  212.6020  148.6470 C   0  0  0  0  0  3  0  0  0  0  0  0
  161.8530  211.5570  149.2550 C   0  0  0  0  0  3  0  0  0  0  0  0
  161.1260  212.8020  147.1950 C   0  0  0  0  0  0  0  0  0  0  0  0
  162.1120  213.2080  146.5280 O   0  0  0  0  0  0  0  0  0  0  0  0
  159.9000  212.5250  146.5220 N   0  0  0  0  0  1  0  0  0  0  0  0
  1  3  1  0  0  0  0
  1 17  1  0  0  0  0
  2  5  1  0  0  0  0
  4  2  2  0  0  0  0
  4  6  1  0  0  0  0
  5  3  2  0  0  0  0
  6  1  2  0  0  0  0
  7  8  1  0  0  0  0
  8  9  2  0  0  0  0
 10 11  1  0  0  0  0
 10  7  1  0  0  0  0
 11 13  1  0  0  0  0
 12  9  1  0  0  0  0
 12  2  1  0  0  0  0
 13 12  2  0  0  0  0
 14 11  2  0  0  0  0
 15 16  2  0  0  0  0
 16 10  1  0  0  0  0
 17 18  1  0  0  0  0
 19 23  1  1  0  0  0
 19  6  1  0  0  0  0
 19 20  1  0  0  0  0
 20 21  1  0  0  0  0
 20 22  1  0  0  0  0
 24 23  1  0  0  0  0
 25 24  1  0  0  0  0
 25 27  1  0  0  0  0
 26 27  2  0  0  0  0
 28 26  1  0  0  0  0
 29 28  2  0  0  0  0
 30 28  1  0  0  0  0
M  END
>  <MODEL>
1

>  <REMARK>
 VINA RESULT:      -8.4      0.000      0.000
  Name = 
  10 active torsions:
  status: ('A' for Active; 'I' for Inactive)
    1  A    between atoms: N_4  and  C_12
    2  A    between atoms: N_4  and  C_21
    3  A    between atoms: C_5  and  C_28
    4  A    between atoms: C_6  and  C_18
    5  A    between atoms: O_7  and  C_8
    6  A    between atoms: C_9  and  C_16
    7  A    between atoms: C_12  and  C_28
    8  A    between atoms: N_13  and  C_17
    9  A    between atoms: C_21  and  C_24
   10  A    between atoms: C_28  and  C_30
                            x       y       z     vdW  Elec       q    Type
                         _______ _______ _______ _____ _____    ______ ____

>  <TORSDO>
F 10

$$$$
=
 OpenBabel11052410553D

 30 31  0  0  1  0  0  0  0  0999 V2000
  160.8690  203.5340  150.2400 C   0  0  0  0  0  0  0  0  0  0  0  0
  161.0910  205.7560  151.9720 C   0  0  0  0  0  0  0  0  0  0  0  0
  160.9110  203.3520  151.6310 C   0  0  0  0  0  3  0  0  0  0  0  0
  161.0480  205.9310  150.5800 C   0  0  0  0  0  3  0  0  0  0  0  0
  161.0230  204.4510  152.4860 C   0  0  0  0  0  3  0  0  0  0  0  0
  160.9400  204.8340  149.7130 C   0  0  0  0  0  0  0  0  0  0  0  0
  160.2140  208.8270  154.9840 C   0  0  0  0  0  2  0  0  0  0  0  0
  160.8370  207.5120  155.2880 C   0  0  0  0  0  3  0  0  0  0  0  0
  161.2580  206.6820  154.3370 C   0  0  0  0  0  3  0  0  0  0  0  0
  161.1930  209.6970  154.3470 N   0  0  0  0  0  0  0  0  0  0  0  0
  161.5980  209.4500  152.9910 C   0  0  0  0  0  0  0  0  0  0  0  0
  161.2220  206.9320  152.8730 C   0  0  0  0  0  0  0  0  0  0  0  0
  161.3990  208.1480  152.3210 C   0  0  0  0  0  3  0  0  0  0  0  0
  162.1190  210.3790  152.3190 O   0  0  0  0  0  0  0  0  0  0  0  0
  162.5280  210.7470  156.0760 C   0  0  0  0  0  2  0  0  0  0  0  0
  161.7060  210.8480  155.0360 C   0  0  0  0  0  3  0  0  0  0  0  0
  160.7590  202.4400  149.3730 O   0  0  0  0  0  0  0  0  0  0  0  0
  160.7020  201.0960  149.8310 C   0  0  0  0  0  1  0  0  0  0  0  0
  160.9010  205.0430  148.2230 C   0  0  1  0  0  3  0  0  0  0  0  0
  160.9360  206.5290  147.8470 C   0  0  0  0  0  3  0  0  0  0  0  0
  160.3600  206.7410  146.4590 C   0  0  0  0  0  1  0  0  0  0  0  0
  162.3330  207.1300  147.9240 C   0  0  0  0  0  1  0  0  0  0  0  0
  161.9470  204.2030  147.4850 C   0  0  0  0  0  2  0  0  0  0  0  0
  161.5300  203.9830  146.1100 N   0  0  0  0  0  2  0  0  0  0  0  0
  161.7410  202.5740  145.8190 C   0  0  0  0  0  2  0  0  0  0  0  0
  160.1830  200.6450  145.4010 C   0  0  0  0  0  3  0  0  0  0  0  0
  160.4670  201.9500  145.3490 C   0  0  0  0  0  3  0  0  0  0  0  0
  161.0630  199.5680  145.8920 C   0  0  0  0  0  0  0  0  0  0  0  0
  161.6120  199.6980  147.0170 O   0  0  0  0  0  0  0  0  0  0  0  0
  161.2890  198.3770  145.1430 N   0  0  0  0  0  1  0  0  0  0  0  0
  1  3  1  0  0  0  0
  2  5  1  0  0  0  0
  2 12  1  0  0  0  0
  3  5  2  0  0  0  0
  4  2  2  0  0  0  0
  6  1  2  0  0  0  0
  6  4  1  0  0  0  0
  7  8  1  0  0  0  0
  9  8  2  0  0  0  0
 10  7  1  0  0  0  0
 10 16  1  0  0  0  0
 11 10  1  0  0  0  0
 12  9  1  0  0  0  0
 13 12  2  0  0  0  0
 13 11  1  0  0  0  0
 14 11  2  0  0  0  0
 16 15  2  0  0  0  0
 17 18  1  0  0  0  0
 17  1  1  0  0  0  0
 19 23  1  6  0  0  0
 19  6  1  0  0  0  0
 20 22  1  0  0  0  0
 20 19  1  0  0  0  0
 21 20  1  0  0  0  0
 24 23  1  0  0  0  0
 25 24  1  0  0  0  0
 26 28  1  0  0  0  0
 27 26  2  0  0  0  0
 27 25  1  0  0  0  0
 28 29  2  0  0  0  0
 30 28  1  0  0  0  0
M  END
>  <MODEL>
2

>  <REMARK>
 VINA RESULT:      -8.2      3.116      8.507
  Name = 
  10 active torsions:
  status: ('A' for Active; 'I' for Inactive)
    1  A    between atoms: N_4  and  C_12
    2  A    between atoms: N_4  and  C_21
    3  A    between atoms: C_5  and  C_28
    4  A    between atoms: C_6  and  C_18
    5  A    between atoms: O_7  and  C_8
    6  A    between atoms: C_9  and  C_16
    7  A    between atoms: C_12  and  C_28
    8  A    between atoms: N_13  and  C_17
    9  A    between atoms: C_21  and  C_24
   10  A    between atoms: C_28  and  C_30
                            x       y       z     vdW  Elec       q    Type
                         _______ _______ _______ _____ _____    ______ ____

>  <TORSDO>
F 10

$$$$
=
 OpenBabel11052410553D

 30 31  0  0  1  0  0  0  0  0999 V2000
  161.3690  206.1970  153.1060 C   0  0  0  0  0  0  0  0  0  0  0  0
  161.0940  204.5640  150.8160 C   0  0  0  0  0  0  0  0  0  0  0  0
  161.1500  204.8170  153.2360 C   0  0  0  0  0  3  0  0  0  0  0  0
  161.3130  205.9450  150.6920 C   0  0  0  0  0  3  0  0  0  0  0  0
  161.0120  204.0110  152.1030 C   0  0  0  0  0  3  0  0  0  0  0  0
  161.4480  206.7640  151.8230 C   0  0  0  0  0  0  0  0  0  0  0  0
  161.3420  201.1900  148.0180 C   0  0  0  0  0  2  0  0  0  0  0  0
  160.2540  201.3710  149.0140 C   0  0  0  0  0  3  0  0  0  0  0  0
  160.1060  202.4910  149.7180 C   0  0  0  0  0  3  0  0  0  0  0  0
  161.1550  202.1220  146.9140 N   0  0  0  0  0  0  0  0  0  0  0  0
  161.4130  203.5220  147.1070 C   0  0  0  0  0  0  0  0  0  0  0  0
  160.9370  203.7170  149.6030 C   0  0  0  0  0  0  0  0  0  0  0  0
  161.4700  204.1490  148.4440 C   0  0  0  0  0  3  0  0  0  0  0  0
  161.6330  204.2570  146.1080 O   0  0  0  0  0  0  0  0  0  0  0  0
  159.5490  201.7540  145.1380 C   0  0  0  0  0  2  0  0  0  0  0  0
  160.7860  201.6470  145.6110 C   0  0  0  0  0  3  0  0  0  0  0  0
  161.5060  207.0150  154.2340 O   0  0  0  0  0  0  0  0  0  0  0  0
  160.5040  207.1210  155.2360 C   0  0  0  0  0  1  0  0  0  0  0  0
  161.6770  208.2430  151.6690 C   0  0  1  0  0  3  0  0  0  0  0  0
  162.2250  208.6020  150.2820 C   0  0  0  0  0  3  0  0  0  0  0  0
  162.2460  210.1070  150.0910 C   0  0  0  0  0  1  0  0  0  0  0  0
  161.4480  207.9470  149.1480 C   0  0  0  0  0  1  0  0  0  0  0  0
  160.4540  209.0710  152.0740 C   0  0  0  0  0  2  0  0  0  0  0  0
  160.8100  210.0000  153.1350 N   0  0  0  0  0  2  0  0  0  0  0  0
  159.7260  210.9640  153.2410 C   0  0  0  0  0  2  0  0  0  0  0  0
  159.3190  213.2610  152.3050 C   0  0  0  0  0  3  0  0  0  0  0  0
  159.9280  212.0720  152.2590 C   0  0  0  0  0  3  0  0  0  0  0  0
  158.3180  213.7040  153.2930 C   0  0  0  0  0  0  0  0  0  0  0  0
  158.7120  214.0920  154.4240 O   0  0  0  0  0  0  0  0  0  0  0  0
  156.9240  213.7320  152.9970 N   0  0  0  0  0  1  0  0  0  0  0  0
  1  3  1  0  0  0  0
  1 17  1  0  0  0  0
  2  5  1  0  0  0  0
  4  2  2  0  0  0  0
  4  6  1  0  0  0  0
  5  3  2  0  0  0  0
  6  1  2  0  0  0  0
  7  8  1  0  0  0  0
  8  9  2  0  0  0  0
 10 11  1  0  0  0  0
 10  7  1  0  0  0  0
 11 13  1  0  0  0  0
 12  9  1  0  0  0  0
 12  2  1  0  0  0  0
 13 12  2  0  0  0  0
 14 11  2  0  0  0  0
 15 16  2  0  0  0  0
 16 10  1  0  0  0  0
 17 18  1  0  0  0  0
 19  6  1  0  0  0  0
 19 23  1  6  0  0  0
 20 19  1  0  0  0  0
 21 20  1  0  0  0  0
 22 20  1  0  0  0  0
 23 24  1  0  0  0  0
 24 25  1  0  0  0  0
 26 28  1  0  0  0  0
 27 26  2  0  0  0  0
 27 25  1  0  0  0  0
 28 29  2  0  0  0  0
 30 28  1  0  0  0  0
M  END
>  <MODEL>
3

>  <REMARK>
 VINA RESULT:      -8.2      2.482      3.149
  Name = 
  10 active torsions:
  status: ('A' for Active; 'I' for Inactive)
    1  A    between atoms: N_4  and  C_12
    2  A    between atoms: N_4  and  C_21
    3  A    between atoms: C_5  and  C_28
    4  A    between atoms: C_6  and  C_18
    5  A    between atoms: O_7  and  C_8
    6  A    between atoms: C_9  and  C_16
    7  A    between atoms: C_12  and  C_28
    8  A    between atoms: N_13  and  C_17
    9  A    between atoms: C_21  and  C_24
   10  A    between atoms: C_28  and  C_30
                            x       y       z     vdW  Elec       q    Type
                         _______ _______ _______ _____ _____    ______ ____

>  <TORSDO>
F 10

$$$$
=
 OpenBabel11052410553D

 30 31  0  0  1  0  0  0  0  0999 V2000
  160.8190  207.5230  154.6570 C   0  0  0  0  0  0  0  0  0  0  0  0
  161.2480  206.8330  151.9500 C   0  0  0  0  0  0  0  0  0  0  0  0
  161.1050  206.1970  154.2950 C   0  0  0  0  0  3  0  0  0  0  0  0
  160.9620  208.1570  152.3180 C   0  0  0  0  0  3  0  0  0  0  0  0
  161.3140  205.8570  152.9570 C   0  0  0  0  0  3  0  0  0  0  0  0
  160.7460  208.5090  153.6580 C   0  0  0  0  0  0  0  0  0  0  0  0
  161.0570  206.8840  147.5640 C   0  0  0  0  0  2  0  0  0  0  0  0
  162.0740  207.6160  148.3650 C   0  0  0  0  0  3  0  0  0  0  0  0
  162.2200  207.4340  149.6750 C   0  0  0  0  0  3  0  0  0  0  0  0
  161.3700  205.4620  147.5580 N   0  0  0  0  0  0  0  0  0  0  0  0
  161.1630  204.6770  148.7430 C   0  0  0  0  0  0  0  0  0  0  0  0
  161.4580  206.4790  150.5210 C   0  0  0  0  0  0  0  0  0  0  0  0
  161.0340  205.2760  150.0880 C   0  0  0  0  0  3  0  0  0  0  0  0
  161.0540  203.4250  148.6480 O   0  0  0  0  0  0  0  0  0  0  0  0
  163.0980  204.7430  146.0190 C   0  0  0  0  0  2  0  0  0  0  0  0
  161.8140  204.8160  146.3540 C   0  0  0  0  0  3  0  0  0  0  0  0
  160.6050  207.8760  155.9950 O   0  0  0  0  0  0  0  0  0  0  0  0
  160.0150  206.9940  156.9390 C   0  0  0  0  0  1  0  0  0  0  0  0
  160.4350  209.9330  154.0310 C   0  0  1  0  0  3  0  0  0  0  0  0
  161.1680  210.3690  155.3070 C   0  0  0  0  0  3  0  0  0  0  0  0
  160.5140  211.6020  155.9010 C   0  0  0  0  0  1  0  0  0  0  0  0
  162.6510  210.6270  155.0820 C   0  0  0  0  0  1  0  0  0  0  0  0
  160.6230  210.9010  152.8600 C   0  0  0  0  0  2  0  0  0  0  0  0
  159.3350  211.4230  152.4340 N   0  0  0  0  0  2  0  0  0  0  0  0
  159.3310  212.8470  152.7290 C   0  0  0  0  0  2  0  0  0  0  0  0
  156.9830  213.3500  153.4740 C   0  0  0  0  0  3  0  0  0  0  0  0
  157.9550  213.4030  152.5570 C   0  0  0  0  0  3  0  0  0  0  0  0
  157.0550  212.7140  154.8020 C   0  0  0  0  0  0  0  0  0  0  0  0
  156.9040  211.4680  154.8880 O   0  0  0  0  0  0  0  0  0  0  0  0
  157.3160  213.4650  155.9860 N   0  0  0  0  0  1  0  0  0  0  0  0
  1 17  1  0  0  0  0
  2  4  2  0  0  0  0
  2  5  1  0  0  0  0
  3  1  1  0  0  0  0
  4  6  1  0  0  0  0
  5  3  2  0  0  0  0
  6 19  1  0  0  0  0
  6  1  2  0  0  0  0
  7  8  1  0  0  0  0
  8  9  2  0  0  0  0
  9 12  1  0  0  0  0
 10  7  1  0  0  0  0
 10 11  1  0  0  0  0
 11 13  1  0  0  0  0
 12  2  1  0  0  0  0
 13 12  2  0  0  0  0
 14 11  2  0  0  0  0
 15 16  2  0  0  0  0
 16 10  1  0  0  0  0
 17 18  1  0  0  0  0
 19 23  1  6  0  0  0
 19 20  1  0  0  0  0
 20 21  1  0  0  0  0
 22 20  1  0  0  0  0
 24 25  1  0  0  0  0
 24 23  1  0  0  0  0
 26 28  1  0  0  0  0
 27 25  1  0  0  0  0
 27 26  2  0  0  0  0
 28 29  2  0  0  0  0
 28 30  1  0  0  0  0
M  END
>  <MODEL>
4

>  <REMARK>
 VINA RESULT:      -8.1      3.345      4.744
  Name = 
  10 active torsions:
  status: ('A' for Active; 'I' for Inactive)
    1  A    between atoms: N_4  and  C_12
    2  A    between atoms: N_4  and  C_21
    3  A    between atoms: C_5  and  C_28
    4  A    between atoms: C_6  and  C_18
    5  A    between atoms: O_7  and  C_8
    6  A    between atoms: C_9  and  C_16
    7  A    between atoms: C_12  and  C_28
    8  A    between atoms: N_13  and  C_17
    9  A    between atoms: C_21  and  C_24
   10  A    between atoms: C_28  and  C_30
                            x       y       z     vdW  Elec       q    Type
                         _______ _______ _______ _____ _____    ______ ____

>  <TORSDO>
F 10

$$$$
=
 OpenBabel11052410553D

 30 31  0  0  1  0  0  0  0  0999 V2000
  160.9640  207.3030  154.4590 C   0  0  0  0  0  0  0  0  0  0  0  0
  161.2650  206.5660  151.7470 C   0  0  0  0  0  0  0  0  0  0  0  0
  161.1600  205.9600  154.1020 C   0  0  0  0  0  3  0  0  0  0  0  0
  161.0690  207.9070  152.1100 C   0  0  0  0  0  3  0  0  0  0  0  0
  161.3070  205.5960  152.7610 C   0  0  0  0  0  3  0  0  0  0  0  0
  160.9160  208.2830  153.4530 C   0  0  0  0  0  0  0  0  0  0  0  0
  160.7310  206.4270  147.3920 C   0  0  0  0  0  2  0  0  0  0  0  0
  161.7010  207.3130  148.0860 C   0  0  0  0  0  3  0  0  0  0  0  0
  161.9710  207.2010  149.3850 C   0  0  0  0  0  3  0  0  0  0  0  0
  161.2260  205.0570  147.3980 N   0  0  0  0  0  0  0  0  0  0  0  0
  161.2170  204.2970  148.6170 C   0  0  0  0  0  0  0  0  0  0  0  0
  161.4080  206.1880  150.3150 C   0  0  0  0  0  0  0  0  0  0  0  0
  161.1140  204.9250  149.9510 C   0  0  0  0  0  3  0  0  0  0  0  0
  161.2660  203.0400  148.5660 O   0  0  0  0  0  0  0  0  0  0  0  0
  162.8810  204.5950  145.6890 C   0  0  0  0  0  2  0  0  0  0  0  0
  161.6570  204.4300  146.1810 C   0  0  0  0  0  3  0  0  0  0  0  0
  160.8140  207.6790  155.7990 O   0  0  0  0  0  0  0  0  0  0  0  0
  159.9480  206.9990  156.6970 C   0  0  0  0  0  1  0  0  0  0  0  0
  160.7000  209.7250  153.8200 C   0  0  1  0  0  3  0  0  0  0  0  0
  161.1530  210.0300  155.2540 C   0  0  0  0  0  3  0  0  0  0  0  0
  160.1640  210.9530  155.9400 C   0  0  0  0  0  1  0  0  0  0  0  0
  162.5520  210.6290  155.3210 C   0  0  0  0  0  1  0  0  0  0  0  0
  161.2790  210.6890  152.7810 C   0  0  0  0  0  2  0  0  0  0  0  0
  160.2210  211.5210  152.2290 N   0  0  0  0  0  2  0  0  0  0  0  0
  160.6750  211.9810  150.9260 C   0  0  0  0  0  2  0  0  0  0  0  0
  162.1750  211.0830  149.1200 C   0  0  0  0  0  3  0  0  0  0  0  0
  161.6240  210.9910  150.3340 C   0  0  0  0  0  3  0  0  0  0  0  0
  161.9380  212.1410  148.1200 C   0  0  0  0  0  0  0  0  0  0  0  0
  162.8660  212.9500  147.8610 O   0  0  0  0  0  0  0  0  0  0  0  0
  160.7010  212.2560  147.4210 N   0  0  0  0  0  1  0  0  0  0  0  0
  1 17  1  0  0  0  0
  2  4  2  0  0  0  0
  2  5  1  0  0  0  0
  3  1  1  0  0  0  0
  4  6  1  0  0  0  0
  5  3  2  0  0  0  0
  6 19  1  0  0  0  0
  6  1  2  0  0  0  0
  7 10  1  0  0  0  0
  7  8  1  0  0  0  0
  8  9  2  0  0  0  0
  9 12  1  0  0  0  0
 10 11  1  0  0  0  0
 11 13  1  0  0  0  0
 12  2  1  0  0  0  0
 13 12  2  0  0  0  0
 14 11  2  0  0  0  0
 15 16  2  0  0  0  0
 16 10  1  0  0  0  0
 17 18  1  0  0  0  0
 19 23  1  6  0  0  0
 19 20  1  0  0  0  0
 20 22  1  0  0  0  0
 20 21  1  0  0  0  0
 24 23  1  0  0  0  0
 25 24  1  0  0  0  0
 26 27  2  0  0  0  0
 27 25  1  0  0  0  0
 28 26  1  0  0  0  0
 29 28  2  0  0  0  0
 30 28  1  0  0  0  0
M  END
>  <MODEL>
5

>  <REMARK>
 VINA RESULT:      -8.0      1.975      3.025
  Name = 
  10 active torsions:
  status: ('A' for Active; 'I' for Inactive)
    1  A    between atoms: N_4  and  C_12
    2  A    between atoms: N_4  and  C_21
    3  A    between atoms: C_5  and  C_28
    4  A    between atoms: C_6  and  C_18
    5  A    between atoms: O_7  and  C_8
    6  A    between atoms: C_9  and  C_16
    7  A    between atoms: C_12  and  C_28
    8  A    between atoms: N_13  and  C_17
    9  A    between atoms: C_21  and  C_24
   10  A    between atoms: C_28  and  C_30
                            x       y       z     vdW  Elec       q    Type
                         _______ _______ _______ _____ _____    ______ ____

>  <TORSDO>
F 10

$$$$
=
 OpenBabel11052410553D

 30 31  0  0  1  0  0  0  0  0999 V2000
  161.7970  208.2410  149.4210 C   0  0  0  0  0  0  0  0  0  0  0  0
  161.6430  205.6180  148.3800 C   0  0  0  0  0  0  0  0  0  0  0  0
  162.1960  207.9720  148.1030 C   0  0  0  0  0  3  0  0  0  0  0  0
  161.2450  205.8930  149.6980 C   0  0  0  0  0  3  0  0  0  0  0  0
  162.1220  206.6750  147.5900 C   0  0  0  0  0  3  0  0  0  0  0  0
  161.3190  207.1910  150.2240 C   0  0  0  0  0  0  0  0  0  0  0  0
  160.4450  202.0990  146.0450 C   0  0  0  0  0  2  0  0  0  0  0  0
  161.4930  203.0640  145.6230 C   0  0  0  0  0  3  0  0  0  0  0  0
  161.9620  204.0110  146.4320 C   0  0  0  0  0  3  0  0  0  0  0  0
  160.9630  201.2470  147.1080 N   0  0  0  0  0  0  0  0  0  0  0  0
  161.1580  201.7840  148.4260 C   0  0  0  0  0  0  0  0  0  0  0  0
  161.5710  204.2310  147.8480 C   0  0  0  0  0  0  0  0  0  0  0  0
  161.2500  203.2340  148.6950 C   0  0  0  0  0  3  0  0  0  0  0  0
  161.2240  201.0010  149.4110 O   0  0  0  0  0  0  0  0  0  0  0  0
  161.1950  199.3240  145.6520 C   0  0  0  0  0  2  0  0  0  0  0  0
  161.2140  199.8530  146.8710 C   0  0  0  0  0  3  0  0  0  0  0  0
  161.8690  209.5370  149.9470 O   0  0  0  0  0  0  0  0  0  0  0  0
  162.0210  210.6910  149.1330 C   0  0  0  0  0  1  0  0  0  0  0  0
  160.8930  207.4640  151.6410 C   0  0  1  0  0  3  0  0  0  0  0  0
  161.1700  206.2730  152.5670 C   0  0  0  0  0  3  0  0  0  0  0  0
  160.8120  206.6190  154.0000 C   0  0  0  0  0  1  0  0  0  0  0  0
  162.6120  205.7890  152.4970 C   0  0  0  0  0  1  0  0  0  0  0  0
  161.4410  208.7910  152.1730 C   0  0  0  0  0  2  0  0  0  0  0  0
  160.3440  209.6650  152.5570 N   0  0  0  0  0  2  0  0  0  0  0  0
  160.8480  210.5540  153.5920 C   0  0  0  0  0  2  0  0  0  0  0  0
  160.4920  210.0250  156.0240 C   0  0  0  0  0  3  0  0  0  0  0  0
  160.0270  210.4150  154.8320 C   0  0  0  0  0  3  0  0  0  0  0  0
  161.8750  209.6280  156.3460 C   0  0  0  0  0  0  0  0  0  0  0  0
  162.1030  208.4360  156.6780 O   0  0  0  0  0  0  0  0  0  0  0  0
  162.9620  210.5460  156.2680 N   0  0  0  0  0  1  0  0  0  0  0  0
  1 17  1  0  0  0  0
  1  6  1  0  0  0  0
  2  4  1  0  0  0  0
  3  1  2  0  0  0  0
  4  6  2  0  0  0  0
  5  3  1  0  0  0  0
  5  2  2  0  0  0  0
  6 19  1  0  0  0  0
  7 10  1  0  0  0  0
  8  7  1  0  0  0  0
  8  9  2  0  0  0  0
  9 12  1  0  0  0  0
 10 11  1  0  0  0  0
 11 13  1  0  0  0  0
 11 14  2  0  0  0  0
 12  2  1  0  0  0  0
 12 13  2  0  0  0  0
 15 16  2  0  0  0  0
 16 10  1  0  0  0  0
 18 17  1  0  0  0  0
 19 23  1  1  0  0  0
 19 20  1  0  0  0  0
 20 21  1  0  0  0  0
 22 20  1  0  0  0  0
 23 24  1  0  0  0  0
 24 25  1  0  0  0  0
 25 27  1  0  0  0  0
 26 28  1  0  0  0  0
 27 26  2  0  0  0  0
 28 29  2  0  0  0  0
 30 28  1  0  0  0  0
M  END
>  <MODEL>
6

>  <REMARK>
 VINA RESULT:      -7.9      2.483      5.018
  Name = 
  10 active torsions:
  status: ('A' for Active; 'I' for Inactive)
    1  A    between atoms: N_4  and  C_12
    2  A    between atoms: N_4  and  C_21
    3  A    between atoms: C_5  and  C_28
    4  A    between atoms: C_6  and  C_18
    5  A    between atoms: O_7  and  C_8
    6  A    between atoms: C_9  and  C_16
    7  A    between atoms: C_12  and  C_28
    8  A    between atoms: N_13  and  C_17
    9  A    between atoms: C_21  and  C_24
   10  A    between atoms: C_28  and  C_30
                            x       y       z     vdW  Elec       q    Type
                         _______ _______ _______ _____ _____    ______ ____

>  <TORSDO>
F 10

$$$$
=
 OpenBabel11052410553D

 30 31  0  0  1  0  0  0  0  0999 V2000
  161.9680  207.0640  149.3490 C   0  0  0  0  0  0  0  0  0  0  0  0
  161.2330  208.3510  151.7550 C   0  0  0  0  0  0  0  0  0  0  0  0
  161.9470  208.4650  149.4310 C   0  0  0  0  0  3  0  0  0  0  0  0
  161.2560  206.9500  151.6670 C   0  0  0  0  0  3  0  0  0  0  0  0
  161.5810  209.1000  150.6200 C   0  0  0  0  0  3  0  0  0  0  0  0
  161.6170  206.3020  150.4760 C   0  0  0  0  0  0  0  0  0  0  0  0
  161.1390  211.0840  155.1890 C   0  0  0  0  0  2  0  0  0  0  0  0
  160.4530  211.3430  153.8970 C   0  0  0  0  0  3  0  0  0  0  0  0
  160.3450  210.4180  152.9450 C   0  0  0  0  0  3  0  0  0  0  0  0
  160.4040  210.0770  155.9410 N   0  0  0  0  0  0  0  0  0  0  0  0
  160.4360  208.7030  155.5210 C   0  0  0  0  0  0  0  0  0  0  0  0
  160.8300  209.0170  153.0230 C   0  0  0  0  0  0  0  0  0  0  0  0
  160.8320  208.2920  154.1580 C   0  0  0  0  0  3  0  0  0  0  0  0
  160.1480  207.7950  156.3450 O   0  0  0  0  0  0  0  0  0  0  0  0
  158.9150  211.4950  157.2220 C   0  0  0  0  0  2  0  0  0  0  0  0
  159.7030  210.4290  157.1440 C   0  0  0  0  0  3  0  0  0  0  0  0
  162.3310  206.4160  148.1620 O   0  0  0  0  0  0  0  0  0  0  0  0
  161.5380  206.4660  146.9840 C   0  0  0  0  0  1  0  0  0  0  0  0
  161.6300  204.8000  150.4000 C   0  0  1  0  0  3  0  0  0  0  0  0
  161.8510  204.1540  151.7740 C   0  0  0  0  0  3  0  0  0  0  0  0
  161.8290  202.6410  151.6600 C   0  0  0  0  0  1  0  0  0  0  0  0
  160.8360  204.6090  152.8140 C   0  0  0  0  0  1  0  0  0  0  0  0
  160.4190  204.2400  149.6510 C   0  0  0  0  0  2  0  0  0  0  0  0
  160.8580  203.3510  148.5870 N   0  0  0  0  0  2  0  0  0  0  0  0
  160.1740  202.0830  148.7780 C   0  0  0  0  0  2  0  0  0  0  0  0
  161.2110  200.8040  146.8780 C   0  0  0  0  0  3  0  0  0  0  0  0
  160.9770  200.9720  148.1840 C   0  0  0  0  0  3  0  0  0  0  0  0
  160.7090  201.6430  145.7750 C   0  0  0  0  0  0  0  0  0  0  0  0
  161.2120  202.7830  145.6020 O   0  0  0  0  0  0  0  0  0  0  0  0
  159.6910  201.1920  144.8860 N   0  0  0  0  0  1  0  0  0  0  0  0
  1  3  2  0  0  0  0
  1  6  1  0  0  0  0
  2 12  1  0  0  0  0
  3  5  1  0  0  0  0
  4  2  1  0  0  0  0
  5  2  2  0  0  0  0
  6  4  2  0  0  0  0
  7 10  1  0  0  0  0
  8  7  1  0  0  0  0
  9 12  1  0  0  0  0
  9  8  2  0  0  0  0
 10 16  1  0  0  0  0
 11 10  1  0  0  0  0
 11 14  2  0  0  0  0
 12 13  2  0  0  0  0
 13 11  1  0  0  0  0
 16 15  2  0  0  0  0
 17  1  1  0  0  0  0
 18 17  1  0  0  0  0
 19 23  1  1  0  0  0
 19  6  1  0  0  0  0
 19 20  1  0  0  0  0
 20 22  1  0  0  0  0
 21 20  1  0  0  0  0
 24 25  1  0  0  0  0
 24 23  1  0  0  0  0
 26 27  2  0  0  0  0
 27 25  1  0  0  0  0
 28 26  1  0  0  0  0
 29 28  2  0  0  0  0
 30 28  1  0  0  0  0
M  END
>  <MODEL>
7

>  <REMARK>
 VINA RESULT:      -7.6      2.961      8.845
  Name = 
  10 active torsions:
  status: ('A' for Active; 'I' for Inactive)
    1  A    between atoms: N_4  and  C_12
    2  A    between atoms: N_4  and  C_21
    3  A    between atoms: C_5  and  C_28
    4  A    between atoms: C_6  and  C_18
    5  A    between atoms: O_7  and  C_8
    6  A    between atoms: C_9  and  C_16
    7  A    between atoms: C_12  and  C_28
    8  A    between atoms: N_13  and  C_17
    9  A    between atoms: C_21  and  C_24
   10  A    between atoms: C_28  and  C_30
                            x       y       z     vdW  Elec       q    Type
                         _______ _______ _______ _____ _____    ______ ____

>  <TORSDO>
F 10

$$$$
=
 OpenBabel11052410553D

 30 31  0  0  1  0  0  0  0  0999 V2000
  161.7980  208.2300  149.3200 C   0  0  0  0  0  0  0  0  0  0  0  0
  161.6430  205.5970  148.3040 C   0  0  0  0  0  0  0  0  0  0  0  0
  162.1810  207.9510  147.9990 C   0  0  0  0  0  3  0  0  0  0  0  0
  161.2610  205.8820  149.6250 C   0  0  0  0  0  3  0  0  0  0  0  0
  162.1070  206.6490  147.4990 C   0  0  0  0  0  3  0  0  0  0  0  0
  161.3360  207.1860  150.1380 C   0  0  0  0  0  0  0  0  0  0  0  0
  160.4550  202.0590  145.9940 C   0  0  0  0  0  2  0  0  0  0  0  0
  161.5110  203.0160  145.5720 C   0  0  0  0  0  3  0  0  0  0  0  0
  161.9760  203.9690  146.3760 C   0  0  0  0  0  3  0  0  0  0  0  0
  160.9590  201.2160  147.0700 N   0  0  0  0  0  0  0  0  0  0  0  0
  161.1420  201.7650  148.3850 C   0  0  0  0  0  0  0  0  0  0  0  0
  161.5710  204.2050  147.7860 C   0  0  0  0  0  0  0  0  0  0  0  0
  161.2370  203.2180  148.6390 C   0  0  0  0  0  3  0  0  0  0  0  0
  161.1950  200.9930  149.3790 O   0  0  0  0  0  0  0  0  0  0  0  0
  161.2060  199.2790  145.6360 C   0  0  0  0  0  2  0  0  0  0  0  0
  161.2060  199.8190  146.8500 C   0  0  0  0  0  3  0  0  0  0  0  0
  161.8700  209.5310  149.8330 O   0  0  0  0  0  0  0  0  0  0  0  0
  161.9560  210.6820  149.0040 C   0  0  0  0  0  1  0  0  0  0  0  0
  160.9260  207.4700  151.5580 C   0  0  1  0  0  3  0  0  0  0  0  0
  161.2140  206.2850  152.4890 C   0  0  0  0  0  3  0  0  0  0  0  0
  160.8310  206.6270  153.9170 C   0  0  0  0  0  1  0  0  0  0  0  0
  162.6650  205.8280  152.4390 C   0  0  0  0  0  1  0  0  0  0  0  0
  161.4810  208.8000  152.0740 C   0  0  0  0  0  2  0  0  0  0  0  0
  160.3910  209.6700  152.4820 N   0  0  0  0  0  2  0  0  0  0  0  0
  160.8740  210.4660  153.6000 C   0  0  0  0  0  2  0  0  0  0  0  0
  159.0980  210.8010  155.3470 C   0  0  0  0  0  3  0  0  0  0  0  0
  160.1260  210.1110  154.8430 C   0  0  0  0  0  3  0  0  0  0  0  0
  158.5230  212.0480  154.8110 C   0  0  0  0  0  0  0  0  0  0  0  0
  157.8460  211.9980  153.7510 O   0  0  0  0  0  0  0  0  0  0  0  0
  158.6890  213.3010  155.4690 N   0  0  0  0  0  1  0  0  0  0  0  0
  1 17  1  0  0  0  0
  1  6  1  0  0  0  0
  2  4  1  0  0  0  0
  3  1  2  0  0  0  0
  4  6  2  0  0  0  0
  5  3  1  0  0  0  0
  5  2  2  0  0  0  0
  6 19  1  0  0  0  0
  7 10  1  0  0  0  0
  8  7  1  0  0  0  0
  8  9  2  0  0  0  0
  9 12  1  0  0  0  0
 10 11  1  0  0  0  0
 11 13  1  0  0  0  0
 11 14  2  0  0  0  0
 12  2  1  0  0  0  0
 12 13  2  0  0  0  0
 15 16  2  0  0  0  0
 16 10  1  0  0  0  0
 18 17  1  0  0  0  0
 19 23  1  1  0  0  0
 19 20  1  0  0  0  0
 20 21  1  0  0  0  0
 22 20  1  0  0  0  0
 23 24  1  0  0  0  0
 24 25  1  0  0  0  0
 25 27  1  0  0  0  0
 27 26  2  0  0  0  0
 28 26  1  0  0  0  0
 28 30  1  0  0  0  0
 29 28  2  0  0  0  0
M  END
>  <MODEL>
8

>  <REMARK>
 VINA RESULT:      -7.6      2.731      4.628
  Name = 
  10 active torsions:
  status: ('A' for Active; 'I' for Inactive)
    1  A    between atoms: N_4  and  C_12
    2  A    between atoms: N_4  and  C_21
    3  A    between atoms: C_5  and  C_28
    4  A    between atoms: C_6  and  C_18
    5  A    between atoms: O_7  and  C_8
    6  A    between atoms: C_9  and  C_16
    7  A    between atoms: C_12  and  C_28
    8  A    between atoms: N_13  and  C_17
    9  A    between atoms: C_21  and  C_24
   10  A    between atoms: C_28  and  C_30
                            x       y       z     vdW  Elec       q    Type
                         _______ _______ _______ _____ _____    ______ ____

>  <TORSDO>
F 10

$$$$
=
 OpenBabel11052410553D

 30 31  0  0  1  0  0  0  0  0999 V2000
  161.1460  207.1560  154.1240 C   0  0  0  0  0  0  0  0  0  0  0  0
  161.0780  206.0550  151.5220 C   0  0  0  0  0  0  0  0  0  0  0  0
  161.2400  205.7690  153.9330 C   0  0  0  0  0  3  0  0  0  0  0  0
  160.9840  207.4410  151.7180 C   0  0  0  0  0  3  0  0  0  0  0  0
  161.2040  205.2250  152.6470 C   0  0  0  0  0  3  0  0  0  0  0  0
  161.0150  207.9970  153.0050 C   0  0  0  0  0  0  0  0  0  0  0  0
  161.9200  203.5850  147.9910 C   0  0  0  0  0  2  0  0  0  0  0  0
  160.9290  203.2310  149.0410 C   0  0  0  0  0  3  0  0  0  0  0  0
  160.5640  204.0820  149.9970 C   0  0  0  0  0  3  0  0  0  0  0  0
  161.3840  204.6460  147.1500 N   0  0  0  0  0  0  0  0  0  0  0  0
  161.2830  205.9850  147.6620 C   0  0  0  0  0  0  0  0  0  0  0  0
  161.0270  205.4860  150.1480 C   0  0  0  0  0  0  0  0  0  0  0  0
  161.3080  206.2930  149.1070 C   0  0  0  0  0  3  0  0  0  0  0  0
  161.2000  206.9520  146.8600 O   0  0  0  0  0  0  0  0  0  0  0  0
  161.0670  203.1670  145.2570 C   0  0  0  0  0  2  0  0  0  0  0  0
  161.0230  204.3860  145.7850 C   0  0  0  0  0  3  0  0  0  0  0  0
  161.1780  207.7120  155.4080 O   0  0  0  0  0  0  0  0  0  0  0  0
  160.2760  207.3290  156.4360 C   0  0  0  0  0  1  0  0  0  0  0  0
  160.9070  209.4860  153.1950 C   0  0  1  0  0  3  0  0  0  0  0  0
  161.2220  210.2560  151.9060 C   0  0  0  0  0  3  0  0  0  0  0  0
  162.7190  210.3040  151.6670 C   0  0  0  0  0  1  0  0  0  0  0  0
  160.6530  211.6690  151.9050 C   0  0  0  0  0  1  0  0  0  0  0  0
  159.5860  209.9010  153.8460 C   0  0  0  0  0  2  0  0  0  0  0  0
  159.8400  210.5470  155.1240 N   0  0  0  0  0  2  0  0  0  0  0  0
  158.7020  211.4070  155.4030 C   0  0  0  0  0  2  0  0  0  0  0  0
  158.5660  213.8560  154.8510 C   0  0  0  0  0  3  0  0  0  0  0  0
  159.1440  212.8320  155.4870 C   0  0  0  0  0  3  0  0  0  0  0  0
  157.4190  213.7900  153.9270 C   0  0  0  0  0  0  0  0  0  0  0  0
  156.2890  214.1660  154.3330 O   0  0  0  0  0  0  0  0  0  0  0  0
  157.5580  213.3380  152.5820 N   0  0  0  0  0  1  0  0  0  0  0  0
  1 17  1  0  0  0  0
  2  4  2  0  0  0  0
  2  5  1  0  0  0  0
  3  1  1  0  0  0  0
  4  6  1  0  0  0  0
  5  3  2  0  0  0  0
  6 19  1  0  0  0  0
  6  1  2  0  0  0  0
  7  8  1  0  0  0  0
  8  9  2  0  0  0  0
  9 12  1  0  0  0  0
 10 11  1  0  0  0  0
 10  7  1  0  0  0  0
 11 13  1  0  0  0  0
 12  2  1  0  0  0  0
 13 12  2  0  0  0  0
 14 11  2  0  0  0  0
 15 16  2  0  0  0  0
 16 10  1  0  0  0  0
 17 18  1  0  0  0  0
 19 23  1  6  0  0  0
 20 19  1  0  0  0  0
 21 20  1  0  0  0  0
 22 20  1  0  0  0  0
 23 24  1  0  0  0  0
 24 25  1  0  0  0  0
 25 27  1  0  0  0  0
 26 27  2  0  0  0  0
 28 29  2  0  0  0  0
 28 26  1  0  0  0  0
 30 28  1  0  0  0  0
M  END
>  <MODEL>
9

>  <REMARK>
 VINA RESULT:      -7.4      3.041      4.170
  Name = 
  10 active torsions:
  status: ('A' for Active; 'I' for Inactive)
    1  A    between atoms: N_4  and  C_12
    2  A    between atoms: N_4  and  C_21
    3  A    between atoms: C_5  and  C_28
    4  A    between atoms: C_6  and  C_18
    5  A    between atoms: O_7  and  C_8
    6  A    between atoms: C_9  and  C_16
    7  A    between atoms: C_12  and  C_28
    8  A    between atoms: N_13  and  C_17
    9  A    between atoms: C_21  and  C_24
   10  A    between atoms: C_28  and  C_30
                            x       y       z     vdW  Elec       q    Type
                         _______ _______ _______ _____ _____    ______ ____

>  <TORSDO>
F 10

$$$$
