=
 OpenBabel11052411183D

 31 36  0  0  1  0  0  0  0  0999 V2000
  162.3410  210.1220  148.5910 C   0  0  0  0  0  3  0  0  0  0  0  0
  161.5740  208.6950  154.4570 C   0  0  2  0  0  3  0  0  0  0  0  0
  161.3920  204.1480  152.4320 C   0  0  0  0  0  2  0  0  0  0  0  0
  160.4930  208.4190  152.1520 C   0  0  1  0  0  3  0  0  0  0  0  0
  162.3160  210.7950  149.8550 O   0  0  0  0  0  0  0  0  0  0  0  0
  160.5910  204.6940  151.2560 C   0  0  0  0  0  2  0  0  0  0  0  0
  162.3510  207.7800  147.5600 C   0  0  0  0  0  2  0  0  0  0  0  0
  160.7090  210.7110  153.1940 C   0  0  0  0  0  0  0  0  0  0  0  0
  162.0170  206.4870  147.5360 C   0  0  0  0  0  0  0  0  0  0  0  0
  161.5560  209.4500  155.7010 N   0  0  0  0  0  1  0  0  0  0  0  0
  160.8460  206.1660  151.1070 C   0  0  2  0  0  3  0  0  0  0  0  0
  161.0960  204.9490  153.6940 C   0  0  0  0  0  2  0  0  0  0  0  0
  160.5400  209.2390  153.4660 C   0  0  2  0  0  3  0  0  0  0  0  0
  161.2630  209.0080  150.9990 C   0  0  0  0  0  0  0  0  0  0  0  0
  160.2430  211.6060  154.0540 C   0  0  0  0  0  2  0  0  0  0  0  0
  161.2580  207.2350  154.7530 C   0  0  2  0  0  3  0  0  0  0  0  0
  162.0690  208.6480  148.7150 C   0  0  0  0  0  0  0  0  0  0  0  0
  161.3550  211.1500  152.0380 O   0  0  0  0  0  0  0  0  0  0  0  0
  161.5220  208.1430  149.8320 C   0  0  0  0  0  0  0  0  0  0  0  0
  161.1940  206.7000  149.9200 C   0  0  0  0  0  0  0  0  0  0  0  0
  161.4830  206.4160  153.4860 C   0  0  2  0  0  3  0  0  0  0  0  0
  160.8200  206.9830  152.2980 N   0  0  1  0  0  0  0  0  0  0  0  0
  161.6370  210.2940  150.9710 C   0  0  0  0  0  0  0  0  0  0  0  0
  161.2590  205.8470  148.6760 C   0  0  0  0  0  3  0  0  0  0  0  0
  160.0610  206.9670  156.6030 C   0  0  0  0  0  1  0  0  0  0  0  0
  159.9420  207.0930  155.2180 O   0  0  0  0  0  0  0  0  0  0  0  0
  162.3410  205.7270  146.3700 N   0  0  0  0  0  2  0  0  0  0  0  0
  160.8740  203.5700  145.2050 C   0  0  0  0  0  1  0  0  0  0  0  0
  161.7220  205.6790  143.7930 O   0  0  0  0  0  0  0  0  0  0  0  0
  159.8970  206.0530  145.3990 O   0  0  0  0  0  0  0  0  0  0  0  0
  161.1830  205.3180  145.1480 S   0  0  0  0  0  0  0  0  0  0  0  0
  1 17  2  0  0  0  0
  1  5  1  0  0  0  0
  2 16  1  0  0  0  0
  2 10  1  1  0  0  0
  3 12  1  0  0  0  0
  4 14  1  6  0  0  0
  4 22  1  0  0  0  0
  4 13  1  0  0  0  0
  5 23  1  0  0  0  0
  6  3  1  0  0  0  0
  7 17  1  0  0  0  0
  8 15  2  0  0  0  0
  9  7  1  0  0  0  0
  9 24  2  0  0  0  0
 11  6  1  1  0  0  0
 11 22  1  0  0  0  0
 13  8  1  6  0  0  0
 13  2  1  0  0  0  0
 16 26  1  6  0  0  0
 17 19  1  0  0  0  0
 18  8  1  0  0  0  0
 19 20  2  0  0  0  0
 19 14  1  0  0  0  0
 20 11  1  0  0  0  0
 21 12  1  1  0  0  0
 21 16  1  0  0  0  0
 22 21  1  0  0  0  0
 23 14  2  0  0  0  0
 23 18  1  0  0  0  0
 24 20  1  0  0  0  0
 26 25  1  0  0  0  0
 27  9  1  0  0  0  0
 29 31  2  0  0  0  0
 31 28  1  0  0  0  0
 31 30  2  0  0  0  0
 31 27  1  0  0  0  0
M  END
>  <MODEL>
1

>  <REMARK>
 VINA RESULT:      -8.5      0.000      0.000
  Name = 
  3 active torsions:
  status: ('A' for Active; 'I' for Inactive)
    1  A    between atoms: N_1  and  C_13
    2  A    between atoms: N_1  and  S_24
    3  A    between atoms: C_20  and  O_30
                            x       y       z     vdW  Elec       q    Type
                         _______ _______ _______ _____ _____    ______ ____

>  <TORSDO>
F 3

$$$$
=
 OpenBabel11052411183D

 31 36  0  0  1  0  0  0  0  0999 V2000
  161.5310  208.9060  149.3440 C   0  0  0  0  0  3  0  0  0  0  0  0
  160.8580  203.3640  146.9210 C   0  0  2  0  0  3  0  0  0  0  0  0
  160.1470  202.2940  151.7340 C   0  0  0  0  0  2  0  0  0  0  0  0
  162.2050  204.6520  148.6780 C   0  0  1  0  0  3  0  0  0  0  0  0
  161.5190  208.3090  148.0430 O   0  0  0  0  0  0  0  0  0  0  0  0
  161.2560  203.2630  152.1220 C   0  0  0  0  0  2  0  0  0  0  0  0
  161.0650  208.3770  151.8040 C   0  0  0  0  0  3  0  0  0  0  0  0
  162.4410  205.2120  146.2250 C   0  0  0  0  0  0  0  0  0  0  0  0
  161.0340  207.5640  152.8630 C   0  0  0  0  0  0  0  0  0  0  0  0
  160.8650  202.8300  145.5680 N   0  0  0  0  0  1  0  0  0  0  0  0
  161.4400  204.2870  151.0390 C   0  0  2  0  0  3  0  0  0  0  0  0
  160.4270  201.6880  150.3630 C   0  0  0  0  0  2  0  0  0  0  0  0
  162.1560  204.1210  147.2230 C   0  0  2  0  0  3  0  0  0  0  0  0
  161.8340  206.1020  148.8450 C   0  0  0  0  0  0  0  0  0  0  0  0
  162.9770  204.9170  145.0490 C   0  0  0  0  0  2  0  0  0  0  0  0
  160.7100  202.2170  147.9100 C   0  0  2  0  0  3  0  0  0  0  0  0
  161.3680  207.8950  150.4460 C   0  0  0  0  0  0  0  0  0  0  0  0
  162.1480  206.5430  146.5260 O   0  0  0  0  0  0  0  0  0  0  0  0
  161.5560  206.5870  150.2110 C   0  0  1  0  0  3  0  0  0  0  0  0
  161.4600  205.6050  151.3170 C   0  0  0  0  0  0  0  0  0  0  0  0
  160.4940  202.7940  149.3050 C   0  0  2  0  0  3  0  0  0  0  0  0
  161.4800  203.8270  149.6700 N   0  0  1  0  0  0  0  0  0  0  0  0
  161.8340  206.9630  147.8190 C   0  0  0  0  0  0  0  0  0  0  0  0
  161.3820  206.0970  152.7410 C   0  0  0  0  0  3  0  0  0  0  0  0
  161.3730  200.1670  147.3750 C   0  0  0  0  0  1  0  0  0  0  0  0
  161.8380  201.3810  147.8800 O   0  0  0  0  0  0  0  0  0  0  0  0
  160.7230  208.1260  154.1390 N   0  0  0  0  0  2  0  0  0  0  0  0
  160.4480  210.0960  156.1900 C   0  0  0  0  0  1  0  0  0  0  0  0
  159.6540  210.5060  153.6680 O   0  0  0  0  0  0  0  0  0  0  0  0
  162.0750  210.4050  154.0890 O   0  0  0  0  0  0  0  0  0  0  0  0
  160.7370  209.8290  154.4580 S   0  0  0  0  0  0  0  0  0  0  0  0
  1 17  2  0  0  0  0
  2 10  1  6  0  0  0
  2 13  1  0  0  0  0
  2 16  1  0  0  0  0
  3  6  1  0  0  0  0
  4 14  1  6  0  0  0
  4 22  1  0  0  0  0
  5  1  1  0  0  0  0
  7  9  2  0  0  0  0
  8 18  1  0  0  0  0
  9 27  1  0  0  0  0
 11 20  1  0  0  0  0
 11  6  1  6  0  0  0
 12  3  1  0  0  0  0
 13  8  1  6  0  0  0
 13  4  1  0  0  0  0
 15  8  2  0  0  0  0
 16 26  1  1  0  0  0
 16 21  1  0  0  0  0
 17  7  1  0  0  0  0
 18 23  1  0  0  0  0
 19 14  1  6  0  0  0
 19 17  1  0  0  0  0
 19 20  1  0  0  0  0
 20 24  2  0  0  0  0
 21 22  1  0  0  0  0
 21 12  1  1  0  0  0
 22 11  1  0  0  0  0
 23  5  1  0  0  0  0
 23 14  2  0  0  0  0
 24  9  1  0  0  0  0
 25 26  1  0  0  0  0
 27 31  1  0  0  0  0
 29 31  2  0  0  0  0
 30 31  2  0  0  0  0
 31 28  1  0  0  0  0
M  END
>  <MODEL>
2

>  <REMARK>
 VINA RESULT:      -7.9      3.011      7.327
  Name = 
  3 active torsions:
  status: ('A' for Active; 'I' for Inactive)
    1  A    between atoms: N_1  and  C_13
    2  A    between atoms: N_1  and  S_24
    3  A    between atoms: C_20  and  O_30
                            x       y       z     vdW  Elec       q    Type
                         _______ _______ _______ _____ _____    ______ ____

>  <TORSDO>
F 3

$$$$
=
 OpenBabel11052411183D

 31 36  0  0  1  0  0  0  0  0999 V2000
  161.9800  206.1850  152.4970 C   0  0  0  0  0  3  0  0  0  0  0  0
  161.5850  201.8300  148.2640 C   0  0  2  0  0  3  0  0  0  0  0  0
  162.0220  205.8400  145.3390 C   0  0  0  0  0  2  0  0  0  0  0  0
  160.4970  204.0240  149.0150 C   0  0  1  0  0  3  0  0  0  0  0  0
  161.8900  204.7570  152.4450 O   0  0  0  0  0  0  0  0  0  0  0  0
  161.1180  206.6320  146.2770 C   0  0  0  0  0  2  0  0  0  0  0  0
  162.3070  208.2340  150.9990 C   0  0  0  0  0  3  0  0  0  0  0  0
  160.4010  201.9780  150.4950 C   0  0  0  0  0  0  0  0  0  0  0  0
  162.1670  208.9090  149.8550 C   0  0  0  0  0  0  0  0  0  0  0  0
  161.4900  200.3790  148.2930 N   0  0  0  0  0  1  0  0  0  0  0  0
  161.1500  206.0230  147.6490 C   0  0  2  0  0  3  0  0  0  0  0  0
  161.6440  204.3630  145.3610 C   0  0  0  0  0  2  0  0  0  0  0  0
  160.4570  202.4750  149.0750 C   0  0  2  0  0  3  0  0  0  0  0  0
  161.1420  204.6960  150.1980 C   0  0  0  0  0  0  0  0  0  0  0  0
  159.8310  200.8140  150.7720 C   0  0  0  0  0  2  0  0  0  0  0  0
  161.4960  202.3080  146.8210 C   0  0  2  0  0  3  0  0  0  0  0  0
  161.9310  206.8180  151.1320 C   0  0  0  0  0  0  0  0  0  0  0  0
  160.9450  202.7340  151.5340 O   0  0  0  0  0  0  0  0  0  0  0  0
  161.4940  206.1230  150.0700 C   0  0  1  0  0  3  0  0  0  0  0  0
  161.3840  206.7750  148.7420 C   0  0  0  0  0  0  0  0  0  0  0  0
  161.8050  203.8010  146.7760 C   0  0  2  0  0  3  0  0  0  0  0  0
  161.0350  204.5880  147.7570 N   0  0  1  0  0  0  0  0  0  0  0  0
  161.3210  204.0680  151.3680 C   0  0  0  0  0  0  0  0  0  0  0  0
  161.5410  208.2710  148.6350 C   0  0  0  0  0  3  0  0  0  0  0  0
  160.4570  201.1200  145.2610 C   0  0  0  0  0  1  0  0  0  0  0  0
  160.2280  202.0410  146.2830 O   0  0  0  0  0  0  0  0  0  0  0  0
  162.5680  210.2800  149.8250 N   0  0  0  0  0  2  0  0  0  0  0  0
  163.3220  212.2380  147.8860 C   0  0  0  0  0  1  0  0  0  0  0  0
  161.1160  212.4530  149.3850 O   0  0  0  0  0  0  0  0  0  0  0  0
  161.1340  210.7190  147.6400 O   0  0  0  0  0  0  0  0  0  0  0  0
  161.9560  211.4270  148.6800 S   0  0  0  0  0  0  0  0  0  0  0  0
  2 10  1  6  0  0  0
  2 13  1  0  0  0  0
  3 12  1  0  0  0  0
  3  6  1  0  0  0  0
  4 13  1  0  0  0  0
  4 14  1  1  0  0  0
  5  1  1  0  0  0  0
  7 17  1  0  0  0  0
  8 15  2  0  0  0  0
  8 18  1  0  0  0  0
  9  7  2  0  0  0  0
 11  6  1  6  0  0  0
 11 22  1  0  0  0  0
 11 20  1  0  0  0  0
 13  8  1  1  0  0  0
 14 23  2  0  0  0  0
 16 26  1  1  0  0  0
 16  2  1  0  0  0  0
 17  1  2  0  0  0  0
 19 20  1  6  0  0  0
 19 14  1  0  0  0  0
 19 17  1  0  0  0  0
 21 12  1  6  0  0  0
 21 16  1  0  0  0  0
 21 22  1  0  0  0  0
 22  4  1  0  0  0  0
 23 18  1  0  0  0  0
 23  5  1  0  0  0  0
 24 20  2  0  0  0  0
 24  9  1  0  0  0  0
 25 26  1  0  0  0  0
 27  9  1  0  0  0  0
 28 31  1  0  0  0  0
 30 31  2  0  0  0  0
 31 29  2  0  0  0  0
 31 27  1  0  0  0  0
M  END
>  <MODEL>
3

>  <REMARK>
 VINA RESULT:      -7.5      3.089      7.299
  Name = 
  3 active torsions:
  status: ('A' for Active; 'I' for Inactive)
    1  A    between atoms: N_1  and  C_13
    2  A    between atoms: N_1  and  S_24
    3  A    between atoms: C_20  and  O_30
                            x       y       z     vdW  Elec       q    Type
                         _______ _______ _______ _____ _____    ______ ____

>  <TORSDO>
F 3

$$$$
=
 OpenBabel11052411183D

 31 36  0  0  1  0  0  0  0  0999 V2000
  161.6930  209.1750  149.1130 C   0  0  0  0  0  3  0  0  0  0  0  0
  160.8570  203.4220  147.3110 C   0  0  2  0  0  3  0  0  0  0  0  0
  160.0990  202.9120  152.2080 C   0  0  0  0  0  2  0  0  0  0  0  0
  162.2370  204.8550  148.9250 C   0  0  1  0  0  3  0  0  0  0  0  0
  161.6660  208.4380  147.8860 O   0  0  0  0  0  0  0  0  0  0  0  0
  161.2370  203.8840  152.4940 C   0  0  0  0  0  2  0  0  0  0  0  0
  161.2030  208.9340  151.6130 C   0  0  0  0  0  3  0  0  0  0  0  0
  162.4980  205.1340  146.4260 C   0  0  0  0  0  0  0  0  0  0  0  0
  161.1440  208.2440  152.7550 C   0  0  0  0  0  0  0  0  0  0  0  0
  160.8510  202.7430  146.0250 N   0  0  0  0  0  1  0  0  0  0  0  0
  161.4550  204.7760  151.3060 C   0  0  2  0  0  3  0  0  0  0  0  0
  160.3640  202.1500  150.9140 C   0  0  0  0  0  2  0  0  0  0  0  0
  162.1770  204.1690  147.5360 C   0  0  2  0  0  3  0  0  0  0  0  0
  161.9100  206.3250  148.9280 C   0  0  0  0  0  0  0  0  0  0  0  0
  163.0280  204.6950  145.2930 C   0  0  0  0  0  2  0  0  0  0  0  0
  160.6710  202.3960  148.4200 C   0  0  2  0  0  3  0  0  0  0  0  0
  161.4950  208.2970  150.3190 C   0  0  0  0  0  0  0  0  0  0  0  0
  162.2450  206.4980  146.5760 O   0  0  0  0  0  0  0  0  0  0  0  0
  161.6440  206.9660  150.2300 C   0  0  1  0  0  3  0  0  0  0  0  0
  161.5150  206.1150  151.4380 C   0  0  0  0  0  0  0  0  0  0  0  0
  160.4690  203.1300  149.7410 C   0  0  2  0  0  3  0  0  0  0  0  0
  161.4850  204.1670  149.9970 N   0  0  1  0  0  0  0  0  0  0  0  0
  161.9400  207.0680  147.8140 C   0  0  0  0  0  0  0  0  0  0  0  0
  161.4480  206.7640  152.7980 C   0  0  0  0  0  3  0  0  0  0  0  0
  161.3210  200.3290  147.9390 C   0  0  0  0  0  1  0  0  0  0  0  0
  161.7720  201.5290  148.4890 O   0  0  0  0  0  0  0  0  0  0  0  0
  160.8470  208.9540  153.9600 N   0  0  0  0  0  2  0  0  0  0  0  0
  159.8710  209.3250  156.6190 C   0  0  0  0  0  1  0  0  0  0  0  0
  161.9530  207.7460  156.0430 O   0  0  0  0  0  0  0  0  0  0  0  0
  159.7250  206.9840  155.3330 O   0  0  0  0  0  0  0  0  0  0  0  0
  160.6240  208.1780  155.4920 S   0  0  0  0  0  0  0  0  0  0  0  0
  1 17  2  0  0  0  0
  2 10  1  6  0  0  0
  2 13  1  0  0  0  0
  2 16  1  0  0  0  0
  3  6  1  0  0  0  0
  4 14  1  6  0  0  0
  4 22  1  0  0  0  0
  5  1  1  0  0  0  0
  7  9  2  0  0  0  0
  8 18  1  0  0  0  0
  9 24  1  0  0  0  0
  9 27  1  0  0  0  0
 11 20  1  0  0  0  0
 11  6  1  6  0  0  0
 12  3  1  0  0  0  0
 13  8  1  6  0  0  0
 13  4  1  0  0  0  0
 15  8  2  0  0  0  0
 16 26  1  1  0  0  0
 16 21  1  0  0  0  0
 17  7  1  0  0  0  0
 18 23  1  0  0  0  0
 19 14  1  6  0  0  0
 19 17  1  0  0  0  0
 19 20  1  0  0  0  0
 20 24  2  0  0  0  0
 21 22  1  0  0  0  0
 21 12  1  1  0  0  0
 22 11  1  0  0  0  0
 23  5  1  0  0  0  0
 23 14  2  0  0  0  0
 25 26  1  0  0  0  0
 27 31  1  0  0  0  0
 30 31  2  0  0  0  0
 31 29  2  0  0  0  0
 31 28  1  0  0  0  0
M  END
>  <MODEL>
4

>  <REMARK>
 VINA RESULT:      -7.4      2.985      7.238
  Name = 
  3 active torsions:
  status: ('A' for Active; 'I' for Inactive)
    1  A    between atoms: N_1  and  C_13
    2  A    between atoms: N_1  and  S_24
    3  A    between atoms: C_20  and  O_30
                            x       y       z     vdW  Elec       q    Type
                         _______ _______ _______ _____ _____    ______ ____

>  <TORSDO>
F 3

$$$$
=
 OpenBabel11052411183D

 31 36  0  0  1  0  0  0  0  0999 V2000
  161.2850  204.9830  151.7300 C   0  0  0  0  0  3  0  0  0  0  0  0
  159.5780  209.7870  155.0540 C   0  0  2  0  0  3  0  0  0  0  0  0
  160.3840  212.0120  150.6710 C   0  0  0  0  0  2  0  0  0  0  0  0
  161.4820  208.9280  153.5710 C   0  0  1  0  0  3  0  0  0  0  0  0
  160.8260  205.2460  153.0600 O   0  0  0  0  0  0  0  0  0  0  0  0
  161.6100  211.1360  150.4420 C   0  0  0  0  0  2  0  0  0  0  0  0
  161.6010  206.1060  149.4520 C   0  0  0  0  0  2  0  0  0  0  0  0
  160.9530  207.7830  155.7610 C   0  0  0  0  0  0  0  0  0  0  0  0
  161.8660  207.1530  148.6660 C   0  0  0  0  0  0  0  0  0  0  0  0
  159.1240  209.9750  156.4230 N   0  0  0  0  0  1  0  0  0  0  0  0
  161.4930  209.8760  151.2490 C   0  0  2  0  0  3  0  0  0  0  0  0
  160.1790  212.2590  152.1610 C   0  0  0  0  0  2  0  0  0  0  0  0
  160.9430  209.0910  155.0150 C   0  0  2  0  0  3  0  0  0  0  0  0
  161.2620  207.5720  152.9530 C   0  0  0  0  0  0  0  0  0  0  0  0
  161.0690  207.7680  157.0810 C   0  0  0  0  0  2  0  0  0  0  0  0
  159.6930  211.1430  154.3730 C   0  0  2  0  0  3  0  0  0  0  0  0
  161.4280  206.2350  150.9080 C   0  0  0  0  0  0  0  0  0  0  0  0
  160.8430  206.5730  155.0740 O   0  0  0  0  0  0  0  0  0  0  0  0
  161.4610  207.4410  151.4970 C   0  0  0  0  0  0  0  0  0  0  0  0
  161.6710  208.6650  150.6860 C   0  0  0  0  0  0  0  0  0  0  0  0
  159.9640  210.9280  152.8880 C   0  0  2  0  0  3  0  0  0  0  0  0
  161.0690  209.9880  152.6260 N   0  0  1  0  0  0  0  0  0  0  0  0
  160.9810  206.4880  153.6870 C   0  0  0  0  0  0  0  0  0  0  0  0
  162.0780  208.5360  149.2390 C   0  0  0  0  0  3  0  0  0  0  0  0
  160.0320  212.8930  155.6970 C   0  0  0  0  0  1  0  0  0  0  0  0
  160.7050  211.9150  154.9640 O   0  0  0  0  0  0  0  0  0  0  0  0
  162.0090  206.9250  147.2630 N   0  0  0  0  0  2  0  0  0  0  0  0
  161.3260  205.4210  144.9320 C   0  0  0  0  0  1  0  0  0  0  0  0
  161.2610  204.3860  147.3990 O   0  0  0  0  0  0  0  0  0  0  0  0
  163.4700  204.8760  146.4350 O   0  0  0  0  0  0  0  0  0  0  0  0
  162.0480  205.3460  146.5530 S   0  0  0  0  0  0  0  0  0  0  0  0
  1  5  1  0  0  0  0
  2 10  1  1  0  0  0
  3 12  1  0  0  0  0
  4 14  1  6  0  0  0
  4 13  1  0  0  0  0
  5 23  1  0  0  0  0
  6  3  1  0  0  0  0
  7 17  1  0  0  0  0
  8 15  2  0  0  0  0
  9 24  2  0  0  0  0
  9  7  1  0  0  0  0
 11  6  1  6  0  0  0
 11 22  1  0  0  0  0
 13  2  1  0  0  0  0
 13  8  1  6  0  0  0
 14 23  2  0  0  0  0
 16 26  1  1  0  0  0
 16  2  1  0  0  0  0
 17 19  1  0  0  0  0
 17  1  2  0  0  0  0
 18  8  1  0  0  0  0
 19 14  1  0  0  0  0
 20 11  1  0  0  0  0
 20 19  2  0  0  0  0
 21 12  1  1  0  0  0
 21 16  1  0  0  0  0
 22 21  1  0  0  0  0
 22  4  1  0  0  0  0
 23 18  1  0  0  0  0
 24 20  1  0  0  0  0
 26 25  1  0  0  0  0
 27  9  1  0  0  0  0
 28 31  1  0  0  0  0
 30 31  2  0  0  0  0
 31 27  1  0  0  0  0
 31 29  2  0  0  0  0
M  END
>  <MODEL>
5

>  <REMARK>
 VINA RESULT:      -7.3      1.866      4.257
  Name = 
  3 active torsions:
  status: ('A' for Active; 'I' for Inactive)
    1  A    between atoms: N_1  and  C_13
    2  A    between atoms: N_1  and  S_24
    3  A    between atoms: C_20  and  O_30
                            x       y       z     vdW  Elec       q    Type
                         _______ _______ _______ _____ _____    ______ ____

>  <TORSDO>
F 3

$$$$
=
 OpenBabel11052411183D

 31 36  0  0  1  0  0  0  0  0999 V2000
  161.9870  208.1920  152.3730 C   0  0  0  0  0  3  0  0  0  0  0  0
  161.6880  202.7230  149.7200 C   0  0  2  0  0  3  0  0  0  0  0  0
  162.0200  205.6240  145.6830 C   0  0  0  0  0  2  0  0  0  0  0  0
  160.5490  205.0170  149.7570 C   0  0  1  0  0  3  0  0  0  0  0  0
  161.9320  206.8180  152.7720 O   0  0  0  0  0  0  0  0  0  0  0  0
  161.1000  206.6490  146.3340 C   0  0  0  0  0  2  0  0  0  0  0  0
  162.2610  209.6760  150.3060 C   0  0  0  0  0  3  0  0  0  0  0  0
  160.5060  203.5360  151.8050 C   0  0  0  0  0  0  0  0  0  0  0  0
  162.1020  209.9550  149.0100 C   0  0  0  0  0  0  0  0  0  0  0  0
  161.6280  201.3530  150.2030 N   0  0  0  0  0  1  0  0  0  0  0  0
  161.1490  206.5020  147.8280 C   0  0  2  0  0  3  0  0  0  0  0  0
  161.6790  204.2200  146.1690 C   0  0  0  0  0  2  0  0  0  0  0  0
  160.5470  203.5650  150.3000 C   0  0  2  0  0  3  0  0  0  0  0  0
  161.1800  206.0400  150.6640 C   0  0  0  0  0  0  0  0  0  0  0  0
  159.9650  202.5040  152.4380 C   0  0  0  0  0  2  0  0  0  0  0  0
  161.5840  202.7230  148.2010 C   0  0  2  0  0  3  0  0  0  0  0  0
  161.9200  208.3640  150.8790 C   0  0  0  0  0  0  0  0  0  0  0  0
  161.0340  204.5910  152.5490 O   0  0  0  0  0  0  0  0  0  0  0  0
  161.4970  207.3620  150.0920 C   0  0  1  0  0  3  0  0  0  0  0  0
  161.3680  207.5630  148.6290 C   0  0  0  0  0  0  0  0  0  0  0  0
  161.8570  204.1330  147.6880 C   0  0  2  0  0  3  0  0  0  0  0  0
  161.0700  205.1700  148.3810 N   0  0  1  0  0  0  0  0  0  0  0  0
  161.3770  205.8140  151.9700 C   0  0  0  0  0  0  0  0  0  0  0  0
  161.4890  208.9540  148.0570 C   0  0  0  0  0  3  0  0  0  0  0  0
  160.5850  201.2590  146.8650 C   0  0  0  0  0  1  0  0  0  0  0  0
  160.3210  202.2720  147.7870 O   0  0  0  0  0  0  0  0  0  0  0  0
  162.4700  211.2560  148.5480 N   0  0  0  0  0  2  0  0  0  0  0  0
  162.2190  214.0250  147.8870 C   0  0  0  0  0  1  0  0  0  0  0  0
  160.6430  212.8100  149.6770 O   0  0  0  0  0  0  0  0  0  0  0  0
  160.3330  212.2180  147.3100 O   0  0  0  0  0  0  0  0  0  0  0  0
  161.3410  212.5590  148.3710 S   0  0  0  0  0  0  0  0  0  0  0  0
  1  5  1  0  0  0  0
  2 10  1  1  0  0  0
  2 13  1  0  0  0  0
  3 12  1  0  0  0  0
  3  6  1  0  0  0  0
  4 13  1  0  0  0  0
  4 14  1  1  0  0  0
  7 17  1  0  0  0  0
  8 15  2  0  0  0  0
  8 18  1  0  0  0  0
  9  7  2  0  0  0  0
 11  6  1  6  0  0  0
 11 22  1  0  0  0  0
 11 20  1  0  0  0  0
 13  8  1  1  0  0  0
 14 23  2  0  0  0  0
 16 26  1  1  0  0  0
 16  2  1  0  0  0  0
 17  1  2  0  0  0  0
 19 20  1  6  0  0  0
 19 14  1  0  0  0  0
 19 17  1  0  0  0  0
 21 12  1  6  0  0  0
 21 16  1  0  0  0  0
 21 22  1  0  0  0  0
 22  4  1  0  0  0  0
 23 18  1  0  0  0  0
 23  5  1  0  0  0  0
 24 20  2  0  0  0  0
 24  9  1  0  0  0  0
 25 26  1  0  0  0  0
 27  9  1  0  0  0  0
 28 31  1  0  0  0  0
 30 31  2  0  0  0  0
 31 27  1  0  0  0  0
 31 29  2  0  0  0  0
M  END
>  <MODEL>
6

>  <REMARK>
 VINA RESULT:      -7.3      3.145      6.548
  Name = 
  3 active torsions:
  status: ('A' for Active; 'I' for Inactive)
    1  A    between atoms: N_1  and  C_13
    2  A    between atoms: N_1  and  S_24
    3  A    between atoms: C_20  and  O_30
                            x       y       z     vdW  Elec       q    Type
                         _______ _______ _______ _____ _____    ______ ____

>  <TORSDO>
F 3

$$$$
=
 OpenBabel11052411183D

 31 36  0  0  1  0  0  0  0  0999 V2000
  161.2040  203.2130  152.8390 C   0  0  0  0  0  3  0  0  0  0  0  0
  162.3090  204.3830  146.9700 C   0  0  2  0  0  3  0  0  0  0  0  0
  162.3360  209.0180  148.7930 C   0  0  0  0  0  2  0  0  0  0  0  0
  160.7020  204.9620  148.8790 C   0  0  1  0  0  3  0  0  0  0  0  0
  161.4140  202.4770  151.6290 O   0  0  0  0  0  0  0  0  0  0  0  0
  161.1660  208.6740  149.7070 C   0  0  0  0  0  2  0  0  0  0  0  0
  161.3200  205.5850  153.7950 C   0  0  0  0  0  3  0  0  0  0  0  0
  160.8130  202.6050  147.9740 C   0  0  0  0  0  0  0  0  0  0  0  0
  161.2100  206.9120  153.7050 C   0  0  0  0  0  0  0  0  0  0  0  0
  162.5060  203.5660  145.7820 N   0  0  0  0  0  1  0  0  0  0  0  0
  161.1240  207.1920  149.9450 C   0  0  2  0  0  3  0  0  0  0  0  0
  162.2660  208.1970  147.5110 C   0  0  0  0  0  2  0  0  0  0  0  0
  160.9690  204.0650  147.6430 C   0  0  2  0  0  3  0  0  0  0  0  0
  161.0220  204.3320  150.2090 C   0  0  0  0  0  0  0  0  0  0  0  0
  160.4570  201.7420  147.0320 C   0  0  0  0  0  2  0  0  0  0  0  0
  162.3310  205.8530  146.5750 C   0  0  2  0  0  3  0  0  0  0  0  0
  161.2230  204.7020  152.6210 C   0  0  0  0  0  0  0  0  0  0  0  0
  161.0380  202.1430  149.2710 O   0  0  0  0  0  0  0  0  0  0  0  0
  161.0920  205.2160  151.3880 C   0  0  1  0  0  3  0  0  0  0  0  0
  161.0430  206.6850  151.1900 C   0  0  0  0  0  0  0  0  0  0  0  0
  162.3340  206.7030  147.8410 C   0  0  2  0  0  3  0  0  0  0  0  0
  161.2890  206.3180  148.8070 N   0  0  1  0  0  0  0  0  0  0  0  0
  161.1560  203.0080  150.3610 C   0  0  0  0  0  0  0  0  0  0  0  0
  160.9070  207.5910  152.3890 C   0  0  0  0  0  3  0  0  0  0  0  0
  161.6350  205.8280  144.4670 C   0  0  0  0  0  1  0  0  0  0  0  0
  161.2330  206.1680  145.7590 O   0  0  0  0  0  0  0  0  0  0  0  0
  161.3250  207.6830  154.9030 N   0  0  0  0  0  2  0  0  0  0  0  0
  160.0210  209.1240  156.9970 C   0  0  0  0  0  1  0  0  0  0  0  0
  160.8050  206.5780  157.2550 O   0  0  0  0  0  0  0  0  0  0  0  0
  158.9050  207.0310  155.7610 O   0  0  0  0  0  0  0  0  0  0  0  0
  160.2370  207.5310  156.2420 S   0  0  0  0  0  0  0  0  0  0  0  0
  2 10  1  6  0  0  0
  2 13  1  0  0  0  0
  3  6  1  0  0  0  0
  4 14  1  1  0  0  0
  5  1  1  0  0  0  0
  8 18  1  0  0  0  0
  9  7  2  0  0  0  0
  9 27  1  0  0  0  0
 11  6  1  1  0  0  0
 11 20  1  0  0  0  0
 12  3  1  0  0  0  0
 13  8  1  1  0  0  0
 13  4  1  0  0  0  0
 14 23  2  0  0  0  0
 15  8  2  0  0  0  0
 16 26  1  6  0  0  0
 16  2  1  0  0  0  0
 16 21  1  0  0  0  0
 17  1  2  0  0  0  0
 17  7  1  0  0  0  0
 18 23  1  0  0  0  0
 19 14  1  6  0  0  0
 19 17  1  0  0  0  0
 20 19  1  0  0  0  0
 20 24  2  0  0  0  0
 21 12  1  6  0  0  0
 21 22  1  0  0  0  0
 22  4  1  0  0  0  0
 22 11  1  0  0  0  0
 23  5  1  0  0  0  0
 24  9  1  0  0  0  0
 25 26  1  0  0  0  0
 27 31  1  0  0  0  0
 30 31  2  0  0  0  0
 31 28  1  0  0  0  0
 31 29  2  0  0  0  0
M  END
>  <MODEL>
7

>  <REMARK>
 VINA RESULT:      -7.3      3.043      8.269
  Name = 
  3 active torsions:
  status: ('A' for Active; 'I' for Inactive)
    1  A    between atoms: N_1  and  C_13
    2  A    between atoms: N_1  and  S_24
    3  A    between atoms: C_20  and  O_30
                            x       y       z     vdW  Elec       q    Type
                         _______ _______ _______ _____ _____    ______ ____

>  <TORSDO>
F 3

$$$$
=
 OpenBabel11052411183D

 31 36  0  0  1  0  0  0  0  0999 V2000
  161.1380  203.1590  152.7790 C   0  0  0  0  0  3  0  0  0  0  0  0
  162.3120  204.3660  146.9310 C   0  0  2  0  0  3  0  0  0  0  0  0
  162.3300  208.9890  148.7870 C   0  0  0  0  0  2  0  0  0  0  0  0
  160.6860  204.9360  148.8250 C   0  0  1  0  0  3  0  0  0  0  0  0
  161.3600  202.4300  151.5670 O   0  0  0  0  0  0  0  0  0  0  0  0
  161.1490  208.6410  149.6850 C   0  0  0  0  0  2  0  0  0  0  0  0
  161.2480  205.5230  153.7530 C   0  0  0  0  0  3  0  0  0  0  0  0
  160.8010  202.5850  147.9060 C   0  0  0  0  0  0  0  0  0  0  0  0
  161.1430  206.8520  153.6710 C   0  0  0  0  0  0  0  0  0  0  0  0
  162.5210  203.5560  145.7400 N   0  0  0  0  0  1  0  0  0  0  0  0
  161.1010  207.1580  149.9120 C   0  0  2  0  0  3  0  0  0  0  0  0
  162.2730  208.1760  147.4980 C   0  0  0  0  0  2  0  0  0  0  0  0
  160.9640  204.0470  147.5860 C   0  0  2  0  0  3  0  0  0  0  0  0
  160.9890  204.2960  150.1550 C   0  0  0  0  0  0  0  0  0  0  0  0
  160.4540  201.7290  146.9540 C   0  0  0  0  0  2  0  0  0  0  0  0
  162.3420  205.8380  146.5470 C   0  0  2  0  0  3  0  0  0  0  0  0
  161.1640  204.6490  152.5720 C   0  0  0  0  0  0  0  0  0  0  0  0
  161.0100  202.1130  149.2020 O   0  0  0  0  0  0  0  0  0  0  0  0
  161.0470  205.1720  151.3410 C   0  0  1  0  0  3  0  0  0  0  0  0
  161.0040  206.6420  151.1520 C   0  0  0  0  0  0  0  0  0  0  0  0
  162.3340  206.6800  147.8190 C   0  0  2  0  0  3  0  0  0  0  0  0
  161.2770  206.2910  148.7700 N   0  0  1  0  0  0  0  0  0  0  0  0
  161.1180  202.9710  150.2990 C   0  0  0  0  0  0  0  0  0  0  0  0
  160.8570  207.5400  152.3560 C   0  0  0  0  0  3  0  0  0  0  0  0
  161.6630  205.8110  144.4340 C   0  0  0  0  0  1  0  0  0  0  0  0
  161.2550  206.1620  145.7210 O   0  0  0  0  0  0  0  0  0  0  0  0
  161.2470  207.6140  154.8750 N   0  0  0  0  0  2  0  0  0  0  0  0
  161.8690  209.9240  156.4370 C   0  0  0  0  0  1  0  0  0  0  0  0
  159.7180  209.7790  154.8530 O   0  0  0  0  0  0  0  0  0  0  0  0
  161.9180  209.9240  153.7630 O   0  0  0  0  0  0  0  0  0  0  0  0
  161.1540  209.3430  154.9190 S   0  0  0  0  0  0  0  0  0  0  0  0
  2 10  1  6  0  0  0
  2 13  1  0  0  0  0
  3  6  1  0  0  0  0
  4 14  1  1  0  0  0
  5  1  1  0  0  0  0
  8 18  1  0  0  0  0
  9  7  2  0  0  0  0
  9 27  1  0  0  0  0
 11  6  1  1  0  0  0
 11 20  1  0  0  0  0
 12  3  1  0  0  0  0
 13  8  1  1  0  0  0
 13  4  1  0  0  0  0
 14 23  2  0  0  0  0
 15  8  2  0  0  0  0
 16 26  1  6  0  0  0
 16  2  1  0  0  0  0
 16 21  1  0  0  0  0
 17  1  2  0  0  0  0
 17  7  1  0  0  0  0
 18 23  1  0  0  0  0
 19 14  1  6  0  0  0
 19 17  1  0  0  0  0
 20 19  1  0  0  0  0
 20 24  2  0  0  0  0
 21 12  1  6  0  0  0
 21 22  1  0  0  0  0
 22  4  1  0  0  0  0
 22 11  1  0  0  0  0
 23  5  1  0  0  0  0
 24  9  1  0  0  0  0
 25 26  1  0  0  0  0
 27 31  1  0  0  0  0
 29 31  2  0  0  0  0
 30 31  2  0  0  0  0
 31 28  1  0  0  0  0
M  END
>  <MODEL>
8

>  <REMARK>
 VINA RESULT:      -7.3      2.897      8.130
  Name = 
  3 active torsions:
  status: ('A' for Active; 'I' for Inactive)
    1  A    between atoms: N_1  and  C_13
    2  A    between atoms: N_1  and  S_24
    3  A    between atoms: C_20  and  O_30
                            x       y       z     vdW  Elec       q    Type
                         _______ _______ _______ _____ _____    ______ ____

>  <TORSDO>
F 3

$$$$
=
 OpenBabel11052411183D

 31 36  0  0  1  0  0  0  0  0999 V2000
  162.2110  210.4970  148.5180 C   0  0  0  0  0  3  0  0  0  0  0  0
  161.4500  209.5150  154.4760 C   0  0  2  0  0  3  0  0  0  0  0  0
  161.6800  204.8120  152.8480 C   0  0  0  0  0  2  0  0  0  0  0  0
  160.4400  208.9540  152.1900 C   0  0  1  0  0  3  0  0  0  0  0  0
  162.1070  211.2700  149.7180 O   0  0  0  0  0  0  0  0  0  0  0  0
  160.8600  205.1880  151.6200 C   0  0  0  0  0  2  0  0  0  0  0  0
  162.4320  208.0850  147.6930 C   0  0  0  0  0  2  0  0  0  0  0  0
  160.4480  211.3370  153.0330 C   0  0  0  0  0  0  0  0  0  0  0  0
  162.2060  206.7710  147.7770 C   0  0  0  0  0  0  0  0  0  0  0  0
  161.3470  210.3680  155.6490 N   0  0  0  0  0  1  0  0  0  0  0  0
  160.9960  206.6580  151.3480 C   0  0  2  0  0  3  0  0  0  0  0  0
  161.2950  205.6900  154.0330 C   0  0  0  0  0  2  0  0  0  0  0  0
  160.3940  209.8850  153.4280 C   0  0  2  0  0  3  0  0  0  0  0  0
  161.1820  209.5050  151.0000 C   0  0  0  0  0  0  0  0  0  0  0  0
  159.8940  212.2600  153.8070 C   0  0  0  0  0  2  0  0  0  0  0  0
  161.2490  208.0640  154.8920 C   0  0  2  0  0  3  0  0  0  0  0  0
  162.0580  209.0210  148.7650 C   0  0  0  0  0  0  0  0  0  0  0  0
  161.0780  211.7280  151.8510 O   0  0  0  0  0  0  0  0  0  0  0  0
  161.5320  208.5690  149.9150 C   0  0  0  0  0  0  0  0  0  0  0  0
  161.3220  207.1160  150.1230 C   0  0  0  0  0  0  0  0  0  0  0  0
  161.5650  207.1620  153.7040 C   0  0  2  0  0  3  0  0  0  0  0  0
  160.8810  207.5690  152.4630 N   0  0  1  0  0  0  0  0  0  0  0  0
  161.4490  210.8110  150.8650 C   0  0  0  0  0  0  0  0  0  0  0  0
  161.4810  206.1690  148.9590 C   0  0  0  0  0  3  0  0  0  0  0  0
  160.0880  207.4070  156.6660 C   0  0  0  0  0  1  0  0  0  0  0  0
  159.9410  207.8530  155.3520 O   0  0  0  0  0  0  0  0  0  0  0  0
  162.6130  205.9440  146.6850 N   0  0  0  0  0  2  0  0  0  0  0  0
  160.1770  206.1890  145.2120 C   0  0  0  0  0  1  0  0  0  0  0  0
  160.9300  203.9150  146.4050 O   0  0  0  0  0  0  0  0  0  0  0  0
  162.2010  204.6270  144.4230 O   0  0  0  0  0  0  0  0  0  0  0  0
  161.4990  205.0930  145.6670 S   0  0  0  0  0  0  0  0  0  0  0  0
  1 17  2  0  0  0  0
  1  5  1  0  0  0  0
  2 16  1  0  0  0  0
  2 10  1  1  0  0  0
  3 12  1  0  0  0  0
  4 14  1  6  0  0  0
  4 22  1  0  0  0  0
  4 13  1  0  0  0  0
  5 23  1  0  0  0  0
  6  3  1  0  0  0  0
  7  9  1  0  0  0  0
  7 17  1  0  0  0  0
  8 15  2  0  0  0  0
  9 24  2  0  0  0  0
 11  6  1  1  0  0  0
 11 22  1  0  0  0  0
 13  8  1  6  0  0  0
 13  2  1  0  0  0  0
 16 26  1  6  0  0  0
 17 19  1  0  0  0  0
 18  8  1  0  0  0  0
 19 20  2  0  0  0  0
 19 14  1  0  0  0  0
 20 11  1  0  0  0  0
 21 12  1  1  0  0  0
 21 16  1  0  0  0  0
 22 21  1  0  0  0  0
 23 14  2  0  0  0  0
 23 18  1  0  0  0  0
 24 20  1  0  0  0  0
 26 25  1  0  0  0  0
 27  9  1  0  0  0  0
 28 31  1  0  0  0  0
 30 31  2  0  0  0  0
 31 29  2  0  0  0  0
 31 27  1  0  0  0  0
M  END
>  <MODEL>
9

>  <REMARK>
 VINA RESULT:      -7.0      0.933      1.099
  Name = 
  3 active torsions:
  status: ('A' for Active; 'I' for Inactive)
    1  A    between atoms: N_1  and  C_13
    2  A    between atoms: N_1  and  S_24
    3  A    between atoms: C_20  and  O_30
                            x       y       z     vdW  Elec       q    Type
                         _______ _______ _______ _____ _____    ______ ____

>  <TORSDO>
F 3

$$$$
