=
 OpenBabel11042421163D

 55 62  0  0  1  0  0  0  0  0999 V2000
  161.8560  212.4440  147.1730 C   0  0  0  0  0  3  0  0  0  0  0  0
  159.5840  211.8460  153.0970 C   0  0  0  0  0  2  0  0  0  0  0  0
  158.7350  213.2580  155.2230 C   0  0  1  0  0  3  0  0  0  0  0  0
  160.7880  214.3650  148.2430 C   0  0  0  0  0  3  0  0  0  0  0  0
  159.9370  214.3680  150.4460 O   0  0  0  0  0  0  0  0  0  0  0  0
  161.7700  211.6270  148.4340 C   0  0  0  0  0  2  0  0  0  0  0  0
  159.6640  213.6740  151.6260 C   0  0  0  0  0  0  0  0  0  0  0  0
  160.5680  213.7130  149.3830 C   0  0  0  0  0  0  0  0  0  0  0  0
  158.9760  214.2660  152.8010 C   0  0  0  0  0  2  0  0  0  0  0  0
  160.0020  212.3970  151.7780 C   0  0  0  0  0  0  0  0  0  0  0  0
  158.9450  213.0720  153.7300 C   0  0  1  0  0  0  0  0  0  0  0  0
  160.9720  212.2880  149.5340 C   0  0  0  0  0  0  0  0  0  0  0  0
  160.6960  211.6470  150.6970 C   0  0  0  0  0  0  0  0  0  0  0  0
  161.4260  213.7050  147.0860 C   0  0  0  0  0  0  0  0  0  0  0  0
  157.5840  212.8090  154.3300 C   0  0  0  0  0  2  0  0  0  0  0  0
  161.8480  207.9700  150.0690 C   0  0  0  0  0  3  0  0  0  0  0  0
  161.0150  209.7230  152.1630 C   0  0  0  0  0  3  0  0  0  0  0  0
  161.4010  208.3330  152.4290 C   0  0  0  0  0  0  0  0  0  0  0  0
  161.0890  210.2370  150.9280 C   0  0  0  0  0  0  0  0  0  0  0  0
  161.4050  207.9110  153.6150 O   0  0  0  0  0  0  0  0  0  0  0  0
  161.7540  207.4490  151.2940 C   0  0  0  0  0  0  0  0  0  0  0  0
  161.6860  209.4430  149.7880 C   0  0  0  0  0  2  0  0  0  0  0  0
  161.0450  205.1410  151.1520 N   0  0  0  0  0  0  0  0  0  0  0  0
  161.9670  206.0020  151.4410 C   0  0  0  0  0  3  0  0  0  0  0  0
  161.7280  203.2580  152.3570 O   0  0  0  0  0  0  0  0  0  0  0  0
  161.2370  203.7300  151.2940 C   0  0  0  0  0  0  0  0  0  0  0  0
  161.3800  201.0730  146.9900 C   0  0  0  0  0  3  0  0  0  0  0  0
  161.5720  200.4610  148.2670 N   0  0  0  0  0  2  0  0  0  0  0  0
  160.8520  202.8280  150.1910 C   0  0  0  0  0  0  0  0  0  0  0  0
  161.5850  203.3980  147.8970 C   0  0  1  0  0  3  0  0  0  0  0  0
  160.4190  203.4170  148.8820 C   0  0  0  0  0  2  0  0  0  0  0  0
  160.5490  200.5140  149.3010 C   0  0  0  0  0  2  0  0  0  0  0  0
  161.3570  202.3950  146.8100 C   0  0  0  0  0  3  0  0  0  0  0  0
  160.9160  201.5040  150.3610 C   0  0  0  0  0  3  0  0  0  0  0  0
  163.0780  204.8270  146.6500 O   0  0  0  0  0  1  0  0  0  0  0  0
  161.8380  204.7750  147.2880 C   0  0  1  0  0  3  0  0  0  0  0  0
  160.7850  205.1130  146.3460 N   0  0  0  0  0  1  0  0  0  0  0  0
  159.2530  212.0720  156.0230 C   0  0  0  0  0  2  0  0  0  0  0  0
  160.4890  214.0320  156.9910 C   0  0  0  0  0  1  0  0  0  0  0  0
  160.2200  212.5400  157.1060 C   0  0  2  0  0  3  0  0  0  0  0  0
  161.4630  211.7610  157.1220 N   0  0  0  0  0  2  0  0  0  0  0  0
  161.7060  211.1430  155.8220 C   0  0  0  0  0  2  0  0  0  0  0  0
  163.1560  210.7230  155.7270 C   0  0  0  0  0  1  0  0  0  0  0  0
  161.5830  214.3870  145.8770 O   0  0  0  0  0  0  0  0  0  0  0  0
  160.5690  214.4530  144.9430 N   0  0  0  0  0  2  0  0  0  0  0  0
  161.1910  214.4440  143.6250 C   0  0  0  0  0  2  0  0  0  0  0  0
  160.8470  212.0350  140.8870 O   0  0  0  0  0  0  0  0  0  0  0  0
  160.9440  213.1050  142.9080 C   0  0  2  0  0  0  0  0  0  0  0  0
  162.6500  213.3410  140.6370 O   0  0  0  0  0  0  0  0  0  0  0  0
  159.9110  212.2970  143.6810 C   0  0  0  0  0  1  0  0  0  0  0  0
  162.2000  212.2480  142.7220 C   0  0  1  0  0  3  0  0  0  0  0  0
  160.5020  213.2590  141.4410 C   0  0  1  0  0  3  0  0  0  0  0  0
  161.5030  214.1500  140.7340 C   0  0  0  0  0  2  0  0  0  0  0  0
  162.2060  212.1180  141.1940 C   0  0  1  0  0  3  0  0  0  0  0  0
  163.3690  212.8740  143.1760 O   0  0  0  0  0  1  0  0  0  0  0  0
  1  6  1  0  0  0  0
  2 11  1  0  0  0  0
  3 38  1  1  0  0  0
  4  8  2  0  0  0  0
  5  7  1  0  0  0  0
  6 12  1  0  0  0  0
  7 10  2  0  0  0  0
  7  9  1  0  0  0  0
  8 12  1  0  0  0  0
  8  5  1  0  0  0  0
 10  2  1  0  0  0  0
 11  9  1  6  0  0  0
 11 15  1  0  0  0  0
 11  3  1  0  0  0  0
 12 13  2  0  0  0  0
 13 19  1  0  0  0  0
 13 10  1  0  0  0  0
 14  1  2  0  0  0  0
 14  4  1  0  0  0  0
 15  3  1  0  0  0  0
 16 21  2  0  0  0  0
 17 18  1  0  0  0  0
 18 20  2  0  0  0  0
 19 17  2  0  0  0  0
 21 24  1  0  0  0  0
 21 18  1  0  0  0  0
 22 16  1  0  0  0  0
 22 19  1  0  0  0  0
 23 26  1  0  0  0  0
 23 24  2  0  0  0  0
 26 25  2  0  0  0  0
 27 28  1  0  0  0  0
 28 32  1  0  0  0  0
 29 34  2  0  0  0  0
 29 26  1  0  0  0  0
 30 36  1  6  0  0  0
 30 31  1  0  0  0  0
 31 29  1  0  0  0  0
 32 34  1  0  0  0  0
 33 27  2  0  0  0  0
 33 30  1  0  0  0  0
 35 36  1  0  0  0  0
 36 37  1  6  0  0  0
 38 40  1  0  0  0  0
 40 39  1  6  0  0  0
 40 41  1  0  0  0  0
 42 41  1  0  0  0  0
 43 42  1  0  0  0  0
 44 14  1  0  0  0  0
 45 44  1  0  0  0  0
 46 45  1  0  0  0  0
 47 54  1  0  0  0  0
 47 52  1  0  0  0  0
 48 46  1  0  0  0  0
 48 50  1  1  0  0  0
 49 53  1  0  0  0  0
 51 48  1  0  0  0  0
 51 55  1  6  0  0  0
 52 53  1  6  0  0  0
 52 48  1  0  0  0  0
 54 49  1  6  0  0  0
 54 51  1  0  0  0  0
M  END
>  <MODEL>
1

>  <REMARK>
 VINA RESULT:      -6.9      0.000      0.000
  Name = 
  13 active torsions:
  status: ('A' for Active; 'I' for Inactive)
    1  A    between atoms: C_1  and  C_5
    2  A    between atoms: C_1  and  C_48
    3  A    between atoms: C_11  and  C_38
    4  A    between atoms: O_14  and  N_23
    5  A    between atoms: O_14  and  C_46
    6  A    between atoms: C_18  and  C_44
    7  A    between atoms: C_20  and  C_24
    8  A    between atoms: C_22  and  C_37
    9  A    between atoms: N_23  and  C_37
   10  A    between atoms: N_28  and  C_35
   11  A    between atoms: N_28  and  C_48
   12  A    between atoms: C_32  and  C_39
   13  A    between atoms: N_36  and  C_38
                            x       y       z     vdW  Elec       q    Type
                         _______ _______ _______ _____ _____    ______ ____

>  <TORSDO>
F 13

$$$$
=
 OpenBabel11042421163D

 55 62  0  0  1  0  0  0  0  0999 V2000
  161.6280  205.4130  150.8050 C   0  0  0  0  0  3  0  0  0  0  0  0
  160.8610  210.5860  154.4460 C   0  0  0  0  0  2  0  0  0  0  0  0
  159.9790  211.4070  156.8510 C   0  0  1  0  0  3  0  0  0  0  0  0
  161.2210  205.1390  153.2000 C   0  0  0  0  0  3  0  0  0  0  0  0
  160.8530  206.9190  154.7070 O   0  0  0  0  0  0  0  0  0  0  0  0
  161.4200  206.9010  150.8850 C   0  0  0  0  0  2  0  0  0  0  0  0
  160.7810  208.2930  154.9440 C   0  0  0  0  0  0  0  0  0  0  0  0
  161.1110  206.4480  153.4150 C   0  0  0  0  0  0  0  0  0  0  0  0
  160.5400  208.8970  156.2790 C   0  0  0  0  0  2  0  0  0  0  0  0
  160.9390  209.1790  153.9650 C   0  0  0  0  0  0  0  0  0  0  0  0
  160.5910  210.3680  155.9260 C   0  0  1  0  0  0  0  0  0  0  0  0
  161.2740  207.4190  152.2980 C   0  0  0  0  0  0  0  0  0  0  0  0
  161.1920  208.7470  152.5650 C   0  0  0  0  0  0  0  0  0  0  0  0
  161.5190  204.5990  151.8580 C   0  0  0  0  0  0  0  0  0  0  0  0
  161.4860  211.1770  156.8360 C   0  0  0  0  0  2  0  0  0  0  0  0
  162.2900  210.5740  149.2950 C   0  0  0  0  0  3  0  0  0  0  0  0
  160.7170  210.9560  151.6450 C   0  0  0  0  0  3  0  0  0  0  0  0
  160.8190  211.9900  150.6110 C   0  0  0  0  0  0  0  0  0  0  0  0
  161.3210  209.7700  151.5000 C   0  0  0  0  0  0  0  0  0  0  0  0
  160.1650  213.0570  150.7400 O   0  0  0  0  0  0  0  0  0  0  0  0
  161.7080  211.7660  149.4480 C   0  0  0  0  0  0  0  0  0  0  0  0
  162.0280  209.4080  150.2120 C   0  0  0  0  0  2  0  0  0  0  0  0
  161.5040  212.8130  147.2770 N   0  0  0  0  0  0  0  0  0  0  0  0
  162.0210  212.8130  148.4630 C   0  0  0  0  0  3  0  0  0  0  0  0
  162.9000  214.4440  146.3530 O   0  0  0  0  0  0  0  0  0  0  0  0
  161.8020  213.8230  146.3070 C   0  0  0  0  0  0  0  0  0  0  0  0
  158.7550  213.3390  142.2970 C   0  0  0  0  0  3  0  0  0  0  0  0
  158.2560  213.3230  143.6360 N   0  0  0  0  0  2  0  0  0  0  0  0
  160.8190  214.1290  145.2500 C   0  0  0  0  0  0  0  0  0  0  0  0
  161.1430  213.1160  143.0160 C   0  0  1  0  0  3  0  0  0  0  0  0
  161.3020  214.3810  143.8540 C   0  0  0  0  0  2  0  0  0  0  0  0
  158.4480  214.4510  144.5360 C   0  0  0  0  0  2  0  0  0  0  0  0
  160.0540  213.2730  142.0010 C   0  0  0  0  0  3  0  0  0  0  0  0
  159.5150  214.1540  145.5400 C   0  0  0  0  0  3  0  0  0  0  0  0
  162.2180  211.8060  141.2960 O   0  0  0  0  0  1  0  0  0  0  0  0
  162.4470  212.7240  142.3230 C   0  0  1  0  0  3  0  0  0  0  0  0
  163.1100  213.9020  141.7910 N   0  0  0  0  0  1  0  0  0  0  0  0
  159.6540  212.7000  156.1180 C   0  0  0  0  0  2  0  0  0  0  0  0
  158.5210  213.5130  154.0290 C   0  0  0  0  0  1  0  0  0  0  0  0
  158.4910  212.4890  155.1540 C   0  0  2  0  0  3  0  0  0  0  0  0
  157.1930  212.4660  155.8370 N   0  0  0  0  0  2  0  0  0  0  0  0
  156.1160  212.1690  154.8970 C   0  0  0  0  0  2  0  0  0  0  0  0
  155.6980  210.7240  155.0510 C   0  0  0  0  0  1  0  0  0  0  0  0
  161.7010  203.2260  151.6690 O   0  0  0  0  0  0  0  0  0  0  0  0
  160.7400  202.4420  151.0640 N   0  0  0  0  0  2  0  0  0  0  0  0
  161.3670  201.7910  149.9210 C   0  0  0  0  0  2  0  0  0  0  0  0
  159.9800  202.8120  146.6890 O   0  0  0  0  0  0  0  0  0  0  0  0
  160.4360  201.8120  148.6960 C   0  0  2  0  0  0  0  0  0  0  0  0
  162.2140  202.6550  146.6340 O   0  0  0  0  0  0  0  0  0  0  0  0
  159.0270  201.4240  149.1200 C   0  0  0  0  0  1  0  0  0  0  0  0
  160.8770  200.8910  147.5540 C   0  0  1  0  0  3  0  0  0  0  0  0
  160.4110  203.1640  147.9590 C   0  0  1  0  0  3  0  0  0  0  0  0
  161.8390  203.5600  147.6440 C   0  0  0  0  0  2  0  0  0  0  0  0
  161.0220  201.9210  146.4270 C   0  0  1  0  0  3  0  0  0  0  0  0
  162.0960  200.2460  147.8020 O   0  0  0  0  0  1  0  0  0  0  0  0
  1  6  1  0  0  0  0
  1 14  2  0  0  0  0
  3 38  1  6  0  0  0
  4  8  2  0  0  0  0
  5  7  1  0  0  0  0
  6 12  1  0  0  0  0
  7  9  1  0  0  0  0
  8  5  1  0  0  0  0
 10  2  1  0  0  0  0
 10  7  2  0  0  0  0
 11  2  1  6  0  0  0
 11  9  1  0  0  0  0
 11 15  1  0  0  0  0
 11  3  1  0  0  0  0
 12 13  2  0  0  0  0
 12  8  1  0  0  0  0
 13 10  1  0  0  0  0
 14  4  1  0  0  0  0
 15  3  1  0  0  0  0
 16 21  2  0  0  0  0
 16 22  1  0  0  0  0
 18 20  2  0  0  0  0
 18 17  1  0  0  0  0
 19 17  2  0  0  0  0
 19 13  1  0  0  0  0
 21 18  1  0  0  0  0
 22 19  1  0  0  0  0
 23 24  2  0  0  0  0
 24 21  1  0  0  0  0
 26 25  2  0  0  0  0
 26 23  1  0  0  0  0
 27 28  1  0  0  0  0
 28 32  1  0  0  0  0
 29 34  2  0  0  0  0
 29 26  1  0  0  0  0
 30 36  1  6  0  0  0
 30 31  1  0  0  0  0
 31 29  1  0  0  0  0
 32 34  1  0  0  0  0
 33 27  2  0  0  0  0
 33 30  1  0  0  0  0
 36 35  1  6  0  0  0
 37 36  1  0  0  0  0
 40 39  1  6  0  0  0
 40 41  1  0  0  0  0
 40 38  1  0  0  0  0
 42 43  1  0  0  0  0
 42 41  1  0  0  0  0
 44 14  1  0  0  0  0
 45 44  1  0  0  0  0
 46 45  1  0  0  0  0
 47 52  1  0  0  0  0
 48 50  1  1  0  0  0
 48 46  1  0  0  0  0
 49 53  1  0  0  0  0
 51 55  1  1  0  0  0
 51 48  1  0  0  0  0
 52 53  1  6  0  0  0
 52 48  1  0  0  0  0
 54 49  1  1  0  0  0
 54 47  1  0  0  0  0
 54 51  1  0  0  0  0
M  END
>  <MODEL>
2

>  <REMARK>
 VINA RESULT:      -6.3      1.903      9.330
  Name = 
  13 active torsions:
  status: ('A' for Active; 'I' for Inactive)
    1  A    between atoms: C_1  and  C_5
    2  A    between atoms: C_1  and  C_48
    3  A    between atoms: C_11  and  C_38
    4  A    between atoms: O_14  and  N_23
    5  A    between atoms: O_14  and  C_46
    6  A    between atoms: C_18  and  C_44
    7  A    between atoms: C_20  and  C_24
    8  A    between atoms: C_22  and  C_37
    9  A    between atoms: N_23  and  C_37
   10  A    between atoms: N_28  and  C_35
   11  A    between atoms: N_28  and  C_48
   12  A    between atoms: C_32  and  C_39
   13  A    between atoms: N_36  and  C_38
                            x       y       z     vdW  Elec       q    Type
                         _______ _______ _______ _____ _____    ______ ____

>  <TORSDO>
F 13

$$$$
=
 OpenBabel11042421163D

 55 62  0  0  1  0  0  0  0  0999 V2000
  161.0670  208.6400  154.6710 C   0  0  0  0  0  3  0  0  0  0  0  0
  161.2920  205.1550  149.3390 C   0  0  0  0  0  2  0  0  0  0  0  0
  161.5850  202.6410  148.4300 C   0  0  1  0  0  3  0  0  0  0  0  0
  160.8160  206.2130  154.8180 C   0  0  0  0  0  3  0  0  0  0  0  0
  160.9280  204.7410  152.9740 O   0  0  0  0  0  0  0  0  0  0  0  0
  161.3710  208.5720  153.1980 C   0  0  0  0  0  2  0  0  0  0  0  0
  161.0490  204.5530  151.5960 C   0  0  0  0  0  0  0  0  0  0  0  0
  160.9750  206.0330  153.5080 C   0  0  0  0  0  0  0  0  0  0  0  0
  160.9850  203.2300  150.9260 C   0  0  0  0  0  2  0  0  0  0  0  0
  161.2240  205.5780  150.7660 C   0  0  0  0  0  0  0  0  0  0  0  0
  161.1490  203.6480  149.4810 C   0  0  1  0  0  0  0  0  0  0  0  0
  161.1880  207.1960  152.6020 C   0  0  0  0  0  0  0  0  0  0  0  0
  161.3070  206.9750  151.2690 C   0  0  0  0  0  0  0  0  0  0  0  0
  160.8320  207.5610  155.4210 C   0  0  0  0  0  0  0  0  0  0  0  0
  160.1190  203.0420  148.5560 C   0  0  0  0  0  2  0  0  0  0  0  0
  162.0580  208.9200  147.9680 C   0  0  0  0  0  3  0  0  0  0  0  0
  161.5910  209.3420  150.7520 C   0  0  0  0  0  3  0  0  0  0  0  0
  161.8170  210.4600  149.8310 C   0  0  0  0  0  0  0  0  0  0  0  0
  161.5440  208.0800  150.3090 C   0  0  0  0  0  0  0  0  0  0  0  0
  161.7650  211.6400  150.2680 O   0  0  0  0  0  0  0  0  0  0  0  0
  162.1270  210.1770  148.4100 C   0  0  0  0  0  0  0  0  0  0  0  0
  161.6010  207.7700  148.8300 C   0  0  0  0  0  2  0  0  0  0  0  0
  161.9750  212.3710  147.4040 N   0  0  0  0  0  0  0  0  0  0  0  0
  162.5540  211.2150  147.4600 C   0  0  0  0  0  3  0  0  0  0  0  0
  162.9780  214.4210  146.8950 O   0  0  0  0  0  0  0  0  0  0  0  0
  162.3770  213.3900  146.4820 C   0  0  0  0  0  0  0  0  0  0  0  0
  160.7260  214.2750  141.7820 C   0  0  0  0  0  3  0  0  0  0  0  0
  162.1040  214.4040  142.1400 N   0  0  0  0  0  2  0  0  0  0  0  0
  162.0910  213.2250  145.0440 C   0  0  0  0  0  0  0  0  0  0  0  0
  159.9590  214.1200  144.1610 C   0  0  1  0  0  3  0  0  0  0  0  0
  160.7010  212.8650  144.6120 C   0  0  0  0  0  2  0  0  0  0  0  0
  162.8630  213.2810  142.6690 C   0  0  0  0  0  2  0  0  0  0  0  0
  159.7500  214.1210  142.6790 C   0  0  0  0  0  3  0  0  0  0  0  0
  163.0600  213.4220  144.1450 C   0  0  0  0  0  3  0  0  0  0  0  0
  157.7580  213.2190  144.5720 O   0  0  0  0  0  1  0  0  0  0  0  0
  158.6180  214.2760  144.8750 C   0  0  1  0  0  3  0  0  0  0  0  0
  158.8160  214.3520  146.3120 N   0  0  0  0  0  1  0  0  0  0  0  0
  162.1950  203.3180  147.2110 C   0  0  0  0  0  2  0  0  0  0  0  0
  160.9450  201.9040  145.5530 C   0  0  0  0  0  1  0  0  0  0  0  0
  161.2060  203.3180  146.0500 C   0  0  2  0  0  3  0  0  0  0  0  0
  161.6190  204.2110  144.9610 N   0  0  0  0  0  2  0  0  0  0  0  0
  161.5350  205.6080  145.3740 C   0  0  0  0  0  2  0  0  0  0  0  0
  160.1430  206.1320  145.0990 C   0  0  0  0  0  1  0  0  0  0  0  0
  160.5920  207.7310  156.7870 O   0  0  0  0  0  0  0  0  0  0  0  0
  159.7650  208.7280  157.2610 N   0  0  0  0  0  2  0  0  0  0  0  0
  159.3550  209.5330  156.1160 C   0  0  0  0  0  2  0  0  0  0  0  0
  160.1330  212.9830  155.1640 O   0  0  0  0  0  0  0  0  0  0  0  0
  159.9330  210.9550  156.2070 C   0  0  2  0  0  0  0  0  0  0  0  0
  157.9900  212.4630  154.7670 O   0  0  0  0  0  0  0  0  0  0  0  0
  161.2530  210.9210  156.9640 C   0  0  0  0  0  1  0  0  0  0  0  0
  159.0050  211.9710  156.8820 C   0  0  1  0  0  3  0  0  0  0  0  0
  160.1290  211.6340  154.8390 C   0  0  1  0  0  3  0  0  0  0  0  0
  158.8200  211.5590  154.0800 C   0  0  0  0  0  2  0  0  0  0  0  0
  158.8640  212.9920  155.7460 C   0  0  1  0  0  3  0  0  0  0  0  0
  157.7590  211.4350  157.2320 O   0  0  0  0  0  1  0  0  0  0  0  0
  1 14  2  0  0  0  0
  2 11  1  0  0  0  0
  2 10  1  0  0  0  0
  3 38  1  6  0  0  0
  3 15  1  0  0  0  0
  3 11  1  0  0  0  0
  4 14  1  0  0  0  0
  5  8  1  0  0  0  0
  6  1  1  0  0  0  0
  7  5  1  0  0  0  0
  8  4  2  0  0  0  0
  9  7  1  0  0  0  0
 10 13  1  0  0  0  0
 10  7  2  0  0  0  0
 11 15  1  6  0  0  0
 11  9  1  0  0  0  0
 12  6  1  0  0  0  0
 12  8  1  0  0  0  0
 13 12  2  0  0  0  0
 14 44  1  0  0  0  0
 16 21  2  0  0  0  0
 16 22  1  0  0  0  0
 18 20  2  0  0  0  0
 18 17  1  0  0  0  0
 19 17  2  0  0  0  0
 19 13  1  0  0  0  0
 21 18  1  0  0  0  0
 22 19  1  0  0  0  0
 23 24  2  0  0  0  0
 24 21  1  0  0  0  0
 26 25  2  0  0  0  0
 26 23  1  0  0  0  0
 27 28  1  0  0  0  0
 27 33  2  0  0  0  0
 28 32  1  0  0  0  0
 29 26  1  0  0  0  0
 30 31  1  0  0  0  0
 30 36  1  1  0  0  0
 31 29  1  0  0  0  0
 32 34  1  0  0  0  0
 33 30  1  0  0  0  0
 34 29  2  0  0  0  0
 36 35  1  1  0  0  0
 36 37  1  0  0  0  0
 40 39  1  6  0  0  0
 40 38  1  0  0  0  0
 41 42  1  0  0  0  0
 41 40  1  0  0  0  0
 43 42  1  0  0  0  0
 44 45  1  0  0  0  0
 46 48  1  0  0  0  0
 46 45  1  0  0  0  0
 47 54  1  0  0  0  0
 48 51  1  0  0  0  0
 48 50  1  1  0  0  0
 51 55  1  6  0  0  0
 52 53  1  6  0  0  0
 52 47  1  0  0  0  0
 52 48  1  0  0  0  0
 53 49  1  0  0  0  0
 54 49  1  6  0  0  0
 54 51  1  0  0  0  0
M  END
>  <MODEL>
3

>  <REMARK>
 VINA RESULT:      -4.8      2.553     11.209
  Name = 
  13 active torsions:
  status: ('A' for Active; 'I' for Inactive)
    1  A    between atoms: C_1  and  C_5
    2  A    between atoms: C_1  and  C_48
    3  A    between atoms: C_11  and  C_38
    4  A    between atoms: O_14  and  N_23
    5  A    between atoms: O_14  and  C_46
    6  A    between atoms: C_18  and  C_44
    7  A    between atoms: C_20  and  C_24
    8  A    between atoms: C_22  and  C_37
    9  A    between atoms: N_23  and  C_37
   10  A    between atoms: N_28  and  C_35
   11  A    between atoms: N_28  and  C_48
   12  A    between atoms: C_32  and  C_39
   13  A    between atoms: N_36  and  C_38
                            x       y       z     vdW  Elec       q    Type
                         _______ _______ _______ _____ _____    ______ ____

>  <TORSDO>
F 13

$$$$
=
 OpenBabel11042421163D

 55 62  0  0  1  0  0  0  0  0999 V2000
  161.4130  209.2220  149.7120 C   0  0  0  0  0  3  0  0  0  0  0  0
  161.1980  203.0260  148.2350 C   0  0  0  0  0  2  0  0  0  0  0  0
  161.4560  200.5610  149.2790 C   0  0  1  0  0  3  0  0  0  0  0  0
  161.2280  207.5720  151.5060 C   0  0  0  0  0  3  0  0  0  0  0  0
  161.1930  205.2330  151.1750 O   0  0  0  0  0  0  0  0  0  0  0  0
  161.5750  208.1490  148.6690 C   0  0  0  0  0  2  0  0  0  0  0  0
  161.1860  204.1470  150.2990 C   0  0  0  0  0  0  0  0  0  0  0  0
  161.2650  206.5360  150.6700 C   0  0  0  0  0  0  0  0  0  0  0  0
  161.0860  202.7300  150.7290 C   0  0  0  0  0  2  0  0  0  0  0  0
  161.2590  204.3140  148.9810 C   0  0  0  0  0  0  0  0  0  0  0  0
  161.1020  202.0350  149.3840 C   0  0  1  0  0  0  0  0  0  0  0  0
  161.3650  206.7490  149.1990 C   0  0  0  0  0  0  0  0  0  0  0  0
  161.3610  205.6700  148.3780 C   0  0  0  0  0  0  0  0  0  0  0  0
  161.2740  208.9640  151.0150 C   0  0  0  0  0  0  0  0  0  0  0  0
  160.0010  201.0130  149.2190 C   0  0  0  0  0  2  0  0  0  0  0  0
  160.5140  206.4360  144.6450 C   0  0  0  0  0  3  0  0  0  0  0  0
  162.5860  205.3670  146.2900 C   0  0  0  0  0  3  0  0  0  0  0  0
  162.7410  205.4870  144.8370 C   0  0  0  0  0  0  0  0  0  0  0  0
  161.4810  205.8030  146.9070 C   0  0  0  0  0  0  0  0  0  0  0  0
  163.8300  205.1490  144.3040 O   0  0  0  0  0  0  0  0  0  0  0  0
  161.6050  205.9810  144.0260 C   0  0  0  0  0  0  0  0  0  0  0  0
  160.4050  206.5460  146.1450 C   0  0  0  0  0  2  0  0  0  0  0  0
  162.0110  206.9630  141.8530 N   0  0  0  0  0  0  0  0  0  0  0  0
  161.5990  205.9570  142.5550 C   0  0  0  0  0  3  0  0  0  0  0  0
  162.6970  206.1070  139.7880 O   0  0  0  0  0  0  0  0  0  0  0  0
  162.0080  206.9550  140.4210 C   0  0  0  0  0  0  0  0  0  0  0  0
  160.6310  211.0710  137.8200 C   0  0  0  0  0  3  0  0  0  0  0  0
  160.7920  209.7960  137.1950 N   0  0  0  0  0  2  0  0  0  0  0  0
  161.1890  207.9400  139.6900 C   0  0  0  0  0  0  0  0  0  0  0  0
  161.7280  210.3410  139.9500 C   0  0  1  0  0  3  0  0  0  0  0  0
  160.7910  209.2130  140.3740 C   0  0  0  0  0  2  0  0  0  0  0  0
  160.0070  208.6400  137.6040 C   0  0  0  0  0  2  0  0  0  0  0  0
  161.0240  211.3260  139.0700 C   0  0  0  0  0  3  0  0  0  0  0  0
  160.8320  207.7010  138.4240 C   0  0  0  0  0  3  0  0  0  0  0  0
  163.0930  212.1630  140.7540 O   0  0  0  0  0  1  0  0  0  0  0  0
  162.3340  211.0610  141.1530 C   0  0  1  0  0  3  0  0  0  0  0  0
  161.2880  211.4880  142.0660 N   0  0  0  0  0  1  0  0  0  0  0  0
  161.9320  200.1870  147.8830 C   0  0  0  0  0  2  0  0  0  0  0  0
  160.7530  199.1140  145.9420 C   0  0  0  0  0  1  0  0  0  0  0  0
  160.7900  200.3120  146.8790 C   0  0  2  0  0  3  0  0  0  0  0  0
  160.8260  201.5800  146.1430 N   0  0  0  0  0  2  0  0  0  0  0  0
  160.0370  201.4920  144.9170 C   0  0  0  0  0  2  0  0  0  0  0  0
  159.5810  202.8770  144.5120 C   0  0  0  0  0  1  0  0  0  0  0  0
  161.1630  210.0350  151.9040 O   0  0  0  0  0  0  0  0  0  0  0  0
  160.4870  209.9180  153.1010 N   0  0  0  0  0  2  0  0  0  0  0  0
  161.1880  210.7430  154.0780 C   0  0  0  0  0  2  0  0  0  0  0  0
  160.0300  208.9960  157.0820 O   0  0  0  0  0  0  0  0  0  0  0  0
  160.6140  210.5330  155.4900 C   0  0  2  0  0  0  0  0  0  0  0  0
  161.9650  208.1640  156.3170 O   0  0  0  0  0  0  0  0  0  0  0  0
  159.5930  211.6210  155.7910 C   0  0  0  0  0  1  0  0  0  0  0  0
  161.6670  210.5250  156.6030 C   0  0  1  0  0  3  0  0  0  0  0  0
  159.9830  209.1450  155.7030 C   0  0  1  0  0  3  0  0  0  0  0  0
  160.9980  208.0950  155.2990 C   0  0  0  0  0  2  0  0  0  0  0  0
  161.4150  209.1310  157.1920 C   0  0  1  0  0  3  0  0  0  0  0  0
  162.9790  210.6380  156.1260 O   0  0  0  0  0  1  0  0  0  0  0  0
  1 14  2  0  0  0  0
  2 10  1  0  0  0  0
  3 38  1  6  0  0  0
  3 11  1  0  0  0  0
  6 12  1  0  0  0  0
  6  1  1  0  0  0  0
  7  9  1  0  0  0  0
  7  5  1  0  0  0  0
  8  5  1  0  0  0  0
  8  4  2  0  0  0  0
 10  7  2  0  0  0  0
 11  2  1  6  0  0  0
 11  9  1  0  0  0  0
 12  8  1  0  0  0  0
 13 10  1  0  0  0  0
 13 12  2  0  0  0  0
 14  4  1  0  0  0  0
 14 44  1  0  0  0  0
 15  3  1  0  0  0  0
 15 11  1  0  0  0  0
 16 22  1  0  0  0  0
 17 19  2  0  0  0  0
 18 17  1  0  0  0  0
 19 13  1  0  0  0  0
 20 18  2  0  0  0  0
 21 16  2  0  0  0  0
 21 18  1  0  0  0  0
 22 19  1  0  0  0  0
 23 24  2  0  0  0  0
 24 21  1  0  0  0  0
 25 26  2  0  0  0  0
 26 23  1  0  0  0  0
 27 33  2  0  0  0  0
 28 32  1  0  0  0  0
 28 27  1  0  0  0  0
 29 31  1  0  0  0  0
 29 26  1  0  0  0  0
 30 31  1  0  0  0  0
 30 36  1  1  0  0  0
 32 34  1  0  0  0  0
 33 30  1  0  0  0  0
 34 29  2  0  0  0  0
 36 35  1  6  0  0  0
 36 37  1  0  0  0  0
 40 39  1  6  0  0  0
 40 38  1  0  0  0  0
 41 40  1  0  0  0  0
 42 41  1  0  0  0  0
 43 42  1  0  0  0  0
 44 45  1  0  0  0  0
 45 46  1  0  0  0  0
 46 48  1  0  0  0  0
 47 54  1  0  0  0  0
 48 52  1  0  0  0  0
 48 50  1  1  0  0  0
 48 51  1  0  0  0  0
 51 55  1  6  0  0  0
 51 54  1  0  0  0  0
 52 53  1  6  0  0  0
 52 47  1  0  0  0  0
 53 49  1  0  0  0  0
 54 49  1  6  0  0  0
M  END
>  <MODEL>
4

>  <REMARK>
 VINA RESULT:      -4.3      3.100     11.511
  Name = 
  13 active torsions:
  status: ('A' for Active; 'I' for Inactive)
    1  A    between atoms: C_1  and  C_5
    2  A    between atoms: C_1  and  C_48
    3  A    between atoms: C_11  and  C_38
    4  A    between atoms: O_14  and  N_23
    5  A    between atoms: O_14  and  C_46
    6  A    between atoms: C_18  and  C_44
    7  A    between atoms: C_20  and  C_24
    8  A    between atoms: C_22  and  C_37
    9  A    between atoms: N_23  and  C_37
   10  A    between atoms: N_28  and  C_35
   11  A    between atoms: N_28  and  C_48
   12  A    between atoms: C_32  and  C_39
   13  A    between atoms: N_36  and  C_38
                            x       y       z     vdW  Elec       q    Type
                         _______ _______ _______ _____ _____    ______ ____

>  <TORSDO>
F 13

$$$$
=
 OpenBabel11042421163D

 55 62  0  0  1  0  0  0  0  0999 V2000
  161.0160  204.7650  150.1830 C   0  0  0  0  0  3  0  0  0  0  0  0
  161.4260  209.6300  154.2800 C   0  0  0  0  0  2  0  0  0  0  0  0
  160.8320  210.3730  156.7950 C   0  0  1  0  0  3  0  0  0  0  0  0
  160.6770  204.3510  152.5680 C   0  0  0  0  0  3  0  0  0  0  0  0
  160.7280  206.0200  154.2380 O   0  0  0  0  0  0  0  0  0  0  0  0
  161.1000  206.2520  150.3990 C   0  0  0  0  0  2  0  0  0  0  0  0
  160.9320  207.3560  154.5920 C   0  0  0  0  0  0  0  0  0  0  0  0
  160.8300  205.6320  152.8980 C   0  0  0  0  0  0  0  0  0  0  0  0
  160.8740  207.8670  155.9840 C   0  0  0  0  0  2  0  0  0  0  0  0
  161.2110  208.2830  153.6800 C   0  0  0  0  0  0  0  0  0  0  0  0
  161.1900  209.3290  155.7510 C   0  0  1  0  0  0  0  0  0  0  0  0
  161.1230  206.6540  151.8560 C   0  0  0  0  0  0  0  0  0  0  0  0
  161.3100  207.9440  152.2360 C   0  0  0  0  0  0  0  0  0  0  0  0
  160.8030  203.8910  151.1700 C   0  0  0  0  0  0  0  0  0  0  0  0
  162.2650  209.8680  156.6650 C   0  0  0  0  0  2  0  0  0  0  0  0
  161.5850  211.4680  150.5800 C   0  0  0  0  0  3  0  0  0  0  0  0
  162.0020  208.7010  150.0220 C   0  0  0  0  0  3  0  0  0  0  0  0
  162.2860  209.7380  149.0260 C   0  0  0  0  0  0  0  0  0  0  0  0
  161.5830  209.0190  151.2530 C   0  0  0  0  0  0  0  0  0  0  0  0
  162.7640  209.4070  147.9100 O   0  0  0  0  0  0  0  0  0  0  0  0
  161.9810  211.1520  149.3460 C   0  0  0  0  0  0  0  0  0  0  0  0
  161.5030  210.4620  151.7000 C   0  0  0  0  0  2  0  0  0  0  0  0
  161.2840  212.2570  147.3100 N   0  0  0  0  0  0  0  0  0  0  0  0
  162.0520  212.2330  148.3510 C   0  0  0  0  0  3  0  0  0  0  0  0
  161.7580  214.4490  146.6520 O   0  0  0  0  0  0  0  0  0  0  0  0
  161.3440  213.3000  146.3320 C   0  0  0  0  0  0  0  0  0  0  0  0
  159.4260  213.8830  141.6860 C   0  0  0  0  0  3  0  0  0  0  0  0
  160.8340  213.8850  141.9320 N   0  0  0  0  0  2  0  0  0  0  0  0
  160.9260  213.0220  144.9440 C   0  0  0  0  0  0  0  0  0  0  0  0
  158.8420  214.0660  144.1140 C   0  0  1  0  0  3  0  0  0  0  0  0
  159.4750  212.7860  144.6510 C   0  0  0  0  0  2  0  0  0  0  0  0
  161.5060  212.7410  142.5310 C   0  0  0  0  0  2  0  0  0  0  0  0
  158.5150  213.9380  142.6590 C   0  0  0  0  0  3  0  0  0  0  0  0
  161.8360  213.0090  143.9650 C   0  0  0  0  0  3  0  0  0  0  0  0
  156.4340  214.2510  144.1350 O   0  0  0  0  0  1  0  0  0  0  0  0
  157.5880  214.4520  144.8970 C   0  0  1  0  0  3  0  0  0  0  0  0
  157.5040  213.6860  146.1280 N   0  0  0  0  0  1  0  0  0  0  0  0
  160.7270  211.7670  156.1940 C   0  0  0  0  0  2  0  0  0  0  0  0
  159.0570  213.4900  155.4490 C   0  0  0  0  0  1  0  0  0  0  0  0
  159.3250  212.0050  155.6420 C   0  0  2  0  0  3  0  0  0  0  0  0
  158.2850  211.3650  156.4560 N   0  0  0  0  0  2  0  0  0  0  0  0
  157.0080  211.3470  155.7490 C   0  0  0  0  0  2  0  0  0  0  0  0
  155.8840  211.5760  156.7350 C   0  0  0  0  0  1  0  0  0  0  0  0
  160.7090  202.5330  150.8580 O   0  0  0  0  0  0  0  0  0  0  0  0
  161.8210  201.7160  150.8260 N   0  0  0  0  0  2  0  0  0  0  0  0
  162.1000  201.4160  149.4270 C   0  0  0  0  0  2  0  0  0  0  0  0
  159.6390  202.3410  146.8770 O   0  0  0  0  0  0  0  0  0  0  0  0
  160.8030  201.3850  148.6010 C   0  0  2  0  0  0  0  0  0  0  0  0
  161.7200  202.2710  146.0520 O   0  0  0  0  0  0  0  0  0  0  0  0
  159.6450  200.9480  149.4860 C   0  0  0  0  0  1  0  0  0  0  0  0
  160.8580  200.4680  147.3750 C   0  0  1  0  0  3  0  0  0  0  0  0
  160.4680  202.7260  147.9210 C   0  0  1  0  0  3  0  0  0  0  0  0
  161.6810  203.1730  147.1300 C   0  0  0  0  0  2  0  0  0  0  0  0
  160.5610  201.4880  146.2690 C   0  0  1  0  0  3  0  0  0  0  0  0
  162.1130  199.8740  147.1840 O   0  0  0  0  0  1  0  0  0  0  0  0
  1  6  1  0  0  0  0
  1 14  2  0  0  0  0
  3 38  1  6  0  0  0
  4  8  2  0  0  0  0
  5  7  1  0  0  0  0
  6 12  1  0  0  0  0
  7  9  1  0  0  0  0
  8  5  1  0  0  0  0
 10  2  1  0  0  0  0
 10  7  2  0  0  0  0
 11  2  1  6  0  0  0
 11  9  1  0  0  0  0
 11 15  1  0  0  0  0
 11  3  1  0  0  0  0
 12 13  2  0  0  0  0
 12  8  1  0  0  0  0
 13 10  1  0  0  0  0
 14  4  1  0  0  0  0
 15  3  1  0  0  0  0
 16 22  1  0  0  0  0
 17 19  2  0  0  0  0
 18 21  1  0  0  0  0
 18 17  1  0  0  0  0
 19 22  1  0  0  0  0
 19 13  1  0  0  0  0
 20 18  2  0  0  0  0
 21 16  2  0  0  0  0
 23 24  2  0  0  0  0
 24 21  1  0  0  0  0
 26 25  2  0  0  0  0
 26 23  1  0  0  0  0
 27 28  1  0  0  0  0
 27 33  2  0  0  0  0
 28 32  1  0  0  0  0
 29 26  1  0  0  0  0
 30 31  1  0  0  0  0
 30 36  1  1  0  0  0
 31 29  1  0  0  0  0
 32 34  1  0  0  0  0
 33 30  1  0  0  0  0
 34 29  2  0  0  0  0
 36 35  1  6  0  0  0
 36 37  1  0  0  0  0
 40 39  1  1  0  0  0
 40 38  1  0  0  0  0
 40 41  1  0  0  0  0
 42 41  1  0  0  0  0
 42 43  1  0  0  0  0
 44 14  1  0  0  0  0
 45 44  1  0  0  0  0
 46 45  1  0  0  0  0
 47 52  1  0  0  0  0
 48 46  1  0  0  0  0
 48 50  1  1  0  0  0
 49 53  1  0  0  0  0
 51 55  1  6  0  0  0
 51 48  1  0  0  0  0
 52 53  1  6  0  0  0
 52 48  1  0  0  0  0
 54 49  1  1  0  0  0
 54 47  1  0  0  0  0
 54 51  1  0  0  0  0
M  END
>  <MODEL>
5

>  <REMARK>
 VINA RESULT:      -4.2      2.313      9.527
  Name = 
  13 active torsions:
  status: ('A' for Active; 'I' for Inactive)
    1  A    between atoms: C_1  and  C_5
    2  A    between atoms: C_1  and  C_48
    3  A    between atoms: C_11  and  C_38
    4  A    between atoms: O_14  and  N_23
    5  A    between atoms: O_14  and  C_46
    6  A    between atoms: C_18  and  C_44
    7  A    between atoms: C_20  and  C_24
    8  A    between atoms: C_22  and  C_37
    9  A    between atoms: N_23  and  C_37
   10  A    between atoms: N_28  and  C_35
   11  A    between atoms: N_28  and  C_48
   12  A    between atoms: C_32  and  C_39
   13  A    between atoms: N_36  and  C_38
                            x       y       z     vdW  Elec       q    Type
                         _______ _______ _______ _____ _____    ______ ____

>  <TORSDO>
F 13

$$$$
