=
 OpenBabel11042421083D

 28 31  0  0  1  0  0  0  0  0999 V2000
  161.9180  209.3520  151.4980 C   0  0  0  0  0  0  0  0  0  0  0  0
  161.7450  209.2740  149.0910 C   0  0  0  0  0  3  0  0  0  0  0  0
  162.0210  210.0820  152.6740 O   0  0  0  0  0  1  0  0  0  0  0  0
  161.7840  207.2000  150.3660 C   0  0  0  0  0  0  0  0  0  0  0  0
  161.7320  207.8720  149.1160 C   0  0  0  0  0  0  0  0  0  0  0  0
  161.8350  210.0100  150.2730 C   0  0  0  0  0  3  0  0  0  0  0  0
  161.8860  207.9570  151.5440 C   0  0  0  0  0  3  0  0  0  0  0  0
  161.2470  204.2190  152.3860 C   0  0  0  0  0  3  0  0  0  0  0  0
  161.0170  203.5630  149.3680 C   0  0  0  0  0  0  0  0  0  0  0  0
  160.5310  201.2520  150.2180 C   0  0  2  0  0  3  0  0  0  0  0  0
  161.2830  201.5570  147.8730 C   0  0  0  0  0  2  0  0  0  0  0  0
  160.7230  202.7440  150.4180 C   0  0  0  0  0  0  0  0  0  0  0  0
  160.2960  200.8400  148.7700 C   0  0  0  0  0  2  0  0  0  0  0  0
  159.4840  200.7830  150.9930 F   0  0  0  0  0  0  0  0  0  0  0  0
  161.1630  205.0330  149.4580 C   0  0  0  0  0  3  0  0  0  0  0  0
  160.6020  203.1990  151.8240 C   0  0  0  0  0  3  0  0  0  0  0  0
  161.6440  205.7330  150.4900 C   0  0  0  0  0  0  0  0  0  0  0  0
  162.2550  205.0430  151.6650 C   0  0  0  0  0  2  0  0  0  0  0  0
  160.9980  203.0460  147.9540 C   0  0  0  0  0  2  0  0  0  0  0  0
  161.5690  205.1630  145.8240 N   0  0  0  0  0  0  0  0  0  0  0  0
  160.5680  206.9100  147.1970 C   0  0  0  0  0  3  0  0  0  0  0  0
  161.7280  207.1640  147.8190 C   0  0  0  0  0  0  0  0  0  0  0  0
  160.5250  206.1830  145.8830 C   0  0  0  0  0  2  0  0  0  0  0  0
  163.7770  204.5770  146.3600 O   0  0  0  0  0  0  0  0  0  0  0  0
  162.8320  205.4030  146.4650 C   0  0  0  0  0  0  0  0  0  0  0  0
  163.0330  206.6650  147.2490 C   0  0  0  0  0  2  0  0  0  0  0  0
  160.0960  204.0540  144.3920 O   0  0  0  0  0  1  0  0  0  0  0  0
  161.3240  203.9560  145.0490 C   0  0  0  0  0  2  0  0  0  0  0  0
  1  7  1  0  0  0  0
  1  3  1  0  0  0  0
  2  5  2  0  0  0  0
  2  6  1  0  0  0  0
  4 17  1  0  0  0  0
  4  7  2  0  0  0  0
  5  4  1  0  0  0  0
  6  1  2  0  0  0  0
  9 15  1  0  0  0  0
  9 12  2  0  0  0  0
 10 12  1  0  0  0  0
 10 14  1  1  0  0  0
 11 19  1  0  0  0  0
 11 13  1  0  0  0  0
 12 16  1  0  0  0  0
 13 10  1  0  0  0  0
 15 17  2  0  0  0  0
 16  8  2  0  0  0  0
 17 18  1  0  0  0  0
 18  8  1  0  0  0  0
 19  9  1  0  0  0  0
 20 23  1  0  0  0  0
 20 25  1  0  0  0  0
 21 22  2  0  0  0  0
 22  5  1  0  0  0  0
 23 21  1  0  0  0  0
 24 25  2  0  0  0  0
 25 26  1  0  0  0  0
 26 22  1  0  0  0  0
 27 28  1  0  0  0  0
 28 20  1  0  0  0  0
M  END
>  <MODEL>
1

>  <REMARK>
 VINA RESULT:      -9.1      0.000      0.000
  Name = 
  3 active torsions:
  status: ('A' for Active; 'I' for Inactive)
    1  A    between atoms: N_8  and  C_12
    2  A    between atoms: C_15  and  C_23
    3  A    between atoms: C_17  and  C_21
                            x       y       z     vdW  Elec       q    Type
                         _______ _______ _______ _____ _____    ______ ____

>  <TORSDO>
F 3

$$$$
=
 OpenBabel11042421083D

 28 31  0  0  1  0  0  0  0  0999 V2000
  161.8750  210.8670  148.6340 C   0  0  0  0  0  0  0  0  0  0  0  0
  161.6890  211.3630  150.9900 C   0  0  0  0  0  3  0  0  0  0  0  0
  161.9810  211.2960  147.3190 O   0  0  0  0  0  1  0  0  0  0  0  0
  161.7370  209.0450  150.2450 C   0  0  0  0  0  0  0  0  0  0  0  0
  161.6380  209.9950  151.2960 C   0  0  0  0  0  0  0  0  0  0  0  0
  161.8090  211.7970  149.6700 C   0  0  0  0  0  3  0  0  0  0  0  0
  161.8460  209.5010  148.9210 C   0  0  0  0  0  3  0  0  0  0  0  0
  162.2090  206.2250  152.4980 C   0  0  0  0  0  3  0  0  0  0  0  0
  161.1530  205.2740  149.7470 C   0  0  0  0  0  0  0  0  0  0  0  0
  161.2350  203.0150  150.8370 C   0  0  2  0  0  3  0  0  0  0  0  0
  161.1950  203.1740  148.3610 C   0  0  0  0  0  2  0  0  0  0  0  0
  161.2950  204.5300  150.8810 C   0  0  0  0  0  0  0  0  0  0  0  0
  160.6230  202.4500  149.5600 C   0  0  0  0  0  2  0  0  0  0  0  0
  160.5400  202.5180  151.9250 F   0  0  0  0  0  0  0  0  0  0  0  0
  161.1390  206.7530  149.7020 C   0  0  0  0  0  3  0  0  0  0  0  0
  161.5530  205.0990  152.2260 C   0  0  0  0  0  3  0  0  0  0  0  0
  161.8220  207.5890  150.4900 C   0  0  0  0  0  0  0  0  0  0  0  0
  162.8400  207.0740  151.4530 C   0  0  0  0  0  2  0  0  0  0  0  0
  160.7690  204.6300  148.4420 C   0  0  0  0  0  2  0  0  0  0  0  0
  160.5720  209.5990  155.4080 N   0  0  0  0  0  0  0  0  0  0  0  0
  160.2830  208.9950  153.0650 C   0  0  0  0  0  3  0  0  0  0  0  0
  161.4160  209.6160  152.7060 C   0  0  0  0  0  0  0  0  0  0  0  0
  160.0190  208.6050  154.4900 C   0  0  0  0  0  2  0  0  0  0  0  0
  162.3340  211.0750  155.8760 O   0  0  0  0  0  0  0  0  0  0  0  0
  161.7930  210.2750  155.0680 C   0  0  0  0  0  0  0  0  0  0  0  0
  162.4400  210.0070  153.7430 C   0  0  0  0  0  2  0  0  0  0  0  0
  158.9680  210.8490  156.5540 O   0  0  0  0  0  1  0  0  0  0  0  0
  159.9050  209.8220  156.6820 C   0  0  0  0  0  2  0  0  0  0  0  0
  1  7  2  0  0  0  0
  1  6  1  0  0  0  0
  2  5  1  0  0  0  0
  3  1  1  0  0  0  0
  4 17  1  0  0  0  0
  4  5  2  0  0  0  0
  5 22  1  0  0  0  0
  6  2  2  0  0  0  0
  7  4  1  0  0  0  0
  9 12  2  0  0  0  0
 10 12  1  0  0  0  0
 10 14  1  1  0  0  0
 11 19  1  0  0  0  0
 11 13  1  0  0  0  0
 12 16  1  0  0  0  0
 13 10  1  0  0  0  0
 15  9  1  0  0  0  0
 15 17  2  0  0  0  0
 16  8  2  0  0  0  0
 17 18  1  0  0  0  0
 18  8  1  0  0  0  0
 19  9  1  0  0  0  0
 20 28  1  0  0  0  0
 21 23  1  0  0  0  0
 22 21  2  0  0  0  0
 22 26  1  0  0  0  0
 23 20  1  0  0  0  0
 25 20  1  0  0  0  0
 25 24  2  0  0  0  0
 26 25  1  0  0  0  0
 27 28  1  0  0  0  0
M  END
>  <MODEL>
2

>  <REMARK>
 VINA RESULT:      -8.2      3.336      6.082
  Name = 
  3 active torsions:
  status: ('A' for Active; 'I' for Inactive)
    1  A    between atoms: N_8  and  C_12
    2  A    between atoms: C_15  and  C_23
    3  A    between atoms: C_17  and  C_21
                            x       y       z     vdW  Elec       q    Type
                         _______ _______ _______ _____ _____    ______ ____

>  <TORSDO>
F 3

$$$$
=
 OpenBabel11042421083D

 28 31  0  0  1  0  0  0  0  0999 V2000
  160.0490  207.5500  155.5690 C   0  0  0  0  0  0  0  0  0  0  0  0
  160.5080  209.5370  154.2750 C   0  0  0  0  0  3  0  0  0  0  0  0
  159.6130  206.9530  156.7430 O   0  0  0  0  0  1  0  0  0  0  0  0
  160.9150  207.3440  153.3020 C   0  0  0  0  0  0  0  0  0  0  0  0
  160.9520  208.7590  153.1970 C   0  0  0  0  0  0  0  0  0  0  0  0
  160.0570  208.9390  155.4530 C   0  0  0  0  0  3  0  0  0  0  0  0
  160.4690  206.7590  154.4980 C   0  0  0  0  0  3  0  0  0  0  0  0
  162.0960  204.1510  152.0110 C   0  0  0  0  0  3  0  0  0  0  0  0
  160.8140  205.8450  149.7580 C   0  0  0  0  0  0  0  0  0  0  0  0
  161.3700  203.8430  148.3510 C   0  0  2  0  0  3  0  0  0  0  0  0
  160.9610  206.0300  147.2530 C   0  0  0  0  0  2  0  0  0  0  0  0
  161.2180  204.5440  149.6880 C   0  0  0  0  0  0  0  0  0  0  0  0
  160.6720  204.5450  147.1930 C   0  0  0  0  0  2  0  0  0  0  0  0
  160.9120  202.5390  148.4260 F   0  0  0  0  0  0  0  0  0  0  0  0
  160.5820  206.5910  151.0150 C   0  0  0  0  0  3  0  0  0  0  0  0
  161.5770  203.7170  150.8640 C   0  0  0  0  0  3  0  0  0  0  0  0
  161.2410  206.4500  152.1690 C   0  0  0  0  0  0  0  0  0  0  0  0
  162.4480  205.5750  152.2600 C   0  0  0  0  0  2  0  0  0  0  0  0
  160.3460  206.5780  148.5290 C   0  0  0  0  0  2  0  0  0  0  0  0
  161.8740  210.5150  149.4190 N   0  0  0  0  0  0  0  0  0  0  0  0
  161.0550  210.6910  151.7080 C   0  0  0  0  0  3  0  0  0  0  0  0
  161.5010  209.4660  152.0220 C   0  0  0  0  0  0  0  0  0  0  0  0
  161.5810  211.4360  150.5150 C   0  0  0  0  0  2  0  0  0  0  0  0
  162.7060  208.4140  148.7880 O   0  0  0  0  0  0  0  0  0  0  0  0
  162.3680  209.1990  149.7140 C   0  0  0  0  0  0  0  0  0  0  0  0
  162.5050  208.7640  151.1420 C   0  0  0  0  0  2  0  0  0  0  0  0
  162.4400  212.1720  147.8770 O   0  0  0  0  0  1  0  0  0  0  0  0
  161.7260  210.9860  148.0510 C   0  0  0  0  0  2  0  0  0  0  0  0
  1  3  1  0  0  0  0
  2  6  2  0  0  0  0
  4  7  1  0  0  0  0
  5  4  2  0  0  0  0
  5  2  1  0  0  0  0
  6  1  1  0  0  0  0
  7  1  2  0  0  0  0
  8 18  1  0  0  0  0
  9 15  1  0  0  0  0
 10 14  1  1  0  0  0
 10 12  1  0  0  0  0
 11 19  1  0  0  0  0
 12  9  2  0  0  0  0
 12 16  1  0  0  0  0
 13 11  1  0  0  0  0
 13 10  1  0  0  0  0
 15 17  2  0  0  0  0
 16  8  2  0  0  0  0
 17 18  1  0  0  0  0
 17  4  1  0  0  0  0
 19  9  1  0  0  0  0
 20 25  1  0  0  0  0
 20 23  1  0  0  0  0
 21 22  2  0  0  0  0
 22  5  1  0  0  0  0
 23 21  1  0  0  0  0
 24 25  2  0  0  0  0
 25 26  1  0  0  0  0
 26 22  1  0  0  0  0
 27 28  1  0  0  0  0
 28 20  1  0  0  0  0
M  END
>  <MODEL>
3

>  <REMARK>
 VINA RESULT:      -8.2      2.851      4.659
  Name = 
  3 active torsions:
  status: ('A' for Active; 'I' for Inactive)
    1  A    between atoms: N_8  and  C_12
    2  A    between atoms: C_15  and  C_23
    3  A    between atoms: C_17  and  C_21
                            x       y       z     vdW  Elec       q    Type
                         _______ _______ _______ _____ _____    ______ ____

>  <TORSDO>
F 3

$$$$
=
 OpenBabel11042421083D

 28 31  0  0  1  0  0  0  0  0999 V2000
  160.7230  203.0600  151.5490 C   0  0  0  0  0  0  0  0  0  0  0  0
  161.0370  202.9260  149.1580 C   0  0  0  0  0  3  0  0  0  0  0  0
  160.4590  202.4450  152.7640 O   0  0  0  0  0  1  0  0  0  0  0  0
  161.2070  205.0810  150.2780 C   0  0  0  0  0  0  0  0  0  0  0  0
  161.2370  204.3120  149.0850 C   0  0  0  0  0  0  0  0  0  0  0  0
  160.7840  202.3030  150.3800 C   0  0  0  0  0  3  0  0  0  0  0  0
  160.9400  204.4380  151.4980 C   0  0  0  0  0  3  0  0  0  0  0  0
  162.4940  208.0800  148.6630 C   0  0  0  0  0  3  0  0  0  0  0  0
  161.0550  208.7850  151.3130 C   0  0  0  0  0  0  0  0  0  0  0  0
  161.6570  211.1330  150.6620 C   0  0  2  0  0  3  0  0  0  0  0  0
  161.1070  210.6260  153.0270 C   0  0  0  0  0  2  0  0  0  0  0  0
  161.5180  209.6510  150.3660 C   0  0  0  0  0  0  0  0  0  0  0  0
  160.8870  211.6010  151.8910 C   0  0  0  0  0  2  0  0  0  0  0  0
  161.2640  211.8900  149.5710 F   0  0  0  0  0  0  0  0  0  0  0  0
  160.8310  207.3380  151.0980 C   0  0  0  0  0  3  0  0  0  0  0  0
  161.9560  209.2470  149.0090 C   0  0  0  0  0  3  0  0  0  0  0  0
  161.5360  206.5230  150.3070 C   0  0  0  0  0  0  0  0  0  0  0  0
  162.7850  206.9950  149.6390 C   0  0  0  0  0  2  0  0  0  0  0  0
  160.5110  209.2880  152.6230 C   0  0  0  0  0  2  0  0  0  0  0  0
  161.3510  205.3600  144.9510 N   0  0  0  0  0  0  0  0  0  0  0  0
  160.3990  205.5920  147.1820 C   0  0  0  0  0  3  0  0  0  0  0  0
  161.4070  204.9090  147.7440 C   0  0  0  0  0  0  0  0  0  0  0  0
  160.5310  206.2040  145.8170 C   0  0  0  0  0  2  0  0  0  0  0  0
  163.2220  203.9550  144.7760 O   0  0  0  0  0  0  0  0  0  0  0  0
  162.4500  204.6250  145.5120 C   0  0  0  0  0  0  0  0  0  0  0  0
  162.6920  204.6750  146.9910 C   0  0  0  0  0  2  0  0  0  0  0  0
  161.9560  206.2030  142.8600 O   0  0  0  0  0  1  0  0  0  0  0  0
  161.0750  205.3470  143.5220 C   0  0  0  0  0  2  0  0  0  0  0  0
  1  3  1  0  0  0  0
  2  6  1  0  0  0  0
  4 17  1  0  0  0  0
  4  7  2  0  0  0  0
  5  2  2  0  0  0  0
  5  4  1  0  0  0  0
  6  1  2  0  0  0  0
  7  1  1  0  0  0  0
  8 16  2  0  0  0  0
  8 18  1  0  0  0  0
  9 19  1  0  0  0  0
 10 14  1  6  0  0  0
 10 13  1  0  0  0  0
 12 10  1  0  0  0  0
 12  9  2  0  0  0  0
 13 11  1  0  0  0  0
 15  9  1  0  0  0  0
 16 12  1  0  0  0  0
 17 15  2  0  0  0  0
 18 17  1  0  0  0  0
 19 11  1  0  0  0  0
 20 25  1  0  0  0  0
 20 23  1  0  0  0  0
 21 22  2  0  0  0  0
 22  5  1  0  0  0  0
 23 21  1  0  0  0  0
 24 25  2  0  0  0  0
 25 26  1  0  0  0  0
 26 22  1  0  0  0  0
 27 28  1  0  0  0  0
 28 20  1  0  0  0  0
M  END
>  <MODEL>
4

>  <REMARK>
 VINA RESULT:      -8.1      2.899      5.862
  Name = 
  3 active torsions:
  status: ('A' for Active; 'I' for Inactive)
    1  A    between atoms: N_8  and  C_12
    2  A    between atoms: C_15  and  C_23
    3  A    between atoms: C_17  and  C_21
                            x       y       z     vdW  Elec       q    Type
                         _______ _______ _______ _____ _____    ______ ____

>  <TORSDO>
F 3

$$$$
=
 OpenBabel11042421083D

 28 31  0  0  1  0  0  0  0  0999 V2000
  160.2210  213.6140  150.3170 C   0  0  0  0  0  0  0  0  0  0  0  0
  158.8880  214.0410  152.2850 C   0  0  0  0  0  3  0  0  0  0  0  0
  160.7030  214.0170  149.0800 O   0  0  0  0  0  1  0  0  0  0  0  0
  160.1120  211.9460  152.0880 C   0  0  0  0  0  0  0  0  0  0  0  0
  159.2310  212.7890  152.8150 C   0  0  0  0  0  0  0  0  0  0  0  0
  159.3810  214.4530  151.0470 C   0  0  0  0  0  3  0  0  0  0  0  0
  160.5890  212.3730  150.8390 C   0  0  0  0  0  3  0  0  0  0  0  0
  161.0080  209.8250  154.9090 C   0  0  0  0  0  3  0  0  0  0  0  0
  160.9480  208.1930  152.2770 C   0  0  0  0  0  0  0  0  0  0  0  0
  161.5470  206.2900  153.8000 C   0  0  2  0  0  3  0  0  0  0  0  0
  161.9860  206.0910  151.3660 C   0  0  0  0  0  2  0  0  0  0  0  0
  161.0840  207.7130  153.5470 C   0  0  0  0  0  0  0  0  0  0  0  0
  161.4470  205.3740  152.5850 C   0  0  0  0  0  2  0  0  0  0  0  0
  160.8420  205.7240  154.8480 F   0  0  0  0  0  0  0  0  0  0  0  0
  160.4480  209.5430  151.9340 C   0  0  0  0  0  3  0  0  0  0  0  0
  160.8420  208.5110  154.7720 C   0  0  0  0  0  3  0  0  0  0  0  0
  160.6260  210.6690  152.6320 C   0  0  0  0  0  0  0  0  0  0  0  0
  161.5270  210.6990  153.8230 C   0  0  0  0  0  2  0  0  0  0  0  0
  161.0900  207.2850  151.0860 C   0  0  0  0  0  2  0  0  0  0  0  0
  156.8590  212.2210  156.3160 N   0  0  0  0  0  0  0  0  0  0  0  0
  157.5480  211.5480  154.0780 C   0  0  0  0  0  3  0  0  0  0  0  0
  158.5950  212.3860  154.0860 C   0  0  0  0  0  0  0  0  0  0  0  0
  156.8700  211.1260  155.3490 C   0  0  0  0  0  2  0  0  0  0  0  0
  158.0240  214.0330  157.2450 O   0  0  0  0  0  0  0  0  0  0  0  0
  157.9690  213.1310  156.3680 C   0  0  0  0  0  0  0  0  0  0  0  0
  159.0870  212.9890  155.3790 C   0  0  0  0  0  2  0  0  0  0  0  0
  154.8600  211.2610  157.0430 O   0  0  0  0  0  1  0  0  0  0  0  0
  155.7510  212.3140  157.2550 C   0  0  0  0  0  2  0  0  0  0  0  0
  1  7  2  0  0  0  0
  1  6  1  0  0  0  0
  2  5  1  0  0  0  0
  3  1  1  0  0  0  0
  4 17  1  0  0  0  0
  4  5  2  0  0  0  0
  5 22  1  0  0  0  0
  6  2  2  0  0  0  0
  7  4  1  0  0  0  0
  9 12  2  0  0  0  0
 10 14  1  1  0  0  0
 11 13  1  0  0  0  0
 12 10  1  0  0  0  0
 12 16  1  0  0  0  0
 13 10  1  0  0  0  0
 15  9  1  0  0  0  0
 15 17  2  0  0  0  0
 16  8  2  0  0  0  0
 17 18  1  0  0  0  0
 18  8  1  0  0  0  0
 19 11  1  0  0  0  0
 19  9  1  0  0  0  0
 20 25  1  0  0  0  0
 20 28  1  0  0  0  0
 21 22  2  0  0  0  0
 21 23  1  0  0  0  0
 22 26  1  0  0  0  0
 23 20  1  0  0  0  0
 25 24  2  0  0  0  0
 26 25  1  0  0  0  0
 27 28  1  0  0  0  0
M  END
>  <MODEL>
5

>  <REMARK>
 VINA RESULT:      -8.1      5.387      8.707
  Name = 
  3 active torsions:
  status: ('A' for Active; 'I' for Inactive)
    1  A    between atoms: N_8  and  C_12
    2  A    between atoms: C_15  and  C_23
    3  A    between atoms: C_17  and  C_21
                            x       y       z     vdW  Elec       q    Type
                         _______ _______ _______ _____ _____    ______ ____

>  <TORSDO>
F 3

$$$$
=
 OpenBabel11042421083D

 28 31  0  0  1  0  0  0  0  0999 V2000
  160.1030  208.9390  156.0750 C   0  0  0  0  0  0  0  0  0  0  0  0
  160.6640  206.9580  154.8140 C   0  0  0  0  0  3  0  0  0  0  0  0
  159.6990  209.5360  157.2610 O   0  0  0  0  0  1  0  0  0  0  0  0
  160.7610  209.1400  153.7390 C   0  0  0  0  0  0  0  0  0  0  0  0
  160.9000  207.7290  153.6660 C   0  0  0  0  0  0  0  0  0  0  0  0
  160.2700  207.5570  156.0110 C   0  0  0  0  0  3  0  0  0  0  0  0
  160.3540  209.7250  154.9490 C   0  0  0  0  0  3  0  0  0  0  0  0
  162.5430  209.7860  150.6300 C   0  0  0  0  0  3  0  0  0  0  0  0
  160.4480  211.9990  151.1810 C   0  0  0  0  0  0  0  0  0  0  0  0
  161.2830  212.9100  148.9970 C   0  0  2  0  0  3  0  0  0  0  0  0
  160.0810  214.4110  150.5650 C   0  0  0  0  0  2  0  0  0  0  0  0
  161.1840  211.8190  150.0470 C   0  0  0  0  0  0  0  0  0  0  0  0
  160.2170  213.9940  149.1170 C   0  0  0  0  0  2  0  0  0  0  0  0
  161.2340  212.3720  147.7230 F   0  0  0  0  0  0  0  0  0  0  0  0
  160.2460  210.9740  152.2290 C   0  0  0  0  0  3  0  0  0  0  0  0
  161.9680  210.5980  149.7460 C   0  0  0  0  0  3  0  0  0  0  0  0
  161.1160  210.0360  152.6160 C   0  0  0  0  0  0  0  0  0  0  0  0
  162.5160  210.0290  152.0970 C   0  0  0  0  0  2  0  0  0  0  0  0
  159.5780  213.2150  151.3560 C   0  0  0  0  0  2  0  0  0  0  0  0
  161.1770  205.2060  150.2370 N   0  0  0  0  0  0  0  0  0  0  0  0
  160.5840  207.3280  151.2790 C   0  0  0  0  0  3  0  0  0  0  0  0
  161.2220  207.0130  152.4150 C   0  0  0  0  0  0  0  0  0  0  0  0
  160.8770  206.6150  149.9900 C   0  0  0  0  0  2  0  0  0  0  0  0
  162.2180  203.6350  151.6340 O   0  0  0  0  0  0  0  0  0  0  0  0
  161.8740  204.8300  151.4350 C   0  0  0  0  0  0  0  0  0  0  0  0
  162.2160  205.8790  152.4500 C   0  0  0  0  0  2  0  0  0  0  0  0
  161.5800  204.4490  148.0660 O   0  0  0  0  0  1  0  0  0  0  0  0
  160.8250  204.2270  149.2190 C   0  0  0  0  0  2  0  0  0  0  0  0
  1  3  1  0  0  0  0
  2  6  2  0  0  0  0
  4  7  1  0  0  0  0
  5  4  2  0  0  0  0
  5  2  1  0  0  0  0
  6  1  1  0  0  0  0
  7  1  2  0  0  0  0
  8 18  1  0  0  0  0
  9 19  1  0  0  0  0
  9 15  1  0  0  0  0
 10 14  1  6  0  0  0
 10 13  1  0  0  0  0
 10 12  1  0  0  0  0
 11 19  1  0  0  0  0
 12  9  2  0  0  0  0
 13 11  1  0  0  0  0
 15 17  2  0  0  0  0
 16 12  1  0  0  0  0
 16  8  2  0  0  0  0
 17  4  1  0  0  0  0
 18 17  1  0  0  0  0
 20 25  1  0  0  0  0
 21 22  2  0  0  0  0
 22 26  1  0  0  0  0
 22  5  1  0  0  0  0
 23 20  1  0  0  0  0
 23 21  1  0  0  0  0
 25 24  2  0  0  0  0
 25 26  1  0  0  0  0
 27 28  1  0  0  0  0
 28 20  1  0  0  0  0
M  END
>  <MODEL>
6

>  <REMARK>
 VINA RESULT:      -8.0      3.865      7.263
  Name = 
  3 active torsions:
  status: ('A' for Active; 'I' for Inactive)
    1  A    between atoms: N_8  and  C_12
    2  A    between atoms: C_15  and  C_23
    3  A    between atoms: C_17  and  C_21
                            x       y       z     vdW  Elec       q    Type
                         _______ _______ _______ _____ _____    ______ ____

>  <TORSDO>
F 3

$$$$
=
 OpenBabel11042421083D

 28 31  0  0  1  0  0  0  0  0999 V2000
  160.6540  208.4170  155.7220 C   0  0  0  0  0  0  0  0  0  0  0  0
  160.5510  210.2180  154.1170 C   0  0  0  0  0  3  0  0  0  0  0  0
  160.5490  207.9620  157.0290 O   0  0  0  0  0  1  0  0  0  0  0  0
  161.0830  207.9640  153.3680 C   0  0  0  0  0  0  0  0  0  0  0  0
  160.8880  209.3400  153.0770 C   0  0  0  0  0  0  0  0  0  0  0  0
  160.4320  209.7610  155.4300 C   0  0  0  0  0  3  0  0  0  0  0  0
  160.9700  207.5240  154.6960 C   0  0  0  0  0  3  0  0  0  0  0  0
  161.6070  204.5100  152.3420 C   0  0  0  0  0  3  0  0  0  0  0  0
  161.0260  206.3120  149.8920 C   0  0  0  0  0  0  0  0  0  0  0  0
  161.2430  204.1520  148.6330 C   0  0  2  0  0  3  0  0  0  0  0  0
  161.4930  206.3010  147.4200 C   0  0  0  0  0  2  0  0  0  0  0  0
  161.1140  204.9520  149.9170 C   0  0  0  0  0  0  0  0  0  0  0  0
  160.8670  204.9240  147.3740 C   0  0  0  0  0  2  0  0  0  0  0  0
  160.4820  202.9970  148.6950 F   0  0  0  0  0  0  0  0  0  0  0  0
  160.8390  207.1690  151.0840 C   0  0  0  0  0  3  0  0  0  0  0  0
  161.1310  204.1380  151.1560 C   0  0  0  0  0  3  0  0  0  0  0  0
  161.3120  206.9500  152.3150 C   0  0  0  0  0  0  0  0  0  0  0  0
  162.2580  205.8260  152.5840 C   0  0  0  0  0  2  0  0  0  0  0  0
  160.8870  207.0560  148.5900 C   0  0  0  0  0  2  0  0  0  0  0  0
  161.9890  211.5020  149.5680 N   0  0  0  0  0  0  0  0  0  0  0  0
  162.1220  209.5190  150.9770 C   0  0  0  0  0  3  0  0  0  0  0  0
  161.0860  209.9160  151.7320 C   0  0  0  0  0  0  0  0  0  0  0  0
  162.3610  210.0900  149.6100 C   0  0  0  0  0  2  0  0  0  0  0  0
  160.4830  213.1590  150.2700 O   0  0  0  0  0  0  0  0  0  0  0  0
  160.8760  211.9650  150.3500 C   0  0  0  0  0  0  0  0  0  0  0  0
  160.1610  211.0070  151.2540 C   0  0  0  0  0  2  0  0  0  0  0  0
  162.0660  212.4550  147.4390 O   0  0  0  0  0  1  0  0  0  0  0  0
  162.7150  212.3910  148.6730 C   0  0  0  0  0  2  0  0  0  0  0  0
  1  3  1  0  0  0  0
  2  6  2  0  0  0  0
  4  7  1  0  0  0  0
  5  4  2  0  0  0  0
  5  2  1  0  0  0  0
  6  1  1  0  0  0  0
  7  1  2  0  0  0  0
  8 18  1  0  0  0  0
  9 12  2  0  0  0  0
  9 15  1  0  0  0  0
 10 14  1  1  0  0  0
 10 12  1  0  0  0  0
 11 19  1  0  0  0  0
 12 16  1  0  0  0  0
 13 11  1  0  0  0  0
 13 10  1  0  0  0  0
 15 17  2  0  0  0  0
 16  8  2  0  0  0  0
 17 18  1  0  0  0  0
 17  4  1  0  0  0  0
 19  9  1  0  0  0  0
 20 23  1  0  0  0  0
 20 25  1  0  0  0  0
 21 22  2  0  0  0  0
 22  5  1  0  0  0  0
 23 21  1  0  0  0  0
 24 25  2  0  0  0  0
 25 26  1  0  0  0  0
 26 22  1  0  0  0  0
 27 28  1  0  0  0  0
 28 20  1  0  0  0  0
M  END
>  <MODEL>
7

>  <REMARK>
 VINA RESULT:      -7.6      3.257      5.209
  Name = 
  3 active torsions:
  status: ('A' for Active; 'I' for Inactive)
    1  A    between atoms: N_8  and  C_12
    2  A    between atoms: C_15  and  C_23
    3  A    between atoms: C_17  and  C_21
                            x       y       z     vdW  Elec       q    Type
                         _______ _______ _______ _____ _____    ______ ____

>  <TORSDO>
F 3

$$$$
=
 OpenBabel11042421083D

 28 31  0  0  1  0  0  0  0  0999 V2000
  161.3910  205.2370  151.1370 C   0  0  0  0  0  0  0  0  0  0  0  0
  160.9750  205.4890  153.5030 C   0  0  0  0  0  3  0  0  0  0  0  0
  161.5820  204.4240  150.0300 O   0  0  0  0  0  1  0  0  0  0  0  0
  161.2340  207.4660  152.1060 C   0  0  0  0  0  0  0  0  0  0  0  0
  161.0240  206.8850  153.3850 C   0  0  0  0  0  0  0  0  0  0  0  0
  161.1540  204.6690  152.3880 C   0  0  0  0  0  3  0  0  0  0  0  0
  161.4230  206.6250  150.9980 C   0  0  0  0  0  3  0  0  0  0  0  0
  162.0810  210.4080  150.1360 C   0  0  0  0  0  3  0  0  0  0  0  0
  159.9000  211.0740  152.2300 C   0  0  0  0  0  0  0  0  0  0  0  0
  160.0330  213.3570  151.1950 C   0  0  2  0  0  3  0  0  0  0  0  0
  159.0600  213.1010  153.4620 C   0  0  0  0  0  2  0  0  0  0  0  0
  160.3500  211.8730  151.2200 C   0  0  0  0  0  0  0  0  0  0  0  0
  158.8900  213.7680  152.1150 C   0  0  0  0  0  2  0  0  0  0  0  0
  159.7450  213.7750  149.9070 F   0  0  0  0  0  0  0  0  0  0  0  0
  160.1100  209.6120  152.3080 C   0  0  0  0  0  3  0  0  0  0  0  0
  161.1980  211.4030  150.0990 C   0  0  0  0  0  3  0  0  0  0  0  0
  161.1710  208.9260  151.8720 C   0  0  0  0  0  0  0  0  0  0  0  0
  162.3860  209.6320  151.3680 C   0  0  0  0  0  2  0  0  0  0  0  0
  158.9400  211.5990  153.2640 C   0  0  0  0  0  2  0  0  0  0  0  0
  160.2470  209.6780  156.5150 N   0  0  0  0  0  0  0  0  0  0  0  0
  159.8570  207.5320  155.4300 C   0  0  0  0  0  3  0  0  0  0  0  0
  160.9180  207.6810  154.6250 C   0  0  0  0  0  0  0  0  0  0  0  0
  159.7090  208.3310  156.6920 C   0  0  0  0  0  2  0  0  0  0  0  0
  161.9260  211.0150  155.5670 O   0  0  0  0  0  0  0  0  0  0  0  0
  161.3930  209.8780  155.6730 C   0  0  0  0  0  0  0  0  0  0  0  0
  161.9750  208.7140  154.9290 C   0  0  0  0  0  2  0  0  0  0  0  0
  158.4900  211.2110  156.6130 O   0  0  0  0  0  1  0  0  0  0  0  0
  159.6460  210.7740  157.2600 C   0  0  0  0  0  2  0  0  0  0  0  0
  1  6  1  0  0  0  0
  3  1  1  0  0  0  0
  4  5  2  0  0  0  0
  5  2  1  0  0  0  0
  5 22  1  0  0  0  0
  6  2  2  0  0  0  0
  7  1  2  0  0  0  0
  7  4  1  0  0  0  0
  8 18  1  0  0  0  0
  9 15  1  0  0  0  0
  9 19  1  0  0  0  0
 10 14  1  6  0  0  0
 10 12  1  0  0  0  0
 10 13  1  0  0  0  0
 12  9  2  0  0  0  0
 13 11  1  0  0  0  0
 16  8  2  0  0  0  0
 16 12  1  0  0  0  0
 17  4  1  0  0  0  0
 17 15  2  0  0  0  0
 18 17  1  0  0  0  0
 19 11  1  0  0  0  0
 20 23  1  0  0  0  0
 20 28  1  0  0  0  0
 21 23  1  0  0  0  0
 22 26  1  0  0  0  0
 22 21  2  0  0  0  0
 24 25  2  0  0  0  0
 25 20  1  0  0  0  0
 26 25  1  0  0  0  0
 27 28  1  0  0  0  0
M  END
>  <MODEL>
8

>  <REMARK>
 VINA RESULT:      -7.5      4.681      9.118
  Name = 
  3 active torsions:
  status: ('A' for Active; 'I' for Inactive)
    1  A    between atoms: N_8  and  C_12
    2  A    between atoms: C_15  and  C_23
    3  A    between atoms: C_17  and  C_21
                            x       y       z     vdW  Elec       q    Type
                         _______ _______ _______ _____ _____    ______ ____

>  <TORSDO>
F 3

$$$$
=
 OpenBabel11042421083D

 28 31  0  0  1  0  0  0  0  0999 V2000
  161.1960  207.5650  155.0790 C   0  0  0  0  0  0  0  0  0  0  0  0
  161.2830  209.5430  153.6950 C   0  0  0  0  0  3  0  0  0  0  0  0
  161.1900  206.9750  156.3340 O   0  0  0  0  0  1  0  0  0  0  0  0
  161.1290  207.3470  152.6540 C   0  0  0  0  0  0  0  0  0  0  0  0
  161.2300  208.7580  152.5330 C   0  0  0  0  0  0  0  0  0  0  0  0
  161.2640  208.9520  154.9590 C   0  0  0  0  0  3  0  0  0  0  0  0
  161.1220  206.7700  153.9340 C   0  0  0  0  0  3  0  0  0  0  0  0
  160.8320  206.8390  149.0610 C   0  0  0  0  0  3  0  0  0  0  0  0
  161.1760  204.1360  150.5320 C   0  0  0  0  0  0  0  0  0  0  0  0
  161.0760  203.2030  148.2050 C   0  0  2  0  0  3  0  0  0  0  0  0
  160.6150  201.7160  150.1360 C   0  0  0  0  0  2  0  0  0  0  0  0
  161.1940  204.3540  149.1860 C   0  0  0  0  0  0  0  0  0  0  0  0
  161.3420  201.8320  148.8140 C   0  0  0  0  0  2  0  0  0  0  0  0
  161.9260  203.3870  147.1270 F   0  0  0  0  0  0  0  0  0  0  0  0
  161.3430  205.1870  151.5600 C   0  0  0  0  0  3  0  0  0  0  0  0
  161.2880  205.6940  148.5580 C   0  0  0  0  0  3  0  0  0  0  0  0
  160.9370  206.4580  151.4870 C   0  0  0  0  0  0  0  0  0  0  0  0
  160.0920  206.9280  150.3490 C   0  0  0  0  0  2  0  0  0  0  0  0
  161.2060  202.7390  151.0910 C   0  0  0  0  0  2  0  0  0  0  0  0
  162.1620  211.1860  149.1510 N   0  0  0  0  0  0  0  0  0  0  0  0
  162.2870  209.0710  150.3550 C   0  0  0  0  0  3  0  0  0  0  0  0
  161.3490  209.4500  151.2340 C   0  0  0  0  0  0  0  0  0  0  0  0
  162.4450  209.7580  149.0290 C   0  0  0  0  0  2  0  0  0  0  0  0
  160.8320  212.8480  150.1370 O   0  0  0  0  0  0  0  0  0  0  0  0
  161.1520  211.6320  150.0700 C   0  0  0  0  0  0  0  0  0  0  0  0
  160.4570  210.6330  150.9450 C   0  0  0  0  0  2  0  0  0  0  0  0
  162.0850  212.3910  147.1540 O   0  0  0  0  0  1  0  0  0  0  0  0
  162.8640  212.1150  148.2790 C   0  0  0  0  0  2  0  0  0  0  0  0
  1  3  1  0  0  0  0
  2  6  2  0  0  0  0
  4  7  1  0  0  0  0
  5  4  2  0  0  0  0
  5  2  1  0  0  0  0
  6  1  1  0  0  0  0
  7  1  2  0  0  0  0
  8 18  1  0  0  0  0
  9 19  1  0  0  0  0
  9 15  1  0  0  0  0
 10 14  1  6  0  0  0
 10 13  1  0  0  0  0
 10 12  1  0  0  0  0
 11 19  1  0  0  0  0
 12  9  2  0  0  0  0
 13 11  1  0  0  0  0
 16  8  2  0  0  0  0
 16 12  1  0  0  0  0
 17 15  2  0  0  0  0
 17  4  1  0  0  0  0
 18 17  1  0  0  0  0
 20 25  1  0  0  0  0
 21 22  2  0  0  0  0
 22  5  1  0  0  0  0
 23 20  1  0  0  0  0
 23 21  1  0  0  0  0
 25 24  2  0  0  0  0
 25 26  1  0  0  0  0
 26 22  1  0  0  0  0
 27 28  1  0  0  0  0
 28 20  1  0  0  0  0
M  END
>  <MODEL>
9

>  <REMARK>
 VINA RESULT:      -7.2      3.233      4.906
  Name = 
  3 active torsions:
  status: ('A' for Active; 'I' for Inactive)
    1  A    between atoms: N_8  and  C_12
    2  A    between atoms: C_15  and  C_23
    3  A    between atoms: C_17  and  C_21
                            x       y       z     vdW  Elec       q    Type
                         _______ _______ _______ _____ _____    ______ ____

>  <TORSDO>
F 3

$$$$
