=
 OpenBabel11042420073D

 58 61  0  0  1  0  0  0  0  0999 V2000
  159.7460  201.4780  151.3640 C   0  0  0  0  0  3  0  0  0  0  0  0
  159.9160  202.2010  152.4620 C   0  0  0  0  0  2  0  0  0  0  0  0
  160.6110  203.4990  152.6120 C   0  0  0  0  0  3  0  0  0  0  0  0
  161.2060  202.8340  149.5930 C   0  0  0  0  0  0  0  0  0  0  0  0
  160.1160  201.8580  149.9290 C   0  0  0  0  0  3  0  0  0  0  0  0
  161.6250  203.8530  150.3380 C   0  0  0  0  0  3  0  0  0  0  0  0
  161.3850  204.2150  151.7710 C   0  0  0  0  0  0  0  0  0  0  0  0
  162.2060  205.4840  152.2020 C   0  0  0  0  0  2  0  0  0  0  0  0
  161.6180  206.8980  151.9620 C   0  0  2  0  0  3  0  0  0  0  0  0
  162.7810  207.8930  151.8020 C   0  0  0  0  0  1  0  0  0  0  0  0
  160.6580  207.2730  153.1220 C   0  0  0  0  0  2  0  0  0  0  0  0
  161.1460  208.4370  153.8810 N   0  0  0  0  0  0  0  0  0  0  0  0
  161.3480  209.9250  157.0780 C   0  0  1  0  0  3  0  0  0  0  0  0
  159.3000  207.3450  156.0680 O   0  0  0  0  0  0  0  0  0  0  0  0
  160.0100  209.4000  156.8880 N   0  0  0  0  0  2  0  0  0  0  0  0
  160.1500  208.2680  156.0480 C   0  0  0  0  0  0  0  0  0  0  0  0
  161.4350  208.2420  155.2920 C   0  0  2  0  0  3  0  0  0  0  0  0
  162.1680  209.4620  155.8800 C   0  0  0  0  0  2  0  0  0  0  0  0
  161.3000  211.4270  157.2600 C   0  0  0  0  0  2  0  0  0  0  0  0
  159.9500  212.1090  157.1290 N   0  0  0  0  0  2  0  0  0  0  0  0
  159.5350  213.4590  156.8000 C   0  0  0  0  0  0  0  0  0  0  0  0
  158.1050  213.8140  156.5600 N   0  0  0  0  0  1  0  0  0  0  0  0
  160.3190  214.3910  156.7460 O   0  0  0  0  0  0  0  0  0  0  0  0
  160.2420  209.5800  153.6960 C   0  0  0  0  0  2  0  0  0  0  0  0
  160.0330  210.1680  152.3120 C   0  0  0  0  0  2  0  0  0  0  0  0
  159.9300  211.6940  152.5440 C   0  0  0  0  0  2  0  0  0  0  0  0
  158.5820  212.4100  152.8260 C   0  0  2  0  0  0  0  0  0  0  0  0
  157.6580  212.3580  151.6280 C   0  0  0  0  0  1  0  0  0  0  0  0
  158.8400  213.8880  153.0810 C   0  0  0  0  0  2  0  0  0  0  0  0
  159.4830  214.4440  151.9110 N   0  0  0  0  0  1  0  0  0  0  0  0
  156.5860  211.8040  154.3030 O   0  0  0  0  0  1  0  0  0  0  0  0
  157.9570  211.6050  154.0060 C   0  0  0  0  0  2  0  0  0  0  0  0
  161.9530  202.7260  148.2730 C   0  0  0  0  0  2  0  0  0  0  0  0
  162.3030  204.0020  146.1390 C   0  0  0  0  0  0  0  0  0  0  0  0
  161.4480  203.4700  147.0310 C   0  0  0  0  0  3  0  0  0  0  0  0
  163.7530  204.0080  146.4070 C   0  0  0  0  0  1  0  0  0  0  0  0
  161.9230  204.7400  144.9050 C   0  0  0  0  0  3  0  0  0  0  0  0
  161.4760  205.9960  144.8060 C   0  0  0  0  0  0  0  0  0  0  0  0
  161.3620  206.4450  143.3370 C   0  0  0  0  0  1  0  0  0  0  0  0
  161.6120  207.3020  147.3430 C   0  0  1  0  0  3  0  0  0  0  0  0
  160.5810  206.5070  146.7500 O   0  0  0  0  0  0  0  0  0  0  0  0
  161.4170  207.0710  145.8490 C   0  0  2  0  0  3  0  0  0  0  0  0
  161.1810  208.6790  147.4640 N   0  0  0  0  0  2  0  0  0  0  0  0
  161.8160  209.3750  149.7080 C   0  0  0  0  0  1  0  0  0  0  0  0
  162.0440  209.5370  148.2310 C   0  0  2  0  0  3  0  0  0  0  0  0
  160.8790  211.4480  146.9430 N   0  0  0  0  0  2  0  0  0  0  0  0
  161.8020  210.9640  147.9800 C   0  0  0  0  0  0  0  0  0  0  0  0
  162.3370  211.8490  148.7470 O   0  0  0  0  0  0  0  0  0  0  0  0
  160.6200  212.8550  146.7140 C   0  0  1  0  0  3  0  0  0  0  0  0
  159.9810  213.5180  149.0530 O   0  0  0  0  0  1  0  0  0  0  0  0
  157.3830  214.2350  148.8080 N   0  0  0  0  0  1  0  0  0  0  0  0
  157.8880  213.0970  146.7670 S   0  0  0  0  0  0  0  0  0  0  0  0
  159.5160  213.5160  147.6990 C   0  0  2  0  0  0  0  0  0  0  0  0
  158.3420  214.4520  147.7290 C   0  0  2  0  0  3  0  0  0  0  0  0
  161.3750  213.5250  145.7540 O   0  0  0  0  0  0  0  0  0  0  0  0
  160.5250  213.4600  144.2080 S   0  0  0  0  0  0  0  0  0  0  0  0
  162.9340  213.9640  144.1150 N   0  0  0  0  0  1  0  0  0  0  0  0
  162.0020  213.0910  143.3890 C   0  0  0  0  0  2  0  0  0  0  0  0
  1  2  1  0  0  0  0
  2  3  1  0  0  0  0
  4  5  1  0  0  0  0
  4  6  2  0  0  0  0
  5  1  2  0  0  0  0
  6  7  1  0  0  0  0
  7  8  1  0  0  0  0
  7  3  2  0  0  0  0
  9 10  1  1  0  0  0
  9  8  1  0  0  0  0
  9 11  1  0  0  0  0
 11 12  1  0  0  0  0
 13 19  1  6  0  0  0
 15 13  1  0  0  0  0
 16 14  2  0  0  0  0
 16 15  1  0  0  0  0
 17 12  1  6  0  0  0
 17 18  1  0  0  0  0
 17 16  1  0  0  0  0
 18 13  1  0  0  0  0
 20 19  1  0  0  0  0
 21 20  1  0  0  0  0
 22 21  1  0  0  0  0
 23 21  2  0  0  0  0
 24 12  1  0  0  0  0
 25 26  1  0  0  0  0
 25 24  1  0  0  0  0
 26 27  1  0  0  0  0
 27 28  1  6  0  0  0
 27 29  1  0  0  0  0
 27 32  1  0  0  0  0
 30 29  1  0  0  0  0
 32 31  1  0  0  0  0
 33  4  1  0  0  0  0
 34 36  1  0  0  0  0
 34 35  2  0  0  0  0
 35 33  1  0  0  0  0
 37 34  1  0  0  0  0
 38 37  2  0  0  0  0
 39 38  1  0  0  0  0
 40 43  1  6  0  0  0
 41 40  1  0  0  0  0
 42 38  1  1  0  0  0
 42 41  1  0  0  0  0
 42 40  1  0  0  0  0
 43 45  1  0  0  0  0
 45 44  1  1  0  0  0
 46 47  1  0  0  0  0
 47 45  1  0  0  0  0
 47 48  2  0  0  0  0
 49 55  1  1  0  0  0
 49 46  1  0  0  0  0
 49 53  1  0  0  0  0
 52 53  1  0  0  0  0
 52 54  1  0  0  0  0
 53 54  1  0  0  0  0
 53 50  1  1  0  0  0
 54 51  1  1  0  0  0
 56 55  1  0  0  0  0
 58 57  1  0  0  0  0
 58 56  1  0  0  0  0
M  END
>  <MODEL>
1

>  <REMARK>
 VINA RESULT:      -1.3      0.000      0.000
  Name = 
  25 active torsions:
  status: ('A' for Active; 'I' for Inactive)
    1  A    between atoms: C_2  and  C_30
    2  A    between atoms: C_5  and  C_16
    3  A    between atoms: C_7  and  N_17
    4  A    between atoms: C_7  and  C_57
    5  A    between atoms: C_8  and  C_13
    6  A    between atoms: C_8  and  C_35
    7  A    between atoms: C_9  and  C_21
    8  A    between atoms: C_9  and  C_49
    9  A    between atoms: C_10  and  C_14
   10  A    between atoms: C_11  and  N_34
   11  A    between atoms: C_14  and  C_32
   12  A    between atoms: C_14  and  C_39
   13  A    between atoms: N_17  and  C_21
   14  A    between atoms: N_17  and  C_50
   15  A    between atoms: C_19  and  N_34
   16  A    between atoms: C_19  and  C_38
   17  A    between atoms: C_23  and  N_24
   18  A    between atoms: C_23  and  C_36
   19  A    between atoms: C_23  and  O_43
   20  A    between atoms: N_25  and  C_30
   21  A    between atoms: C_27  and  C_40
   22  A    between atoms: C_32  and  C_57
   23  A    between atoms: O_43  and  S_53
   24  A    between atoms: C_46  and  S_53
   25  A    between atoms: C_49  and  C_56
                            x       y       z     vdW  Elec       q    Type
                         _______ _______ _______ _____ _____    ______ ____

>  <TORSDO>
F 25

$$$$
=
 OpenBabel11042420073D

 58 61  0  0  1  0  0  0  0  0999 V2000
  159.7890  201.4810  151.4680 C   0  0  0  0  0  3  0  0  0  0  0  0
  159.9230  202.2090  152.5680 C   0  0  0  0  0  2  0  0  0  0  0  0
  160.5220  203.5550  152.7140 C   0  0  0  0  0  3  0  0  0  0  0  0
  161.1150  202.9500  149.6820 C   0  0  0  0  0  0  0  0  0  0  0  0
  160.1060  201.8940  150.0310 C   0  0  0  0  0  3  0  0  0  0  0  0
  161.4690  203.9940  150.4260 C   0  0  0  0  0  3  0  0  0  0  0  0
  161.2270  204.3300  151.8650 C   0  0  0  0  0  0  0  0  0  0  0  0
  161.9580  205.6550  152.2910 C   0  0  0  0  0  2  0  0  0  0  0  0
  161.2720  207.0240  152.0470 C   0  0  2  0  0  3  0  0  0  0  0  0
  162.3260  208.0140  151.5200 C   0  0  0  0  0  1  0  0  0  0  0  0
  160.5870  207.5080  153.3520 C   0  0  0  0  0  2  0  0  0  0  0  0
  161.0220  208.8650  153.7260 N   0  0  0  0  0  0  0  0  0  0  0  0
  161.2030  210.5450  156.8290 C   0  0  1  0  0  3  0  0  0  0  0  0
  160.7780  207.1720  156.2680 O   0  0  0  0  0  0  0  0  0  0  0  0
  160.3990  209.3480  156.9890 N   0  0  0  0  0  2  0  0  0  0  0  0
  160.9190  208.4030  156.0700 C   0  0  0  0  0  0  0  0  0  0  0  0
  161.7370  209.0150  154.9840 C   0  0  2  0  0  3  0  0  0  0  0  0
  161.7840  210.4900  155.4210 C   0  0  0  0  0  2  0  0  0  0  0  0
  160.3710  211.7760  157.1150 C   0  0  0  0  0  2  0  0  0  0  0  0
  158.8700  211.5950  157.2520 N   0  0  0  0  0  2  0  0  0  0  0  0
  157.7210  212.2720  156.6810 C   0  0  0  0  0  0  0  0  0  0  0  0
  156.3310  211.7560  156.8520 N   0  0  0  0  0  1  0  0  0  0  0  0
  157.8160  213.3230  156.0710 O   0  0  0  0  0  0  0  0  0  0  0  0
  159.8880  209.7970  153.6670 C   0  0  0  0  0  2  0  0  0  0  0  0
  159.6680  210.6480  152.4290 C   0  0  0  0  0  2  0  0  0  0  0  0
  158.8110  211.8400  152.9180 C   0  0  0  0  0  2  0  0  0  0  0  0
  158.9070  213.2560  152.2890 C   0  0  2  0  0  0  0  0  0  0  0  0
  159.3710  214.2860  153.2960 C   0  0  0  0  0  1  0  0  0  0  0  0
  157.5210  213.7060  151.8480 C   0  0  0  0  0  2  0  0  0  0  0  0
  156.5800  213.3580  152.8900 N   0  0  0  0  0  1  0  0  0  0  0  0
  160.4050  214.2720  150.4850 O   0  0  0  0  0  1  0  0  0  0  0  0
  159.9750  213.1050  151.1620 C   0  0  0  0  0  2  0  0  0  0  0  0
  161.8460  202.9040  148.3500 C   0  0  0  0  0  2  0  0  0  0  0  0
  162.1820  204.1720  146.2090 C   0  0  0  0  0  0  0  0  0  0  0  0
  161.3390  203.7220  147.1570 C   0  0  0  0  0  3  0  0  0  0  0  0
  163.6390  204.0130  146.3700 C   0  0  0  0  0  1  0  0  0  0  0  0
  161.7990  204.9710  145.0140 C   0  0  0  0  0  3  0  0  0  0  0  0
  161.3400  206.2260  144.9800 C   0  0  0  0  0  0  0  0  0  0  0  0
  161.2270  206.7510  143.5370 C   0  0  0  0  0  1  0  0  0  0  0  0
  161.3150  207.3730  147.5960 C   0  0  1  0  0  3  0  0  0  0  0  0
  160.2860  206.7190  146.8480 O   0  0  0  0  0  0  0  0  0  0  0  0
  161.2670  207.2440  146.0790 C   0  0  2  0  0  3  0  0  0  0  0  0
  161.0050  208.7780  147.7600 N   0  0  0  0  0  2  0  0  0  0  0  0
  162.1250  209.6260  149.7470 C   0  0  0  0  0  1  0  0  0  0  0  0
  162.0800  209.6020  148.2450 C   0  0  2  0  0  3  0  0  0  0  0  0
  161.1860  211.4460  146.6750 N   0  0  0  0  0  2  0  0  0  0  0  0
  161.9370  211.0120  147.8610 C   0  0  0  0  0  0  0  0  0  0  0  0
  162.4030  211.9350  148.6300 O   0  0  0  0  0  0  0  0  0  0  0  0
  161.0220  212.8400  146.3120 C   0  0  1  0  0  3  0  0  0  0  0  0
  162.4740  214.4430  145.0320 O   0  0  0  0  0  1  0  0  0  0  0  0
  162.1230  213.6820  142.4590 N   0  0  0  0  0  1  0  0  0  0  0  0
  160.3800  212.5700  143.6590 S   0  0  0  0  0  0  0  0  0  0  0  0
  161.6830  213.2590  144.8930 C   0  0  2  0  0  0  0  0  0  0  0  0
  162.0930  212.7160  143.5540 C   0  0  2  0  0  3  0  0  0  0  0  0
  160.2650  213.6610  147.1440 O   0  0  0  0  0  0  0  0  0  0  0  0
  158.7820  212.8150  147.5910 S   0  0  0  0  0  0  0  0  0  0  0  0
  156.8710  212.4800  146.0760 N   0  0  0  0  0  1  0  0  0  0  0  0
  157.9840  213.4320  146.1880 C   0  0  0  0  0  2  0  0  0  0  0  0
  1  2  1  0  0  0  0
  2  3  1  0  0  0  0
  4  5  1  0  0  0  0
  4  6  2  0  0  0  0
  5  1  2  0  0  0  0
  6  7  1  0  0  0  0
  7  8  1  0  0  0  0
  7  3  2  0  0  0  0
  9 10  1  1  0  0  0
  9  8  1  0  0  0  0
  9 11  1  0  0  0  0
 11 12  1  0  0  0  0
 13 15  1  0  0  0  0
 13 19  1  6  0  0  0
 16 14  2  0  0  0  0
 16 15  1  0  0  0  0
 17 12  1  6  0  0  0
 17 18  1  0  0  0  0
 17 16  1  0  0  0  0
 18 13  1  0  0  0  0
 19 20  1  0  0  0  0
 21 22  1  0  0  0  0
 21 20  1  0  0  0  0
 23 21  2  0  0  0  0
 24 12  1  0  0  0  0
 25 26  1  0  0  0  0
 25 24  1  0  0  0  0
 27 26  1  0  0  0  0
 27 28  1  1  0  0  0
 29 27  1  0  0  0  0
 29 30  1  0  0  0  0
 31 32  1  0  0  0  0
 32 27  1  0  0  0  0
 33  4  1  0  0  0  0
 34 36  1  0  0  0  0
 34 35  2  0  0  0  0
 35 33  1  0  0  0  0
 37 34  1  0  0  0  0
 38 37  2  0  0  0  0
 39 38  1  0  0  0  0
 40 43  1  6  0  0  0
 41 40  1  0  0  0  0
 42 38  1  1  0  0  0
 42 41  1  0  0  0  0
 42 40  1  0  0  0  0
 43 45  1  0  0  0  0
 45 44  1  1  0  0  0
 46 47  1  0  0  0  0
 47 45  1  0  0  0  0
 47 48  2  0  0  0  0
 49 46  1  6  0  0  0
 49 55  1  0  0  0  0
 52 53  1  0  0  0  0
 53 50  1  6  0  0  0
 53 49  1  0  0  0  0
 54 51  1  6  0  0  0
 54 52  1  0  0  0  0
 54 53  1  0  0  0  0
 55 56  1  0  0  0  0
 57 58  1  0  0  0  0
 58 56  1  0  0  0  0
M  END
>  <MODEL>
2

>  <REMARK>
 VINA RESULT:      -1.2      1.195      2.427
  Name = 
  25 active torsions:
  status: ('A' for Active; 'I' for Inactive)
    1  A    between atoms: C_2  and  C_30
    2  A    between atoms: C_5  and  C_16
    3  A    between atoms: C_7  and  N_17
    4  A    between atoms: C_7  and  C_57
    5  A    between atoms: C_8  and  C_13
    6  A    between atoms: C_8  and  C_35
    7  A    between atoms: C_9  and  C_21
    8  A    between atoms: C_9  and  C_49
    9  A    between atoms: C_10  and  C_14
   10  A    between atoms: C_11  and  N_34
   11  A    between atoms: C_14  and  C_32
   12  A    between atoms: C_14  and  C_39
   13  A    between atoms: N_17  and  C_21
   14  A    between atoms: N_17  and  C_50
   15  A    between atoms: C_19  and  N_34
   16  A    between atoms: C_19  and  C_38
   17  A    between atoms: C_23  and  N_24
   18  A    between atoms: C_23  and  C_36
   19  A    between atoms: C_23  and  O_43
   20  A    between atoms: N_25  and  C_30
   21  A    between atoms: C_27  and  C_40
   22  A    between atoms: C_32  and  C_57
   23  A    between atoms: O_43  and  S_53
   24  A    between atoms: C_46  and  S_53
   25  A    between atoms: C_49  and  C_56
                            x       y       z     vdW  Elec       q    Type
                         _______ _______ _______ _____ _____    ______ ____

>  <TORSDO>
F 25

$$$$
=
 OpenBabel11042420073D

 58 61  0  0  1  0  0  0  0  0999 V2000
  160.8380  209.5550  151.5900 C   0  0  0  0  0  3  0  0  0  0  0  0
  160.6740  208.2820  151.2570 C   0  0  0  0  0  2  0  0  0  0  0  0
  161.2430  207.5510  150.1030 C   0  0  0  0  0  3  0  0  0  0  0  0
  162.2120  210.4860  149.5050 C   0  0  0  0  0  0  0  0  0  0  0  0
  161.7640  210.5800  150.9340 C   0  0  0  0  0  3  0  0  0  0  0  0
  162.3590  209.3790  148.7830 C   0  0  0  0  0  3  0  0  0  0  0  0
  161.9150  207.9660  149.0090 C   0  0  0  0  0  0  0  0  0  0  0  0
  162.2530  207.0400  147.7850 C   0  0  0  0  0  2  0  0  0  0  0  0
  162.1740  205.5000  147.9420 C   0  0  2  0  0  3  0  0  0  0  0  0
  162.8580  204.8470  146.7280 C   0  0  0  0  0  1  0  0  0  0  0  0
  160.6940  205.0630  148.1090 C   0  0  0  0  0  2  0  0  0  0  0  0
  160.5320  204.0860  149.1980 N   0  0  0  0  0  0  0  0  0  0  0  0
  161.5050  204.8680  152.5030 C   0  0  1  0  0  3  0  0  0  0  0  0
  161.2540  201.7540  151.0500 O   0  0  0  0  0  0  0  0  0  0  0  0
  160.9100  203.5460  152.4890 N   0  0  0  0  0  2  0  0  0  0  0  0
  161.2080  202.9970  151.2170 C   0  0  0  0  0  0  0  0  0  0  0  0
  161.5840  204.0200  150.2000 C   0  0  2  0  0  3  0  0  0  0  0  0
  161.6220  205.3050  151.0480 C   0  0  0  0  0  2  0  0  0  0  0  0
  160.6880  205.8000  153.3730 C   0  0  0  0  0  2  0  0  0  0  0  0
  161.4250  206.6010  154.4310 N   0  0  0  0  0  2  0  0  0  0  0  0
  161.1750  207.8730  155.0820 C   0  0  0  0  0  0  0  0  0  0  0  0
  161.9880  208.3440  156.2430 N   0  0  0  0  0  1  0  0  0  0  0  0
  160.3220  208.6510  154.6940 O   0  0  0  0  0  0  0  0  0  0  0  0
  160.2640  202.7500  148.6480 C   0  0  0  0  0  2  0  0  0  0  0  0
  161.2250  202.1340  147.6470 C   0  0  0  0  0  2  0  0  0  0  0  0
  160.5270  200.8340  147.1820 C   0  0  0  0  0  2  0  0  0  0  0  0
  160.6080  200.3160  145.7200 C   0  0  2  0  0  0  0  0  0  0  0  0
  161.8110  200.8780  144.9930 C   0  0  0  0  0  1  0  0  0  0  0  0
  159.3940  200.8060  144.9450 C   0  0  0  0  0  2  0  0  0  0  0  0
  158.7710  201.8680  145.7030 N   0  0  0  0  0  1  0  0  0  0  0  0
  161.5530  198.0810  144.9190 O   0  0  0  0  0  1  0  0  0  0  0  0
  160.7570  198.7710  145.8660 C   0  0  0  0  0  2  0  0  0  0  0  0
  162.5700  211.7430  148.7290 C   0  0  0  0  0  2  0  0  0  0  0  0
  160.5510  212.3720  147.3730 C   0  0  0  0  0  0  0  0  0  0  0  0
  161.4750  212.7220  148.2870 C   0  0  0  0  0  3  0  0  0  0  0  0
  160.6530  211.0840  146.6640 C   0  0  0  0  0  1  0  0  0  0  0  0
  159.4500  213.2390  146.8760 C   0  0  0  0  0  3  0  0  0  0  0  0
  159.2690  213.7030  145.6340 C   0  0  0  0  0  0  0  0  0  0  0  0
  157.9140  214.4210  145.4880 C   0  0  0  0  0  1  0  0  0  0  0  0
  159.7490  213.1580  142.8720 C   0  0  1  0  0  3  0  0  0  0  0  0
  159.1860  212.3450  143.9050 O   0  0  0  0  0  0  0  0  0  0  0  0
  159.9810  213.3360  144.3670 C   0  0  2  0  0  3  0  0  0  0  0  0
  161.0320  212.6300  142.4580 N   0  0  0  0  0  2  0  0  0  0  0  0
  161.8920  214.3000  140.9090 C   0  0  0  0  0  1  0  0  0  0  0  0
  161.4020  212.8900  141.0920 C   0  0  2  0  0  3  0  0  0  0  0  0
  159.2580  211.7150  140.2650 N   0  0  0  0  0  2  0  0  0  0  0  0
  160.2720  212.7730  140.1620 C   0  0  0  0  0  0  0  0  0  0  0  0
  160.0860  213.6780  139.2640 O   0  0  0  0  0  0  0  0  0  0  0  0
  158.1280  211.6160  139.3630 C   0  0  1  0  0  3  0  0  0  0  0  0
  157.2970  213.5840  140.6890 O   0  0  0  0  0  1  0  0  0  0  0  0
  154.6950  213.7660  139.9670 N   0  0  0  0  0  1  0  0  0  0  0  0
  155.3910  211.6210  139.1740 S   0  0  0  0  0  0  0  0  0  0  0  0
  156.9290  212.6690  139.6510 C   0  0  2  0  0  0  0  0  0  0  0  0
  155.7180  213.3060  139.0330 C   0  0  2  0  0  3  0  0  0  0  0  0
  158.1940  210.7130  138.3050 O   0  0  0  0  0  0  0  0  0  0  0  0
  159.4150  209.4920  138.6700 S   0  0  0  0  0  0  0  0  0  0  0  0
  161.8100  210.0380  138.5000 N   0  0  0  0  0  1  0  0  0  0  0  0
  160.5900  210.3630  137.7490 C   0  0  0  0  0  2  0  0  0  0  0  0
  2  1  1  0  0  0  0
  3  2  1  0  0  0  0
  4  5  1  0  0  0  0
  5  1  2  0  0  0  0
  6  7  1  0  0  0  0
  6  4  2  0  0  0  0
  7  3  2  0  0  0  0
  8  9  1  0  0  0  0
  8  7  1  0  0  0  0
  9 10  1  6  0  0  0
  9 11  1  0  0  0  0
 11 12  1  0  0  0  0
 13 19  1  1  0  0  0
 14 16  2  0  0  0  0
 15 13  1  0  0  0  0
 16 15  1  0  0  0  0
 17 12  1  6  0  0  0
 17 18  1  0  0  0  0
 17 16  1  0  0  0  0
 18 13  1  0  0  0  0
 19 20  1  0  0  0  0
 20 21  1  0  0  0  0
 21 22  1  0  0  0  0
 23 21  2  0  0  0  0
 24 12  1  0  0  0  0
 25 24  1  0  0  0  0
 26 25  1  0  0  0  0
 27 28  1  6  0  0  0
 27 32  1  0  0  0  0
 27 26  1  0  0  0  0
 29 30  1  0  0  0  0
 29 27  1  0  0  0  0
 31 32  1  0  0  0  0
 33  4  1  0  0  0  0
 34 35  2  0  0  0  0
 35 33  1  0  0  0  0
 36 34  1  0  0  0  0
 37 34  1  0  0  0  0
 38 37  2  0  0  0  0
 39 38  1  0  0  0  0
 40 43  1  6  0  0  0
 40 41  1  0  0  0  0
 40 42  1  0  0  0  0
 41 42  1  0  0  0  0
 42 38  1  1  0  0  0
 45 44  1  1  0  0  0
 45 43  1  0  0  0  0
 47 46  1  0  0  0  0
 47 45  1  0  0  0  0
 48 47  2  0  0  0  0
 49 55  1  6  0  0  0
 49 53  1  0  0  0  0
 49 46  1  0  0  0  0
 52 53  1  0  0  0  0
 53 50  1  1  0  0  0
 54 52  1  0  0  0  0
 54 53  1  0  0  0  0
 54 51  1  1  0  0  0
 55 56  1  0  0  0  0
 58 57  1  0  0  0  0
 58 56  1  0  0  0  0
M  END
>  <MODEL>
3

>  <REMARK>
 VINA RESULT:      -0.2      4.187      8.711
  Name = 
  25 active torsions:
  status: ('A' for Active; 'I' for Inactive)
    1  A    between atoms: C_2  and  C_30
    2  A    between atoms: C_5  and  C_16
    3  A    between atoms: C_7  and  N_17
    4  A    between atoms: C_7  and  C_57
    5  A    between atoms: C_8  and  C_13
    6  A    between atoms: C_8  and  C_35
    7  A    between atoms: C_9  and  C_21
    8  A    between atoms: C_9  and  C_49
    9  A    between atoms: C_10  and  C_14
   10  A    between atoms: C_11  and  N_34
   11  A    between atoms: C_14  and  C_32
   12  A    between atoms: C_14  and  C_39
   13  A    between atoms: N_17  and  C_21
   14  A    between atoms: N_17  and  C_50
   15  A    between atoms: C_19  and  N_34
   16  A    between atoms: C_19  and  C_38
   17  A    between atoms: C_23  and  N_24
   18  A    between atoms: C_23  and  C_36
   19  A    between atoms: C_23  and  O_43
   20  A    between atoms: N_25  and  C_30
   21  A    between atoms: C_27  and  C_40
   22  A    between atoms: C_32  and  C_57
   23  A    between atoms: O_43  and  S_53
   24  A    between atoms: C_46  and  S_53
   25  A    between atoms: C_49  and  C_56
                            x       y       z     vdW  Elec       q    Type
                         _______ _______ _______ _____ _____    ______ ____

>  <TORSDO>
F 25

$$$$
=
 OpenBabel11042420073D

 58 61  0  0  1  0  0  0  0  0999 V2000
  160.8330  201.1430  150.9040 C   0  0  0  0  0  3  0  0  0  0  0  0
  160.7670  200.5870  149.7030 C   0  0  0  0  0  3  0  0  0  0  0  0
  161.0480  201.2020  148.3860 C   0  0  0  0  0  3  0  0  0  0  0  0
  161.3280  203.6900  150.2950 C   0  0  0  0  0  0  0  0  0  0  0  0
  161.3420  202.5410  151.2600 C   0  0  0  0  0  2  0  0  0  0  0  0
  161.4070  203.6220  148.9690 C   0  0  0  0  0  3  0  0  0  0  0  0
  161.2740  202.4780  148.0120 C   0  0  0  0  0  0  0  0  0  0  0  0
  161.3470  202.9510  146.5150 C   0  0  0  0  0  2  0  0  0  0  0  0
  160.0380  203.2390  145.7350 C   0  0  2  0  0  3  0  0  0  0  0  0
  159.8460  202.1380  144.6770 C   0  0  0  0  0  1  0  0  0  0  0  0
  160.0920  204.6620  145.1220 C   0  0  0  0  0  2  0  0  0  0  0  0
  161.3660  204.9090  144.4260 N   0  0  0  0  0  0  0  0  0  0  0  0
  162.0310  207.0710  147.1400 C   0  0  1  0  0  3  0  0  0  0  0  0
  164.0350  204.5630  145.8900 O   0  0  0  0  0  0  0  0  0  0  0  0
  162.7390  205.8220  147.3500 N   0  0  0  0  0  2  0  0  0  0  0  0
  163.0610  205.3350  146.0590 C   0  0  0  0  0  0  0  0  0  0  0  0
  162.2380  205.9380  144.9710 C   0  0  2  0  0  3  0  0  0  0  0  0
  161.4280  206.9970  145.7430 C   0  0  0  0  0  2  0  0  0  0  0  0
  161.0220  207.2920  148.2460 C   0  0  0  0  0  2  0  0  0  0  0  0
  161.5360  207.8230  149.5730 N   0  0  0  0  0  2  0  0  0  0  0  0
  162.0500  209.1070  150.0080 C   0  0  0  0  0  0  0  0  0  0  0  0
  162.3180  209.4080  151.4450 N   0  0  0  0  0  1  0  0  0  0  0  0
  162.3370  209.9970  149.2270 O   0  0  0  0  0  0  0  0  0  0  0  0
  161.1280  205.1450  142.9960 C   0  0  0  0  0  2  0  0  0  0  0  0
  161.6340  206.4170  142.3410 C   0  0  0  0  0  2  0  0  0  0  0  0
  161.6300  206.1070  140.8240 C   0  0  0  0  0  2  0  0  0  0  0  0
  162.3330  207.0170  139.7810 C   0  0  2  0  0  0  0  0  0  0  0  0
  163.4800  206.3030  139.0970 C   0  0  0  0  0  1  0  0  0  0  0  0
  162.9570  208.2100  140.4910 C   0  0  0  0  0  2  0  0  0  0  0  0
  162.0230  209.3120  140.4300 N   0  0  0  0  0  1  0  0  0  0  0  0
  161.6050  207.8960  137.4940 O   0  0  0  0  0  1  0  0  0  0  0  0
  161.2190  207.3390  138.7380 C   0  0  0  0  0  2  0  0  0  0  0  0
  161.2310  205.1190  150.8040 C   0  0  0  0  0  2  0  0  0  0  0  0
  161.1210  206.3260  153.0030 C   0  0  0  0  0  0  0  0  0  0  0  0
  161.7870  205.4930  152.1830 C   0  0  0  0  0  3  0  0  0  0  0  0
  159.9040  207.0170  152.5390 C   0  0  0  0  0  1  0  0  0  0  0  0
  161.5670  206.7530  154.3570 C   0  0  0  0  0  3  0  0  0  0  0  0
  161.3820  207.9400  154.9440 C   0  0  0  0  0  0  0  0  0  0  0  0
  161.8420  207.9250  156.4140 C   0  0  0  0  0  1  0  0  0  0  0  0
  160.1970  209.9560  153.3030 C   0  0  1  0  0  3  0  0  0  0  0  0
  161.4520  209.9200  153.9880 O   0  0  0  0  0  0  0  0  0  0  0  0
  160.5230  209.0920  154.5150 C   0  0  2  0  0  3  0  0  0  0  0  0
  159.3240  210.9440  153.9000 N   0  0  0  0  0  2  0  0  0  0  0  0
  158.6660  213.2630  154.2410 C   0  0  0  0  0  1  0  0  0  0  0  0
  159.6760  212.3170  153.6530 C   0  0  2  0  0  3  0  0  0  0  0  0
  158.9650  213.7920  151.6570 N   0  0  0  0  0  2  0  0  0  0  0  0
  159.7010  212.6530  152.2240 C   0  0  0  0  0  0  0  0  0  0  0  0
  160.4660  211.9930  151.4250 O   0  0  0  0  0  0  0  0  0  0  0  0
  159.0120  214.1390  150.2510 C   0  0  1  0  0  3  0  0  0  0  0  0
  161.4960  214.4530  150.4750 O   0  0  0  0  0  1  0  0  0  0  0  0
  162.4060  214.0240  147.9620 N   0  0  0  0  0  1  0  0  0  0  0  0
  160.0410  214.2730  147.7120 S   0  0  0  0  0  0  0  0  0  0  0  0
  160.4770  214.0220  149.5670 C   0  0  2  0  0  0  0  0  0  0  0  0
  161.2440  213.3130  148.4870 C   0  0  2  0  0  3  0  0  0  0  0  0
  157.8210  214.4530  149.6000 O   0  0  0  0  0  0  0  0  0  0  0  0
  157.5640  213.3030  148.2870 S   0  0  0  0  0  0  0  0  0  0  0  0
  156.2750  213.7410  146.2350 N   0  0  0  0  0  1  0  0  0  0  0  0
  156.4060  214.3610  147.5600 C   0  0  0  0  0  2  0  0  0  0  0  0
  1  5  1  0  0  0  0
  2  1  2  0  0  0  0
  3  2  1  0  0  0  0
  4 33  1  0  0  0  0
  4  5  1  0  0  0  0
  6  4  2  0  0  0  0
  7  3  2  0  0  0  0
  7  6  1  0  0  0  0
  8  7  1  0  0  0  0
  9 10  1  6  0  0  0
  9  8  1  0  0  0  0
 11  9  1  0  0  0  0
 12 11  1  0  0  0  0
 13 15  1  0  0  0  0
 13 19  1  1  0  0  0
 14 16  2  0  0  0  0
 16 15  1  0  0  0  0
 17 12  1  1  0  0  0
 17 18  1  0  0  0  0
 17 16  1  0  0  0  0
 18 13  1  0  0  0  0
 19 20  1  0  0  0  0
 20 21  1  0  0  0  0
 21 22  1  0  0  0  0
 23 21  2  0  0  0  0
 24 12  1  0  0  0  0
 25 24  1  0  0  0  0
 26 25  1  0  0  0  0
 27 28  1  6  0  0  0
 27 29  1  0  0  0  0
 27 26  1  0  0  0  0
 30 29  1  0  0  0  0
 31 32  1  0  0  0  0
 32 27  1  0  0  0  0
 33 35  1  0  0  0  0
 34 37  1  0  0  0  0
 35 34  2  0  0  0  0
 36 34  1  0  0  0  0
 37 38  2  0  0  0  0
 38 39  1  0  0  0  0
 40 43  1  1  0  0  0
 40 41  1  0  0  0  0
 40 42  1  0  0  0  0
 41 42  1  0  0  0  0
 42 38  1  6  0  0  0
 45 43  1  0  0  0  0
 45 44  1  1  0  0  0
 46 47  1  0  0  0  0
 47 45  1  0  0  0  0
 48 47  2  0  0  0  0
 49 55  1  6  0  0  0
 49 46  1  0  0  0  0
 52 54  1  0  0  0  0
 52 53  1  0  0  0  0
 53 49  1  0  0  0  0
 53 50  1  1  0  0  0
 54 51  1  6  0  0  0
 54 53  1  0  0  0  0
 56 55  1  0  0  0  0
 57 58  1  0  0  0  0
 58 56  1  0  0  0  0
M  END
>  <MODEL>
4

>  <REMARK>
 VINA RESULT:       0.1      2.669      8.781
  Name = 
  25 active torsions:
  status: ('A' for Active; 'I' for Inactive)
    1  A    between atoms: C_2  and  C_30
    2  A    between atoms: C_5  and  C_16
    3  A    between atoms: C_7  and  N_17
    4  A    between atoms: C_7  and  C_57
    5  A    between atoms: C_8  and  C_13
    6  A    between atoms: C_8  and  C_35
    7  A    between atoms: C_9  and  C_21
    8  A    between atoms: C_9  and  C_49
    9  A    between atoms: C_10  and  C_14
   10  A    between atoms: C_11  and  N_34
   11  A    between atoms: C_14  and  C_32
   12  A    between atoms: C_14  and  C_39
   13  A    between atoms: N_17  and  C_21
   14  A    between atoms: N_17  and  C_50
   15  A    between atoms: C_19  and  N_34
   16  A    between atoms: C_19  and  C_38
   17  A    between atoms: C_23  and  N_24
   18  A    between atoms: C_23  and  C_36
   19  A    between atoms: C_23  and  O_43
   20  A    between atoms: N_25  and  C_30
   21  A    between atoms: C_27  and  C_40
   22  A    between atoms: C_32  and  C_57
   23  A    between atoms: O_43  and  S_53
   24  A    between atoms: C_46  and  S_53
   25  A    between atoms: C_49  and  C_56
                            x       y       z     vdW  Elec       q    Type
                         _______ _______ _______ _____ _____    ______ ____

>  <TORSDO>
F 25

$$$$
=
 OpenBabel11042420073D

 58 61  0  0  1  0  0  0  0  0999 V2000
  161.1180  202.4890  151.4650 C   0  0  0  0  0  3  0  0  0  0  0  0
  161.1940  202.4230  150.1430 C   0  0  0  0  0  3  0  0  0  0  0  0
  161.2510  203.5340  149.1670 C   0  0  0  0  0  3  0  0  0  0  0  0
  160.8220  205.1080  151.8600 C   0  0  0  0  0  0  0  0  0  0  0  0
  161.1970  203.7370  152.3440 C   0  0  0  0  0  2  0  0  0  0  0  0
  160.8880  205.5610  150.6110 C   0  0  0  0  0  3  0  0  0  0  0  0
  161.0790  204.8650  149.2990 C   0  0  0  0  0  0  0  0  0  0  0  0
  160.9760  205.8590  148.0860 C   0  0  0  0  0  2  0  0  0  0  0  0
  161.3050  205.3610  146.6540 C   0  0  2  0  0  3  0  0  0  0  0  0
  162.6470  205.9760  146.2180 C   0  0  0  0  0  1  0  0  0  0  0  0
  160.1390  205.7120  145.6940 C   0  0  0  0  0  2  0  0  0  0  0  0
  160.4400  205.3270  144.3050 N   0  0  0  0  0  0  0  0  0  0  0  0
  160.3780  201.9420  145.3140 C   0  0  1  0  0  3  0  0  0  0  0  0
  157.7450  203.8720  144.2150 O   0  0  0  0  0  0  0  0  0  0  0  0
  159.0770  202.5310  145.5650 N   0  0  0  0  0  2  0  0  0  0  0  0
  158.8960  203.5190  144.5670 C   0  0  0  0  0  0  0  0  0  0  0  0
  160.1680  203.9510  143.9190 C   0  0  2  0  0  3  0  0  0  0  0  0
  161.1860  202.9870  144.5540 C   0  0  0  0  0  2  0  0  0  0  0  0
  161.0070  201.4880  146.6140 C   0  0  0  0  0  2  0  0  0  0  0  0
  161.1600  199.9940  146.8390 N   0  0  0  0  0  2  0  0  0  0  0  0
  161.3350  198.8590  145.9530 C   0  0  0  0  0  0  0  0  0  0  0  0
  161.6470  197.4930  146.4670 N   0  0  0  0  0  1  0  0  0  0  0  0
  161.1910  198.9420  144.7450 O   0  0  0  0  0  0  0  0  0  0  0  0
  161.8210  205.6920  143.9630 C   0  0  0  0  0  2  0  0  0  0  0  0
  162.0890  206.8390  143.0060 C   0  0  0  0  0  2  0  0  0  0  0  0
  161.5540  206.3460  141.6410 C   0  0  0  0  0  2  0  0  0  0  0  0
  162.0000  206.9710  140.2910 C   0  0  2  0  0  0  0  0  0  0  0  0
  160.8280  207.5580  139.5320 C   0  0  0  0  0  1  0  0  0  0  0  0
  162.5660  205.8800  139.3930 C   0  0  0  0  0  2  0  0  0  0  0  0
  162.6660  206.4060  138.0500 N   0  0  0  0  0  1  0  0  0  0  0  0
  162.6000  209.4500  140.4510 O   0  0  0  0  0  1  0  0  0  0  0  0
  162.9840  208.1090  140.6990 C   0  0  0  0  0  2  0  0  0  0  0  0
  160.3160  206.1560  152.8380 C   0  0  0  0  0  2  0  0  0  0  0  0
  160.9740  207.4480  154.8880 C   0  0  0  0  0  0  0  0  0  0  0  0
  161.3030  206.9860  153.6680 C   0  0  0  0  0  3  0  0  0  0  0  0
  159.6010  207.2900  155.4020 C   0  0  0  0  0  1  0  0  0  0  0  0
  161.8510  208.2580  155.7750 C   0  0  0  0  0  3  0  0  0  0  0  0
  162.0270  209.5840  155.7640 C   0  0  0  0  0  0  0  0  0  0  0  0
  162.8830  210.0530  156.9550 C   0  0  0  0  0  1  0  0  0  0  0  0
  160.4190  210.8480  153.7700 C   0  0  1  0  0  3  0  0  0  0  0  0
  161.8130  210.5250  153.7870 O   0  0  0  0  0  0  0  0  0  0  0  0
  161.2670  210.6400  155.0180 C   0  0  2  0  0  3  0  0  0  0  0  0
  160.2330  212.2830  153.8030 N   0  0  0  0  0  2  0  0  0  0  0  0
  157.9140  211.6490  153.4240 C   0  0  0  0  0  1  0  0  0  0  0  0
  158.9350  212.7530  153.4000 C   0  0  2  0  0  3  0  0  0  0  0  0
  159.9580  212.9300  151.0360 N   0  0  0  0  0  0  0  0  0  0  0  0
  158.9080  213.2440  152.0160 C   0  0  0  0  0  0  0  0  0  0  0  0
  157.8860  213.9020  151.5900 O   0  0  0  0  0  0  0  0  0  0  0  0
  159.9170  213.3910  149.6630 C   0  0  0  0  0  0  0  0  0  0  0  0
  162.0300  212.0430  149.4770 O   0  0  0  0  0  1  0  0  0  0  0  0
  162.8790  212.5620  146.9610 N   0  0  0  0  0  1  0  0  0  0  0  0
  161.1990  214.2100  147.3810 S   0  0  0  0  0  0  0  0  0  0  0  0
  161.1090  212.8320  148.7180 C   0  0  2  0  0  0  0  0  0  0  0  0
  161.4590  212.5090  147.2930 C   0  0  2  0  0  3  0  0  0  0  0  0
  158.8460  214.1840  149.2570 O   0  0  0  0  0  0  0  0  0  0  0  0
  157.6900  213.1820  148.3780 S   0  0  0  0  0  0  0  0  0  0  0  0
  155.9610  214.3890  147.1070 N   0  0  0  0  0  1  0  0  0  0  0  0
  157.4220  214.4530  147.2390 C   0  0  0  0  0  2  0  0  0  0  0  0
  1  5  1  0  0  0  0
  2  1  2  0  0  0  0
  3  7  2  0  0  0  0
  3  2  1  0  0  0  0
  4  5  1  0  0  0  0
  4 33  1  0  0  0  0
  6  4  2  0  0  0  0
  7  6  1  0  0  0  0
  8  7  1  0  0  0  0
  9 10  1  6  0  0  0
  9  8  1  0  0  0  0
 11  9  1  0  0  0  0
 12 11  1  0  0  0  0
 13 15  1  0  0  0  0
 13 19  1  1  0  0  0
 14 16  2  0  0  0  0
 16 15  1  0  0  0  0
 17 12  1  1  0  0  0
 17 18  1  0  0  0  0
 17 16  1  0  0  0  0
 18 13  1  0  0  0  0
 19 20  1  0  0  0  0
 21 22  1  0  0  0  0
 21 20  1  0  0  0  0
 23 21  2  0  0  0  0
 24 12  1  0  0  0  0
 25 24  1  0  0  0  0
 26 25  1  0  0  0  0
 27 28  1  6  0  0  0
 27 32  1  0  0  0  0
 27 26  1  0  0  0  0
 29 27  1  0  0  0  0
 30 29  1  0  0  0  0
 31 32  1  0  0  0  0
 33 35  1  0  0  0  0
 34 36  1  0  0  0  0
 34 37  1  0  0  0  0
 35 34  2  0  0  0  0
 38 37  2  0  0  0  0
 38 39  1  0  0  0  0
 40 41  1  0  0  0  0
 40 43  1  1  0  0  0
 40 42  1  0  0  0  0
 41 42  1  0  0  0  0
 42 38  1  6  0  0  0
 45 44  1  6  0  0  0
 45 43  1  0  0  0  0
 46 47  1  0  0  0  0
 47 45  1  0  0  0  0
 48 47  2  0  0  0  0
 49 46  2  0  0  0  0
 52 53  1  0  0  0  0
 53 50  1  1  0  0  0
 53 49  1  0  0  0  0
 54 51  1  1  0  0  0
 54 52  1  0  0  0  0
 54 53  1  0  0  0  0
 55 49  1  0  0  0  0
 56 55  1  0  0  0  0
 57 58  1  0  0  0  0
 58 56  1  0  0  0  0
M  END
>  <MODEL>
5

>  <REMARK>
 VINA RESULT:       0.3      3.529     10.179
  Name = 
  25 active torsions:
  status: ('A' for Active; 'I' for Inactive)
    1  A    between atoms: C_2  and  C_30
    2  A    between atoms: C_5  and  C_16
    3  A    between atoms: C_7  and  N_17
    4  A    between atoms: C_7  and  C_57
    5  A    between atoms: C_8  and  C_13
    6  A    between atoms: C_8  and  C_35
    7  A    between atoms: C_9  and  C_21
    8  A    between atoms: C_9  and  C_49
    9  A    between atoms: C_10  and  C_14
   10  A    between atoms: C_11  and  N_34
   11  A    between atoms: C_14  and  C_32
   12  A    between atoms: C_14  and  C_39
   13  A    between atoms: N_17  and  C_21
   14  A    between atoms: N_17  and  C_50
   15  A    between atoms: C_19  and  N_34
   16  A    between atoms: C_19  and  C_38
   17  A    between atoms: C_23  and  N_24
   18  A    between atoms: C_23  and  C_36
   19  A    between atoms: C_23  and  O_43
   20  A    between atoms: N_25  and  C_30
   21  A    between atoms: C_27  and  C_40
   22  A    between atoms: C_32  and  C_57
   23  A    between atoms: O_43  and  S_53
   24  A    between atoms: C_46  and  S_53
   25  A    between atoms: C_49  and  C_56
                            x       y       z     vdW  Elec       q    Type
                         _______ _______ _______ _____ _____    ______ ____

>  <TORSDO>
F 25

$$$$
