=
 OpenBabel11052409453D

 31 35  0  0  1  0  0  0  0  0999 V2000
  161.2820  209.6560  151.4970 C   0  0  1  0  0  3  0  0  0  0  0  0
  161.2280  204.0910  149.7390 C   0  0  0  0  0  0  0  0  0  0  0  0
  160.9720  204.5170  151.8580 C   0  0  0  0  0  0  0  0  0  0  0  0
  160.9040  205.1070  150.6090 C   0  0  1  0  0  3  0  0  0  0  0  0
  161.4510  202.9570  150.4300 N   0  0  0  0  0  0  0  0  0  0  0  0
  161.3260  204.1930  148.2560 C   0  0  0  0  0  1  0  0  0  0  0  0
  161.7860  208.2430  151.8290 C   0  0  1  0  0  3  0  0  0  0  0  0
  160.6760  206.5460  150.2720 C   0  0  0  0  0  2  0  0  0  0  0  0
  161.0440  207.6080  153.0090 C   0  0  0  0  0  2  0  0  0  0  0  0
  161.2960  203.2180  151.7210 N   0  0  0  0  0  0  0  0  0  0  0  0
  160.7080  205.1610  153.1840 C   0  0  0  0  0  2  0  0  0  0  0  0
  161.6800  206.3010  153.4470 C   0  0  0  0  0  2  0  0  0  0  0  0
  161.9320  207.3500  150.5900 C   0  0  0  0  0  2  0  0  0  0  0  0
  158.2720  210.7320  153.0070 O   0  0  0  0  0  0  0  0  0  0  0  0
  160.9170  210.5400  152.7000 C   0  0  2  0  0  0  0  0  0  0  0  0
  159.4480  210.9580  152.7800 C   0  0  0  0  0  0  0  0  0  0  0  0
  160.5830  211.8870  152.3420 C   0  0  0  0  0  2  0  0  0  0  0  0
  160.9100  210.0990  155.2710 C   0  0  0  0  0  1  0  0  0  0  0  0
  161.6500  210.4210  154.0140 C   0  0  0  0  0  0  0  0  0  0  0  0
  162.9820  210.4770  154.0550 C   0  0  0  0  0  2  0  0  0  0  0  0
  162.2100  210.3160  150.6390 O   0  0  0  0  0  0  0  0  0  0  0  0
  162.0100  210.4300  149.2590 C   0  0  0  0  0  0  0  0  0  0  0  0
  161.9940  209.3810  148.5590 O   0  0  0  0  0  0  0  0  0  0  0  0
  160.6090  213.6040  148.5300 C   0  0  2  0  0  3  0  0  0  0  0  0
  161.0170  213.0360  147.1850 C   0  0  1  0  0  3  0  0  0  0  0  0
  161.1860  212.7050  149.4510 O   0  0  0  0  0  0  0  0  0  0  0  0
  163.1000  212.3720  148.0640 C   0  0  0  0  0  2  0  0  0  0  0  0
  162.5100  213.3340  147.0410 C   0  0  0  0  0  2  0  0  0  0  0  0
  159.2180  213.5800  148.6560 O   0  0  0  0  0  1  0  0  0  0  0  0
  160.9940  211.6780  147.4630 O   0  0  0  0  0  0  0  0  0  0  0  0
  161.8070  211.7670  148.5930 C   0  0  1  0  0  0  0  0  0  0  0  0
  1 21  1  1  0  0  0
  1 15  1  0  0  0  0
  2  5  2  0  0  0  0
  2  4  1  0  0  0  0
  3 11  1  0  0  0  0
  4  8  1  1  0  0  0
  4  3  1  0  0  0  0
  5 10  1  0  0  0  0
  6  2  1  0  0  0  0
  7  1  1  6  0  0  0
  7  9  1  0  0  0  0
  8 13  1  0  0  0  0
  9 12  1  0  0  0  0
 10  3  2  0  0  0  0
 11 12  1  0  0  0  0
 13  7  1  0  0  0  0
 15 16  1  0  0  0  0
 15 19  1  1  0  0  0
 16 14  2  0  0  0  0
 17 15  1  0  0  0  0
 17 16  1  0  0  0  0
 19 20  2  0  0  0  0
 19 18  1  0  0  0  0
 22 21  1  0  0  0  0
 23 22  2  0  0  0  0
 24 29  1  6  0  0  0
 24 26  1  0  0  0  0
 25 28  1  1  0  0  0
 25 30  1  0  0  0  0
 25 24  1  0  0  0  0
 27 31  1  0  0  0  0
 28 27  1  0  0  0  0
 30 31  1  0  0  0  0
 31 22  1  1  0  0  0
 31 26  1  0  0  0  0
M  END
>  <MODEL>
1

>  <REMARK>
 VINA RESULT:      -7.5      0.000      0.000
  Name = 
  6 active torsions:
  status: ('A' for Active; 'I' for Inactive)
    1  A    between atoms: O_2  and  C_11
    2  A    between atoms: O_2  and  C_27
    3  A    between atoms: C_11  and  C_28
    4  A    between atoms: C_14  and  C_20
    5  A    between atoms: C_14  and  C_27
    6  A    between atoms: C_17  and  C_27
                            x       y       z     vdW  Elec       q    Type
                         _______ _______ _______ _____ _____    ______ ____

>  <TORSDO>
F 6

$$$$
=
 OpenBabel11052409453D

 31 35  0  0  1  0  0  0  0  0999 V2000
  161.0230  208.6250  153.4730 C   0  0  1  0  0  3  0  0  0  0  0  0
  161.3770  205.6050  148.4910 C   0  0  0  0  0  0  0  0  0  0  0  0
  160.8920  204.5380  150.3250 C   0  0  0  0  0  0  0  0  0  0  0  0
  160.9260  205.8060  149.7750 C   0  0  1  0  0  3  0  0  0  0  0  0
  161.5760  204.2890  148.2820 N   0  0  0  0  0  0  0  0  0  0  0  0
  161.6190  206.6550  147.4630 C   0  0  0  0  0  1  0  0  0  0  0  0
  161.5490  207.3260  152.8410 C   0  0  1  0  0  3  0  0  0  0  0  0
  160.6730  207.1170  150.4480 C   0  0  0  0  0  2  0  0  0  0  0  0
  160.7200  206.0980  153.2260 C   0  0  0  0  0  2  0  0  0  0  0  0
  161.2820  203.6400  149.4000 N   0  0  0  0  0  0  0  0  0  0  0  0
  160.4700  204.1560  151.7100 C   0  0  0  0  0  2  0  0  0  0  0  0
  161.3620  204.8050  152.7570 C   0  0  0  0  0  2  0  0  0  0  0  0
  161.8560  207.4670  151.3440 C   0  0  0  0  0  2  0  0  0  0  0  0
  162.1290  210.8820  155.9580 O   0  0  0  0  0  0  0  0  0  0  0  0
  160.9920  208.6610  155.0090 C   0  0  2  0  0  0  0  0  0  0  0  0
  161.8770  209.7300  155.6540 C   0  0  0  0  0  0  0  0  0  0  0  0
  162.2180  208.2380  155.6180 C   0  0  0  0  0  2  0  0  0  0  0  0
  159.7650  207.0530  156.6560 C   0  0  0  0  0  1  0  0  0  0  0  0
  159.7570  208.2620  155.7800 C   0  0  0  0  0  0  0  0  0  0  0  0
  158.6810  209.0500  155.7880 C   0  0  0  0  0  2  0  0  0  0  0  0
  161.7320  209.7440  152.9490 O   0  0  0  0  0  0  0  0  0  0  0  0
  161.1480  210.6590  152.0650 C   0  0  0  0  0  0  0  0  0  0  0  0
  161.5080  210.6510  150.8560 O   0  0  0  0  0  0  0  0  0  0  0  0
  159.2130  212.6970  154.2260 C   0  0  2  0  0  3  0  0  0  0  0  0
  158.2360  212.1910  153.1830 C   0  0  1  0  0  3  0  0  0  0  0  0
  160.4670  212.3060  153.7130 O   0  0  0  0  0  0  0  0  0  0  0  0
  159.7670  212.6890  151.4630 C   0  0  0  0  0  2  0  0  0  0  0  0
  158.3970  213.1150  151.9750 C   0  0  0  0  0  2  0  0  0  0  0  0
  158.9820  212.0590  155.4460 O   0  0  0  0  0  1  0  0  0  0  0  0
  158.8740  211.0290  152.7770 O   0  0  0  0  0  0  0  0  0  0  0  0
  160.1000  211.6430  152.5180 C   0  0  1  0  0  0  0  0  0  0  0  0
  1 21  1  1  0  0  0
  1 15  1  0  0  0  0
  2  4  1  0  0  0  0
  3 11  1  0  0  0  0
  4  3  1  0  0  0  0
  4  8  1  1  0  0  0
  5  2  2  0  0  0  0
  5 10  1  0  0  0  0
  6  2  1  0  0  0  0
  7  9  1  0  0  0  0
  7  1  1  6  0  0  0
  8 13  1  0  0  0  0
 10  3  2  0  0  0  0
 11 12  1  0  0  0  0
 12  9  1  0  0  0  0
 13  7  1  0  0  0  0
 15 17  1  0  0  0  0
 15 16  1  0  0  0  0
 15 19  1  1  0  0  0
 16 14  2  0  0  0  0
 17 16  1  0  0  0  0
 19 20  2  0  0  0  0
 19 18  1  0  0  0  0
 22 21  1  0  0  0  0
 23 22  2  0  0  0  0
 24 29  1  1  0  0  0
 25 28  1  6  0  0  0
 25 24  1  0  0  0  0
 26 24  1  0  0  0  0
 27 28  1  0  0  0  0
 27 31  1  0  0  0  0
 30 25  1  0  0  0  0
 31 22  1  6  0  0  0
 31 30  1  0  0  0  0
 31 26  1  0  0  0  0
M  END
>  <MODEL>
2

>  <REMARK>
 VINA RESULT:      -7.3      2.374      3.806
  Name = 
  6 active torsions:
  status: ('A' for Active; 'I' for Inactive)
    1  A    between atoms: O_2  and  C_11
    2  A    between atoms: O_2  and  C_27
    3  A    between atoms: C_11  and  C_28
    4  A    between atoms: C_14  and  C_20
    5  A    between atoms: C_14  and  C_27
    6  A    between atoms: C_17  and  C_27
                            x       y       z     vdW  Elec       q    Type
                         _______ _______ _______ _____ _____    ______ ____

>  <TORSDO>
F 6

$$$$
=
 OpenBabel11052409453D

 31 35  0  0  1  0  0  0  0  0999 V2000
  161.1900  209.3370  151.3370 C   0  0  1  0  0  3  0  0  0  0  0  0
  161.2170  204.0610  148.8430 C   0  0  0  0  0  0  0  0  0  0  0  0
  160.8900  204.1970  150.9910 C   0  0  0  0  0  0  0  0  0  0  0  0
  160.8610  204.9500  149.8310 C   0  0  1  0  0  3  0  0  0  0  0  0
  161.4220  202.8430  149.3820 N   0  0  0  0  0  0  0  0  0  0  0  0
  161.3620  204.3620  147.3920 C   0  0  0  0  0  1  0  0  0  0  0  0
  161.6890  207.8920  151.4910 C   0  0  1  0  0  3  0  0  0  0  0  0
  160.6370  206.4210  149.6840 C   0  0  0  0  0  2  0  0  0  0  0  0
  160.9120  207.1040  152.5500 C   0  0  0  0  0  2  0  0  0  0  0  0
  161.2240  202.9280  150.6910 N   0  0  0  0  0  0  0  0  0  0  0  0
  160.5810  204.6560  152.3830 C   0  0  0  0  0  2  0  0  0  0  0  0
  161.5390  205.7490  152.8290 C   0  0  0  0  0  2  0  0  0  0  0  0
  161.8790  207.1750  150.1490 C   0  0  0  0  0  2  0  0  0  0  0  0
  162.9290  210.6670  154.1130 O   0  0  0  0  0  0  0  0  0  0  0  0
  160.7910  210.0540  152.6370 C   0  0  2  0  0  0  0  0  0  0  0  0
  161.9010  210.1750  153.6820 C   0  0  0  0  0  0  0  0  0  0  0  0
  160.7350  209.1870  153.7760 C   0  0  0  0  0  2  0  0  0  0  0  0
  158.4260  210.9250  153.3120 C   0  0  0  0  0  1  0  0  0  0  0  0
  159.7440  211.1420  152.6450 C   0  0  0  0  0  0  0  0  0  0  0  0
  160.0250  212.3540  152.1660 C   0  0  0  0  0  2  0  0  0  0  0  0
  162.1390  210.1050  150.6010 O   0  0  0  0  0  0  0  0  0  0  0  0
  162.0370  210.3040  149.2190 C   0  0  0  0  0  0  0  0  0  0  0  0
  162.0900  209.3030  148.4550 O   0  0  0  0  0  0  0  0  0  0  0  0
  160.7160  213.5510  148.6870 C   0  0  2  0  0  3  0  0  0  0  0  0
  161.0720  213.0390  147.3040 C   0  0  1  0  0  3  0  0  0  0  0  0
  161.2890  212.5910  149.5460 O   0  0  0  0  0  0  0  0  0  0  0  0
  163.1560  212.2710  148.0920 C   0  0  0  0  0  2  0  0  0  0  0  0
  162.5690  213.3010  147.1350 C   0  0  0  0  0  2  0  0  0  0  0  0
  159.3290  213.5620  148.8490 O   0  0  0  0  0  1  0  0  0  0  0  0
  161.0140  211.6710  147.5160 O   0  0  0  0  0  0  0  0  0  0  0  0
  161.8590  211.6790  148.6260 C   0  0  1  0  0  0  0  0  0  0  0  0
  1 21  1  1  0  0  0
  1 15  1  0  0  0  0
  2  5  2  0  0  0  0
  2  4  1  0  0  0  0
  3 11  1  0  0  0  0
  4  8  1  1  0  0  0
  4  3  1  0  0  0  0
  5 10  1  0  0  0  0
  6  2  1  0  0  0  0
  7  1  1  6  0  0  0
  7  9  1  0  0  0  0
  8 13  1  0  0  0  0
  9 12  1  0  0  0  0
 10  3  2  0  0  0  0
 11 12  1  0  0  0  0
 13  7  1  0  0  0  0
 15 19  1  6  0  0  0
 15 16  1  0  0  0  0
 15 17  1  0  0  0  0
 16 17  1  0  0  0  0
 16 14  2  0  0  0  0
 19 18  1  0  0  0  0
 20 19  2  0  0  0  0
 22 21  1  0  0  0  0
 23 22  2  0  0  0  0
 24 29  1  6  0  0  0
 24 26  1  0  0  0  0
 25 28  1  1  0  0  0
 25 30  1  0  0  0  0
 25 24  1  0  0  0  0
 27 31  1  0  0  0  0
 28 27  1  0  0  0  0
 30 31  1  0  0  0  0
 31 22  1  1  0  0  0
 31 26  1  0  0  0  0
M  END
>  <MODEL>
3

>  <REMARK>
 VINA RESULT:      -7.2      1.043      1.619
  Name = 
  6 active torsions:
  status: ('A' for Active; 'I' for Inactive)
    1  A    between atoms: O_2  and  C_11
    2  A    between atoms: O_2  and  C_27
    3  A    between atoms: C_11  and  C_28
    4  A    between atoms: C_14  and  C_20
    5  A    between atoms: C_14  and  C_27
    6  A    between atoms: C_17  and  C_27
                            x       y       z     vdW  Elec       q    Type
                         _______ _______ _______ _____ _____    ______ ____

>  <TORSDO>
F 6

$$$$
=
 OpenBabel11052409453D

 31 35  0  0  1  0  0  0  0  0999 V2000
  161.4400  208.1990  151.5480 C   0  0  1  0  0  3  0  0  0  0  0  0
  160.9140  202.9880  148.9720 C   0  0  0  0  0  0  0  0  0  0  0  0
  161.7080  204.6500  147.8110 C   0  0  0  0  0  0  0  0  0  0  0  0
  161.4710  204.2390  149.1100 C   0  0  1  0  0  3  0  0  0  0  0  0
  160.8460  202.6650  147.6660 N   0  0  0  0  0  0  0  0  0  0  0  0
  160.4460  202.1010  150.0730 C   0  0  0  0  0  1  0  0  0  0  0  0
  161.0030  207.4890  150.2570 C   0  0  1  0  0  3  0  0  0  0  0  0
  161.6420  205.0160  150.3760 C   0  0  0  0  0  2  0  0  0  0  0  0
  162.0040  207.6670  149.1120 C   0  0  0  0  0  2  0  0  0  0  0  0
  161.3280  203.6790  146.9600 N   0  0  0  0  0  0  0  0  0  0  0  0
  162.3140  205.9430  147.3610 C   0  0  0  0  0  2  0  0  0  0  0  0
  161.4680  207.1300  147.7960 C   0  0  0  0  0  2  0  0  0  0  0  0
  160.5270  206.0500  150.4940 C   0  0  0  0  0  2  0  0  0  0  0  0
  162.1340  210.6270  149.0750 O   0  0  0  0  0  0  0  0  0  0  0  0
  161.4580  209.7350  151.4980 C   0  0  2  0  0  0  0  0  0  0  0  0
  162.1200  210.3390  150.2580 C   0  0  0  0  0  0  0  0  0  0  0  0
  162.7670  210.2980  151.6450 C   0  0  0  0  0  2  0  0  0  0  0  0
  160.3260  212.0380  151.9670 C   0  0  0  0  0  1  0  0  0  0  0  0
  160.3640  210.5550  152.1370 C   0  0  0  0  0  0  0  0  0  0  0  0
  159.3470  209.9590  152.7600 C   0  0  0  0  0  2  0  0  0  0  0  0
  160.6640  207.7320  152.6490 O   0  0  0  0  0  0  0  0  0  0  0  0
  161.2410  207.1530  153.7850 C   0  0  0  0  0  0  0  0  0  0  0  0
  161.9350  206.1090  153.6500 O   0  0  0  0  0  0  0  0  0  0  0  0
  161.5310  209.4280  156.4890 C   0  0  2  0  0  3  0  0  0  0  0  0
  161.5580  208.0520  157.1270 C   0  0  1  0  0  3  0  0  0  0  0  0
  161.1730  209.1580  155.1520 O   0  0  0  0  0  0  0  0  0  0  0  0
  159.7340  207.3680  155.8030 C   0  0  0  0  0  2  0  0  0  0  0  0
  160.0970  207.6240  157.2600 C   0  0  0  0  0  2  0  0  0  0  0  0
  162.8040  209.9990  156.5310 O   0  0  0  0  0  1  0  0  0  0  0  0
  162.0150  207.2870  156.0650 O   0  0  0  0  0  0  0  0  0  0  0  0
  161.0600  207.7480  155.1580 C   0  0  1  0  0  0  0  0  0  0  0  0
  1 21  1  1  0  0  0
  2  4  1  0  0  0  0
  2  6  1  0  0  0  0
  3  4  1  0  0  0  0
  4  8  1  6  0  0  0
  5  2  2  0  0  0  0
  7 13  1  0  0  0  0
  7  1  1  1  0  0  0
  8 13  1  0  0  0  0
  9  7  1  0  0  0  0
 10  5  1  0  0  0  0
 10  3  2  0  0  0  0
 11 12  1  0  0  0  0
 11  3  1  0  0  0  0
 12  9  1  0  0  0  0
 14 16  2  0  0  0  0
 15  1  1  0  0  0  0
 15 17  1  0  0  0  0
 15 19  1  1  0  0  0
 16 15  1  0  0  0  0
 16 17  1  0  0  0  0
 18 19  1  0  0  0  0
 19 20  2  0  0  0  0
 21 22  1  0  0  0  0
 23 22  2  0  0  0  0
 24 29  1  6  0  0  0
 24 25  1  0  0  0  0
 25 28  1  6  0  0  0
 26 31  1  0  0  0  0
 26 24  1  0  0  0  0
 27 28  1  0  0  0  0
 30 25  1  0  0  0  0
 31 22  1  6  0  0  0
 31 27  1  0  0  0  0
 31 30  1  0  0  0  0
M  END
>  <MODEL>
4

>  <REMARK>
 VINA RESULT:      -7.0      2.614      5.856
  Name = 
  6 active torsions:
  status: ('A' for Active; 'I' for Inactive)
    1  A    between atoms: O_2  and  C_11
    2  A    between atoms: O_2  and  C_27
    3  A    between atoms: C_11  and  C_28
    4  A    between atoms: C_14  and  C_20
    5  A    between atoms: C_14  and  C_27
    6  A    between atoms: C_17  and  C_27
                            x       y       z     vdW  Elec       q    Type
                         _______ _______ _______ _____ _____    ______ ____

>  <TORSDO>
F 6

$$$$
=
 OpenBabel11052409453D

 31 35  0  0  1  0  0  0  0  0999 V2000
  160.6080  212.1770  149.8490 C   0  0  1  0  0  3  0  0  0  0  0  0
  158.1510  211.6220  155.1140 C   0  0  0  0  0  0  0  0  0  0  0  0
  157.3020  213.0550  153.7130 C   0  0  0  0  0  0  0  0  0  0  0  0
  158.1300  211.9490  153.7770 C   0  0  0  0  0  0  0  0  0  0  0  0
  157.3610  212.4690  155.8010 N   0  0  0  0  0  2  0  0  0  0  0  0
  158.9160  210.5080  155.7400 C   0  0  0  0  0  1  0  0  0  0  0  0
  160.0110  212.9570  151.0300 C   0  0  1  0  0  3  0  0  0  0  0  0
  158.9370  211.3280  152.6830 C   0  0  0  0  0  2  0  0  0  0  0  0
  158.6220  213.5260  150.7260 C   0  0  0  0  0  2  0  0  0  0  0  0
  156.8460  213.3440  154.9460 N   0  0  0  0  0  0  0  0  0  0  0  0
  156.9140  213.8330  152.4930 C   0  0  0  0  0  2  0  0  0  0  0  0
  158.1310  214.4530  151.8240 C   0  0  0  0  0  2  0  0  0  0  0  0
  160.1370  212.2140  152.3670 C   0  0  0  0  0  2  0  0  0  0  0  0
  163.4830  212.6890  147.8560 O   0  0  0  0  0  0  0  0  0  0  0  0
  160.9360  213.0020  148.5950 C   0  0  2  0  0  0  0  0  0  0  0  0
  162.4260  213.1310  148.2710 C   0  0  0  0  0  0  0  0  0  0  0  0
  161.5780  214.2510  148.8810 C   0  0  0  0  0  2  0  0  0  0  0  0
  158.9950  214.1620  147.2930 C   0  0  0  0  0  1  0  0  0  0  0  0
  159.9900  213.0560  147.4190 C   0  0  0  0  0  0  0  0  0  0  0  0
  160.1100  212.1870  146.4140 C   0  0  0  0  0  2  0  0  0  0  0  0
  161.7430  211.4300  150.2820 O   0  0  0  0  0  0  0  0  0  0  0  0
  161.8820  210.0600  150.0320 C   0  0  0  0  0  0  0  0  0  0  0  0
  162.0490  209.6730  148.8430 O   0  0  0  0  0  0  0  0  0  0  0  0
  162.1200  206.9340  151.6880 C   0  0  2  0  0  3  0  0  0  0  0  0
  160.9460  207.6380  152.3410 C   0  0  1  0  0  3  0  0  0  0  0  0
  162.7020  207.9440  150.8940 O   0  0  0  0  0  0  0  0  0  0  0  0
  162.1920  209.6310  152.5030 C   0  0  0  0  0  2  0  0  0  0  0  0
  161.5500  208.5720  153.3900 C   0  0  0  0  0  2  0  0  0  0  0  0
  161.6620  205.8980  150.8730 O   0  0  0  0  0  1  0  0  0  0  0  0
  160.5710  208.5050  151.3270 O   0  0  0  0  0  0  0  0  0  0  0  0
  161.8460  209.0420  151.1430 C   0  0  1  0  0  0  0  0  0  0  0  0
  1 21  1  1  0  0  0
  2  6  1  0  0  0  0
  2  5  1  0  0  0  0
  3  4  1  0  0  0  0
  3 10  2  0  0  0  0
  4  2  2  0  0  0  0
  7  1  1  6  0  0  0
  7 13  1  0  0  0  0
  8  4  1  0  0  0  0
  9  7  1  0  0  0  0
  9 12  1  0  0  0  0
 10  5  1  0  0  0  0
 11  3  1  0  0  0  0
 12 11  1  0  0  0  0
 13  8  1  0  0  0  0
 14 16  2  0  0  0  0
 15 19  1  6  0  0  0
 15 17  1  0  0  0  0
 15  1  1  0  0  0  0
 16 15  1  0  0  0  0
 16 17  1  0  0  0  0
 18 19  1  0  0  0  0
 20 19  2  0  0  0  0
 22 21  1  0  0  0  0
 23 22  2  0  0  0  0
 24 29  1  6  0  0  0
 24 25  1  0  0  0  0
 25 28  1  1  0  0  0
 26 31  1  0  0  0  0
 26 24  1  0  0  0  0
 27 28  1  0  0  0  0
 30 25  1  0  0  0  0
 31 22  1  6  0  0  0
 31 30  1  0  0  0  0
 31 27  1  0  0  0  0
M  END
>  <MODEL>
5

>  <REMARK>
 VINA RESULT:      -6.8      3.492      7.223
  Name = 
  6 active torsions:
  status: ('A' for Active; 'I' for Inactive)
    1  A    between atoms: O_2  and  C_11
    2  A    between atoms: O_2  and  C_27
    3  A    between atoms: C_11  and  C_28
    4  A    between atoms: C_14  and  C_20
    5  A    between atoms: C_14  and  C_27
    6  A    between atoms: C_17  and  C_27
                            x       y       z     vdW  Elec       q    Type
                         _______ _______ _______ _____ _____    ______ ____

>  <TORSDO>
F 6

$$$$
=
 OpenBabel11052409453D

 31 35  0  0  1  0  0  0  0  0999 V2000
  160.3720  209.5180  154.8390 C   0  0  1  0  0  3  0  0  0  0  0  0
  161.9560  208.8620  149.2610 C   0  0  0  0  0  0  0  0  0  0  0  0
  161.6260  207.0800  150.4670 C   0  0  0  0  0  0  0  0  0  0  0  0
  161.3600  208.4370  150.4250 C   0  0  1  0  0  3  0  0  0  0  0  0
  162.5230  207.8130  148.6330 N   0  0  0  0  0  0  0  0  0  0  0  0
  161.9890  210.2570  148.7410 C   0  0  0  0  0  1  0  0  0  0  0  0
  161.2840  208.7230  153.8910 C   0  0  1  0  0  3  0  0  0  0  0  0
  160.7030  209.2860  151.4660 C   0  0  0  0  0  2  0  0  0  0  0  0
  160.7900  207.2930  153.6510 C   0  0  0  0  0  2  0  0  0  0  0  0
  162.3230  206.7290  149.3700 N   0  0  0  0  0  0  0  0  0  0  0  0
  161.2080  206.1020  151.5210 C   0  0  0  0  0  2  0  0  0  0  0  0
  161.7980  206.4640  152.8750 C   0  0  0  0  0  2  0  0  0  0  0  0
  161.6660  209.5050  152.6280 C   0  0  0  0  0  2  0  0  0  0  0  0
  161.5510  207.2270  157.2600 O   0  0  0  0  0  0  0  0  0  0  0  0
  160.8420  209.6150  156.3000 C   0  0  2  0  0  0  0  0  0  0  0  0
  160.9790  208.2780  157.0310 C   0  0  0  0  0  0  0  0  0  0  0  0
  159.8300  209.2660  157.2520 C   0  0  0  0  0  2  0  0  0  0  0  0
  163.2360  210.6150  156.5750 C   0  0  0  0  0  1  0  0  0  0  0  0
  161.7580  210.7240  156.7590 C   0  0  0  0  0  0  0  0  0  0  0  0
  161.2550  211.8680  157.2230 C   0  0  0  0  0  2  0  0  0  0  0  0
  160.1140  210.8110  154.2980 O   0  0  0  0  0  0  0  0  0  0  0  0
  158.8320  211.3710  154.2650 C   0  0  0  0  0  0  0  0  0  0  0  0
  157.9540  210.9250  155.0530 O   0  0  0  0  0  0  0  0  0  0  0  0
  158.7270  213.3170  151.3030 C   0  0  2  0  0  3  0  0  0  0  0  0
  158.7540  214.3250  152.4360 C   0  0  1  0  0  3  0  0  0  0  0  0
  158.5250  212.0890  151.9660 O   0  0  0  0  0  0  0  0  0  0  0  0
  157.1130  213.1010  153.6030 C   0  0  0  0  0  2  0  0  0  0  0  0
  157.3090  214.4480  152.9190 C   0  0  0  0  0  2  0  0  0  0  0  0
  159.9610  213.3020  150.6490 O   0  0  0  0  0  1  0  0  0  0  0  0
  159.3550  213.5730  153.4330 O   0  0  0  0  0  0  0  0  0  0  0  0
  158.4790  212.4930  153.3220 C   0  0  1  0  0  0  0  0  0  0  0  0
  1 21  1  6  0  0  0
  1 15  1  0  0  0  0
  2  4  1  0  0  0  0
  3 11  1  0  0  0  0
  4  3  1  0  0  0  0
  4  8  1  1  0  0  0
  5  2  2  0  0  0  0
  5 10  1  0  0  0  0
  6  2  1  0  0  0  0
  7  1  1  6  0  0  0
  8 13  1  0  0  0  0
  9  7  1  0  0  0  0
 10  3  2  0  0  0  0
 11 12  1  0  0  0  0
 12  9  1  0  0  0  0
 13  7  1  0  0  0  0
 15 19  1  1  0  0  0
 15 16  1  0  0  0  0
 15 17  1  0  0  0  0
 16 17  1  0  0  0  0
 16 14  2  0  0  0  0
 18 19  1  0  0  0  0
 19 20  2  0  0  0  0
 22 21  1  0  0  0  0
 22 23  2  0  0  0  0
 24 29  1  1  0  0  0
 24 26  1  0  0  0  0
 24 25  1  0  0  0  0
 25 28  1  1  0  0  0
 25 30  1  0  0  0  0
 26 31  1  0  0  0  0
 28 27  1  0  0  0  0
 31 30  1  0  0  0  0
 31 27  1  0  0  0  0
 31 22  1  1  0  0  0
M  END
>  <MODEL>
6

>  <REMARK>
 VINA RESULT:      -6.7      2.556      4.740
  Name = 
  6 active torsions:
  status: ('A' for Active; 'I' for Inactive)
    1  A    between atoms: O_2  and  C_11
    2  A    between atoms: O_2  and  C_27
    3  A    between atoms: C_11  and  C_28
    4  A    between atoms: C_14  and  C_20
    5  A    between atoms: C_14  and  C_27
    6  A    between atoms: C_17  and  C_27
                            x       y       z     vdW  Elec       q    Type
                         _______ _______ _______ _____ _____    ______ ____

>  <TORSDO>
F 6

$$$$
=
 OpenBabel11052409453D

 31 35  0  0  1  0  0  0  0  0999 V2000
  161.2530  209.9500  153.6470 C   0  0  1  0  0  3  0  0  0  0  0  0
  156.3790  212.8960  154.9230 C   0  0  0  0  0  0  0  0  0  0  0  0
  157.3750  213.2980  153.0290 C   0  0  0  0  0  0  0  0  0  0  0  0
  157.3000  212.3660  154.0480 C   0  0  0  0  0  0  0  0  0  0  0  0
  155.9150  214.0640  154.4390 N   0  0  0  0  0  2  0  0  0  0  0  0
  155.9380  212.2970  156.2130 C   0  0  0  0  0  1  0  0  0  0  0  0
  160.5930  211.3370  153.6100 C   0  0  1  0  0  3  0  0  0  0  0  0
  158.1250  211.1340  154.2420 C   0  0  0  0  0  2  0  0  0  0  0  0
  160.1720  211.7580  152.1990 C   0  0  0  0  0  2  0  0  0  0  0  0
  156.5240  214.3090  153.2860 N   0  0  0  0  0  0  0  0  0  0  0  0
  158.2250  213.2350  151.7980 C   0  0  0  0  0  2  0  0  0  0  0  0
  159.7040  213.2030  152.1500 C   0  0  0  0  0  2  0  0  0  0  0  0
  159.5270  211.5250  154.6960 C   0  0  0  0  0  2  0  0  0  0  0  0
  160.8470  206.5570  154.5510 O   0  0  0  0  0  0  0  0  0  0  0  0
  161.1240  209.1790  154.9700 C   0  0  2  0  0  0  0  0  0  0  0  0
  160.6610  207.7270  154.8360 C   0  0  0  0  0  0  0  0  0  0  0  0
  159.7710  208.8710  155.3260 C   0  0  0  0  0  2  0  0  0  0  0  0
  162.8750  210.7080  156.1530 C   0  0  0  0  0  1  0  0  0  0  0  0
  162.0110  209.4900  156.1510 C   0  0  0  0  0  0  0  0  0  0  0  0
  161.9460  208.7520  157.2590 C   0  0  0  0  0  2  0  0  0  0  0  0
  160.7960  209.1630  152.5490 O   0  0  0  0  0  0  0  0  0  0  0  0
  161.6450  208.7450  151.5180 C   0  0  0  0  0  0  0  0  0  0  0  0
  162.4230  209.5870  150.9930 O   0  0  0  0  0  0  0  0  0  0  0  0
  161.4310  205.9920  149.2940 C   0  0  2  0  0  3  0  0  0  0  0  0
  160.8020  205.5050  150.5850 C   0  0  1  0  0  3  0  0  0  0  0  0
  162.0080  207.2260  149.6600 O   0  0  0  0  0  0  0  0  0  0  0  0
  162.5810  206.4180  151.8320 C   0  0  0  0  0  2  0  0  0  0  0  0
  161.9640  205.0710  151.4790 C   0  0  0  0  0  2  0  0  0  0  0  0
  160.4420  206.2000  148.3310 O   0  0  0  0  0  1  0  0  0  0  0  0
  160.4070  206.7090  151.1470 O   0  0  0  0  0  0  0  0  0  0  0  0
  161.6560  207.3200  151.0270 C   0  0  1  0  0  0  0  0  0  0  0  0
  1 21  1  6  0  0  0
  1 15  1  0  0  0  0
  2  6  1  0  0  0  0
  3 10  2  0  0  0  0
  3  4  1  0  0  0  0
  4  8  1  0  0  0  0
  4  2  2  0  0  0  0
  5  2  1  0  0  0  0
  7  1  1  6  0  0  0
  7 13  1  0  0  0  0
  8 13  1  0  0  0  0
  9  7  1  0  0  0  0
 10  5  1  0  0  0  0
 11 12  1  0  0  0  0
 11  3  1  0  0  0  0
 12  9  1  0  0  0  0
 14 16  2  0  0  0  0
 15 17  1  0  0  0  0
 15 19  1  1  0  0  0
 16 15  1  0  0  0  0
 16 17  1  0  0  0  0
 19 18  1  0  0  0  0
 19 20  2  0  0  0  0
 22 21  1  0  0  0  0
 23 22  2  0  0  0  0
 24 29  1  6  0  0  0
 24 26  1  0  0  0  0
 24 25  1  0  0  0  0
 25 30  1  0  0  0  0
 25 28  1  1  0  0  0
 26 31  1  0  0  0  0
 28 27  1  0  0  0  0
 31 30  1  0  0  0  0
 31 22  1  1  0  0  0
 31 27  1  0  0  0  0
M  END
>  <MODEL>
7

>  <REMARK>
 VINA RESULT:      -6.6      4.192      7.075
  Name = 
  6 active torsions:
  status: ('A' for Active; 'I' for Inactive)
    1  A    between atoms: O_2  and  C_11
    2  A    between atoms: O_2  and  C_27
    3  A    between atoms: C_11  and  C_28
    4  A    between atoms: C_14  and  C_20
    5  A    between atoms: C_14  and  C_27
    6  A    between atoms: C_17  and  C_27
                            x       y       z     vdW  Elec       q    Type
                         _______ _______ _______ _____ _____    ______ ____

>  <TORSDO>
F 6

$$$$
=
 OpenBabel11052409453D

 31 35  0  0  1  0  0  0  0  0999 V2000
  161.5290  208.2610  151.0550 C   0  0  1  0  0  3  0  0  0  0  0  0
  159.6290  211.6580  155.4030 C   0  0  0  0  0  0  0  0  0  0  0  0
  160.3360  209.6560  155.8780 C   0  0  0  0  0  0  0  0  0  0  0  0
  160.3770  210.6230  154.8910 C   0  0  0  0  0  0  0  0  0  0  0  0
  159.1890  211.3340  156.6340 N   0  0  0  0  0  2  0  0  0  0  0  0
  159.3310  212.9530  154.7290 C   0  0  0  0  0  1  0  0  0  0  0  0
  160.6840  208.2810  152.3380 C   0  0  1  0  0  3  0  0  0  0  0  0
  160.9700  210.5290  153.5220 C   0  0  0  0  0  2  0  0  0  0  0  0
  161.3800  207.5980  153.5190 C   0  0  0  0  0  2  0  0  0  0  0  0
  159.6190  210.1120  156.9210 N   0  0  0  0  0  0  0  0  0  0  0  0
  160.9890  208.3080  155.8590 C   0  0  0  0  0  2  0  0  0  0  0  0
  160.4590  207.4530  154.7180 C   0  0  0  0  0  2  0  0  0  0  0  0
  160.0810  209.6590  152.6390 C   0  0  0  0  0  2  0  0  0  0  0  0
  162.7570  207.2220  147.9070 O   0  0  0  0  0  0  0  0  0  0  0  0
  161.4780  206.9610  150.2360 C   0  0  2  0  0  0  0  0  0  0  0  0
  161.9110  207.0940  148.7740 C   0  0  0  0  0  0  0  0  0  0  0  0
  160.4560  206.9560  149.2310 C   0  0  0  0  0  2  0  0  0  0  0  0
  160.8310  204.4530  150.5490 C   0  0  0  0  0  1  0  0  0  0  0  0
  161.7080  205.6160  150.8810 C   0  0  0  0  0  0  0  0  0  0  0  0
  162.7710  205.4120  151.6600 C   0  0  0  0  0  2  0  0  0  0  0  0
  161.2120  209.3890  150.2440 O   0  0  0  0  0  0  0  0  0  0  0  0
  162.0860  210.4700  150.0840 C   0  0  0  0  0  0  0  0  0  0  0  0
  163.0810  210.5670  150.8520 O   0  0  0  0  0  0  0  0  0  0  0  0
  160.5670  213.1110  148.2690 C   0  0  2  0  0  3  0  0  0  0  0  0
  161.1700  212.2030  147.2140 C   0  0  1  0  0  3  0  0  0  0  0  0
  161.0910  212.5990  149.4740 O   0  0  0  0  0  0  0  0  0  0  0  0
  163.1750  212.0560  148.4430 C   0  0  0  0  0  2  0  0  0  0  0  0
  162.6440  212.5940  147.1200 C   0  0  0  0  0  2  0  0  0  0  0  0
  159.1760  212.9840  148.2690 O   0  0  0  0  0  1  0  0  0  0  0  0
  161.2070  211.0000  147.9020 O   0  0  0  0  0  0  0  0  0  0  0  0
  161.8730  211.5130  149.0160 C   0  0  1  0  0  0  0  0  0  0  0  0
  1 21  1  6  0  0  0
  2  5  1  0  0  0  0
  3 10  2  0  0  0  0
  4  2  2  0  0  0  0
  4  3  1  0  0  0  0
  5 10  1  0  0  0  0
  6  2  1  0  0  0  0
  7  1  1  6  0  0  0
  7 13  1  0  0  0  0
  7  9  1  0  0  0  0
  8  4  1  0  0  0  0
  9 12  1  0  0  0  0
 11  3  1  0  0  0  0
 12 11  1  0  0  0  0
 13  8  1  0  0  0  0
 14 16  2  0  0  0  0
 15 19  1  1  0  0  0
 15  1  1  0  0  0  0
 16 17  1  0  0  0  0
 16 15  1  0  0  0  0
 17 15  1  0  0  0  0
 18 19  1  0  0  0  0
 19 20  2  0  0  0  0
 22 21  1  0  0  0  0
 22 23  2  0  0  0  0
 24 29  1  1  0  0  0
 24 26  1  0  0  0  0
 25 28  1  1  0  0  0
 25 30  1  0  0  0  0
 25 24  1  0  0  0  0
 27 31  1  0  0  0  0
 28 27  1  0  0  0  0
 30 31  1  0  0  0  0
 31 26  1  0  0  0  0
 31 22  1  1  0  0  0
M  END
>  <MODEL>
8

>  <REMARK>
 VINA RESULT:      -6.5      2.747      5.218
  Name = 
  6 active torsions:
  status: ('A' for Active; 'I' for Inactive)
    1  A    between atoms: O_2  and  C_11
    2  A    between atoms: O_2  and  C_27
    3  A    between atoms: C_11  and  C_28
    4  A    between atoms: C_14  and  C_20
    5  A    between atoms: C_14  and  C_27
    6  A    between atoms: C_17  and  C_27
                            x       y       z     vdW  Elec       q    Type
                         _______ _______ _______ _____ _____    ______ ____

>  <TORSDO>
F 6

$$$$
=
 OpenBabel11052409453D

 31 35  0  0  1  0  0  0  0  0999 V2000
  160.7920  209.1190  153.6410 C   0  0  1  0  0  3  0  0  0  0  0  0
  161.2340  205.7570  148.8900 C   0  0  0  0  0  0  0  0  0  0  0  0
  161.0270  204.7960  150.8320 C   0  0  0  0  0  0  0  0  0  0  0  0
  160.8460  206.0050  150.1870 C   0  0  1  0  0  3  0  0  0  0  0  0
  161.6020  204.4680  148.7670 N   0  0  0  0  0  0  0  0  0  0  0  0
  161.2560  206.7380  147.7700 C   0  0  0  0  0  1  0  0  0  0  0  0
  161.4520  207.8540  153.0700 C   0  0  1  0  0  3  0  0  0  0  0  0
  160.4560  207.3230  150.7760 C   0  0  0  0  0  2  0  0  0  0  0  0
  160.8310  206.5630  153.6110 C   0  0  0  0  0  2  0  0  0  0  0  0
  161.4780  203.8830  149.9510 N   0  0  0  0  0  0  0  0  0  0  0  0
  160.7570  204.4810  152.2710 C   0  0  0  0  0  2  0  0  0  0  0  0
  161.6170  205.3320  153.1930 C   0  0  0  0  0  2  0  0  0  0  0  0
  161.6350  207.9060  151.5480 C   0  0  0  0  0  2  0  0  0  0  0  0
  159.3300  207.0860  156.1370 O   0  0  0  0  0  0  0  0  0  0  0  0
  160.6720  209.1830  155.1720 C   0  0  2  0  0  0  0  0  0  0  0  0
  159.6720  208.2030  155.7890 C   0  0  0  0  0  0  0  0  0  0  0  0
  159.4180  209.7040  155.6280 C   0  0  0  0  0  2  0  0  0  0  0  0
  162.3310  208.6610  157.1170 C   0  0  0  0  0  1  0  0  0  0  0  0
  161.8460  209.5720  156.0370 C   0  0  0  0  0  0  0  0  0  0  0  0
  162.5460  210.6760  155.7720 C   0  0  0  0  0  2  0  0  0  0  0  0
  161.4400  210.2800  153.1290 O   0  0  0  0  0  0  0  0  0  0  0  0
  160.8670  211.0880  152.1400 C   0  0  0  0  0  0  0  0  0  0  0  0
  161.2480  210.9480  150.9460 O   0  0  0  0  0  0  0  0  0  0  0  0
  157.8620  212.9550  151.8960 C   0  0  2  0  0  3  0  0  0  0  0  0
  158.9120  213.9540  152.3430 C   0  0  1  0  0  3  0  0  0  0  0  0
  158.5250  211.7150  152.0110 O   0  0  0  0  0  0  0  0  0  0  0  0
  159.7220  212.4310  153.9490 C   0  0  0  0  0  2  0  0  0  0  0  0
  159.0310  213.7860  153.8580 C   0  0  0  0  0  2  0  0  0  0  0  0
  157.5210  213.1850  150.5620 O   0  0  0  0  0  1  0  0  0  0  0  0
  160.0640  213.3450  151.8690 O   0  0  0  0  0  0  0  0  0  0  0  0
  159.8070  212.1090  152.4630 C   0  0  1  0  0  0  0  0  0  0  0  0
  1 21  1  1  0  0  0
  1 15  1  0  0  0  0
  2  4  1  0  0  0  0
  3 11  1  0  0  0  0
  4  8  1  1  0  0  0
  4  3  1  0  0  0  0
  5  2  2  0  0  0  0
  5 10  1  0  0  0  0
  6  2  1  0  0  0  0
  7  9  1  0  0  0  0
  7  1  1  6  0  0  0
  8 13  1  0  0  0  0
 10  3  2  0  0  0  0
 11 12  1  0  0  0  0
 12  9  1  0  0  0  0
 13  7  1  0  0  0  0
 15 17  1  0  0  0  0
 15 16  1  0  0  0  0
 15 19  1  1  0  0  0
 16 14  2  0  0  0  0
 17 16  1  0  0  0  0
 19 18  1  0  0  0  0
 20 19  2  0  0  0  0
 22 21  1  0  0  0  0
 23 22  2  0  0  0  0
 24 29  1  6  0  0  0
 24 26  1  0  0  0  0
 24 25  1  0  0  0  0
 25 28  1  1  0  0  0
 26 31  1  0  0  0  0
 28 27  1  0  0  0  0
 30 25  1  0  0  0  0
 30 31  1  0  0  0  0
 31 22  1  6  0  0  0
 31 27  1  0  0  0  0
M  END
>  <MODEL>
9

>  <REMARK>
 VINA RESULT:      -6.4      2.471      3.409
  Name = 
  6 active torsions:
  status: ('A' for Active; 'I' for Inactive)
    1  A    between atoms: O_2  and  C_11
    2  A    between atoms: O_2  and  C_27
    3  A    between atoms: C_11  and  C_28
    4  A    between atoms: C_14  and  C_20
    5  A    between atoms: C_14  and  C_27
    6  A    between atoms: C_17  and  C_27
                            x       y       z     vdW  Elec       q    Type
                         _______ _______ _______ _____ _____    ______ ____

>  <TORSDO>
F 6

$$$$
