=
 OpenBabel11042420493D

 41 44  0  0  1  0  0  0  0  0999 V2000
  161.4470  209.1850  151.0240 C   0  0  1  0  0  3  0  0  0  0  0  0
  161.3140  208.6390  152.4200 C   0  0  0  0  0  0  0  0  0  0  0  0
  160.6340  207.5240  154.9260 C   0  0  0  0  0  2  0  0  0  0  0  0
  160.8550  209.0230  154.7760 C   0  0  0  0  0  2  0  0  0  0  0  0
  160.9350  209.4210  153.3800 N   0  0  0  0  0  0  0  0  0  0  0  0
  161.7200  206.8150  154.1340 C   0  0  0  0  0  2  0  0  0  0  0  0
  161.6070  207.1710  152.6500 C   0  0  1  0  0  3  0  0  0  0  0  0
  160.5270  206.3220  151.9970 C   0  0  0  0  0  2  0  0  0  0  0  0
  160.5250  203.5310  152.3720 O   0  0  0  0  0  0  0  0  0  0  0  0
  161.1290  205.3730  151.0740 N   0  0  0  0  0  2  0  0  0  0  0  0
  161.0320  203.9660  151.3030 C   0  0  0  0  0  0  0  0  0  0  0  0
  161.0310  203.3670  148.9020 C   0  0  0  0  0  2  0  0  0  0  0  0
  161.2500  202.1580  148.0160 C   0  0  1  0  0  3  0  0  0  0  0  0
  161.5530  203.0160  150.2780 C   0  0  2  0  0  3  0  0  0  0  0  0
  161.0820  200.6530  149.0330 S   0  0  0  0  0  0  0  0  0  0  0  0
  161.1060  201.5990  150.5890 C   0  0  0  0  0  2  0  0  0  0  0  0
  160.2280  202.1500  146.8910 C   0  0  0  0  0  2  0  0  0  0  0  0
  159.8470  201.7690  144.6230 C   0  0  0  0  0  1  0  0  0  0  0  0
  160.8910  201.9880  145.6040 N   0  0  0  0  0  2  0  0  0  0  0  0
  161.9020  210.6430  151.0180 C   0  0  0  0  0  2  0  0  0  0  0  0
  162.3410  211.0910  149.6300 C   0  0  0  0  0  2  0  0  0  0  0  0
  161.2710  211.7490  148.9630 O   0  0  0  0  0  0  0  0  0  0  0  0
  162.1020  213.9550  143.8270 N   0  0  0  0  0  2  0  0  0  0  0  0
  161.3240  213.8030  142.5950 C   0  0  2  0  0  3  0  0  0  0  0  0
  160.9580  212.3670  142.3710 C   0  0  0  0  0  3  0  0  0  0  0  0
  160.0220  211.7850  143.1210 C   0  0  0  0  0  3  0  0  0  0  0  0
  162.1100  214.2730  141.4700 N   0  0  0  0  0  1  0  0  0  0  0  0
  162.5930  213.0040  147.3890 C   0  0  0  0  0  3  0  0  0  0  0  0
  161.7830  213.4590  145.1400 C   0  0  0  0  0  0  0  0  0  0  0  0
  160.4010  212.2250  146.7270 C   0  0  0  0  0  3  0  0  0  0  0  0
  162.7760  213.5580  146.1220 C   0  0  0  0  0  3  0  0  0  0  0  0
  161.4130  212.3210  147.6940 C   0  0  0  0  0  0  0  0  0  0  0  0
  160.5630  212.7980  145.4590 C   0  0  0  0  0  0  0  0  0  0  0  0
  159.1470  212.7500  144.3530 S   0  0  0  0  0  0  0  0  0  0  0  0
  162.3570  208.4010  150.3020 O   0  0  0  0  0  0  0  0  0  0  0  0
  161.7780  208.2130  149.0390 C   0  0  0  0  0  2  0  0  0  0  0  0
  162.4920  207.1060  148.2770 C   0  0  0  0  0  2  0  0  0  0  0  0
  161.5570  206.4590  147.2620 C   0  0  0  0  0  2  0  0  0  0  0  0
  162.3400  205.6090  146.2710 C   0  0  0  0  0  2  0  0  0  0  0  0
  161.6420  205.5290  144.9530 C   0  0  0  0  0  3  0  0  0  0  0  0
  160.3630  205.5620  144.9000 N   0  0  0  0  0  2  0  0  0  0  0  0
  1 20  1  1  0  0  0
  1  2  1  0  0  0  0
  2  7  1  0  0  0  0
  2  5  2  0  0  0  0
  4  3  1  0  0  0  0
  5  4  1  0  0  0  0
  6  3  1  0  0  0  0
  7  8  1  1  0  0  0
  7  6  1  0  0  0  0
 10 11  1  0  0  0  0
 10  8  1  0  0  0  0
 11  9  2  0  0  0  0
 12 14  1  0  0  0  0
 13 17  1  6  0  0  0
 13 12  1  0  0  0  0
 13 15  1  0  0  0  0
 14 16  1  0  0  0  0
 14 11  1  1  0  0  0
 15 16  1  0  0  0  0
 18 19  1  0  0  0  0
 19 17  1  0  0  0  0
 21 20  1  0  0  0  0
 22 21  1  0  0  0  0
 23 29  1  0  0  0  0
 24 27  1  6  0  0  0
 24 23  1  0  0  0  0
 25 24  1  0  0  0  0
 25 26  2  0  0  0  0
 26 34  1  0  0  0  0
 28 32  1  0  0  0  0
 29 33  2  0  0  0  0
 29 31  1  0  0  0  0
 30 32  2  0  0  0  0
 31 28  2  0  0  0  0
 32 22  1  0  0  0  0
 33 30  1  0  0  0  0
 34 33  1  0  0  0  0
 35  1  1  0  0  0  0
 36 35  1  0  0  0  0
 37 36  1  0  0  0  0
 38 37  1  0  0  0  0
 39 38  1  0  0  0  0
 40 39  1  0  0  0  0
 41 40  2  0  0  0  0
M  END
>  <MODEL>
1

>  <REMARK>
 VINA RESULT:      -6.5      0.000      0.000
  Name = 
  16 active torsions:
  status: ('A' for Active; 'I' for Inactive)
    1  A    between atoms: O_2  and  C_32
    2  A    between atoms: O_2  and  C_39
    3  A    between atoms: C_7  and  C_9
    4  A    between atoms: C_8  and  C_12
    5  A    between atoms: C_8  and  C_39
    6  A    between atoms: C_9  and  N_14
    7  A    between atoms: C_10  and  C_39
    8  A    between atoms: C_12  and  O_40
    9  A    between atoms: C_13  and  C_17
   10  A    between atoms: C_16  and  C_38
   11  A    between atoms: C_17  and  C_33
   12  A    between atoms: C_24  and  C_32
   13  A    between atoms: C_24  and  C_33
   14  A    between atoms: N_27  and  C_34
   15  A    between atoms: C_29  and  O_40
   16  A    between atoms: C_34  and  C_37
                            x       y       z     vdW  Elec       q    Type
                         _______ _______ _______ _____ _____    ______ ____

>  <TORSDO>
F 16

$$$$
=
 OpenBabel11042420493D

 41 44  0  0  1  0  0  0  0  0999 V2000
  162.0240  206.9330  152.0430 C   0  0  1  0  0  3  0  0  0  0  0  0
  161.7900  207.1220  150.5690 C   0  0  0  0  0  0  0  0  0  0  0  0
  161.0340  207.7810  147.9260 C   0  0  0  0  0  2  0  0  0  0  0  0
  160.6580  206.4350  148.5300 C   0  0  0  0  0  2  0  0  0  0  0  0
  160.9060  206.3960  149.9610 N   0  0  0  0  0  0  0  0  0  0  0  0
  162.4710  208.0800  148.3220 C   0  0  0  0  0  2  0  0  0  0  0  0
  162.5870  208.1880  149.8440 C   0  0  1  0  0  3  0  0  0  0  0  0
  162.1360  209.5660  150.2990 C   0  0  0  0  0  2  0  0  0  0  0  0
  160.9760  212.1310  150.3990 O   0  0  0  0  0  0  0  0  0  0  0  0
  162.0140  210.4540  149.1530 N   0  0  0  0  0  2  0  0  0  0  0  0
  161.4690  211.7670  149.2980 C   0  0  0  0  0  0  0  0  0  0  0  0
  160.4170  212.2930  147.1210 C   0  0  0  0  0  2  0  0  0  0  0  0
  160.7470  212.9980  145.8210 C   0  0  1  0  0  3  0  0  0  0  0  0
  161.4680  212.6970  148.1310 C   0  0  2  0  0  3  0  0  0  0  0  0
  162.5590  213.1620  145.6930 S   0  0  0  0  0  0  0  0  0  0  0  0
  162.8120  212.6700  147.4280 C   0  0  0  0  0  2  0  0  0  0  0  0
  160.2060  212.2000  144.6470 C   0  0  0  0  0  2  0  0  0  0  0  0
  160.1910  212.3140  142.3190 C   0  0  0  0  0  1  0  0  0  0  0  0
  159.9250  213.0810  143.5210 N   0  0  0  0  0  2  0  0  0  0  0  0
  160.7660  207.2070  152.8640 C   0  0  0  0  0  2  0  0  0  0  0  0
  161.0890  207.9120  154.1740 C   0  0  0  0  0  2  0  0  0  0  0  0
  161.3050  209.3000  153.9470 O   0  0  0  0  0  0  0  0  0  0  0  0
  157.0070  212.9640  154.1330 N   0  0  0  0  0  2  0  0  0  0  0  0
  156.2790  213.5110  155.2800 C   0  0  2  0  0  3  0  0  0  0  0  0
  155.9370  212.4270  156.2580 C   0  0  0  0  0  3  0  0  0  0  0  0
  156.8860  211.8870  157.0230 C   0  0  0  0  0  3  0  0  0  0  0  0
  155.0540  214.1350  154.8180 N   0  0  0  0  0  1  0  0  0  0  0  0
  159.6220  210.6400  152.8670 C   0  0  0  0  0  3  0  0  0  0  0  0
  158.1710  212.1170  154.1470 C   0  0  0  0  0  0  0  0  0  0  0  0
  159.8990  210.8070  155.2640 C   0  0  0  0  0  3  0  0  0  0  0  0
  158.5730  211.5590  152.9270 C   0  0  0  0  0  3  0  0  0  0  0  0
  160.2800  210.2470  154.0350 C   0  0  0  0  0  0  0  0  0  0  0  0
  158.8640  211.7480  155.3340 C   0  0  0  0  0  0  0  0  0  0  0  0
  158.5640  212.5150  156.9320 S   0  0  0  0  0  0  0  0  0  0  0  0
  162.4680  205.6260  152.2800 O   0  0  0  0  0  0  0  0  0  0  0  0
  161.3090  204.8560  152.4520 C   0  0  0  0  0  2  0  0  0  0  0  0
  161.5150  203.4430  151.9240 C   0  0  0  0  0  2  0  0  0  0  0  0
  160.4020  203.0610  150.9560 C   0  0  0  0  0  2  0  0  0  0  0  0
  160.9710  202.7200  149.5860 C   0  0  0  0  0  2  0  0  0  0  0  0
  161.0120  201.2430  149.3660 C   0  0  0  0  0  3  0  0  0  0  0  0
  161.2560  200.7730  148.2000 N   0  0  0  0  0  2  0  0  0  0  0  0
  1 35  1  0  0  0  0
  1 20  1  1  0  0  0
  2  1  1  0  0  0  0
  3  6  1  0  0  0  0
  3  4  1  0  0  0  0
  4  5  1  0  0  0  0
  5  2  2  0  0  0  0
  6  7  1  0  0  0  0
  7  8  1  1  0  0  0
  7  2  1  0  0  0  0
 10 11  1  0  0  0  0
 10  8  1  0  0  0  0
 11  9  2  0  0  0  0
 12 14  1  0  0  0  0
 13 17  1  6  0  0  0
 13 12  1  0  0  0  0
 14 11  1  1  0  0  0
 15 13  1  0  0  0  0
 15 16  1  0  0  0  0
 16 14  1  0  0  0  0
 18 19  1  0  0  0  0
 19 17  1  0  0  0  0
 20 21  1  0  0  0  0
 22 32  1  0  0  0  0
 22 21  1  0  0  0  0
 23 29  1  0  0  0  0
 23 24  1  0  0  0  0
 24 27  1  6  0  0  0
 24 25  1  0  0  0  0
 25 26  2  0  0  0  0
 28 31  2  0  0  0  0
 28 32  1  0  0  0  0
 29 33  2  0  0  0  0
 30 33  1  0  0  0  0
 31 29  1  0  0  0  0
 32 30  2  0  0  0  0
 33 34  1  0  0  0  0
 34 26  1  0  0  0  0
 35 36  1  0  0  0  0
 37 36  1  0  0  0  0
 38 37  1  0  0  0  0
 39 38  1  0  0  0  0
 40 39  1  0  0  0  0
 41 40  2  0  0  0  0
M  END
>  <MODEL>
2

>  <REMARK>
 VINA RESULT:      -6.0      3.534      8.758
  Name = 
  16 active torsions:
  status: ('A' for Active; 'I' for Inactive)
    1  A    between atoms: O_2  and  C_32
    2  A    between atoms: O_2  and  C_39
    3  A    between atoms: C_7  and  C_9
    4  A    between atoms: C_8  and  C_12
    5  A    between atoms: C_8  and  C_39
    6  A    between atoms: C_9  and  N_14
    7  A    between atoms: C_10  and  C_39
    8  A    between atoms: C_12  and  O_40
    9  A    between atoms: C_13  and  C_17
   10  A    between atoms: C_16  and  C_38
   11  A    between atoms: C_17  and  C_33
   12  A    between atoms: C_24  and  C_32
   13  A    between atoms: C_24  and  C_33
   14  A    between atoms: N_27  and  C_34
   15  A    between atoms: C_29  and  O_40
   16  A    between atoms: C_34  and  C_37
                            x       y       z     vdW  Elec       q    Type
                         _______ _______ _______ _____ _____    ______ ____

>  <TORSDO>
F 16

$$$$
=
 OpenBabel11042420493D

 41 44  0  0  1  0  0  0  0  0999 V2000
  160.5650  209.9960  152.3650 C   0  0  1  0  0  3  0  0  0  0  0  0
  160.7800  210.4650  153.7790 C   0  0  0  0  0  0  0  0  0  0  0  0
  161.2340  211.7590  156.2500 C   0  0  0  0  0  2  0  0  0  0  0  0
  162.2940  210.8520  155.6410 C   0  0  0  0  0  2  0  0  0  0  0  0
  161.9800  210.4990  154.2660 N   0  0  0  0  0  0  0  0  0  0  0  0
  159.8850  211.0800  156.0700 C   0  0  0  0  0  2  0  0  0  0  0  0
  159.5750  210.9110  154.5810 C   0  0  1  0  0  3  0  0  0  0  0  0
  159.0340  212.2140  154.0160 C   0  0  0  0  0  2  0  0  0  0  0  0
  159.1240  214.3950  152.2360 O   0  0  0  0  0  0  0  0  0  0  0  0
  158.8670  212.1020  152.5760 N   0  0  0  0  0  2  0  0  0  0  0  0
  158.9880  213.2480  151.7320 C   0  0  0  0  0  0  0  0  0  0  0  0
  160.2820  213.3510  149.6250 C   0  0  0  0  0  2  0  0  0  0  0  0
  160.0560  213.5700  148.1430 C   0  0  1  0  0  3  0  0  0  0  0  0
  158.9310  213.0810  150.2500 C   0  0  2  0  0  3  0  0  0  0  0  0
  158.4300  214.3620  147.9140 S   0  0  0  0  0  0  0  0  0  0  0  0
  157.9430  214.0580  149.6420 C   0  0  0  0  0  2  0  0  0  0  0  0
  161.1570  214.4530  147.5780 C   0  0  0  0  0  2  0  0  0  0  0  0
  162.8740  212.8970  147.3290 C   0  0  0  0  0  1  0  0  0  0  0  0
  162.4530  214.0480  148.1040 N   0  0  0  0  0  2  0  0  0  0  0  0
  161.7710  210.2840  151.4740 C   0  0  0  0  0  2  0  0  0  0  0  0
  162.3090  209.0160  150.8260 C   0  0  0  0  0  2  0  0  0  0  0  0
  161.5730  208.7120  149.6480 O   0  0  0  0  0  0  0  0  0  0  0  0
  161.1300  203.4990  147.5130 N   0  0  0  0  0  2  0  0  0  0  0  0
  161.3450  203.0150  146.1480 C   0  0  2  0  0  3  0  0  0  0  0  0
  160.6900  203.9230  145.1520 C   0  0  0  0  0  3  0  0  0  0  0  0
  161.2120  205.1220  144.8880 C   0  0  0  0  0  3  0  0  0  0  0  0
  160.7830  201.6840  146.0160 N   0  0  0  0  0  1  0  0  0  0  0  0
  160.9850  206.3860  149.8540 C   0  0  0  0  0  3  0  0  0  0  0  0
  161.3650  204.8220  148.0280 C   0  0  0  0  0  0  0  0  0  0  0  0
  162.0150  207.1630  147.8080 C   0  0  0  0  0  3  0  0  0  0  0  0
  160.8970  205.1010  149.3190 C   0  0  0  0  0  3  0  0  0  0  0  0
  161.5280  207.4280  149.0970 C   0  0  0  0  0  0  0  0  0  0  0  0
  161.9560  205.8710  147.2690 C   0  0  0  0  0  0  0  0  0  0  0  0
  162.7460  205.6130  145.6760 S   0  0  0  0  0  0  0  0  0  0  0  0
  160.2940  208.6210  152.3660 O   0  0  0  0  0  0  0  0  0  0  0  0
  161.1260  208.0730  153.3530 C   0  0  0  0  0  2  0  0  0  0  0  0
  160.8900  206.5750  153.4860 C   0  0  0  0  0  2  0  0  0  0  0  0
  160.5550  206.2060  154.9260 C   0  0  0  0  0  2  0  0  0  0  0  0
  159.7990  207.3360  155.6110 C   0  0  0  0  0  2  0  0  0  0  0  0
  160.2900  207.5520  157.0050 C   0  0  0  0  0  3  0  0  0  0  0  0
  161.5230  207.8270  157.2160 N   0  0  0  0  0  2  0  0  0  0  0  0
  1 20  1  6  0  0  0
  1 35  1  0  0  0  0
  1  2  1  0  0  0  0
  2  5  2  0  0  0  0
  2  7  1  0  0  0  0
  4  3  1  0  0  0  0
  5  4  1  0  0  0  0
  6  3  1  0  0  0  0
  7  8  1  6  0  0  0
  7  6  1  0  0  0  0
 10  8  1  0  0  0  0
 11  9  2  0  0  0  0
 11 10  1  0  0  0  0
 12 14  1  0  0  0  0
 13 17  1  1  0  0  0
 13 12  1  0  0  0  0
 14 11  1  1  0  0  0
 15 13  1  0  0  0  0
 15 16  1  0  0  0  0
 16 14  1  0  0  0  0
 17 19  1  0  0  0  0
 18 19  1  0  0  0  0
 21 20  1  0  0  0  0
 22 21  1  0  0  0  0
 23 29  1  0  0  0  0
 24 27  1  1  0  0  0
 24 23  1  0  0  0  0
 25 24  1  0  0  0  0
 26 25  2  0  0  0  0
 26 34  1  0  0  0  0
 29 31  2  0  0  0  0
 30 32  1  0  0  0  0
 31 28  1  0  0  0  0
 32 22  1  0  0  0  0
 32 28  2  0  0  0  0
 33 30  2  0  0  0  0
 33 29  1  0  0  0  0
 34 33  1  0  0  0  0
 35 36  1  0  0  0  0
 36 37  1  0  0  0  0
 37 38  1  0  0  0  0
 38 39  1  0  0  0  0
 39 40  1  0  0  0  0
 40 41  2  0  0  0  0
M  END
>  <MODEL>
3

>  <REMARK>
 VINA RESULT:      -5.8      2.913      8.604
  Name = 
  16 active torsions:
  status: ('A' for Active; 'I' for Inactive)
    1  A    between atoms: O_2  and  C_32
    2  A    between atoms: O_2  and  C_39
    3  A    between atoms: C_7  and  C_9
    4  A    between atoms: C_8  and  C_12
    5  A    between atoms: C_8  and  C_39
    6  A    between atoms: C_9  and  N_14
    7  A    between atoms: C_10  and  C_39
    8  A    between atoms: C_12  and  O_40
    9  A    between atoms: C_13  and  C_17
   10  A    between atoms: C_16  and  C_38
   11  A    between atoms: C_17  and  C_33
   12  A    between atoms: C_24  and  C_32
   13  A    between atoms: C_24  and  C_33
   14  A    between atoms: N_27  and  C_34
   15  A    between atoms: C_29  and  O_40
   16  A    between atoms: C_34  and  C_37
                            x       y       z     vdW  Elec       q    Type
                         _______ _______ _______ _____ _____    ______ ____

>  <TORSDO>
F 16

$$$$
=
 OpenBabel11042420493D

 41 44  0  0  1  0  0  0  0  0999 V2000
  160.5890  209.8840  152.1830 C   0  0  1  0  0  3  0  0  0  0  0  0
  160.7860  210.3300  153.6070 C   0  0  0  0  0  0  0  0  0  0  0  0
  161.2630  211.5730  156.0990 C   0  0  0  0  0  2  0  0  0  0  0  0
  162.2360  210.5420  155.5460 C   0  0  0  0  0  2  0  0  0  0  0  0
  161.9540  210.2220  154.1570 N   0  0  0  0  0  0  0  0  0  0  0  0
  159.8540  211.0600  155.8490 C   0  0  0  0  0  2  0  0  0  0  0  0
  159.6030  210.9220  154.3460 C   0  0  1  0  0  3  0  0  0  0  0  0
  159.2530  212.2780  153.7550 C   0  0  0  0  0  2  0  0  0  0  0  0
  158.3040  214.3960  152.1600 O   0  0  0  0  0  0  0  0  0  0  0  0
  158.6960  212.1120  152.4220 N   0  0  0  0  0  2  0  0  0  0  0  0
  158.2930  213.2450  151.6500 C   0  0  0  0  0  0  0  0  0  0  0  0
  158.9610  213.3350  149.2690 C   0  0  0  0  0  2  0  0  0  0  0  0
  158.3350  213.5250  147.9020 C   0  0  1  0  0  3  0  0  0  0  0  0
  157.8380  213.0520  150.2420 C   0  0  2  0  0  3  0  0  0  0  0  0
  156.6910  214.2840  148.1160 S   0  0  0  0  0  0  0  0  0  0  0  0
  156.7000  214.0010  149.9150 C   0  0  0  0  0  2  0  0  0  0  0  0
  159.2210  214.4170  147.0480 C   0  0  0  0  0  2  0  0  0  0  0  0
  160.6300  213.3010  145.5640 C   0  0  0  0  0  1  0  0  0  0  0  0
  160.5480  213.8330  146.9100 N   0  0  0  0  0  2  0  0  0  0  0  0
  161.7860  210.2310  151.3020 C   0  0  0  0  0  2  0  0  0  0  0  0
  162.3510  209.0000  150.6070 C   0  0  0  0  0  2  0  0  0  0  0  0
  161.6600  208.7620  149.3860 O   0  0  0  0  0  0  0  0  0  0  0  0
  161.0320  203.6220  147.1220 N   0  0  0  0  0  2  0  0  0  0  0  0
  161.2870  203.1520  145.7580 C   0  0  2  0  0  3  0  0  0  0  0  0
  160.7340  204.1150  144.7510 C   0  0  0  0  0  3  0  0  0  0  0  0
  161.3340  205.2860  144.5380 C   0  0  0  0  0  3  0  0  0  0  0  0
  160.6590  201.8590  145.5710 N   0  0  0  0  0  1  0  0  0  0  0  0
  160.9340  206.4690  149.5140 C   0  0  0  0  0  3  0  0  0  0  0  0
  161.3160  204.9200  147.6760 C   0  0  0  0  0  0  0  0  0  0  0  0
  162.1060  207.2240  147.5360 C   0  0  0  0  0  3  0  0  0  0  0  0
  160.8010  205.2010  148.9480 C   0  0  0  0  0  3  0  0  0  0  0  0
  161.5710  207.4920  148.8060 C   0  0  0  0  0  0  0  0  0  0  0  0
  162.0000  205.9480  146.9680 C   0  0  0  0  0  0  0  0  0  0  0  0
  162.8520  205.6750  145.4100 S   0  0  0  0  0  0  0  0  0  0  0  0
  160.3660  208.5010  152.1550 O   0  0  0  0  0  0  0  0  0  0  0  0
  161.3350  207.9440  153.0030 C   0  0  0  0  0  2  0  0  0  0  0  0
  160.7460  206.8010  153.8180 C   0  0  0  0  0  2  0  0  0  0  0  0
  161.4400  205.4860  153.4850 C   0  0  0  0  0  2  0  0  0  0  0  0
  160.7110  204.7580  152.3640 C   0  0  0  0  0  2  0  0  0  0  0  0
  160.9000  203.2800  152.4620 C   0  0  0  0  0  3  0  0  0  0  0  0
  161.4500  202.6370  151.5010 N   0  0  0  0  0  2  0  0  0  0  0  0
  1 20  1  6  0  0  0
  1  2  1  0  0  0  0
  2  5  2  0  0  0  0
  2  7  1  0  0  0  0
  4  3  1  0  0  0  0
  5  4  1  0  0  0  0
  6  3  1  0  0  0  0
  7  8  1  6  0  0  0
  7  6  1  0  0  0  0
 10  8  1  0  0  0  0
 11  9  2  0  0  0  0
 11 10  1  0  0  0  0
 12 14  1  0  0  0  0
 13 17  1  6  0  0  0
 13 15  1  0  0  0  0
 13 12  1  0  0  0  0
 14 11  1  1  0  0  0
 15 16  1  0  0  0  0
 16 14  1  0  0  0  0
 18 19  1  0  0  0  0
 19 17  1  0  0  0  0
 21 20  1  0  0  0  0
 22 21  1  0  0  0  0
 23 29  1  0  0  0  0
 24 27  1  1  0  0  0
 24 23  1  0  0  0  0
 25 24  1  0  0  0  0
 26 25  2  0  0  0  0
 26 34  1  0  0  0  0
 29 31  2  0  0  0  0
 30 32  1  0  0  0  0
 31 28  1  0  0  0  0
 32 22  1  0  0  0  0
 32 28  2  0  0  0  0
 33 30  2  0  0  0  0
 33 29  1  0  0  0  0
 34 33  1  0  0  0  0
 35  1  1  0  0  0  0
 35 36  1  0  0  0  0
 36 37  1  0  0  0  0
 38 37  1  0  0  0  0
 39 40  1  0  0  0  0
 39 38  1  0  0  0  0
 41 40  2  0  0  0  0
M  END
>  <MODEL>
4

>  <REMARK>
 VINA RESULT:      -5.7      2.711      8.167
  Name = 
  16 active torsions:
  status: ('A' for Active; 'I' for Inactive)
    1  A    between atoms: O_2  and  C_32
    2  A    between atoms: O_2  and  C_39
    3  A    between atoms: C_7  and  C_9
    4  A    between atoms: C_8  and  C_12
    5  A    between atoms: C_8  and  C_39
    6  A    between atoms: C_9  and  N_14
    7  A    between atoms: C_10  and  C_39
    8  A    between atoms: C_12  and  O_40
    9  A    between atoms: C_13  and  C_17
   10  A    between atoms: C_16  and  C_38
   11  A    between atoms: C_17  and  C_33
   12  A    between atoms: C_24  and  C_32
   13  A    between atoms: C_24  and  C_33
   14  A    between atoms: N_27  and  C_34
   15  A    between atoms: C_29  and  O_40
   16  A    between atoms: C_34  and  C_37
                            x       y       z     vdW  Elec       q    Type
                         _______ _______ _______ _____ _____    ______ ____

>  <TORSDO>
F 16

$$$$
=
 OpenBabel11042420493D

 41 44  0  0  1  0  0  0  0  0999 V2000
  160.7850  210.9980  153.5460 C   0  0  1  0  0  3  0  0  0  0  0  0
  160.7610  209.5630  153.9990 C   0  0  0  0  0  0  0  0  0  0  0  0
  160.3350  206.8350  154.6020 C   0  0  0  0  0  2  0  0  0  0  0  0
  160.1050  207.9090  155.6560 C   0  0  0  0  0  2  0  0  0  0  0  0
  160.1230  209.2430  155.0810 N   0  0  0  0  0  0  0  0  0  0  0  0
  161.6170  207.1800  153.8610 C   0  0  0  0  0  2  0  0  0  0  0  0
  161.4680  208.5270  153.1500 C   0  0  1  0  0  3  0  0  0  0  0  0
  160.7190  208.3380  151.8400 C   0  0  0  0  0  2  0  0  0  0  0  0
  161.2250  207.9050  149.1040 O   0  0  0  0  0  0  0  0  0  0  0  0
  161.0430  207.0420  151.2630 N   0  0  0  0  0  2  0  0  0  0  0  0
  161.3490  206.9150  149.8730 C   0  0  0  0  0  0  0  0  0  0  0  0
  161.7260  205.5790  147.8240 C   0  0  0  0  0  2  0  0  0  0  0  0
  161.7840  204.1300  147.3880 C   0  0  1  0  0  3  0  0  0  0  0  0
  161.7950  205.5970  149.3350 C   0  0  2  0  0  3  0  0  0  0  0  0
  160.9630  203.1070  148.6550 S   0  0  0  0  0  0  0  0  0  0  0  0
  160.9010  204.4830  149.8470 C   0  0  0  0  0  2  0  0  0  0  0  0
  161.0900  203.9650  146.0470 C   0  0  0  0  0  2  0  0  0  0  0  0
  161.3440  205.3850  144.2150 C   0  0  0  0  0  1  0  0  0  0  0  0
  161.9920  204.3230  144.9600 N   0  0  0  0  0  2  0  0  0  0  0  0
  159.5540  211.3590  152.7180 C   0  0  0  0  0  2  0  0  0  0  0  0
  159.8880  212.3550  151.6160 C   0  0  0  0  0  2  0  0  0  0  0  0
  160.9580  211.8650  150.8160 O   0  0  0  0  0  0  0  0  0  0  0  0
  161.8130  213.1740  145.3860 N   0  0  0  0  0  2  0  0  0  0  0  0
  160.8710  213.6410  144.3650 C   0  0  2  0  0  3  0  0  0  0  0  0
  159.6080  212.8340  144.3990 C   0  0  0  0  0  3  0  0  0  0  0  0
  158.7300  212.9980  145.3900 C   0  0  0  0  0  3  0  0  0  0  0  0
  161.4790  213.5120  143.0560 N   0  0  0  0  0  1  0  0  0  0  0  0
  162.3640  211.9780  148.8650 C   0  0  0  0  0  3  0  0  0  0  0  0
  161.5630  212.9620  146.7870 C   0  0  0  0  0  0  0  0  0  0  0  0
  160.1320  212.9050  148.7620 C   0  0  0  0  0  3  0  0  0  0  0  0
  162.5650  212.3230  147.5280 C   0  0  0  0  0  3  0  0  0  0  0  0
  161.1410  212.2510  149.4840 C   0  0  0  0  0  0  0  0  0  0  0  0
  160.3310  213.2770  147.4260 C   0  0  0  0  0  0  0  0  0  0  0  0
  159.0320  214.2430  146.6450 S   0  0  0  0  0  0  0  0  0  0  0  0
  160.8670  211.8380  154.6640 O   0  0  0  0  0  0  0  0  0  0  0  0
  159.5430  212.1570  154.9970 C   0  0  0  0  0  2  0  0  0  0  0  0
  159.4850  213.4410  155.8130 C   0  0  0  0  0  2  0  0  0  0  0  0
  158.1350  214.1270  155.6460 C   0  0  0  0  0  2  0  0  0  0  0  0
  157.1870  213.2620  154.8270 C   0  0  0  0  0  2  0  0  0  0  0  0
  155.8630  213.1130  155.5050 C   0  0  0  0  0  3  0  0  0  0  0  0
  155.7070  212.2330  156.4230 N   0  0  0  0  0  2  0  0  0  0  0  0
  1 20  1  1  0  0  0
  1  2  1  0  0  0  0
  1 35  1  0  0  0  0
  2  5  2  0  0  0  0
  3  4  1  0  0  0  0
  5  4  1  0  0  0  0
  6  3  1  0  0  0  0
  7  8  1  6  0  0  0
  7  6  1  0  0  0  0
  7  2  1  0  0  0  0
  9 11  2  0  0  0  0
 10  8  1  0  0  0  0
 11 10  1  0  0  0  0
 12 14  1  0  0  0  0
 13 17  1  6  0  0  0
 13 12  1  0  0  0  0
 13 15  1  0  0  0  0
 14 16  1  0  0  0  0
 14 11  1  1  0  0  0
 15 16  1  0  0  0  0
 18 19  1  0  0  0  0
 19 17  1  0  0  0  0
 21 20  1  0  0  0  0
 22 21  1  0  0  0  0
 23 29  1  0  0  0  0
 24 27  1  6  0  0  0
 24 25  1  0  0  0  0
 24 23  1  0  0  0  0
 25 26  2  0  0  0  0
 26 34  1  0  0  0  0
 28 32  1  0  0  0  0
 29 33  2  0  0  0  0
 29 31  1  0  0  0  0
 30 32  2  0  0  0  0
 31 28  2  0  0  0  0
 32 22  1  0  0  0  0
 33 30  1  0  0  0  0
 34 33  1  0  0  0  0
 35 36  1  0  0  0  0
 36 37  1  0  0  0  0
 38 37  1  0  0  0  0
 39 40  1  0  0  0  0
 39 38  1  0  0  0  0
 40 41  2  0  0  0  0
M  END
>  <MODEL>
5

>  <REMARK>
 VINA RESULT:      -5.5      2.773      5.192
  Name = 
  16 active torsions:
  status: ('A' for Active; 'I' for Inactive)
    1  A    between atoms: O_2  and  C_32
    2  A    between atoms: O_2  and  C_39
    3  A    between atoms: C_7  and  C_9
    4  A    between atoms: C_8  and  C_12
    5  A    between atoms: C_8  and  C_39
    6  A    between atoms: C_9  and  N_14
    7  A    between atoms: C_10  and  C_39
    8  A    between atoms: C_12  and  O_40
    9  A    between atoms: C_13  and  C_17
   10  A    between atoms: C_16  and  C_38
   11  A    between atoms: C_17  and  C_33
   12  A    between atoms: C_24  and  C_32
   13  A    between atoms: C_24  and  C_33
   14  A    between atoms: N_27  and  C_34
   15  A    between atoms: C_29  and  O_40
   16  A    between atoms: C_34  and  C_37
                            x       y       z     vdW  Elec       q    Type
                         _______ _______ _______ _____ _____    ______ ____

>  <TORSDO>
F 16

$$$$
=
 OpenBabel11042420493D

 41 44  0  0  1  0  0  0  0  0999 V2000
  161.4240  212.4530  149.2030 C   0  0  1  0  0  3  0  0  0  0  0  0
  160.0760  213.0230  148.8540 C   0  0  0  0  0  0  0  0  0  0  0  0
  157.3840  213.6780  148.3010 C   0  0  0  0  0  2  0  0  0  0  0  0
  158.3920  213.5190  147.1720 C   0  0  0  0  0  2  0  0  0  0  0  0
  159.6370  212.9320  147.6380 N   0  0  0  0  0  0  0  0  0  0  0  0
  158.0600  214.4530  149.4210 C   0  0  0  0  0  2  0  0  0  0  0  0
  159.2580  213.6650  149.9550 C   0  0  1  0  0  3  0  0  0  0  0  0
  158.7820  212.6010  150.9300 C   0  0  0  0  0  2  0  0  0  0  0  0
  157.6250  212.5960  153.4980 O   0  0  0  0  0  0  0  0  0  0  0  0
  159.5400  212.6840  152.1690 N   0  0  0  0  0  2  0  0  0  0  0  0
  158.8840  212.6130  153.4360 C   0  0  0  0  0  0  0  0  0  0  0  0
  160.7390  211.4840  154.6220 C   0  0  0  0  0  2  0  0  0  0  0  0
  161.2260  211.2430  156.0370 C   0  0  1  0  0  3  0  0  0  0  0  0
  159.6980  212.5800  154.6860 C   0  0  2  0  0  3  0  0  0  0  0  0
  159.8410  211.5400  157.1860 S   0  0  0  0  0  0  0  0  0  0  0  0
  158.8160  212.3020  155.8890 C   0  0  0  0  0  2  0  0  0  0  0  0
  161.7280  209.8160  156.1740 C   0  0  0  0  0  2  0  0  0  0  0  0
  160.2010  208.0740  155.9190 C   0  0  0  0  0  1  0  0  0  0  0  0
  161.0890  208.9550  155.1870 N   0  0  0  0  0  2  0  0  0  0  0  0
  161.3150  211.0710  149.8440 C   0  0  0  0  0  2  0  0  0  0  0  0
  162.2780  210.0770  149.2090 C   0  0  0  0  0  2  0  0  0  0  0  0
  161.5900  209.2490  148.2790 O   0  0  0  0  0  0  0  0  0  0  0  0
  161.1530  203.6420  148.8280 N   0  0  0  0  0  2  0  0  0  0  0  0
  161.4400  202.5720  147.8690 C   0  0  2  0  0  3  0  0  0  0  0  0
  160.8680  202.8990  146.5230 C   0  0  0  0  0  3  0  0  0  0  0  0
  161.4340  203.8350  145.7600 C   0  0  0  0  0  3  0  0  0  0  0  0
  160.8550  201.3330  148.3440 N   0  0  0  0  0  1  0  0  0  0  0  0
  160.9350  207.2910  149.5180 C   0  0  0  0  0  3  0  0  0  0  0  0
  161.3890  205.0540  148.6730 C   0  0  0  0  0  0  0  0  0  0  0  0
  162.1070  207.0180  147.4190 C   0  0  0  0  0  3  0  0  0  0  0  0
  160.8500  205.9050  149.6470 C   0  0  0  0  0  3  0  0  0  0  0  0
  161.5490  207.8560  148.3960 C   0  0  0  0  0  0  0  0  0  0  0  0
  162.0490  205.6250  147.5500 C   0  0  0  0  0  0  0  0  0  0  0  0
  162.9280  204.6520  146.3210 S   0  0  0  0  0  0  0  0  0  0  0  0
  162.2120  212.3770  148.0460 O   0  0  0  0  0  0  0  0  0  0  0  0
  162.8660  213.6130  147.9520 C   0  0  0  0  0  2  0  0  0  0  0  0
  162.7650  214.1710  146.5390 C   0  0  0  0  0  2  0  0  0  0  0  0
  162.6140  213.0450  145.5230 C   0  0  0  0  0  2  0  0  0  0  0  0
  163.2430  213.4300  144.1910 C   0  0  0  0  0  2  0  0  0  0  0  0
  162.2030  213.6390  143.1390 C   0  0  0  0  0  3  0  0  0  0  0  0
  162.0590  212.7800  142.1990 N   0  0  0  0  0  2  0  0  0  0  0  0
  1 20  1  6  0  0  0
  2  1  1  0  0  0  0
  2  7  1  0  0  0  0
  3  6  1  0  0  0  0
  4  5  1  0  0  0  0
  4  3  1  0  0  0  0
  5  2  2  0  0  0  0
  6  7  1  0  0  0  0
  7  8  1  1  0  0  0
  8 10  1  0  0  0  0
 10 11  1  0  0  0  0
 11  9  2  0  0  0  0
 12 14  1  0  0  0  0
 12 13  1  0  0  0  0
 13 17  1  6  0  0  0
 13 15  1  0  0  0  0
 14 11  1  6  0  0  0
 14 16  1  0  0  0  0
 16 15  1  0  0  0  0
 19 18  1  0  0  0  0
 19 17  1  0  0  0  0
 21 20  1  0  0  0  0
 22 32  1  0  0  0  0
 22 21  1  0  0  0  0
 24 27  1  1  0  0  0
 24 23  1  0  0  0  0
 25 24  1  0  0  0  0
 26 34  1  0  0  0  0
 26 25  2  0  0  0  0
 28 31  1  0  0  0  0
 29 23  1  0  0  0  0
 29 31  2  0  0  0  0
 30 33  2  0  0  0  0
 30 32  1  0  0  0  0
 32 28  2  0  0  0  0
 33 29  1  0  0  0  0
 34 33  1  0  0  0  0
 35  1  1  0  0  0  0
 36 35  1  0  0  0  0
 37 36  1  0  0  0  0
 38 37  1  0  0  0  0
 39 38  1  0  0  0  0
 40 39  1  0  0  0  0
 41 40  2  0  0  0  0
M  END
>  <MODEL>
6

>  <REMARK>
 VINA RESULT:      -5.3      3.329      8.943
  Name = 
  16 active torsions:
  status: ('A' for Active; 'I' for Inactive)
    1  A    between atoms: O_2  and  C_32
    2  A    between atoms: O_2  and  C_39
    3  A    between atoms: C_7  and  C_9
    4  A    between atoms: C_8  and  C_12
    5  A    between atoms: C_8  and  C_39
    6  A    between atoms: C_9  and  N_14
    7  A    between atoms: C_10  and  C_39
    8  A    between atoms: C_12  and  O_40
    9  A    between atoms: C_13  and  C_17
   10  A    between atoms: C_16  and  C_38
   11  A    between atoms: C_17  and  C_33
   12  A    between atoms: C_24  and  C_32
   13  A    between atoms: C_24  and  C_33
   14  A    between atoms: N_27  and  C_34
   15  A    between atoms: C_29  and  O_40
   16  A    between atoms: C_34  and  C_37
                            x       y       z     vdW  Elec       q    Type
                         _______ _______ _______ _____ _____    ______ ____

>  <TORSDO>
F 16

$$$$
=
 OpenBabel11042420493D

 41 44  0  0  1  0  0  0  0  0999 V2000
  162.1140  205.4110  151.7630 C   0  0  1  0  0  3  0  0  0  0  0  0
  161.7830  205.9500  150.3980 C   0  0  0  0  0  0  0  0  0  0  0  0
  160.8600  207.2250  148.0510 C   0  0  0  0  0  2  0  0  0  0  0  0
  160.5040  205.7730  148.3370 C   0  0  0  0  0  2  0  0  0  0  0  0
  160.8480  205.3910  149.6970 N   0  0  0  0  0  0  0  0  0  0  0  0
  162.3260  207.4210  148.4050 C   0  0  0  0  0  2  0  0  0  0  0  0
  162.5460  207.1590  149.8960 C   0  0  1  0  0  3  0  0  0  0  0  0
  162.1500  208.3870  150.7000 C   0  0  0  0  0  2  0  0  0  0  0  0
  161.0520  210.8790  151.4160 O   0  0  0  0  0  0  0  0  0  0  0  0
  162.1830  209.5690  149.8530 N   0  0  0  0  0  2  0  0  0  0  0  0
  161.6580  210.8150  150.3130 C   0  0  0  0  0  0  0  0  0  0  0  0
  160.5600  212.8810  149.5070 C   0  0  0  0  0  2  0  0  0  0  0  0
  160.6330  213.8460  148.3400 C   0  0  1  0  0  3  0  0  0  0  0  0
  161.8150  212.0360  149.4700 C   0  0  2  0  0  3  0  0  0  0  0  0
  161.5110  213.0300  146.9660 S   0  0  0  0  0  0  0  0  0  0  0  0
  162.0680  211.6560  148.0240 C   0  0  0  0  0  2  0  0  0  0  0  0
  159.2310  214.2420  147.9090 C   0  0  0  0  0  2  0  0  0  0  0  0
  158.3550  212.6970  146.4000 C   0  0  0  0  0  1  0  0  0  0  0  0
  159.0400  213.9710  146.4910 N   0  0  0  0  0  2  0  0  0  0  0  0
  161.0130  205.7080  152.7800 C   0  0  0  0  0  2  0  0  0  0  0  0
  161.5690  206.3610  154.0380 C   0  0  0  0  0  2  0  0  0  0  0  0
  160.5070  206.8190  154.8670 O   0  0  0  0  0  0  0  0  0  0  0  0
  160.6570  212.0580  156.9800 N   0  0  0  0  0  2  0  0  0  0  0  0
  159.7200  213.1710  156.8150 C   0  0  2  0  0  3  0  0  0  0  0  0
  159.3170  213.3200  155.3790 C   0  0  0  0  0  3  0  0  0  0  0  0
  158.4870  212.4400  154.8180 C   0  0  0  0  0  3  0  0  0  0  0  0
  160.3510  214.3990  157.2590 N   0  0  0  0  0  1  0  0  0  0  0  0
  161.6150  208.5770  156.0840 C   0  0  0  0  0  3  0  0  0  0  0  0
  160.5130  210.7050  156.5090 C   0  0  0  0  0  0  0  0  0  0  0  0
  159.3480  208.9260  155.3140 C   0  0  0  0  0  3  0  0  0  0  0  0
  161.6300  209.8670  156.6150 C   0  0  0  0  0  3  0  0  0  0  0  0
  160.4810  208.1050  155.4160 C   0  0  0  0  0  0  0  0  0  0  0  0
  159.3430  210.2140  155.8650 C   0  0  0  0  0  0  0  0  0  0  0  0
  157.7910  211.1190  155.8120 S   0  0  0  0  0  0  0  0  0  0  0  0
  162.3200  204.0270  151.6800 O   0  0  0  0  0  0  0  0  0  0  0  0
  161.0480  203.4470  151.7860 C   0  0  0  0  0  2  0  0  0  0  0  0
  161.0610  202.0170  151.2640 C   0  0  0  0  0  2  0  0  0  0  0  0
  161.3260  201.9920  149.7640 C   0  0  0  0  0  2  0  0  0  0  0  0
  160.0930  201.5220  149.0050 C   0  0  0  0  0  2  0  0  0  0  0  0
  160.3470  201.4670  147.5340 C   0  0  0  0  0  3  0  0  0  0  0  0
  161.1860  202.2720  146.9970 N   0  0  0  0  0  2  0  0  0  0  0  0
  1 20  1  1  0  0  0
  2  1  1  0  0  0  0
  3  4  1  0  0  0  0
  3  6  1  0  0  0  0
  4  5  1  0  0  0  0
  5  2  2  0  0  0  0
  6  7  1  0  0  0  0
  7  2  1  0  0  0  0
  7  8  1  1  0  0  0
 10 11  1  0  0  0  0
 10  8  1  0  0  0  0
 11  9  2  0  0  0  0
 13 17  1  6  0  0  0
 13 12  1  0  0  0  0
 14 12  1  0  0  0  0
 14 11  1  1  0  0  0
 15 16  1  0  0  0  0
 15 13  1  0  0  0  0
 16 14  1  0  0  0  0
 18 19  1  0  0  0  0
 19 17  1  0  0  0  0
 20 21  1  0  0  0  0
 21 22  1  0  0  0  0
 22 32  1  0  0  0  0
 24 23  1  0  0  0  0
 24 27  1  6  0  0  0
 25 24  1  0  0  0  0
 26 25  2  0  0  0  0
 26 34  1  0  0  0  0
 28 31  1  0  0  0  0
 29 31  2  0  0  0  0
 29 23  1  0  0  0  0
 30 32  1  0  0  0  0
 30 33  2  0  0  0  0
 32 28  2  0  0  0  0
 33 29  1  0  0  0  0
 34 33  1  0  0  0  0
 35  1  1  0  0  0  0
 35 36  1  0  0  0  0
 37 36  1  0  0  0  0
 38 37  1  0  0  0  0
 39 38  1  0  0  0  0
 40 39  1  0  0  0  0
 41 40  2  0  0  0  0
M  END
>  <MODEL>
7

>  <REMARK>
 VINA RESULT:      -5.1      3.212      9.063
  Name = 
  16 active torsions:
  status: ('A' for Active; 'I' for Inactive)
    1  A    between atoms: O_2  and  C_32
    2  A    between atoms: O_2  and  C_39
    3  A    between atoms: C_7  and  C_9
    4  A    between atoms: C_8  and  C_12
    5  A    between atoms: C_8  and  C_39
    6  A    between atoms: C_9  and  N_14
    7  A    between atoms: C_10  and  C_39
    8  A    between atoms: C_12  and  O_40
    9  A    between atoms: C_13  and  C_17
   10  A    between atoms: C_16  and  C_38
   11  A    between atoms: C_17  and  C_33
   12  A    between atoms: C_24  and  C_32
   13  A    between atoms: C_24  and  C_33
   14  A    between atoms: N_27  and  C_34
   15  A    between atoms: C_29  and  O_40
   16  A    between atoms: C_34  and  C_37
                            x       y       z     vdW  Elec       q    Type
                         _______ _______ _______ _____ _____    ______ ____

>  <TORSDO>
F 16

$$$$
=
 OpenBabel11042420493D

 41 44  0  0  1  0  0  0  0  0999 V2000
  160.8690  208.4580  152.7630 C   0  0  1  0  0  3  0  0  0  0  0  0
  160.6160  209.8870  153.1590 C   0  0  0  0  0  0  0  0  0  0  0  0
  159.7090  212.4380  153.9700 C   0  0  0  0  0  2  0  0  0  0  0  0
  160.0590  212.1650  152.5140 C   0  0  0  0  0  2  0  0  0  0  0  0
  160.2480  210.7460  152.2610 N   0  0  0  0  0  0  0  0  0  0  0  0
  160.7770  211.7850  154.8330 C   0  0  0  0  0  2  0  0  0  0  0  0
  160.7750  210.2700  154.6160 C   0  0  1  0  0  3  0  0  0  0  0  0
  159.6670  209.6330  155.4400 C   0  0  0  0  0  2  0  0  0  0  0  0
  158.1780  211.1920  157.2510 O   0  0  0  0  0  0  0  0  0  0  0  0
  158.3910  210.2560  155.1260 N   0  0  0  0  0  2  0  0  0  0  0  0
  157.7260  211.0850  156.0800 C   0  0  0  0  0  0  0  0  0  0  0  0
  156.6030  212.3730  154.2890 C   0  0  0  0  0  2  0  0  0  0  0  0
  155.5120  213.4120  154.1270 C   0  0  1  0  0  3  0  0  0  0  0  0
  156.4810  211.8070  155.6870 C   0  0  2  0  0  3  0  0  0  0  0  0
  155.2240  214.2090  155.7420 S   0  0  0  0  0  0  0  0  0  0  0  0
  156.2180  212.9670  156.6280 C   0  0  0  0  0  2  0  0  0  0  0  0
  155.9320  214.4460  153.0960 C   0  0  0  0  0  2  0  0  0  0  0  0
  155.9450  214.4520  150.7650 C   0  0  0  0  0  1  0  0  0  0  0  0
  155.0740  214.3690  151.9210 N   0  0  0  0  0  2  0  0  0  0  0  0
  161.9730  208.3390  151.7140 C   0  0  0  0  0  2  0  0  0  0  0  0
  161.4600  208.6570  150.3170 C   0  0  0  0  0  2  0  0  0  0  0  0
  162.3440  208.1310  149.3340 O   0  0  0  0  0  0  0  0  0  0  0  0
  161.1190  203.2390  146.7860 N   0  0  0  0  0  2  0  0  0  0  0  0
  161.1000  202.8920  145.3630 C   0  0  2  0  0  3  0  0  0  0  0  0
  160.4060  203.9550  144.5660 C   0  0  0  0  0  3  0  0  0  0  0  0
  161.0000  205.1290  144.3480 C   0  0  0  0  0  3  0  0  0  0  0  0
  160.4000  201.6350  145.1850 N   0  0  0  0  0  1  0  0  0  0  0  0
  161.5700  205.8520  149.3950 C   0  0  0  0  0  3  0  0  0  0  0  0
  161.5480  204.4730  147.3890 C   0  0  0  0  0  0  0  0  0  0  0  0
  162.3830  206.7640  147.3070 C   0  0  0  0  0  3  0  0  0  0  0  0
  161.2880  204.6450  148.7540 C   0  0  0  0  0  3  0  0  0  0  0  0
  162.1030  206.9230  148.6720 C   0  0  0  0  0  0  0  0  0  0  0  0
  162.1270  205.5490  146.6590 C   0  0  0  0  0  0  0  0  0  0  0  0
  162.6660  205.4050  144.9500 S   0  0  0  0  0  0  0  0  0  0  0  0
  161.2140  207.7140  153.8990 O   0  0  0  0  0  0  0  0  0  0  0  0
  161.9040  206.5910  153.4230 C   0  0  0  0  0  2  0  0  0  0  0  0
  160.9320  205.5440  152.8960 C   0  0  0  0  0  2  0  0  0  0  0  0
  161.6240  204.1950  152.7410 C   0  0  0  0  0  2  0  0  0  0  0  0
  160.6300  203.1240  152.3130 C   0  0  0  0  0  2  0  0  0  0  0  0
  161.1840  202.2770  151.2130 C   0  0  0  0  0  3  0  0  0  0  0  0
  160.5220  202.1200  150.1280 N   0  0  0  0  0  2  0  0  0  0  0  0
  1 20  1  6  0  0  0
  1  2  1  0  0  0  0
  1 35  1  0  0  0  0
  2  7  1  0  0  0  0
  3  6  1  0  0  0  0
  4  3  1  0  0  0  0
  5  4  1  0  0  0  0
  5  2  2  0  0  0  0
  7  6  1  0  0  0  0
  7  8  1  1  0  0  0
 10  8  1  0  0  0  0
 10 11  1  0  0  0  0
 11  9  2  0  0  0  0
 12 14  1  0  0  0  0
 13 17  1  6  0  0  0
 13 12  1  0  0  0  0
 13 15  1  0  0  0  0
 14 11  1  1  0  0  0
 14 16  1  0  0  0  0
 15 16  1  0  0  0  0
 18 19  1  0  0  0  0
 19 17  1  0  0  0  0
 21 20  1  0  0  0  0
 22 21  1  0  0  0  0
 23 29  1  0  0  0  0
 24 27  1  1  0  0  0
 24 23  1  0  0  0  0
 25 24  1  0  0  0  0
 26 25  2  0  0  0  0
 26 34  1  0  0  0  0
 29 31  2  0  0  0  0
 30 32  1  0  0  0  0
 31 28  1  0  0  0  0
 32 22  1  0  0  0  0
 32 28  2  0  0  0  0
 33 30  2  0  0  0  0
 33 29  1  0  0  0  0
 34 33  1  0  0  0  0
 36 35  1  0  0  0  0
 37 36  1  0  0  0  0
 38 37  1  0  0  0  0
 39 38  1  0  0  0  0
 40 39  1  0  0  0  0
 41 40  2  0  0  0  0
M  END
>  <MODEL>
8

>  <REMARK>
 VINA RESULT:      -5.0      4.469      8.730
  Name = 
  16 active torsions:
  status: ('A' for Active; 'I' for Inactive)
    1  A    between atoms: O_2  and  C_32
    2  A    between atoms: O_2  and  C_39
    3  A    between atoms: C_7  and  C_9
    4  A    between atoms: C_8  and  C_12
    5  A    between atoms: C_8  and  C_39
    6  A    between atoms: C_9  and  N_14
    7  A    between atoms: C_10  and  C_39
    8  A    between atoms: C_12  and  O_40
    9  A    between atoms: C_13  and  C_17
   10  A    between atoms: C_16  and  C_38
   11  A    between atoms: C_17  and  C_33
   12  A    between atoms: C_24  and  C_32
   13  A    between atoms: C_24  and  C_33
   14  A    between atoms: N_27  and  C_34
   15  A    between atoms: C_29  and  O_40
   16  A    between atoms: C_34  and  C_37
                            x       y       z     vdW  Elec       q    Type
                         _______ _______ _______ _____ _____    ______ ____

>  <TORSDO>
F 16

$$$$
=
 OpenBabel11042420493D

 41 44  0  0  1  0  0  0  0  0999 V2000
  161.1470  205.2630  148.4200 C   0  0  1  0  0  3  0  0  0  0  0  0
  161.0550  203.9150  149.0830 C   0  0  0  0  0  0  0  0  0  0  0  0
  161.3100  201.4660  150.4690 C   0  0  0  0  0  2  0  0  0  0  0  0
  161.3080  201.5010  148.9480 C   0  0  0  0  0  2  0  0  0  0  0  0
  161.4310  202.8570  148.4380 N   0  0  0  0  0  0  0  0  0  0  0  0
  160.2300  202.4180  150.9560 C   0  0  0  0  0  2  0  0  0  0  0  0
  160.5470  203.8470  150.5090 C   0  0  1  0  0  3  0  0  0  0  0  0
  161.5680  204.4670  151.4500 C   0  0  0  0  0  2  0  0  0  0  0  0
  162.7060  206.5590  152.9530 O   0  0  0  0  0  0  0  0  0  0  0  0
  160.8910  205.1540  152.5380 N   0  0  0  0  0  2  0  0  0  0  0  0
  161.5120  206.2490  153.2130 C   0  0  0  0  0  0  0  0  0  0  0  0
  161.5750  208.1440  154.8020 C   0  0  0  0  0  2  0  0  0  0  0  0
  160.9150  208.5910  156.0910 C   0  0  1  0  0  3  0  0  0  0  0  0
  160.7460  207.0110  154.2420 C   0  0  2  0  0  3  0  0  0  0  0  0
  160.1450  207.1400  156.8820 S   0  0  0  0  0  0  0  0  0  0  0  0
  160.3650  206.1060  155.3990 C   0  0  0  0  0  2  0  0  0  0  0  0
  161.9500  209.2090  157.0150 C   0  0  0  0  0  2  0  0  0  0  0  0
  163.4650  210.9470  156.6730 C   0  0  0  0  0  1  0  0  0  0  0  0
  162.0510  210.6420  156.7780 N   0  0  0  0  0  2  0  0  0  0  0  0
  162.5940  205.6930  148.1910 C   0  0  0  0  0  2  0  0  0  0  0  0
  162.7520  207.2060  148.2700 C   0  0  0  0  0  2  0  0  0  0  0  0
  162.6050  207.6470  149.6150 O   0  0  0  0  0  0  0  0  0  0  0  0
  160.3610  212.7170  150.7070 N   0  0  0  0  0  2  0  0  0  0  0  0
  159.6540  213.2030  151.8940 C   0  0  2  0  0  3  0  0  0  0  0  0
  158.6450  212.1980  152.3610 C   0  0  0  0  0  3  0  0  0  0  0  0
  159.0400  211.0760  152.9630 C   0  0  0  0  0  3  0  0  0  0  0  0
  158.9740  214.4430  151.5740 N   0  0  0  0  0  1  0  0  0  0  0  0
  161.9910  209.8760  148.9430 C   0  0  0  0  0  3  0  0  0  0  0  0
  161.0120  211.4460  150.5240 C   0  0  0  0  0  0  0  0  0  0  0  0
  161.6680  209.2110  151.2460 C   0  0  0  0  0  3  0  0  0  0  0  0
  161.4490  211.1290  149.2320 C   0  0  0  0  0  3  0  0  0  0  0  0
  162.0880  208.9050  149.9430 C   0  0  0  0  0  0  0  0  0  0  0  0
  161.1460  210.4730  151.5540 C   0  0  0  0  0  0  0  0  0  0  0  0
  160.7840  210.8080  153.2820 S   0  0  0  0  0  0  0  0  0  0  0  0
  160.4640  205.2270  147.1970 O   0  0  0  0  0  0  0  0  0  0  0  0
  161.4110  205.5760  146.2240 C   0  0  0  0  0  2  0  0  0  0  0  0
  160.8070  205.4950  144.8290 C   0  0  0  0  0  2  0  0  0  0  0  0
  160.3460  204.0760  144.5210 C   0  0  0  0  0  2  0  0  0  0  0  0
  161.1920  203.0580  145.2750 C   0  0  0  0  0  2  0  0  0  0  0  0
  160.4820  201.7500  145.4030 C   0  0  0  0  0  3  0  0  0  0  0  0
  159.5820  201.4210  144.5530 N   0  0  0  0  0  2  0  0  0  0  0  0
  1 20  1  6  0  0  0
  1  2  1  0  0  0  0
  2  7  1  0  0  0  0
  3  6  1  0  0  0  0
  4  3  1  0  0  0  0
  5  4  1  0  0  0  0
  5  2  2  0  0  0  0
  7  6  1  0  0  0  0
  7  8  1  1  0  0  0
  8 10  1  0  0  0  0
  9 11  2  0  0  0  0
 10 11  1  0  0  0  0
 12 13  1  0  0  0  0
 13 15  1  0  0  0  0
 13 17  1  1  0  0  0
 14 11  1  6  0  0  0
 14 12  1  0  0  0  0
 14 16  1  0  0  0  0
 16 15  1  0  0  0  0
 18 19  1  0  0  0  0
 19 17  1  0  0  0  0
 20 21  1  0  0  0  0
 21 22  1  0  0  0  0
 22 32  1  0  0  0  0
 23 24  1  0  0  0  0
 24 27  1  6  0  0  0
 24 25  1  0  0  0  0
 25 26  2  0  0  0  0
 26 34  1  0  0  0  0
 28 31  2  0  0  0  0
 28 32  1  0  0  0  0
 29 23  1  0  0  0  0
 29 33  2  0  0  0  0
 30 33  1  0  0  0  0
 31 29  1  0  0  0  0
 32 30  2  0  0  0  0
 33 34  1  0  0  0  0
 35  1  1  0  0  0  0
 36 35  1  0  0  0  0
 37 36  1  0  0  0  0
 38 37  1  0  0  0  0
 38 39  1  0  0  0  0
 39 40  1  0  0  0  0
 41 40  2  0  0  0  0
M  END
>  <MODEL>
9

>  <REMARK>
 VINA RESULT:      -4.8      3.970      7.283
  Name = 
  16 active torsions:
  status: ('A' for Active; 'I' for Inactive)
    1  A    between atoms: O_2  and  C_32
    2  A    between atoms: O_2  and  C_39
    3  A    between atoms: C_7  and  C_9
    4  A    between atoms: C_8  and  C_12
    5  A    between atoms: C_8  and  C_39
    6  A    between atoms: C_9  and  N_14
    7  A    between atoms: C_10  and  C_39
    8  A    between atoms: C_12  and  O_40
    9  A    between atoms: C_13  and  C_17
   10  A    between atoms: C_16  and  C_38
   11  A    between atoms: C_17  and  C_33
   12  A    between atoms: C_24  and  C_32
   13  A    between atoms: C_24  and  C_33
   14  A    between atoms: N_27  and  C_34
   15  A    between atoms: C_29  and  O_40
   16  A    between atoms: C_34  and  C_37
                            x       y       z     vdW  Elec       q    Type
                         _______ _______ _______ _____ _____    ______ ____

>  <TORSDO>
F 16

$$$$
