=
 OpenBabel11042421283D

 53 56  0  0  1  0  0  0  0  0999 V2000
  160.6480  209.6730  152.3590 C   0  0  1  0  0  3  0  0  0  0  0  0
  157.5150  213.2590  152.6930 C   0  0  0  0  0  0  0  0  0  0  0  0
  156.6590  213.0070  153.8970 C   0  0  0  0  0  1  0  0  0  0  0  0
  157.0400  214.0100  151.7510 N   0  0  0  0  0  0  0  0  0  0  0  0
  159.5670  214.3900  150.6380 S   0  0  0  0  0  0  0  0  0  0  0  0
  158.9710  212.8760  152.7360 C   0  0  1  0  0  3  0  0  0  0  0  0
  159.3040  211.5510  153.3750 C   0  0  0  0  0  2  0  0  0  0  0  0
  160.8740  212.1080  151.5850 C   0  0  0  0  0  2  0  0  0  0  0  0
  160.6590  211.1590  152.7780 C   0  0  2  0  0  3  0  0  0  0  0  0
  159.5300  212.7420  151.3640 C   0  0  2  0  0  3  0  0  0  0  0  0
  157.7290  214.3940  150.5170 C   0  0  1  0  0  3  0  0  0  0  0  0
  157.2920  213.5030  149.3570 C   0  0  0  0  0  2  0  0  0  0  0  0
  157.9430  213.9240  148.1210 N   0  0  0  0  0  2  0  0  0  0  0  0
  157.0610  212.4770  146.3760 C   0  0  0  0  0  1  0  0  0  0  0  0
  158.2010  212.7160  147.3510 C   0  0  1  0  0  3  0  0  0  0  0  0
  159.5500  212.8230  146.6370 C   0  0  1  0  0  3  0  0  0  0  0  0
  161.3700  212.7830  147.8980 C   0  0  0  0  0  1  0  0  0  0  0  0
  160.4740  211.9510  147.2230 O   0  0  0  0  0  0  0  0  0  0  0  0
  159.4130  212.5190  145.2160 N   0  0  0  0  0  2  0  0  0  0  0  0
  160.6430  212.9430  144.5590 C   0  0  0  0  0  2  0  0  0  0  0  0
  160.4370  213.0110  143.0570 C   0  0  1  0  0  3  0  0  0  0  0  0
  161.5390  213.6260  142.4670 O   0  0  0  0  0  1  0  0  0  0  0  0
  160.2740  211.6170  142.4790 C   0  0  0  0  0  1  0  0  0  0  0  0
  161.1460  209.4800  150.9850 N   0  0  0  0  0  2  0  0  0  0  0  0
  161.4900  208.0820  150.7220 C   0  0  2  0  0  3  0  0  0  0  0  0
  162.7720  207.7940  151.2060 O   0  0  0  0  0  1  0  0  0  0  0  0
  161.4430  207.8160  149.2340 C   0  0  0  0  0  2  0  0  0  0  0  0
  162.2920  206.7510  148.9360 O   0  0  0  0  0  0  0  0  0  0  0  0
  161.7460  206.1400  147.8030 C   0  0  1  0  0  3  0  0  0  0  0  0
  160.1650  206.7560  146.1500 O   0  0  0  0  0  0  0  0  0  0  0  0
  160.8150  207.1030  147.1290 C   0  0  0  0  0  3  0  0  0  0  0  0
  162.8660  205.7500  146.8450 C   0  0  0  0  0  2  0  0  0  0  0  0
  162.6810  204.3140  146.3710 C   0  0  0  0  0  3  0  0  0  0  0  0
  161.7760  204.3000  145.1560 C   0  0  0  0  0  2  0  0  0  0  0  0
  163.2770  204.1810  144.9840 C   0  0  0  0  0  2  0  0  0  0  0  0
  161.3720  208.7370  153.3490 C   0  0  0  0  0  2  0  0  0  0  0  0
  160.5460  208.3640  154.5690 C   0  0  0  0  0  2  0  0  0  0  0  0
  160.5400  206.8540  154.7220 C   0  0  0  0  0  2  0  0  0  0  0  0
  160.4160  206.1950  153.3670 C   0  0  0  0  0  2  0  0  0  0  0  0
  161.5270  205.2810  153.1820 N   0  0  0  0  0  2  0  0  0  0  0  0
  160.9970  204.0850  152.5520 C   0  0  0  0  0  2  0  0  0  0  0  0
  160.4380  204.4180  151.3200 O   0  0  0  0  0  0  0  0  0  0  0  0
  161.2360  203.7690  150.3760 C   0  0  0  0  0  2  0  0  0  0  0  0
  159.1930  202.4960  149.6910 O   0  0  0  0  0  1  0  0  0  0  0  0
  161.3810  201.5740  149.0190 C   0  0  1  0  0  3  0  0  0  0  0  0
  162.2370  201.3160  151.2320 O   0  0  0  0  0  1  0  0  0  0  0  0
  160.5660  202.4700  149.9390 C   0  0  1  0  0  0  0  0  0  0  0  0
  161.0890  201.1390  150.4570 C   0  0  1  0  0  3  0  0  0  0  0  0
  160.5490  200.8700  148.1450 O   0  0  0  0  0  0  0  0  0  0  0  0
  161.2010  200.9120  146.9110 C   0  0  1  0  0  3  0  0  0  0  0  0
  161.5520  199.6220  146.5180 O   0  0  0  0  0  1  0  0  0  0  0  0
  160.1110  200.6850  144.7860 O   0  0  0  0  0  1  0  0  0  0  0  0
  160.3040  201.5530  145.8630 C   0  0  0  0  0  2  0  0  0  0  0  0
  1 36  1  1  0  0  0
  2  6  1  0  0  0  0
  2  3  1  0  0  0  0
  4  2  2  0  0  0  0
  5 10  1  0  0  0  0
  6  7  1  6  0  0  0
  8  9  1  0  0  0  0
  9  1  1  6  0  0  0
  9  7  1  0  0  0  0
 10  8  1  1  0  0  0
 10  6  1  0  0  0  0
 11 12  1  6  0  0  0
 11  5  1  0  0  0  0
 11  4  1  0  0  0  0
 13 12  1  0  0  0  0
 15 14  1  6  0  0  0
 15 13  1  0  0  0  0
 16 19  1  6  0  0  0
 16 18  1  0  0  0  0
 16 15  1  0  0  0  0
 18 17  1  0  0  0  0
 20 19  1  0  0  0  0
 21 23  1  6  0  0  0
 21 20  1  0  0  0  0
 22 21  1  0  0  0  0
 24  1  1  0  0  0  0
 25 24  1  0  0  0  0
 25 26  1  6  0  0  0
 27 25  1  0  0  0  0
 28 27  1  0  0  0  0
 29 32  1  6  0  0  0
 29 28  1  0  0  0  0
 30 31  2  0  0  0  0
 31 29  1  0  0  0  0
 33 32  1  0  0  0  0
 34 33  1  0  0  0  0
 35 34  1  0  0  0  0
 35 33  1  0  0  0  0
 36 37  1  0  0  0  0
 37 38  1  0  0  0  0
 39 38  1  0  0  0  0
 40 39  1  0  0  0  0
 41 40  1  0  0  0  0
 42 41  1  0  0  0  0
 43 42  1  0  0  0  0
 45 49  1  6  0  0  0
 45 47  1  0  0  0  0
 45 48  1  0  0  0  0
 47 44  1  6  0  0  0
 47 43  1  0  0  0  0
 47 48  1  0  0  0  0
 48 46  1  1  0  0  0
 50 51  1  6  0  0  0
 50 49  1  0  0  0  0
 52 53  1  0  0  0  0
 53 50  1  0  0  0  0
M  END
>  <MODEL>
1

>  <REMARK>
 VINA RESULT:      -4.3      0.000      0.000
  Name = 
  29 active torsions:
  status: ('A' for Active; 'I' for Inactive)
    1  A    between atoms: C_3  and  N_46
    2  A    between atoms: C_3  and  C_53
    3  A    between atoms: C_4  and  C_18
    4  A    between atoms: C_4  and  N_32
    5  A    between atoms: C_5  and  C_20
    6  A    between atoms: C_5  and  C_38
    7  A    between atoms: C_8  and  O_19
    8  A    between atoms: C_9  and  C_10
    9  A    between atoms: C_10  and  C_29
   10  A    between atoms: C_13  and  O_19
   11  A    between atoms: C_13  and  C_36
   12  A    between atoms: O_15  and  C_29
   13  A    between atoms: O_15  and  C_51
   14  A    between atoms: C_16  and  C_20
   15  A    between atoms: C_16  and  C_23
   16  A    between atoms: C_21  and  O_34
   17  A    between atoms: C_21  and  N_45
   18  A    between atoms: C_23  and  C_43
   19  A    between atoms: C_23  and  N_50
   20  A    between atoms: C_25  and  N_32
   21  A    between atoms: C_25  and  O_47
   22  A    between atoms: C_25  and  C_49
   23  A    between atoms: C_26  and  O_34
   24  A    between atoms: C_26  and  C_40
   25  A    between atoms: C_29  and  C_41
   26  A    between atoms: C_30  and  N_50
   27  A    between atoms: C_30  and  C_51
   28  A    between atoms: C_38  and  N_45
   29  A    between atoms: N_46  and  C_49
                            x       y       z     vdW  Elec       q    Type
                         _______ _______ _______ _____ _____    ______ ____

>  <TORSDO>
F 29

$$$$
=
 OpenBabel11042421283D

 53 56  0  0  1  0  0  0  0  0999 V2000
  162.2060  209.0780  149.4910 C   0  0  1  0  0  3  0  0  0  0  0  0
  160.9280  207.7430  153.8920 C   0  0  0  0  0  0  0  0  0  0  0  0
  160.8980  206.2460  153.9250 C   0  0  0  0  0  1  0  0  0  0  0  0
  160.2140  208.3890  154.7590 N   0  0  0  0  0  0  0  0  0  0  0  0
  161.6190  210.7530  154.3110 S   0  0  0  0  0  0  0  0  0  0  0  0
  161.9750  208.4380  153.0620 C   0  0  1  0  0  3  0  0  0  0  0  0
  162.2520  207.8560  151.6980 C   0  0  0  0  0  2  0  0  0  0  0  0
  162.5740  210.2800  151.7260 C   0  0  0  0  0  2  0  0  0  0  0  0
  162.8490  209.0150  150.8930 C   0  0  2  0  0  3  0  0  0  0  0  0
  161.5760  209.8390  152.7590 C   0  0  2  0  0  3  0  0  0  0  0  0
  160.1320  209.8430  154.9060 C   0  0  1  0  0  3  0  0  0  0  0  0
  158.8890  210.3850  154.2060 C   0  0  0  0  0  2  0  0  0  0  0  0
  158.6260  211.7570  154.6290 N   0  0  0  0  0  2  0  0  0  0  0  0
  156.5450  211.5780  155.8750 C   0  0  0  0  0  1  0  0  0  0  0  0
  157.1850  211.9520  154.5500 C   0  0  1  0  0  3  0  0  0  0  0  0
  156.8690  213.3940  154.1490 C   0  0  1  0  0  3  0  0  0  0  0  0
  155.3720  214.4260  155.4130 C   0  0  0  0  0  1  0  0  0  0  0  0
  156.7430  214.1950  155.2890 O   0  0  0  0  0  0  0  0  0  0  0  0
  157.9080  213.9310  153.2760 N   0  0  0  0  0  2  0  0  0  0  0  0
  157.5580  213.5680  151.9080 C   0  0  0  0  0  2  0  0  0  0  0  0
  158.6320  214.0480  150.9490 C   0  0  1  0  0  3  0  0  0  0  0  0
  159.8710  213.5580  151.3590 O   0  0  0  0  0  1  0  0  0  0  0  0
  158.3440  213.5610  149.5410 C   0  0  0  0  0  1  0  0  0  0  0  0
  161.2600  207.9700  149.2630 N   0  0  0  0  0  2  0  0  0  0  0  0
  161.7380  207.0510  148.2290 C   0  0  2  0  0  3  0  0  0  0  0  0
  161.9300  207.7310  147.0200 O   0  0  0  0  0  1  0  0  0  0  0  0
  160.7310  205.9410  148.0280 C   0  0  0  0  0  2  0  0  0  0  0  0
  160.8220  205.0470  149.0930 O   0  0  0  0  0  0  0  0  0  0  0  0
  160.5980  203.7810  148.5420 C   0  0  1  0  0  3  0  0  0  0  0  0
  161.2950  202.7250  146.5400 O   0  0  0  0  0  0  0  0  0  0  0  0
  161.5310  203.5790  147.3860 C   0  0  0  0  0  3  0  0  0  0  0  0
  160.8490  202.7130  149.6010 C   0  0  0  0  0  2  0  0  0  0  0  0
  161.6310  203.3000  150.7690 C   0  0  0  0  0  3  0  0  0  0  0  0
  160.6610  203.7760  151.8320 C   0  0  0  0  0  2  0  0  0  0  0  0
  161.3770  202.4500  151.9970 C   0  0  0  0  0  2  0  0  0  0  0  0
  161.5580  210.4390  149.1590 C   0  0  0  0  0  2  0  0  0  0  0  0
  162.4550  211.3780  148.3690 C   0  0  0  0  0  2  0  0  0  0  0  0
  162.4540  212.7420  149.0340 C   0  0  0  0  0  2  0  0  0  0  0  0
  161.8650  213.7750  148.1000 C   0  0  0  0  0  2  0  0  0  0  0  0
  161.8820  213.2530  146.7470 N   0  0  0  0  0  2  0  0  0  0  0  0
  160.9470  214.0470  145.9700 C   0  0  0  0  0  2  0  0  0  0  0  0
  160.3770  213.2550  144.9750 O   0  0  0  0  0  0  0  0  0  0  0  0
  161.4550  212.8250  144.1980 C   0  0  0  0  0  2  0  0  0  0  0  0
  161.2210  214.4450  142.3050 O   0  0  0  0  0  1  0  0  0  0  0  0
  161.7110  212.0950  141.7330 C   0  0  1  0  0  3  0  0  0  0  0  0
  159.7520  211.1760  142.7380 O   0  0  0  0  0  1  0  0  0  0  0  0
  161.1780  213.1150  142.7270 C   0  0  1  0  0  0  0  0  0  0  0  0
  160.2040  212.2390  141.9540 C   0  0  1  0  0  3  0  0  0  0  0  0
  162.0620  212.7110  140.5280 O   0  0  0  0  0  0  0  0  0  0  0  0
  163.2100  212.0410  140.0990 C   0  0  1  0  0  3  0  0  0  0  0  0
  162.9300  210.6870  139.9290 O   0  0  0  0  0  1  0  0  0  0  0  0
  163.2520  211.8990  137.7050 O   0  0  0  0  0  1  0  0  0  0  0  0
  163.7140  212.6400  138.7950 C   0  0  0  0  0  2  0  0  0  0  0  0
  1 36  1  1  0  0  0
  2  3  1  0  0  0  0
  2  4  2  0  0  0  0
  4 11  1  0  0  0  0
  5 11  1  0  0  0  0
  6  7  1  6  0  0  0
  6  2  1  0  0  0  0
  9  1  1  6  0  0  0
  9  7  1  0  0  0  0
  9  8  1  0  0  0  0
 10  8  1  6  0  0  0
 10  6  1  0  0  0  0
 10  5  1  0  0  0  0
 11 12  1  6  0  0  0
 12 13  1  0  0  0  0
 15 13  1  0  0  0  0
 15 14  1  1  0  0  0
 16 19  1  6  0  0  0
 16 15  1  0  0  0  0
 16 18  1  0  0  0  0
 18 17  1  0  0  0  0
 20 19  1  0  0  0  0
 21 23  1  6  0  0  0
 21 22  1  0  0  0  0
 21 20  1  0  0  0  0
 24  1  1  0  0  0  0
 25 26  1  6  0  0  0
 25 24  1  0  0  0  0
 27 25  1  0  0  0  0
 27 28  1  0  0  0  0
 29 31  1  6  0  0  0
 29 28  1  0  0  0  0
 29 32  1  0  0  0  0
 30 31  2  0  0  0  0
 32 33  1  0  0  0  0
 33 34  1  0  0  0  0
 33 35  1  0  0  0  0
 34 35  1  0  0  0  0
 37 38  1  0  0  0  0
 37 36  1  0  0  0  0
 39 38  1  0  0  0  0
 40 39  1  0  0  0  0
 41 40  1  0  0  0  0
 42 41  1  0  0  0  0
 43 42  1  0  0  0  0
 45 49  1  6  0  0  0
 45 48  1  0  0  0  0
 45 47  1  0  0  0  0
 47 44  1  6  0  0  0
 47 43  1  0  0  0  0
 48 47  1  0  0  0  0
 48 46  1  1  0  0  0
 50 51  1  6  0  0  0
 50 49  1  0  0  0  0
 52 53  1  0  0  0  0
 53 50  1  0  0  0  0
M  END
>  <MODEL>
2

>  <REMARK>
 VINA RESULT:      -3.9      2.671      8.577
  Name = 
  29 active torsions:
  status: ('A' for Active; 'I' for Inactive)
    1  A    between atoms: C_3  and  N_46
    2  A    between atoms: C_3  and  C_53
    3  A    between atoms: C_4  and  C_18
    4  A    between atoms: C_4  and  N_32
    5  A    between atoms: C_5  and  C_20
    6  A    between atoms: C_5  and  C_38
    7  A    between atoms: C_8  and  O_19
    8  A    between atoms: C_9  and  C_10
    9  A    between atoms: C_10  and  C_29
   10  A    between atoms: C_13  and  O_19
   11  A    between atoms: C_13  and  C_36
   12  A    between atoms: O_15  and  C_29
   13  A    between atoms: O_15  and  C_51
   14  A    between atoms: C_16  and  C_20
   15  A    between atoms: C_16  and  C_23
   16  A    between atoms: C_21  and  O_34
   17  A    between atoms: C_21  and  N_45
   18  A    between atoms: C_23  and  C_43
   19  A    between atoms: C_23  and  N_50
   20  A    between atoms: C_25  and  N_32
   21  A    between atoms: C_25  and  O_47
   22  A    between atoms: C_25  and  C_49
   23  A    between atoms: C_26  and  O_34
   24  A    between atoms: C_26  and  C_40
   25  A    between atoms: C_29  and  C_41
   26  A    between atoms: C_30  and  N_50
   27  A    between atoms: C_30  and  C_51
   28  A    between atoms: C_38  and  N_45
   29  A    between atoms: N_46  and  C_49
                            x       y       z     vdW  Elec       q    Type
                         _______ _______ _______ _____ _____    ______ ____

>  <TORSDO>
F 29

$$$$
=
 OpenBabel11042421283D

 53 56  0  0  1  0  0  0  0  0999 V2000
  161.9890  209.0660  149.6130 C   0  0  1  0  0  3  0  0  0  0  0  0
  160.7850  207.8260  154.0620 C   0  0  0  0  0  0  0  0  0  0  0  0
  160.6940  206.3310  154.1110 C   0  0  0  0  0  1  0  0  0  0  0  0
  160.1250  208.5090  154.9430 N   0  0  0  0  0  0  0  0  0  0  0  0
  161.6150  210.8070  154.4300 S   0  0  0  0  0  0  0  0  0  0  0  0
  161.8360  208.4680  153.1950 C   0  0  1  0  0  3  0  0  0  0  0  0
  162.0480  207.8630  151.8290 C   0  0  0  0  0  2  0  0  0  0  0  0
  162.4730  210.2710  151.8240 C   0  0  0  0  0  2  0  0  0  0  0  0
  162.6700  208.9880  150.9960 C   0  0  2  0  0  3  0  0  0  0  0  0
  161.4880  209.8820  152.8900 C   0  0  2  0  0  3  0  0  0  0  0  0
  160.1090  209.9670  155.0770 C   0  0  1  0  0  3  0  0  0  0  0  0
  158.8690  210.5550  154.4080 C   0  0  0  0  0  2  0  0  0  0  0  0
  158.3630  211.6840  155.1800 N   0  0  0  0  0  2  0  0  0  0  0  0
  156.0540  211.1800  155.7520 C   0  0  0  0  0  1  0  0  0  0  0  0
  156.9800  211.8840  154.7760 C   0  0  1  0  0  3  0  0  0  0  0  0
  156.6700  213.3790  154.6700 C   0  0  1  0  0  3  0  0  0  0  0  0
  158.0520  213.8530  156.3340 C   0  0  0  0  0  1  0  0  0  0  0  0
  156.7190  213.9710  155.9370 O   0  0  0  0  0  0  0  0  0  0  0  0
  157.6120  214.0430  153.7750 N   0  0  0  0  0  2  0  0  0  0  0  0
  157.4750  213.4240  152.4620 C   0  0  0  0  0  2  0  0  0  0  0  0
  156.9040  214.4210  151.4710 C   0  0  1  0  0  3  0  0  0  0  0  0
  157.2770  214.0550  150.1790 O   0  0  0  0  0  1  0  0  0  0  0  0
  155.3880  214.4520  151.5620 C   0  0  0  0  0  1  0  0  0  0  0  0
  161.0620  207.9420  149.3850 N   0  0  0  0  0  2  0  0  0  0  0  0
  161.7770  206.7010  149.0780 C   0  0  2  0  0  3  0  0  0  0  0  0
  162.5980  206.8750  147.9570 O   0  0  0  0  0  1  0  0  0  0  0  0
  160.7830  205.5940  148.8060 C   0  0  0  0  0  2  0  0  0  0  0  0
  161.1010  204.4940  149.6020 O   0  0  0  0  0  0  0  0  0  0  0  0
  161.3480  203.4440  148.7110 C   0  0  1  0  0  3  0  0  0  0  0  0
  161.0770  201.3080  149.6980 O   0  0  0  0  0  0  0  0  0  0  0  0
  160.5410  202.2510  149.1270 C   0  0  0  0  0  3  0  0  0  0  0  0
  160.9510  203.8690  147.3020 C   0  0  0  0  0  2  0  0  0  0  0  0
  161.6060  202.9580  146.2710 C   0  0  0  0  0  3  0  0  0  0  0  0
  160.5840  202.5720  145.2210 C   0  0  0  0  0  2  0  0  0  0  0  0
  161.5970  203.6610  144.9290 C   0  0  0  0  0  2  0  0  0  0  0  0
  161.3020  210.4180  149.3270 C   0  0  0  0  0  2  0  0  0  0  0  0
  162.1740  211.4110  148.5750 C   0  0  0  0  0  2  0  0  0  0  0  0
  161.6400  212.8130  148.8050 C   0  0  0  0  0  2  0  0  0  0  0  0
  161.5270  213.5480  147.4880 C   0  0  0  0  0  2  0  0  0  0  0  0
  161.6040  212.5880  146.4030 N   0  0  0  0  0  2  0  0  0  0  0  0
  160.5120  212.8840  145.4930 C   0  0  0  0  0  2  0  0  0  0  0  0
  160.7460  212.2620  144.2680 O   0  0  0  0  0  0  0  0  0  0  0  0
  160.4230  213.2240  143.3100 C   0  0  0  0  0  2  0  0  0  0  0  0
  162.7380  213.3660  142.3710 O   0  0  0  0  0  1  0  0  0  0  0  0
  161.0870  212.0270  141.1180 C   0  0  1  0  0  3  0  0  0  0  0  0
  159.5530  213.8150  140.7310 O   0  0  0  0  0  1  0  0  0  0  0  0
  161.3850  213.1220  142.1310 C   0  0  1  0  0  0  0  0  0  0  0  0
  160.9130  213.4990  140.7350 C   0  0  1  0  0  3  0  0  0  0  0  0
  162.2670  211.5390  140.5510 O   0  0  0  0  0  0  0  0  0  0  0  0
  161.8800  210.4120  139.8220 C   0  0  1  0  0  3  0  0  0  0  0  0
  160.4900  210.3060  139.8200 O   0  0  0  0  0  1  0  0  0  0  0  0
  161.7060  211.4820  137.6820 O   0  0  0  0  0  1  0  0  0  0  0  0
  162.4000  210.5020  138.3950 C   0  0  0  0  0  2  0  0  0  0  0  0
  1 36  1  1  0  0  0
  2  3  1  0  0  0  0
  2  4  2  0  0  0  0
  4 11  1  0  0  0  0
  5 11  1  0  0  0  0
  6  7  1  6  0  0  0
  6  2  1  0  0  0  0
  9  1  1  6  0  0  0
  9  8  1  0  0  0  0
  9  7  1  0  0  0  0
 10  8  1  6  0  0  0
 10  6  1  0  0  0  0
 10  5  1  0  0  0  0
 11 12  1  6  0  0  0
 12 13  1  0  0  0  0
 15 13  1  0  0  0  0
 15 14  1  1  0  0  0
 16 19  1  6  0  0  0
 16 15  1  0  0  0  0
 16 18  1  0  0  0  0
 18 17  1  0  0  0  0
 20 19  1  0  0  0  0
 21 23  1  6  0  0  0
 21 20  1  0  0  0  0
 22 21  1  0  0  0  0
 24  1  1  0  0  0  0
 25 26  1  6  0  0  0
 25 24  1  0  0  0  0
 27 25  1  0  0  0  0
 27 28  1  0  0  0  0
 29 32  1  6  0  0  0
 29 31  1  0  0  0  0
 29 28  1  0  0  0  0
 31 30  2  0  0  0  0
 33 32  1  0  0  0  0
 34 33  1  0  0  0  0
 35 34  1  0  0  0  0
 35 33  1  0  0  0  0
 37 38  1  0  0  0  0
 37 36  1  0  0  0  0
 39 38  1  0  0  0  0
 40 39  1  0  0  0  0
 41 40  1  0  0  0  0
 42 41  1  0  0  0  0
 43 42  1  0  0  0  0
 45 49  1  6  0  0  0
 45 47  1  0  0  0  0
 47 44  1  1  0  0  0
 47 43  1  0  0  0  0
 48 46  1  1  0  0  0
 48 45  1  0  0  0  0
 48 47  1  0  0  0  0
 50 51  1  6  0  0  0
 50 49  1  0  0  0  0
 52 53  1  0  0  0  0
 53 50  1  0  0  0  0
M  END
>  <MODEL>
3

>  <REMARK>
 VINA RESULT:      -3.9      2.723      8.598
  Name = 
  29 active torsions:
  status: ('A' for Active; 'I' for Inactive)
    1  A    between atoms: C_3  and  N_46
    2  A    between atoms: C_3  and  C_53
    3  A    between atoms: C_4  and  C_18
    4  A    between atoms: C_4  and  N_32
    5  A    between atoms: C_5  and  C_20
    6  A    between atoms: C_5  and  C_38
    7  A    between atoms: C_8  and  O_19
    8  A    between atoms: C_9  and  C_10
    9  A    between atoms: C_10  and  C_29
   10  A    between atoms: C_13  and  O_19
   11  A    between atoms: C_13  and  C_36
   12  A    between atoms: O_15  and  C_29
   13  A    between atoms: O_15  and  C_51
   14  A    between atoms: C_16  and  C_20
   15  A    between atoms: C_16  and  C_23
   16  A    between atoms: C_21  and  O_34
   17  A    between atoms: C_21  and  N_45
   18  A    between atoms: C_23  and  C_43
   19  A    between atoms: C_23  and  N_50
   20  A    between atoms: C_25  and  N_32
   21  A    between atoms: C_25  and  O_47
   22  A    between atoms: C_25  and  C_49
   23  A    between atoms: C_26  and  O_34
   24  A    between atoms: C_26  and  C_40
   25  A    between atoms: C_29  and  C_41
   26  A    between atoms: C_30  and  N_50
   27  A    between atoms: C_30  and  C_51
   28  A    between atoms: C_38  and  N_45
   29  A    between atoms: N_46  and  C_49
                            x       y       z     vdW  Elec       q    Type
                         _______ _______ _______ _____ _____    ______ ____

>  <TORSDO>
F 29

$$$$
=
 OpenBabel11042421283D

 53 56  0  0  1  0  0  0  0  0999 V2000
  162.0240  207.5870  148.9430 C   0  0  1  0  0  3  0  0  0  0  0  0
  160.9540  205.8970  153.2780 C   0  0  0  0  0  0  0  0  0  0  0  0
  160.6020  204.4490  153.1290 C   0  0  0  0  0  1  0  0  0  0  0  0
  160.4930  206.5370  154.3050 N   0  0  0  0  0  0  0  0  0  0  0  0
  162.3250  208.6090  153.9670 S   0  0  0  0  0  0  0  0  0  0  0  0
  162.0340  206.4820  152.4060 C   0  0  1  0  0  3  0  0  0  0  0  0
  162.0330  206.0660  150.9560 C   0  0  0  0  0  2  0  0  0  0  0  0
  162.8780  208.3430  151.2400 C   0  0  0  0  0  2  0  0  0  0  0  0
  162.7810  207.1870  150.2280 C   0  0  2  0  0  3  0  0  0  0  0  0
  161.9210  207.9640  152.3350 C   0  0  2  0  0  3  0  0  0  0  0  0
  160.7460  207.9400  154.6390 C   0  0  1  0  0  3  0  0  0  0  0  0
  159.5840  208.8190  154.1850 C   0  0  0  0  0  2  0  0  0  0  0  0
  159.4260  209.9560  155.0850 N   0  0  0  0  0  2  0  0  0  0  0  0
  159.7580  210.8130  152.8340 C   0  0  0  0  0  1  0  0  0  0  0  0
  159.7390  211.1500  154.3140 C   0  0  1  0  0  3  0  0  0  0  0  0
  158.7410  212.2640  154.6350 C   0  0  1  0  0  3  0  0  0  0  0  0
  159.8710  213.5660  156.0240 C   0  0  0  0  0  1  0  0  0  0  0  0
  159.4010  213.4950  154.7110 O   0  0  0  0  0  0  0  0  0  0  0  0
  157.6890  212.3260  153.6250 N   0  0  0  0  0  2  0  0  0  0  0  0
  156.9890  213.5920  153.8020 C   0  0  0  0  0  2  0  0  0  0  0  0
  155.5870  213.3450  154.3300 C   0  0  1  0  0  3  0  0  0  0  0  0
  154.6560  213.8210  153.4100 O   0  0  0  0  0  1  0  0  0  0  0  0
  155.3570  211.8600  154.5510 C   0  0  0  0  0  1  0  0  0  0  0  0
  161.2030  206.4810  148.4150 N   0  0  0  0  0  2  0  0  0  0  0  0
  161.7800  205.9090  147.1970 C   0  0  2  0  0  3  0  0  0  0  0  0
  161.2970  206.5780  146.0660 O   0  0  0  0  0  1  0  0  0  0  0  0
  161.4240  204.4430  147.1050 C   0  0  0  0  0  2  0  0  0  0  0  0
  161.2080  203.9450  148.3890 O   0  0  0  0  0  0  0  0  0  0  0  0
  161.4550  202.5710  148.3070 C   0  0  1  0  0  3  0  0  0  0  0  0
  160.1770  202.0500  150.2330 O   0  0  0  0  0  0  0  0  0  0  0  0
  160.3740  201.8370  149.0420 C   0  0  0  0  0  3  0  0  0  0  0  0
  161.4660  202.1430  146.8440 C   0  0  0  0  0  2  0  0  0  0  0  0
  160.1200  201.5410  146.4580 C   0  0  0  0  0  3  0  0  0  0  0  0
  159.6840  202.1050  145.1210 C   0  0  0  0  0  2  0  0  0  0  0  0
  160.3010  200.7220  145.1960 C   0  0  0  0  0  2  0  0  0  0  0  0
  161.1920  208.8790  149.0820 C   0  0  0  0  0  2  0  0  0  0  0  0
  161.8480  210.1090  148.4770 C   0  0  0  0  0  2  0  0  0  0  0  0
  161.8730  211.2180  149.5120 C   0  0  0  0  0  2  0  0  0  0  0  0
  161.3480  212.5020  148.9110 C   0  0  0  0  0  2  0  0  0  0  0  0
  161.7320  212.5620  147.5140 N   0  0  0  0  0  2  0  0  0  0  0  0
  162.5200  213.7690  147.3370 C   0  0  0  0  0  2  0  0  0  0  0  0
  162.2790  214.3010  146.0720 O   0  0  0  0  0  0  0  0  0  0  0  0
  161.7440  213.2430  145.3350 C   0  0  0  0  0  2  0  0  0  0  0  0
  163.5300  213.4890  143.5980 O   0  0  0  0  0  1  0  0  0  0  0  0
  161.3680  212.5460  142.8750 C   0  0  1  0  0  3  0  0  0  0  0  0
  160.0500  214.4410  143.4780 O   0  0  0  0  0  1  0  0  0  0  0  0
  162.1670  213.3670  143.8740 C   0  0  1  0  0  0  0  0  0  0  0  0
  161.2570  214.0720  142.8810 C   0  0  1  0  0  3  0  0  0  0  0  0
  162.1720  212.1450  141.8040 O   0  0  0  0  0  0  0  0  0  0  0  0
  161.3280  211.3990  140.9770 C   0  0  1  0  0  3  0  0  0  0  0  0
  160.6330  212.2510  140.1210 O   0  0  0  0  0  1  0  0  0  0  0  0
  162.8790  211.0390  139.1820 O   0  0  0  0  0  1  0  0  0  0  0  0
  162.1360  210.3920  140.1720 C   0  0  0  0  0  2  0  0  0  0  0  0
  1 36  1  1  0  0  0
  2  4  2  0  0  0  0
  3  2  1  0  0  0  0
  4 11  1  0  0  0  0
  5 11  1  0  0  0  0
  6  7  1  6  0  0  0
  6  2  1  0  0  0  0
  9  1  1  6  0  0  0
  9  7  1  0  0  0  0
  9  8  1  0  0  0  0
 10  8  1  6  0  0  0
 10  6  1  0  0  0  0
 10  5  1  0  0  0  0
 11 12  1  6  0  0  0
 12 13  1  0  0  0  0
 15 14  1  6  0  0  0
 15 16  1  0  0  0  0
 15 13  1  0  0  0  0
 16 19  1  6  0  0  0
 16 18  1  0  0  0  0
 18 17  1  0  0  0  0
 19 20  1  0  0  0  0
 20 21  1  0  0  0  0
 21 23  1  6  0  0  0
 22 21  1  0  0  0  0
 24  1  1  0  0  0  0
 25 26  1  6  0  0  0
 25 24  1  0  0  0  0
 27 25  1  0  0  0  0
 27 28  1  0  0  0  0
 29 32  1  6  0  0  0
 29 28  1  0  0  0  0
 29 31  1  0  0  0  0
 31 30  2  0  0  0  0
 33 32  1  0  0  0  0
 34 35  1  0  0  0  0
 34 33  1  0  0  0  0
 35 33  1  0  0  0  0
 37 36  1  0  0  0  0
 37 38  1  0  0  0  0
 39 38  1  0  0  0  0
 40 39  1  0  0  0  0
 41 40  1  0  0  0  0
 42 41  1  0  0  0  0
 43 42  1  0  0  0  0
 45 49  1  6  0  0  0
 45 48  1  0  0  0  0
 45 47  1  0  0  0  0
 47 44  1  6  0  0  0
 47 43  1  0  0  0  0
 48 46  1  1  0  0  0
 48 47  1  0  0  0  0
 50 51  1  6  0  0  0
 50 49  1  0  0  0  0
 52 53  1  0  0  0  0
 53 50  1  0  0  0  0
M  END
>  <MODEL>
4

>  <REMARK>
 VINA RESULT:      -3.3      2.705      8.898
  Name = 
  29 active torsions:
  status: ('A' for Active; 'I' for Inactive)
    1  A    between atoms: C_3  and  N_46
    2  A    between atoms: C_3  and  C_53
    3  A    between atoms: C_4  and  C_18
    4  A    between atoms: C_4  and  N_32
    5  A    between atoms: C_5  and  C_20
    6  A    between atoms: C_5  and  C_38
    7  A    between atoms: C_8  and  O_19
    8  A    between atoms: C_9  and  C_10
    9  A    between atoms: C_10  and  C_29
   10  A    between atoms: C_13  and  O_19
   11  A    between atoms: C_13  and  C_36
   12  A    between atoms: O_15  and  C_29
   13  A    between atoms: O_15  and  C_51
   14  A    between atoms: C_16  and  C_20
   15  A    between atoms: C_16  and  C_23
   16  A    between atoms: C_21  and  O_34
   17  A    between atoms: C_21  and  N_45
   18  A    between atoms: C_23  and  C_43
   19  A    between atoms: C_23  and  N_50
   20  A    between atoms: C_25  and  N_32
   21  A    between atoms: C_25  and  O_47
   22  A    between atoms: C_25  and  C_49
   23  A    between atoms: C_26  and  O_34
   24  A    between atoms: C_26  and  C_40
   25  A    between atoms: C_29  and  C_41
   26  A    between atoms: C_30  and  N_50
   27  A    between atoms: C_30  and  C_51
   28  A    between atoms: C_38  and  N_45
   29  A    between atoms: N_46  and  C_49
                            x       y       z     vdW  Elec       q    Type
                         _______ _______ _______ _____ _____    ______ ____

>  <TORSDO>
F 29

$$$$
=
 OpenBabel11042421283D

 53 56  0  0  1  0  0  0  0  0999 V2000
  161.9730  208.2380  148.7070 C   0  0  1  0  0  3  0  0  0  0  0  0
  161.1170  206.9650  153.2270 C   0  0  0  0  0  0  0  0  0  0  0  0
  160.8700  205.4870  153.2460 C   0  0  0  0  0  1  0  0  0  0  0  0
  160.6300  207.6800  154.1910 N   0  0  0  0  0  0  0  0  0  0  0  0
  162.2970  209.8270  153.5790 S   0  0  0  0  0  0  0  0  0  0  0  0
  162.1340  207.5250  152.2670 C   0  0  1  0  0  3  0  0  0  0  0  0
  162.1350  206.9530  150.8720 C   0  0  0  0  0  2  0  0  0  0  0  0
  162.8140  209.3020  150.8830 C   0  0  0  0  0  2  0  0  0  0  0  0
  162.7830  208.0370  150.0050 C   0  0  2  0  0  3  0  0  0  0  0  0
  161.9100  208.9790  152.0390 C   0  0  2  0  0  3  0  0  0  0  0  0
  160.7850  209.1250  154.3640 C   0  0  1  0  0  3  0  0  0  0  0  0
  159.5530  209.8640  153.8490 C   0  0  0  0  0  2  0  0  0  0  0  0
  159.9090  211.2150  153.4300 N   0  0  0  0  0  2  0  0  0  0  0  0
  160.0160  212.5600  155.4530 C   0  0  0  0  0  1  0  0  0  0  0  0
  159.1580  212.1300  154.2770 C   0  0  1  0  0  3  0  0  0  0  0  0
  158.6670  213.3260  153.4590 C   0  0  1  0  0  3  0  0  0  0  0  0
  158.9640  212.7840  151.3330 C   0  0  0  0  0  1  0  0  0  0  0  0
  157.9840  212.8830  152.3210 O   0  0  0  0  0  0  0  0  0  0  0  0
  157.7970  214.1820  154.2590 N   0  0  0  0  0  2  0  0  0  0  0  0
  157.1020  213.3250  155.2120 C   0  0  0  0  0  2  0  0  0  0  0  0
  155.6020  213.5300  155.1020 C   0  0  1  0  0  3  0  0  0  0  0  0
  155.1470  214.2250  156.2190 O   0  0  0  0  0  1  0  0  0  0  0  0
  155.2650  214.3200  153.8500 C   0  0  0  0  0  1  0  0  0  0  0  0
  161.0990  207.0870  148.4140 N   0  0  0  0  0  2  0  0  0  0  0  0
  161.8150  206.0250  147.7050 C   0  0  2  0  0  3  0  0  0  0  0  0
  162.2810  206.4910  146.4690 O   0  0  0  0  0  1  0  0  0  0  0  0
  160.8940  204.8480  147.4840 C   0  0  0  0  0  2  0  0  0  0  0  0
  160.7950  204.1190  148.6680 O   0  0  0  0  0  0  0  0  0  0  0  0
  161.3610  202.8700  148.3910 C   0  0  1  0  0  3  0  0  0  0  0  0
  160.4880  201.9610  150.3960 O   0  0  0  0  0  0  0  0  0  0  0  0
  160.6460  201.8220  149.1890 C   0  0  0  0  0  3  0  0  0  0  0  0
  161.2240  202.5690  146.9030 C   0  0  0  0  0  2  0  0  0  0  0  0
  160.2800  201.3930  146.6860 C   0  0  0  0  0  3  0  0  0  0  0  0
  160.3000  200.9970  145.2230 C   0  0  0  0  0  2  0  0  0  0  0  0
  161.0940  200.1960  146.2370 C   0  0  0  0  0  2  0  0  0  0  0  0
  161.1830  209.5620  148.6580 C   0  0  0  0  0  2  0  0  0  0  0  0
  161.8750  210.6710  147.8820 C   0  0  0  0  0  2  0  0  0  0  0  0
  161.7430  211.9720  148.6510 C   0  0  0  0  0  2  0  0  0  0  0  0
  161.1290  213.0360  147.7700 C   0  0  0  0  0  2  0  0  0  0  0  0
  161.6680  212.9100  146.4300 N   0  0  0  0  0  2  0  0  0  0  0  0
  161.0050  213.9050  145.6050 C   0  0  0  0  0  2  0  0  0  0  0  0
  160.5180  213.3010  144.4480 O   0  0  0  0  0  0  0  0  0  0  0  0
  161.6200  212.6440  143.8960 C   0  0  0  0  0  2  0  0  0  0  0  0
  163.1390  214.1520  142.5990 O   0  0  0  0  0  1  0  0  0  0  0  0
  161.8330  212.4900  141.3260 C   0  0  1  0  0  3  0  0  0  0  0  0
  159.6860  213.2850  141.9990 O   0  0  0  0  0  1  0  0  0  0  0  0
  162.0200  213.3180  142.5880 C   0  0  1  0  0  0  0  0  0  0  0  0
  160.9480  213.7120  141.5830 C   0  0  1  0  0  3  0  0  0  0  0  0
  162.8010  212.8130  140.3710 O   0  0  0  0  0  0  0  0  0  0  0  0
  162.8460  211.7100  139.5140 C   0  0  1  0  0  3  0  0  0  0  0  0
  162.8730  210.5340  140.2600 O   0  0  0  0  0  1  0  0  0  0  0  0
  161.9670  212.3020  137.3620 O   0  0  0  0  0  1  0  0  0  0  0  0
  161.6410  211.7140  138.5860 C   0  0  0  0  0  2  0  0  0  0  0  0
  1 36  1  1  0  0  0
  2  3  1  0  0  0  0
  2  4  2  0  0  0  0
  4 11  1  0  0  0  0
  5 11  1  0  0  0  0
  6  7  1  6  0  0  0
  6  2  1  0  0  0  0
  9  1  1  6  0  0  0
  9  7  1  0  0  0  0
  9  8  1  0  0  0  0
 10  8  1  6  0  0  0
 10  6  1  0  0  0  0
 10  5  1  0  0  0  0
 11 12  1  6  0  0  0
 13 12  1  0  0  0  0
 13 15  1  0  0  0  0
 15 14  1  1  0  0  0
 16 18  1  6  0  0  0
 16 19  1  0  0  0  0
 16 15  1  0  0  0  0
 17 18  1  0  0  0  0
 19 20  1  0  0  0  0
 21 23  1  6  0  0  0
 21 20  1  0  0  0  0
 21 22  1  0  0  0  0
 24  1  1  0  0  0  0
 25 26  1  6  0  0  0
 25 24  1  0  0  0  0
 27 25  1  0  0  0  0
 27 28  1  0  0  0  0
 29 32  1  6  0  0  0
 29 28  1  0  0  0  0
 29 31  1  0  0  0  0
 31 30  2  0  0  0  0
 33 32  1  0  0  0  0
 34 35  1  0  0  0  0
 34 33  1  0  0  0  0
 35 33  1  0  0  0  0
 37 38  1  0  0  0  0
 37 36  1  0  0  0  0
 39 38  1  0  0  0  0
 40 39  1  0  0  0  0
 41 40  1  0  0  0  0
 42 41  1  0  0  0  0
 43 42  1  0  0  0  0
 45 49  1  6  0  0  0
 45 48  1  0  0  0  0
 45 47  1  0  0  0  0
 47 44  1  1  0  0  0
 47 43  1  0  0  0  0
 48 46  1  1  0  0  0
 48 47  1  0  0  0  0
 50 51  1  1  0  0  0
 50 49  1  0  0  0  0
 52 53  1  0  0  0  0
 53 50  1  0  0  0  0
M  END
>  <MODEL>
5

>  <REMARK>
 VINA RESULT:      -3.3      2.769      9.073
  Name = 
  29 active torsions:
  status: ('A' for Active; 'I' for Inactive)
    1  A    between atoms: C_3  and  N_46
    2  A    between atoms: C_3  and  C_53
    3  A    between atoms: C_4  and  C_18
    4  A    between atoms: C_4  and  N_32
    5  A    between atoms: C_5  and  C_20
    6  A    between atoms: C_5  and  C_38
    7  A    between atoms: C_8  and  O_19
    8  A    between atoms: C_9  and  C_10
    9  A    between atoms: C_10  and  C_29
   10  A    between atoms: C_13  and  O_19
   11  A    between atoms: C_13  and  C_36
   12  A    between atoms: O_15  and  C_29
   13  A    between atoms: O_15  and  C_51
   14  A    between atoms: C_16  and  C_20
   15  A    between atoms: C_16  and  C_23
   16  A    between atoms: C_21  and  O_34
   17  A    between atoms: C_21  and  N_45
   18  A    between atoms: C_23  and  C_43
   19  A    between atoms: C_23  and  N_50
   20  A    between atoms: C_25  and  N_32
   21  A    between atoms: C_25  and  O_47
   22  A    between atoms: C_25  and  C_49
   23  A    between atoms: C_26  and  O_34
   24  A    between atoms: C_26  and  C_40
   25  A    between atoms: C_29  and  C_41
   26  A    between atoms: C_30  and  N_50
   27  A    between atoms: C_30  and  C_51
   28  A    between atoms: C_38  and  N_45
   29  A    between atoms: N_46  and  C_49
                            x       y       z     vdW  Elec       q    Type
                         _______ _______ _______ _____ _____    ______ ____

>  <TORSDO>
F 29

$$$$
=
 OpenBabel11042421283D

 53 56  0  0  1  0  0  0  0  0999 V2000
  161.5810  204.7850  150.7290 C   0  0  1  0  0  3  0  0  0  0  0  0
  160.4560  207.5480  154.4560 C   0  0  0  0  0  0  0  0  0  0  0  0
  159.6810  206.7120  155.4270 C   0  0  0  0  0  1  0  0  0  0  0  0
  160.2990  208.8330  154.4920 N   0  0  0  0  0  0  0  0  0  0  0  0
  162.6220  209.2640  153.0150 S   0  0  0  0  0  0  0  0  0  0  0  0
  161.5780  206.9140  153.6750 C   0  0  1  0  0  3  0  0  0  0  0  0
  161.3230  205.5330  153.1250 C   0  0  0  0  0  2  0  0  0  0  0  0
  162.8230  206.8160  151.6810 C   0  0  0  0  0  2  0  0  0  0  0  0
  162.2990  205.3940  151.9520 C   0  0  2  0  0  3  0  0  0  0  0  0
  161.9010  207.7100  152.4600 C   0  0  2  0  0  3  0  0  0  0  0  0
  160.9840  209.8160  153.6500 C   0  0  1  0  0  3  0  0  0  0  0  0
  160.0970  210.2320  152.4800 C   0  0  0  0  0  2  0  0  0  0  0  0
  158.7420  210.5120  152.9440 N   0  0  0  0  0  2  0  0  0  0  0  0
  158.2510  212.8760  152.6520 C   0  0  0  0  0  1  0  0  0  0  0  0
  158.7820  211.8120  153.5970 C   0  0  1  0  0  3  0  0  0  0  0  0
  157.9960  211.7690  154.9090 C   0  0  1  0  0  3  0  0  0  0  0  0
  159.4600  212.7650  156.2390 C   0  0  0  0  0  1  0  0  0  0  0  0
  158.2130  212.9430  155.6390 O   0  0  0  0  0  0  0  0  0  0  0  0
  156.5690  211.5980  154.6560 N   0  0  0  0  0  2  0  0  0  0  0  0
  155.8570  212.5080  155.5440 C   0  0  0  0  0  2  0  0  0  0  0  0
  155.3530  213.7100  154.7650 C   0  0  1  0  0  3  0  0  0  0  0  0
  154.8210  213.2840  153.5500 O   0  0  0  0  0  1  0  0  0  0  0  0
  154.2780  214.4400  155.5510 C   0  0  0  0  0  1  0  0  0  0  0  0
  161.0180  203.4540  151.0210 N   0  0  0  0  0  2  0  0  0  0  0  0
  160.2350  202.9350  149.8980 C   0  0  2  0  0  3  0  0  0  0  0  0
  159.3740  201.9190  150.3300 O   0  0  0  0  0  1  0  0  0  0  0  0
  161.1640  202.3900  148.8370 C   0  0  0  0  0  2  0  0  0  0  0  0
  160.4050  201.9250  147.7640 O   0  0  0  0  0  0  0  0  0  0  0  0
  161.1050  202.3060  146.6150 C   0  0  1  0  0  3  0  0  0  0  0  0
  159.6660  201.9930  144.7600 O   0  0  0  0  0  0  0  0  0  0  0  0
  160.5760  201.5360  145.4430 C   0  0  0  0  0  3  0  0  0  0  0  0
  160.9190  203.8000  146.3770 C   0  0  0  0  0  2  0  0  0  0  0  0
  161.9230  204.3010  145.3450 C   0  0  0  0  0  3  0  0  0  0  0  0
  161.3150  205.4560  144.5740 C   0  0  0  0  0  2  0  0  0  0  0  0
  162.3030  205.7260  145.6920 C   0  0  0  0  0  2  0  0  0  0  0  0
  160.5190  205.7110  150.1000 C   0  0  0  0  0  2  0  0  0  0  0  0
  160.8210  207.1930  150.2470 C   0  0  0  0  0  2  0  0  0  0  0  0
  161.2340  207.7510  148.8980 C   0  0  0  0  0  2  0  0  0  0  0  0
  161.9730  209.0580  149.0800 C   0  0  0  0  0  2  0  0  0  0  0  0
  161.5730  209.9770  148.0310 N   0  0  0  0  0  2  0  0  0  0  0  0
  162.2280  211.2450  148.3000 C   0  0  0  0  0  2  0  0  0  0  0  0
  161.4070  212.0300  149.1070 O   0  0  0  0  0  0  0  0  0  0  0  0
  160.2560  212.2450  148.3460 C   0  0  0  0  0  2  0  0  0  0  0  0
  161.5920  214.2480  147.6640 O   0  0  0  0  0  1  0  0  0  0  0  0
  159.6800  213.6200  146.2360 C   0  0  1  0  0  3  0  0  0  0  0  0
  158.0140  213.8430  147.9310 O   0  0  0  0  0  1  0  0  0  0  0  0
  160.3800  213.5600  147.5850 C   0  0  1  0  0  0  0  0  0  0  0  0
  159.1590  214.4510  147.4120 C   0  0  1  0  0  3  0  0  0  0  0  0
  160.3710  214.4530  145.3520 O   0  0  0  0  0  0  0  0  0  0  0  0
  160.8270  213.6070  144.3380 C   0  0  1  0  0  3  0  0  0  0  0  0
  161.8140  212.7600  144.8380 O   0  0  0  0  0  1  0  0  0  0  0  0
  158.8160  213.6040  143.0300 O   0  0  0  0  0  1  0  0  0  0  0  0
  159.6720  212.7910  143.7750 C   0  0  0  0  0  2  0  0  0  0  0  0
  1 36  1  1  0  0  0
  1 24  1  0  0  0  0
  2  4  2  0  0  0  0
  2  3  1  0  0  0  0
  5 11  1  0  0  0  0
  6  7  1  6  0  0  0
  6  2  1  0  0  0  0
  8  9  1  0  0  0  0
  9  1  1  6  0  0  0
  9  7  1  0  0  0  0
 10  8  1  6  0  0  0
 10  5  1  0  0  0  0
 10  6  1  0  0  0  0
 11 12  1  6  0  0  0
 11  4  1  0  0  0  0
 12 13  1  0  0  0  0
 13 15  1  0  0  0  0
 15 14  1  6  0  0  0
 15 16  1  0  0  0  0
 16 19  1  6  0  0  0
 16 18  1  0  0  0  0
 18 17  1  0  0  0  0
 19 20  1  0  0  0  0
 21 20  1  0  0  0  0
 21 23  1  1  0  0  0
 22 21  1  0  0  0  0
 25 26  1  1  0  0  0
 25 24  1  0  0  0  0
 27 25  1  0  0  0  0
 28 27  1  0  0  0  0
 29 31  1  6  0  0  0
 29 28  1  0  0  0  0
 30 31  2  0  0  0  0
 32 29  1  0  0  0  0
 33 35  1  0  0  0  0
 33 32  1  0  0  0  0
 34 33  1  0  0  0  0
 34 35  1  0  0  0  0
 36 37  1  0  0  0  0
 38 39  1  0  0  0  0
 38 37  1  0  0  0  0
 40 41  1  0  0  0  0
 40 39  1  0  0  0  0
 41 42  1  0  0  0  0
 43 42  1  0  0  0  0
 45 49  1  6  0  0  0
 45 48  1  0  0  0  0
 45 47  1  0  0  0  0
 47 44  1  1  0  0  0
 47 43  1  0  0  0  0
 48 47  1  0  0  0  0
 48 46  1  1  0  0  0
 50 51  1  1  0  0  0
 50 49  1  0  0  0  0
 52 53  1  0  0  0  0
 53 50  1  0  0  0  0
M  END
>  <MODEL>
6

>  <REMARK>
 VINA RESULT:      -3.2      2.632      8.536
  Name = 
  29 active torsions:
  status: ('A' for Active; 'I' for Inactive)
    1  A    between atoms: C_3  and  N_46
    2  A    between atoms: C_3  and  C_53
    3  A    between atoms: C_4  and  C_18
    4  A    between atoms: C_4  and  N_32
    5  A    between atoms: C_5  and  C_20
    6  A    between atoms: C_5  and  C_38
    7  A    between atoms: C_8  and  O_19
    8  A    between atoms: C_9  and  C_10
    9  A    between atoms: C_10  and  C_29
   10  A    between atoms: C_13  and  O_19
   11  A    between atoms: C_13  and  C_36
   12  A    between atoms: O_15  and  C_29
   13  A    between atoms: O_15  and  C_51
   14  A    between atoms: C_16  and  C_20
   15  A    between atoms: C_16  and  C_23
   16  A    between atoms: C_21  and  O_34
   17  A    between atoms: C_21  and  N_45
   18  A    between atoms: C_23  and  C_43
   19  A    between atoms: C_23  and  N_50
   20  A    between atoms: C_25  and  N_32
   21  A    between atoms: C_25  and  O_47
   22  A    between atoms: C_25  and  C_49
   23  A    between atoms: C_26  and  O_34
   24  A    between atoms: C_26  and  C_40
   25  A    between atoms: C_29  and  C_41
   26  A    between atoms: C_30  and  N_50
   27  A    between atoms: C_30  and  C_51
   28  A    between atoms: C_38  and  N_45
   29  A    between atoms: N_46  and  C_49
                            x       y       z     vdW  Elec       q    Type
                         _______ _______ _______ _____ _____    ______ ____

>  <TORSDO>
F 29

$$$$
=
 OpenBabel11042421283D

 53 56  0  0  1  0  0  0  0  0999 V2000
  161.5540  204.7830  150.7360 C   0  0  1  0  0  3  0  0  0  0  0  0
  160.4440  207.5930  154.4320 C   0  0  0  0  0  0  0  0  0  0  0  0
  159.6440  206.7780  155.4010 C   0  0  0  0  0  1  0  0  0  0  0  0
  160.3100  208.8810  154.4580 N   0  0  0  0  0  0  0  0  0  0  0  0
  162.6560  209.2590  153.0010 S   0  0  0  0  0  0  0  0  0  0  0  0
  161.5610  206.9340  153.6660 C   0  0  1  0  0  3  0  0  0  0  0  0
  161.2860  205.5530  153.1230 C   0  0  0  0  0  2  0  0  0  0  0  0
  162.8240  206.7980  151.6860 C   0  0  0  0  0  2  0  0  0  0  0  0
  162.2710  205.3880  151.9610 C   0  0  2  0  0  3  0  0  0  0  0  0
  161.9110  207.7150  152.4490 C   0  0  2  0  0  3  0  0  0  0  0  0
  161.0210  209.8450  153.6160 C   0  0  1  0  0  3  0  0  0  0  0  0
  160.1540  210.2700  152.4340 C   0  0  0  0  0  2  0  0  0  0  0  0
  158.9760  210.9930  152.9030 N   0  0  0  0  0  2  0  0  0  0  0  0
  159.1960  213.3010  152.1680 C   0  0  0  0  0  1  0  0  0  0  0  0
  159.4280  212.3170  153.3020 C   0  0  1  0  0  3  0  0  0  0  0  0
  158.7230  212.7510  154.5890 C   0  0  1  0  0  3  0  0  0  0  0  0
  159.3330  211.2930  156.1390 C   0  0  0  0  0  1  0  0  0  0  0  0
  159.5780  212.5890  155.6840 O   0  0  0  0  0  0  0  0  0  0  0  0
  158.2860  214.1410  154.5000 N   0  0  0  0  0  2  0  0  0  0  0  0
  157.5410  214.4420  155.7160 C   0  0  0  0  0  2  0  0  0  0  0  0
  156.4060  213.4490  155.8930 C   0  0  1  0  0  3  0  0  0  0  0  0
  156.2560  213.1550  157.2460 O   0  0  0  0  0  1  0  0  0  0  0  0
  155.1070  214.0260  155.3600 C   0  0  0  0  0  1  0  0  0  0  0  0
  161.0470  203.4250  151.0020 N   0  0  0  0  0  2  0  0  0  0  0  0
  160.3870  202.8500  149.8290 C   0  0  2  0  0  3  0  0  0  0  0  0
  160.0850  201.5000  150.0500 O   0  0  0  0  0  1  0  0  0  0  0  0
  161.2910  202.9720  148.6230 C   0  0  0  0  0  2  0  0  0  0  0  0
  161.1420  201.8370  147.8270 O   0  0  0  0  0  0  0  0  0  0  0  0
  161.2130  202.2910  146.5060 C   0  0  1  0  0  3  0  0  0  0  0  0
  160.0620  201.7160  144.5180 O   0  0  0  0  0  0  0  0  0  0  0  0
  160.0380  201.7590  145.7430 C   0  0  0  0  0  3  0  0  0  0  0  0
  161.1910  203.8160  146.4910 C   0  0  0  0  0  2  0  0  0  0  0  0
  162.3510  204.3530  145.6620 C   0  0  0  0  0  3  0  0  0  0  0  0
  161.8060  205.1850  144.5180 C   0  0  0  0  0  2  0  0  0  0  0  0
  162.3530  205.8660  145.7570 C   0  0  0  0  0  2  0  0  0  0  0  0
  160.4460  205.6840  150.1500 C   0  0  0  0  0  2  0  0  0  0  0  0
  160.7040  207.1730  150.3130 C   0  0  0  0  0  2  0  0  0  0  0  0
  161.3470  207.7060  149.0460 C   0  0  0  0  0  2  0  0  0  0  0  0
  161.8170  209.1270  149.2600 C   0  0  0  0  0  2  0  0  0  0  0  0
  161.8310  209.8180  147.9850 N   0  0  0  0  0  2  0  0  0  0  0  0
  161.8940  211.2410  148.2690 C   0  0  0  0  0  2  0  0  0  0  0  0
  160.7690  211.8710  147.7410 O   0  0  0  0  0  0  0  0  0  0  0  0
  160.9780  211.8780  146.3600 C   0  0  0  0  0  2  0  0  0  0  0  0
  159.0000  212.3090  144.8880 O   0  0  0  0  0  1  0  0  0  0  0  0
  159.6000  214.0590  146.5210 C   0  0  1  0  0  3  0  0  0  0  0  0
  161.7980  214.4500  145.6770 O   0  0  0  0  0  1  0  0  0  0  0  0
  160.0030  212.8460  145.6970 C   0  0  1  0  0  0  0  0  0  0  0  0
  160.4780  214.2290  145.2790 C   0  0  1  0  0  3  0  0  0  0  0  0
  158.2940  214.4530  146.2210 O   0  0  0  0  0  0  0  0  0  0  0  0
  157.6230  214.4500  147.4460 C   0  0  1  0  0  3  0  0  0  0  0  0
  156.2990  214.0570  147.2580 O   0  0  0  0  0  1  0  0  0  0  0  0
  157.5000  213.2690  149.5310 O   0  0  0  0  0  1  0  0  0  0  0  0
  158.3150  213.5100  148.4220 C   0  0  0  0  0  2  0  0  0  0  0  0
  1 36  1  1  0  0  0
  1 24  1  0  0  0  0
  2  4  2  0  0  0  0
  2  3  1  0  0  0  0
  5 11  1  0  0  0  0
  6  7  1  6  0  0  0
  6  2  1  0  0  0  0
  8  9  1  0  0  0  0
  9  1  1  6  0  0  0
  9  7  1  0  0  0  0
 10  8  1  6  0  0  0
 10  5  1  0  0  0  0
 10  6  1  0  0  0  0
 11 12  1  6  0  0  0
 11  4  1  0  0  0  0
 12 13  1  0  0  0  0
 13 15  1  0  0  0  0
 15 14  1  6  0  0  0
 15 16  1  0  0  0  0
 16 19  1  6  0  0  0
 16 18  1  0  0  0  0
 18 17  1  0  0  0  0
 19 20  1  0  0  0  0
 20 21  1  0  0  0  0
 21 23  1  1  0  0  0
 21 22  1  0  0  0  0
 25 26  1  1  0  0  0
 25 24  1  0  0  0  0
 27 25  1  0  0  0  0
 28 27  1  0  0  0  0
 29 31  1  6  0  0  0
 29 28  1  0  0  0  0
 30 31  2  0  0  0  0
 32 29  1  0  0  0  0
 33 35  1  0  0  0  0
 33 32  1  0  0  0  0
 34 33  1  0  0  0  0
 34 35  1  0  0  0  0
 36 37  1  0  0  0  0
 38 39  1  0  0  0  0
 38 37  1  0  0  0  0
 40 41  1  0  0  0  0
 40 39  1  0  0  0  0
 42 41  1  0  0  0  0
 43 42  1  0  0  0  0
 45 49  1  6  0  0  0
 47 44  1  6  0  0  0
 47 43  1  0  0  0  0
 47 45  1  0  0  0  0
 48 46  1  1  0  0  0
 48 47  1  0  0  0  0
 48 45  1  0  0  0  0
 49 50  1  0  0  0  0
 50 51  1  6  0  0  0
 50 53  1  0  0  0  0
 53 52  1  0  0  0  0
M  END
>  <MODEL>
7

>  <REMARK>
 VINA RESULT:      -3.1      2.768      8.725
  Name = 
  29 active torsions:
  status: ('A' for Active; 'I' for Inactive)
    1  A    between atoms: C_3  and  N_46
    2  A    between atoms: C_3  and  C_53
    3  A    between atoms: C_4  and  C_18
    4  A    between atoms: C_4  and  N_32
    5  A    between atoms: C_5  and  C_20
    6  A    between atoms: C_5  and  C_38
    7  A    between atoms: C_8  and  O_19
    8  A    between atoms: C_9  and  C_10
    9  A    between atoms: C_10  and  C_29
   10  A    between atoms: C_13  and  O_19
   11  A    between atoms: C_13  and  C_36
   12  A    between atoms: O_15  and  C_29
   13  A    between atoms: O_15  and  C_51
   14  A    between atoms: C_16  and  C_20
   15  A    between atoms: C_16  and  C_23
   16  A    between atoms: C_21  and  O_34
   17  A    between atoms: C_21  and  N_45
   18  A    between atoms: C_23  and  C_43
   19  A    between atoms: C_23  and  N_50
   20  A    between atoms: C_25  and  N_32
   21  A    between atoms: C_25  and  O_47
   22  A    between atoms: C_25  and  C_49
   23  A    between atoms: C_26  and  O_34
   24  A    between atoms: C_26  and  C_40
   25  A    between atoms: C_29  and  C_41
   26  A    between atoms: C_30  and  N_50
   27  A    between atoms: C_30  and  C_51
   28  A    between atoms: C_38  and  N_45
   29  A    between atoms: N_46  and  C_49
                            x       y       z     vdW  Elec       q    Type
                         _______ _______ _______ _____ _____    ______ ____

>  <TORSDO>
F 29

$$$$
=
 OpenBabel11042421283D

 53 56  0  0  1  0  0  0  0  0999 V2000
  161.4830  206.3310  149.9040 C   0  0  1  0  0  3  0  0  0  0  0  0
  160.7320  209.0380  153.7630 C   0  0  0  0  0  0  0  0  0  0  0  0
  160.5190  208.1220  154.9290 C   0  0  0  0  0  1  0  0  0  0  0  0
  160.2450  210.2370  153.8290 N   0  0  0  0  0  0  0  0  0  0  0  0
  161.8530  211.1170  151.7300 S   0  0  0  0  0  0  0  0  0  0  0  0
  161.7200  208.6480  152.6950 C   0  0  1  0  0  3  0  0  0  0  0  0
  161.7100  207.2030  152.2610 C   0  0  0  0  0  2  0  0  0  0  0  0
  162.3360  208.6920  150.4250 C   0  0  0  0  0  2  0  0  0  0  0  0
  162.3190  207.2140  150.8550 C   0  0  2  0  0  3  0  0  0  0  0  0
  161.4600  209.3850  151.4290 C   0  0  2  0  0  3  0  0  0  0  0  0
  160.3710  211.2820  152.8110 C   0  0  1  0  0  3  0  0  0  0  0  0
  159.1140  211.3460  151.9480 C   0  0  0  0  0  2  0  0  0  0  0  0
  158.6620  212.7270  151.8110 N   0  0  0  0  0  2  0  0  0  0  0  0
  156.9860  213.2060  150.1160 C   0  0  0  0  0  1  0  0  0  0  0  0
  158.4600  212.9640  150.3900 C   0  0  1  0  0  3  0  0  0  0  0  0
  159.3290  214.1330  149.9200 C   0  0  1  0  0  3  0  0  0  0  0  0
  161.2560  213.6100  148.9640 C   0  0  0  0  0  1  0  0  0  0  0  0
  160.6750  213.8760  150.2040 O   0  0  0  0  0  0  0  0  0  0  0  0
  159.1590  214.3650  148.4890 N   0  0  0  0  0  2  0  0  0  0  0  0
  159.1270  213.0610  147.8380 C   0  0  0  0  0  2  0  0  0  0  0  0
  158.5250  213.1850  146.4500 C   0  0  1  0  0  3  0  0  0  0  0  0
  157.3190  213.8790  146.5290 O   0  0  0  0  0  1  0  0  0  0  0  0
  159.4700  213.9310  145.5250 C   0  0  0  0  0  1  0  0  0  0  0  0
  160.3770  205.6540  150.6040 N   0  0  0  0  0  2  0  0  0  0  0  0
  160.5910  204.2080  150.6900 C   0  0  2  0  0  3  0  0  0  0  0  0
  161.8250  203.9310  151.2910 O   0  0  0  0  0  1  0  0  0  0  0  0
  160.5590  203.6040  149.3050 C   0  0  0  0  0  2  0  0  0  0  0  0
  161.7220  202.8620  149.1060 O   0  0  0  0  0  0  0  0  0  0  0  0
  161.3370  201.7550  148.3430 C   0  0  1  0  0  3  0  0  0  0  0  0
  160.3710  200.7010  150.2320 O   0  0  0  0  0  0  0  0  0  0  0  0
  160.2380  201.0280  149.0580 C   0  0  0  0  0  3  0  0  0  0  0  0
  160.8420  202.2240  146.9790 C   0  0  0  0  0  2  0  0  0  0  0  0
  159.9650  201.1560  146.3380 C   0  0  0  0  0  3  0  0  0  0  0  0
  159.2870  201.7330  145.1120 C   0  0  0  0  0  2  0  0  0  0  0  0
  160.5080  200.8490  144.9570 C   0  0  0  0  0  2  0  0  0  0  0  0
  160.9770  207.0680  148.6470 C   0  0  0  0  0  2  0  0  0  0  0  0
  160.7800  206.1690  147.4370 C   0  0  0  0  0  2  0  0  0  0  0  0
  161.8400  206.4910  146.4000 C   0  0  0  0  0  2  0  0  0  0  0  0
  161.7890  205.4850  145.2730 C   0  0  0  0  0  2  0  0  0  0  0  0
  161.1820  206.1060  144.1120 N   0  0  0  0  0  2  0  0  0  0  0  0
  162.0130  205.7770  142.9670 C   0  0  0  0  0  2  0  0  0  0  0  0
  161.4520  206.3210  141.8140 O   0  0  0  0  0  0  0  0  0  0  0  0
  162.4290  207.1820  141.3110 C   0  0  0  0  0  2  0  0  0  0  0  0
  162.3760  206.4370  138.9220 O   0  0  0  0  0  1  0  0  0  0  0  0
  160.9650  208.3650  139.5410 C   0  0  1  0  0  3  0  0  0  0  0  0
  162.7520  209.7550  140.2960 O   0  0  0  0  0  1  0  0  0  0  0  0
  162.1560  207.4670  139.8370 C   0  0  1  0  0  0  0  0  0  0  0  0
  162.3880  208.8650  139.2830 C   0  0  1  0  0  3  0  0  0  0  0  0
  160.3710  208.0170  138.3240 O   0  0  0  0  0  0  0  0  0  0  0  0
  159.3350  208.9380  138.1500 C   0  0  1  0  0  3  0  0  0  0  0  0
  159.1260  209.6420  139.3350 O   0  0  0  0  0  1  0  0  0  0  0  0
  159.9650  211.1690  137.5300 O   0  0  0  0  0  1  0  0  0  0  0  0
  159.6720  209.9020  137.0220 C   0  0  0  0  0  2  0  0  0  0  0  0
  1 36  1  6  0  0  0
  1 24  1  0  0  0  0
  2  4  2  0  0  0  0
  2  3  1  0  0  0  0
  5 11  1  0  0  0  0
  6  7  1  6  0  0  0
  6  2  1  0  0  0  0
  8  9  1  0  0  0  0
  9  1  1  6  0  0  0
  9  7  1  0  0  0  0
 10  8  1  6  0  0  0
 10  5  1  0  0  0  0
 10  6  1  0  0  0  0
 11 12  1  6  0  0  0
 11  4  1  0  0  0  0
 13 12  1  0  0  0  0
 15 14  1  1  0  0  0
 15 13  1  0  0  0  0
 16 19  1  6  0  0  0
 16 18  1  0  0  0  0
 16 15  1  0  0  0  0
 17 18  1  0  0  0  0
 20 19  1  0  0  0  0
 21 23  1  6  0  0  0
 21 22  1  0  0  0  0
 21 20  1  0  0  0  0
 24 25  1  0  0  0  0
 25 26  1  6  0  0  0
 27 25  1  0  0  0  0
 28 27  1  0  0  0  0
 29 32  1  6  0  0  0
 29 31  1  0  0  0  0
 29 28  1  0  0  0  0
 31 30  2  0  0  0  0
 33 32  1  0  0  0  0
 34 33  1  0  0  0  0
 35 34  1  0  0  0  0
 35 33  1  0  0  0  0
 37 36  1  0  0  0  0
 38 37  1  0  0  0  0
 39 38  1  0  0  0  0
 40 39  1  0  0  0  0
 41 40  1  0  0  0  0
 42 41  1  0  0  0  0
 43 42  1  0  0  0  0
 45 49  1  6  0  0  0
 45 47  1  0  0  0  0
 47 44  1  6  0  0  0
 47 43  1  0  0  0  0
 48 45  1  0  0  0  0
 48 47  1  0  0  0  0
 48 46  1  1  0  0  0
 50 49  1  0  0  0  0
 50 51  1  1  0  0  0
 53 52  1  0  0  0  0
 53 50  1  0  0  0  0
M  END
>  <MODEL>
8

>  <REMARK>
 VINA RESULT:      -2.7      3.194      7.303
  Name = 
  29 active torsions:
  status: ('A' for Active; 'I' for Inactive)
    1  A    between atoms: C_3  and  N_46
    2  A    between atoms: C_3  and  C_53
    3  A    between atoms: C_4  and  C_18
    4  A    between atoms: C_4  and  N_32
    5  A    between atoms: C_5  and  C_20
    6  A    between atoms: C_5  and  C_38
    7  A    between atoms: C_8  and  O_19
    8  A    between atoms: C_9  and  C_10
    9  A    between atoms: C_10  and  C_29
   10  A    between atoms: C_13  and  O_19
   11  A    between atoms: C_13  and  C_36
   12  A    between atoms: O_15  and  C_29
   13  A    between atoms: O_15  and  C_51
   14  A    between atoms: C_16  and  C_20
   15  A    between atoms: C_16  and  C_23
   16  A    between atoms: C_21  and  O_34
   17  A    between atoms: C_21  and  N_45
   18  A    between atoms: C_23  and  C_43
   19  A    between atoms: C_23  and  N_50
   20  A    between atoms: C_25  and  N_32
   21  A    between atoms: C_25  and  O_47
   22  A    between atoms: C_25  and  C_49
   23  A    between atoms: C_26  and  O_34
   24  A    between atoms: C_26  and  C_40
   25  A    between atoms: C_29  and  C_41
   26  A    between atoms: C_30  and  N_50
   27  A    between atoms: C_30  and  C_51
   28  A    between atoms: C_38  and  N_45
   29  A    between atoms: N_46  and  C_49
                            x       y       z     vdW  Elec       q    Type
                         _______ _______ _______ _____ _____    ______ ____

>  <TORSDO>
F 29

$$$$
=
 OpenBabel11042421283D

 53 56  0  0  1  0  0  0  0  0999 V2000
  161.5950  209.9120  152.1760 C   0  0  1  0  0  3  0  0  0  0  0  0
  161.8120  205.2180  151.3360 C   0  0  0  0  0  0  0  0  0  0  0  0
  162.3710  204.5610  152.5600 C   0  0  0  0  0  1  0  0  0  0  0  0
  161.9320  204.6040  150.2020 N   0  0  0  0  0  0  0  0  0  0  0  0
  159.9840  206.2020  149.0120 S   0  0  0  0  0  0  0  0  0  0  0  0
  160.9040  206.4100  151.4930 C   0  0  1  0  0  3  0  0  0  0  0  0
  161.3020  207.4320  152.5290 C   0  0  0  0  0  2  0  0  0  0  0  0
  160.1320  208.4650  150.6470 C   0  0  0  0  0  2  0  0  0  0  0  0
  160.6120  208.7260  152.0860 C   0  0  2  0  0  3  0  0  0  0  0  0
  160.8420  207.2050  150.2370 C   0  0  2  0  0  3  0  0  0  0  0  0
  161.4300  205.0660  148.9060 C   0  0  1  0  0  3  0  0  0  0  0  0
  162.5450  205.7330  148.1050 C   0  0  0  0  0  2  0  0  0  0  0  0
  162.9420  204.8850  146.9860 N   0  0  0  0  0  2  0  0  0  0  0  0
  162.8930  205.4540  144.6220 C   0  0  0  0  0  1  0  0  0  0  0  0
  162.0650  205.2200  145.8730 C   0  0  1  0  0  3  0  0  0  0  0  0
  161.0220  204.1190  145.6720 C   0  0  1  0  0  3  0  0  0  0  0  0
  159.2930  203.4270  144.4750 C   0  0  0  0  0  1  0  0  0  0  0  0
  160.4170  204.2530  144.4180 O   0  0  0  0  0  0  0  0  0  0  0  0
  161.6300  202.7980  145.7930 N   0  0  0  0  0  2  0  0  0  0  0  0
  160.6580  201.9290  146.4430 C   0  0  0  0  0  2  0  0  0  0  0  0
  161.0480  201.7000  147.8920 C   0  0  1  0  0  3  0  0  0  0  0  0
  159.9320  201.8810  148.7060 O   0  0  0  0  0  1  0  0  0  0  0  0
  161.5810  200.2910  148.0830 C   0  0  0  0  0  1  0  0  0  0  0  0
  162.5300  209.7750  153.3080 N   0  0  0  0  0  2  0  0  0  0  0  0
  162.1750  210.6610  154.4180 C   0  0  2  0  0  3  0  0  0  0  0  0
  163.2110  210.7070  155.3580 O   0  0  0  0  0  1  0  0  0  0  0  0
  160.9120  210.1640  155.0850 C   0  0  0  0  0  2  0  0  0  0  0  0
  160.2900  211.2300  155.7320 O   0  0  0  0  0  0  0  0  0  0  0  0
  159.1370  211.5020  154.9880 C   0  0  1  0  0  3  0  0  0  0  0  0
  156.9900  211.5000  155.9870 O   0  0  0  0  0  0  0  0  0  0  0  0
  157.9640  210.8390  155.6450 C   0  0  0  0  0  3  0  0  0  0  0  0
  158.9130  213.0090  154.9290 C   0  0  0  0  0  2  0  0  0  0  0  0
  158.9560  213.4930  153.4850 C   0  0  0  0  0  3  0  0  0  0  0  0
  159.0440  212.2980  152.5570 C   0  0  0  0  0  2  0  0  0  0  0  0
  157.7150  212.9960  152.7700 C   0  0  0  0  0  2  0  0  0  0  0  0
  162.3520  210.2010  150.8630 C   0  0  0  0  0  2  0  0  0  0  0  0
  161.8840  211.4530  150.1380 C   0  0  0  0  0  2  0  0  0  0  0  0
  162.4170  211.4320  148.7170 C   0  0  0  0  0  2  0  0  0  0  0  0
  161.3050  211.7390  147.7400 C   0  0  0  0  0  2  0  0  0  0  0  0
  161.2650  213.1690  147.5040 N   0  0  0  0  0  2  0  0  0  0  0  0
  160.8290  213.3640  146.1320 C   0  0  0  0  0  2  0  0  0  0  0  0
  161.8380  212.9600  145.2610 O   0  0  0  0  0  0  0  0  0  0  0  0
  161.1790  212.6350  144.0740 C   0  0  0  0  0  2  0  0  0  0  0  0
  163.2690  213.5870  143.0780 O   0  0  0  0  0  1  0  0  0  0  0  0
  161.6050  212.6330  141.5250 C   0  0  1  0  0  3  0  0  0  0  0  0
  159.8220  214.0990  142.1320 O   0  0  0  0  0  1  0  0  0  0  0  0
  161.9340  213.2240  142.8870 C   0  0  1  0  0  0  0  0  0  0  0  0
  161.1920  214.0680  141.8620 C   0  0  1  0  0  3  0  0  0  0  0  0
  162.7230  212.6590  140.6870 O   0  0  0  0  0  0  0  0  0  0  0  0
  162.6820  211.4490  139.9900 C   0  0  1  0  0  3  0  0  0  0  0  0
  161.8520  210.5500  140.6560 O   0  0  0  0  0  1  0  0  0  0  0  0
  162.6900  210.7020  137.7110 O   0  0  0  0  0  1  0  0  0  0  0  0
  162.1800  211.6750  138.5720 C   0  0  0  0  0  2  0  0  0  0  0  0
  1 36  1  6  0  0  0
  1 24  1  0  0  0  0
  2  6  1  0  0  0  0
  2  3  1  0  0  0  0
  4  2  2  0  0  0  0
  5 10  1  0  0  0  0
  6  7  1  1  0  0  0
  8  9  1  0  0  0  0
  9  1  1  6  0  0  0
  9  7  1  0  0  0  0
 10  8  1  1  0  0  0
 10  6  1  0  0  0  0
 11 12  1  1  0  0  0
 11  5  1  0  0  0  0
 11  4  1  0  0  0  0
 13 12  1  0  0  0  0
 15 14  1  6  0  0  0
 15 13  1  0  0  0  0
 16 18  1  6  0  0  0
 16 19  1  0  0  0  0
 16 15  1  0  0  0  0
 18 17  1  0  0  0  0
 19 20  1  0  0  0  0
 20 21  1  0  0  0  0
 21 23  1  6  0  0  0
 21 22  1  0  0  0  0
 24 25  1  0  0  0  0
 25 27  1  0  0  0  0
 25 26  1  1  0  0  0
 27 28  1  0  0  0  0
 29 32  1  1  0  0  0
 29 31  1  0  0  0  0
 29 28  1  0  0  0  0
 31 30  2  0  0  0  0
 33 32  1  0  0  0  0
 34 35  1  0  0  0  0
 34 33  1  0  0  0  0
 35 33  1  0  0  0  0
 37 36  1  0  0  0  0
 38 37  1  0  0  0  0
 39 38  1  0  0  0  0
 40 39  1  0  0  0  0
 41 40  1  0  0  0  0
 42 41  1  0  0  0  0
 43 42  1  0  0  0  0
 45 49  1  6  0  0  0
 45 48  1  0  0  0  0
 45 47  1  0  0  0  0
 47 44  1  1  0  0  0
 47 43  1  0  0  0  0
 48 46  1  1  0  0  0
 48 47  1  0  0  0  0
 50 51  1  1  0  0  0
 50 49  1  0  0  0  0
 52 53  1  0  0  0  0
 53 50  1  0  0  0  0
M  END
>  <MODEL>
9

>  <REMARK>
 VINA RESULT:      -2.4      3.141     10.140
  Name = 
  29 active torsions:
  status: ('A' for Active; 'I' for Inactive)
    1  A    between atoms: C_3  and  N_46
    2  A    between atoms: C_3  and  C_53
    3  A    between atoms: C_4  and  C_18
    4  A    between atoms: C_4  and  N_32
    5  A    between atoms: C_5  and  C_20
    6  A    between atoms: C_5  and  C_38
    7  A    between atoms: C_8  and  O_19
    8  A    between atoms: C_9  and  C_10
    9  A    between atoms: C_10  and  C_29
   10  A    between atoms: C_13  and  O_19
   11  A    between atoms: C_13  and  C_36
   12  A    between atoms: O_15  and  C_29
   13  A    between atoms: O_15  and  C_51
   14  A    between atoms: C_16  and  C_20
   15  A    between atoms: C_16  and  C_23
   16  A    between atoms: C_21  and  O_34
   17  A    between atoms: C_21  and  N_45
   18  A    between atoms: C_23  and  C_43
   19  A    between atoms: C_23  and  N_50
   20  A    between atoms: C_25  and  N_32
   21  A    between atoms: C_25  and  O_47
   22  A    between atoms: C_25  and  C_49
   23  A    between atoms: C_26  and  O_34
   24  A    between atoms: C_26  and  C_40
   25  A    between atoms: C_29  and  C_41
   26  A    between atoms: C_30  and  N_50
   27  A    between atoms: C_30  and  C_51
   28  A    between atoms: C_38  and  N_45
   29  A    between atoms: N_46  and  C_49
                            x       y       z     vdW  Elec       q    Type
                         _______ _______ _______ _____ _____    ______ ____

>  <TORSDO>
F 29

$$$$
