=
 OpenBabel11052411023D

 37 40  0  0  1  0  0  0  0  0999 V2000
  160.2410  210.3410  153.7070 C   0  0  0  0  0  3  0  0  0  0  0  0
  159.8660  214.4530  149.0500 C   0  0  0  0  0  2  0  0  0  0  0  0
  161.1670  210.3190  151.4650 C   0  0  0  0  0  3  0  0  0  0  0  0
  159.7720  212.1660  152.1930 C   0  0  0  0  0  0  0  0  0  0  0  0
  158.9990  213.6820  151.6100 S   0  0  0  0  0  0  0  0  0  0  0  0
  161.8380  212.1720  149.2630 O   0  0  0  0  0  0  0  0  0  0  0  0
  160.2820  213.7260  150.3190 C   0  0  1  0  0  3  0  0  0  0  0  0
  162.8920  212.7670  147.1620 C   0  0  0  0  0  1  0  0  0  0  0  0
  160.6030  212.2880  149.9460 C   0  0  2  0  0  3  0  0  0  0  0  0
  160.5600  211.5510  151.2280 C   0  0  0  0  0  0  0  0  0  0  0  0
  160.7710  214.0310  147.8710 C   0  0  1  0  0  3  0  0  0  0  0  0
  162.0350  213.2320  148.3270 C   0  0  1  0  0  3  0  0  0  0  0  0
  161.0100  209.7150  152.7160 C   0  0  0  0  0  0  0  0  0  0  0  0
  159.6180  211.5810  153.4710 C   0  0  0  0  0  0  0  0  0  0  0  0
  158.8220  212.1990  154.5620 C   0  0  0  0  0  0  0  0  0  0  0  0
  159.4190  213.0310  155.5190 C   0  0  0  0  0  3  0  0  0  0  0  0
  157.4540  211.9140  154.6810 C   0  0  0  0  0  3  0  0  0  0  0  0
  158.6480  213.5720  156.5490 C   0  0  0  0  0  3  0  0  0  0  0  0
  156.7150  212.4720  155.7250 C   0  0  0  0  0  3  0  0  0  0  0  0
  157.3220  213.2860  156.6310 N   0  0  0  0  0  0  0  0  0  0  0  0
  161.6330  208.3900  152.9860 C   0  0  0  0  0  2  0  0  0  0  0  0
  160.8370  207.2910  152.3020 C   0  0  0  0  0  2  0  0  0  0  0  0
  161.7570  206.3970  151.4850 C   0  0  0  0  0  2  0  0  0  0  0  0
  161.3810  204.9300  151.6360 C   0  0  0  0  0  2  0  0  0  0  0  0
  160.9190  204.3610  150.3040 C   0  0  0  0  0  2  0  0  0  0  0  0
  162.0480  205.6150  145.5460 C   0  0  0  0  0  1  0  0  0  0  0  0
  161.6870  205.9440  146.9150 N   0  0  0  0  0  2  0  0  0  0  0  0
  161.1540  205.3260  149.2410 N   0  0  0  0  0  2  0  0  0  0  0  0
  161.5040  204.9380  147.9100 C   0  0  0  0  0  0  0  0  0  0  0  0
  161.6540  203.7190  147.6210 O   0  0  0  0  0  0  0  0  0  0  0  0
  159.9880  213.3740  146.7170 C   0  0  1  0  0  3  0  0  0  0  0  0
  157.7300  214.3850  146.2070 N   0  0  0  0  0  2  0  0  0  0  0  0
  158.5010  213.4080  146.9020 C   0  0  0  0  0  0  0  0  0  0  0  0
  157.9300  212.5610  147.6420 O   0  0  0  0  0  0  0  0  0  0  0  0
  156.3820  214.4130  146.3210 O   0  0  0  0  0  1  0  0  0  0  0  0
  160.5380  212.8770  144.4970 C   0  0  0  0  0  1  0  0  0  0  0  0
  160.3590  213.9670  145.4410 N   0  0  0  0  0  2  0  0  0  0  0  0
  3 13  1  0  0  0  0
  4 14  2  0  0  0  0
  5  4  1  0  0  0  0
  7  2  1  6  0  0  0
  7  5  1  0  0  0  0
  9  6  1  1  0  0  0
  9  7  1  0  0  0  0
  9 10  1  0  0  0  0
 10  3  2  0  0  0  0
 10  4  1  0  0  0  0
 11 31  1  6  0  0  0
 11 12  1  0  0  0  0
 11  2  1  0  0  0  0
 12  8  1  6  0  0  0
 12  6  1  0  0  0  0
 13 21  1  0  0  0  0
 13  1  2  0  0  0  0
 14  1  1  0  0  0  0
 14 15  1  0  0  0  0
 15 17  2  0  0  0  0
 15 16  1  0  0  0  0
 16 18  2  0  0  0  0
 17 19  1  0  0  0  0
 18 20  1  0  0  0  0
 19 20  2  0  0  0  0
 22 21  1  0  0  0  0
 23 24  1  0  0  0  0
 23 22  1  0  0  0  0
 25 24  1  0  0  0  0
 26 27  1  0  0  0  0
 27 29  1  0  0  0  0
 28 25  1  0  0  0  0
 29 28  1  0  0  0  0
 30 29  2  0  0  0  0
 31 37  1  6  0  0  0
 31 33  1  0  0  0  0
 32 35  1  0  0  0  0
 32 33  1  0  0  0  0
 33 34  2  0  0  0  0
 36 37  1  0  0  0  0
M  END
>  <MODEL>
1

>  <REMARK>
 VINA RESULT:      -5.9      0.000      0.000
  Name = 
  10 active torsions:
  status: ('A' for Active; 'I' for Inactive)
    1  A    between atoms: C_3  and  C_34
    2  A    between atoms: C_5  and  C_9
    3  A    between atoms: C_8  and  C_29
    4  A    between atoms: C_8  and  C_30
    5  A    between atoms: C_9  and  C_24
    6  A    between atoms: C_9  and  N_33
    7  A    between atoms: C_12  and  C_28
    8  A    between atoms: C_12  and  C_37
    9  A    between atoms: N_26  and  C_28
   10  A    between atoms: C_30  and  C_37
                            x       y       z     vdW  Elec       q    Type
                         _______ _______ _______ _____ _____    ______ ____

>  <TORSDO>
F 10

$$$$
=
 OpenBabel11052411023D

 37 40  0  0  1  0  0  0  0  0999 V2000
  162.1520  210.6150  150.7770 C   0  0  0  0  0  3  0  0  0  0  0  0
  160.5730  204.7940  149.2410 C   0  0  0  0  0  2  0  0  0  0  0  0
  162.0630  209.4870  148.6310 C   0  0  0  0  0  3  0  0  0  0  0  0
  161.5270  208.2830  150.6680 C   0  0  0  0  0  0  0  0  0  0  0  0
  161.1090  206.6460  151.2850 S   0  0  0  0  0  0  0  0  0  0  0  0
  160.8120  207.1380  147.3470 O   0  0  0  0  0  0  0  0  0  0  0  0
  160.5150  206.2690  149.6070 C   0  0  1  0  0  3  0  0  0  0  0  0
  160.1690  205.7810  145.4430 C   0  0  0  0  0  1  0  0  0  0  0  0
  161.4010  207.0250  148.6290 C   0  0  2  0  0  3  0  0  0  0  0  0
  161.6550  208.3260  149.2860 C   0  0  0  0  0  0  0  0  0  0  0  0
  160.5350  204.6230  147.7060 C   0  0  1  0  0  3  0  0  0  0  0  0
  160.1470  205.9370  146.9530 C   0  0  1  0  0  3  0  0  0  0  0  0
  162.3080  210.6400  149.3840 C   0  0  0  0  0  0  0  0  0  0  0  0
  161.7490  209.4430  151.4450 C   0  0  0  0  0  0  0  0  0  0  0  0
  161.5950  209.4810  152.9220 C   0  0  0  0  0  0  0  0  0  0  0  0
  162.0690  210.5620  153.6770 C   0  0  0  0  0  3  0  0  0  0  0  0
  161.0110  208.3960  153.5930 C   0  0  0  0  0  3  0  0  0  0  0  0
  161.9350  210.5510  155.0660 C   0  0  0  0  0  3  0  0  0  0  0  0
  160.8950  208.4210  154.9840 C   0  0  0  0  0  3  0  0  0  0  0  0
  161.3540  209.4910  155.6880 N   0  0  0  0  0  0  0  0  0  0  0  0
  162.7630  211.8860  148.7080 C   0  0  0  0  0  2  0  0  0  0  0  0
  161.6440  212.9140  148.7070 C   0  0  0  0  0  2  0  0  0  0  0  0
  160.8610  212.8470  147.4040 C   0  0  0  0  0  2  0  0  0  0  0  0
  161.7740  213.0200  146.1990 C   0  0  0  0  0  2  0  0  0  0  0  0
  160.9560  213.0880  144.9190 C   0  0  0  0  0  2  0  0  0  0  0  0
  161.9310  211.1270  140.3700 C   0  0  0  0  0  1  0  0  0  0  0  0
  162.2880  211.9140  141.5380 N   0  0  0  0  0  2  0  0  0  0  0  0
  161.8140  212.8540  143.7670 N   0  0  0  0  0  2  0  0  0  0  0  0
  161.4010  212.0710  142.6450 C   0  0  0  0  0  0  0  0  0  0  0  0
  160.2660  211.5190  142.6350 O   0  0  0  0  0  0  0  0  0  0  0  0
  161.7890  203.9200  147.1490 C   0  0  1  0  0  3  0  0  0  0  0  0
  161.6050  201.4760  147.7580 N   0  0  0  0  0  2  0  0  0  0  0  0
  161.5560  202.4920  146.7590 C   0  0  0  0  0  0  0  0  0  0  0  0
  161.2890  202.1910  145.5640 O   0  0  0  0  0  0  0  0  0  0  0  0
  161.3570  200.1830  147.4450 O   0  0  0  0  0  1  0  0  0  0  0  0
  163.7920  204.6450  146.1780 C   0  0  0  0  0  1  0  0  0  0  0  0
  162.3460  204.6710  146.0330 N   0  0  0  0  0  2  0  0  0  0  0  0
  1 14  1  0  0  0  0
  3 10  2  0  0  0  0
  3 13  1  0  0  0  0
  4  5  1  0  0  0  0
  4 14  2  0  0  0  0
  7  2  1  6  0  0  0
  7  5  1  0  0  0  0
  9  6  1  6  0  0  0
  9 10  1  0  0  0  0
  9  7  1  0  0  0  0
 10  4  1  0  0  0  0
 11 31  1  6  0  0  0
 11  2  1  0  0  0  0
 12  8  1  6  0  0  0
 12  6  1  0  0  0  0
 12 11  1  0  0  0  0
 13  1  2  0  0  0  0
 14 15  1  0  0  0  0
 15 17  2  0  0  0  0
 15 16  1  0  0  0  0
 16 18  2  0  0  0  0
 17 19  1  0  0  0  0
 18 20  1  0  0  0  0
 19 20  2  0  0  0  0
 21 13  1  0  0  0  0
 22 21  1  0  0  0  0
 23 22  1  0  0  0  0
 24 23  1  0  0  0  0
 25 24  1  0  0  0  0
 26 27  1  0  0  0  0
 27 29  1  0  0  0  0
 28 25  1  0  0  0  0
 29 28  1  0  0  0  0
 30 29  2  0  0  0  0
 31 37  1  6  0  0  0
 33 31  1  0  0  0  0
 33 32  1  0  0  0  0
 34 33  2  0  0  0  0
 35 32  1  0  0  0  0
 37 36  1  0  0  0  0
M  END
>  <MODEL>
2

>  <REMARK>
 VINA RESULT:      -5.6      3.329      7.960
  Name = 
  10 active torsions:
  status: ('A' for Active; 'I' for Inactive)
    1  A    between atoms: C_3  and  C_34
    2  A    between atoms: C_5  and  C_9
    3  A    between atoms: C_8  and  C_29
    4  A    between atoms: C_8  and  C_30
    5  A    between atoms: C_9  and  C_24
    6  A    between atoms: C_9  and  N_33
    7  A    between atoms: C_12  and  C_28
    8  A    between atoms: C_12  and  C_37
    9  A    between atoms: N_26  and  C_28
   10  A    between atoms: C_30  and  C_37
                            x       y       z     vdW  Elec       q    Type
                         _______ _______ _______ _____ _____    ______ ____

>  <TORSDO>
F 10

$$$$
=
 OpenBabel11052411023D

 37 40  0  0  1  0  0  0  0  0999 V2000
  161.7720  209.8230  150.8080 C   0  0  0  0  0  3  0  0  0  0  0  0
  157.7240  213.5680  153.6930 C   0  0  0  0  0  2  0  0  0  0  0  0
  160.4360  209.5090  152.8080 C   0  0  0  0  0  3  0  0  0  0  0  0
  160.3580  211.6140  151.6050 C   0  0  0  0  0  0  0  0  0  0  0  0
  159.6590  213.2690  151.6770 S   0  0  0  0  0  0  0  0  0  0  0  0
  158.0210  210.5910  154.1230 O   0  0  0  0  0  0  0  0  0  0  0  0
  158.3540  212.5700  152.7350 C   0  0  1  0  0  3  0  0  0  0  0  0
  156.2310  210.5570  155.7580 C   0  0  0  0  0  1  0  0  0  0  0  0
  158.9860  211.4640  153.5670 C   0  0  2  0  0  3  0  0  0  0  0  0
  159.9320  210.7980  152.6440 C   0  0  0  0  0  0  0  0  0  0  0  0
  157.0200  212.8270  154.8510 C   0  0  1  0  0  3  0  0  0  0  0  0
  156.8690  211.2920  154.5930 C   0  0  1  0  0  3  0  0  0  0  0  0
  161.3580  209.0180  151.8790 C   0  0  0  0  0  0  0  0  0  0  0  0
  161.2740  211.1290  150.6420 C   0  0  0  0  0  0  0  0  0  0  0  0
  161.7440  211.9310  149.4840 C   0  0  0  0  0  0  0  0  0  0  0  0
  161.0970  213.1150  149.1060 C   0  0  0  0  0  3  0  0  0  0  0  0
  162.8260  211.4810  148.7130 C   0  0  0  0  0  3  0  0  0  0  0  0
  161.5460  213.8290  147.9940 C   0  0  0  0  0  3  0  0  0  0  0  0
  163.2470  212.2220  147.6070 C   0  0  0  0  0  3  0  0  0  0  0  0
  162.6050  213.3730  147.2730 N   0  0  0  0  0  0  0  0  0  0  0  0
  161.9240  207.6510  152.0440 C   0  0  0  0  0  2  0  0  0  0  0  0
  161.2700  206.9560  153.2250 C   0  0  0  0  0  2  0  0  0  0  0  0
  161.0070  205.4920  152.9030 C   0  0  0  0  0  2  0  0  0  0  0  0
  161.7970  205.0420  151.6830 C   0  0  0  0  0  2  0  0  0  0  0  0
  160.8730  204.4110  150.6550 C   0  0  0  0  0  2  0  0  0  0  0  0
  161.7700  204.2740  145.6880 C   0  0  0  0  0  1  0  0  0  0  0  0
  161.4890  204.9770  146.9280 N   0  0  0  0  0  2  0  0  0  0  0  0
  161.0690  205.0390  149.3570 N   0  0  0  0  0  2  0  0  0  0  0  0
  161.3400  204.2900  148.1700 C   0  0  0  0  0  0  0  0  0  0  0  0
  161.4530  203.0340  148.2220 O   0  0  0  0  0  0  0  0  0  0  0  0
  157.6010  213.1830  156.2340 C   0  0  1  0  0  3  0  0  0  0  0  0
  159.7950  212.0310  156.7250 N   0  0  0  0  0  2  0  0  0  0  0  0
  159.0990  213.1910  156.2740 C   0  0  0  0  0  0  0  0  0  0  0  0
  159.7430  214.2020  155.8840 O   0  0  0  0  0  0  0  0  0  0  0  0
  161.1470  211.9930  156.7330 O   0  0  0  0  0  1  0  0  0  0  0  0
  155.6220  214.3760  156.6030 C   0  0  0  0  0  1  0  0  0  0  0  0
  157.0700  214.4530  156.7040 N   0  0  0  0  0  2  0  0  0  0  0  0
  1 13  1  0  0  0  0
  2 11  1  0  0  0  0
  4  5  1  0  0  0  0
  4 10  2  0  0  0  0
  5  7  1  0  0  0  0
  6 12  1  0  0  0  0
  7  9  1  0  0  0  0
  7  2  1  1  0  0  0
  9 10  1  6  0  0  0
  9  6  1  0  0  0  0
 10  3  1  0  0  0  0
 11 31  1  1  0  0  0
 12 11  1  0  0  0  0
 12  8  1  1  0  0  0
 13 21  1  0  0  0  0
 13  3  2  0  0  0  0
 14  1  2  0  0  0  0
 14  4  1  0  0  0  0
 15 14  1  0  0  0  0
 16 15  1  0  0  0  0
 17 15  2  0  0  0  0
 18 16  2  0  0  0  0
 19 17  1  0  0  0  0
 20 19  2  0  0  0  0
 20 18  1  0  0  0  0
 21 22  1  0  0  0  0
 23 22  1  0  0  0  0
 24 23  1  0  0  0  0
 25 24  1  0  0  0  0
 26 27  1  0  0  0  0
 27 29  1  0  0  0  0
 28 25  1  0  0  0  0
 29 30  2  0  0  0  0
 29 28  1  0  0  0  0
 31 33  1  6  0  0  0
 31 37  1  0  0  0  0
 32 35  1  0  0  0  0
 33 32  1  0  0  0  0
 34 33  2  0  0  0  0
 36 37  1  0  0  0  0
M  END
>  <MODEL>
3

>  <REMARK>
 VINA RESULT:      -5.5      2.641      6.717
  Name = 
  10 active torsions:
  status: ('A' for Active; 'I' for Inactive)
    1  A    between atoms: C_3  and  C_34
    2  A    between atoms: C_5  and  C_9
    3  A    between atoms: C_8  and  C_29
    4  A    between atoms: C_8  and  C_30
    5  A    between atoms: C_9  and  C_24
    6  A    between atoms: C_9  and  N_33
    7  A    between atoms: C_12  and  C_28
    8  A    between atoms: C_12  and  C_37
    9  A    between atoms: N_26  and  C_28
   10  A    between atoms: C_30  and  C_37
                            x       y       z     vdW  Elec       q    Type
                         _______ _______ _______ _____ _____    ______ ____

>  <TORSDO>
F 10

$$$$
=
 OpenBabel11052411023D

 37 40  0  0  1  0  0  0  0  0999 V2000
  162.0930  210.7280  150.9940 C   0  0  0  0  0  3  0  0  0  0  0  0
  160.6900  204.8770  149.4030 C   0  0  0  0  0  2  0  0  0  0  0  0
  161.9740  209.6350  148.8320 C   0  0  0  0  0  3  0  0  0  0  0  0
  161.5560  208.3750  150.8630 C   0  0  0  0  0  0  0  0  0  0  0  0
  161.2230  206.7130  151.4630 S   0  0  0  0  0  0  0  0  0  0  0  0
  160.7730  207.2610  147.5470 O   0  0  0  0  0  0  0  0  0  0  0  0
  160.5870  206.3410  149.7990 C   0  0  1  0  0  3  0  0  0  0  0  0
  160.1180  205.9140  145.6400 C   0  0  0  0  0  1  0  0  0  0  0  0
  161.4090  207.1490  148.8060 C   0  0  2  0  0  3  0  0  0  0  0  0
  161.6340  208.4480  149.4780 C   0  0  0  0  0  0  0  0  0  0  0  0
  160.6060  204.7310  147.8680 C   0  0  1  0  0  3  0  0  0  0  0  0
  160.1420  206.0420  147.1530 C   0  0  1  0  0  3  0  0  0  0  0  0
  162.1990  210.7830  149.5980 C   0  0  0  0  0  0  0  0  0  0  0  0
  161.7590  209.5300  151.6540 C   0  0  0  0  0  0  0  0  0  0  0  0
  161.6540  209.5350  153.1350 C   0  0  0  0  0  0  0  0  0  0  0  0
  160.9240  208.5530  153.8180 C   0  0  0  0  0  3  0  0  0  0  0  0
  162.2490  210.5670  153.8770 C   0  0  0  0  0  3  0  0  0  0  0  0
  160.8210  208.6050  155.2090 C   0  0  0  0  0  3  0  0  0  0  0  0
  162.1230  210.5850  155.2670 C   0  0  0  0  0  3  0  0  0  0  0  0
  161.4190  209.6100  155.9010 N   0  0  0  0  0  0  0  0  0  0  0  0
  162.5820  212.0580  148.9310 C   0  0  0  0  0  2  0  0  0  0  0  0
  161.8080  212.2200  147.6340 C   0  0  0  0  0  2  0  0  0  0  0  0
  160.9880  213.5010  147.6600 C   0  0  0  0  0  2  0  0  0  0  0  0
  161.2430  214.2970  148.9310 C   0  0  0  0  0  2  0  0  0  0  0  0
  159.9570  214.4510  149.7270 C   0  0  0  0  0  2  0  0  0  0  0  0
  158.5870  211.6140  153.6730 C   0  0  0  0  0  1  0  0  0  0  0  0
  159.4860  212.5340  152.9970 N   0  0  0  0  0  2  0  0  0  0  0  0
  160.1410  213.9310  151.0740 N   0  0  0  0  0  2  0  0  0  0  0  0
  159.2200  213.0230  151.6830 C   0  0  0  0  0  0  0  0  0  0  0  0
  158.1790  212.6630  151.0680 O   0  0  0  0  0  0  0  0  0  0  0  0
  161.8670  204.0880  147.2550 C   0  0  1  0  0  3  0  0  0  0  0  0
  161.5650  201.5810  147.2860 N   0  0  0  0  0  2  0  0  0  0  0  0
  161.5990  202.7970  146.5430 C   0  0  0  0  0  0  0  0  0  0  0  0
  161.3760  202.7860  145.3020 O   0  0  0  0  0  0  0  0  0  0  0  0
  161.2840  200.4050  146.6780 O   0  0  0  0  0  1  0  0  0  0  0  0
  163.8420  204.4520  146.0540 C   0  0  0  0  0  1  0  0  0  0  0  0
  162.5470  205.0270  146.3760 N   0  0  0  0  0  2  0  0  0  0  0  0
  1 14  1  0  0  0  0
  3 10  2  0  0  0  0
  3 13  1  0  0  0  0
  4  5  1  0  0  0  0
  4 14  2  0  0  0  0
  7  2  1  6  0  0  0
  7  5  1  0  0  0  0
  9  6  1  6  0  0  0
  9 10  1  0  0  0  0
  9  7  1  0  0  0  0
 10  4  1  0  0  0  0
 11 31  1  6  0  0  0
 11  2  1  0  0  0  0
 12  8  1  6  0  0  0
 12  6  1  0  0  0  0
 12 11  1  0  0  0  0
 13  1  2  0  0  0  0
 14 15  1  0  0  0  0
 15 16  2  0  0  0  0
 15 17  1  0  0  0  0
 16 18  1  0  0  0  0
 17 19  2  0  0  0  0
 18 20  2  0  0  0  0
 19 20  1  0  0  0  0
 21 13  1  0  0  0  0
 22 23  1  0  0  0  0
 22 21  1  0  0  0  0
 23 24  1  0  0  0  0
 24 25  1  0  0  0  0
 25 28  1  0  0  0  0
 27 26  1  0  0  0  0
 28 29  1  0  0  0  0
 29 27  1  0  0  0  0
 30 29  2  0  0  0  0
 31 37  1  6  0  0  0
 33 31  1  0  0  0  0
 33 32  1  0  0  0  0
 34 33  2  0  0  0  0
 35 32  1  0  0  0  0
 36 37  1  0  0  0  0
M  END
>  <MODEL>
4

>  <REMARK>
 VINA RESULT:      -5.4      2.845      8.055
  Name = 
  10 active torsions:
  status: ('A' for Active; 'I' for Inactive)
    1  A    between atoms: C_3  and  C_34
    2  A    between atoms: C_5  and  C_9
    3  A    between atoms: C_8  and  C_29
    4  A    between atoms: C_8  and  C_30
    5  A    between atoms: C_9  and  C_24
    6  A    between atoms: C_9  and  N_33
    7  A    between atoms: C_12  and  C_28
    8  A    between atoms: C_12  and  C_37
    9  A    between atoms: N_26  and  C_28
   10  A    between atoms: C_30  and  C_37
                            x       y       z     vdW  Elec       q    Type
                         _______ _______ _______ _____ _____    ______ ____

>  <TORSDO>
F 10

$$$$
=
 OpenBabel11052411023D

 37 40  0  0  1  0  0  0  0  0999 V2000
  161.4730  203.7710  149.7380 C   0  0  0  0  0  3  0  0  0  0  0  0
  160.8680  209.2000  152.7210 C   0  0  0  0  0  2  0  0  0  0  0  0
  161.2700  204.2940  152.0980 C   0  0  0  0  0  3  0  0  0  0  0  0
  161.3190  206.0760  150.4520 C   0  0  0  0  0  0  0  0  0  0  0  0
  161.3420  207.8670  150.2930 S   0  0  0  0  0  0  0  0  0  0  0  0
  160.3260  206.4590  153.8750 O   0  0  0  0  0  0  0  0  0  0  0  0
  160.5750  207.9280  151.9430 C   0  0  1  0  0  3  0  0  0  0  0  0
  159.6720  207.3900  156.0160 C   0  0  0  0  0  1  0  0  0  0  0  0
  161.1230  206.7570  152.7430 C   0  0  2  0  0  3  0  0  0  0  0  0
  161.2130  205.6470  151.7690 C   0  0  0  0  0  0  0  0  0  0  0  0
  160.6200  208.9730  154.2290 C   0  0  1  0  0  3  0  0  0  0  0  0
  159.8610  207.6390  154.5300 C   0  0  1  0  0  3  0  0  0  0  0  0
  161.3960  203.3510  151.0740 C   0  0  0  0  0  0  0  0  0  0  0  0
  161.4250  205.1370  149.3990 C   0  0  0  0  0  0  0  0  0  0  0  0
  161.5050  205.5200  147.9670 C   0  0  0  0  0  0  0  0  0  0  0  0
  160.4800  206.2480  147.3480 C   0  0  0  0  0  3  0  0  0  0  0  0
  162.6000  205.1090  147.1910 C   0  0  0  0  0  3  0  0  0  0  0  0
  160.5730  206.5650  145.9920 C   0  0  0  0  0  3  0  0  0  0  0  0
  162.6570  205.4450  145.8370 C   0  0  0  0  0  3  0  0  0  0  0  0
  161.6510  206.1630  145.2690 N   0  0  0  0  0  0  0  0  0  0  0  0
  161.4780  201.9020  151.4030 C   0  0  0  0  0  2  0  0  0  0  0  0
  160.4040  201.1360  150.6490 C   0  0  0  0  0  2  0  0  0  0  0  0
  160.5410  201.3620  149.1500 C   0  0  0  0  0  2  0  0  0  0  0  0
  161.5780  200.4300  148.5420 C   0  0  0  0  0  2  0  0  0  0  0  0
  161.3760  200.3210  147.0390 C   0  0  0  0  0  2  0  0  0  0  0  0
  159.2980  203.5650  143.7770 C   0  0  0  0  0  1  0  0  0  0  0  0
  160.1820  203.2370  144.8820 N   0  0  0  0  0  2  0  0  0  0  0  0
  161.2070  201.6450  146.4610 N   0  0  0  0  0  2  0  0  0  0  0  0
  160.3160  201.9040  145.3740 C   0  0  0  0  0  0  0  0  0  0  0  0
  159.6600  200.9630  144.8490 O   0  0  0  0  0  0  0  0  0  0  0  0
  161.8830  209.1900  155.0860 C   0  0  1  0  0  3  0  0  0  0  0  0
  160.8540  211.3080  155.9990 N   0  0  0  0  0  2  0  0  0  0  0  0
  162.0210  210.5860  155.6130 C   0  0  0  0  0  0  0  0  0  0  0  0
  163.1600  211.1100  155.7440 O   0  0  0  0  0  0  0  0  0  0  0  0
  160.9490  212.5530  156.5190 O   0  0  0  0  0  1  0  0  0  0  0  0
  162.7110  208.8290  157.2450 C   0  0  0  0  0  1  0  0  0  0  0  0
  161.9400  208.2240  156.1720 N   0  0  0  0  0  2  0  0  0  0  0  0
  1 13  1  0  0  0  0
  2 11  1  0  0  0  0
  4 10  2  0  0  0  0
  5  4  1  0  0  0  0
  5  7  1  0  0  0  0
  6 12  1  0  0  0  0
  7  2  1  1  0  0  0
  7  9  1  0  0  0  0
  9 10  1  6  0  0  0
  9  6  1  0  0  0  0
 10  3  1  0  0  0  0
 11 12  1  0  0  0  0
 11 31  1  1  0  0  0
 12  8  1  1  0  0  0
 13 21  1  0  0  0  0
 13  3  2  0  0  0  0
 14  1  2  0  0  0  0
 14  4  1  0  0  0  0
 15 14  1  0  0  0  0
 16 15  1  0  0  0  0
 17 15  2  0  0  0  0
 18 16  2  0  0  0  0
 19 17  1  0  0  0  0
 20 19  2  0  0  0  0
 20 18  1  0  0  0  0
 22 21  1  0  0  0  0
 23 22  1  0  0  0  0
 24 23  1  0  0  0  0
 25 24  1  0  0  0  0
 26 27  1  0  0  0  0
 27 29  1  0  0  0  0
 28 25  1  0  0  0  0
 29 28  1  0  0  0  0
 30 29  2  0  0  0  0
 31 33  1  1  0  0  0
 31 37  1  0  0  0  0
 32 35  1  0  0  0  0
 33 34  2  0  0  0  0
 33 32  1  0  0  0  0
 37 36  1  0  0  0  0
M  END
>  <MODEL>
5

>  <REMARK>
 VINA RESULT:      -5.3      5.165      8.632
  Name = 
  10 active torsions:
  status: ('A' for Active; 'I' for Inactive)
    1  A    between atoms: C_3  and  C_34
    2  A    between atoms: C_5  and  C_9
    3  A    between atoms: C_8  and  C_29
    4  A    between atoms: C_8  and  C_30
    5  A    between atoms: C_9  and  C_24
    6  A    between atoms: C_9  and  N_33
    7  A    between atoms: C_12  and  C_28
    8  A    between atoms: C_12  and  C_37
    9  A    between atoms: N_26  and  C_28
   10  A    between atoms: C_30  and  C_37
                            x       y       z     vdW  Elec       q    Type
                         _______ _______ _______ _____ _____    ______ ____

>  <TORSDO>
F 10

$$$$
=
 OpenBabel11052411023D

 37 40  0  0  1  0  0  0  0  0999 V2000
  162.1520  210.6480  150.8180 C   0  0  0  0  0  3  0  0  0  0  0  0
  160.5640  204.8520  149.1980 C   0  0  0  0  0  2  0  0  0  0  0  0
  162.0950  209.5410  148.6610 C   0  0  0  0  0  3  0  0  0  0  0  0
  161.5150  208.3200  150.6760 C   0  0  0  0  0  0  0  0  0  0  0  0
  161.0750  206.6810  151.2700 S   0  0  0  0  0  0  0  0  0  0  0  0
  160.8530  207.2120  147.3320 O   0  0  0  0  0  0  0  0  0  0  0  0
  160.5090  206.3230  149.5770 C   0  0  1  0  0  3  0  0  0  0  0  0
  160.2350  205.8780  145.4030 C   0  0  0  0  0  1  0  0  0  0  0  0
  161.4170  207.0830  148.6230 C   0  0  2  0  0  3  0  0  0  0  0  0
  161.6670  208.3760  149.2970 C   0  0  0  0  0  0  0  0  0  0  0  0
  160.5530  204.6960  147.6610 C   0  0  1  0  0  3  0  0  0  0  0  0
  160.1870  206.0200  146.9140 C   0  0  1  0  0  3  0  0  0  0  0  0
  162.3330  210.6840  149.4290 C   0  0  0  0  0  0  0  0  0  0  0  0
  161.7300  209.4720  151.4680 C   0  0  0  0  0  0  0  0  0  0  0  0
  161.5490  209.4960  152.9420 C   0  0  0  0  0  0  0  0  0  0  0  0
  161.1400  208.3550  153.6450 C   0  0  0  0  0  3  0  0  0  0  0  0
  161.7400  210.6910  153.6520 C   0  0  0  0  0  3  0  0  0  0  0  0
  160.9500  208.4210  155.0260 C   0  0  0  0  0  3  0  0  0  0  0  0
  161.5400  210.7170  155.0330 C   0  0  0  0  0  3  0  0  0  0  0  0
  161.1540  209.5900  155.6890 N   0  0  0  0  0  0  0  0  0  0  0  0
  162.8080  211.9340  148.7740 C   0  0  0  0  0  2  0  0  0  0  0  0
  161.8910  212.2970  147.6180 C   0  0  0  0  0  2  0  0  0  0  0  0
  161.1900  213.6190  147.8890 C   0  0  0  0  0  2  0  0  0  0  0  0
  159.7890  213.4010  148.4400 C   0  0  0  0  0  2  0  0  0  0  0  0
  158.7680  214.1650  147.6120 C   0  0  0  0  0  2  0  0  0  0  0  0
  159.2490  212.9550  142.7340 C   0  0  0  0  0  1  0  0  0  0  0  0
  159.5050  213.8090  143.8820 N   0  0  0  0  0  2  0  0  0  0  0  0
  159.2810  214.3850  146.2680 N   0  0  0  0  0  2  0  0  0  0  0  0
  158.9900  213.5080  145.1780 C   0  0  0  0  0  0  0  0  0  0  0  0
  158.2900  212.4740  145.3610 O   0  0  0  0  0  0  0  0  0  0  0  0
  161.8120  203.9900  147.1200 C   0  0  1  0  0  3  0  0  0  0  0  0
  161.6270  201.5060  147.5410 N   0  0  0  0  0  2  0  0  0  0  0  0
  161.5570  202.5980  146.6260 C   0  0  0  0  0  0  0  0  0  0  0  0
  161.2550  202.3930  145.4200 O   0  0  0  0  0  0  0  0  0  0  0  0
  161.3610  200.2430  147.1350 O   0  0  0  0  0  1  0  0  0  0  0  0
  163.8520  204.4260  146.0580 C   0  0  0  0  0  1  0  0  0  0  0  0
  162.4460  204.7920  146.0840 N   0  0  0  0  0  2  0  0  0  0  0  0
  1 14  1  0  0  0  0
  3 10  2  0  0  0  0
  3 13  1  0  0  0  0
  4  5  1  0  0  0  0
  4 14  2  0  0  0  0
  7  2  1  6  0  0  0
  7  5  1  0  0  0  0
  9  6  1  6  0  0  0
  9 10  1  0  0  0  0
  9  7  1  0  0  0  0
 10  4  1  0  0  0  0
 11 31  1  6  0  0  0
 11  2  1  0  0  0  0
 12  8  1  6  0  0  0
 12  6  1  0  0  0  0
 12 11  1  0  0  0  0
 13  1  2  0  0  0  0
 14 15  1  0  0  0  0
 15 16  2  0  0  0  0
 15 17  1  0  0  0  0
 16 18  1  0  0  0  0
 17 19  2  0  0  0  0
 18 20  2  0  0  0  0
 19 20  1  0  0  0  0
 21 13  1  0  0  0  0
 22 23  1  0  0  0  0
 22 21  1  0  0  0  0
 23 24  1  0  0  0  0
 25 24  1  0  0  0  0
 26 27  1  0  0  0  0
 27 29  1  0  0  0  0
 28 25  1  0  0  0  0
 29 30  2  0  0  0  0
 29 28  1  0  0  0  0
 31 37  1  6  0  0  0
 33 31  1  0  0  0  0
 33 32  1  0  0  0  0
 34 33  2  0  0  0  0
 35 32  1  0  0  0  0
 36 37  1  0  0  0  0
M  END
>  <MODEL>
6

>  <REMARK>
 VINA RESULT:      -5.1      2.823      8.021
  Name = 
  10 active torsions:
  status: ('A' for Active; 'I' for Inactive)
    1  A    between atoms: C_3  and  C_34
    2  A    between atoms: C_5  and  C_9
    3  A    between atoms: C_8  and  C_29
    4  A    between atoms: C_8  and  C_30
    5  A    between atoms: C_9  and  C_24
    6  A    between atoms: C_9  and  N_33
    7  A    between atoms: C_12  and  C_28
    8  A    between atoms: C_12  and  C_37
    9  A    between atoms: N_26  and  C_28
   10  A    between atoms: C_30  and  C_37
                            x       y       z     vdW  Elec       q    Type
                         _______ _______ _______ _____ _____    ______ ____

>  <TORSDO>
F 10

$$$$
=
 OpenBabel11052411023D

 37 40  0  0  1  0  0  0  0  0999 V2000
  160.8310  204.7740  147.3530 C   0  0  0  0  0  3  0  0  0  0  0  0
  161.5470  207.3180  152.9880 C   0  0  0  0  0  2  0  0  0  0  0  0
  160.9000  207.0890  148.0740 C   0  0  0  0  0  3  0  0  0  0  0  0
  161.0700  205.2970  149.7010 C   0  0  0  0  0  0  0  0  0  0  0  0
  161.1650  204.9850  151.4700 S   0  0  0  0  0  0  0  0  0  0  0  0
  161.8440  208.7390  150.3370 O   0  0  0  0  0  0  0  0  0  0  0  0
  161.8170  206.6750  151.6370 C   0  0  1  0  0  3  0  0  0  0  0  0
  162.4020  210.8360  151.4200 C   0  0  0  0  0  1  0  0  0  0  0  0
  161.1470  207.5300  150.5740 C   0  0  2  0  0  3  0  0  0  0  0  0
  161.0600  206.6500  149.3880 C   0  0  0  0  0  0  0  0  0  0  0  0
  161.6760  208.8540  152.8840 C   0  0  1  0  0  3  0  0  0  0  0  0
  162.3310  209.3240  151.5450 C   0  0  1  0  0  3  0  0  0  0  0  0
  160.7910  206.1430  147.0510 C   0  0  0  0  0  0  0  0  0  0  0  0
  160.9830  204.3240  148.6790 C   0  0  0  0  0  0  0  0  0  0  0  0
  161.0250  202.8620  148.9350 C   0  0  0  0  0  0  0  0  0  0  0  0
  161.2060  201.9430  147.8930 C   0  0  0  0  0  3  0  0  0  0  0  0
  160.8310  202.3730  150.2360 C   0  0  0  0  0  3  0  0  0  0  0  0
  161.2110  200.5740  148.1650 C   0  0  0  0  0  3  0  0  0  0  0  0
  160.8420  200.9960  150.4690 C   0  0  0  0  0  3  0  0  0  0  0  0
  161.0320  200.1310  149.4380 N   0  0  0  0  0  0  0  0  0  0  0  0
  160.6010  206.5880  145.6430 C   0  0  0  0  0  2  0  0  0  0  0  0
  160.8310  205.4240  144.6950 C   0  0  0  0  0  2  0  0  0  0  0  0
  161.9510  205.7470  143.7170 C   0  0  0  0  0  2  0  0  0  0  0  0
  161.4340  205.8280  142.2880 C   0  0  0  0  0  2  0  0  0  0  0  0
  162.4200  206.5780  141.4080 C   0  0  0  0  0  2  0  0  0  0  0  0
  160.8630  208.8870  137.1970 C   0  0  0  0  0  1  0  0  0  0  0  0
  161.2120  207.7030  137.9640 N   0  0  0  0  0  2  0  0  0  0  0  0
  161.9560  206.5800  140.0290 N   0  0  0  0  0  2  0  0  0  0  0  0
  161.6310  207.7820  139.3260 C   0  0  0  0  0  0  0  0  0  0  0  0
  161.7070  208.9000  139.9060 O   0  0  0  0  0  0  0  0  0  0  0  0
  160.3700  209.5920  153.2440 C   0  0  1  0  0  3  0  0  0  0  0  0
  161.2480  211.0100  155.1400 N   0  0  0  0  0  2  0  0  0  0  0  0
  160.3080  210.0470  154.6700 C   0  0  0  0  0  0  0  0  0  0  0  0
  159.4150  209.6060  155.4430 O   0  0  0  0  0  0  0  0  0  0  0  0
  161.1910  211.4720  156.4110 O   0  0  0  0  0  1  0  0  0  0  0  0
  158.9040  211.3470  152.7430 C   0  0  0  0  0  1  0  0  0  0  0  0
  160.1470  210.7110  152.3390 N   0  0  0  0  0  2  0  0  0  0  0  0
  1 14  1  0  0  0  0
  3 10  2  0  0  0  0
  4  5  1  0  0  0  0
  5  7  1  0  0  0  0
  6  9  1  0  0  0  0
  6 12  1  0  0  0  0
  7  2  1  1  0  0  0
  9 10  1  6  0  0  0
  9  7  1  0  0  0  0
 10  4  1  0  0  0  0
 11  2  1  0  0  0  0
 11 31  1  6  0  0  0
 12  8  1  6  0  0  0
 12 11  1  0  0  0  0
 13  1  2  0  0  0  0
 13  3  1  0  0  0  0
 14 15  1  0  0  0  0
 14  4  2  0  0  0  0
 15 17  1  0  0  0  0
 16 18  1  0  0  0  0
 16 15  2  0  0  0  0
 17 19  2  0  0  0  0
 18 20  2  0  0  0  0
 20 19  1  0  0  0  0
 21 13  1  0  0  0  0
 22 21  1  0  0  0  0
 23 22  1  0  0  0  0
 24 23  1  0  0  0  0
 25 24  1  0  0  0  0
 26 27  1  0  0  0  0
 27 29  1  0  0  0  0
 28 25  1  0  0  0  0
 29 30  2  0  0  0  0
 29 28  1  0  0  0  0
 31 37  1  6  0  0  0
 31 33  1  0  0  0  0
 32 35  1  0  0  0  0
 33 32  1  0  0  0  0
 33 34  2  0  0  0  0
 37 36  1  0  0  0  0
M  END
>  <MODEL>
7

>  <REMARK>
 VINA RESULT:      -5.0      4.478      9.120
  Name = 
  10 active torsions:
  status: ('A' for Active; 'I' for Inactive)
    1  A    between atoms: C_3  and  C_34
    2  A    between atoms: C_5  and  C_9
    3  A    between atoms: C_8  and  C_29
    4  A    between atoms: C_8  and  C_30
    5  A    between atoms: C_9  and  C_24
    6  A    between atoms: C_9  and  N_33
    7  A    between atoms: C_12  and  C_28
    8  A    between atoms: C_12  and  C_37
    9  A    between atoms: N_26  and  C_28
   10  A    between atoms: C_30  and  C_37
                            x       y       z     vdW  Elec       q    Type
                         _______ _______ _______ _____ _____    ______ ____

>  <TORSDO>
F 10

$$$$
=
 OpenBabel11052411023D

 37 40  0  0  1  0  0  0  0  0999 V2000
  161.2390  204.6680  150.7480 C   0  0  0  0  0  3  0  0  0  0  0  0
  160.9870  210.1220  153.7360 C   0  0  0  0  0  2  0  0  0  0  0  0
  161.2010  205.2050  153.1140 C   0  0  0  0  0  3  0  0  0  0  0  0
  161.2000  206.9790  151.4580 C   0  0  0  0  0  0  0  0  0  0  0  0
  161.2660  208.7680  151.2900 S   0  0  0  0  0  0  0  0  0  0  0  0
  160.4380  207.4030  154.9350 O   0  0  0  0  0  0  0  0  0  0  0  0
  160.6080  208.8570  152.9840 C   0  0  1  0  0  3  0  0  0  0  0  0
  159.9490  208.3600  157.1090 C   0  0  0  0  0  1  0  0  0  0  0  0
  161.1700  207.6730  153.7540 C   0  0  2  0  0  3  0  0  0  0  0  0
  161.1640  206.5580  152.7810 C   0  0  0  0  0  0  0  0  0  0  0  0
  160.8290  209.9080  155.2580 C   0  0  1  0  0  3  0  0  0  0  0  0
  160.0510  208.5990  155.6130 C   0  0  1  0  0  3  0  0  0  0  0  0
  161.2330  204.2550  152.0880 C   0  0  0  0  0  0  0  0  0  0  0  0
  161.2100  206.0340  150.4060 C   0  0  0  0  0  0  0  0  0  0  0  0
  161.2110  206.4100  148.9690 C   0  0  0  0  0  0  0  0  0  0  0  0
  160.0810  206.2130  148.1640 C   0  0  0  0  0  3  0  0  0  0  0  0
  162.3750  206.9270  148.3800 C   0  0  0  0  0  3  0  0  0  0  0  0
  160.1260  206.5500  146.8100 C   0  0  0  0  0  3  0  0  0  0  0  0
  162.3810  207.2510  147.0230 C   0  0  0  0  0  3  0  0  0  0  0  0
  161.2640  207.0600  146.2700 N   0  0  0  0  0  0  0  0  0  0  0  0
  161.2920  202.8050  152.4190 C   0  0  0  0  0  2  0  0  0  0  0  0
  161.7890  202.0180  151.2180 C   0  0  0  0  0  2  0  0  0  0  0  0
  160.6960  201.0990  150.6940 C   0  0  0  0  0  2  0  0  0  0  0  0
  160.2230  201.5320  149.3140 C   0  0  0  0  0  2  0  0  0  0  0  0
  161.1990  201.0640  148.2470 C   0  0  0  0  0  2  0  0  0  0  0  0
  161.1770  204.4450  144.4970 C   0  0  0  0  0  1  0  0  0  0  0  0
  160.7770  203.1840  145.0980 N   0  0  0  0  0  2  0  0  0  0  0  0
  160.7770  201.5450  146.9400 N   0  0  0  0  0  2  0  0  0  0  0  0
  161.2100  202.7960  146.4020 C   0  0  0  0  0  0  0  0  0  0  0  0
  161.9620  203.5530  147.0740 O   0  0  0  0  0  0  0  0  0  0  0  0
  162.1500  210.0890  156.0310 C   0  0  1  0  0  3  0  0  0  0  0  0
  164.3950  211.2330  155.8670 N   0  0  0  0  0  2  0  0  0  0  0  0
  163.2500  210.6940  155.2120 C   0  0  0  0  0  0  0  0  0  0  0  0
  163.1790  210.7010  153.9530 O   0  0  0  0  0  0  0  0  0  0  0  0
  165.4230  211.7480  155.1530 O   0  0  0  0  0  1  0  0  0  0  0  0
  161.0740  211.9790  156.8970 C   0  0  0  0  0  1  0  0  0  0  0  0
  161.9330  210.8600  157.2460 N   0  0  0  0  0  2  0  0  0  0  0  0
  1 13  1  0  0  0  0
  2 11  1  0  0  0  0
  4 10  2  0  0  0  0
  5  4  1  0  0  0  0
  5  7  1  0  0  0  0
  6 12  1  0  0  0  0
  7  2  1  1  0  0  0
  7  9  1  0  0  0  0
  9 10  1  6  0  0  0
  9  6  1  0  0  0  0
 10  3  1  0  0  0  0
 11 12  1  0  0  0  0
 11 31  1  1  0  0  0
 12  8  1  1  0  0  0
 13 21  1  0  0  0  0
 13  3  2  0  0  0  0
 14  1  2  0  0  0  0
 14  4  1  0  0  0  0
 15 14  1  0  0  0  0
 16 15  2  0  0  0  0
 17 15  1  0  0  0  0
 18 16  1  0  0  0  0
 19 17  2  0  0  0  0
 20 18  2  0  0  0  0
 20 19  1  0  0  0  0
 22 21  1  0  0  0  0
 23 22  1  0  0  0  0
 24 23  1  0  0  0  0
 25 24  1  0  0  0  0
 26 27  1  0  0  0  0
 27 29  1  0  0  0  0
 28 25  1  0  0  0  0
 29 28  1  0  0  0  0
 29 30  2  0  0  0  0
 31 33  1  6  0  0  0
 31 37  1  0  0  0  0
 33 32  1  0  0  0  0
 34 33  2  0  0  0  0
 35 32  1  0  0  0  0
 36 37  1  0  0  0  0
M  END
>  <MODEL>
8

>  <REMARK>
 VINA RESULT:      -4.9      4.758      8.115
  Name = 
  10 active torsions:
  status: ('A' for Active; 'I' for Inactive)
    1  A    between atoms: C_3  and  C_34
    2  A    between atoms: C_5  and  C_9
    3  A    between atoms: C_8  and  C_29
    4  A    between atoms: C_8  and  C_30
    5  A    between atoms: C_9  and  C_24
    6  A    between atoms: C_9  and  N_33
    7  A    between atoms: C_12  and  C_28
    8  A    between atoms: C_12  and  C_37
    9  A    between atoms: N_26  and  C_28
   10  A    between atoms: C_30  and  C_37
                            x       y       z     vdW  Elec       q    Type
                         _______ _______ _______ _____ _____    ______ ____

>  <TORSDO>
F 10

$$$$
=
 OpenBabel11052411023D

 37 40  0  0  1  0  0  0  0  0999 V2000
  161.9610  209.0120  148.6270 C   0  0  0  0  0  3  0  0  0  0  0  0
  161.3380  207.5600  154.6470 C   0  0  0  0  0  2  0  0  0  0  0  0
  161.9560  210.3930  150.6210 C   0  0  0  0  0  3  0  0  0  0  0  0
  161.6190  207.9970  150.7940 C   0  0  0  0  0  0  0  0  0  0  0  0
  161.2440  206.6940  151.9750 S   0  0  0  0  0  0  0  0  0  0  0  0
  162.3700  210.1770  153.5390 O   0  0  0  0  0  0  0  0  0  0  0  0
  161.9130  207.7960  153.2600 C   0  0  1  0  0  3  0  0  0  0  0  0
  162.7340  211.0780  155.7600 C   0  0  0  0  0  1  0  0  0  0  0  0
  161.5780  209.2230  152.8550 C   0  0  2  0  0  3  0  0  0  0  0  0
  161.7540  209.2460  151.3860 C   0  0  0  0  0  0  0  0  0  0  0  0
  161.5630  208.8030  155.5370 C   0  0  1  0  0  3  0  0  0  0  0  0
  162.5610  209.8310  154.9110 C   0  0  1  0  0  3  0  0  0  0  0  0
  162.0650  210.2720  149.2320 C   0  0  0  0  0  0  0  0  0  0  0  0
  161.7480  207.8500  149.3930 C   0  0  0  0  0  0  0  0  0  0  0  0
  161.6520  206.5430  148.6950 C   0  0  0  0  0  0  0  0  0  0  0  0
  161.0120  205.4460  149.2870 C   0  0  0  0  0  3  0  0  0  0  0  0
  162.2550  206.3720  147.4400 C   0  0  0  0  0  3  0  0  0  0  0  0
  160.9670  204.2220  148.6160 C   0  0  0  0  0  3  0  0  0  0  0  0
  162.1900  205.1330  146.8010 C   0  0  0  0  0  3  0  0  0  0  0  0
  161.5500  204.0910  147.3960 N   0  0  0  0  0  0  0  0  0  0  0  0
  162.2620  211.4860  148.3930 C   0  0  0  0  0  2  0  0  0  0  0  0
  161.3020  212.5800  148.8280 C   0  0  0  0  0  2  0  0  0  0  0  0
  161.6520  213.8970  148.1500 C   0  0  0  0  0  2  0  0  0  0  0  0
  162.4270  213.6670  146.8610 C   0  0  0  0  0  2  0  0  0  0  0  0
  161.4980  213.7500  145.6610 C   0  0  0  0  0  2  0  0  0  0  0  0
  161.7590  211.4690  141.1640 C   0  0  0  0  0  1  0  0  0  0  0  0
  162.3310  212.2460  142.2510 N   0  0  0  0  0  2  0  0  0  0  0  0
  162.2030  213.3430  144.4550 N   0  0  0  0  0  2  0  0  0  0  0  0
  161.5810  212.5800  143.4180 C   0  0  0  0  0  0  0  0  0  0  0  0
  160.3840  212.2000  143.5370 O   0  0  0  0  0  0  0  0  0  0  0  0
  160.2470  209.4250  156.0440 C   0  0  1  0  0  3  0  0  0  0  0  0
  159.6010  211.7460  155.2860 N   0  0  0  0  0  2  0  0  0  0  0  0
  159.5920  210.3400  155.0540 C   0  0  0  0  0  0  0  0  0  0  0  0
  159.0620  209.8750  154.0080 O   0  0  0  0  0  0  0  0  0  0  0  0
  159.0560  212.6000  154.3890 O   0  0  0  0  0  1  0  0  0  0  0  0
  160.0810  207.4330  157.2610 C   0  0  0  0  0  1  0  0  0  0  0  0
  159.3200  208.3890  156.4750 N   0  0  0  0  0  2  0  0  0  0  0  0
  1 13  2  0  0  0  0
  1 14  1  0  0  0  0
  2 11  1  0  0  0  0
  3 10  2  0  0  0  0
  4 10  1  0  0  0  0
  4  5  1  0  0  0  0
  5  7  1  0  0  0  0
  6 12  1  0  0  0  0
  7  2  1  1  0  0  0
  9 10  1  6  0  0  0
  9  7  1  0  0  0  0
  9  6  1  0  0  0  0
 11 31  1  6  0  0  0
 12 11  1  0  0  0  0
 12  8  1  1  0  0  0
 13  3  1  0  0  0  0
 14  4  2  0  0  0  0
 15 16  1  0  0  0  0
 15 14  1  0  0  0  0
 17 15  2  0  0  0  0
 18 16  2  0  0  0  0
 19 20  2  0  0  0  0
 19 17  1  0  0  0  0
 20 18  1  0  0  0  0
 21 22  1  0  0  0  0
 21 13  1  0  0  0  0
 23 22  1  0  0  0  0
 24 23  1  0  0  0  0
 25 24  1  0  0  0  0
 26 27  1  0  0  0  0
 27 29  1  0  0  0  0
 28 25  1  0  0  0  0
 29 30  2  0  0  0  0
 29 28  1  0  0  0  0
 31 33  1  6  0  0  0
 31 37  1  0  0  0  0
 33 32  1  0  0  0  0
 34 33  2  0  0  0  0
 35 32  1  0  0  0  0
 37 36  1  0  0  0  0
M  END
>  <MODEL>
9

>  <REMARK>
 VINA RESULT:      -4.8      3.152      8.705
  Name = 
  10 active torsions:
  status: ('A' for Active; 'I' for Inactive)
    1  A    between atoms: C_3  and  C_34
    2  A    between atoms: C_5  and  C_9
    3  A    between atoms: C_8  and  C_29
    4  A    between atoms: C_8  and  C_30
    5  A    between atoms: C_9  and  C_24
    6  A    between atoms: C_9  and  N_33
    7  A    between atoms: C_12  and  C_28
    8  A    between atoms: C_12  and  C_37
    9  A    between atoms: N_26  and  C_28
   10  A    between atoms: C_30  and  C_37
                            x       y       z     vdW  Elec       q    Type
                         _______ _______ _______ _____ _____    ______ ____

>  <TORSDO>
F 10

$$$$
