=
 OpenBabel11052410293D

 35 39  0  0  1  0  0  0  0  0999 V2000
  161.6780  209.5940  150.5700 N   0  0  0  0  0  0  0  0  0  0  0  0
  161.3590  208.3370  150.9910 C   0  0  0  0  0  0  0  0  0  0  0  0
  161.8140  207.5270  148.7570 C   0  0  0  0  0  3  0  0  0  0  0  0
  161.1090  205.9400  150.5060 C   0  0  0  0  0  0  0  0  0  0  0  0
  160.7800  205.7390  151.8530 C   0  0  0  0  0  3  0  0  0  0  0  0
  162.1260  208.8250  148.3590 C   0  0  0  0  0  3  0  0  0  0  0  0
  160.7270  206.8000  152.7510 C   0  0  0  0  0  3  0  0  0  0  0  0
  161.0080  208.1060  152.3380 C   0  0  0  0  0  0  0  0  0  0  0  0
  161.4140  207.2550  150.0730 C   0  0  0  0  0  0  0  0  0  0  0  0
  162.0370  209.8640  149.2860 C   0  0  0  0  0  0  0  0  0  0  0  0
  160.5350  212.4210  156.0600 N   0  0  0  0  0  1  0  0  0  0  0  0
  161.1500  209.0080  154.7010 C   0  0  0  0  0  0  0  0  0  0  0  0
  161.5570  207.7370  155.1990 N   0  0  0  0  0  1  0  0  0  0  0  0
  160.5410  210.4920  152.8810 C   0  0  0  0  0  3  0  0  0  0  0  0
  161.0260  210.0750  155.5970 C   0  0  0  0  0  3  0  0  0  0  0  0
  160.4180  211.5510  153.7820 C   0  0  0  0  0  3  0  0  0  0  0  0
  160.9090  209.2110  153.3230 C   0  0  0  0  0  0  0  0  0  0  0  0
  160.6590  211.3420  155.1410 C   0  0  0  0  0  0  0  0  0  0  0  0
  160.8330  202.3650  149.2320 C   0  0  0  0  0  3  0  0  0  0  0  0
  161.1230  204.7540  149.6070 C   0  0  0  0  0  0  0  0  0  0  0  0
  161.2200  202.5210  147.9000 C   0  0  0  0  0  3  0  0  0  0  0  0
  161.5220  204.8940  148.2670 C   0  0  0  0  0  3  0  0  0  0  0  0
  160.7890  203.4740  150.0810 C   0  0  0  0  0  3  0  0  0  0  0  0
  161.5710  203.7870  147.4130 C   0  0  0  0  0  0  0  0  0  0  0  0
  160.9440  203.6250  145.1290 O   0  0  0  0  0  1  0  0  0  0  0  0
  161.9840  203.9800  145.9900 C   0  0  1  0  0  3  0  0  0  0  0  0
  162.3920  205.4200  145.7390 C   0  0  0  0  0  1  0  0  0  0  0  0
  161.3550  212.2480  149.3540 C   0  0  0  0  0  2  0  0  0  0  0  0
  162.4060  211.2580  148.8850 C   0  0  2  0  0  3  0  0  0  0  0  0
  161.3750  211.8020  147.9090 C   0  0  2  0  0  3  0  0  0  0  0  0
  161.9920  212.8340  147.0960 N   0  0  0  0  0  2  0  0  0  0  0  0
  161.0550  213.1940  146.1170 N   0  0  0  0  0  0  0  0  0  0  0  0
  160.3630  214.2480  146.6110 O   0  0  0  0  0  1  0  0  0  0  0  0
  159.6850  212.2430  144.7160 C   0  0  0  0  0  1  0  0  0  0  0  0
  160.1800  212.1650  146.0180 O   0  0  0  0  0  0  0  0  0  0  0  0
  1  2  1  0  0  0  0
  2  8  1  0  0  0  0
  3  9  1  0  0  0  0
  4  5  2  0  0  0  0
  5  7  1  0  0  0  0
  6  3  2  0  0  0  0
  6 10  1  0  0  0  0
  8  7  2  0  0  0  0
  8 17  1  0  0  0  0
  9  4  1  0  0  0  0
  9  2  2  0  0  0  0
 10  1  2  0  0  0  0
 12 13  1  0  0  0  0
 12 15  1  0  0  0  0
 14 17  1  0  0  0  0
 14 16  2  0  0  0  0
 16 18  1  0  0  0  0
 17 12  2  0  0  0  0
 18 15  2  0  0  0  0
 18 11  1  0  0  0  0
 19 23  1  0  0  0  0
 20 23  2  0  0  0  0
 20  4  1  0  0  0  0
 21 19  2  0  0  0  0
 22 20  1  0  0  0  0
 24 21  1  0  0  0  0
 24 22  2  0  0  0  0
 25 26  1  0  0  0  0
 26 27  1  1  0  0  0
 26 24  1  0  0  0  0
 29 10  1  1  0  0  0
 29 28  1  0  0  0  0
 30 31  1  6  0  0  0
 30 29  1  0  0  0  0
 30 28  1  0  0  0  0
 32 33  1  0  0  0  0
 32 31  1  0  0  0  0
 34 35  1  0  0  0  0
 35 32  1  0  0  0  0
M  END
>  <MODEL>
1

>  <REMARK>
 VINA RESULT:     -10.2      0.000      0.000
  Name = 
  7 active torsions:
  status: ('A' for Active; 'I' for Inactive)
    1  A    between atoms: C_8  and  C_33
    2  A    between atoms: C_10  and  C_11
    3  A    between atoms: C_13  and  C_32
    4  A    between atoms: N_22  and  O_28
    5  A    between atoms: N_22  and  N_34
    6  A    between atoms: C_23  and  C_31
    7  A    between atoms: C_27  and  N_34
                            x       y       z     vdW  Elec       q    Type
                         _______ _______ _______ _____ _____    ______ ____

>  <TORSDO>
F 7

$$$$
=
 OpenBabel11052410293D

 35 39  0  0  1  0  0  0  0  0999 V2000
  160.7660  204.1460  149.1060 N   0  0  0  0  0  0  0  0  0  0  0  0
  160.9970  205.4250  149.5160 C   0  0  0  0  0  0  0  0  0  0  0  0
  160.6780  204.6980  151.8020 C   0  0  0  0  0  3  0  0  0  0  0  0
  161.2120  207.0590  151.3400 C   0  0  0  0  0  0  0  0  0  0  0  0
  161.5400  208.0300  150.3840 C   0  0  0  0  0  3  0  0  0  0  0  0
  160.4380  203.4030  151.3470 C   0  0  0  0  0  3  0  0  0  0  0  0
  161.5870  207.7210  149.0270 C   0  0  0  0  0  3  0  0  0  0  0  0
  161.3130  206.4270  148.5750 C   0  0  0  0  0  0  0  0  0  0  0  0
  160.9490  205.7370  150.9010 C   0  0  0  0  0  0  0  0  0  0  0  0
  160.4720  203.1430  149.9760 C   0  0  0  0  0  0  0  0  0  0  0  0
  161.3560  205.4710  142.9370 N   0  0  0  0  0  1  0  0  0  0  0  0
  162.4570  205.5430  146.4940 C   0  0  0  0  0  0  0  0  0  0  0  0
  163.5820  205.1110  147.2540 N   0  0  0  0  0  1  0  0  0  0  0  0
  160.2470  206.5300  146.3250 C   0  0  0  0  0  3  0  0  0  0  0  0
  162.4510  205.3200  145.1130 C   0  0  0  0  0  3  0  0  0  0  0  0
  160.2500  206.3060  144.9470 C   0  0  0  0  0  3  0  0  0  0  0  0
  161.3440  206.1520  147.1160 C   0  0  0  0  0  0  0  0  0  0  0  0
  161.3530  205.7010  144.3410 C   0  0  0  0  0  0  0  0  0  0  0  0
  160.9640  206.9400  155.1350 C   0  0  0  0  0  3  0  0  0  0  0  0
  161.1650  207.4760  152.7680 C   0  0  0  0  0  0  0  0  0  0  0  0
  161.0130  208.2990  155.4530 C   0  0  0  0  0  3  0  0  0  0  0  0
  161.2000  208.8400  153.1020 C   0  0  0  0  0  3  0  0  0  0  0  0
  161.0350  206.5330  153.8010 C   0  0  0  0  0  3  0  0  0  0  0  0
  161.1270  209.2560  154.4360 C   0  0  0  0  0  0  0  0  0  0  0  0
  160.8560  211.4700  153.6250 O   0  0  0  0  0  1  0  0  0  0  0  0
  161.1860  210.7150  154.7510 C   0  0  1  0  0  3  0  0  0  0  0  0
  160.2480  211.0570  155.8940 C   0  0  0  0  0  1  0  0  0  0  0  0
  161.3520  200.8240  149.9700 C   0  0  0  0  0  2  0  0  0  0  0  0
  160.2560  201.7500  149.4740 C   0  0  2  0  0  3  0  0  0  0  0  0
  161.3990  201.3530  148.5540 C   0  0  2  0  0  3  0  0  0  0  0  0
  160.9360  200.3230  147.6410 N   0  0  0  0  0  2  0  0  0  0  0  0
  161.3130  200.7240  146.3520 N   0  0  0  0  0  0  0  0  0  0  0  0
  161.1750  202.0710  146.3090 O   0  0  0  0  0  1  0  0  0  0  0  0
  159.8280  201.3220  144.8750 C   0  0  0  0  0  1  0  0  0  0  0  0
  160.3940  200.2100  145.4990 O   0  0  0  0  0  0  0  0  0  0  0  0
  1  2  2  0  0  0  0
  1 10  1  0  0  0  0
  2  9  1  0  0  0  0
  4 20  1  0  0  0  0
  5  4  2  0  0  0  0
  6  3  1  0  0  0  0
  7  5  1  0  0  0  0
  8  7  2  0  0  0  0
  8  2  1  0  0  0  0
  9  4  1  0  0  0  0
  9  3  2  0  0  0  0
 10  6  2  0  0  0  0
 11 18  1  0  0  0  0
 12 17  1  0  0  0  0
 12 13  1  0  0  0  0
 14 17  2  0  0  0  0
 15 12  2  0  0  0  0
 16 14  1  0  0  0  0
 17  8  1  0  0  0  0
 18 16  2  0  0  0  0
 18 15  1  0  0  0  0
 19 21  1  0  0  0  0
 20 22  2  0  0  0  0
 20 23  1  0  0  0  0
 22 24  1  0  0  0  0
 23 19  2  0  0  0  0
 24 26  1  0  0  0  0
 24 21  2  0  0  0  0
 25 26  1  0  0  0  0
 26 27  1  1  0  0  0
 29 28  1  0  0  0  0
 29 10  1  1  0  0  0
 30 31  1  6  0  0  0
 30 29  1  0  0  0  0
 30 28  1  0  0  0  0
 32 31  1  0  0  0  0
 33 32  1  0  0  0  0
 34 35  1  0  0  0  0
 35 32  1  0  0  0  0
M  END
>  <MODEL>
2

>  <REMARK>
 VINA RESULT:     -10.2      4.033      8.995
  Name = 
  7 active torsions:
  status: ('A' for Active; 'I' for Inactive)
    1  A    between atoms: C_8  and  C_33
    2  A    between atoms: C_10  and  C_11
    3  A    between atoms: C_13  and  C_32
    4  A    between atoms: N_22  and  O_28
    5  A    between atoms: N_22  and  N_34
    6  A    between atoms: C_23  and  C_31
    7  A    between atoms: C_27  and  N_34
                            x       y       z     vdW  Elec       q    Type
                         _______ _______ _______ _____ _____    ______ ____

>  <TORSDO>
F 7

$$$$
=
 OpenBabel11052410293D

 35 39  0  0  1  0  0  0  0  0999 V2000
  161.6910  210.2280  150.8830 N   0  0  0  0  0  0  0  0  0  0  0  0
  161.4320  208.9310  151.2150 C   0  0  0  0  0  0  0  0  0  0  0  0
  161.8460  208.3110  148.9130 C   0  0  0  0  0  3  0  0  0  0  0  0
  161.2550  206.5700  150.5550 C   0  0  0  0  0  0  0  0  0  0  0  0
  160.9760  206.2550  151.8910 C   0  0  0  0  0  3  0  0  0  0  0  0
  162.0970  209.6470  148.6070 C   0  0  0  0  0  3  0  0  0  0  0  0
  160.9130  207.2430  152.8690 C   0  0  0  0  0  3  0  0  0  0  0  0
  161.1330  208.5860  152.5500 C   0  0  0  0  0  0  0  0  0  0  0  0
  161.4980  207.9250  150.2150 C   0  0  0  0  0  0  0  0  0  0  0  0
  161.9990  210.6080  149.6130 C   0  0  0  0  0  0  0  0  0  0  0  0
  160.8440  212.5210  156.6880 N   0  0  0  0  0  1  0  0  0  0  0  0
  160.0130  210.5960  153.6100 C   0  0  0  0  0  0  0  0  0  0  0  0
  159.0130  210.6180  152.5950 N   0  0  0  0  0  1  0  0  0  0  0  0
  161.9670  209.6130  154.6600 C   0  0  0  0  0  3  0  0  0  0  0  0
  159.9610  211.5530  154.6290 C   0  0  0  0  0  3  0  0  0  0  0  0
  161.9080  210.5730  155.6730 C   0  0  0  0  0  3  0  0  0  0  0  0
  161.0240  209.6090  153.6190 C   0  0  0  0  0  0  0  0  0  0  0  0
  160.9050  211.5440  155.6560 C   0  0  0  0  0  0  0  0  0  0  0  0
  161.5670  204.6390  147.2910 C   0  0  0  0  0  3  0  0  0  0  0  0
  161.2840  205.4570  149.5670 C   0  0  0  0  0  0  0  0  0  0  0  0
  161.2680  203.3420  147.7130 C   0  0  0  0  0  3  0  0  0  0  0  0
  160.9720  204.1490  149.9750 C   0  0  0  0  0  3  0  0  0  0  0  0
  161.5710  205.6890  148.2120 C   0  0  0  0  0  3  0  0  0  0  0  0
  160.9640  203.0930  149.0580 C   0  0  0  0  0  0  0  0  0  0  0  0
  159.2760  201.4630  149.4200 O   0  0  0  0  0  1  0  0  0  0  0  0
  160.6440  201.7130  149.5340 C   0  0  1  0  0  3  0  0  0  0  0  0
  161.4250  200.6780  148.7470 C   0  0  0  0  0  1  0  0  0  0  0  0
  161.0250  212.8530  149.2090 C   0  0  0  0  0  2  0  0  0  0  0  0
  162.3040  212.0420  149.3100 C   0  0  2  0  0  3  0  0  0  0  0  0
  161.7360  212.4120  147.9500 C   0  0  2  0  0  3  0  0  0  0  0  0
  162.4920  213.5260  147.4080 N   0  0  0  0  0  2  0  0  0  0  0  0
  161.8480  213.9170  146.2260 N   0  0  0  0  0  0  0  0  0  0  0  0
  161.3380  212.7910  145.6720 O   0  0  0  0  0  1  0  0  0  0  0  0
  162.9180  213.3740  144.4090 C   0  0  0  0  0  1  0  0  0  0  0  0
  162.8110  214.3640  145.3860 O   0  0  0  0  0  0  0  0  0  0  0  0
  1  2  1  0  0  0  0
  2  8  1  0  0  0  0
  3  9  1  0  0  0  0
  4  5  2  0  0  0  0
  5  7  1  0  0  0  0
  6  3  2  0  0  0  0
  6 10  1  0  0  0  0
  8  7  2  0  0  0  0
  8 17  1  0  0  0  0
  9  4  1  0  0  0  0
  9  2  2  0  0  0  0
 10  1  2  0  0  0  0
 12 17  2  0  0  0  0
 12 15  1  0  0  0  0
 13 12  1  0  0  0  0
 14 16  2  0  0  0  0
 15 18  2  0  0  0  0
 17 14  1  0  0  0  0
 18 16  1  0  0  0  0
 18 11  1  0  0  0  0
 19 21  2  0  0  0  0
 19 23  1  0  0  0  0
 20 22  1  0  0  0  0
 20  4  1  0  0  0  0
 21 24  1  0  0  0  0
 23 20  2  0  0  0  0
 24 26  1  0  0  0  0
 24 22  2  0  0  0  0
 25 26  1  0  0  0  0
 26 27  1  6  0  0  0
 28 29  1  0  0  0  0
 29 10  1  6  0  0  0
 30 31  1  1  0  0  0
 30 28  1  0  0  0  0
 30 29  1  0  0  0  0
 32 31  1  0  0  0  0
 33 32  1  0  0  0  0
 34 35  1  0  0  0  0
 35 32  1  0  0  0  0
M  END
>  <MODEL>
3

>  <REMARK>
 VINA RESULT:      -9.7      1.581      2.305
  Name = 
  7 active torsions:
  status: ('A' for Active; 'I' for Inactive)
    1  A    between atoms: C_8  and  C_33
    2  A    between atoms: C_10  and  C_11
    3  A    between atoms: C_13  and  C_32
    4  A    between atoms: N_22  and  O_28
    5  A    between atoms: N_22  and  N_34
    6  A    between atoms: C_23  and  C_31
    7  A    between atoms: C_27  and  N_34
                            x       y       z     vdW  Elec       q    Type
                         _______ _______ _______ _____ _____    ______ ____

>  <TORSDO>
F 7

$$$$
=
 OpenBabel11052410293D

 35 39  0  0  1  0  0  0  0  0999 V2000
  161.7000  208.5780  149.2340 N   0  0  0  0  0  0  0  0  0  0  0  0
  161.4250  207.7290  150.2650 C   0  0  0  0  0  0  0  0  0  0  0  0
  161.6030  209.5990  151.7890 C   0  0  0  0  0  3  0  0  0  0  0  0
  161.0670  207.3600  152.6680 C   0  0  0  0  0  0  0  0  0  0  0  0
  160.7890  206.0160  152.3840 C   0  0  0  0  0  3  0  0  0  0  0  0
  161.8890  210.4370  150.7140 C   0  0  0  0  0  3  0  0  0  0  0  0
  160.8360  205.5280  151.0820 C   0  0  0  0  0  3  0  0  0  0  0  0
  161.1570  206.3670  150.0110 C   0  0  0  0  0  0  0  0  0  0  0  0
  161.3770  208.2300  151.5930 C   0  0  0  0  0  0  0  0  0  0  0  0
  161.9500  209.9010  149.4270 C   0  0  0  0  0  0  0  0  0  0  0  0
  161.4810  204.2740  144.6990 N   0  0  0  0  0  1  0  0  0  0  0  0
  161.3390  204.4040  148.4180 C   0  0  0  0  0  0  0  0  0  0  0  0
  161.3340  203.4800  149.5030 N   0  0  0  0  0  1  0  0  0  0  0  0
  161.2040  206.6610  147.5380 C   0  0  0  0  0  3  0  0  0  0  0  0
  161.4200  203.9110  147.1120 C   0  0  0  0  0  3  0  0  0  0  0  0
  161.2870  206.1610  146.2370 C   0  0  0  0  0  3  0  0  0  0  0  0
  161.2260  205.7950  148.6430 C   0  0  0  0  0  0  0  0  0  0  0  0
  161.3970  204.7850  146.0240 C   0  0  0  0  0  0  0  0  0  0  0  0
  160.2980  207.4630  156.3940 C   0  0  0  0  0  3  0  0  0  0  0  0
  161.0150  207.7970  154.0910 C   0  0  0  0  0  0  0  0  0  0  0  0
  160.8770  208.6800  156.7570 C   0  0  0  0  0  3  0  0  0  0  0  0
  161.5820  209.0250  154.4680 C   0  0  0  0  0  3  0  0  0  0  0  0
  160.3630  207.0270  155.0680 C   0  0  0  0  0  3  0  0  0  0  0  0
  161.5180  209.4690  155.7930 C   0  0  0  0  0  0  0  0  0  0  0  0
  161.1780  211.6840  156.5770 O   0  0  0  0  0  1  0  0  0  0  0  0
  162.1490  210.7740  156.1580 C   0  0  1  0  0  3  0  0  0  0  0  0
  163.1830  210.5830  157.2520 C   0  0  0  0  0  1  0  0  0  0  0  0
  162.4790  212.2180  148.7150 C   0  0  0  0  0  2  0  0  0  0  0  0
  162.2170  210.7950  148.2560 C   0  0  2  0  0  3  0  0  0  0  0  0
  161.1250  211.8470  148.1530 C   0  0  2  0  0  3  0  0  0  0  0  0
  161.0350  212.3020  146.7780 N   0  0  0  0  0  2  0  0  0  0  0  0
  159.8390  213.0260  146.6680 N   0  0  0  0  0  0  0  0  0  0  0  0
  159.2720  213.0280  147.8970 O   0  0  0  0  0  1  0  0  0  0  0  0
  159.6280  212.3560  144.6060 C   0  0  0  0  0  1  0  0  0  0  0  0
  159.0210  212.3080  145.8620 O   0  0  0  0  0  0  0  0  0  0  0  0
  1 10  2  0  0  0  0
  1  2  1  0  0  0  0
  2  9  1  0  0  0  0
  4 20  1  0  0  0  0
  5  4  1  0  0  0  0
  6  3  2  0  0  0  0
  7  5  2  0  0  0  0
  8  2  2  0  0  0  0
  8  7  1  0  0  0  0
  9  3  1  0  0  0  0
  9  4  2  0  0  0  0
 10  6  1  0  0  0  0
 11 18  1  0  0  0  0
 12 17  1  0  0  0  0
 12 13  1  0  0  0  0
 14 17  2  0  0  0  0
 15 12  2  0  0  0  0
 16 14  1  0  0  0  0
 17  8  1  0  0  0  0
 18 16  2  0  0  0  0
 18 15  1  0  0  0  0
 19 21  1  0  0  0  0
 20 22  2  0  0  0  0
 20 23  1  0  0  0  0
 22 24  1  0  0  0  0
 23 19  2  0  0  0  0
 24 26  1  0  0  0  0
 24 21  2  0  0  0  0
 26 25  1  0  0  0  0
 26 27  1  1  0  0  0
 29 28  1  0  0  0  0
 29 10  1  1  0  0  0
 30 31  1  6  0  0  0
 30 29  1  0  0  0  0
 30 28  1  0  0  0  0
 32 31  1  0  0  0  0
 32 33  1  0  0  0  0
 34 35  1  0  0  0  0
 35 32  1  0  0  0  0
M  END
>  <MODEL>
4

>  <REMARK>
 VINA RESULT:      -8.7      2.736      6.955
  Name = 
  7 active torsions:
  status: ('A' for Active; 'I' for Inactive)
    1  A    between atoms: C_8  and  C_33
    2  A    between atoms: C_10  and  C_11
    3  A    between atoms: C_13  and  C_32
    4  A    between atoms: N_22  and  O_28
    5  A    between atoms: N_22  and  N_34
    6  A    between atoms: C_23  and  C_31
    7  A    between atoms: C_27  and  N_34
                            x       y       z     vdW  Elec       q    Type
                         _______ _______ _______ _____ _____    ______ ____

>  <TORSDO>
F 7

$$$$
=
 OpenBabel11052410293D

 35 39  0  0  1  0  0  0  0  0999 V2000
  161.5150  205.9610  149.3550 N   0  0  0  0  0  0  0  0  0  0  0  0
  161.3270  205.7720  150.6930 C   0  0  0  0  0  0  0  0  0  0  0  0
  161.5060  208.1650  151.0060 C   0  0  0  0  0  3  0  0  0  0  0  0
  161.1070  206.7100  152.9540 C   0  0  0  0  0  0  0  0  0  0  0  0
  160.8700  205.4130  153.4300 C   0  0  0  0  0  3  0  0  0  0  0  0
  161.7030  208.3210  149.6350 C   0  0  0  0  0  3  0  0  0  0  0  0
  160.8700  204.3170  152.5720 C   0  0  0  0  0  3  0  0  0  0  0  0
  161.1020  204.4760  151.2030 C   0  0  0  0  0  0  0  0  0  0  0  0
  161.3260  206.8930  151.5660 C   0  0  0  0  0  0  0  0  0  0  0  0
  161.7200  207.1930  148.8150 C   0  0  0  0  0  0  0  0  0  0  0  0
  161.2120  199.9260  147.7410 N   0  0  0  0  0  1  0  0  0  0  0  0
  161.5550  202.0150  150.8050 C   0  0  0  0  0  0  0  0  0  0  0  0
  161.9350  201.8300  152.1660 N   0  0  0  0  0  1  0  0  0  0  0  0
  160.7320  203.3960  148.9890 C   0  0  0  0  0  3  0  0  0  0  0  0
  161.5790  200.9140  149.9430 C   0  0  0  0  0  3  0  0  0  0  0  0
  160.7590  202.2930  148.1340 C   0  0  0  0  0  3  0  0  0  0  0  0
  161.1250  203.2750  150.3310 C   0  0  0  0  0  0  0  0  0  0  0  0
  161.1850  201.0510  148.6110 C   0  0  0  0  0  0  0  0  0  0  0  0
  161.3510  208.6480  156.2200 C   0  0  0  0  0  3  0  0  0  0  0  0
  161.1090  207.8250  153.9410 C   0  0  0  0  0  0  0  0  0  0  0  0
  161.0420  209.9400  155.7930 C   0  0  0  0  0  3  0  0  0  0  0  0
  160.7870  209.1280  153.5270 C   0  0  0  0  0  3  0  0  0  0  0  0
  161.3800  207.5960  155.3010 C   0  0  0  0  0  3  0  0  0  0  0  0
  160.7540  210.1850  154.4440 C   0  0  0  0  0  0  0  0  0  0  0  0
  159.4730  211.5040  152.9420 O   0  0  0  0  0  1  0  0  0  0  0  0
  160.4250  211.5600  153.9610 C   0  0  1  0  0  3  0  0  0  0  0  0
  159.9100  212.4210  155.0990 C   0  0  0  0  0  1  0  0  0  0  0  0
  160.6400  206.9000  146.6010 C   0  0  0  0  0  2  0  0  0  0  0  0
  161.8910  207.3460  147.3360 C   0  0  2  0  0  3  0  0  0  0  0  0
  161.8380  205.9810  146.6690 C   0  0  2  0  0  3  0  0  0  0  0  0
  162.5610  206.0410  145.4110 N   0  0  0  0  0  2  0  0  0  0  0  0
  162.1830  204.9120  144.6710 N   0  0  0  0  0  0  0  0  0  0  0  0
  161.3270  205.3430  143.7150 O   0  0  0  0  0  1  0  0  0  0  0  0
  160.4890  203.5430  144.6970 C   0  0  0  0  0  1  0  0  0  0  0  0
  161.4690  204.1200  145.5060 O   0  0  0  0  0  0  0  0  0  0  0  0
  1  2  1  0  0  0  0
  2  8  2  0  0  0  0
  2  9  1  0  0  0  0
  3  9  1  0  0  0  0
  4  5  1  0  0  0  0
  4 20  1  0  0  0  0
  6  3  2  0  0  0  0
  7  5  2  0  0  0  0
  8  7  1  0  0  0  0
  9  4  2  0  0  0  0
 10  1  2  0  0  0  0
 10  6  1  0  0  0  0
 11 18  1  0  0  0  0
 12 13  1  0  0  0  0
 14 17  2  0  0  0  0
 15 12  2  0  0  0  0
 16 18  2  0  0  0  0
 16 14  1  0  0  0  0
 17 12  1  0  0  0  0
 17  8  1  0  0  0  0
 18 15  1  0  0  0  0
 20 23  1  0  0  0  0
 21 19  1  0  0  0  0
 22 20  2  0  0  0  0
 22 24  1  0  0  0  0
 23 19  2  0  0  0  0
 24 21  2  0  0  0  0
 25 26  1  0  0  0  0
 26 24  1  0  0  0  0
 26 27  1  1  0  0  0
 28 30  1  0  0  0  0
 28 29  1  0  0  0  0
 29 10  1  1  0  0  0
 30 31  1  6  0  0  0
 30 29  1  0  0  0  0
 32 31  1  0  0  0  0
 32 35  1  0  0  0  0
 33 32  1  0  0  0  0
 34 35  1  0  0  0  0
M  END
>  <MODEL>
5

>  <REMARK>
 VINA RESULT:      -8.1      3.571      7.830
  Name = 
  7 active torsions:
  status: ('A' for Active; 'I' for Inactive)
    1  A    between atoms: C_8  and  C_33
    2  A    between atoms: C_10  and  C_11
    3  A    between atoms: C_13  and  C_32
    4  A    between atoms: N_22  and  O_28
    5  A    between atoms: N_22  and  N_34
    6  A    between atoms: C_23  and  C_31
    7  A    between atoms: C_27  and  N_34
                            x       y       z     vdW  Elec       q    Type
                         _______ _______ _______ _____ _____    ______ ____

>  <TORSDO>
F 7

$$$$
=
 OpenBabel11052410293D

 35 39  0  0  1  0  0  0  0  0999 V2000
  160.9870  205.3790  150.4160 N   0  0  0  0  0  0  0  0  0  0  0  0
  161.1660  206.7310  150.4340 C   0  0  0  0  0  0  0  0  0  0  0  0
  160.9560  206.6780  152.8440 C   0  0  0  0  0  3  0  0  0  0  0  0
  161.3560  208.8260  151.7040 C   0  0  0  0  0  0  0  0  0  0  0  0
  161.6040  209.4940  150.4970 C   0  0  0  0  0  3  0  0  0  0  0  0
  160.7690  205.2990  152.7890 C   0  0  0  0  0  3  0  0  0  0  0  0
  161.6240  208.8110  149.2840 C   0  0  0  0  0  3  0  0  0  0  0  0
  161.4020  207.4320  149.2320 C   0  0  0  0  0  0  0  0  0  0  0  0
  161.1460  207.4250  151.6730 C   0  0  0  0  0  0  0  0  0  0  0  0
  160.7720  204.6580  151.5490 C   0  0  0  0  0  0  0  0  0  0  0  0
  161.3030  204.8900  144.1110 N   0  0  0  0  0  1  0  0  0  0  0  0
  162.5660  206.1550  147.3780 C   0  0  0  0  0  0  0  0  0  0  0  0
  163.7860  206.1340  148.1130 N   0  0  0  0  0  1  0  0  0  0  0  0
  160.2150  206.7170  147.1620 C   0  0  0  0  0  3  0  0  0  0  0  0
  162.5230  205.5420  146.1230 C   0  0  0  0  0  3  0  0  0  0  0  0
  160.1820  206.1040  145.9080 C   0  0  0  0  0  3  0  0  0  0  0  0
  161.4010  206.7510  147.9130 C   0  0  0  0  0  0  0  0  0  0  0  0
  161.3370  205.5170  145.3880 C   0  0  0  0  0  0  0  0  0  0  0  0
  162.4780  210.7050  154.8170 C   0  0  0  0  0  3  0  0  0  0  0  0
  161.3320  209.6340  152.9550 C   0  0  0  0  0  0  0  0  0  0  0  0
  161.2520  211.1060  155.3500 C   0  0  0  0  0  3  0  0  0  0  0  0
  160.1040  210.0330  153.5090 C   0  0  0  0  0  3  0  0  0  0  0  0
  162.5170  209.9710  153.6300 C   0  0  0  0  0  3  0  0  0  0  0  0
  160.0580  210.7660  154.6990 C   0  0  0  0  0  0  0  0  0  0  0  0
  158.8270  211.4300  156.6180 O   0  0  0  0  0  1  0  0  0  0  0  0
  158.7330  211.1870  155.2470 C   0  0  1  0  0  3  0  0  0  0  0  0
  158.2280  212.4300  154.5380 C   0  0  0  0  0  1  0  0  0  0  0  0
  161.9600  202.4930  151.3180 C   0  0  0  0  0  2  0  0  0  0  0  0
  160.6120  203.1710  151.4760 C   0  0  2  0  0  3  0  0  0  0  0  0
  161.0640  202.6730  150.1140 C   0  0  2  0  0  3  0  0  0  0  0  0
  160.3940  201.4180  149.8220 N   0  0  0  0  0  2  0  0  0  0  0  0
  160.5570  201.1810  148.4490 N   0  0  0  0  0  0  0  0  0  0  0  0
  161.5940  200.3200  148.3250 O   0  0  0  0  0  1  0  0  0  0  0  0
  160.9510  202.1130  146.5210 C   0  0  0  0  0  1  0  0  0  0  0  0
  160.9520  202.3520  147.8950 O   0  0  0  0  0  0  0  0  0  0  0  0
  1  2  2  0  0  0  0
  1 10  1  0  0  0  0
  2  9  1  0  0  0  0
  4 20  1  0  0  0  0
  5  4  2  0  0  0  0
  6  3  1  0  0  0  0
  7  5  1  0  0  0  0
  8  7  2  0  0  0  0
  8  2  1  0  0  0  0
  9  4  1  0  0  0  0
  9  3  2  0  0  0  0
 10  6  2  0  0  0  0
 11 18  1  0  0  0  0
 12 17  1  0  0  0  0
 12 13  1  0  0  0  0
 14 17  2  0  0  0  0
 15 12  2  0  0  0  0
 16 14  1  0  0  0  0
 17  8  1  0  0  0  0
 18 16  2  0  0  0  0
 18 15  1  0  0  0  0
 19 21  1  0  0  0  0
 20 22  2  0  0  0  0
 20 23  1  0  0  0  0
 22 24  1  0  0  0  0
 23 19  2  0  0  0  0
 24 26  1  0  0  0  0
 24 21  2  0  0  0  0
 26 27  1  6  0  0  0
 26 25  1  0  0  0  0
 28 29  1  0  0  0  0
 29 10  1  6  0  0  0
 30 31  1  1  0  0  0
 30 28  1  0  0  0  0
 30 29  1  0  0  0  0
 32 31  1  0  0  0  0
 33 32  1  0  0  0  0
 34 35  1  0  0  0  0
 35 32  1  0  0  0  0
M  END
>  <MODEL>
6

>  <REMARK>
 VINA RESULT:      -8.0      3.981      9.002
  Name = 
  7 active torsions:
  status: ('A' for Active; 'I' for Inactive)
    1  A    between atoms: C_8  and  C_33
    2  A    between atoms: C_10  and  C_11
    3  A    between atoms: C_13  and  C_32
    4  A    between atoms: N_22  and  O_28
    5  A    between atoms: N_22  and  N_34
    6  A    between atoms: C_23  and  C_31
    7  A    between atoms: C_27  and  N_34
                            x       y       z     vdW  Elec       q    Type
                         _______ _______ _______ _____ _____    ______ ____

>  <TORSDO>
F 7

$$$$
=
 OpenBabel11052410293D

 35 39  0  0  1  0  0  0  0  0999 V2000
  161.4910  210.2610  150.0620 N   0  0  0  0  0  0  0  0  0  0  0  0
  160.8850  211.3050  150.6960 C   0  0  0  0  0  0  0  0  0  0  0  0
  160.5860  209.8900  152.6360 C   0  0  0  0  0  3  0  0  0  0  0  0
  159.7940  212.2230  152.6980 C   0  0  0  0  0  0  0  0  0  0  0  0
  159.7050  213.4570  152.0400 C   0  0  0  0  0  3  0  0  0  0  0  0
  161.2030  208.8420  151.9550 C   0  0  0  0  0  3  0  0  0  0  0  0
  160.1790  213.6200  150.7410 C   0  0  0  0  0  3  0  0  0  0  0  0
  160.7660  212.5550  150.0520 C   0  0  0  0  0  0  0  0  0  0  0  0
  160.4030  211.1360  152.0210 C   0  0  0  0  0  0  0  0  0  0  0  0
  161.6420  209.0420  150.6460 C   0  0  0  0  0  0  0  0  0  0  0  0
  162.6560  213.3000  144.7070 N   0  0  0  0  0  1  0  0  0  0  0  0
  160.3220  212.9280  147.5860 C   0  0  0  0  0  0  0  0  0  0  0  0
  158.9150  212.9520  147.8070 N   0  0  0  0  0  1  0  0  0  0  0  0
  162.6070  212.7830  148.3890 C   0  0  0  0  0  3  0  0  0  0  0  0
  160.8030  213.1060  146.2840 C   0  0  0  0  0  3  0  0  0  0  0  0
  163.0790  212.9590  147.0870 C   0  0  0  0  0  3  0  0  0  0  0  0
  161.2290  212.7670  148.6580 C   0  0  0  0  0  0  0  0  0  0  0  0
  162.1760  213.1190  146.0340 C   0  0  0  0  0  0  0  0  0  0  0  0
  159.5550  212.0880  156.4930 C   0  0  0  0  0  3  0  0  0  0  0  0
  159.2440  212.1280  154.0780 C   0  0  0  0  0  0  0  0  0  0  0  0
  158.1860  211.8810  156.6720 C   0  0  0  0  0  3  0  0  0  0  0  0
  157.8710  211.9070  154.2730 C   0  0  0  0  0  3  0  0  0  0  0  0
  160.0800  212.2060  155.2040 C   0  0  0  0  0  3  0  0  0  0  0  0
  157.3380  211.7850  155.5610 C   0  0  0  0  0  0  0  0  0  0  0  0
  155.4990  210.3230  155.2160 O   0  0  0  0  0  1  0  0  0  0  0  0
  155.8680  211.5680  155.7260 C   0  0  1  0  0  3  0  0  0  0  0  0
  155.4720  211.6650  157.1870 C   0  0  0  0  0  1  0  0  0  0  0  0
  162.2620  208.1530  148.4150 C   0  0  0  0  0  2  0  0  0  0  0  0
  162.3420  207.9390  149.9160 C   0  0  2  0  0  3  0  0  0  0  0  0
  161.3390  207.1580  149.0820 C   0  0  2  0  0  3  0  0  0  0  0  0
  161.8460  205.8140  148.8670 N   0  0  0  0  0  2  0  0  0  0  0  0
  160.7670  204.9390  149.0540 N   0  0  0  0  0  0  0  0  0  0  0  0
  160.4770  204.9570  150.3770 O   0  0  0  0  0  1  0  0  0  0  0  0
  161.5810  203.7470  147.4230 C   0  0  0  0  0  1  0  0  0  0  0  0
  161.2200  203.6950  148.7700 O   0  0  0  0  0  0  0  0  0  0  0  0
  1 10  2  0  0  0  0
  1  2  1  0  0  0  0
  2  9  1  0  0  0  0
  4 20  1  0  0  0  0
  5  4  1  0  0  0  0
  6  3  2  0  0  0  0
  7  5  2  0  0  0  0
  8  2  2  0  0  0  0
  8  7  1  0  0  0  0
  9  3  1  0  0  0  0
  9  4  2  0  0  0  0
 10  6  1  0  0  0  0
 11 18  1  0  0  0  0
 12 13  1  0  0  0  0
 12 17  1  0  0  0  0
 14 17  2  0  0  0  0
 15 12  2  0  0  0  0
 16 14  1  0  0  0  0
 17  8  1  0  0  0  0
 18 15  1  0  0  0  0
 18 16  2  0  0  0  0
 19 21  1  0  0  0  0
 20 22  2  0  0  0  0
 20 23  1  0  0  0  0
 22 24  1  0  0  0  0
 23 19  2  0  0  0  0
 24 26  1  0  0  0  0
 24 21  2  0  0  0  0
 25 26  1  0  0  0  0
 26 27  1  1  0  0  0
 28 30  1  0  0  0  0
 28 29  1  0  0  0  0
 29 10  1  1  0  0  0
 30 31  1  6  0  0  0
 30 29  1  0  0  0  0
 31 32  1  0  0  0  0
 32 33  1  0  0  0  0
 34 35  1  0  0  0  0
 35 32  1  0  0  0  0
M  END
>  <MODEL>
7

>  <REMARK>
 VINA RESULT:      -7.7      3.171      8.659
  Name = 
  7 active torsions:
  status: ('A' for Active; 'I' for Inactive)
    1  A    between atoms: C_8  and  C_33
    2  A    between atoms: C_10  and  C_11
    3  A    between atoms: C_13  and  C_32
    4  A    between atoms: N_22  and  O_28
    5  A    between atoms: N_22  and  N_34
    6  A    between atoms: C_23  and  C_31
    7  A    between atoms: C_27  and  N_34
                            x       y       z     vdW  Elec       q    Type
                         _______ _______ _______ _____ _____    ______ ____

>  <TORSDO>
F 7

$$$$
=
 OpenBabel11052410293D

 35 39  0  0  1  0  0  0  0  0999 V2000
  161.8410  206.8140  150.4130 N   0  0  0  0  0  0  0  0  0  0  0  0
  161.5280  206.7350  151.7380 C   0  0  0  0  0  0  0  0  0  0  0  0
  161.8570  209.1260  151.9070 C   0  0  0  0  0  3  0  0  0  0  0  0
  161.1900  207.8460  153.9050 C   0  0  0  0  0  0  0  0  0  0  0  0
  160.8180  206.6060  154.4420 C   0  0  0  0  0  3  0  0  0  0  0  0
  162.1790  209.1690  150.5520 C   0  0  0  0  0  3  0  0  0  0  0  0
  160.8090  205.4540  153.6620 C   0  0  0  0  0  3  0  0  0  0  0  0
  161.1660  205.4980  152.3110 C   0  0  0  0  0  0  0  0  0  0  0  0
  161.5370  207.9130  152.5320 C   0  0  0  0  0  0  0  0  0  0  0  0
  162.1810  207.9860  149.8130 C   0  0  0  0  0  0  0  0  0  0  0  0
  161.2060  200.5780  149.3970 N   0  0  0  0  0  1  0  0  0  0  0  0
  160.4560  204.1090  150.3140 C   0  0  0  0  0  0  0  0  0  0  0  0
  159.7390  205.2080  149.7610 N   0  0  0  0  0  1  0  0  0  0  0  0
  161.8900  203.1330  152.0110 C   0  0  0  0  0  3  0  0  0  0  0  0
  160.4750  202.8960  149.6170 C   0  0  0  0  0  3  0  0  0  0  0  0
  161.9020  201.9260  151.3100 C   0  0  0  0  0  3  0  0  0  0  0  0
  161.1730  204.2380  151.5260 C   0  0  0  0  0  0  0  0  0  0  0  0
  161.1930  201.8070  150.1130 C   0  0  0  0  0  0  0  0  0  0  0  0
  161.9910  210.1760  156.8050 C   0  0  0  0  0  3  0  0  0  0  0  0
  161.1920  209.0260  154.8120 C   0  0  0  0  0  0  0  0  0  0  0  0
  161.1270  211.2420  156.5440 C   0  0  0  0  0  3  0  0  0  0  0  0
  160.3190  210.1000  154.5690 C   0  0  0  0  0  3  0  0  0  0  0  0
  162.0190  209.0740  155.9470 C   0  0  0  0  0  3  0  0  0  0  0  0
  160.2840  211.2050  155.4250 C   0  0  0  0  0  0  0  0  0  0  0  0
  159.7340  213.4800  155.8230 O   0  0  0  0  0  1  0  0  0  0  0  0
  159.3540  212.3360  155.1220 C   0  0  1  0  0  3  0  0  0  0  0  0
  159.3310  212.6280  153.6330 C   0  0  0  0  0  1  0  0  0  0  0  0
  161.2060  208.0770  147.5340 C   0  0  0  0  0  2  0  0  0  0  0  0
  162.4860  208.0200  148.3480 C   0  0  2  0  0  3  0  0  0  0  0  0
  161.9450  206.7670  147.6810 C   0  0  2  0  0  3  0  0  0  0  0  0
  162.7070  206.5060  146.4730 N   0  0  0  0  0  2  0  0  0  0  0  0
  162.3970  205.1990  146.0720 N   0  0  0  0  0  0  0  0  0  0  0  0
  163.5690  204.5240  146.0120 O   0  0  0  0  0  1  0  0  0  0  0  0
  160.7550  204.5250  144.8100 C   0  0  0  0  0  1  0  0  0  0  0  0
  161.9280  205.2810  144.8040 O   0  0  0  0  0  0  0  0  0  0  0  0
  1  2  1  0  0  0  0
  2  8  2  0  0  0  0
  2  9  1  0  0  0  0
  3  9  1  0  0  0  0
  4  5  1  0  0  0  0
  4 20  1  0  0  0  0
  6  3  2  0  0  0  0
  7  5  2  0  0  0  0
  8  7  1  0  0  0  0
  9  4  2  0  0  0  0
 10  1  2  0  0  0  0
 10  6  1  0  0  0  0
 11 18  1  0  0  0  0
 12 17  1  0  0  0  0
 13 12  1  0  0  0  0
 15 18  1  0  0  0  0
 15 12  2  0  0  0  0
 16 14  1  0  0  0  0
 17 14  2  0  0  0  0
 17  8  1  0  0  0  0
 18 16  2  0  0  0  0
 20 23  1  0  0  0  0
 21 19  1  0  0  0  0
 22 20  2  0  0  0  0
 22 24  1  0  0  0  0
 23 19  2  0  0  0  0
 24 21  2  0  0  0  0
 26 27  1  6  0  0  0
 26 24  1  0  0  0  0
 26 25  1  0  0  0  0
 28 30  1  0  0  0  0
 28 29  1  0  0  0  0
 29 10  1  1  0  0  0
 30 31  1  6  0  0  0
 30 29  1  0  0  0  0
 32 31  1  0  0  0  0
 33 32  1  0  0  0  0
 35 34  1  0  0  0  0
 35 32  1  0  0  0  0
M  END
>  <MODEL>
8

>  <REMARK>
 VINA RESULT:      -7.4      3.515      7.891
  Name = 
  7 active torsions:
  status: ('A' for Active; 'I' for Inactive)
    1  A    between atoms: C_8  and  C_33
    2  A    between atoms: C_10  and  C_11
    3  A    between atoms: C_13  and  C_32
    4  A    between atoms: N_22  and  O_28
    5  A    between atoms: N_22  and  N_34
    6  A    between atoms: C_23  and  C_31
    7  A    between atoms: C_27  and  N_34
                            x       y       z     vdW  Elec       q    Type
                         _______ _______ _______ _____ _____    ______ ____

>  <TORSDO>
F 7

$$$$
=
 OpenBabel11052410293D

 35 39  0  0  1  0  0  0  0  0999 V2000
  161.5340  207.3220  151.0020 N   0  0  0  0  0  0  0  0  0  0  0  0
  161.4490  208.6830  150.9740 C   0  0  0  0  0  0  0  0  0  0  0  0
  162.0230  208.6210  148.6240 C   0  0  0  0  0  3  0  0  0  0  0  0
  161.5930  210.7890  149.7140 C   0  0  0  0  0  0  0  0  0  0  0  0
  161.2070  211.4690  150.8770 C   0  0  0  0  0  3  0  0  0  0  0  0
  162.1090  207.2320  148.6910 C   0  0  0  0  0  3  0  0  0  0  0  0
  160.9560  210.7870  152.0640 C   0  0  0  0  0  3  0  0  0  0  0  0
  161.0770  209.3960  152.1330 C   0  0  0  0  0  0  0  0  0  0  0  0
  161.7040  209.3760  149.7610 C   0  0  0  0  0  0  0  0  0  0  0  0
  161.8740  206.5900  149.9070 C   0  0  0  0  0  0  0  0  0  0  0  0
  160.2150  206.6770  157.0890 N   0  0  0  0  0  1  0  0  0  0  0  0
  160.4740  209.4300  154.5940 C   0  0  0  0  0  0  0  0  0  0  0  0
  160.2790  210.8410  154.5620 N   0  0  0  0  0  1  0  0  0  0  0  0
  160.9800  207.3200  153.5070 C   0  0  0  0  0  3  0  0  0  0  0  0
  160.2710  208.7480  155.7980 C   0  0  0  0  0  3  0  0  0  0  0  0
  160.7770  206.6480  154.7140 C   0  0  0  0  0  3  0  0  0  0  0  0
  160.8310  208.7140  153.4280 C   0  0  0  0  0  0  0  0  0  0  0  0
  160.4230  207.3620  155.8600 C   0  0  0  0  0  0  0  0  0  0  0  0
  163.3500  212.9520  147.1230 C   0  0  0  0  0  3  0  0  0  0  0  0
  161.8620  211.5950  148.4920 C   0  0  0  0  0  0  0  0  0  0  0  0
  162.3200  213.1670  146.2050 C   0  0  0  0  0  3  0  0  0  0  0  0
  160.8310  211.8300  147.5670 C   0  0  0  0  0  3  0  0  0  0  0  0
  163.1200  212.1750  148.2610 C   0  0  0  0  0  3  0  0  0  0  0  0
  161.0540  212.6100  146.4270 C   0  0  0  0  0  0  0  0  0  0  0  0
  160.0800  211.9770  144.3560 O   0  0  0  0  0  1  0  0  0  0  0  0
  159.9360  212.8220  145.4570 C   0  0  1  0  0  3  0  0  0  0  0  0
  158.5940  212.5780  146.1210 C   0  0  0  0  0  1  0  0  0  0  0  0
  161.5370  204.4740  148.6570 C   0  0  0  0  0  2  0  0  0  0  0  0
  161.9240  205.0970  149.9870 C   0  0  2  0  0  3  0  0  0  0  0  0
  160.5300  204.5240  149.7840 C   0  0  2  0  0  3  0  0  0  0  0  0
  160.4560  203.2220  150.4200 N   0  0  0  0  0  2  0  0  0  0  0  0
  160.4310  202.2680  149.3920 N   0  0  0  0  0  0  0  0  0  0  0  0
  159.1850  201.7380  149.3850 O   0  0  0  0  0  1  0  0  0  0  0  0
  161.5810  200.6100  148.5730 C   0  0  0  0  0  1  0  0  0  0  0  0
  161.2760  201.2760  149.7600 O   0  0  0  0  0  0  0  0  0  0  0  0
  2  1  1  0  0  0  0
  2  8  1  0  0  0  0
  3  6  2  0  0  0  0
  3  9  1  0  0  0  0
  4  9  1  0  0  0  0
  4  5  2  0  0  0  0
  5  7  1  0  0  0  0
  6 10  1  0  0  0  0
  7  8  2  0  0  0  0
  8 17  1  0  0  0  0
  9  2  2  0  0  0  0
 10  1  2  0  0  0  0
 12 15  1  0  0  0  0
 13 12  1  0  0  0  0
 14 16  2  0  0  0  0
 15 18  2  0  0  0  0
 16 18  1  0  0  0  0
 17 14  1  0  0  0  0
 17 12  2  0  0  0  0
 18 11  1  0  0  0  0
 19 23  1  0  0  0  0
 20  4  1  0  0  0  0
 21 24  1  0  0  0  0
 21 19  2  0  0  0  0
 22 20  1  0  0  0  0
 23 20  2  0  0  0  0
 24 22  2  0  0  0  0
 25 26  1  0  0  0  0
 26 27  1  1  0  0  0
 26 24  1  0  0  0  0
 28 30  1  0  0  0  0
 28 29  1  0  0  0  0
 29 10  1  6  0  0  0
 30 29  1  0  0  0  0
 30 31  1  1  0  0  0
 32 35  1  0  0  0  0
 32 31  1  0  0  0  0
 33 32  1  0  0  0  0
 34 35  1  0  0  0  0
M  END
>  <MODEL>
9

>  <REMARK>
 VINA RESULT:      -7.4      2.495      7.113
  Name = 
  7 active torsions:
  status: ('A' for Active; 'I' for Inactive)
    1  A    between atoms: C_8  and  C_33
    2  A    between atoms: C_10  and  C_11
    3  A    between atoms: C_13  and  C_32
    4  A    between atoms: N_22  and  O_28
    5  A    between atoms: N_22  and  N_34
    6  A    between atoms: C_23  and  C_31
    7  A    between atoms: C_27  and  N_34
                            x       y       z     vdW  Elec       q    Type
                         _______ _______ _______ _____ _____    ______ ____

>  <TORSDO>
F 7

$$$$
