=
 OpenBabel11042421233D

 33 35  0  0  1  0  0  0  0  0999 V2000
  161.1920  206.0450  146.1670 C   0  0  0  0  0  0  0  0  0  0  0  0
  162.9540  207.4990  147.1460 C   0  0  0  0  0  3  0  0  0  0  0  0
  161.3230  207.5040  150.4150 O   0  0  0  0  0  0  0  0  0  0  0  0
  161.9990  206.4150  153.7940 C   0  0  0  0  0  2  0  0  0  0  0  0
  161.0860  200.4590  148.0700 C   0  0  0  0  0  2  0  0  0  0  0  0
  161.1460  201.7200  147.2130 C   0  0  0  0  0  2  0  0  0  0  0  0
  160.3490  206.5790  148.4610 C   0  0  0  0  0  3  0  0  0  0  0  0
  160.5360  206.7310  151.3200 C   0  0  2  0  0  3  0  0  0  0  0  0
  160.6560  200.7280  149.5120 C   0  0  2  0  0  3  0  0  0  0  0  0
  162.3440  204.0090  149.2140 C   0  0  0  0  0  2  0  0  0  0  0  0
  160.2010  206.2040  147.0450 C   0  0  0  0  0  3  0  0  0  0  0  0
  160.6320  204.1480  150.9920 C   0  0  2  0  0  3  0  0  0  0  0  0
  159.9160  201.8340  146.3190 C   0  0  2  0  0  3  0  0  0  0  0  0
  160.9110  207.4480  153.6810 C   0  0  0  0  0  0  0  0  0  0  0  0
  162.6350  206.1560  146.5780 C   0  0  2  0  0  3  0  0  0  0  0  0
  161.6200  203.3920  150.1480 C   0  0  0  0  0  0  0  0  0  0  0  0
  160.2220  207.5640  152.5390 C   0  0  0  0  0  3  0  0  0  0  0  0
  159.2710  201.3480  149.6060 C   0  0  0  0  0  1  0  0  0  0  0  0
  161.5280  201.4510  151.9020 O   0  0  0  0  0  0  0  0  0  0  0  0
  159.9740  200.8290  145.1800 C   0  0  0  0  0  1  0  0  0  0  0  0
  161.5320  205.1330  153.1190 C   0  0  0  0  0  2  0  0  0  0  0  0
  159.7410  203.2550  145.7880 C   0  0  0  0  0  2  0  0  0  0  0  0
  163.4900  205.8910  145.5070 O   0  0  0  0  0  1  0  0  0  0  0  0
  160.9290  203.7230  144.9530 C   0  0  0  0  0  2  0  0  0  0  0  0
  161.3270  207.3020  149.0290 C   0  0  0  0  0  0  0  0  0  0  0  0
  159.4810  204.4420  150.2560 O   0  0  0  0  0  1  0  0  0  0  0  0
  161.9060  201.6570  150.4410 S   0  0  1  0  0  0  0  0  0  0  0  0
  161.2650  205.3930  151.6340 C   0  0  2  0  0  3  0  0  0  0  0  0
  160.7490  205.4850  144.5190 S   0  0  0  0  0  0  0  0  0  0  0  0
  162.3900  207.9730  148.2560 C   0  0  0  0  0  3  0  0  0  0  0  0
  160.5130  208.2800  154.8610 C   0  0  0  0  0  3  0  0  0  0  0  0
  160.1340  207.4000  156.0380 C   0  0  0  0  0  1  0  0  0  0  0  0
  161.6330  209.2240  155.2600 C   0  0  0  0  0  1  0  0  0  0  0  0
  1 15  1  0  0  0  0
  1 11  2  0  0  0  0
  2 30  2  0  0  0  0
  3  8  1  0  0  0  0
  5  9  1  0  0  0  0
  6  5  1  0  0  0  0
  7 25  2  0  0  0  0
  8 28  1  0  0  0  0
  8 17  1  1  0  0  0
  9 18  1  6  0  0  0
  9 27  1  0  0  0  0
 10 16  2  0  0  0  0
 11  7  1  0  0  0  0
 12 26  1  6  0  0  0
 12 28  1  0  0  0  0
 13 20  1  6  0  0  0
 13  6  1  0  0  0  0
 14  4  1  0  0  0  0
 14 31  1  0  0  0  0
 15 23  1  6  0  0  0
 15  2  1  0  0  0  0
 16 27  1  0  0  0  0
 16 12  1  0  0  0  0
 17 14  2  0  0  0  0
 21  4  1  0  0  0  0
 22 13  1  0  0  0  0
 24 22  1  0  0  0  0
 25  3  1  0  0  0  0
 27 19  2  1  0  0  0
 28 21  1  1  0  0  0
 29 24  1  0  0  0  0
 29  1  1  0  0  0  0
 30 25  1  0  0  0  0
 31 33  1  0  0  0  0
 31 32  1  0  0  0  0
M  END
>  <MODEL>
1

>  <REMARK>
 VINA RESULT:       1.0      0.000      0.000
  Name = 
  1 active torsions:
  status: ('A' for Active; 'I' for Inactive)
    1  A    between atoms: C_1  and  C_17
                            x       y       z     vdW  Elec       q    Type
                         _______ _______ _______ _____ _____    ______ ____

>  <TORSDO>
F 1

$$$$
=
 OpenBabel11042421233D

 33 35  0  0  1  0  0  0  0  0999 V2000
  159.3130  211.5660  155.0570 C   0  0  0  0  0  0  0  0  0  0  0  0
  157.8250  212.5430  153.3230 C   0  0  0  0  0  3  0  0  0  0  0  0
  160.5010  212.5470  150.8360 O   0  0  0  0  0  0  0  0  0  0  0  0
  161.2550  211.0210  147.6480 C   0  0  0  0  0  2  0  0  0  0  0  0
  160.9260  205.9500  154.2250 C   0  0  0  0  0  2  0  0  0  0  0  0
  160.3750  207.2530  154.7970 C   0  0  0  0  0  2  0  0  0  0  0  0
  160.8350  212.0270  153.1250 C   0  0  0  0  0  3  0  0  0  0  0  0
  161.6670  211.8580  150.3850 C   0  0  2  0  0  3  0  0  0  0  0  0
  161.8010  206.1550  152.9880 C   0  0  2  0  0  3  0  0  0  0  0  0
  159.6490  209.0550  152.1690 C   0  0  0  0  0  2  0  0  0  0  0  0
  160.5180  211.8290  154.5500 C   0  0  0  0  0  3  0  0  0  0  0  0
  161.8450  209.3520  151.0720 C   0  0  2  0  0  3  0  0  0  0  0  0
  161.1700  207.6920  156.0210 C   0  0  2  0  0  3  0  0  0  0  0  0
  162.0630  212.2530  147.9520 C   0  0  0  0  0  0  0  0  0  0  0  0
  158.1150  211.3510  154.1730 C   0  0  2  0  0  3  0  0  0  0  0  0
  160.7440  208.5030  151.6450 C   0  0  0  0  0  0  0  0  0  0  0  0
  162.2700  212.6130  149.2250 C   0  0  0  0  0  3  0  0  0  0  0  0
  163.0180  207.0220  153.2660 C   0  0  0  0  0  1  0  0  0  0  0  0
  161.7480  206.4550  150.3600 O   0  0  0  0  0  0  0  0  0  0  0  0
  160.8570  206.8120  157.2210 C   0  0  0  0  0  1  0  0  0  0  0  0
  161.6340  209.9280  148.6370 C   0  0  0  0  0  2  0  0  0  0  0  0
  160.9290  209.1650  156.3450 C   0  0  0  0  0  2  0  0  0  0  0  0
  156.9820  211.0300  154.9220 O   0  0  0  0  0  1  0  0  0  0  0  0
  159.4650  209.4710  156.6450 C   0  0  0  0  0  2  0  0  0  0  0  0
  160.0300  212.4850  152.1530 C   0  0  0  0  0  0  0  0  0  0  0  0
  162.5970  209.9360  152.0950 O   0  0  0  0  0  1  0  0  0  0  0  0
  160.8440  206.7260  151.5560 S   0  0  1  0  0  0  0  0  0  0  0  0
  161.3070  210.3790  150.0630 C   0  0  2  0  0  3  0  0  0  0  0  0
  159.2130  211.2680  156.8260 S   0  0  0  0  0  0  0  0  0  0  0  0
  158.6730  213.0070  152.4050 C   0  0  0  0  0  3  0  0  0  0  0  0
  162.7300  213.0270  146.8570 C   0  0  0  0  0  3  0  0  0  0  0  0
  161.8770  213.0300  145.6020 C   0  0  0  0  0  1  0  0  0  0  0  0
  163.0100  214.4530  147.2960 C   0  0  0  0  0  1  0  0  0  0  0  0
  1 29  1  0  0  0  0
  2 15  1  0  0  0  0
  3 25  1  0  0  0  0
  4 14  1  0  0  0  0
  4 21  1  0  0  0  0
  5  6  1  0  0  0  0
  6 13  1  0  0  0  0
  7 11  1  0  0  0  0
  8 17  1  6  0  0  0
  8  3  1  0  0  0  0
  9 18  1  1  0  0  0
  9  5  1  0  0  0  0
 11  1  2  0  0  0  0
 12 16  1  0  0  0  0
 12 26  1  1  0  0  0
 13 22  1  0  0  0  0
 13 20  1  1  0  0  0
 14 17  2  0  0  0  0
 15 23  1  1  0  0  0
 15  1  1  0  0  0  0
 16 10  2  0  0  0  0
 22 24  1  0  0  0  0
 24 29  1  0  0  0  0
 25 30  1  0  0  0  0
 25  7  2  0  0  0  0
 27 19  2  6  0  0  0
 27 16  1  0  0  0  0
 27  9  1  0  0  0  0
 28 21  1  6  0  0  0
 28  8  1  0  0  0  0
 28 12  1  0  0  0  0
 30  2  2  0  0  0  0
 31 33  1  0  0  0  0
 31 14  1  0  0  0  0
 32 31  1  0  0  0  0
M  END
>  <MODEL>
2

>  <REMARK>
 VINA RESULT:       1.6      4.798      8.852
  Name = 
  1 active torsions:
  status: ('A' for Active; 'I' for Inactive)
    1  A    between atoms: C_1  and  C_17
                            x       y       z     vdW  Elec       q    Type
                         _______ _______ _______ _____ _____    ______ ____

>  <TORSDO>
F 1

$$$$
=
 OpenBabel11042421233D

 33 35  0  0  1  0  0  0  0  0999 V2000
  158.0210  213.8390  154.2190 C   0  0  0  0  0  0  0  0  0  0  0  0
  156.3530  213.9690  152.3820 C   0  0  0  0  0  3  0  0  0  0  0  0
  158.9700  214.2080  149.8420 O   0  0  0  0  0  0  0  0  0  0  0  0
  160.1940  212.3240  147.0120 C   0  0  0  0  0  2  0  0  0  0  0  0
  161.1830  208.8640  154.5040 C   0  0  0  0  0  2  0  0  0  0  0  0
  160.2720  210.0470  154.8150 C   0  0  0  0  0  2  0  0  0  0  0  0
  159.3890  214.2960  152.1750 C   0  0  0  0  0  3  0  0  0  0  0  0
  160.2920  213.7980  149.4980 C   0  0  2  0  0  3  0  0  0  0  0  0
  161.9890  209.0440  153.2170 C   0  0  2  0  0  3  0  0  0  0  0  0
  159.1190  210.9780  151.9030 C   0  0  0  0  0  2  0  0  0  0  0  0
  159.1110  214.3200  153.6210 C   0  0  0  0  0  3  0  0  0  0  0  0
  161.1620  211.6470  150.6820 C   0  0  2  0  0  3  0  0  0  0  0  0
  160.8830  210.9400  155.8900 C   0  0  2  0  0  3  0  0  0  0  0  0
  160.6110  213.7700  147.0220 C   0  0  0  0  0  0  0  0  0  0  0  0
  156.9530  213.1140  153.4470 C   0  0  2  0  0  3  0  0  0  0  0  0
  160.3360  210.6610  151.4610 C   0  0  0  0  0  0  0  0  0  0  0  0
  160.6800  214.4320  148.1840 C   0  0  0  0  0  3  0  0  0  0  0  0
  162.9030  210.2570  153.2610 C   0  0  0  0  0  1  0  0  0  0  0  0
  161.9090  208.7580  150.5890 O   0  0  0  0  0  0  0  0  0  0  0  0
  160.8080  210.2800  157.2570 C   0  0  0  0  0  1  0  0  0  0  0  0
  160.8470  211.6160  148.1900 C   0  0  0  0  0  2  0  0  0  0  0  0
  160.2260  212.3190  155.9110 C   0  0  0  0  0  2  0  0  0  0  0  0
  155.9420  212.6510  154.2910 O   0  0  0  0  0  1  0  0  0  0  0  0
  158.7290  212.2540  156.1990 C   0  0  0  0  0  2  0  0  0  0  0  0
  158.5080  214.2930  151.1620 C   0  0  0  0  0  0  0  0  0  0  0  0
  161.6950  212.6210  151.5300 O   0  0  0  0  0  1  0  0  0  0  0  0
  160.9410  209.0080  151.7380 S   0  0  1  0  0  0  0  0  0  0  0  0
  160.3760  212.2450  149.5040 C   0  0  2  0  0  3  0  0  0  0  0  0
  157.9720  213.9030  156.0140 S   0  0  0  0  0  0  0  0  0  0  0  0
  157.0530  214.4510  151.3550 C   0  0  0  0  0  3  0  0  0  0  0  0
  161.0530  214.4530  145.7650 C   0  0  0  0  0  3  0  0  0  0  0  0
  162.4380  213.9870  145.3570 C   0  0  0  0  0  1  0  0  0  0  0  0
  160.0680  214.2020  144.6380 C   0  0  0  0  0  1  0  0  0  0  0  0
  1 29  1  0  0  0  0
  2 15  1  0  0  0  0
  3 25  1  0  0  0  0
  4 14  1  0  0  0  0
  4 21  1  0  0  0  0
  5  6  1  0  0  0  0
  6 13  1  0  0  0  0
  7 11  1  0  0  0  0
  8 17  1  6  0  0  0
  8 28  1  0  0  0  0
  8  3  1  0  0  0  0
  9 18  1  1  0  0  0
  9  5  1  0  0  0  0
 11  1  2  0  0  0  0
 12 16  1  0  0  0  0
 12 26  1  1  0  0  0
 13 22  1  0  0  0  0
 13 20  1  1  0  0  0
 14 17  2  0  0  0  0
 15  1  1  0  0  0  0
 15 23  1  1  0  0  0
 16 27  1  0  0  0  0
 16 10  2  0  0  0  0
 22 24  1  0  0  0  0
 25 30  1  0  0  0  0
 25  7  2  0  0  0  0
 27 19  2  6  0  0  0
 27  9  1  0  0  0  0
 28 21  1  6  0  0  0
 28 12  1  0  0  0  0
 29 24  1  0  0  0  0
 30  2  2  0  0  0  0
 31 14  1  0  0  0  0
 32 31  1  0  0  0  0
 33 31  1  0  0  0  0
M  END
>  <MODEL>
3

>  <REMARK>
 VINA RESULT:       1.9      6.360     10.401
  Name = 
  1 active torsions:
  status: ('A' for Active; 'I' for Inactive)
    1  A    between atoms: C_1  and  C_17
                            x       y       z     vdW  Elec       q    Type
                         _______ _______ _______ _____ _____    ______ ____

>  <TORSDO>
F 1

$$$$
=
 OpenBabel11042421233D

 33 35  0  0  1  0  0  0  0  0999 V2000
  160.1460  209.9150  156.3870 C   0  0  0  0  0  0  0  0  0  0  0  0
  162.1560  208.5210  156.8230 C   0  0  0  0  0  3  0  0  0  0  0  0
  161.4580  206.3770  153.9480 O   0  0  0  0  0  0  0  0  0  0  0  0
  162.9700  205.4820  150.7900 C   0  0  0  0  0  2  0  0  0  0  0  0
  160.3510  213.3300  151.5780 C   0  0  0  0  0  2  0  0  0  0  0  0
  160.2260  212.8060  153.0050 C   0  0  0  0  0  2  0  0  0  0  0  0
  159.9650  208.0400  154.7420 C   0  0  0  0  0  3  0  0  0  0  0  0
  160.9130  206.3460  152.6300 C   0  0  2  0  0  3  0  0  0  0  0  0
  160.3310  212.2230  150.5230 C   0  0  2  0  0  3  0  0  0  0  0  0
  161.9950  210.0590  153.0230 C   0  0  0  0  0  2  0  0  0  0  0  0
  159.4310  209.1100  155.6010 C   0  0  0  0  0  3  0  0  0  0  0  0
  160.8250  208.6300  151.3790 C   0  0  2  0  0  3  0  0  0  0  0  0
  158.8070  212.9880  153.5320 C   0  0  2  0  0  3  0  0  0  0  0  0
  161.9300  204.5100  151.2770 C   0  0  0  0  0  0  0  0  0  0  0  0
  161.6490  209.8630  156.4110 C   0  0  2  0  0  3  0  0  0  0  0  0
  161.5250  209.8980  151.7860 C   0  0  0  0  0  0  0  0  0  0  0  0
  160.9650  204.9310  152.1050 C   0  0  0  0  0  3  0  0  0  0  0  0
  159.0440  211.4140  150.5460 C   0  0  0  0  0  1  0  0  0  0  0  0
  161.8340  210.4590  149.2480 O   0  0  0  0  0  0  0  0  0  0  0  0
  158.5220  214.4490  153.8420 C   0  0  0  0  0  1  0  0  0  0  0  0
  162.2940  206.8070  150.4710 C   0  0  0  0  0  2  0  0  0  0  0  0
  158.5470  212.1090  154.7540 C   0  0  0  0  0  2  0  0  0  0  0  0
  162.1780  210.8370  157.2610 O   0  0  0  0  0  1  0  0  0  0  0  0
  159.4860  212.4210  155.9150 C   0  0  0  0  0  2  0  0  0  0  0  0
  161.0840  207.3190  154.9150 C   0  0  0  0  0  0  0  0  0  0  0  0
  159.5310  208.5930  151.9050 O   0  0  0  0  0  1  0  0  0  0  0  0
  161.8150  211.1840  150.5880 S   0  0  1  0  0  0  0  0  0  0  0  0
  161.6510  207.3830  151.7350 C   0  0  2  0  0  3  0  0  0  0  0  0
  159.2600  211.2110  157.2610 S   0  0  0  0  0  0  0  0  0  0  0  0
  161.9270  207.4100  156.1230 C   0  0  0  0  0  3  0  0  0  0  0  0
  161.8900  203.1030  150.7670 C   0  0  0  0  0  3  0  0  0  0  0  0
  160.9820  202.2430  151.6260 C   0  0  0  0  0  1  0  0  0  0  0  0
  161.4260  203.0640  149.3220 C   0  0  0  0  0  1  0  0  0  0  0  0
  1 15  1  0  0  0  0
  1 29  1  0  0  0  0
  3 25  1  0  0  0  0
  4 14  1  0  0  0  0
  5  6  1  0  0  0  0
  6 13  1  0  0  0  0
  7 25  2  0  0  0  0
  7 11  1  0  0  0  0
  8 17  1  6  0  0  0
  8  3  1  0  0  0  0
  9 18  1  1  0  0  0
  9 27  1  0  0  0  0
  9  5  1  0  0  0  0
 11  1  2  0  0  0  0
 12 28  1  0  0  0  0
 12 16  1  0  0  0  0
 12 26  1  1  0  0  0
 13 20  1  1  0  0  0
 13 22  1  0  0  0  0
 14 17  2  0  0  0  0
 15  2  1  0  0  0  0
 15 23  1  1  0  0  0
 16 10  2  0  0  0  0
 21  4  1  0  0  0  0
 22 24  1  0  0  0  0
 24 29  1  0  0  0  0
 25 30  1  0  0  0  0
 27 19  2  6  0  0  0
 27 16  1  0  0  0  0
 28 21  1  6  0  0  0
 28  8  1  0  0  0  0
 30  2  2  0  0  0  0
 31 14  1  0  0  0  0
 31 32  1  0  0  0  0
 33 31  1  0  0  0  0
M  END
>  <MODEL>
4

>  <REMARK>
 VINA RESULT:       3.4      4.084      9.253
  Name = 
  1 active torsions:
  status: ('A' for Active; 'I' for Inactive)
    1  A    between atoms: C_1  and  C_17
                            x       y       z     vdW  Elec       q    Type
                         _______ _______ _______ _____ _____    ______ ____

>  <TORSDO>
F 1

$$$$
