=
 OpenBabel11052410193D

 57 63  0  0  1  0  0  0  0  0999 V2000
  161.3090  200.5780  147.8370 C   0  0  0  0  0  0  0  0  0  0  0  0
  161.0100  202.9960  147.8410 C   0  0  0  0  0  0  0  0  0  0  0  0
  161.2290  201.7980  147.1520 C   0  0  0  0  0  3  0  0  0  0  0  0
  161.2820  202.9960  152.0450 C   0  0  0  0  0  3  0  0  0  0  0  0
  160.9600  201.7520  149.9320 C   0  0  0  0  0  0  0  0  0  0  0  0
  160.5850  204.2380  150.0260 C   0  0  0  0  0  2  0  0  0  0  0  0
  160.8690  202.9760  149.2430 C   0  0  0  0  0  0  0  0  0  0  0  0
  160.7940  201.7170  151.4200 C   0  0  0  0  0  2  0  0  0  0  0  0
  161.1730  200.5630  149.2310 C   0  0  0  0  0  3  0  0  0  0  0  0
  161.1770  204.1770  151.4170 C   0  0  0  0  0  0  0  0  0  0  0  0
  161.0770  205.4630  147.7710 C   0  0  0  0  0  3  0  0  0  0  0  0
  160.9920  204.2540  147.0750 C   0  0  0  0  0  0  0  0  0  0  0  0
  161.0730  207.8370  147.7910 F   0  0  0  0  0  0  0  0  0  0  0  0
  160.6640  202.9710  144.9310 C   0  0  0  0  0  1  0  0  0  0  0  0
  161.0150  206.6770  147.0910 C   0  0  0  0  0  0  0  0  0  0  0  0
  160.7480  205.4920  144.9810 C   0  0  0  0  0  0  0  0  0  0  0  0
  160.8250  204.2620  145.6730 C   0  0  0  0  0  0  0  0  0  0  0  0
  160.8460  206.6990  145.7050 C   0  0  0  0  0  0  0  0  0  0  0  0
  160.7660  207.8980  145.0730 F   0  0  0  0  0  0  0  0  0  0  0  0
  159.9560  204.1640  142.9710 C   0  0  0  0  0  1  0  0  0  0  0  0
  160.4870  205.4910  143.4920 C   0  0  2  0  0  3  0  0  0  0  0  0
  161.5030  206.6290  141.5320 C   0  0  0  0  0  3  0  0  0  0  0  0
  161.6540  206.0050  142.7010 C   0  0  0  0  0  3  0  0  0  0  0  0
  162.6920  207.1050  140.7710 C   0  0  0  0  0  2  0  0  0  0  0  0
  162.2780  208.2110  139.8120 C   0  0  2  0  0  3  0  0  0  0  0  0
  162.3290  209.5670  140.5130 C   0  0  1  0  0  3  0  0  0  0  0  0
  163.3040  210.3660  139.9150 O   0  0  0  0  0  1  0  0  0  0  0  0
  161.1820  211.3160  141.2440 C   0  0  0  0  0  1  0  0  0  0  0  0
  161.0890  210.2030  140.4050 O   0  0  0  0  0  0  0  0  0  0  0  0
  160.9310  207.9460  139.3230 N   0  0  0  0  0  2  0  0  0  0  0  0
  162.2000  208.3780  137.4700 C   0  0  0  0  0  1  0  0  0  0  0  0
  159.9610  208.2150  137.3520 O   0  0  0  0  0  1  0  0  0  0  0  0
  161.0380  207.6570  137.9550 N   0  0  0  0  0  0  0  0  0  0  0  0
  161.2810  199.2480  145.7010 N   0  0  0  0  0  1  0  0  0  0  0  0
  161.9660  198.3020  147.7020 O   0  0  0  0  0  0  0  0  0  0  0  0
  161.5410  199.3240  147.1000 C   0  0  0  0  0  0  0  0  0  0  0  0
  162.9740  205.5730  152.4380 C   0  0  0  0  0  1  0  0  0  0  0  0
  161.5730  205.3900  152.0820 N   0  0  0  0  0  0  0  0  0  0  0  0
  161.3000  210.4120  151.9250 C   0  0  0  0  0  0  0  0  0  0  0  0
  161.0350  208.5870  153.2660 C   0  0  0  0  0  0  0  0  0  0  0  0
  161.3590  211.0190  153.5280 S   0  0  0  0  0  0  0  0  0  0  0  0
  161.1400  209.5120  154.2630 C   0  0  0  0  0  0  0  0  0  0  0  0
  160.7820  207.2720  153.4730 C   0  0  0  0  0  0  0  0  0  0  0  0
  160.6290  206.8170  154.7940 C   0  0  0  0  0  3  0  0  0  0  0  0
  160.6350  206.5140  152.1800 C   0  0  1  0  0  3  0  0  0  0  0  0
  160.7590  207.7500  155.8580 C   0  0  0  0  0  0  0  0  0  0  0  0
  161.0070  209.1240  155.5990 C   0  0  0  0  0  3  0  0  0  0  0  0
  160.6080  207.2850  157.2610 C   0  0  0  0  0  1  0  0  0  0  0  0
  161.1190  209.0290  151.9950 C   0  0  0  0  0  0  0  0  0  0  0  0
  160.9180  207.7300  150.7870 S   0  0  0  0  0  0  0  0  0  0  0  0
  162.4170  211.1780  149.7780 C   0  0  0  0  0  3  0  0  0  0  0  0
  161.3310  211.2080  150.7340 N   0  0  0  0  0  0  0  0  0  0  0  0
  161.0220  213.0090  149.2860 C   0  0  2  0  0  3  0  0  0  0  0  0
  162.1710  212.2400  148.8020 N   0  0  0  0  0  0  0  0  0  0  0  0
  160.3980  212.2680  150.4510 C   0  0  0  0  0  2  0  0  0  0  0  0
  160.6120  213.0160  146.7870 C   0  0  0  0  0  1  0  0  0  0  0  0
  160.0150  213.2570  148.1660 C   0  0  0  0  0  2  0  0  0  0  0  0
  1  9  1  0  0  0  0
  2  7  2  0  0  0  0
  3  1  2  0  0  0  0
  3  2  1  0  0  0  0
  5  8  1  0  0  0  0
  6 10  1  0  0  0  0
  7  5  1  0  0  0  0
  7  6  1  0  0  0  0
  8  4  1  0  0  0  0
  9  5  2  0  0  0  0
 10  4  2  0  0  0  0
 10 38  1  0  0  0  0
 12 11  2  0  0  0  0
 12  2  1  0  0  0  0
 14 17  1  0  0  0  0
 15 11  1  0  0  0  0
 15 13  1  0  0  0  0
 16 17  2  0  0  0  0
 16 18  1  0  0  0  0
 17 12  1  0  0  0  0
 18 15  2  0  0  0  0
 19 18  1  0  0  0  0
 21 20  1  6  0  0  0
 21 16  1  0  0  0  0
 22 23  2  0  0  0  0
 23 21  1  0  0  0  0
 24 22  1  0  0  0  0
 25 26  1  0  0  0  0
 25 24  1  1  0  0  0
 26 27  1  6  0  0  0
 29 26  1  0  0  0  0
 29 28  1  0  0  0  0
 30 25  1  0  0  0  0
 31 33  1  0  0  0  0
 32 33  1  0  0  0  0
 33 30  1  0  0  0  0
 34 36  1  0  0  0  0
 36 35  2  0  0  0  0
 36  1  1  0  0  0  0
 38 37  1  0  0  0  0
 39 49  2  0  0  0  0
 39 41  1  0  0  0  0
 40 43  2  0  0  0  0
 40 42  1  0  0  0  0
 41 42  1  0  0  0  0
 42 47  2  0  0  0  0
 43 44  1  0  0  0  0
 44 46  2  0  0  0  0
 45 38  1  1  0  0  0
 45 43  1  0  0  0  0
 46 48  1  0  0  0  0
 47 46  1  0  0  0  0
 49 40  1  0  0  0  0
 50 49  1  0  0  0  0
 50 45  1  0  0  0  0
 51 52  1  0  0  0  0
 52 39  1  0  0  0  0
 53 57  1  6  0  0  0
 53 55  1  0  0  0  0
 54 53  1  0  0  0  0
 54 51  2  0  0  0  0
 55 52  1  0  0  0  0
 56 57  1  0  0  0  0
M  END
>  <MODEL>
1

>  <REMARK>
 VINA RESULT:       0.6      0.000      0.000
  Name = 
  14 active torsions:
  status: ('A' for Active; 'I' for Inactive)
    1  A    between atoms: C_1  and  N_15
    2  A    between atoms: C_3  and  C_17
    3  A    between atoms: C_7  and  C_9
    4  A    between atoms: O_8  and  C_40
    5  A    between atoms: C_20  and  C_57
    6  A    between atoms: N_25  and  C_44
    7  A    between atoms: N_25  and  C_54
    8  A    between atoms: C_26  and  C_33
    9  A    between atoms: C_28  and  C_50
   10  A    between atoms: C_34  and  C_50
   11  A    between atoms: N_39  and  N_52
   12  A    between atoms: C_40  and  C_48
   13  A    between atoms: C_48  and  N_52
   14  A    between atoms: C_48  and  C_57
                            x       y       z     vdW  Elec       q    Type
                         _______ _______ _______ _____ _____    ______ ____

>  <TORSDO>
F 14

$$$$
=
 OpenBabel11052410193D

 57 63  0  0  1  0  0  0  0  0999 V2000
  161.3420  206.9750  146.8580 C   0  0  0  0  0  0  0  0  0  0  0  0
  161.3970  206.4540  149.2380 C   0  0  0  0  0  0  0  0  0  0  0  0
  161.1680  206.0680  147.9120 C   0  0  0  0  0  3  0  0  0  0  0  0
  161.9410  210.5430  150.0930 C   0  0  0  0  0  3  0  0  0  0  0  0
  161.9710  208.6870  148.4590 C   0  0  0  0  0  0  0  0  0  0  0  0
  162.1100  208.2240  150.9280 C   0  0  0  0  0  2  0  0  0  0  0  0
  161.8060  207.7730  149.5160 C   0  0  0  0  0  0  0  0  0  0  0  0
  162.4220  210.0860  148.7430 C   0  0  0  0  0  2  0  0  0  0  0  0
  161.7450  208.2860  147.1400 C   0  0  0  0  0  3  0  0  0  0  0  0
  161.8060  209.6930  151.1230 C   0  0  0  0  0  0  0  0  0  0  0  0
  161.2370  205.8970  151.6370 C   0  0  0  0  0  3  0  0  0  0  0  0
  161.1420  205.4750  150.3090 C   0  0  0  0  0  0  0  0  0  0  0  0
  161.1760  205.4200  153.9630 F   0  0  0  0  0  0  0  0  0  0  0  0
  160.8410  203.6490  148.5990 C   0  0  0  0  0  1  0  0  0  0  0  0
  161.0530  204.9930  152.6810 C   0  0  0  0  0  0  0  0  0  0  0  0
  160.7000  203.1970  151.0770 C   0  0  0  0  0  0  0  0  0  0  0  0
  160.8740  204.1190  150.0210 C   0  0  0  0  0  0  0  0  0  0  0  0
  160.7910  203.6480  152.4100 C   0  0  0  0  0  0  0  0  0  0  0  0
  160.6380  202.7870  153.4480 F   0  0  0  0  0  0  0  0  0  0  0  0
  161.7370  200.8840  150.9880 C   0  0  0  0  0  1  0  0  0  0  0  0
  160.4950  201.7330  150.7590 C   0  0  2  0  0  3  0  0  0  0  0  0
  160.5330  200.9010  148.4190 C   0  0  0  0  0  3  0  0  0  0  0  0
  159.8820  201.5170  149.4050 C   0  0  0  0  0  3  0  0  0  0  0  0
  159.8920  200.7260  147.0850 C   0  0  0  0  0  2  0  0  0  0  0  0
  160.9580  200.7130  146.0000 C   0  0  2  0  0  3  0  0  0  0  0  0
  161.0680  202.0910  145.3500 C   0  0  1  0  0  3  0  0  0  0  0  0
  159.7910  202.6030  145.1210 O   0  0  0  0  0  1  0  0  0  0  0  0
  162.4940  203.7870  145.3390 C   0  0  0  0  0  1  0  0  0  0  0  0
  161.7630  202.9610  146.1960 O   0  0  0  0  0  0  0  0  0  0  0  0
  160.6160  199.7090  145.0000 N   0  0  0  0  0  2  0  0  0  0  0  0
  162.1160  198.6800  146.3860 C   0  0  0  0  0  1  0  0  0  0  0  0
  161.3870  197.6950  144.5010 O   0  0  0  0  0  1  0  0  0  0  0  0
  160.9620  198.4600  145.5350 N   0  0  0  0  0  0  0  0  0  0  0  0
  162.1740  206.4650  144.5380 N   0  0  0  0  0  1  0  0  0  0  0  0
  159.9290  206.2810  145.0820 O   0  0  0  0  0  0  0  0  0  0  0  0
  161.0970  206.5560  145.4670 C   0  0  0  0  0  0  0  0  0  0  0  0
  162.2200  211.2400  153.0340 C   0  0  0  0  0  1  0  0  0  0  0  0
  161.4280  210.1810  152.4220 N   0  0  0  0  0  0  0  0  0  0  0  0
  157.7930  211.7570  155.5230 C   0  0  0  0  0  0  0  0  0  0  0  0
  159.4300  210.1960  155.2360 C   0  0  0  0  0  0  0  0  0  0  0  0
  158.0860  211.1190  157.0880 S   0  0  0  0  0  0  0  0  0  0  0  0
  159.2840  210.0360  156.5830 C   0  0  0  0  0  0  0  0  0  0  0  0
  160.2560  209.4450  154.4670 C   0  0  0  0  0  0  0  0  0  0  0  0
  161.0230  208.4440  155.0860 C   0  0  0  0  0  3  0  0  0  0  0  0
  160.1400  209.7930  153.0060 C   0  0  1  0  0  3  0  0  0  0  0  0
  160.9140  208.2680  156.4920 C   0  0  0  0  0  0  0  0  0  0  0  0
  160.0240  209.0650  157.2600 C   0  0  0  0  0  3  0  0  0  0  0  0
  161.7240  207.2200  157.1630 C   0  0  0  0  0  1  0  0  0  0  0  0
  158.6500  211.1130  154.6290 C   0  0  0  0  0  0  0  0  0  0  0  0
  158.9050  211.1900  152.8640 S   0  0  0  0  0  0  0  0  0  0  0  0
  156.3950  213.8080  156.0530 C   0  0  0  0  0  3  0  0  0  0  0  0
  156.7740  212.7080  155.1920 N   0  0  0  0  0  0  0  0  0  0  0  0
  154.8020  213.6070  154.3310 C   0  0  2  0  0  3  0  0  0  0  0  0
  155.2190  214.4440  155.4590 N   0  0  0  0  0  0  0  0  0  0  0  0
  155.8770  212.5690  154.0750 C   0  0  0  0  0  2  0  0  0  0  0  0
  155.2370  213.9210  151.8560 C   0  0  0  0  0  1  0  0  0  0  0  0
  154.5220  214.4520  153.0910 C   0  0  0  0  0  2  0  0  0  0  0  0
  1  9  2  0  0  0  0
  1  3  1  0  0  0  0
  2  7  1  0  0  0  0
  2 12  1  0  0  0  0
  3  2  2  0  0  0  0
  4 10  2  0  0  0  0
  5  8  1  0  0  0  0
  5  7  2  0  0  0  0
  6 10  1  0  0  0  0
  7  6  1  0  0  0  0
  8  4  1  0  0  0  0
  9  5  1  0  0  0  0
 10 38  1  0  0  0  0
 11 15  1  0  0  0  0
 12 11  2  0  0  0  0
 14 17  1  0  0  0  0
 15 13  1  0  0  0  0
 16 18  1  0  0  0  0
 17 12  1  0  0  0  0
 17 16  2  0  0  0  0
 18 15  2  0  0  0  0
 18 19  1  0  0  0  0
 21 20  1  6  0  0  0
 21 16  1  0  0  0  0
 22 23  2  0  0  0  0
 23 21  1  0  0  0  0
 24 22  1  0  0  0  0
 25 24  1  1  0  0  0
 26 27  1  1  0  0  0
 26 25  1  0  0  0  0
 26 29  1  0  0  0  0
 28 29  1  0  0  0  0
 30 33  1  0  0  0  0
 30 25  1  0  0  0  0
 32 33  1  0  0  0  0
 33 31  1  0  0  0  0
 34 36  1  0  0  0  0
 35 36  2  0  0  0  0
 36  1  1  0  0  0  0
 38 37  1  0  0  0  0
 39 41  1  0  0  0  0
 40 42  1  0  0  0  0
 42 41  1  0  0  0  0
 42 47  2  0  0  0  0
 43 44  1  0  0  0  0
 43 40  2  0  0  0  0
 44 46  2  0  0  0  0
 45 38  1  1  0  0  0
 45 43  1  0  0  0  0
 46 48  1  0  0  0  0
 46 47  1  0  0  0  0
 49 40  1  0  0  0  0
 49 39  2  0  0  0  0
 50 45  1  0  0  0  0
 50 49  1  0  0  0  0
 52 39  1  0  0  0  0
 52 51  1  0  0  0  0
 53 57  1  6  0  0  0
 53 54  1  0  0  0  0
 54 51  2  0  0  0  0
 55 53  1  0  0  0  0
 55 52  1  0  0  0  0
 56 57  1  0  0  0  0
M  END
>  <MODEL>
2

>  <REMARK>
 VINA RESULT:       0.7      3.694      7.185
  Name = 
  14 active torsions:
  status: ('A' for Active; 'I' for Inactive)
    1  A    between atoms: C_1  and  N_15
    2  A    between atoms: C_3  and  C_17
    3  A    between atoms: C_7  and  C_9
    4  A    between atoms: O_8  and  C_40
    5  A    between atoms: C_20  and  C_57
    6  A    between atoms: N_25  and  C_44
    7  A    between atoms: N_25  and  C_54
    8  A    between atoms: C_26  and  C_33
    9  A    between atoms: C_28  and  C_50
   10  A    between atoms: C_34  and  C_50
   11  A    between atoms: N_39  and  N_52
   12  A    between atoms: C_40  and  C_48
   13  A    between atoms: C_48  and  N_52
   14  A    between atoms: C_48  and  C_57
                            x       y       z     vdW  Elec       q    Type
                         _______ _______ _______ _____ _____    ______ ____

>  <TORSDO>
F 14

$$$$
=
 OpenBabel11052410193D

 57 63  0  0  1  0  0  0  0  0999 V2000
  158.4040  213.6420  154.0760 C   0  0  0  0  0  0  0  0  0  0  0  0
  159.0250  212.1290  152.2690 C   0  0  0  0  0  0  0  0  0  0  0  0
  159.2190  212.6220  153.5640 C   0  0  0  0  0  3  0  0  0  0  0  0
  156.4310  214.2050  149.6780 C   0  0  0  0  0  3  0  0  0  0  0  0
  157.1870  213.6980  151.9780 C   0  0  0  0  0  0  0  0  0  0  0  0
  157.7200  212.1360  150.0790 C   0  0  0  0  0  2  0  0  0  0  0  0
  157.9980  212.6670  151.4680 C   0  0  0  0  0  0  0  0  0  0  0  0
  156.0820  214.2640  151.1400 C   0  0  0  0  0  2  0  0  0  0  0  0
  157.3880  214.1760  153.2740 C   0  0  0  0  0  3  0  0  0  0  0  0
  157.1770  213.2130  149.1670 C   0  0  0  0  0  0  0  0  0  0  0  0
  160.6570  211.3530  150.5880 C   0  0  0  0  0  3  0  0  0  0  0  0
  159.9470  211.0970  151.7640 C   0  0  0  0  0  0  0  0  0  0  0  0
  162.1600  210.6460  148.8910 F   0  0  0  0  0  0  0  0  0  0  0  0
  159.2630  209.5420  153.6250 C   0  0  0  0  0  1  0  0  0  0  0  0
  161.5020  210.3860  150.0480 C   0  0  0  0  0  0  0  0  0  0  0  0
  160.9210  208.8570  151.8510 C   0  0  0  0  0  0  0  0  0  0  0  0
  160.0750  209.8450  152.4030 C   0  0  0  0  0  0  0  0  0  0  0  0
  161.6340  209.1410  150.6680 C   0  0  0  0  0  0  0  0  0  0  0  0
  162.4490  208.2120  150.1060 F   0  0  0  0  0  0  0  0  0  0  0  0
  161.4680  207.5250  153.9390 C   0  0  0  0  0  1  0  0  0  0  0  0
  160.9870  207.4920  152.4960 C   0  0  2  0  0  3  0  0  0  0  0  0
  161.1050  205.6760  150.8050 C   0  0  0  0  0  3  0  0  0  0  0  0
  161.7280  206.4920  151.6560 C   0  0  0  0  0  3  0  0  0  0  0  0
  161.8790  204.6850  150.0050 C   0  0  0  0  0  2  0  0  0  0  0  0
  161.0730  204.2680  148.7850 C   0  0  2  0  0  3  0  0  0  0  0  0
  160.3270  202.9650  149.0640 C   0  0  1  0  0  3  0  0  0  0  0  0
  160.4720  202.1010  147.9770 O   0  0  0  0  0  1  0  0  0  0  0  0
  161.4190  201.1620  149.7470 C   0  0  0  0  0  1  0  0  0  0  0  0
  160.8520  202.3520  150.2060 O   0  0  0  0  0  0  0  0  0  0  0  0
  161.9710  204.1010  147.6480 N   0  0  0  0  0  2  0  0  0  0  0  0
  160.7120  204.1810  145.7400 C   0  0  0  0  0  1  0  0  0  0  0  0
  162.6220  205.3500  145.9400 O   0  0  0  0  0  1  0  0  0  0  0  0
  161.5270  204.9720  146.6420 N   0  0  0  0  0  0  0  0  0  0  0  0
  157.5110  214.4530  156.2840 N   0  0  0  0  0  1  0  0  0  0  0  0
  159.7880  214.3360  155.8740 O   0  0  0  0  0  0  0  0  0  0  0  0
  158.6200  214.1530  155.4410 C   0  0  0  0  0  0  0  0  0  0  0  0
  156.6290  212.2120  146.9490 C   0  0  0  0  0  1  0  0  0  0  0  0
  157.4160  213.1410  147.7500 N   0  0  0  0  0  0  0  0  0  0  0  0
  161.0810  213.7090  144.3500 C   0  0  0  0  0  0  0  0  0  0  0  0
  160.5590  213.9220  146.5600 C   0  0  0  0  0  0  0  0  0  0  0  0
  162.5890  213.7570  145.1660 S   0  0  0  0  0  0  0  0  0  0  0  0
  161.9150  213.9160  146.7100 C   0  0  0  0  0  0  0  0  0  0  0  0
  159.6830  214.1040  147.5780 C   0  0  0  0  0  0  0  0  0  0  0  0
  160.1900  214.2870  148.8750 C   0  0  0  0  0  3  0  0  0  0  0  0
  158.2570  214.1490  147.0950 C   0  0  1  0  0  3  0  0  0  0  0  0
  161.5980  214.2600  149.0700 C   0  0  0  0  0  0  0  0  0  0  0  0
  162.4830  214.0840  147.9750 C   0  0  0  0  0  3  0  0  0  0  0  0
  162.1500  214.4440  150.4370 C   0  0  0  0  0  1  0  0  0  0  0  0
  160.0700  213.8090  145.3090 C   0  0  0  0  0  0  0  0  0  0  0  0
  158.2880  213.8790  145.2450 S   0  0  0  0  0  0  0  0  0  0  0  0
  159.9070  214.4470  142.2240 C   0  0  0  0  0  3  0  0  0  0  0  0
  160.9080  213.6740  142.9280 N   0  0  0  0  0  0  0  0  0  0  0  0
  160.8240  212.8630  140.7440 C   0  0  2  0  0  3  0  0  0  0  0  0
  159.9250  214.0170  140.8260 N   0  0  0  0  0  0  0  0  0  0  0  0
  161.5600  212.7270  142.0620 C   0  0  0  0  0  2  0  0  0  0  0  0
  163.1440  212.3710  139.8560 C   0  0  0  0  0  1  0  0  0  0  0  0
  161.7880  212.9990  139.5680 C   0  0  0  0  0  2  0  0  0  0  0  0
  1 36  1  0  0  0  0
  2  3  2  0  0  0  0
  3  1  1  0  0  0  0
  4  8  1  0  0  0  0
  5  9  1  0  0  0  0
  6  7  1  0  0  0  0
  7  5  2  0  0  0  0
  7  2  1  0  0  0  0
  8  5  1  0  0  0  0
  9  1  2  0  0  0  0
 10  4  2  0  0  0  0
 10  6  1  0  0  0  0
 11 12  1  0  0  0  0
 12  2  1  0  0  0  0
 12 17  2  0  0  0  0
 13 15  1  0  0  0  0
 15 11  2  0  0  0  0
 15 18  1  0  0  0  0
 16 17  1  0  0  0  0
 16 21  1  0  0  0  0
 17 14  1  0  0  0  0
 18 16  2  0  0  0  0
 19 18  1  0  0  0  0
 21 20  1  1  0  0  0
 22 23  2  0  0  0  0
 23 21  1  0  0  0  0
 24 22  1  0  0  0  0
 25 26  1  0  0  0  0
 25 24  1  1  0  0  0
 26 27  1  6  0  0  0
 26 29  1  0  0  0  0
 28 29  1  0  0  0  0
 30 25  1  0  0  0  0
 31 33  1  0  0  0  0
 32 33  1  0  0  0  0
 33 30  1  0  0  0  0
 36 35  2  0  0  0  0
 36 34  1  0  0  0  0
 37 38  1  0  0  0  0
 38 10  1  0  0  0  0
 39 41  1  0  0  0  0
 39 49  2  0  0  0  0
 40 42  2  0  0  0  0
 40 43  1  0  0  0  0
 41 42  1  0  0  0  0
 42 47  1  0  0  0  0
 43 44  2  0  0  0  0
 44 46  1  0  0  0  0
 45 43  1  0  0  0  0
 45 38  1  1  0  0  0
 46 48  1  0  0  0  0
 47 46  2  0  0  0  0
 49 40  1  0  0  0  0
 50 49  1  0  0  0  0
 50 45  1  0  0  0  0
 51 52  1  0  0  0  0
 52 39  1  0  0  0  0
 53 57  1  6  0  0  0
 53 54  1  0  0  0  0
 53 55  1  0  0  0  0
 54 51  2  0  0  0  0
 55 52  1  0  0  0  0
 57 56  1  0  0  0  0
M  END
>  <MODEL>
3

>  <REMARK>
 VINA RESULT:       1.2      4.165     10.363
  Name = 
  14 active torsions:
  status: ('A' for Active; 'I' for Inactive)
    1  A    between atoms: C_1  and  N_15
    2  A    between atoms: C_3  and  C_17
    3  A    between atoms: C_7  and  C_9
    4  A    between atoms: O_8  and  C_40
    5  A    between atoms: C_20  and  C_57
    6  A    between atoms: N_25  and  C_44
    7  A    between atoms: N_25  and  C_54
    8  A    between atoms: C_26  and  C_33
    9  A    between atoms: C_28  and  C_50
   10  A    between atoms: C_34  and  C_50
   11  A    between atoms: N_39  and  N_52
   12  A    between atoms: C_40  and  C_48
   13  A    between atoms: C_48  and  N_52
   14  A    between atoms: C_48  and  C_57
                            x       y       z     vdW  Elec       q    Type
                         _______ _______ _______ _____ _____    ______ ____

>  <TORSDO>
F 14

$$$$
=
 OpenBabel11052410193D

 57 63  0  0  1  0  0  0  0  0999 V2000
  161.6070  206.5720  147.4010 C   0  0  0  0  0  0  0  0  0  0  0  0
  161.8200  208.8650  148.2000 C   0  0  0  0  0  0  0  0  0  0  0  0
  161.8920  207.9250  147.1650 C   0  0  0  0  0  3  0  0  0  0  0  0
  161.4180  207.4920  152.1630 C   0  0  0  0  0  3  0  0  0  0  0  0
  161.1820  207.0870  149.7340 C   0  0  0  0  0  0  0  0  0  0  0  0
  161.3230  209.4320  150.6350 C   0  0  0  0  0  2  0  0  0  0  0  0
  161.4580  208.4460  149.4960 C   0  0  0  0  0  0  0  0  0  0  0  0
  160.7800  206.6350  151.1040 C   0  0  0  0  0  2  0  0  0  0  0  0
  161.2520  206.1610  148.6910 C   0  0  0  0  0  3  0  0  0  0  0  0
  161.6610  208.7970  151.9660 C   0  0  0  0  0  0  0  0  0  0  0  0
  163.5000  210.6720  148.1440 C   0  0  0  0  0  3  0  0  0  0  0  0
  162.1860  210.2620  147.9060 C   0  0  0  0  0  0  0  0  0  0  0  0
  165.1520  212.3780  148.1900 F   0  0  0  0  0  0  0  0  0  0  0  0
  159.8030  210.7770  147.2710 C   0  0  0  0  0  1  0  0  0  0  0  0
  163.8770  211.9960  147.9270 C   0  0  0  0  0  0  0  0  0  0  0  0
  161.6030  212.5440  147.2520 C   0  0  0  0  0  0  0  0  0  0  0  0
  161.2270  211.1970  147.4590 C   0  0  0  0  0  0  0  0  0  0  0  0
  162.9380  212.9330  147.4890 C   0  0  0  0  0  0  0  0  0  0  0  0
  163.3300  214.2190  147.3090 F   0  0  0  0  0  0  0  0  0  0  0  0
  159.1450  213.1670  147.2810 C   0  0  0  0  0  1  0  0  0  0  0  0
  160.5530  213.5540  146.8530 C   0  0  2  0  0  3  0  0  0  0  0  0
  160.1830  213.1420  144.4320 C   0  0  0  0  0  3  0  0  0  0  0  0
  160.6380  213.9340  145.4030 C   0  0  0  0  0  3  0  0  0  0  0  0
  160.3060  213.5510  143.0040 C   0  0  0  0  0  2  0  0  0  0  0  0
  161.2930  212.6390  142.2920 C   0  0  2  0  0  3  0  0  0  0  0  0
  162.7090  213.2010  142.4040 C   0  0  1  0  0  3  0  0  0  0  0  0
  162.7670  214.4490  141.7820 O   0  0  0  0  0  1  0  0  0  0  0  0
  163.9900  214.3850  143.7700 C   0  0  0  0  0  1  0  0  0  0  0  0
  163.0570  213.3460  143.7500 O   0  0  0  0  0  0  0  0  0  0  0  0
  160.9100  212.5150  140.8910 N   0  0  0  0  0  2  0  0  0  0  0  0
  161.9560  210.5650  140.3120 C   0  0  0  0  0  1  0  0  0  0  0  0
  159.9130  211.0830  139.5290 O   0  0  0  0  0  1  0  0  0  0  0  0
  160.6730  211.1540  140.6480 N   0  0  0  0  0  0  0  0  0  0  0  0
  160.5420  204.8320  145.9290 N   0  0  0  0  0  1  0  0  0  0  0  0
  162.7720  205.4130  145.6900 O   0  0  0  0  0  0  0  0  0  0  0  0
  161.6870  205.5930  146.3040 C   0  0  0  0  0  0  0  0  0  0  0  0
  163.2210  210.5880  152.7260 C   0  0  0  0  0  1  0  0  0  0  0  0
  162.1910  209.6060  153.0320 N   0  0  0  0  0  0  0  0  0  0  0  0
  159.2230  212.3490  156.0290 C   0  0  0  0  0  0  0  0  0  0  0  0
  161.3150  211.4710  155.8000 C   0  0  0  0  0  0  0  0  0  0  0  0
  160.2070  213.2420  157.1140 S   0  0  0  0  0  0  0  0  0  0  0  0
  161.6290  212.4050  156.7450 C   0  0  0  0  0  0  0  0  0  0  0  0
  162.1920  210.5630  155.3090 C   0  0  0  0  0  0  0  0  0  0  0  0
  163.5130  210.5800  155.7850 C   0  0  0  0  0  3  0  0  0  0  0  0
  161.5370  209.6080  154.3450 C   0  0  1  0  0  3  0  0  0  0  0  0
  163.8810  211.5560  156.7510 C   0  0  0  0  0  0  0  0  0  0  0  0
  162.9280  212.4800  157.2530 C   0  0  0  0  0  3  0  0  0  0  0  0
  165.2760  211.5920  157.2590 C   0  0  0  0  0  1  0  0  0  0  0  0
  160.0340  211.4120  155.3860 C   0  0  0  0  0  0  0  0  0  0  0  0
  159.7450  210.1200  154.1880 S   0  0  0  0  0  0  0  0  0  0  0  0
  156.8530  211.9800  156.8610 C   0  0  0  0  0  3  0  0  0  0  0  0
  157.8030  212.4850  155.8930 N   0  0  0  0  0  0  0  0  0  0  0  0
  155.6910  212.6060  154.9120 C   0  0  2  0  0  3  0  0  0  0  0  0
  155.5160  212.1520  156.2940 N   0  0  0  0  0  0  0  0  0  0  0  0
  157.1510  212.9500  154.6960 C   0  0  0  0  0  2  0  0  0  0  0  0
  155.0960  214.4260  153.2550 C   0  0  0  0  0  1  0  0  0  0  0  0
  154.7780  213.7880  154.6000 C   0  0  0  0  0  2  0  0  0  0  0  0
  1  9  1  0  0  0  0
  2  7  2  0  0  0  0
  3  1  2  0  0  0  0
  3  2  1  0  0  0  0
  5  8  1  0  0  0  0
  6 10  1  0  0  0  0
  7  5  1  0  0  0  0
  7  6  1  0  0  0  0
  8  4  1  0  0  0  0
  9  5  2  0  0  0  0
 10  4  2  0  0  0  0
 10 38  1  0  0  0  0
 12 11  2  0  0  0  0
 12  2  1  0  0  0  0
 14 17  1  0  0  0  0
 15 11  1  0  0  0  0
 15 13  1  0  0  0  0
 16 17  2  0  0  0  0
 16 18  1  0  0  0  0
 17 12  1  0  0  0  0
 18 15  2  0  0  0  0
 19 18  1  0  0  0  0
 21 16  1  0  0  0  0
 21 20  1  6  0  0  0
 22 23  2  0  0  0  0
 23 21  1  0  0  0  0
 24 22  1  0  0  0  0
 25 26  1  0  0  0  0
 25 24  1  1  0  0  0
 26 27  1  6  0  0  0
 26 29  1  0  0  0  0
 29 28  1  0  0  0  0
 30 25  1  0  0  0  0
 31 33  1  0  0  0  0
 32 33  1  0  0  0  0
 33 30  1  0  0  0  0
 34 36  1  0  0  0  0
 35 36  2  0  0  0  0
 36  1  1  0  0  0  0
 37 38  1  0  0  0  0
 39 41  1  0  0  0  0
 40 42  1  0  0  0  0
 42 41  1  0  0  0  0
 42 47  2  0  0  0  0
 43 44  1  0  0  0  0
 43 40  2  0  0  0  0
 44 46  2  0  0  0  0
 45 38  1  6  0  0  0
 45 43  1  0  0  0  0
 46 47  1  0  0  0  0
 46 48  1  0  0  0  0
 49 40  1  0  0  0  0
 49 39  2  0  0  0  0
 50 45  1  0  0  0  0
 50 49  1  0  0  0  0
 52 39  1  0  0  0  0
 52 51  1  0  0  0  0
 53 57  1  1  0  0  0
 53 54  1  0  0  0  0
 54 51  2  0  0  0  0
 55 53  1  0  0  0  0
 55 52  1  0  0  0  0
 56 57  1  0  0  0  0
M  END
>  <MODEL>
4

>  <REMARK>
 VINA RESULT:       1.5      3.762      6.101
  Name = 
  14 active torsions:
  status: ('A' for Active; 'I' for Inactive)
    1  A    between atoms: C_1  and  N_15
    2  A    between atoms: C_3  and  C_17
    3  A    between atoms: C_7  and  C_9
    4  A    between atoms: O_8  and  C_40
    5  A    between atoms: C_20  and  C_57
    6  A    between atoms: N_25  and  C_44
    7  A    between atoms: N_25  and  C_54
    8  A    between atoms: C_26  and  C_33
    9  A    between atoms: C_28  and  C_50
   10  A    between atoms: C_34  and  C_50
   11  A    between atoms: N_39  and  N_52
   12  A    between atoms: C_40  and  C_48
   13  A    between atoms: C_48  and  N_52
   14  A    between atoms: C_48  and  C_57
                            x       y       z     vdW  Elec       q    Type
                         _______ _______ _______ _____ _____    ______ ____

>  <TORSDO>
F 14

$$$$
=
 OpenBabel11052410193D

 57 63  0  0  1  0  0  0  0  0999 V2000
  160.9620  208.6060  155.1470 C   0  0  0  0  0  0  0  0  0  0  0  0
  161.0130  209.5480  152.8990 C   0  0  0  0  0  0  0  0  0  0  0  0
  160.8000  209.6920  154.2750 C   0  0  0  0  0  3  0  0  0  0  0  0
  161.4700  205.6710  151.3150 C   0  0  0  0  0  3  0  0  0  0  0  0
  161.5470  207.2010  153.2570 C   0  0  0  0  0  0  0  0  0  0  0  0
  161.6810  208.1000  150.9110 C   0  0  0  0  0  2  0  0  0  0  0  0
  161.3940  208.2930  152.3830 C   0  0  0  0  0  0  0  0  0  0  0  0
  161.9690  205.8680  152.7200 C   0  0  0  0  0  2  0  0  0  0  0  0
  161.3370  207.3610  154.6280 C   0  0  0  0  0  3  0  0  0  0  0  0
  161.3470  206.6960  150.4570 C   0  0  0  0  0  0  0  0  0  0  0  0
  159.7700  211.6170  152.3810 C   0  0  0  0  0  3  0  0  0  0  0  0
  160.7710  210.7090  152.0250 C   0  0  0  0  0  0  0  0  0  0  0  0
  158.4810  213.5540  151.9110 F   0  0  0  0  0  0  0  0  0  0  0  0
  162.5030  209.8730  150.3970 C   0  0  0  0  0  1  0  0  0  0  0  0
  159.4750  212.7010  151.5590 C   0  0  0  0  0  0  0  0  0  0  0  0
  161.1720  211.9730  149.9720 C   0  0  0  0  0  0  0  0  0  0  0  0
  161.4780  210.8820  150.8150 C   0  0  0  0  0  0  0  0  0  0  0  0
  160.1640  212.8820  150.3570 C   0  0  0  0  0  0  0  0  0  0  0  0
  159.8380  213.9360  149.5660 F   0  0  0  0  0  0  0  0  0  0  0  0
  162.7930  213.3140  148.5560 C   0  0  0  0  0  1  0  0  0  0  0  0
  161.8760  212.1030  148.6410 C   0  0  2  0  0  3  0  0  0  0  0  0
  161.1940  212.5680  146.2980 C   0  0  0  0  0  3  0  0  0  0  0  0
  160.9330  212.0020  147.4770 C   0  0  0  0  0  3  0  0  0  0  0  0
  160.2200  212.4570  145.1760 C   0  0  0  0  0  2  0  0  0  0  0  0
  159.5210  213.7920  144.9690 C   0  0  2  0  0  3  0  0  0  0  0  0
  158.0070  213.5960  144.9290 C   0  0  1  0  0  3  0  0  0  0  0  0
  157.6970  212.2770  145.2600 O   0  0  0  0  0  1  0  0  0  0  0  0
  157.6930  213.9110  147.1000 C   0  0  0  0  0  1  0  0  0  0  0  0
  157.3930  214.4530  145.8480 O   0  0  0  0  0  0  0  0  0  0  0  0
  159.9850  214.3920  143.7240 N   0  0  0  0  0  2  0  0  0  0  0  0
  160.6370  212.8970  142.1200 C   0  0  0  0  0  1  0  0  0  0  0  0
  159.0570  214.4440  141.7150 O   0  0  0  0  0  1  0  0  0  0  0  0
  159.4950  213.5970  142.6770 N   0  0  0  0  0  0  0  0  0  0  0  0
  159.7410  207.9960  157.2610 N   0  0  0  0  0  1  0  0  0  0  0  0
  161.4090  209.6050  157.2520 O   0  0  0  0  0  0  0  0  0  0  0  0
  160.7330  208.7710  156.5920 C   0  0  0  0  0  0  0  0  0  0  0  0
  159.7650  207.1270  148.5770 C   0  0  0  0  0  1  0  0  0  0  0  0
  160.9510  206.4570  149.0940 N   0  0  0  0  0  0  0  0  0  0  0  0
  161.3520  204.7370  144.3820 C   0  0  0  0  0  0  0  0  0  0  0  0
  161.2330  204.1170  146.5740 C   0  0  0  0  0  0  0  0  0  0  0  0
  160.9000  203.0820  144.3580 S   0  0  0  0  0  0  0  0  0  0  0  0
  160.8960  202.9070  146.0410 C   0  0  0  0  0  0  0  0  0  0  0  0
  161.4000  204.3430  147.9000 C   0  0  0  0  0  0  0  0  0  0  0  0
  161.2040  203.2760  148.7920 C   0  0  0  0  0  3  0  0  0  0  0  0
  161.8550  205.7510  148.1800 C   0  0  1  0  0  3  0  0  0  0  0  0
  160.8270  202.0080  148.2720 C   0  0  0  0  0  0  0  0  0  0  0  0
  160.6790  201.8080  146.8740 C   0  0  0  0  0  3  0  0  0  0  0  0
  160.6080  200.8710  149.2020 C   0  0  0  0  0  1  0  0  0  0  0  0
  161.4820  205.1280  145.7170 C   0  0  0  0  0  0  0  0  0  0  0  0
  161.9580  206.6390  146.5380 S   0  0  0  0  0  0  0  0  0  0  0  0
  161.9130  206.9560  143.2850 C   0  0  0  0  0  3  0  0  0  0  0  0
  161.6390  205.5360  143.2280 N   0  0  0  0  0  0  0  0  0  0  0  0
  161.5810  206.3360  141.0390 C   0  0  2  0  0  3  0  0  0  0  0  0
  161.9840  207.4440  141.9080 N   0  0  0  0  0  0  0  0  0  0  0  0
  161.4920  205.0730  141.8730 C   0  0  0  0  0  2  0  0  0  0  0  0
  162.0430  206.8560  138.6040 C   0  0  0  0  0  1  0  0  0  0  0  0
  162.5480  206.1750  139.8680 C   0  0  0  0  0  2  0  0  0  0  0  0
  1 36  1  0  0  0  0
  2  3  1  0  0  0  0
  3  1  2  0  0  0  0
  4  8  1  0  0  0  0
  5  9  2  0  0  0  0
  6  7  1  0  0  0  0
  7  2  2  0  0  0  0
  7  5  1  0  0  0  0
  8  5  1  0  0  0  0
  9  1  1  0  0  0  0
 10  6  1  0  0  0  0
 10  4  2  0  0  0  0
 12 11  1  0  0  0  0
 12  2  1  0  0  0  0
 14 17  1  0  0  0  0
 15 13  1  0  0  0  0
 15 11  2  0  0  0  0
 16 18  2  0  0  0  0
 16 17  1  0  0  0  0
 17 12  2  0  0  0  0
 18 15  1  0  0  0  0
 19 18  1  0  0  0  0
 21 20  1  1  0  0  0
 21 16  1  0  0  0  0
 22 23  2  0  0  0  0
 23 21  1  0  0  0  0
 24 22  1  0  0  0  0
 25 24  1  6  0  0  0
 26 25  1  0  0  0  0
 26 27  1  1  0  0  0
 26 29  1  0  0  0  0
 29 28  1  0  0  0  0
 30 25  1  0  0  0  0
 31 33  1  0  0  0  0
 32 33  1  0  0  0  0
 33 30  1  0  0  0  0
 36 35  2  0  0  0  0
 36 34  1  0  0  0  0
 37 38  1  0  0  0  0
 38 10  1  0  0  0  0
 39 49  2  0  0  0  0
 40 43  1  0  0  0  0
 41 39  1  0  0  0  0
 41 42  1  0  0  0  0
 42 40  2  0  0  0  0
 42 47  1  0  0  0  0
 43 45  1  0  0  0  0
 43 44  2  0  0  0  0
 45 38  1  1  0  0  0
 46 44  1  0  0  0  0
 46 48  1  0  0  0  0
 47 46  2  0  0  0  0
 49 50  1  0  0  0  0
 49 40  1  0  0  0  0
 50 45  1  0  0  0  0
 52 51  1  0  0  0  0
 52 39  1  0  0  0  0
 53 57  1  6  0  0  0
 53 55  1  0  0  0  0
 53 54  1  0  0  0  0
 54 51  2  0  0  0  0
 55 52  1  0  0  0  0
 56 57  1  0  0  0  0
M  END
>  <MODEL>
5

>  <REMARK>
 VINA RESULT:       2.3      3.667      8.622
  Name = 
  14 active torsions:
  status: ('A' for Active; 'I' for Inactive)
    1  A    between atoms: C_1  and  N_15
    2  A    between atoms: C_3  and  C_17
    3  A    between atoms: C_7  and  C_9
    4  A    between atoms: O_8  and  C_40
    5  A    between atoms: C_20  and  C_57
    6  A    between atoms: N_25  and  C_44
    7  A    between atoms: N_25  and  C_54
    8  A    between atoms: C_26  and  C_33
    9  A    between atoms: C_28  and  C_50
   10  A    between atoms: C_34  and  C_50
   11  A    between atoms: N_39  and  N_52
   12  A    between atoms: C_40  and  C_48
   13  A    between atoms: C_48  and  N_52
   14  A    between atoms: C_48  and  C_57
                            x       y       z     vdW  Elec       q    Type
                         _______ _______ _______ _____ _____    ______ ____

>  <TORSDO>
F 14

$$$$
=
 OpenBabel11052410193D

 57 64  0  0  1  0  0  0  0  0999 V2000
  160.7830  203.5190  150.0680 C   0  0  0  0  0  0  0  0  0  0  0  0
  161.3010  205.6030  151.2210 C   0  0  0  0  0  0  0  0  0  0  0  0
  160.8200  204.2880  151.2390 C   0  0  0  0  0  3  0  0  0  0  0  0
  161.9850  207.4580  147.5010 C   0  0  0  0  0  3  0  0  0  0  0  0
  161.7050  205.3910  148.8300 C   0  0  0  0  0  0  0  0  0  0  0  0
  162.3220  207.5600  149.9460 C   0  0  1  0  0  3  0  0  0  0  0  0
  161.7520  206.1610  150.0080 C   0  0  0  0  0  0  0  0  0  0  0  0
  162.1970  205.9690  147.5400 C   0  0  0  0  0  2  0  0  0  0  0  0
  161.2280  204.0790  148.8650 C   0  0  0  0  0  3  0  0  0  0  0  0
  162.0570  208.2130  148.6080 C   0  0  0  0  0  0  0  0  0  0  0  0
  161.1530  205.6980  153.6830 C   0  0  0  0  0  3  0  0  0  0  0  0
  161.2630  206.3830  152.4700 C   0  0  0  0  0  0  0  0  0  0  0  0
  160.9310  205.7110  156.0470 F   0  0  0  0  0  0  0  0  0  0  0  0
  161.3150  208.5320  151.1570 C   0  0  0  0  0  2  0  0  0  0  0  0
  161.0640  206.3970  154.8850 C   0  0  0  0  0  0  0  0  0  0  0  0
  161.1640  208.5070  153.6750 C   0  0  0  0  0  0  0  0  0  0  0  0
  161.2680  207.7950  152.4590 C   0  0  0  0  0  0  0  0  0  0  0  0
  161.0630  207.7940  154.8880 C   0  0  0  0  0  0  0  0  0  0  0  0
  160.9520  208.4470  156.0720 F   0  0  0  0  0  0  0  0  0  0  0  0
  162.1720  210.6960  154.4670 C   0  0  0  0  0  1  0  0  0  0  0  0
  161.0860  210.0170  153.6460 C   0  0  2  0  0  3  0  0  0  0  0  0
  159.0840  211.4110  153.1800 C   0  0  0  0  0  3  0  0  0  0  0  0
  159.7100  210.5300  153.9600 C   0  0  0  0  0  3  0  0  0  0  0  0
  157.7260  211.9080  153.5410 C   0  0  0  0  0  2  0  0  0  0  0  0
  157.7470  212.4810  154.9500 C   0  0  2  0  0  3  0  0  0  0  0  0
  156.3240  212.6060  155.4910 C   0  0  1  0  0  3  0  0  0  0  0  0
  155.5410  213.3220  154.5850 O   0  0  0  0  0  1  0  0  0  0  0  0
  154.8440  211.4880  156.7020 C   0  0  0  0  0  1  0  0  0  0  0  0
  155.7690  211.3350  155.6680 O   0  0  0  0  0  0  0  0  0  0  0  0
  158.3960  213.7860  154.9310 N   0  0  0  0  0  2  0  0  0  0  0  0
  159.9510  213.4330  156.5710 C   0  0  0  0  0  1  0  0  0  0  0  0
  157.7540  213.5410  157.0350 O   0  0  0  0  0  1  0  0  0  0  0  0
  158.7060  214.1110  156.2590 N   0  0  0  0  0  0  0  0  0  0  0  0
  159.9110  201.4710  148.8950 N   0  0  0  0  0  1  0  0  0  0  0  0
  160.1470  201.5320  151.1990 O   0  0  0  0  0  0  0  0  0  0  0  0
  160.2740  202.1370  150.1010 C   0  0  0  0  0  0  0  0  0  0  0  0
  163.0890  210.4700  148.8560 C   0  0  0  0  0  1  0  0  0  0  0  0
  161.9370  209.6450  148.5190 N   0  0  0  0  0  0  0  0  0  0  0  0
  160.5520  212.9340  144.9730 C   0  0  0  0  0  0  0  0  0  0  0  0
  160.5300  212.5120  147.2140 C   0  0  0  0  0  0  0  0  0  0  0  0
  160.2530  214.4520  145.7130 S   0  0  0  0  0  0  0  0  0  0  0  0
  160.2860  213.8520  147.2950 C   0  0  0  0  0  0  0  0  0  0  0  0
  160.5580  211.6800  148.2820 C   0  0  0  0  0  0  0  0  0  0  0  0
  160.3350  212.2190  149.5600 C   0  0  0  0  0  3  0  0  0  0  0  0
  160.7630  210.2440  147.8750 C   0  0  1  0  0  3  0  0  0  0  0  0
  160.1040  213.6160  149.6830 C   0  0  0  0  0  0  0  0  0  0  0  0
  160.0660  214.4530  148.5360 C   0  0  0  0  0  3  0  0  0  0  0  0
  159.8740  214.2040  151.0270 C   0  0  0  0  0  1  0  0  0  0  0  0
  160.6830  211.9800  145.9840 C   0  0  0  0  0  0  0  0  0  0  0  0
  160.9470  210.2150  146.0140 S   0  0  0  0  0  0  0  0  0  0  0  0
  159.8980  211.5600  142.9410 C   0  0  0  0  0  3  0  0  0  0  0  0
  160.5610  212.6860  143.5610 N   0  0  0  0  0  0  0  0  0  0  0  0
  161.3040  212.5810  141.3540 C   0  0  2  0  0  3  0  0  0  0  0  0
  160.2760  211.5510  141.5280 N   0  0  0  0  0  0  0  0  0  0  0  0
  161.3900  213.4010  142.6260 C   0  0  0  0  0  2  0  0  0  0  0  0
  162.0360  213.2640  139.0280 C   0  0  0  0  0  1  0  0  0  0  0  0
  161.0100  213.4520  140.1360 C   0  0  0  0  0  2  0  0  0  0  0  0
  1 36  1  0  0  0  0
  1  3  1  0  0  0  0
  2  3  2  0  0  0  0
  2 12  1  0  0  0  0
  4  8  1  0  0  0  0
  4 10  2  0  0  0  0
  5  9  1  0  0  0  0
  5  7  2  0  0  0  0
  6  7  1  0  0  0  0
  6 14  1  1  0  0  0
  7  2  1  0  0  0  0
  8  5  1  0  0  0  0
  9  1  2  0  0  0  0
 10  6  1  0  0  0  0
 11 15  1  0  0  0  0
 12 11  2  0  0  0  0
 14 17  1  0  0  0  0
 15 18  2  0  0  0  0
 15 13  1  0  0  0  0
 16 18  1  0  0  0  0
 17 12  1  0  0  0  0
 17 16  2  0  0  0  0
 18 19  1  0  0  0  0
 21 16  1  0  0  0  0
 21 23  1  0  0  0  0
 21 20  1  1  0  0  0
 22 24  1  0  0  0  0
 22 23  2  0  0  0  0
 25 24  1  6  0  0  0
 25 26  1  0  0  0  0
 26 27  1  6  0  0  0
 26 29  1  0  0  0  0
 29 28  1  0  0  0  0
 30 25  1  0  0  0  0
 30 33  1  0  0  0  0
 33 31  1  0  0  0  0
 33 32  1  0  0  0  0
 34 36  1  0  0  0  0
 36 35  2  0  0  0  0
 38 10  1  0  0  0  0
 38 37  1  0  0  0  0
 39 41  1  0  0  0  0
 39 49  2  0  0  0  0
 40 42  2  0  0  0  0
 40 43  1  0  0  0  0
 41 42  1  0  0  0  0
 42 47  1  0  0  0  0
 43 44  2  0  0  0  0
 44 46  1  0  0  0  0
 45 43  1  0  0  0  0
 45 38  1  1  0  0  0
 46 48  1  0  0  0  0
 47 46  2  0  0  0  0
 49 50  1  0  0  0  0
 49 40  1  0  0  0  0
 50 45  1  0  0  0  0
 51 52  1  0  0  0  0
 52 39  1  0  0  0  0
 53 57  1  6  0  0  0
 53 54  1  0  0  0  0
 53 55  1  0  0  0  0
 54 51  2  0  0  0  0
 55 52  1  0  0  0  0
 56 57  1  0  0  0  0
M  END
>  <MODEL>
6

>  <REMARK>
 VINA RESULT:       2.4      5.066     10.048
  Name = 
  14 active torsions:
  status: ('A' for Active; 'I' for Inactive)
    1  A    between atoms: C_1  and  N_15
    2  A    between atoms: C_3  and  C_17
    3  A    between atoms: C_7  and  C_9
    4  A    between atoms: O_8  and  C_40
    5  A    between atoms: C_20  and  C_57
    6  A    between atoms: N_25  and  C_44
    7  A    between atoms: N_25  and  C_54
    8  A    between atoms: C_26  and  C_33
    9  A    between atoms: C_28  and  C_50
   10  A    between atoms: C_34  and  C_50
   11  A    between atoms: N_39  and  N_52
   12  A    between atoms: C_40  and  C_48
   13  A    between atoms: C_48  and  N_52
   14  A    between atoms: C_48  and  C_57
                            x       y       z     vdW  Elec       q    Type
                         _______ _______ _______ _____ _____    ______ ____

>  <TORSDO>
F 14

$$$$
=
 OpenBabel11052410193D

 57 63  0  0  1  0  0  0  0  0999 V2000
  162.2200  213.1380  145.7560 C   0  0  0  0  0  0  0  0  0  0  0  0
  160.5720  212.6300  147.4780 C   0  0  0  0  0  0  0  0  0  0  0  0
  161.0270  213.4360  146.4280 C   0  0  0  0  0  3  0  0  0  0  0  0
  163.1650  209.7080  149.0570 C   0  0  0  0  0  3  0  0  0  0  0  0
  162.5310  211.2120  147.1980 C   0  0  0  0  0  0  0  0  0  0  0  0
  160.8540  210.5780  148.9640 C   0  0  0  0  0  2  0  0  0  0  0  0
  161.3270  211.5040  147.8660 C   0  0  0  0  0  0  0  0  0  0  0  0
  163.3300  210.0080  147.5920 C   0  0  0  0  0  2  0  0  0  0  0  0
  162.9680  212.0210  146.1480 C   0  0  0  0  0  3  0  0  0  0  0  0
  162.0150  209.9510  149.7050 C   0  0  0  0  0  0  0  0  0  0  0  0
  158.1350  213.0170  147.4800 C   0  0  0  0  0  3  0  0  0  0  0  0
  159.3410  213.0240  148.1850 C   0  0  0  0  0  0  0  0  0  0  0  0
  155.8000  213.4400  147.3840 F   0  0  0  0  0  0  0  0  0  0  0  0
  160.6720  213.5420  150.2600 C   0  0  0  0  0  1  0  0  0  0  0  0
  156.9550  213.4290  148.0950 C   0  0  0  0  0  0  0  0  0  0  0  0
  158.1770  213.9000  150.1470 C   0  0  0  0  0  0  0  0  0  0  0  0
  159.3700  213.4680  149.5250 C   0  0  0  0  0  0  0  0  0  0  0  0
  156.9690  213.8750  149.4190 C   0  0  0  0  0  0  0  0  0  0  0  0
  155.8080  214.2920  149.9840 F   0  0  0  0  0  0  0  0  0  0  0  0
  159.6310  214.4530  152.1500 C   0  0  0  0  0  1  0  0  0  0  0  0
  158.2320  214.4500  151.5540 C   0  0  2  0  0  3  0  0  0  0  0  0
  157.5220  212.8380  153.3050 C   0  0  0  0  0  3  0  0  0  0  0  0
  157.2120  213.8220  152.4600 C   0  0  0  0  0  3  0  0  0  0  0  0
  156.4740  212.2300  154.1720 C   0  0  0  0  0  2  0  0  0  0  0  0
  156.8460  212.4180  155.6350 C   0  0  2  0  0  3  0  0  0  0  0  0
  158.3210  212.7910  155.7630 C   0  0  1  0  0  3  0  0  0  0  0  0
  158.4420  214.1720  155.9130 O   0  0  0  0  0  1  0  0  0  0  0  0
  160.2560  212.2300  156.6870 C   0  0  0  0  0  1  0  0  0  0  0  0
  158.8750  212.1610  156.8820 O   0  0  0  0  0  0  0  0  0  0  0  0
  156.5730  211.1840  156.3630 N   0  0  0  0  0  2  0  0  0  0  0  0
  154.4230  210.5670  156.8440 C   0  0  0  0  0  1  0  0  0  0  0  0
  155.0900  212.7100  156.9740 O   0  0  0  0  0  1  0  0  0  0  0  0
  155.5070  211.4490  157.2360 N   0  0  0  0  0  0  0  0  0  0  0  0
  161.7850  214.4210  143.6350 N   0  0  0  0  0  1  0  0  0  0  0  0
  163.8930  214.3560  144.5940 O   0  0  0  0  0  0  0  0  0  0  0  0
  162.6880  213.9950  144.6530 C   0  0  0  0  0  0  0  0  0  0  0  0
  161.0240  210.3830  151.9520 C   0  0  0  0  0  1  0  0  0  0  0  0
  161.8640  209.5690  151.0840 N   0  0  0  0  0  0  0  0  0  0  0  0
  160.6970  204.6750  151.1800 C   0  0  0  0  0  0  0  0  0  0  0  0
  161.0240  206.5250  152.4740 C   0  0  0  0  0  0  0  0  0  0  0  0
  159.9370  204.3170  152.6750 S   0  0  0  0  0  0  0  0  0  0  0  0
  160.3290  205.7970  153.3960 C   0  0  0  0  0  0  0  0  0  0  0  0
  161.5650  207.7430  152.7190 C   0  0  0  0  0  0  0  0  0  0  0  0
  161.3970  208.3070  153.9940 C   0  0  0  0  0  3  0  0  0  0  0  0
  162.3460  208.2610  151.5400 C   0  0  1  0  0  3  0  0  0  0  0  0
  160.6570  207.5880  154.9700 C   0  0  0  0  0  0  0  0  0  0  0  0
  160.1190  206.3060  154.6800 C   0  0  0  0  0  3  0  0  0  0  0  0
  160.4640  208.1740  156.3210 C   0  0  0  0  0  1  0  0  0  0  0  0
  161.2390  205.9600  151.2690 C   0  0  0  0  0  0  0  0  0  0  0  0
  162.1990  206.9920  150.1740 S   0  0  0  0  0  0  0  0  0  0  0  0
  160.7050  204.1660  148.6930 C   0  0  0  0  0  3  0  0  0  0  0  0
  160.8320  203.7680  150.0790 N   0  0  0  0  0  0  0  0  0  0  0  0
  160.7030  201.8150  148.8120 C   0  0  2  0  0  3  0  0  0  0  0  0
  160.7320  202.9480  147.8830 N   0  0  0  0  0  0  0  0  0  0  0  0
  160.9050  202.3370  150.2210 C   0  0  0  0  0  2  0  0  0  0  0  0
  161.5710  200.2520  147.0190 C   0  0  0  0  0  1  0  0  0  0  0  0
  161.7510  200.7700  148.4390 C   0  0  0  0  0  2  0  0  0  0  0  0
  1  9  2  0  0  0  0
  1  3  1  0  0  0  0
  2  7  1  0  0  0  0
  2 12  1  0  0  0  0
  3  2  2  0  0  0  0
  4 10  2  0  0  0  0
  5  8  1  0  0  0  0
  5  7  2  0  0  0  0
  6 10  1  0  0  0  0
  7  6  1  0  0  0  0
  8  4  1  0  0  0  0
  9  5  1  0  0  0  0
 10 38  1  0  0  0  0
 11 15  2  0  0  0  0
 11 12  1  0  0  0  0
 12 17  2  0  0  0  0
 13 15  1  0  0  0  0
 15 18  1  0  0  0  0
 16 21  1  0  0  0  0
 17 16  1  0  0  0  0
 17 14  1  0  0  0  0
 18 19  1  0  0  0  0
 18 16  2  0  0  0  0
 21 20  1  1  0  0  0
 21 23  1  0  0  0  0
 22 24  1  0  0  0  0
 23 22  2  0  0  0  0
 25 24  1  6  0  0  0
 25 26  1  0  0  0  0
 25 30  1  0  0  0  0
 26 27  1  1  0  0  0
 26 29  1  0  0  0  0
 28 29  1  0  0  0  0
 30 33  1  0  0  0  0
 31 33  1  0  0  0  0
 32 33  1  0  0  0  0
 34 36  1  0  0  0  0
 35 36  2  0  0  0  0
 36  1  1  0  0  0  0
 38 37  1  0  0  0  0
 39 49  2  0  0  0  0
 39 41  1  0  0  0  0
 40 43  2  0  0  0  0
 40 42  1  0  0  0  0
 41 42  1  0  0  0  0
 42 47  2  0  0  0  0
 43 44  1  0  0  0  0
 44 46  2  0  0  0  0
 45 38  1  6  0  0  0
 45 43  1  0  0  0  0
 46 48  1  0  0  0  0
 47 46  1  0  0  0  0
 49 40  1  0  0  0  0
 50 49  1  0  0  0  0
 50 45  1  0  0  0  0
 51 52  1  0  0  0  0
 52 55  1  0  0  0  0
 52 39  1  0  0  0  0
 53 57  1  6  0  0  0
 53 55  1  0  0  0  0
 54 51  2  0  0  0  0
 54 53  1  0  0  0  0
 56 57  1  0  0  0  0
M  END
>  <MODEL>
7

>  <REMARK>
 VINA RESULT:       2.6      5.181     11.324
  Name = 
  14 active torsions:
  status: ('A' for Active; 'I' for Inactive)
    1  A    between atoms: C_1  and  N_15
    2  A    between atoms: C_3  and  C_17
    3  A    between atoms: C_7  and  C_9
    4  A    between atoms: O_8  and  C_40
    5  A    between atoms: C_20  and  C_57
    6  A    between atoms: N_25  and  C_44
    7  A    between atoms: N_25  and  C_54
    8  A    between atoms: C_26  and  C_33
    9  A    between atoms: C_28  and  C_50
   10  A    between atoms: C_34  and  C_50
   11  A    between atoms: N_39  and  N_52
   12  A    between atoms: C_40  and  C_48
   13  A    between atoms: C_48  and  N_52
   14  A    between atoms: C_48  and  C_57
                            x       y       z     vdW  Elec       q    Type
                         _______ _______ _______ _____ _____    ______ ____

>  <TORSDO>
F 14

$$$$
=
 OpenBabel11052410193D

 57 63  0  0  1  0  0  0  0  0999 V2000
  161.3370  204.6910  151.2070 C   0  0  0  0  0  0  0  0  0  0  0  0
  161.5820  207.0370  151.8210 C   0  0  0  0  0  0  0  0  0  0  0  0
  161.3310  205.7050  152.1740 C   0  0  0  0  0  3  0  0  0  0  0  0
  161.6690  208.0680  147.7370 C   0  0  0  0  0  3  0  0  0  0  0  0
  161.8380  206.3430  149.5020 C   0  0  0  0  0  0  0  0  0  0  0  0
  162.1620  208.7770  150.0510 C   0  0  0  0  0  2  0  0  0  0  0  0
  161.8420  207.3610  150.4740 C   0  0  0  0  0  0  0  0  0  0  0  0
  162.1300  206.6750  148.0710 C   0  0  0  0  0  2  0  0  0  0  0  0
  161.5930  205.0190  149.8700 C   0  0  0  0  0  3  0  0  0  0  0  0
  161.6930  209.0590  148.6410 C   0  0  0  0  0  0  0  0  0  0  0  0
  161.9320  209.3630  152.5660 C   0  0  0  0  0  3  0  0  0  0  0  0
  161.5050  208.0680  152.8700 C   0  0  0  0  0  0  0  0  0  0  0  0
  162.3670  211.6010  153.2310 F   0  0  0  0  0  0  0  0  0  0  0  0
  160.6850  206.3560  154.5260 C   0  0  0  0  0  1  0  0  0  0  0  0
  161.9230  210.3580  153.5420 C   0  0  0  0  0  0  0  0  0  0  0  0
  161.0790  208.7620  155.1750 C   0  0  0  0  0  0  0  0  0  0  0  0
  161.0770  207.7590  154.1790 C   0  0  0  0  0  0  0  0  0  0  0  0
  161.5060  210.0640  154.8420 C   0  0  0  0  0  0  0  0  0  0  0  0
  161.5300  211.0480  155.7760 F   0  0  0  0  0  0  0  0  0  0  0  0
  160.2780  206.9480  156.7560 C   0  0  0  0  0  1  0  0  0  0  0  0
  160.6980  208.4010  156.5920 C   0  0  2  0  0  3  0  0  0  0  0  0
  159.3140  210.4630  156.5460 C   0  0  0  0  0  3  0  0  0  0  0  0
  159.7130  209.3640  157.1880 C   0  0  0  0  0  3  0  0  0  0  0  0
  158.3490  211.4010  157.1830 C   0  0  0  0  0  2  0  0  0  0  0  0
  157.6960  212.2690  156.1180 C   0  0  2  0  0  3  0  0  0  0  0  0
  156.2210  211.9060  155.9700 C   0  0  1  0  0  3  0  0  0  0  0  0
  155.9330  210.7870  156.7520 O   0  0  0  0  0  1  0  0  0  0  0  0
  155.7320  214.0200  155.5200 C   0  0  0  0  0  1  0  0  0  0  0  0
  155.4240  212.9750  156.3930 O   0  0  0  0  0  0  0  0  0  0  0  0
  158.3920  212.0810  154.8510 N   0  0  0  0  0  2  0  0  0  0  0  0
  158.5410  213.2650  152.8990 C   0  0  0  0  0  1  0  0  0  0  0  0
  159.9810  213.6000  154.5930 O   0  0  0  0  0  1  0  0  0  0  0  0
  158.6720  213.3570  154.3410 N   0  0  0  0  0  0  0  0  0  0  0  0
  160.9370  202.2830  150.5970 N   0  0  0  0  0  1  0  0  0  0  0  0
  160.9530  202.9800  152.8060 O   0  0  0  0  0  0  0  0  0  0  0  0
  161.0710  203.2940  151.5920 C   0  0  0  0  0  0  0  0  0  0  0  0
  162.1990  211.5010  148.6430 C   0  0  0  0  0  1  0  0  0  0  0  0
  161.3280  210.3980  148.2600 N   0  0  0  0  0  0  0  0  0  0  0  0
  160.0250  213.0740  144.2040 C   0  0  0  0  0  0  0  0  0  0  0  0
  159.5580  212.7070  146.4050 C   0  0  0  0  0  0  0  0  0  0  0  0
  159.1410  214.4530  144.7120 S   0  0  0  0  0  0  0  0  0  0  0  0
  158.9400  213.9190  146.3040 C   0  0  0  0  0  0  0  0  0  0  0  0
  159.5450  211.9390  147.5220 C   0  0  0  0  0  0  0  0  0  0  0  0
  158.8670  212.4140  148.6560 C   0  0  0  0  0  3  0  0  0  0  0  0
  160.2360  210.6180  147.3060 C   0  0  1  0  0  3  0  0  0  0  0  0
  158.2350  213.6850  148.5940 C   0  0  0  0  0  0  0  0  0  0  0  0
  158.2560  214.4530  147.3990 C   0  0  0  0  0  3  0  0  0  0  0  0
  157.5200  214.2060  149.7870 C   0  0  0  0  0  1  0  0  0  0  0  0
  160.1570  212.2190  145.3000 C   0  0  0  0  0  0  0  0  0  0  0  0
  160.8840  210.6080  145.5510 S   0  0  0  0  0  0  0  0  0  0  0  0
  159.6350  213.0440  141.6960 C   0  0  0  0  0  3  0  0  0  0  0  0
  160.4590  212.8130  142.8630 N   0  0  0  0  0  0  0  0  0  0  0  0
  161.5250  211.7940  141.0570 C   0  0  2  0  0  3  0  0  0  0  0  0
  160.3500  212.5010  140.5410 N   0  0  0  0  0  0  0  0  0  0  0  0
  161.6700  212.1090  142.5330 C   0  0  0  0  0  2  0  0  0  0  0  0
  162.4940  213.1720  139.1670 C   0  0  0  0  0  1  0  0  0  0  0  0
  162.7800  212.1650  140.2720 C   0  0  0  0  0  2  0  0  0  0  0  0
  1 36  1  0  0  0  0
  1  3  1  0  0  0  0
  2  3  2  0  0  0  0
  2 12  1  0  0  0  0
  4  8  1  0  0  0  0
  4 10  2  0  0  0  0
  5  9  1  0  0  0  0
  5  7  2  0  0  0  0
  6  7  1  0  0  0  0
  7  2  1  0  0  0  0
  8  5  1  0  0  0  0
  9  1  2  0  0  0  0
 10  6  1  0  0  0  0
 11 12  2  0  0  0  0
 11 15  1  0  0  0  0
 12 17  1  0  0  0  0
 13 15  1  0  0  0  0
 15 18  2  0  0  0  0
 16 21  1  0  0  0  0
 17 14  1  0  0  0  0
 17 16  2  0  0  0  0
 18 16  1  0  0  0  0
 18 19  1  0  0  0  0
 21 20  1  6  0  0  0
 21 23  1  0  0  0  0
 22 24  1  0  0  0  0
 22 23  2  0  0  0  0
 25 24  1  1  0  0  0
 26 25  1  0  0  0  0
 26 29  1  0  0  0  0
 26 27  1  1  0  0  0
 28 29  1  0  0  0  0
 30 25  1  0  0  0  0
 31 33  1  0  0  0  0
 33 32  1  0  0  0  0
 33 30  1  0  0  0  0
 34 36  1  0  0  0  0
 36 35  2  0  0  0  0
 38 10  1  0  0  0  0
 38 37  1  0  0  0  0
 39 41  1  0  0  0  0
 39 49  2  0  0  0  0
 40 43  1  0  0  0  0
 41 42  1  0  0  0  0
 42 40  2  0  0  0  0
 42 47  1  0  0  0  0
 43 44  2  0  0  0  0
 45 43  1  0  0  0  0
 45 38  1  1  0  0  0
 46 44  1  0  0  0  0
 46 48  1  0  0  0  0
 47 46  2  0  0  0  0
 49 50  1  0  0  0  0
 49 40  1  0  0  0  0
 50 45  1  0  0  0  0
 51 52  1  0  0  0  0
 52 39  1  0  0  0  0
 53 57  1  6  0  0  0
 53 55  1  0  0  0  0
 54 53  1  0  0  0  0
 54 51  2  0  0  0  0
 55 52  1  0  0  0  0
 56 57  1  0  0  0  0
M  END
>  <MODEL>
8

>  <REMARK>
 VINA RESULT:       2.8      5.099     10.580
  Name = 
  14 active torsions:
  status: ('A' for Active; 'I' for Inactive)
    1  A    between atoms: C_1  and  N_15
    2  A    between atoms: C_3  and  C_17
    3  A    between atoms: C_7  and  C_9
    4  A    between atoms: O_8  and  C_40
    5  A    between atoms: C_20  and  C_57
    6  A    between atoms: N_25  and  C_44
    7  A    between atoms: N_25  and  C_54
    8  A    between atoms: C_26  and  C_33
    9  A    between atoms: C_28  and  C_50
   10  A    between atoms: C_34  and  C_50
   11  A    between atoms: N_39  and  N_52
   12  A    between atoms: C_40  and  C_48
   13  A    between atoms: C_48  and  N_52
   14  A    between atoms: C_48  and  C_57
                            x       y       z     vdW  Elec       q    Type
                         _______ _______ _______ _____ _____    ______ ____

>  <TORSDO>
F 14

$$$$
