=
 OpenBabel11042421333D

 27 29  0  0  1  0  0  0  0  0999 V2000
  160.8650  208.7530  156.5760 O   0  0  0  0  0  0  0  0  0  0  0  0
  160.5890  209.7940  153.4080 C   0  0  1  0  0  3  0  0  0  0  0  0
  158.8610  211.1410  154.8060 C   0  0  0  0  0  0  0  0  0  0  0  0
  158.7650  211.0540  152.4510 O   0  0  0  0  0  0  0  0  0  0  0  0
  161.7650  210.9390  157.2610 O   0  0  0  0  0  0  0  0  0  0  0  0
  161.0060  210.1990  156.1950 S   0  0  0  0  0  0  0  0  0  0  0  0
  162.0260  210.3770  154.3780 S   0  0  0  0  0  0  0  0  0  0  0  0
  157.5720  211.8540  155.0710 C   0  0  1  0  0  3  0  0  0  0  0  0
  159.4370  210.9350  155.9750 C   0  0  0  0  0  0  0  0  0  0  0  0
  159.3820  210.7100  153.4940 C   0  0  0  0  0  0  0  0  0  0  0  0
  157.5900  211.9690  156.5270 N   0  0  0  0  0  0  0  0  0  0  0  0
  158.6410  211.4550  157.0230 N   0  0  0  0  0  0  0  0  0  0  0  0
  157.5940  213.1950  154.4750 C   0  0  0  0  0  0  0  0  0  0  0  0
  157.6120  214.2520  154.0050 N   0  0  0  0  0  0  0  0  0  0  0  0
  160.9990  209.3260  151.9960 C   0  0  1  0  0  3  0  0  0  0  0  0
  161.8190  210.4420  151.3540 C   0  0  0  0  0  1  0  0  0  0  0  0
  161.7720  206.0480  150.6530 C   0  0  1  0  0  3  0  0  0  0  0  0
  161.8310  207.5610  150.6150 C   0  0  0  0  0  2  0  0  0  0  0  0
  161.7400  208.0510  151.9890 N   0  0  0  0  0  0  0  0  0  0  0  0
  161.2650  205.6980  152.0300 C   0  0  0  0  0  2  0  0  0  0  0  0
  160.9650  207.0280  152.6830 C   0  0  0  0  0  2  0  0  0  0  0  0
  160.8520  205.5300  149.5970 C   0  0  0  0  0  0  0  0  0  0  0  0
  160.1460  206.3510  148.9530 O   0  0  0  0  0  0  0  0  0  0  0  0
  161.9830  204.1870  147.2760 N   0  0  0  0  0  1  0  0  0  0  0  0
  161.2830  203.4940  148.3070 C   0  0  0  0  0  0  0  0  0  0  0  0
  160.7870  204.1170  149.3340 N   0  0  0  0  0  0  0  0  0  0  0  0
  161.1250  202.0840  148.2070 N   0  0  0  0  0  1  0  0  0  0  0  0
  2 15  1  6  0  0  0
  2 10  1  0  0  0  0
  2  7  1  0  0  0  0
  3  8  1  0  0  0  0
  3  9  2  0  0  0  0
  4 10  2  0  0  0  0
  6  1  2  0  0  0  0
  6  5  2  0  0  0  0
  7  6  1  0  0  0  0
  8 13  1  6  0  0  0
  8 11  1  0  0  0  0
  9  6  1  0  0  0  0
  9 12  1  0  0  0  0
 10  3  1  0  0  0  0
 11 12  2  0  0  0  0
 14 13  3  0  0  0  0
 15 16  1  1  0  0  0
 17 22  1  6  0  0  0
 17 20  1  0  0  0  0
 18 17  1  0  0  0  0
 18 19  1  0  0  0  0
 19 15  1  0  0  0  0
 19 21  1  0  0  0  0
 20 21  1  0  0  0  0
 23 22  2  0  0  0  0
 24 25  1  0  0  0  0
 25 26  2  0  0  0  0
 26 22  1  0  0  0  0
 27 25  1  0  0  0  0
M  END
>  <MODEL>
1

>  <REMARK>
 VINA RESULT:      -6.6      0.000      0.000
  Name = 
  5 active torsions:
  status: ('A' for Active; 'I' for Inactive)
    1  A    between atoms: C_2  and  C_6
    2  A    between atoms: C_5  and  C_9
    3  A    between atoms: C_6  and  N_19
    4  A    between atoms: N_7  and  C_9
    5  A    between atoms: C_8  and  C_17
                            x       y       z     vdW  Elec       q    Type
                         _______ _______ _______ _____ _____    ______ ____

>  <TORSDO>
F 5

$$$$
=
 OpenBabel11042421333D

 27 29  0  0  1  0  0  0  0  0999 V2000
  159.2060  210.4030  152.7020 O   0  0  0  0  0  0  0  0  0  0  0  0
  161.5790  209.6110  150.4800 C   0  0  1  0  0  3  0  0  0  0  0  0
  160.8400  212.0500  149.9700 C   0  0  0  0  0  0  0  0  0  0  0  0
  162.0860  210.7730  148.4250 O   0  0  0  0  0  0  0  0  0  0  0  0
  160.6980  212.0410  153.7750 O   0  0  0  0  0  0  0  0  0  0  0  0
  160.4520  211.2260  152.5360 S   0  0  0  0  0  0  0  0  0  0  0  0
  162.1020  209.9880  152.1920 S   0  0  0  0  0  0  0  0  0  0  0  0
  160.5410  213.2370  149.1100 C   0  0  1  0  0  3  0  0  0  0  0  0
  160.3110  212.2860  151.1540 C   0  0  0  0  0  0  0  0  0  0  0  0
  161.5570  210.8220  149.5680 C   0  0  0  0  0  0  0  0  0  0  0  0
  159.7930  214.0900  150.0310 N   0  0  0  0  0  0  0  0  0  0  0  0
  159.6730  213.5480  151.1740 N   0  0  0  0  0  0  0  0  0  0  0  0
  161.7830  213.9150  148.7190 C   0  0  0  0  0  0  0  0  0  0  0  0
  162.7620  214.4490  148.4110 N   0  0  0  0  0  0  0  0  0  0  0  0
  162.2750  208.3480  149.9310 C   0  0  1  0  0  3  0  0  0  0  0  0
  162.5960  207.4400  151.1140 C   0  0  0  0  0  1  0  0  0  0  0  0
  160.7660  205.3690  148.5180 C   0  0  1  0  0  3  0  0  0  0  0  0
  160.8260  206.4870  149.5380 C   0  0  0  0  0  2  0  0  0  0  0  0
  161.4830  207.6340  148.9120 N   0  0  0  0  0  0  0  0  0  0  0  0
  161.7350  205.7620  147.4300 C   0  0  0  0  0  2  0  0  0  0  0  0
  162.3760  207.0390  147.9230 C   0  0  0  0  0  2  0  0  0  0  0  0
  161.1580  204.0690  149.1390 C   0  0  0  0  0  0  0  0  0  0  0  0
  161.2580  204.0010  150.3930 O   0  0  0  0  0  0  0  0  0  0  0  0
  159.7410  201.5300  149.2680 N   0  0  0  0  0  1  0  0  0  0  0  0
  160.7960  201.7820  148.3420 C   0  0  0  0  0  0  0  0  0  0  0  0
  161.4140  202.9250  148.3040 N   0  0  0  0  0  0  0  0  0  0  0  0
  161.1800  200.7540  147.4370 N   0  0  0  0  0  1  0  0  0  0  0  0
  2 15  1  6  0  0  0
  2  7  1  0  0  0  0
  3  9  2  0  0  0  0
  4 10  2  0  0  0  0
  6  1  2  0  0  0  0
  6  5  2  0  0  0  0
  7  6  1  0  0  0  0
  8 13  1  1  0  0  0
  8  3  1  0  0  0  0
  8 11  1  0  0  0  0
  9 12  1  0  0  0  0
  9  6  1  0  0  0  0
 10  3  1  0  0  0  0
 10  2  1  0  0  0  0
 11 12  2  0  0  0  0
 14 13  3  0  0  0  0
 15 16  1  1  0  0  0
 17 22  1  1  0  0  0
 17 18  1  0  0  0  0
 19 18  1  0  0  0  0
 19 15  1  0  0  0  0
 20 21  1  0  0  0  0
 20 17  1  0  0  0  0
 21 19  1  0  0  0  0
 22 23  2  0  0  0  0
 25 24  1  0  0  0  0
 26 25  2  0  0  0  0
 26 22  1  0  0  0  0
 27 25  1  0  0  0  0
M  END
>  <MODEL>
2

>  <REMARK>
 VINA RESULT:      -6.2      3.278      4.429
  Name = 
  5 active torsions:
  status: ('A' for Active; 'I' for Inactive)
    1  A    between atoms: C_2  and  C_6
    2  A    between atoms: C_5  and  C_9
    3  A    between atoms: C_6  and  N_19
    4  A    between atoms: N_7  and  C_9
    5  A    between atoms: C_8  and  C_17
                            x       y       z     vdW  Elec       q    Type
                         _______ _______ _______ _____ _____    ______ ____

>  <TORSDO>
F 5

$$$$
=
 OpenBabel11042421333D

 27 29  0  0  1  0  0  0  0  0999 V2000
  162.0060  203.8280  151.3690 O   0  0  0  0  0  0  0  0  0  0  0  0
  161.7460  205.4030  148.4290 C   0  0  1  0  0  3  0  0  0  0  0  0
  161.4750  202.8620  147.9580 C   0  0  0  0  0  0  0  0  0  0  0  0
  161.9120  204.4110  146.2340 O   0  0  0  0  0  0  0  0  0  0  0  0
  159.6350  203.1750  151.2770 O   0  0  0  0  0  0  0  0  0  0  0  0
  160.8100  203.6600  150.4760 S   0  0  0  0  0  0  0  0  0  0  0  0
  160.3180  205.4780  149.5690 S   0  0  0  0  0  0  0  0  0  0  0  0
  161.6120  201.5930  147.1770 C   0  0  1  0  0  3  0  0  0  0  0  0
  161.1540  202.5250  149.1930 C   0  0  0  0  0  0  0  0  0  0  0  0
  161.6950  204.2360  147.4620 C   0  0  0  0  0  0  0  0  0  0  0  0
  161.3160  200.5860  148.1940 N   0  0  0  0  0  0  0  0  0  0  0  0
  161.0570  201.1200  149.3180 N   0  0  0  0  0  0  0  0  0  0  0  0
  160.5980  201.5290  146.1180 C   0  0  0  0  0  0  0  0  0  0  0  0
  159.7990  201.4770  145.2820 N   0  0  0  0  0  0  0  0  0  0  0  0
  162.0720  206.7850  147.8230 C   0  0  1  0  0  3  0  0  0  0  0  0
  160.7740  207.3730  147.2760 C   0  0  0  0  0  1  0  0  0  0  0  0
  162.3470  208.4290  151.0430 C   0  0  1  0  0  3  0  0  0  0  0  0
  162.4890  207.2250  150.1360 C   0  0  0  0  0  2  0  0  0  0  0  0
  162.7150  207.7100  148.7750 N   0  0  0  0  0  0  0  0  0  0  0  0
  162.1140  209.6030  150.1230 C   0  0  0  0  0  2  0  0  0  0  0  0
  162.0380  209.0020  148.7390 C   0  0  0  0  0  2  0  0  0  0  0  0
  161.1980  208.2490  151.9800 C   0  0  0  0  0  0  0  0  0  0  0  0
  160.9900  207.1070  152.4720 O   0  0  0  0  0  0  0  0  0  0  0  0
  161.5380  210.0180  154.2660 N   0  0  0  0  0  1  0  0  0  0  0  0
  160.4850  210.1730  153.3170 C   0  0  0  0  0  0  0  0  0  0  0  0
  160.3540  209.3690  152.3040 N   0  0  0  0  0  0  0  0  0  0  0  0
  159.5550  211.2350  153.4840 N   0  0  0  0  0  1  0  0  0  0  0  0
  2 15  1  6  0  0  0
  2  7  1  0  0  0  0
  3  9  2  0  0  0  0
  4 10  2  0  0  0  0
  6  5  2  0  0  0  0
  6  1  2  0  0  0  0
  7  6  1  0  0  0  0
  8 13  1  6  0  0  0
  8  3  1  0  0  0  0
  8 11  1  0  0  0  0
  9 12  1  0  0  0  0
  9  6  1  0  0  0  0
 10  3  1  0  0  0  0
 10  2  1  0  0  0  0
 11 12  2  0  0  0  0
 14 13  3  0  0  0  0
 15 16  1  1  0  0  0
 15 19  1  0  0  0  0
 17 22  1  1  0  0  0
 18 17  1  0  0  0  0
 19 18  1  0  0  0  0
 20 17  1  0  0  0  0
 21 19  1  0  0  0  0
 21 20  1  0  0  0  0
 22 26  1  0  0  0  0
 22 23  2  0  0  0  0
 25 27  1  0  0  0  0
 25 24  1  0  0  0  0
 26 25  2  0  0  0  0
M  END
>  <MODEL>
3

>  <REMARK>
 VINA RESULT:      -6.1      3.576      9.051
  Name = 
  5 active torsions:
  status: ('A' for Active; 'I' for Inactive)
    1  A    between atoms: C_2  and  C_6
    2  A    between atoms: C_5  and  C_9
    3  A    between atoms: C_6  and  N_19
    4  A    between atoms: N_7  and  C_9
    5  A    between atoms: C_8  and  C_17
                            x       y       z     vdW  Elec       q    Type
                         _______ _______ _______ _____ _____    ______ ____

>  <TORSDO>
F 5

$$$$
=
 OpenBabel11042421333D

 27 29  0  0  1  0  0  0  0  0999 V2000
  161.7680  201.7650  150.0960 O   0  0  0  0  0  0  0  0  0  0  0  0
  161.7570  205.1110  150.1210 C   0  0  1  0  0  3  0  0  0  0  0  0
  161.5790  204.3670  147.6380 C   0  0  0  0  0  0  0  0  0  0  0  0
  162.1490  206.5760  148.2420 O   0  0  0  0  0  0  0  0  0  0  0  0
  159.4280  201.7220  149.3320 O   0  0  0  0  0  0  0  0  0  0  0  0
  160.6650  202.5660  149.4630 S   0  0  0  0  0  0  0  0  0  0  0  0
  160.2260  204.2470  150.6270 S   0  0  0  0  0  0  0  0  0  0  0  0
  161.8130  204.4580  146.1620 C   0  0  1  0  0  3  0  0  0  0  0  0
  161.1490  203.1460  147.8880 C   0  0  0  0  0  0  0  0  0  0  0  0
  161.8190  205.4260  148.6390 C   0  0  0  0  0  0  0  0  0  0  0  0
  161.4400  203.1150  145.7200 N   0  0  0  0  0  0  0  0  0  0  0  0
  161.0670  202.3910  146.6950 N   0  0  0  0  0  0  0  0  0  0  0  0
  160.9050  205.4390  145.5570 C   0  0  0  0  0  0  0  0  0  0  0  0
  160.1890  206.2130  145.0790 N   0  0  0  0  0  0  0  0  0  0  0  0
  162.1140  206.2620  151.0850 C   0  0  1  0  0  3  0  0  0  0  0  0
  162.3320  207.5200  150.2500 C   0  0  0  0  0  1  0  0  0  0  0  0
  160.4650  208.2920  153.5980 C   0  0  1  0  0  3  0  0  0  0  0  0
  160.7550  207.9090  152.1610 C   0  0  0  0  0  2  0  0  0  0  0  0
  161.1010  206.4890  152.1330 N   0  0  0  0  0  0  0  0  0  0  0  0
  161.0210  207.1660  154.4350 C   0  0  0  0  0  2  0  0  0  0  0  0
  161.6870  206.2380  153.4460 C   0  0  0  0  0  2  0  0  0  0  0  0
  161.1240  209.5880  153.9400 C   0  0  0  0  0  0  0  0  0  0  0  0
  161.7940  209.6650  155.0040 O   0  0  0  0  0  0  0  0  0  0  0  0
  158.8660  211.4230  153.8880 N   0  0  0  0  0  1  0  0  0  0  0  0
  159.9870  211.5500  153.0160 C   0  0  0  0  0  0  0  0  0  0  0  0
  160.9830  210.7170  153.0590 N   0  0  0  0  0  0  0  0  0  0  0  0
  160.0140  212.6180  152.0770 N   0  0  0  0  0  1  0  0  0  0  0  0
  2  7  1  0  0  0  0
  2 15  1  1  0  0  0
  3  9  2  0  0  0  0
  3 10  1  0  0  0  0
  4 10  2  0  0  0  0
  5  6  2  0  0  0  0
  6  1  2  0  0  0  0
  6  7  1  0  0  0  0
  8 13  1  6  0  0  0
  8  3  1  0  0  0  0
  9  6  1  0  0  0  0
 10  2  1  0  0  0  0
 11  8  1  0  0  0  0
 11 12  2  0  0  0  0
 12  9  1  0  0  0  0
 14 13  3  0  0  0  0
 15 16  1  6  0  0  0
 15 19  1  0  0  0  0
 17 22  1  1  0  0  0
 17 20  1  0  0  0  0
 18 17  1  0  0  0  0
 19 18  1  0  0  0  0
 19 21  1  0  0  0  0
 21 20  1  0  0  0  0
 22 23  2  0  0  0  0
 25 26  2  0  0  0  0
 25 24  1  0  0  0  0
 26 22  1  0  0  0  0
 27 25  1  0  0  0  0
M  END
>  <MODEL>
4

>  <REMARK>
 VINA RESULT:      -6.1      3.230      8.933
  Name = 
  5 active torsions:
  status: ('A' for Active; 'I' for Inactive)
    1  A    between atoms: C_2  and  C_6
    2  A    between atoms: C_5  and  C_9
    3  A    between atoms: C_6  and  N_19
    4  A    between atoms: N_7  and  C_9
    5  A    between atoms: C_8  and  C_17
                            x       y       z     vdW  Elec       q    Type
                         _______ _______ _______ _____ _____    ______ ____

>  <TORSDO>
F 5

$$$$
=
 OpenBabel11042421333D

 27 29  0  0  1  0  0  0  0  0999 V2000
  161.6870  201.6290  150.0840 O   0  0  0  0  0  0  0  0  0  0  0  0
  161.7840  204.9730  150.1530 C   0  0  1  0  0  3  0  0  0  0  0  0
  161.5360  204.2700  147.6640 C   0  0  0  0  0  0  0  0  0  0  0  0
  162.1870  206.4500  148.2850 O   0  0  0  0  0  0  0  0  0  0  0  0
  159.3330  201.6710  149.3640 O   0  0  0  0  0  0  0  0  0  0  0  0
  160.5980  202.4730  149.4830 S   0  0  0  0  0  0  0  0  0  0  0  0
  160.2360  204.1510  150.6770 S   0  0  0  0  0  0  0  0  0  0  0  0
  161.7440  204.3720  146.1850 C   0  0  1  0  0  3  0  0  0  0  0  0
  161.0710  203.0590  147.9070 C   0  0  0  0  0  0  0  0  0  0  0  0
  161.8280  205.3060  148.6740 C   0  0  0  0  0  0  0  0  0  0  0  0
  161.3200  203.0490  145.7330 N   0  0  0  0  0  0  0  0  0  0  0  0
  160.9420  202.3230  146.7060 N   0  0  0  0  0  0  0  0  0  0  0  0
  160.8570  205.3910  145.6100 C   0  0  0  0  0  0  0  0  0  0  0  0
  160.1580  206.1940  145.1580 N   0  0  0  0  0  0  0  0  0  0  0  0
  162.1950  206.0990  151.1250 C   0  0  1  0  0  3  0  0  0  0  0  0
  162.7590  207.2490  150.2960 C   0  0  0  0  0  1  0  0  0  0  0  0
  160.4620  208.6110  153.0820 C   0  0  1  0  0  3  0  0  0  0  0  0
  160.8750  207.9860  151.7660 C   0  0  0  0  0  2  0  0  0  0  0  0
  161.0960  206.5590  151.9940 N   0  0  0  0  0  0  0  0  0  0  0  0
  160.8190  207.5970  154.1410 C   0  0  0  0  0  2  0  0  0  0  0  0
  161.5080  206.4800  153.3920 C   0  0  0  0  0  2  0  0  0  0  0  0
  161.1890  209.8960  153.3060 C   0  0  0  0  0  0  0  0  0  0  0  0
  162.2240  210.1340  152.6260 O   0  0  0  0  0  0  0  0  0  0  0  0
  162.4440  210.4720  155.8680 N   0  0  0  0  0  1  0  0  0  0  0  0
  161.2440  211.1090  155.4330 C   0  0  0  0  0  0  0  0  0  0  0  0
  160.7040  210.8340  154.2830 N   0  0  0  0  0  0  0  0  0  0  0  0
  160.6270  212.0700  156.2790 N   0  0  0  0  0  1  0  0  0  0  0  0
  2  7  1  0  0  0  0
  2 15  1  1  0  0  0
  3  9  2  0  0  0  0
  3 10  1  0  0  0  0
  4 10  2  0  0  0  0
  5  6  2  0  0  0  0
  6  1  2  0  0  0  0
  6  7  1  0  0  0  0
  8 13  1  6  0  0  0
  8  3  1  0  0  0  0
  9  6  1  0  0  0  0
 10  2  1  0  0  0  0
 11  8  1  0  0  0  0
 11 12  2  0  0  0  0
 12  9  1  0  0  0  0
 14 13  3  0  0  0  0
 15 16  1  6  0  0  0
 15 19  1  0  0  0  0
 17 22  1  1  0  0  0
 17 20  1  0  0  0  0
 18 19  1  0  0  0  0
 18 17  1  0  0  0  0
 19 21  1  0  0  0  0
 21 20  1  0  0  0  0
 22 26  1  0  0  0  0
 23 22  2  0  0  0  0
 25 24  1  0  0  0  0
 25 27  1  0  0  0  0
 26 25  2  0  0  0  0
M  END
>  <MODEL>
5

>  <REMARK>
 VINA RESULT:      -6.0      3.325      9.068
  Name = 
  5 active torsions:
  status: ('A' for Active; 'I' for Inactive)
    1  A    between atoms: C_2  and  C_6
    2  A    between atoms: C_5  and  C_9
    3  A    between atoms: C_6  and  N_19
    4  A    between atoms: N_7  and  C_9
    5  A    between atoms: C_8  and  C_17
                            x       y       z     vdW  Elec       q    Type
                         _______ _______ _______ _____ _____    ______ ____

>  <TORSDO>
F 5

$$$$
=
 OpenBabel11042421333D

 27 29  0  0  1  0  0  0  0  0999 V2000
  160.4530  206.8520  147.5230 O   0  0  0  0  0  0  0  0  0  0  0  0
  161.5840  207.1620  150.6570 C   0  0  1  0  0  3  0  0  0  0  0  0
  161.0330  204.6490  150.2910 C   0  0  0  0  0  0  0  0  0  0  0  0
  161.3570  205.5550  152.4450 O   0  0  0  0  0  0  0  0  0  0  0  0
  162.4570  205.5730  146.8820 O   0  0  0  0  0  0  0  0  0  0  0  0
  161.6210  206.0560  148.0340 S   0  0  0  0  0  0  0  0  0  0  0  0
  162.8050  207.2280  149.2970 S   0  0  0  0  0  0  0  0  0  0  0  0
  160.5700  203.2790  150.6770 C   0  0  1  0  0  3  0  0  0  0  0  0
  161.0700  204.6890  148.9730 C   0  0  0  0  0  0  0  0  0  0  0  0
  161.3520  205.7660  151.2030 C   0  0  0  0  0  0  0  0  0  0  0  0
  160.3830  202.6510  149.3710 N   0  0  0  0  0  0  0  0  0  0  0  0
  160.6700  203.4490  148.4240 N   0  0  0  0  0  0  0  0  0  0  0  0
  161.6220  202.5690  151.4140 C   0  0  0  0  0  0  0  0  0  0  0  0
  162.4500  202.0090  151.9960 N   0  0  0  0  0  0  0  0  0  0  0  0
  161.8200  208.2780  151.6970 C   0  0  1  0  0  3  0  0  0  0  0  0
  162.1860  209.5520  150.9410 C   0  0  0  0  0  1  0  0  0  0  0  0
  159.5960  210.3930  153.6290 C   0  0  1  0  0  3  0  0  0  0  0  0
  160.1070  209.8240  152.3210 C   0  0  0  0  0  2  0  0  0  0  0  0
  160.6700  208.5030  152.5920 N   0  0  0  0  0  0  0  0  0  0  0  0
  160.2180  209.5420  154.7090 C   0  0  0  0  0  2  0  0  0  0  0  0
  161.1310  208.5880  153.9740 C   0  0  0  0  0  2  0  0  0  0  0  0
  160.0020  211.8230  153.7740 C   0  0  0  0  0  0  0  0  0  0  0  0
  160.2530  212.2670  154.9260 O   0  0  0  0  0  0  0  0  0  0  0  0
  157.8760  213.5130  152.7290 N   0  0  0  0  0  1  0  0  0  0  0  0
  159.1640  213.4260  152.1230 C   0  0  0  0  0  0  0  0  0  0  0  0
  160.0970  212.6630  152.6100 N   0  0  0  0  0  0  0  0  0  0  0  0
  159.4330  214.1950  150.9580 N   0  0  0  0  0  1  0  0  0  0  0  0
  1  6  2  0  0  0  0
  2 10  1  0  0  0  0
  2 15  1  1  0  0  0
  3  8  1  0  0  0  0
  3 10  1  0  0  0  0
  5  6  2  0  0  0  0
  6  9  1  0  0  0  0
  6  7  1  0  0  0  0
  7  2  1  0  0  0  0
  8 13  1  1  0  0  0
  9  3  2  0  0  0  0
 10  4  2  0  0  0  0
 11  8  1  0  0  0  0
 12  9  1  0  0  0  0
 12 11  2  0  0  0  0
 13 14  3  0  0  0  0
 15 16  1  6  0  0  0
 15 19  1  0  0  0  0
 17 22  1  1  0  0  0
 17 20  1  0  0  0  0
 18 19  1  0  0  0  0
 18 17  1  0  0  0  0
 19 21  1  0  0  0  0
 21 20  1  0  0  0  0
 22 23  2  0  0  0  0
 25 26  2  0  0  0  0
 25 24  1  0  0  0  0
 26 22  1  0  0  0  0
 27 25  1  0  0  0  0
M  END
>  <MODEL>
6

>  <REMARK>
 VINA RESULT:      -5.8      2.841      8.583
  Name = 
  5 active torsions:
  status: ('A' for Active; 'I' for Inactive)
    1  A    between atoms: C_2  and  C_6
    2  A    between atoms: C_5  and  C_9
    3  A    between atoms: C_6  and  N_19
    4  A    between atoms: N_7  and  C_9
    5  A    between atoms: C_8  and  C_17
                            x       y       z     vdW  Elec       q    Type
                         _______ _______ _______ _____ _____    ______ ____

>  <TORSDO>
F 5

$$$$
=
 OpenBabel11042421333D

 27 29  0  0  1  0  0  0  0  0999 V2000
  160.8500  206.3590  145.7560 O   0  0  0  0  0  0  0  0  0  0  0  0
  161.1770  205.5290  148.9800 C   0  0  1  0  0  3  0  0  0  0  0  0
  160.8570  203.3180  147.6530 C   0  0  0  0  0  0  0  0  0  0  0  0
  160.6080  203.4130  149.9970 O   0  0  0  0  0  0  0  0  0  0  0  0
  163.0110  205.3060  145.2220 O   0  0  0  0  0  0  0  0  0  0  0  0
  161.8990  205.3930  146.2300 S   0  0  0  0  0  0  0  0  0  0  0  0
  162.6840  206.0150  148.0650 S   0  0  0  0  0  0  0  0  0  0  0  0
  160.3850  201.9170  147.4210 C   0  0  1  0  0  3  0  0  0  0  0  0
  161.2080  203.8080  146.4800 C   0  0  0  0  0  0  0  0  0  0  0  0
  160.8920  204.0400  148.9410 C   0  0  0  0  0  0  0  0  0  0  0  0
  160.5490  201.7840  145.9750 N   0  0  0  0  0  0  0  0  0  0  0  0
  161.0150  202.8480  145.4590 N   0  0  0  0  0  0  0  0  0  0  0  0
  161.2630  200.9580  148.1020 C   0  0  0  0  0  0  0  0  0  0  0  0
  161.9560  200.2030  148.6390 N   0  0  0  0  0  0  0  0  0  0  0  0
  161.1000  206.2080  150.3640 C   0  0  1  0  0  3  0  0  0  0  0  0
  161.3550  205.1400  151.4230 C   0  0  0  0  0  1  0  0  0  0  0  0
  162.1580  209.3360  151.8610 C   0  0  1  0  0  3  0  0  0  0  0  0
  161.9560  207.8360  151.8910 C   0  0  0  0  0  2  0  0  0  0  0  0
  162.0300  207.3420  150.5170 N   0  0  0  0  0  0  0  0  0  0  0  0
  161.9680  209.7400  150.4190 C   0  0  0  0  0  2  0  0  0  0  0  0
  161.5720  208.4670  149.7080 C   0  0  0  0  0  2  0  0  0  0  0  0
  161.1650  210.0190  152.7430 C   0  0  0  0  0  0  0  0  0  0  0  0
  159.9570  210.0490  152.3850 O   0  0  0  0  0  0  0  0  0  0  0  0
  161.2070  208.7220  155.3470 N   0  0  0  0  0  1  0  0  0  0  0  0
  161.6260  210.0710  155.1470 C   0  0  0  0  0  0  0  0  0  0  0  0
  161.5980  210.6270  153.9730 N   0  0  0  0  0  0  0  0  0  0  0  0
  162.0880  210.8230  156.2620 N   0  0  0  0  0  1  0  0  0  0  0  0
  1  6  2  0  0  0  0
  2 15  1  1  0  0  0
  3 10  1  0  0  0  0
  5  6  2  0  0  0  0
  6  9  1  0  0  0  0
  6  7  1  0  0  0  0
  7  2  1  0  0  0  0
  8  3  1  0  0  0  0
  8 13  1  1  0  0  0
  9  3  2  0  0  0  0
 10  2  1  0  0  0  0
 10  4  2  0  0  0  0
 11  8  1  0  0  0  0
 12 11  2  0  0  0  0
 12  9  1  0  0  0  0
 13 14  3  0  0  0  0
 15 19  1  0  0  0  0
 15 16  1  1  0  0  0
 17 18  1  0  0  0  0
 17 22  1  1  0  0  0
 19 18  1  0  0  0  0
 20 17  1  0  0  0  0
 21 20  1  0  0  0  0
 21 19  1  0  0  0  0
 22 26  1  0  0  0  0
 23 22  2  0  0  0  0
 25 24  1  0  0  0  0
 25 27  1  0  0  0  0
 26 25  2  0  0  0  0
M  END
>  <MODEL>
7

>  <REMARK>
 VINA RESULT:      -5.5      3.704      9.615
  Name = 
  5 active torsions:
  status: ('A' for Active; 'I' for Inactive)
    1  A    between atoms: C_2  and  C_6
    2  A    between atoms: C_5  and  C_9
    3  A    between atoms: C_6  and  N_19
    4  A    between atoms: N_7  and  C_9
    5  A    between atoms: C_8  and  C_17
                            x       y       z     vdW  Elec       q    Type
                         _______ _______ _______ _____ _____    ______ ____

>  <TORSDO>
F 5

$$$$
=
 OpenBabel11042421333D

 27 29  0  0  1  0  0  0  0  0999 V2000
  163.0700  210.3300  152.0170 O   0  0  0  0  0  0  0  0  0  0  0  0
  161.7610  207.2730  151.6520 C   0  0  1  0  0  3  0  0  0  0  0  0
  161.4000  207.9650  154.1310 C   0  0  0  0  0  0  0  0  0  0  0  0
  161.1710  205.7300  153.4130 O   0  0  0  0  0  0  0  0  0  0  0  0
  160.8310  211.2920  152.3680 O   0  0  0  0  0  0  0  0  0  0  0  0
  161.6400  210.0260  152.3660 S   0  0  0  0  0  0  0  0  0  0  0  0
  160.8210  208.6910  150.9810 S   0  0  0  0  0  0  0  0  0  0  0  0
  161.2830  207.7540  155.6080 C   0  0  1  0  0  3  0  0  0  0  0  0
  161.5390  209.2620  153.9340 C   0  0  0  0  0  0  0  0  0  0  0  0
  161.4010  206.9240  153.0830 C   0  0  0  0  0  0  0  0  0  0  0  0
  161.3840  209.1220  156.1120 N   0  0  0  0  0  0  0  0  0  0  0  0
  161.5230  209.9580  155.1650 N   0  0  0  0  0  0  0  0  0  0  0  0
  159.9640  207.2060  155.9460 C   0  0  0  0  0  0  0  0  0  0  0  0
  158.9250  206.7730  156.2120 N   0  0  0  0  0  0  0  0  0  0  0  0
  161.8240  206.0990  150.6520 C   0  0  1  0  0  3  0  0  0  0  0  0
  161.1280  204.9020  151.2930 C   0  0  0  0  0  1  0  0  0  0  0  0
  161.1870  205.4020  147.1510 C   0  0  1  0  0  3  0  0  0  0  0  0
  160.9580  205.1640  148.6290 C   0  0  0  0  0  2  0  0  0  0  0  0
  161.2370  206.4130  149.3360 N   0  0  0  0  0  0  0  0  0  0  0  0
  161.9660  206.6910  147.0660 C   0  0  0  0  0  2  0  0  0  0  0  0
  162.2300  207.0820  148.5020 C   0  0  0  0  0  2  0  0  0  0  0  0
  161.9560  204.2720  146.5490 C   0  0  0  0  0  0  0  0  0  0  0  0
  163.1890  204.1800  146.7930 O   0  0  0  0  0  0  0  0  0  0  0  0
  160.8840  201.7110  147.4230 N   0  0  0  0  0  1  0  0  0  0  0  0
  160.7980  202.1670  146.0750 C   0  0  0  0  0  0  0  0  0  0  0  0
  161.2850  203.3150  145.7100 N   0  0  0  0  0  0  0  0  0  0  0  0
  160.1610  201.3430  145.1060 N   0  0  0  0  0  1  0  0  0  0  0  0
  1  6  2  0  0  0  0
  2 15  1  6  0  0  0
  2 10  1  0  0  0  0
  3  8  1  0  0  0  0
  6  5  2  0  0  0  0
  6  9  1  0  0  0  0
  7  2  1  0  0  0  0
  7  6  1  0  0  0  0
  8 13  1  6  0  0  0
  8 11  1  0  0  0  0
  9  3  2  0  0  0  0
  9 12  1  0  0  0  0
 10  4  2  0  0  0  0
 10  3  1  0  0  0  0
 12 11  2  0  0  0  0
 13 14  3  0  0  0  0
 15 16  1  1  0  0  0
 17 22  1  1  0  0  0
 17 18  1  0  0  0  0
 18 19  1  0  0  0  0
 19 15  1  0  0  0  0
 20 17  1  0  0  0  0
 20 21  1  0  0  0  0
 21 19  1  0  0  0  0
 22 23  2  0  0  0  0
 25 24  1  0  0  0  0
 26 25  2  0  0  0  0
 26 22  1  0  0  0  0
 27 25  1  0  0  0  0
M  END
>  <MODEL>
8

>  <REMARK>
 VINA RESULT:      -5.2      3.232      4.487
  Name = 
  5 active torsions:
  status: ('A' for Active; 'I' for Inactive)
    1  A    between atoms: C_2  and  C_6
    2  A    between atoms: C_5  and  C_9
    3  A    between atoms: C_6  and  N_19
    4  A    between atoms: N_7  and  C_9
    5  A    between atoms: C_8  and  C_17
                            x       y       z     vdW  Elec       q    Type
                         _______ _______ _______ _____ _____    ______ ____

>  <TORSDO>
F 5

$$$$
=
 OpenBabel11042421333D

 27 29  0  0  1  0  0  0  0  0999 V2000
  160.8320  207.7070  148.4330 O   0  0  0  0  0  0  0  0  0  0  0  0
  161.0240  207.0250  151.7030 C   0  0  1  0  0  3  0  0  0  0  0  0
  160.9110  204.7480  150.4560 C   0  0  0  0  0  0  0  0  0  0  0  0
  160.5250  204.9210  152.7770 O   0  0  0  0  0  0  0  0  0  0  0  0
  163.0780  206.7670  148.0630 O   0  0  0  0  0  0  0  0  0  0  0  0
  161.9080  206.8260  149.0040 S   0  0  0  0  0  0  0  0  0  0  0  0
  162.5500  207.5660  150.8510 S   0  0  0  0  0  0  0  0  0  0  0  0
  160.5360  203.3130  150.2590 C   0  0  1  0  0  3  0  0  0  0  0  0
  161.2980  205.2120  149.2840 C   0  0  0  0  0  0  0  0  0  0  0  0
  160.8300  205.5210  151.7120 C   0  0  0  0  0  0  0  0  0  0  0  0
  160.7890  203.1330  148.8310 N   0  0  0  0  0  0  0  0  0  0  0  0
  161.2200  204.2030  148.2960 N   0  0  0  0  0  0  0  0  0  0  0  0
  161.4290  202.4370  151.0270 C   0  0  0  0  0  0  0  0  0  0  0  0
  162.1340  201.7480  151.6330 N   0  0  0  0  0  0  0  0  0  0  0  0
  160.8290  207.7520  153.0500 C   0  0  1  0  0  3  0  0  0  0  0  0
  161.5690  206.9570  154.1220 C   0  0  0  0  0  1  0  0  0  0  0  0
  160.9300  211.1240  154.3810 C   0  0  1  0  0  3  0  0  0  0  0  0
  161.3210  209.6610  154.4040 C   0  0  0  0  0  2  0  0  0  0  0  0
  161.2710  209.1590  153.0310 N   0  0  0  0  0  0  0  0  0  0  0  0
  160.2900  211.3500  153.0340 C   0  0  0  0  0  2  0  0  0  0  0  0
  160.2570  209.9850  152.3850 C   0  0  0  0  0  2  0  0  0  0  0  0
  159.9730  211.4300  155.4860 C   0  0  0  0  0  0  0  0  0  0  0  0
  160.3380  212.2110  156.4050 O   0  0  0  0  0  0  0  0  0  0  0  0
  157.4590  212.8720  155.2250 N   0  0  0  0  0  1  0  0  0  0  0  0
  157.5270  211.4550  155.3700 C   0  0  0  0  0  0  0  0  0  0  0  0
  158.6630  210.8340  155.4850 N   0  0  0  0  0  0  0  0  0  0  0  0
  156.3200  210.7040  155.3880 N   0  0  0  0  0  1  0  0  0  0  0  0
  1  6  2  0  0  0  0
  2 10  1  0  0  0  0
  2 15  1  1  0  0  0
  3 10  1  0  0  0  0
  5  6  2  0  0  0  0
  6  9  1  0  0  0  0
  6  7  1  0  0  0  0
  7  2  1  0  0  0  0
  8  3  1  0  0  0  0
  8 13  1  1  0  0  0
  9  3  2  0  0  0  0
 10  4  2  0  0  0  0
 11  8  1  0  0  0  0
 12 11  2  0  0  0  0
 12  9  1  0  0  0  0
 13 14  3  0  0  0  0
 15 16  1  1  0  0  0
 17 18  1  0  0  0  0
 17 22  1  1  0  0  0
 19 15  1  0  0  0  0
 19 18  1  0  0  0  0
 20 17  1  0  0  0  0
 21 19  1  0  0  0  0
 21 20  1  0  0  0  0
 22 23  2  0  0  0  0
 24 25  1  0  0  0  0
 25 27  1  0  0  0  0
 25 26  2  0  0  0  0
 26 22  1  0  0  0  0
M  END
>  <MODEL>
9

>  <REMARK>
 VINA RESULT:      -5.2      2.358      8.625
  Name = 
  5 active torsions:
  status: ('A' for Active; 'I' for Inactive)
    1  A    between atoms: C_2  and  C_6
    2  A    between atoms: C_5  and  C_9
    3  A    between atoms: C_6  and  N_19
    4  A    between atoms: N_7  and  C_9
    5  A    between atoms: C_8  and  C_17
                            x       y       z     vdW  Elec       q    Type
                         _______ _______ _______ _____ _____    ______ ____

>  <TORSDO>
F 5

$$$$
