=
 OpenBabel11052409473D

 63 68  0  0  1  0  0  0  0  0999 V2000
  160.7930  212.3930  149.5960 N   0  0  0  0  0  0  0  0  0  0  0  0
  160.1950  213.1590  148.7040 C   0  0  0  0  0  0  0  0  0  0  0  0
  156.6590  214.3040  150.9700 C   0  0  0  0  0  0  0  0  0  0  0  0
  158.9850  213.8740  149.3570 C   0  0  0  0  0  0  0  0  0  0  0  0
  159.0430  214.0730  150.7520 C   0  0  0  0  0  3  0  0  0  0  0  0
  157.9250  214.2600  151.5410 C   0  0  0  0  0  3  0  0  0  0  0  0
  157.6990  214.0020  148.7640 C   0  0  0  0  0  3  0  0  0  0  0  0
  156.5440  214.2490  149.5860 C   0  0  0  0  0  3  0  0  0  0  0  0
  155.5190  214.4450  151.7790 O   0  0  0  0  0  1  0  0  0  0  0  0
  160.7630  213.2800  147.3130 C   0  0  0  0  0  0  0  0  0  0  0  0
  161.9880  213.5430  147.1110 O   0  0  0  0  0  0  0  0  0  0  0  0
  159.9610  213.1200  146.1100 C   0  0  0  0  0  3  0  0  0  0  0  0
  160.3150  213.6980  144.9580 C   0  0  0  0  0  0  0  0  0  0  0  0
  160.6320  214.2830  143.7740 C   0  0  0  0  0  3  0  0  0  0  0  0
  160.2020  213.6540  142.5020 C   0  0  0  0  0  0  0  0  0  0  0  0
  158.4140  213.5360  140.7190 C   0  0  0  0  0  2  0  0  0  0  0  0
  159.3820  212.8080  139.8870 N   0  0  0  0  0  0  0  0  0  0  0  0
  159.0100  213.9730  142.0450 C   0  0  0  0  0  3  0  0  0  0  0  0
  158.8290  212.5280  138.6000 C   0  0  0  0  0  0  0  0  0  0  0  0
  161.1040  212.7390  141.6780 C   0  0  0  0  0  0  0  0  0  0  0  0
  160.7270  212.4410  140.3850 C   0  0  0  0  0  0  0  0  0  0  0  0
  162.4120  212.3770  142.2130 C   0  0  0  0  0  1  0  0  0  0  0  0
  159.5730  211.9820  137.7240 O   0  0  0  0  0  0  0  0  0  0  0  0
  162.8320  211.8380  138.9990 C   0  0  0  0  0  1  0  0  0  0  0  0
  161.6430  210.0210  140.1690 C   0  0  0  0  0  1  0  0  0  0  0  0
  161.5020  211.3720  139.5430 C   0  0  0  0  0  3  0  0  0  0  0  0
  157.4310  212.8950  138.1440 C   0  0  0  0  0  0  0  0  0  0  0  0
  157.2810  213.9290  137.4490 O   0  0  0  0  0  0  0  0  0  0  0  0
  156.2920  210.7380  138.9230 C   0  0  0  0  0  3  0  0  0  0  0  0
  155.2090  208.7130  139.7460 N   0  0  0  0  0  1  0  0  0  0  0  0
  153.8940  210.6030  139.0300 C   0  0  0  0  0  3  0  0  0  0  0  0
  153.7710  211.9160  138.5930 C   0  0  0  0  0  3  0  0  0  0  0  0
  155.1500  210.0190  139.2290 C   0  0  0  0  0  0  0  0  0  0  0  0
  154.9160  212.6550  138.3050 C   0  0  0  0  0  3  0  0  0  0  0  0
  156.2020  212.0740  138.4710 C   0  0  0  0  0  0  0  0  0  0  0  0
  162.0590  211.6280  149.8010 C   0  0  0  0  0  2  0  0  0  0  0  0
  160.5830  209.6120  152.7210 C   0  0  0  0  0  3  0  0  0  0  0  0
  161.7650  210.4160  150.7280 C   0  0  0  0  0  0  0  0  0  0  0  0
  160.7140  208.3460  152.2520 C   0  0  0  0  0  3  0  0  0  0  0  0
  161.1610  211.8450  152.5950 F   0  0  0  0  0  0  0  0  0  0  0  0
  161.4590  208.0400  151.1290 C   0  0  0  0  0  0  0  0  0  0  0  0
  161.9520  209.0900  150.3450 C   0  0  0  0  0  3  0  0  0  0  0  0
  161.1610  210.6550  151.9420 C   0  0  0  0  0  0  0  0  0  0  0  0
  161.5680  205.4550  151.5600 C   0  0  2  0  0  3  0  0  0  0  0  0
  161.5670  206.7020  150.7540 N   0  0  0  0  0  0  0  0  0  0  0  0
  160.5950  204.7000  150.8570 N   0  0  1  0  0  0  0  0  0  0  0  0
  161.1920  205.5470  153.0650 C   0  0  0  0  0  1  0  0  0  0  0  0
  161.1940  206.3720  149.3580 C   0  0  0  0  0  2  0  0  0  0  0  0
  160.7500  204.9680  149.4370 C   0  0  0  0  0  2  0  0  0  0  0  0
  160.6310  203.3100  151.1930 C   0  0  1  0  0  3  0  0  0  0  0  0
  161.5650  202.7210  150.0790 C   0  0  1  0  0  3  0  0  0  0  0  0
  161.9120  202.6760  151.4200 O   0  0  0  0  0  0  0  0  0  0  0  0
  160.6420  200.2890  150.3410 O   0  0  0  0  0  1  0  0  0  0  0  0
  160.8560  201.4270  149.4400 C   0  0  2  0  0  3  0  0  0  0  0  0
  161.3620  200.9130  148.0450 C   0  0  0  0  0  2  0  0  0  0  0  0
  160.8960  200.5400  145.7810 O   0  0  0  0  0  1  0  0  0  0  0  0
  160.7060  201.4910  146.8100 C   0  0  2  0  0  3  0  0  0  0  0  0
  161.4800  202.7560  146.4850 C   0  0  0  0  0  2  0  0  0  0  0  0
  161.2380  205.7090  146.1690 O   0  0  0  0  0  0  0  0  0  0  0  0
  160.9050  203.5200  145.3850 N   0  0  0  0  0  0  0  0  0  0  0  0
  159.8330  202.8770  144.6500 C   0  0  0  0  0  1  0  0  0  0  0  0
  161.1610  204.9190  145.2030 C   0  0  0  0  0  0  0  0  0  0  0  0
  161.4610  205.4100  143.8540 C   0  0  0  0  0  1  0  0  0  0  0  0
  1 36  1  0  0  0  0
  2  4  1  0  0  0  0
  2  1  2  0  0  0  0
  3  6  1  0  0  0  0
  3  9  1  0  0  0  0
  4  5  1  0  0  0  0
  5  6  2  0  0  0  0
  7  4  2  0  0  0  0
  7  8  1  0  0  0  0
  8  3  2  0  0  0  0
 10  2  1  0  0  0  0
 11 10  2  0  0  0  0
 12 10  1  0  0  0  0
 13 12  2  0  0  0  0
 14 13  2  0  0  0  0
 15 14  1  0  0  0  0
 16 18  1  0  0  0  0
 17 21  1  0  0  0  0
 17 16  1  0  0  0  0
 18 15  2  0  0  0  0
 19 17  1  0  0  0  0
 20 22  1  0  0  0  0
 20 15  1  0  0  0  0
 21 20  2  0  0  0  0
 23 19  2  0  0  0  0
 24 26  1  0  0  0  0
 26 25  1  0  0  0  0
 26 21  1  0  0  0  0
 27 35  1  0  0  0  0
 27 19  1  0  0  0  0
 28 27  2  0  0  0  0
 29 33  1  0  0  0  0
 31 33  2  0  0  0  0
 32 31  1  0  0  0  0
 33 30  1  0  0  0  0
 34 35  1  0  0  0  0
 34 32  2  0  0  0  0
 35 29  2  0  0  0  0
 36 38  1  0  0  0  0
 38 43  1  0  0  0  0
 39 37  1  0  0  0  0
 41 39  2  0  0  0  0
 42 38  2  0  0  0  0
 42 41  1  0  0  0  0
 43 40  1  0  0  0  0
 43 37  2  0  0  0  0
 44 47  1  1  0  0  0
 45 41  1  0  0  0  0
 45 44  1  0  0  0  0
 46 49  1  6  0  0  0
 46 50  1  0  0  0  0
 46 44  1  0  0  0  0
 48 49  1  0  0  0  0
 48 45  1  0  0  0  0
 50 52  1  1  0  0  0
 51 54  1  1  0  0  0
 51 50  1  0  0  0  0
 51 52  1  0  0  0  0
 54 53  1  1  0  0  0
 55 54  1  0  0  0  0
 57 56  1  6  0  0  0
 57 55  1  0  0  0  0
 58 57  1  0  0  0  0
 60 58  1  0  0  0  0
 61 60  1  0  0  0  0
 62 60  1  0  0  0  0
 62 59  2  0  0  0  0
 63 62  1  0  0  0  0
M  END
>  <MODEL>
1

>  <REMARK>
 VINA RESULT:      -7.5      0.000      0.000
  Name = 
  16 active torsions:
  status: ('A' for Active; 'I' for Inactive)
    1  A    between atoms: C_1  and  C_47
    2  A    between atoms: C_3  and  C_39
    3  A    between atoms: C_3  and  C_54
    4  A    between atoms: C_6  and  C_16
    5  A    between atoms: N_7  and  C_59
    6  A    between atoms: C_12  and  N_24
    7  A    between atoms: C_12  and  C_46
    8  A    between atoms: N_15  and  C_25
    9  A    between atoms: C_16  and  C_42
   10  A    between atoms: C_17  and  C_42
   11  A    between atoms: C_19  and  N_26
   12  A    between atoms: C_20  and  C_31
   13  A    between atoms: C_20  and  C_46
   14  A    between atoms: C_25  and  C_32
   15  A    between atoms: C_27  and  C_31
   16  A    between atoms: C_49  and  C_60
                            x       y       z     vdW  Elec       q    Type
                         _______ _______ _______ _____ _____    ______ ____

>  <TORSDO>
F 16

$$$$
=
 OpenBabel11052409473D

 63 68  0  0  1  0  0  0  0  0999 V2000
  160.3320  211.1900  152.3490 N   0  0  0  0  0  0  0  0  0  0  0  0
  159.6370  212.3110  152.3250 C   0  0  0  0  0  0  0  0  0  0  0  0
  156.9620  212.1330  155.7550 C   0  0  0  0  0  0  0  0  0  0  0  0
  158.8940  212.4930  153.6730 C   0  0  0  0  0  0  0  0  0  0  0  0
  158.9170  211.3990  154.5630 C   0  0  0  0  0  3  0  0  0  0  0  0
  157.9770  211.2060  155.5560 C   0  0  0  0  0  3  0  0  0  0  0  0
  157.9060  213.4820  153.9310 C   0  0  0  0  0  3  0  0  0  0  0  0
  156.9610  213.3010  155.0000 C   0  0  0  0  0  3  0  0  0  0  0  0
  155.9770  211.9110  156.7320 O   0  0  0  0  0  1  0  0  0  0  0  0
  159.7120  213.2190  151.1240 C   0  0  0  0  0  0  0  0  0  0  0  0
  160.0080  214.4490  151.2320 O   0  0  0  0  0  0  0  0  0  0  0  0
  159.4430  212.7670  149.7690 C   0  0  0  0  0  3  0  0  0  0  0  0
  159.0520  213.6210  148.8180 C   0  0  0  0  0  0  0  0  0  0  0  0
  158.6360  214.4530  147.8280 C   0  0  0  0  0  3  0  0  0  0  0  0
  158.9510  214.1350  146.4150 C   0  0  0  0  0  0  0  0  0  0  0  0
  158.0260  213.7430  144.0960 C   0  0  0  0  0  2  0  0  0  0  0  0
  159.4000  213.8770  143.5940 N   0  0  0  0  0  0  0  0  0  0  0  0
  157.9370  213.9670  145.5950 C   0  0  0  0  0  3  0  0  0  0  0  0
  159.4260  213.7900  142.1680 C   0  0  0  0  0  0  0  0  0  0  0  0
  160.3770  214.0820  145.8710 C   0  0  0  0  0  0  0  0  0  0  0  0
  160.5540  214.0660  144.5030 C   0  0  0  0  0  0  0  0  0  0  0  0
  161.4890  214.2470  146.8000 C   0  0  0  0  0  1  0  0  0  0  0  0
  160.5320  213.9780  141.5680 O   0  0  0  0  0  0  0  0  0  0  0  0
  163.1120  214.4510  144.6410 C   0  0  0  0  0  1  0  0  0  0  0  0
  162.2960  212.4210  143.5040 C   0  0  0  0  0  1  0  0  0  0  0  0
  161.9680  213.8320  143.8730 C   0  0  0  0  0  3  0  0  0  0  0  0
  158.2210  213.5610  141.2780 C   0  0  0  0  0  0  0  0  0  0  0  0
  157.1980  214.2630  141.4650 O   0  0  0  0  0  0  0  0  0  0  0  0
  156.9850  212.1850  139.5070 C   0  0  0  0  0  3  0  0  0  0  0  0
  155.8240  210.9380  137.7620 N   0  0  0  0  0  1  0  0  0  0  0  0
  158.1850  210.6200  138.1330 C   0  0  0  0  0  3  0  0  0  0  0  0
  159.3840  210.9470  138.7540 C   0  0  0  0  0  3  0  0  0  0  0  0
  156.9890  211.2580  138.4800 C   0  0  0  0  0  0  0  0  0  0  0  0
  159.3920  211.8970  139.7720 C   0  0  0  0  0  3  0  0  0  0  0  0
  158.1860  212.5380  140.1640 C   0  0  0  0  0  0  0  0  0  0  0  0
  161.4060  210.4780  151.5940 C   0  0  0  0  0  2  0  0  0  0  0  0
  161.0180  207.4600  153.9410 C   0  0  0  0  0  3  0  0  0  0  0  0
  161.4820  209.0100  152.0970 C   0  0  0  0  0  0  0  0  0  0  0  0
  161.0720  206.4350  153.0530 C   0  0  0  0  0  3  0  0  0  0  0  0
  161.4000  209.6850  154.4280 F   0  0  0  0  0  0  0  0  0  0  0  0
  161.4530  206.6090  151.7360 C   0  0  0  0  0  0  0  0  0  0  0  0
  161.6180  207.9120  151.2530 C   0  0  0  0  0  3  0  0  0  0  0  0
  161.2670  208.7690  153.4370 C   0  0  0  0  0  0  0  0  0  0  0  0
  161.3830  204.0380  151.2220 C   0  0  2  0  0  3  0  0  0  0  0  0
  161.5170  205.4840  150.9160 N   0  0  0  0  0  0  0  0  0  0  0  0
  160.4320  203.6590  150.2410 N   0  0  1  0  0  0  0  0  0  0  0  0
  160.8890  203.6240  152.6360 C   0  0  0  0  0  1  0  0  0  0  0  0
  161.2440  205.6980  149.4750 C   0  0  0  0  0  2  0  0  0  0  0  0
  160.7190  204.3970  149.0210 C   0  0  0  0  0  2  0  0  0  0  0  0
  160.3630  202.2420  150.0600 C   0  0  1  0  0  3  0  0  0  0  0  0
  161.5920  201.9650  149.1240 C   0  0  1  0  0  3  0  0  0  0  0  0
  161.5150  201.4350  150.4030 O   0  0  0  0  0  0  0  0  0  0  0  0
  161.3660  199.6050  148.0220 O   0  0  0  0  0  1  0  0  0  0  0  0
  161.1100  201.0440  147.8980 C   0  0  2  0  0  3  0  0  0  0  0  0
  161.4370  201.5190  146.4370 C   0  0  0  0  0  2  0  0  0  0  0  0
  159.6450  201.7080  144.9430 O   0  0  0  0  0  1  0  0  0  0  0  0
  160.4720  202.4850  145.7860 C   0  0  2  0  0  3  0  0  0  0  0  0
  161.3250  203.4180  144.9440 C   0  0  0  0  0  2  0  0  0  0  0  0
  160.6670  206.2480  144.2870 O   0  0  0  0  0  0  0  0  0  0  0  0
  161.7100  204.6370  145.6430 N   0  0  0  0  0  0  0  0  0  0  0  0
  162.9740  204.6000  146.3520 C   0  0  0  0  0  1  0  0  0  0  0  0
  161.0480  205.8910  145.4220 C   0  0  0  0  0  0  0  0  0  0  0  0
  160.7010  206.7160  146.5840 C   0  0  0  0  0  1  0  0  0  0  0  0
  2  1  2  0  0  0  0
  2  4  1  0  0  0  0
  3  9  1  0  0  0  0
  4  7  2  0  0  0  0
  4  5  1  0  0  0  0
  5  6  2  0  0  0  0
  6  3  1  0  0  0  0
  7  8  1  0  0  0  0
  8  3  2  0  0  0  0
 10 11  2  0  0  0  0
 10  2  1  0  0  0  0
 12 10  1  0  0  0  0
 13 12  2  0  0  0  0
 14 13  2  0  0  0  0
 15 14  1  0  0  0  0
 16 18  1  0  0  0  0
 17 16  1  0  0  0  0
 17 21  1  0  0  0  0
 18 15  2  0  0  0  0
 19 17  1  0  0  0  0
 20 15  1  0  0  0  0
 20 22  1  0  0  0  0
 21 20  2  0  0  0  0
 23 19  2  0  0  0  0
 25 26  1  0  0  0  0
 26 21  1  0  0  0  0
 26 24  1  0  0  0  0
 27 28  2  0  0  0  0
 27 19  1  0  0  0  0
 29 35  1  0  0  0  0
 30 33  1  0  0  0  0
 31 33  1  0  0  0  0
 31 32  2  0  0  0  0
 32 34  1  0  0  0  0
 33 29  2  0  0  0  0
 34 35  2  0  0  0  0
 35 27  1  0  0  0  0
 36 38  1  0  0  0  0
 36  1  1  0  0  0  0
 38 43  2  0  0  0  0
 39 37  2  0  0  0  0
 41 39  1  0  0  0  0
 42 41  2  0  0  0  0
 42 38  1  0  0  0  0
 43 37  1  0  0  0  0
 43 40  1  0  0  0  0
 44 47  1  1  0  0  0
 45 44  1  0  0  0  0
 45 41  1  0  0  0  0
 46 49  1  6  0  0  0
 46 44  1  0  0  0  0
 48 45  1  0  0  0  0
 49 48  1  0  0  0  0
 50 46  1  0  0  0  0
 50 52  1  1  0  0  0
 51 54  1  6  0  0  0
 51 50  1  0  0  0  0
 51 52  1  0  0  0  0
 54 53  1  1  0  0  0
 55 54  1  0  0  0  0
 57 56  1  6  0  0  0
 57 55  1  0  0  0  0
 58 60  1  0  0  0  0
 58 57  1  0  0  0  0
 59 62  2  0  0  0  0
 60 61  1  0  0  0  0
 62 60  1  0  0  0  0
 62 63  1  0  0  0  0
M  END
>  <MODEL>
2

>  <REMARK>
 VINA RESULT:      -6.2      2.219      3.490
  Name = 
  16 active torsions:
  status: ('A' for Active; 'I' for Inactive)
    1  A    between atoms: C_1  and  C_47
    2  A    between atoms: C_3  and  C_39
    3  A    between atoms: C_3  and  C_54
    4  A    between atoms: C_6  and  C_16
    5  A    between atoms: N_7  and  C_59
    6  A    between atoms: C_12  and  N_24
    7  A    between atoms: C_12  and  C_46
    8  A    between atoms: N_15  and  C_25
    9  A    between atoms: C_16  and  C_42
   10  A    between atoms: C_17  and  C_42
   11  A    between atoms: C_19  and  N_26
   12  A    between atoms: C_20  and  C_31
   13  A    between atoms: C_20  and  C_46
   14  A    between atoms: C_25  and  C_32
   15  A    between atoms: C_27  and  C_31
   16  A    between atoms: C_49  and  C_60
                            x       y       z     vdW  Elec       q    Type
                         _______ _______ _______ _____ _____    ______ ____

>  <TORSDO>
F 16

$$$$
=
 OpenBabel11052409473D

 63 68  0  0  1  0  0  0  0  0999 V2000
  159.4630  211.8520  153.6730 N   0  0  0  0  0  0  0  0  0  0  0  0
  158.4180  212.6290  153.4610 C   0  0  0  0  0  0  0  0  0  0  0  0
  155.2970  212.9800  156.4760 C   0  0  0  0  0  0  0  0  0  0  0  0
  157.5730  212.7300  154.7560 C   0  0  0  0  0  0  0  0  0  0  0  0
  156.6870  211.6640  155.0200 C   0  0  0  0  0  3  0  0  0  0  0  0
  155.5750  211.7810  155.8310 C   0  0  0  0  0  3  0  0  0  0  0  0
  157.3340  213.9290  155.4810 C   0  0  0  0  0  3  0  0  0  0  0  0
  156.2040  214.0290  156.3650 C   0  0  0  0  0  3  0  0  0  0  0  0
  154.1400  213.1140  157.2600 O   0  0  0  0  0  1  0  0  0  0  0  0
  158.2450  213.3120  152.1290 C   0  0  0  0  0  0  0  0  0  0  0  0
  157.6970  214.4530  152.0280 O   0  0  0  0  0  0  0  0  0  0  0  0
  158.6720  212.7200  150.8710 C   0  0  0  0  0  3  0  0  0  0  0  0
  158.2330  213.1890  149.6990 C   0  0  0  0  0  0  0  0  0  0  0  0
  157.7970  213.6260  148.4890 C   0  0  0  0  0  3  0  0  0  0  0  0
  158.6530  213.4540  147.2900 C   0  0  0  0  0  0  0  0  0  0  0  0
  158.7280  212.8620  144.8340 C   0  0  0  0  0  2  0  0  0  0  0  0
  160.0890  213.4160  144.8080 N   0  0  0  0  0  0  0  0  0  0  0  0
  158.0740  213.0100  146.1960 C   0  0  0  0  0  3  0  0  0  0  0  0
  160.6230  213.3780  143.4830 C   0  0  0  0  0  0  0  0  0  0  0  0
  160.1280  213.8460  147.2560 C   0  0  0  0  0  0  0  0  0  0  0  0
  160.7560  213.9200  146.0300 C   0  0  0  0  0  0  0  0  0  0  0  0
  160.7580  214.3140  148.4850 C   0  0  0  0  0  1  0  0  0  0  0  0
  161.7610  213.9050  143.2710 O   0  0  0  0  0  0  0  0  0  0  0  0
  162.9860  214.4530  147.2360 C   0  0  0  0  0  1  0  0  0  0  0  0
  163.0650  213.0880  145.1830 C   0  0  0  0  0  1  0  0  0  0  0  0
  162.3030  214.1390  145.9260 C   0  0  0  0  0  3  0  0  0  0  0  0
  159.9140  212.8200  142.2650 C   0  0  0  0  0  0  0  0  0  0  0  0
  158.7210  213.1510  142.0640 O   0  0  0  0  0  0  0  0  0  0  0  0
  159.8210  211.1320  140.3420 C   0  0  0  0  0  3  0  0  0  0  0  0
  159.7390  209.5890  138.4540 N   0  0  0  0  0  1  0  0  0  0  0  0
  161.8460  210.1770  139.4670 C   0  0  0  0  0  3  0  0  0  0  0  0
  162.6150  210.9150  140.3590 C   0  0  0  0  0  3  0  0  0  0  0  0
  160.4530  210.3050  139.4300 C   0  0  0  0  0  0  0  0  0  0  0  0
  161.9870  211.7680  141.2640 C   0  0  0  0  0  3  0  0  0  0  0  0
  160.5720  211.8920  141.2660 C   0  0  0  0  0  0  0  0  0  0  0  0
  160.7670  211.4720  153.0510 C   0  0  0  0  0  2  0  0  0  0  0  0
  161.5470  208.4890  155.3450 C   0  0  0  0  0  3  0  0  0  0  0  0
  161.1190  210.0200  153.4770 C   0  0  0  0  0  0  0  0  0  0  0  0
  161.2740  207.4490  154.5170 C   0  0  0  0  0  3  0  0  0  0  0  0
  161.9880  210.7380  155.6270 F   0  0  0  0  0  0  0  0  0  0  0  0
  161.0580  207.6120  153.1610 C   0  0  0  0  0  0  0  0  0  0  0  0
  160.9420  208.9110  152.6530 C   0  0  0  0  0  3  0  0  0  0  0  0
  161.4980  209.7960  154.7830 C   0  0  0  0  0  0  0  0  0  0  0  0
  160.8390  206.2660  150.9210 C   0  0  2  0  0  3  0  0  0  0  0  0
  160.8280  206.4750  152.3910 N   0  0  0  0  0  0  0  0  0  0  0  0
  161.6800  205.1270  150.8340 N   0  0  1  0  0  0  0  0  0  0  0  0
  161.3860  207.4060  150.0170 C   0  0  0  0  0  1  0  0  0  0  0  0
  161.0220  205.1680  153.0630 C   0  0  0  0  0  2  0  0  0  0  0  0
  161.3840  204.2580  151.9610 C   0  0  0  0  0  2  0  0  0  0  0  0
  161.5960  204.4790  149.5620 C   0  0  1  0  0  3  0  0  0  0  0  0
  160.3590  203.5330  149.7500 C   0  0  1  0  0  3  0  0  0  0  0  0
  160.3590  204.5560  148.8150 O   0  0  0  0  0  0  0  0  0  0  0  0
  161.3350  201.1610  150.2570 O   0  0  0  0  0  1  0  0  0  0  0  0
  160.7560  202.0570  149.2510 C   0  0  2  0  0  3  0  0  0  0  0  0
  161.5400  201.9150  147.8970 C   0  0  0  0  0  2  0  0  0  0  0  0
  160.3730  200.9960  146.0880 O   0  0  0  0  0  1  0  0  0  0  0  0
  160.7920  202.2360  146.6220 C   0  0  2  0  0  3  0  0  0  0  0  0
  161.8110  202.8730  145.6940 C   0  0  0  0  0  2  0  0  0  0  0  0
  160.6410  205.0140  143.9840 O   0  0  0  0  0  0  0  0  0  0  0  0
  161.9020  204.3200  145.8410 N   0  0  0  0  0  0  0  0  0  0  0  0
  163.1030  204.8270  146.4760 C   0  0  0  0  0  1  0  0  0  0  0  0
  161.0170  205.2190  145.1580 C   0  0  0  0  0  0  0  0  0  0  0  0
  160.4430  206.3430  145.9060 C   0  0  0  0  0  1  0  0  0  0  0  0
  2  1  2  0  0  0  0
  2  4  1  0  0  0  0
  3  9  1  0  0  0  0
  4  5  2  0  0  0  0
  4  7  1  0  0  0  0
  5  6  1  0  0  0  0
  6  3  2  0  0  0  0
  7  8  2  0  0  0  0
  8  3  1  0  0  0  0
 10  2  1  0  0  0  0
 11 10  2  0  0  0  0
 12 10  1  0  0  0  0
 13 12  2  0  0  0  0
 14 13  2  0  0  0  0
 15 14  1  0  0  0  0
 16 18  1  0  0  0  0
 17 16  1  0  0  0  0
 17 21  1  0  0  0  0
 18 15  2  0  0  0  0
 19 17  1  0  0  0  0
 20 15  1  0  0  0  0
 20 22  1  0  0  0  0
 21 20  2  0  0  0  0
 23 19  2  0  0  0  0
 25 26  1  0  0  0  0
 26 21  1  0  0  0  0
 26 24  1  0  0  0  0
 27 19  1  0  0  0  0
 28 27  2  0  0  0  0
 29 35  1  0  0  0  0
 30 33  1  0  0  0  0
 31 32  2  0  0  0  0
 32 34  1  0  0  0  0
 33 31  1  0  0  0  0
 33 29  2  0  0  0  0
 34 35  2  0  0  0  0
 35 27  1  0  0  0  0
 36 38  1  0  0  0  0
 36  1  1  0  0  0  0
 38 43  2  0  0  0  0
 39 37  2  0  0  0  0
 41 39  1  0  0  0  0
 42 41  2  0  0  0  0
 42 38  1  0  0  0  0
 43 37  1  0  0  0  0
 43 40  1  0  0  0  0
 44 47  1  6  0  0  0
 44 45  1  0  0  0  0
 45 48  1  0  0  0  0
 45 41  1  0  0  0  0
 46 44  1  0  0  0  0
 46 49  1  1  0  0  0
 49 48  1  0  0  0  0
 50 52  1  6  0  0  0
 50 51  1  0  0  0  0
 50 46  1  0  0  0  0
 51 54  1  6  0  0  0
 52 51  1  0  0  0  0
 54 53  1  1  0  0  0
 55 54  1  0  0  0  0
 57 56  1  6  0  0  0
 57 55  1  0  0  0  0
 58 60  1  0  0  0  0
 58 57  1  0  0  0  0
 59 62  2  0  0  0  0
 60 61  1  0  0  0  0
 62 60  1  0  0  0  0
 62 63  1  0  0  0  0
M  END
>  <MODEL>
3

>  <REMARK>
 VINA RESULT:      -6.0      2.551      4.694
  Name = 
  16 active torsions:
  status: ('A' for Active; 'I' for Inactive)
    1  A    between atoms: C_1  and  C_47
    2  A    between atoms: C_3  and  C_39
    3  A    between atoms: C_3  and  C_54
    4  A    between atoms: C_6  and  C_16
    5  A    between atoms: N_7  and  C_59
    6  A    between atoms: C_12  and  N_24
    7  A    between atoms: C_12  and  C_46
    8  A    between atoms: N_15  and  C_25
    9  A    between atoms: C_16  and  C_42
   10  A    between atoms: C_17  and  C_42
   11  A    between atoms: C_19  and  N_26
   12  A    between atoms: C_20  and  C_31
   13  A    between atoms: C_20  and  C_46
   14  A    between atoms: C_25  and  C_32
   15  A    between atoms: C_27  and  C_31
   16  A    between atoms: C_49  and  C_60
                            x       y       z     vdW  Elec       q    Type
                         _______ _______ _______ _____ _____    ______ ____

>  <TORSDO>
F 16

$$$$
=
 OpenBabel11052409473D

 63 68  0  0  1  0  0  0  0  0999 V2000
  160.9930  211.7850  150.6400 N   0  0  0  0  0  0  0  0  0  0  0  0
  160.4080  212.8440  150.1120 C   0  0  0  0  0  0  0  0  0  0  0  0
  157.3380  213.4830  153.1320 C   0  0  0  0  0  0  0  0  0  0  0  0
  159.3540  213.4050  151.1010 C   0  0  0  0  0  0  0  0  0  0  0  0
  159.6420  213.2750  152.4760 C   0  0  0  0  0  3  0  0  0  0  0  0
  158.6740  213.2900  153.4610 C   0  0  0  0  0  3  0  0  0  0  0  0
  158.0000  213.6850  150.7740 C   0  0  0  0  0  3  0  0  0  0  0  0
  157.0030  213.7520  151.8090 C   0  0  0  0  0  3  0  0  0  0  0  0
  156.3490  213.4490  154.1280 O   0  0  0  0  0  1  0  0  0  0  0  0
  160.8550  213.3600  148.7690 C   0  0  0  0  0  0  0  0  0  0  0  0
  161.6130  214.3720  148.6600 O   0  0  0  0  0  0  0  0  0  0  0  0
  160.4490  212.7570  147.5100 C   0  0  0  0  0  3  0  0  0  0  0  0
  160.1950  213.5050  146.4320 C   0  0  0  0  0  0  0  0  0  0  0  0
  159.9110  214.2310  145.3190 C   0  0  0  0  0  3  0  0  0  0  0  0
  160.1020  213.6310  143.9770 C   0  0  0  0  0  0  0  0  0  0  0  0
  158.9820  212.5690  141.9760 C   0  0  0  0  0  2  0  0  0  0  0  0
  160.2410  212.7690  141.2450 N   0  0  0  0  0  0  0  0  0  0  0  0
  159.0390  213.1310  143.3850 C   0  0  0  0  0  3  0  0  0  0  0  0
  160.1080  212.3480  139.8870 C   0  0  0  0  0  0  0  0  0  0  0  0
  161.4380  213.6480  143.2390 C   0  0  0  0  0  0  0  0  0  0  0  0
  161.4470  213.3300  141.8960 C   0  0  0  0  0  0  0  0  0  0  0  0
  162.6100  214.1840  143.9220 C   0  0  0  0  0  1  0  0  0  0  0  0
  161.0830  212.5390  139.0920 O   0  0  0  0  0  0  0  0  0  0  0  0
  163.0730  211.7400  140.6550 C   0  0  0  0  0  1  0  0  0  0  0  0
  163.0390  214.1190  140.0040 C   0  0  0  0  0  1  0  0  0  0  0  0
  162.7930  213.1510  141.1170 C   0  0  0  0  0  3  0  0  0  0  0  0
  158.8600  211.7470  139.2700 C   0  0  0  0  0  0  0  0  0  0  0  0
  158.7910  210.5000  139.1560 O   0  0  0  0  0  0  0  0  0  0  0  0
  156.3530  212.2560  139.1550 C   0  0  0  0  0  3  0  0  0  0  0  0
  153.9740  212.7930  139.1160 N   0  0  0  0  0  1  0  0  0  0  0  0
  155.5510  214.1140  137.8580 C   0  0  0  0  0  3  0  0  0  0  0  0
  156.8470  214.4530  137.4880 C   0  0  0  0  0  3  0  0  0  0  0  0
  155.2990  213.0380  138.7170 C   0  0  0  0  0  0  0  0  0  0  0  0
  157.9150  213.6850  137.9450 C   0  0  0  0  0  3  0  0  0  0  0  0
  157.6830  212.5700  138.7940 C   0  0  0  0  0  0  0  0  0  0  0  0
  162.1740  210.8940  150.4360 C   0  0  0  0  0  2  0  0  0  0  0  0
  160.7630  208.3550  152.9510 C   0  0  0  0  0  3  0  0  0  0  0  0
  161.8910  209.5260  151.1140 C   0  0  0  0  0  0  0  0  0  0  0  0
  160.8550  207.2050  152.2360 C   0  0  0  0  0  3  0  0  0  0  0  0
  161.3760  210.5610  153.2490 F   0  0  0  0  0  0  0  0  0  0  0  0
  161.5560  207.1210  151.0470 C   0  0  0  0  0  0  0  0  0  0  0  0
  162.0400  208.3010  150.4700 C   0  0  0  0  0  3  0  0  0  0  0  0
  161.3320  209.5250  152.3740 C   0  0  0  0  0  0  0  0  0  0  0  0
  161.5460  204.5000  150.9450 C   0  0  2  0  0  3  0  0  0  0  0  0
  161.6270  205.8830  150.4120 N   0  0  0  0  0  0  0  0  0  0  0  0
  160.5740  203.9490  150.0710 N   0  0  1  0  0  0  0  0  0  0  0  0
  161.1110  204.3030  152.4240 C   0  0  0  0  0  1  0  0  0  0  0  0
  161.3000  205.8610  148.9660 C   0  0  0  0  0  2  0  0  0  0  0  0
  160.7990  204.4920  148.7420 C   0  0  0  0  0  2  0  0  0  0  0  0
  160.5410  202.5200  150.1180 C   0  0  1  0  0  3  0  0  0  0  0  0
  161.6140  202.1270  149.0420 C   0  0  1  0  0  3  0  0  0  0  0  0
  161.7680  201.7990  150.3800 O   0  0  0  0  0  0  0  0  0  0  0  0
  161.3790  199.6280  148.3100 O   0  0  0  0  0  1  0  0  0  0  0  0
  160.9830  201.0180  148.0630 C   0  0  2  0  0  3  0  0  0  0  0  0
  160.9790  201.3050  146.5190 C   0  0  0  0  0  2  0  0  0  0  0  0
  159.6390  202.5910  145.0950 O   0  0  0  0  0  1  0  0  0  0  0  0
  160.6530  202.7130  146.0720 C   0  0  2  0  0  3  0  0  0  0  0  0
  161.9200  203.2470  145.4290 C   0  0  0  0  0  2  0  0  0  0  0  0
  161.0020  205.2500  143.4220 O   0  0  0  0  0  0  0  0  0  0  0  0
  162.0200  204.7000  145.4670 N   0  0  0  0  0  0  0  0  0  0  0  0
  163.1480  205.2470  146.1970 C   0  0  0  0  0  1  0  0  0  0  0  0
  161.2400  205.5480  144.6130 C   0  0  0  0  0  0  0  0  0  0  0  0
  160.6040  206.7350  145.1920 C   0  0  0  0  0  1  0  0  0  0  0  0
  2  1  2  0  0  0  0
  2  4  1  0  0  0  0
  3  6  1  0  0  0  0
  3  9  1  0  0  0  0
  4  5  1  0  0  0  0
  5  6  2  0  0  0  0
  7  4  2  0  0  0  0
  7  8  1  0  0  0  0
  8  3  2  0  0  0  0
 10  2  1  0  0  0  0
 11 10  2  0  0  0  0
 12 10  1  0  0  0  0
 13 12  2  0  0  0  0
 14 13  2  0  0  0  0
 15 14  1  0  0  0  0
 16 18  1  0  0  0  0
 17 21  1  0  0  0  0
 17 16  1  0  0  0  0
 18 15  2  0  0  0  0
 19 17  1  0  0  0  0
 20 22  1  0  0  0  0
 20 15  1  0  0  0  0
 21 20  2  0  0  0  0
 23 19  2  0  0  0  0
 24 26  1  0  0  0  0
 25 26  1  0  0  0  0
 26 21  1  0  0  0  0
 27 19  1  0  0  0  0
 28 27  2  0  0  0  0
 31 33  1  0  0  0  0
 32 31  2  0  0  0  0
 32 34  1  0  0  0  0
 33 30  1  0  0  0  0
 33 29  2  0  0  0  0
 34 35  2  0  0  0  0
 35 29  1  0  0  0  0
 35 27  1  0  0  0  0
 36  1  1  0  0  0  0
 36 38  1  0  0  0  0
 38 43  2  0  0  0  0
 39 37  2  0  0  0  0
 41 39  1  0  0  0  0
 42 41  2  0  0  0  0
 42 38  1  0  0  0  0
 43 37  1  0  0  0  0
 43 40  1  0  0  0  0
 44 47  1  1  0  0  0
 45 44  1  0  0  0  0
 45 41  1  0  0  0  0
 46 49  1  6  0  0  0
 46 50  1  0  0  0  0
 46 44  1  0  0  0  0
 48 45  1  0  0  0  0
 49 48  1  0  0  0  0
 50 52  1  1  0  0  0
 51 54  1  6  0  0  0
 51 50  1  0  0  0  0
 51 52  1  0  0  0  0
 54 53  1  6  0  0  0
 55 54  1  0  0  0  0
 57 56  1  6  0  0  0
 57 55  1  0  0  0  0
 58 60  1  0  0  0  0
 58 57  1  0  0  0  0
 59 62  2  0  0  0  0
 60 61  1  0  0  0  0
 62 63  1  0  0  0  0
 62 60  1  0  0  0  0
M  END
>  <MODEL>
4

>  <REMARK>
 VINA RESULT:      -5.5      1.596      2.129
  Name = 
  16 active torsions:
  status: ('A' for Active; 'I' for Inactive)
    1  A    between atoms: C_1  and  C_47
    2  A    between atoms: C_3  and  C_39
    3  A    between atoms: C_3  and  C_54
    4  A    between atoms: C_6  and  C_16
    5  A    between atoms: N_7  and  C_59
    6  A    between atoms: C_12  and  N_24
    7  A    between atoms: C_12  and  C_46
    8  A    between atoms: N_15  and  C_25
    9  A    between atoms: C_16  and  C_42
   10  A    between atoms: C_17  and  C_42
   11  A    between atoms: C_19  and  N_26
   12  A    between atoms: C_20  and  C_31
   13  A    between atoms: C_20  and  C_46
   14  A    between atoms: C_25  and  C_32
   15  A    between atoms: C_27  and  C_31
   16  A    between atoms: C_49  and  C_60
                            x       y       z     vdW  Elec       q    Type
                         _______ _______ _______ _____ _____    ______ ____

>  <TORSDO>
F 16

$$$$
