=
 OpenBabel11042421083D

 36 41  0  0  1  0  0  0  0  0999 V2000
  162.0500  206.8240  148.4110 C   0  0  0  0  0  0  0  0  0  0  0  0
  162.0190  204.2200  150.8460 C   0  0  0  0  0  3  0  0  0  0  0  0
  161.5700  204.6480  149.5020 C   0  0  0  0  0  0  0  0  0  0  0  0
  161.1830  204.0920  147.1300 C   0  0  0  0  0  0  0  0  0  0  0  0
  160.8540  206.8230  150.6190 C   0  0  0  0  0  0  0  0  0  0  0  0
  160.7860  203.0910  146.2380 C   0  0  0  0  0  3  0  0  0  0  0  0
  160.1500  208.0180  150.5240 O   0  0  0  0  0  1  0  0  0  0  0  0
  161.2730  206.3550  151.8170 C   0  0  0  0  0  0  0  0  0  0  0  0
  161.0360  201.4330  147.9240 N   0  0  0  0  0  0  0  0  0  0  0  0
  161.1350  206.0800  149.3300 C   0  0  1  0  0  3  0  0  0  0  0  0
  161.3830  202.3770  148.8350 C   0  0  0  0  0  3  0  0  0  0  0  0
  160.2220  200.5220  145.5210 Cl  0  0  0  0  0  0  0  0  0  0  0  0
  161.4170  203.7460  148.5000 C   0  0  0  0  0  0  0  0  0  0  0  0
  162.1110  206.4640  147.1330 C   0  0  0  0  0  3  0  0  0  0  0  0
  161.8960  205.0170  151.9030 C   0  0  0  0  0  3  0  0  0  0  0  0
  161.4800  205.2670  146.5460 C   0  0  0  0  0  3  0  0  0  0  0  0
  160.6980  201.7670  146.6560 C   0  0  0  0  0  0  0  0  0  0  0  0
  160.5140  208.0040  155.3350 C   0  0  0  0  0  0  0  0  0  0  0  0
  163.1290  210.7190  154.9380 O   0  0  0  0  0  0  0  0  0  0  0  0
  161.3710  210.3690  156.9520 C   0  0  0  0  0  2  0  0  0  0  0  0
  158.9730  210.3090  156.7870 O   0  0  0  0  0  1  0  0  0  0  0  0
  161.6710  210.4600  155.1910 S   0  0  0  0  0  0  0  0  0  0  0  0
  160.0900  208.2540  156.6780 N   0  0  0  0  0  2  0  0  0  0  0  0
  160.8360  211.5470  154.5750 O   0  0  0  0  0  0  0  0  0  0  0  0
  160.2990  206.5780  154.4850 S   0  0  0  0  0  0  0  0  0  0  0  0
  161.0990  207.1080  153.0850 C   0  0  0  0  0  0  0  0  0  0  0  0
  160.0800  209.6000  157.2570 C   0  0  1  0  0  3  0  0  0  0  0  0
  161.5410  208.4200  153.2860 C   0  0  0  0  0  3  0  0  0  0  0  0
  161.2080  208.9030  154.5550 C   0  0  0  0  0  0  0  0  0  0  0  0
  162.7860  207.9610  148.9000 N   0  0  0  0  0  2  0  0  0  0  0  0
  161.0290  212.2090  147.3660 C   0  0  0  0  0  1  0  0  0  0  0  0
  161.8470  211.3620  149.6220 C   0  0  0  0  0  3  0  0  0  0  0  0
  162.3510  210.1490  150.0670 C   0  0  0  0  0  3  0  0  0  0  0  0
  161.8950  209.9620  147.9030 O   0  0  0  0  0  0  0  0  0  0  0  0
  162.3540  209.3280  148.9520 C   0  0  0  0  0  0  0  0  0  0  0  0
  161.5860  211.1770  148.2790 C   0  0  0  0  0  0  0  0  0  0  0  0
  1 30  1  0  0  0  0
  2 15  2  0  0  0  0
  3  2  1  0  0  0  0
  4 13  1  0  0  0  0
  5  8  2  0  0  0  0
  6 17  2  0  0  0  0
  6  4  1  0  0  0  0
  7  5  1  0  0  0  0
  8 15  1  0  0  0  0
  8 26  1  0  0  0  0
  9 11  2  0  0  0  0
 10  1  1  1  0  0  0
 10  3  1  0  0  0  0
 10  5  1  0  0  0  0
 12 17  1  0  0  0  0
 13 11  1  0  0  0  0
 13  3  2  0  0  0  0
 14  1  2  0  0  0  0
 16  4  2  0  0  0  0
 16 14  1  0  0  0  0
 17  9  1  0  0  0  0
 18 23  1  0  0  0  0
 19 22  2  0  0  0  0
 20 27  1  0  0  0  0
 22 20  1  0  0  0  0
 23 27  1  0  0  0  0
 24 22  2  0  0  0  0
 25 18  1  0  0  0  0
 26 28  2  0  0  0  0
 26 25  1  0  0  0  0
 27 21  1  6  0  0  0
 28 29  1  0  0  0  0
 29 22  1  0  0  0  0
 29 18  2  0  0  0  0
 30 35  1  0  0  0  0
 31 36  1  0  0  0  0
 32 33  1  0  0  0  0
 34 36  1  0  0  0  0
 34 35  1  0  0  0  0
 35 33  2  0  0  0  0
 36 32  2  0  0  0  0
M  END
>  <MODEL>
1

>  <REMARK>
 VINA RESULT:      -7.1      0.000      0.000
  Name = 
  3 active torsions:
  status: ('A' for Active; 'I' for Inactive)
    1  A    between atoms: C_1  and  N_30
    2  A    between atoms: C_18  and  C_29
    3  A    between atoms: N_30  and  C_32
                            x       y       z     vdW  Elec       q    Type
                         _______ _______ _______ _____ _____    ______ ____

>  <TORSDO>
F 3

$$$$
=
 OpenBabel11042421083D

 36 41  0  0  1  0  0  0  0  0999 V2000
  162.2040  206.7450  148.1690 C   0  0  0  0  0  0  0  0  0  0  0  0
  161.8730  204.4120  150.8430 C   0  0  0  0  0  3  0  0  0  0  0  0
  161.5510  204.7100  149.4300 C   0  0  0  0  0  0  0  0  0  0  0  0
  161.3350  203.9230  147.1020 C   0  0  0  0  0  0  0  0  0  0  0  0
  160.8350  207.0110  150.2570 C   0  0  0  0  0  0  0  0  0  0  0  0
  160.9730  202.8470  146.2860 C   0  0  0  0  0  3  0  0  0  0  0  0
  160.1880  208.2110  149.9820 O   0  0  0  0  0  1  0  0  0  0  0  0
  161.1370  206.6580  151.5260 C   0  0  0  0  0  0  0  0  0  0  0  0
  161.0200  201.3670  148.1460 N   0  0  0  0  0  0  0  0  0  0  0  0
  161.1890  206.1300  149.0770 C   0  0  1  0  0  3  0  0  0  0  0  0
  161.3290  202.3900  148.9830 C   0  0  0  0  0  3  0  0  0  0  0  0
  160.3670  200.2360  145.7880 Cl  0  0  0  0  0  0  0  0  0  0  0  0
  161.4440  203.7140  148.5150 C   0  0  0  0  0  0  0  0  0  0  0  0
  162.3530  206.2520  146.9430 C   0  0  0  0  0  3  0  0  0  0  0  0
  161.6970  205.3180  151.8000 C   0  0  0  0  0  3  0  0  0  0  0  0
  161.7250  205.0210  146.4290 C   0  0  0  0  0  3  0  0  0  0  0  0
  160.7990  201.5770  146.8270 C   0  0  0  0  0  0  0  0  0  0  0  0
  160.4720  209.3860  154.3180 C   0  0  0  0  0  0  0  0  0  0  0  0
  159.9150  206.8380  157.0680 O   0  0  0  0  0  0  0  0  0  0  0  0
  159.9590  209.5270  157.2600 C   0  0  0  0  0  2  0  0  0  0  0  0
  161.7720  210.9920  156.6690 O   0  0  0  0  0  1  0  0  0  0  0  0
  160.7330  208.0310  156.6590 S   0  0  0  0  0  0  0  0  0  0  0  0
  160.1570  210.5920  155.0200 N   0  0  0  0  0  2  0  0  0  0  0  0
  162.1290  207.9120  157.2010 O   0  0  0  0  0  0  0  0  0  0  0  0
  160.4930  209.1940  152.6550 S   0  0  0  0  0  0  0  0  0  0  0  0
  160.8910  207.5440  152.6930 C   0  0  0  0  0  0  0  0  0  0  0  0
  160.4130  210.7500  156.4540 C   0  0  1  0  0  3  0  0  0  0  0  0
  161.0080  207.1380  154.0260 C   0  0  0  0  0  3  0  0  0  0  0  0
  160.7650  208.1830  154.9220 C   0  0  0  0  0  0  0  0  0  0  0  0
  162.9420  207.9030  148.6000 N   0  0  0  0  0  2  0  0  0  0  0  0
  160.8570  212.1080  147.3910 C   0  0  0  0  0  1  0  0  0  0  0  0
  161.9410  211.2380  149.5220 C   0  0  0  0  0  3  0  0  0  0  0  0
  162.5400  210.0370  149.8740 C   0  0  0  0  0  3  0  0  0  0  0  0
  161.8680  209.8880  147.7650 O   0  0  0  0  0  0  0  0  0  0  0  0
  162.4610  209.2480  148.7390 C   0  0  0  0  0  0  0  0  0  0  0  0
  161.5500  211.0770  148.2080 C   0  0  0  0  0  0  0  0  0  0  0  0
  1 30  1  0  0  0  0
  2 15  2  0  0  0  0
  3  2  1  0  0  0  0
  4 13  1  0  0  0  0
  5  8  2  0  0  0  0
  6 17  2  0  0  0  0
  6  4  1  0  0  0  0
  7  5  1  0  0  0  0
  8 15  1  0  0  0  0
  8 26  1  0  0  0  0
  9 11  2  0  0  0  0
 10  1  1  1  0  0  0
 10  3  1  0  0  0  0
 10  5  1  0  0  0  0
 12 17  1  0  0  0  0
 13 11  1  0  0  0  0
 13  3  2  0  0  0  0
 14  1  2  0  0  0  0
 16 14  1  0  0  0  0
 16  4  2  0  0  0  0
 17  9  1  0  0  0  0
 18 29  2  0  0  0  0
 18 23  1  0  0  0  0
 22 19  2  0  0  0  0
 22 24  2  0  0  0  0
 22 20  1  0  0  0  0
 23 27  1  0  0  0  0
 25 26  1  0  0  0  0
 25 18  1  0  0  0  0
 26 28  2  0  0  0  0
 27 21  1  6  0  0  0
 27 20  1  0  0  0  0
 28 29  1  0  0  0  0
 29 22  1  0  0  0  0
 30 35  1  0  0  0  0
 31 36  1  0  0  0  0
 32 33  1  0  0  0  0
 34 36  1  0  0  0  0
 34 35  1  0  0  0  0
 35 33  2  0  0  0  0
 36 32  2  0  0  0  0
M  END
>  <MODEL>
2

>  <REMARK>
 VINA RESULT:      -6.2      1.318      1.676
  Name = 
  3 active torsions:
  status: ('A' for Active; 'I' for Inactive)
    1  A    between atoms: C_1  and  N_30
    2  A    between atoms: C_18  and  C_29
    3  A    between atoms: N_30  and  C_32
                            x       y       z     vdW  Elec       q    Type
                         _______ _______ _______ _____ _____    ______ ____

>  <TORSDO>
F 3

$$$$
=
 OpenBabel11042421083D

 36 41  0  0  1  0  0  0  0  0999 V2000
  161.4110  206.4130  153.2690 C   0  0  0  0  0  0  0  0  0  0  0  0
  162.1040  209.3540  151.3770 C   0  0  0  0  0  3  0  0  0  0  0  0
  161.3620  208.7790  152.5210 C   0  0  0  0  0  0  0  0  0  0  0  0
  160.5730  208.9940  154.8480 C   0  0  0  0  0  0  0  0  0  0  0  0
  160.6750  206.9180  150.9220 C   0  0  0  0  0  0  0  0  0  0  0  0
  160.1070  209.8830  155.8220 C   0  0  0  0  0  3  0  0  0  0  0  0
  159.8560  205.8230  150.6740 O   0  0  0  0  0  1  0  0  0  0  0  0
  161.3630  207.5140  149.9210 C   0  0  0  0  0  0  0  0  0  0  0  0
  160.8380  211.7420  154.5340 N   0  0  0  0  0  0  0  0  0  0  0  0
  160.7680  207.4040  152.3530 C   0  0  0  0  0  0  0  0  0  0  0  0
  161.2650  210.9190  153.5430 C   0  0  0  0  0  3  0  0  0  0  0  0
  159.6600  212.3550  156.8800 Cl  0  0  0  0  0  0  0  0  0  0  0  0
  161.1020  209.5220  153.6270 C   0  0  0  0  0  0  0  0  0  0  0  0
  161.2540  206.5540  154.5820 C   0  0  0  0  0  2  0  0  0  0  0  0
  162.1150  208.7580  150.1890 C   0  0  0  0  0  3  0  0  0  0  0  0
  160.6370  207.7130  155.2540 C   0  0  0  0  0  3  0  0  0  0  0  0
  160.2280  211.2570  155.6410 C   0  0  0  0  0  0  0  0  0  0  0  0
  161.0150  206.4520  146.1220 C   0  0  0  0  0  0  0  0  0  0  0  0
  164.1570  204.3320  146.1390 O   0  0  0  0  0  0  0  0  0  0  0  0
  162.3840  204.6830  144.1380 C   0  0  0  0  0  2  0  0  0  0  0  0
  160.0290  204.1970  144.1890 O   0  0  0  0  0  1  0  0  0  0  0  0
  162.6800  204.3190  145.8650 S   0  0  0  0  0  0  0  0  0  0  0  0
  160.6680  206.3830  144.7370 N   0  0  0  0  0  2  0  0  0  0  0  0
  162.0980  202.9810  146.2230 O   0  0  0  0  0  0  0  0  0  0  0  0
  160.4860  207.6080  147.2120 S   0  0  0  0  0  0  0  0  0  0  0  0
  161.3700  207.0000  148.5280 C   0  0  0  0  0  0  0  0  0  0  0  0
  160.9580  205.2030  143.9170 C   0  0  1  0  0  3  0  0  0  0  0  0
  162.0890  205.8770  148.1080 C   0  0  0  0  0  3  0  0  0  0  0  0
  161.8820  205.5880  146.7560 C   0  0  0  0  0  0  0  0  0  0  0  0
  162.1160  205.2850  152.7200 N   0  0  0  0  0  2  0  0  0  0  0  0
  161.2210  201.9680  149.3010 C   0  0  0  0  0  1  0  0  0  0  0  0
  160.4360  202.2660  151.7040 C   0  0  0  0  0  3  0  0  0  0  0  0
  160.6880  203.2120  152.6860 C   0  0  0  0  0  3  0  0  0  0  0  0
  161.8280  203.7760  150.8680 O   0  0  0  0  0  0  0  0  0  0  0  0
  161.5560  204.1170  152.1010 C   0  0  0  0  0  0  0  0  0  0  0  0
  161.1700  202.6740  150.6090 C   0  0  0  0  0  0  0  0  0  0  0  0
  1 14  1  0  0  0  0
  2  3  1  0  0  0  0
  3 13  2  0  0  0  0
  4 16  2  0  0  0  0
  4  6  1  0  0  0  0
  5 10  1  0  0  0  0
  7  5  1  0  0  0  0
  8 15  1  0  0  0  0
  8  5  2  0  0  0  0
  9 17  1  0  0  0  0
 10  3  1  0  0  0  0
 10  1  2  0  0  0  0
 11 13  1  0  0  0  0
 11  9  2  0  0  0  0
 13  4  1  0  0  0  0
 14 16  1  0  0  0  0
 15  2  2  0  0  0  0
 17  6  2  0  0  0  0
 17 12  1  0  0  0  0
 18 29  2  0  0  0  0
 18 25  1  0  0  0  0
 20 22  1  0  0  0  0
 22 19  2  0  0  0  0
 22 24  2  0  0  0  0
 22 29  1  0  0  0  0
 23 18  1  0  0  0  0
 25 26  1  0  0  0  0
 26  8  1  0  0  0  0
 27 20  1  0  0  0  0
 27 21  1  1  0  0  0
 27 23  1  0  0  0  0
 28 26  2  0  0  0  0
 29 28  1  0  0  0  0
 30  1  1  0  0  0  0
 31 36  1  0  0  0  0
 32 33  1  0  0  0  0
 34 35  1  0  0  0  0
 35 33  2  0  0  0  0
 35 30  1  0  0  0  0
 36 34  1  0  0  0  0
 36 32  2  0  0  0  0
M  END
>  <MODEL>
3

>  <REMARK>
 VINA RESULT:      -4.7      4.557      9.218
  Name = 
  3 active torsions:
  status: ('A' for Active; 'I' for Inactive)
    1  A    between atoms: C_1  and  N_30
    2  A    between atoms: C_18  and  C_29
    3  A    between atoms: N_30  and  C_32
                            x       y       z     vdW  Elec       q    Type
                         _______ _______ _______ _____ _____    ______ ____

>  <TORSDO>
F 3

$$$$
=
 OpenBabel11042421083D

 36 41  0  0  1  0  0  0  0  0999 V2000
  160.8320  205.2440  150.8220 C   0  0  0  0  0  0  0  0  0  0  0  0
  160.3700  205.7780  147.3280 C   0  0  0  0  0  3  0  0  0  0  0  0
  160.9290  204.8870  148.3680 C   0  0  0  0  0  0  0  0  0  0  0  0
  161.3130  202.5970  149.2020 C   0  0  0  0  0  0  0  0  0  0  0  0
  161.9300  206.9930  149.3940 C   0  0  0  0  0  0  0  0  0  0  0  0
  161.5820  201.2750  148.8360 C   0  0  0  0  0  3  0  0  0  0  0  0
  162.8140  207.5480  150.3120 O   0  0  0  0  0  1  0  0  0  0  0  0
  161.4000  207.7390  148.3990 C   0  0  0  0  0  0  0  0  0  0  0  0
  161.0170  201.7430  146.5750 N   0  0  0  0  0  0  0  0  0  0  0  0
  161.5860  205.5280  149.5630 C   0  0  0  0  0  0  0  0  0  0  0  0
  160.7860  203.0460  146.8760 C   0  0  0  0  0  3  0  0  0  0  0  0
  161.7690  199.2030  147.0750 Cl  0  0  0  0  0  0  0  0  0  0  0  0
  160.9770  203.5440  148.1810 C   0  0  0  0  0  0  0  0  0  0  0  0
  160.7640  203.9910  151.2620 C   0  0  0  0  0  2  0  0  0  0  0  0
  160.5750  207.0920  147.3580 C   0  0  0  0  0  3  0  0  0  0  0  0
  161.2230  202.7960  150.5300 C   0  0  0  0  0  3  0  0  0  0  0  0
  161.4490  200.8670  147.5130 C   0  0  0  0  0  0  0  0  0  0  0  0
  162.3580  211.5810  148.4100 C   0  0  0  0  0  0  0  0  0  0  0  0
  160.4480  212.3520  145.2280 O   0  0  0  0  0  0  0  0  0  0  0  0
  161.7730  214.0590  146.8410 C   0  0  0  0  0  2  0  0  0  0  0  0
  161.3700  214.4490  149.1800 O   0  0  0  0  0  1  0  0  0  0  0  0
  160.5990  212.7180  146.6780 S   0  0  0  0  0  0  0  0  0  0  0  0
  162.9880  212.8440  148.6410 N   0  0  0  0  0  2  0  0  0  0  0  0
  159.2700  213.1160  147.2540 O   0  0  0  0  0  0  0  0  0  0  0  0
  162.8360  210.1120  149.0540 S   0  0  0  0  0  0  0  0  0  0  0  0
  161.6410  209.1990  148.2660 C   0  0  0  0  0  0  0  0  0  0  0  0
  162.3620  214.1120  148.2560 C   0  0  1  0  0  3  0  0  0  0  0  0
  160.8580  210.0570  147.4880 C   0  0  0  0  0  3  0  0  0  0  0  0
  161.2780  211.3870  147.5770 C   0  0  0  0  0  0  0  0  0  0  0  0
  160.2630  206.3300  151.5760 N   0  0  0  0  0  2  0  0  0  0  0  0
  161.3740  209.6480  154.9300 C   0  0  0  0  0  1  0  0  0  0  0  0
  161.5360  207.1100  154.8540 C   0  0  0  0  0  3  0  0  0  0  0  0
  161.2210  206.1550  153.8970 C   0  0  0  0  0  3  0  0  0  0  0  0
  160.7350  208.1560  153.0710 O   0  0  0  0  0  0  0  0  0  0  0  0
  160.7310  206.8730  152.8200 C   0  0  0  0  0  0  0  0  0  0  0  0
  161.2110  208.3210  154.2780 C   0  0  0  0  0  0  0  0  0  0  0  0
  1 14  1  0  0  0  0
  1 30  1  0  0  0  0
  2 15  2  0  0  0  0
  2  3  1  0  0  0  0
  3 10  1  0  0  0  0
  4 16  2  0  0  0  0
  5 10  1  0  0  0  0
  5  7  1  0  0  0  0
  6  4  1  0  0  0  0
  8  5  2  0  0  0  0
  9 11  2  0  0  0  0
  9 17  1  0  0  0  0
 10  1  2  0  0  0  0
 11 13  1  0  0  0  0
 12 17  1  0  0  0  0
 13  3  2  0  0  0  0
 13  4  1  0  0  0  0
 15  8  1  0  0  0  0
 16 14  1  0  0  0  0
 17  6  2  0  0  0  0
 18 23  1  0  0  0  0
 18 25  1  0  0  0  0
 19 22  2  0  0  0  0
 20 27  1  0  0  0  0
 22 20  1  0  0  0  0
 22 24  2  0  0  0  0
 22 29  1  0  0  0  0
 26  8  1  0  0  0  0
 26 25  1  0  0  0  0
 27 23  1  0  0  0  0
 27 21  1  1  0  0  0
 28 29  1  0  0  0  0
 28 26  2  0  0  0  0
 29 18  2  0  0  0  0
 30 35  1  0  0  0  0
 33 32  1  0  0  0  0
 34 36  1  0  0  0  0
 35 34  1  0  0  0  0
 35 33  2  0  0  0  0
 36 32  2  0  0  0  0
 36 31  1  0  0  0  0
M  END
>  <MODEL>
4

>  <REMARK>
 VINA RESULT:      -4.4      2.768      5.980
  Name = 
  3 active torsions:
  status: ('A' for Active; 'I' for Inactive)
    1  A    between atoms: C_1  and  N_30
    2  A    between atoms: C_18  and  C_29
    3  A    between atoms: N_30  and  C_32
                            x       y       z     vdW  Elec       q    Type
                         _______ _______ _______ _____ _____    ______ ____

>  <TORSDO>
F 3

$$$$
=
 OpenBabel11042421083D

 36 41  0  0  1  0  0  0  0  0999 V2000
  161.0970  210.8070  155.6900 C   0  0  0  0  0  0  0  0  0  0  0  0
  159.4690  211.9940  152.7490 C   0  0  0  0  0  3  0  0  0  0  0  0
  159.3300  211.6960  154.1920 C   0  0  0  0  0  0  0  0  0  0  0  0
  158.4530  212.3420  156.4060 C   0  0  0  0  0  0  0  0  0  0  0  0
  160.4490  209.4680  153.6670 C   0  0  0  0  0  0  0  0  0  0  0  0
  157.3910  212.9450  157.0860 C   0  0  0  0  0  3  0  0  0  0  0  0
  160.7790  208.1880  154.0960 O   0  0  0  0  0  1  0  0  0  0  0  0
  160.5250  209.8060  152.3600 C   0  0  0  0  0  0  0  0  0  0  0  0
  156.5580  213.8590  155.0550 N   0  0  0  0  0  0  0  0  0  0  0  0
  160.0110  210.4610  154.7230 C   0  0  0  0  0  0  0  0  0  0  0  0
  157.5470  213.2550  154.3480 C   0  0  0  0  0  3  0  0  0  0  0  0
  155.1260  214.4530  157.2610 Cl  0  0  0  0  0  0  0  0  0  0  0  0
  158.4990  212.4280  154.9770 C   0  0  0  0  0  0  0  0  0  0  0  0
  160.7730  211.3840  156.8430 C   0  0  0  0  0  2  0  0  0  0  0  0
  160.0360  211.1280  151.9150 C   0  0  0  0  0  3  0  0  0  0  0  0
  159.4340  211.8870  157.2060 C   0  0  0  0  0  3  0  0  0  0  0  0
  156.4380  213.6850  156.3920 C   0  0  0  0  0  0  0  0  0  0  0  0
  162.0280  207.7490  149.3280 C   0  0  0  0  0  0  0  0  0  0  0  0
  161.7870  204.4130  151.1110 O   0  0  0  0  0  0  0  0  0  0  0  0
  162.5830  204.9070  148.5830 C   0  0  0  0  0  2  0  0  0  0  0  0
  161.3110  205.9800  146.8480 O   0  0  0  0  0  1  0  0  0  0  0  0
  161.3770  205.1680  149.8780 S   0  0  0  0  0  0  0  0  0  0  0  0
  162.7070  207.3510  148.1340 N   0  0  0  0  0  2  0  0  0  0  0  0
  160.0180  204.7190  149.4230 O   0  0  0  0  0  0  0  0  0  0  0  0
  161.9340  209.3070  149.9340 S   0  0  0  0  0  0  0  0  0  0  0  0
  161.0440  208.8850  151.3160 C   0  0  0  0  0  0  0  0  0  0  0  0
  162.5250  206.0260  147.5360 C   0  0  1  0  0  3  0  0  0  0  0  0
  160.8170  207.5050  151.3030 C   0  0  0  0  0  3  0  0  0  0  0  0
  161.3810  206.8850  150.1840 C   0  0  0  0  0  0  0  0  0  0  0  0
  162.4580  210.4400  155.3980 N   0  0  0  0  0  2  0  0  0  0  0  0
  166.8420  212.5090  155.4300 C   0  0  0  0  0  1  0  0  0  0  0  0
  165.2070  211.8350  157.2610 C   0  0  0  0  0  3  0  0  0  0  0  0
  163.9530  211.2430  157.2580 C   0  0  0  0  0  3  0  0  0  0  0  0
  164.6300  211.4490  155.1550 O   0  0  0  0  0  0  0  0  0  0  0  0
  163.6570  211.0300  155.9220 C   0  0  0  0  0  0  0  0  0  0  0  0
  165.5660  211.9320  155.9310 C   0  0  0  0  0  0  0  0  0  0  0  0
  1 14  1  0  0  0  0
  2  3  1  0  0  0  0
  3 10  1  0  0  0  0
  3 13  2  0  0  0  0
  4  6  1  0  0  0  0
  4 16  2  0  0  0  0
  5  7  1  0  0  0  0
  5 10  1  0  0  0  0
  8  5  2  0  0  0  0
  9 17  1  0  0  0  0
 10  1  2  0  0  0  0
 11 13  1  0  0  0  0
 11  9  2  0  0  0  0
 13  4  1  0  0  0  0
 14 16  1  0  0  0  0
 15  8  1  0  0  0  0
 15  2  2  0  0  0  0
 17  6  2  0  0  0  0
 17 12  1  0  0  0  0
 18 25  1  0  0  0  0
 18 29  2  0  0  0  0
 20 22  1  0  0  0  0
 22 29  1  0  0  0  0
 22 19  2  0  0  0  0
 23 18  1  0  0  0  0
 24 22  2  0  0  0  0
 25 26  1  0  0  0  0
 26  8  1  0  0  0  0
 27 21  1  1  0  0  0
 27 23  1  0  0  0  0
 27 20  1  0  0  0  0
 28 26  2  0  0  0  0
 29 28  1  0  0  0  0
 30  1  1  0  0  0  0
 30 35  1  0  0  0  0
 31 36  1  0  0  0  0
 33 32  1  0  0  0  0
 34 35  1  0  0  0  0
 34 36  1  0  0  0  0
 35 33  2  0  0  0  0
 36 32  2  0  0  0  0
M  END
>  <MODEL>
5

>  <REMARK>
 VINA RESULT:      -4.2      4.678      9.602
  Name = 
  3 active torsions:
  status: ('A' for Active; 'I' for Inactive)
    1  A    between atoms: C_1  and  N_30
    2  A    between atoms: C_18  and  C_29
    3  A    between atoms: N_30  and  C_32
                            x       y       z     vdW  Elec       q    Type
                         _______ _______ _______ _____ _____    ______ ____

>  <TORSDO>
F 3

$$$$
