=
 OpenBabel11052410433D

 35 39  0  0  0  0  0  0  0  0999 V2000
  161.2130  205.4900  150.5810 C   0  0  0  0  0  3  0  0  0  0  0  0
  162.1880  210.9900  148.8090 C   0  0  0  0  0  0  0  0  0  0  0  0
  161.0530  204.1810  151.0750 C   0  0  0  0  0  0  0  0  0  0  0  0
  161.6820  208.8120  150.3900 C   0  0  0  0  0  0  0  0  0  0  0  0
  160.9720  203.9420  152.4670 C   0  0  0  0  0  3  0  0  0  0  0  0
  161.0400  205.0020  153.3890 C   0  0  0  0  0  3  0  0  0  0  0  0
  161.7810  210.0470  152.6540 S   0  0  0  0  0  0  0  0  0  0  0  0
  161.2700  206.5190  151.5130 C   0  0  0  0  0  0  0  0  0  0  0  0
  161.3060  207.4500  153.5850 N   0  0  0  0  0  0  0  0  0  0  0  0
  162.1260  211.1510  150.1650 N   0  0  0  0  0  0  0  0  0  0  0  0
  161.1870  206.2930  152.8830 C   0  0  0  0  0  0  0  0  0  0  0  0
  161.4570  207.8730  151.3790 C   0  0  0  0  0  0  0  0  0  0  0  0
  161.7520  208.6500  149.0130 C   0  0  0  0  0  3  0  0  0  0  0  0
  162.0030  209.7510  148.2510 N   0  0  0  0  0  0  0  0  0  0  0  0
  161.8750  210.0730  150.9440 C   0  0  0  0  0  0  0  0  0  0  0  0
  161.4750  208.3860  152.6320 C   0  0  0  0  0  0  0  0  0  0  0  0
  162.4560  212.1470  147.9450 C   0  0  0  0  0  0  0  0  0  0  0  0
  161.3990  212.7200  147.1720 N   0  0  0  0  0  2  0  0  0  0  0  0
  161.6140  213.8700  146.3080 C   0  0  0  0  0  1  0  0  0  0  0  0
  163.6190  212.6340  147.8870 O   0  0  0  0  0  0  0  0  0  0  0  0
  161.3750  207.6270  155.0300 C   0  0  0  0  0  2  0  0  0  0  0  0
  161.5150  209.9440  156.0280 C   0  0  0  0  0  3  0  0  0  0  0  0
  159.4150  209.2170  155.2260 C   0  0  0  0  0  3  0  0  0  0  0  0
  160.4490  211.2120  156.3190 S   0  0  0  0  0  0  0  0  0  0  0  0
  160.7740  208.9340  155.4180 C   0  0  0  0  0  0  0  0  0  0  0  0
  159.0770  210.4790  155.6830 C   0  0  0  0  0  0  0  0  0  0  0  0
  157.2410  211.5090  154.5410 N   0  0  0  0  0  2  0  0  0  0  0  0
  157.7330  211.0510  155.6430 C   0  0  0  0  0  3  0  0  0  0  0  0
  160.9960  203.0330  150.1290 C   0  0  0  0  0  2  0  0  0  0  0  0
  160.5830  203.5150  148.7480 C   0  0  0  0  0  2  0  0  0  0  0  0
  161.6600  203.1970  147.7250 C   0  0  0  0  0  2  0  0  0  0  0  0
  163.4390  204.8400  146.1690 O   0  0  0  0  0  0  0  0  0  0  0  0
  160.9690  204.0490  144.9530 C   0  0  0  0  0  1  0  0  0  0  0  0
  161.8070  204.5280  146.4920 P   0  0  1  0  0  0  0  0  0  0  0  0
  161.1600  205.7810  147.0370 O   0  0  0  0  0  1  0  0  0  0  0  0
  1  3  2  0  0  0  0
  1  8  1  0  0  0  0
  2 10  2  0  0  0  0
  3  5  1  0  0  0  0
  4 15  2  0  0  0  0
  4 12  1  0  0  0  0
  5  6  2  0  0  0  0
  8 11  2  0  0  0  0
  9 21  1  0  0  0  0
 10 15  1  0  0  0  0
 11  6  1  0  0  0  0
 11  9  1  0  0  0  0
 12  8  1  0  0  0  0
 12 16  2  0  0  0  0
 13  4  1  0  0  0  0
 14  2  1  0  0  0  0
 14 13  2  0  0  0  0
 15  7  1  0  0  0  0
 16  7  1  0  0  0  0
 16  9  1  0  0  0  0
 17  2  1  0  0  0  0
 18 17  1  0  0  0  0
 19 18  1  0  0  0  0
 20 17  2  0  0  0  0
 21 25  1  0  0  0  0
 22 24  1  0  0  0  0
 23 25  1  0  0  0  0
 23 26  2  0  0  0  0
 25 22  2  0  0  0  0
 26 24  1  0  0  0  0
 27 28  2  0  0  0  0
 28 26  1  0  0  0  0
 29  3  1  0  0  0  0
 30 29  1  0  0  0  0
 31 30  1  0  0  0  0
 32 34  2  0  0  0  0
 34 33  1  6  0  0  0
 34 35  1  0  0  0  0
 34 31  1  0  0  0  0
M  END
>  <MODEL>
1

>  <REMARK>
 VINA RESULT:      -8.8      0.000      0.000
  Name = 
  8 active torsions:
  status: ('A' for Active; 'I' for Inactive)
    1  A    between atoms: C_2  and  C_30
    2  A    between atoms: C_2  and  C_32
    3  A    between atoms: C_5  and  C_7
    4  A    between atoms: C_8  and  C_30
    5  A    between atoms: C_14  and  C_19
    6  A    between atoms: C_17  and  C_22
    7  A    between atoms: N_20  and  C_22
    8  A    between atoms: P_23  and  C_32
                            x       y       z     vdW  Elec       q    Type
                         _______ _______ _______ _____ _____    ______ ____

>  <TORSDO>
F 8

$$$$
=
 OpenBabel11052410433D

 35 39  0  0  0  0  0  0  0  0999 V2000
  160.8530  208.0360  152.8080 C   0  0  0  0  0  3  0  0  0  0  0  0
  161.2720  204.1100  148.4780 C   0  0  0  0  0  0  0  0  0  0  0  0
  160.8460  209.0110  153.8250 C   0  0  0  0  0  0  0  0  0  0  0  0
  161.2960  206.4680  149.8690 C   0  0  0  0  0  0  0  0  0  0  0  0
  161.2430  210.3400  153.5490 C   0  0  0  0  0  3  0  0  0  0  0  0
  161.6450  210.7230  152.2570 C   0  0  0  0  0  3  0  0  0  0  0  0
  162.1910  207.9460  147.9510 S   0  0  0  0  0  0  0  0  0  0  0  0
  161.2480  208.4430  151.5390 C   0  0  0  0  0  0  0  0  0  0  0  0
  162.0120  209.8870  149.9620 N   0  0  0  0  0  0  0  0  0  0  0  0
  161.6830  205.2510  147.8470 N   0  0  0  0  0  0  0  0  0  0  0  0
  161.6350  209.7480  151.2590 C   0  0  0  0  0  0  0  0  0  0  0  0
  161.4040  207.7560  150.3610 C   0  0  0  0  0  0  0  0  0  0  0  0
  160.8850  205.3080  150.5090 C   0  0  0  0  0  3  0  0  0  0  0  0
  160.8810  204.1480  149.7920 N   0  0  0  0  0  0  0  0  0  0  0  0
  161.6920  206.4160  148.5370 C   0  0  0  0  0  0  0  0  0  0  0  0
  161.8620  208.6490  149.4520 C   0  0  0  0  0  0  0  0  0  0  0  0
  161.2500  202.8360  147.7470 C   0  0  0  0  0  0  0  0  0  0  0  0
  161.2840  201.6000  148.4650 N   0  0  0  0  0  2  0  0  0  0  0  0
  161.2580  200.3150  147.7870 C   0  0  0  0  0  1  0  0  0  0  0  0
  161.2000  202.8340  146.4870 O   0  0  0  0  0  0  0  0  0  0  0  0
  162.5770  211.0580  149.3050 C   0  0  0  0  0  2  0  0  0  0  0  0
  160.8640  212.9120  149.4330 C   0  0  0  0  0  3  0  0  0  0  0  0
  161.0040  211.6820  147.4210 C   0  0  0  0  0  3  0  0  0  0  0  0
  159.6930  213.5620  148.4150 S   0  0  0  0  0  0  0  0  0  0  0  0
  161.4910  211.8930  148.7180 C   0  0  0  0  0  0  0  0  0  0  0  0
  159.9830  212.5580  147.0990 C   0  0  0  0  0  0  0  0  0  0  0  0
  159.8210  212.1490  144.7450 N   0  0  0  0  0  2  0  0  0  0  0  0
  159.2600  212.5690  145.8290 C   0  0  0  0  0  3  0  0  0  0  0  0
  160.4440  208.6370  155.2090 C   0  0  0  0  0  2  0  0  0  0  0  0
  160.7720  209.7660  156.1720 C   0  0  0  0  0  2  0  0  0  0  0  0
  159.5250  210.2160  156.9140 C   0  0  0  0  0  2  0  0  0  0  0  0
  158.0090  211.2520  154.6970 O   0  0  0  0  0  0  0  0  0  0  0  0
  157.5980  212.4630  157.2590 C   0  0  0  0  0  1  0  0  0  0  0  0
  158.7930  211.6880  156.1320 P   0  0  1  0  0  0  0  0  0  0  0  0
  159.8910  212.6790  155.8180 O   0  0  0  0  0  1  0  0  0  0  0  0
  1  3  1  0  0  0  0
  2 14  1  0  0  0  0
  3 29  1  0  0  0  0
  4 12  1  0  0  0  0
  4 13  1  0  0  0  0
  5  3  2  0  0  0  0
  6  5  1  0  0  0  0
  7 15  1  0  0  0  0
  7 16  1  0  0  0  0
  8  1  2  0  0  0  0
  9 11  1  0  0  0  0
 10  2  2  0  0  0  0
 10 15  1  0  0  0  0
 11  8  1  0  0  0  0
 11  6  2  0  0  0  0
 12  8  1  0  0  0  0
 14 13  2  0  0  0  0
 15  4  2  0  0  0  0
 16  9  1  0  0  0  0
 16 12  2  0  0  0  0
 17 18  1  0  0  0  0
 17  2  1  0  0  0  0
 19 18  1  0  0  0  0
 20 17  2  0  0  0  0
 21  9  1  0  0  0  0
 23 25  1  0  0  0  0
 24 22  1  0  0  0  0
 25 21  1  0  0  0  0
 25 22  2  0  0  0  0
 26 23  2  0  0  0  0
 26 24  1  0  0  0  0
 27 28  2  0  0  0  0
 28 26  1  0  0  0  0
 29 30  1  0  0  0  0
 30 31  1  0  0  0  0
 32 34  2  0  0  0  0
 34 31  1  0  0  0  0
 34 33  1  1  0  0  0
 35 34  1  0  0  0  0
M  END
>  <MODEL>
2

>  <REMARK>
 VINA RESULT:      -8.0      3.980      8.250
  Name = 
  8 active torsions:
  status: ('A' for Active; 'I' for Inactive)
    1  A    between atoms: C_2  and  C_30
    2  A    between atoms: C_2  and  C_32
    3  A    between atoms: C_5  and  C_7
    4  A    between atoms: C_8  and  C_30
    5  A    between atoms: C_14  and  C_19
    6  A    between atoms: C_17  and  C_22
    7  A    between atoms: N_20  and  C_22
    8  A    between atoms: P_23  and  C_32
                            x       y       z     vdW  Elec       q    Type
                         _______ _______ _______ _____ _____    ______ ____

>  <TORSDO>
F 8

$$$$
=
 OpenBabel11052410433D

 35 39  0  0  0  0  0  0  0  0999 V2000
  161.3130  205.6610  151.1030 C   0  0  0  0  0  3  0  0  0  0  0  0
  162.1530  210.9920  148.8190 C   0  0  0  0  0  0  0  0  0  0  0  0
  161.1830  204.4020  151.7210 C   0  0  0  0  0  0  0  0  0  0  0  0
  161.6710  208.9640  150.5940 C   0  0  0  0  0  0  0  0  0  0  0  0
  161.0630  204.2990  153.1270 C   0  0  0  0  0  3  0  0  0  0  0  0
  161.0620  205.4480  153.9390 C   0  0  0  0  0  3  0  0  0  0  0  0
  161.6480  210.4200  152.7250 S   0  0  0  0  0  0  0  0  0  0  0  0
  161.3020  206.7790  151.9290 C   0  0  0  0  0  0  0  0  0  0  0  0
  161.2350  207.9110  153.8970 N   0  0  0  0  0  0  0  0  0  0  0  0
  162.0390  211.2850  150.1490 N   0  0  0  0  0  0  0  0  0  0  0  0
  161.1800  206.6870  153.3110 C   0  0  0  0  0  0  0  0  0  0  0  0
  161.4450  208.1190  151.6650 C   0  0  0  0  0  0  0  0  0  0  0  0
  161.7930  208.6680  149.2440 C   0  0  0  0  0  3  0  0  0  0  0  0
  162.0310  209.6980  148.3820 N   0  0  0  0  0  0  0  0  0  0  0  0
  161.7990  210.2800  151.0250 C   0  0  0  0  0  0  0  0  0  0  0  0
  161.4020  208.7550  152.8600 C   0  0  0  0  0  0  0  0  0  0  0  0
  162.4080  212.0680  147.8510 C   0  0  0  0  0  0  0  0  0  0  0  0
  161.3790  212.4730  146.9460 N   0  0  0  0  0  2  0  0  0  0  0  0
  161.5830  213.5360  145.9760 C   0  0  0  0  0  1  0  0  0  0  0  0
  163.5360  212.6330  147.8220 O   0  0  0  0  0  0  0  0  0  0  0  0
  161.2480  208.2330  155.3180 C   0  0  0  0  0  2  0  0  0  0  0  0
  161.0040  210.6120  156.1330 C   0  0  0  0  0  3  0  0  0  0  0  0
  159.0740  209.5300  155.3060 C   0  0  0  0  0  3  0  0  0  0  0  0
  159.7550  211.7300  156.2770 S   0  0  0  0  0  0  0  0  0  0  0  0
  160.4480  209.4630  155.5750 C   0  0  0  0  0  0  0  0  0  0  0  0
  158.5360  210.7590  155.6460 C   0  0  0  0  0  0  0  0  0  0  0  0
  156.5230  211.7940  156.4290 N   0  0  0  0  0  2  0  0  0  0  0  0
  157.1280  211.1240  155.5060 C   0  0  0  0  0  3  0  0  0  0  0  0
  161.1990  203.1650  150.8930 C   0  0  0  0  0  2  0  0  0  0  0  0
  160.1700  203.2680  149.7790 C   0  0  0  0  0  2  0  0  0  0  0  0
  159.9450  201.9130  149.1300 C   0  0  0  0  0  2  0  0  0  0  0  0
  161.9590  203.0610  147.4240 O   0  0  0  0  0  1  0  0  0  0  0  0
  161.7920  200.2040  147.5350 C   0  0  0  0  0  1  0  0  0  0  0  0
  160.8740  201.7700  147.5720 P   0  0  1  0  0  0  0  0  0  0  0  0
  159.9030  201.8010  146.4120 O   0  0  0  0  0  0  0  0  0  0  0  0
  1  3  2  0  0  0  0
  1  8  1  0  0  0  0
  2 10  2  0  0  0  0
  3  5  1  0  0  0  0
  4 15  2  0  0  0  0
  4 12  1  0  0  0  0
  5  6  2  0  0  0  0
  7 16  1  0  0  0  0
  8 11  2  0  0  0  0
  9 21  1  0  0  0  0
 10 15  1  0  0  0  0
 11  9  1  0  0  0  0
 11  6  1  0  0  0  0
 12  8  1  0  0  0  0
 12 16  2  0  0  0  0
 13  4  1  0  0  0  0
 14  2  1  0  0  0  0
 14 13  2  0  0  0  0
 15  7  1  0  0  0  0
 16  9  1  0  0  0  0
 17  2  1  0  0  0  0
 18 17  1  0  0  0  0
 19 18  1  0  0  0  0
 20 17  2  0  0  0  0
 21 25  1  0  0  0  0
 22 24  1  0  0  0  0
 23 25  1  0  0  0  0
 23 26  2  0  0  0  0
 25 22  2  0  0  0  0
 26 24  1  0  0  0  0
 28 26  1  0  0  0  0
 28 27  2  0  0  0  0
 29  3  1  0  0  0  0
 30 29  1  0  0  0  0
 31 30  1  0  0  0  0
 32 34  1  0  0  0  0
 34 33  1  6  0  0  0
 34 31  1  0  0  0  0
 35 34  2  0  0  0  0
M  END
>  <MODEL>
3

>  <REMARK>
 VINA RESULT:      -7.1      1.380      1.477
  Name = 
  8 active torsions:
  status: ('A' for Active; 'I' for Inactive)
    1  A    between atoms: C_2  and  C_30
    2  A    between atoms: C_2  and  C_32
    3  A    between atoms: C_5  and  C_7
    4  A    between atoms: C_8  and  C_30
    5  A    between atoms: C_14  and  C_19
    6  A    between atoms: C_17  and  C_22
    7  A    between atoms: N_20  and  C_22
    8  A    between atoms: P_23  and  C_32
                            x       y       z     vdW  Elec       q    Type
                         _______ _______ _______ _____ _____    ______ ____

>  <TORSDO>
F 8

$$$$
=
 OpenBabel11052410433D

 35 39  0  0  0  0  0  0  0  0999 V2000
  161.6180  208.7800  150.5080 C   0  0  0  0  0  3  0  0  0  0  0  0
  161.0660  203.2550  148.6340 C   0  0  0  0  0  0  0  0  0  0  0  0
  161.6650  210.0940  151.0140 C   0  0  0  0  0  0  0  0  0  0  0  0
  161.2630  205.4470  150.2630 C   0  0  0  0  0  0  0  0  0  0  0  0
  161.5200  210.3370  152.3990 C   0  0  0  0  0  3  0  0  0  0  0  0
  161.3330  209.2770  153.3050 C   0  0  0  0  0  3  0  0  0  0  0  0
  160.8390  204.2140  152.4900 S   0  0  0  0  0  0  0  0  0  0  0  0
  161.4380  207.7520  151.4250 C   0  0  0  0  0  0  0  0  0  0  0  0
  161.0980  206.8240  153.4700 N   0  0  0  0  0  0  0  0  0  0  0  0
  160.9170  203.0980  149.9840 N   0  0  0  0  0  0  0  0  0  0  0  0
  161.2990  207.9820  152.7890 C   0  0  0  0  0  0  0  0  0  0  0  0
  161.3080  206.3940  151.2700 C   0  0  0  0  0  0  0  0  0  0  0  0
  161.4080  205.6060  148.8920 C   0  0  0  0  0  3  0  0  0  0  0  0
  161.3070  204.4970  148.1050 N   0  0  0  0  0  0  0  0  0  0  0  0
  161.0160  204.1830  150.7870 C   0  0  0  0  0  0  0  0  0  0  0  0
  161.1040  205.8820  152.5070 C   0  0  0  0  0  0  0  0  0  0  0  0
  160.9660  202.0900  147.7450 C   0  0  0  0  0  0  0  0  0  0  0  0
  160.6060  202.2680  146.3730 N   0  0  0  0  0  2  0  0  0  0  0  0
  160.5010  201.1470  145.4530 C   0  0  0  0  0  1  0  0  0  0  0  0
  161.1980  200.9340  148.1940 O   0  0  0  0  0  0  0  0  0  0  0  0
  160.8060  206.6480  154.8860 C   0  0  0  0  0  2  0  0  0  0  0  0
  161.8750  208.4850  156.2530 C   0  0  0  0  0  3  0  0  0  0  0  0
  159.6180  208.7630  155.6120 C   0  0  0  0  0  3  0  0  0  0  0  0
  161.3930  209.9620  156.8980 S   0  0  0  0  0  0  0  0  0  0  0  0
  160.7730  207.9700  155.5740 C   0  0  0  0  0  0  0  0  0  0  0  0
  159.8140  209.9330  156.3240 C   0  0  0  0  0  0  0  0  0  0  0  0
  158.1480  211.4820  155.5740 N   0  0  0  0  0  2  0  0  0  0  0  0
  158.7910  210.9500  156.5590 C   0  0  0  0  0  3  0  0  0  0  0  0
  161.8440  211.2410  150.0810 C   0  0  0  0  0  2  0  0  0  0  0  0
  162.2300  210.7370  148.7000 C   0  0  0  0  0  2  0  0  0  0  0  0
  162.9030  211.8380  147.8970 C   0  0  0  0  0  2  0  0  0  0  0  0
  160.1770  212.1690  147.0340 O   0  0  0  0  0  1  0  0  0  0  0  0
  161.4860  214.4450  148.1770 C   0  0  0  0  0  1  0  0  0  0  0  0
  161.6710  212.9550  147.1560 P   0  0  1  0  0  0  0  0  0  0  0  0
  162.1360  213.3570  145.7740 O   0  0  0  0  0  0  0  0  0  0  0  0
  1  3  2  0  0  0  0
  1  8  1  0  0  0  0
  2 10  2  0  0  0  0
  3  5  1  0  0  0  0
  4 15  2  0  0  0  0
  4 12  1  0  0  0  0
  5  6  2  0  0  0  0
  7 16  1  0  0  0  0
  8 11  2  0  0  0  0
  9 21  1  0  0  0  0
 10 15  1  0  0  0  0
 11  6  1  0  0  0  0
 11  9  1  0  0  0  0
 12  8  1  0  0  0  0
 12 16  2  0  0  0  0
 13  4  1  0  0  0  0
 14  2  1  0  0  0  0
 14 13  2  0  0  0  0
 15  7  1  0  0  0  0
 16  9  1  0  0  0  0
 17 20  2  0  0  0  0
 17  2  1  0  0  0  0
 18 17  1  0  0  0  0
 19 18  1  0  0  0  0
 21 25  1  0  0  0  0
 22 24  1  0  0  0  0
 23 26  2  0  0  0  0
 25 23  1  0  0  0  0
 25 22  2  0  0  0  0
 26 28  1  0  0  0  0
 26 24  1  0  0  0  0
 27 28  2  0  0  0  0
 29  3  1  0  0  0  0
 30 29  1  0  0  0  0
 31 30  1  0  0  0  0
 32 34  1  0  0  0  0
 34 31  1  0  0  0  0
 34 33  1  1  0  0  0
 35 34  2  0  0  0  0
M  END
>  <MODEL>
4

>  <REMARK>
 VINA RESULT:      -6.8      2.976      6.357
  Name = 
  8 active torsions:
  status: ('A' for Active; 'I' for Inactive)
    1  A    between atoms: C_2  and  C_30
    2  A    between atoms: C_2  and  C_32
    3  A    between atoms: C_5  and  C_7
    4  A    between atoms: C_8  and  C_30
    5  A    between atoms: C_14  and  C_19
    6  A    between atoms: C_17  and  C_22
    7  A    between atoms: N_20  and  C_22
    8  A    between atoms: P_23  and  C_32
                            x       y       z     vdW  Elec       q    Type
                         _______ _______ _______ _____ _____    ______ ____

>  <TORSDO>
F 8

$$$$
=
 OpenBabel11052410433D

 35 39  0  0  0  0  0  0  0  0999 V2000
  161.9900  209.1810  148.7340 C   0  0  0  0  0  3  0  0  0  0  0  0
  161.0950  203.4550  147.8680 C   0  0  0  0  0  0  0  0  0  0  0  0
  162.1250  210.5560  149.0050 C   0  0  0  0  0  0  0  0  0  0  0  0
  161.4960  205.8750  149.0840 C   0  0  0  0  0  0  0  0  0  0  0  0
  162.0940  211.0340  150.3360 C   0  0  0  0  0  3  0  0  0  0  0  0
  161.9370  210.1500  151.4190 C   0  0  0  0  0  3  0  0  0  0  0  0
  161.1960  205.0520  151.5120 S   0  0  0  0  0  0  0  0  0  0  0  0
  161.8430  208.3290  149.8230 C   0  0  0  0  0  0  0  0  0  0  0  0
  161.6250  207.7730  152.0140 N   0  0  0  0  0  0  0  0  0  0  0  0
  161.0430  203.5310  149.2320 N   0  0  0  0  0  0  0  0  0  0  0  0
  161.8160  208.7900  151.1340 C   0  0  0  0  0  0  0  0  0  0  0  0
  161.6520  206.9730  149.9100 C   0  0  0  0  0  0  0  0  0  0  0  0
  161.5420  205.7950  147.6990 C   0  0  0  0  0  3  0  0  0  0  0  0
  161.3410  204.5770  147.1210 N   0  0  0  0  0  0  0  0  0  0  0  0
  161.2430  204.7300  149.8310 C   0  0  0  0  0  0  0  0  0  0  0  0
  161.5240  206.6850  151.2270 C   0  0  0  0  0  0  0  0  0  0  0  0
  160.8850  202.1640  147.1990 C   0  0  0  0  0  0  0  0  0  0  0  0
  160.4600  202.1280  145.8340 N   0  0  0  0  0  2  0  0  0  0  0  0
  160.2450  200.8760  145.1280 C   0  0  0  0  0  1  0  0  0  0  0  0
  161.0800  201.0890  147.8300 O   0  0  0  0  0  0  0  0  0  0  0  0
  161.4350  207.8500  153.4570 C   0  0  0  0  0  2  0  0  0  0  0  0
  161.5840  210.0320  154.7230 C   0  0  0  0  0  3  0  0  0  0  0  0
  159.6910  209.6820  153.3540 C   0  0  0  0  0  3  0  0  0  0  0  0
  160.6350  211.4110  154.8910 S   0  0  0  0  0  0  0  0  0  0  0  0
  160.9120  209.1930  153.8360 C   0  0  0  0  0  0  0  0  0  0  0  0
  159.3970  210.9370  153.8580 C   0  0  0  0  0  0  0  0  0  0  0  0
  158.2070  212.6720  152.7140 N   0  0  0  0  0  2  0  0  0  0  0  0
  158.1840  211.6960  153.5590 C   0  0  0  0  0  3  0  0  0  0  0  0
  162.2740  211.5220  147.8820 C   0  0  0  0  0  2  0  0  0  0  0  0
  161.1140  212.5040  147.8800 C   0  0  0  0  0  2  0  0  0  0  0  0
  160.1620  212.2070  146.7330 C   0  0  0  0  0  2  0  0  0  0  0  0
  157.2840  212.2040  146.7680 O   0  0  0  0  0  1  0  0  0  0  0  0
  158.6240  214.1030  148.4420 C   0  0  0  0  0  1  0  0  0  0  0  0
  158.6460  213.2050  146.8640 P   0  0  1  0  0  0  0  0  0  0  0  0
  158.6110  214.2030  145.7280 O   0  0  0  0  0  0  0  0  0  0  0  0
  1  3  2  0  0  0  0
  1  8  1  0  0  0  0
  2 10  2  0  0  0  0
  3  5  1  0  0  0  0
  4 15  2  0  0  0  0
  4 12  1  0  0  0  0
  5  6  2  0  0  0  0
  8 12  1  0  0  0  0
  8 11  2  0  0  0  0
  9 21  1  0  0  0  0
 10 15  1  0  0  0  0
 11  6  1  0  0  0  0
 11  9  1  0  0  0  0
 12 16  2  0  0  0  0
 13  4  1  0  0  0  0
 14 13  2  0  0  0  0
 14  2  1  0  0  0  0
 15  7  1  0  0  0  0
 16  7  1  0  0  0  0
 16  9  1  0  0  0  0
 17 20  2  0  0  0  0
 17  2  1  0  0  0  0
 18 17  1  0  0  0  0
 19 18  1  0  0  0  0
 21 25  1  0  0  0  0
 22 24  1  0  0  0  0
 23 25  1  0  0  0  0
 23 26  2  0  0  0  0
 25 22  2  0  0  0  0
 26 24  1  0  0  0  0
 27 28  2  0  0  0  0
 28 26  1  0  0  0  0
 29  3  1  0  0  0  0
 30 29  1  0  0  0  0
 31 34  1  0  0  0  0
 31 30  1  0  0  0  0
 32 34  1  0  0  0  0
 34 33  1  1  0  0  0
 35 34  2  0  0  0  0
M  END
>  <MODEL>
5

>  <REMARK>
 VINA RESULT:      -6.8      3.448      6.718
  Name = 
  8 active torsions:
  status: ('A' for Active; 'I' for Inactive)
    1  A    between atoms: C_2  and  C_30
    2  A    between atoms: C_2  and  C_32
    3  A    between atoms: C_5  and  C_7
    4  A    between atoms: C_8  and  C_30
    5  A    between atoms: C_14  and  C_19
    6  A    between atoms: C_17  and  C_22
    7  A    between atoms: N_20  and  C_22
    8  A    between atoms: P_23  and  C_32
                            x       y       z     vdW  Elec       q    Type
                         _______ _______ _______ _____ _____    ______ ____

>  <TORSDO>
F 8

$$$$
=
 OpenBabel11052410433D

 35 39  0  0  0  0  0  0  0  0999 V2000
  160.7280  213.0850  149.5870 C   0  0  0  0  0  3  0  0  0  0  0  0
  158.1300  212.7330  154.8280 C   0  0  0  0  0  0  0  0  0  0  0  0
  161.4400  213.1440  148.3730 C   0  0  0  0  0  0  0  0  0  0  0  0
  159.5930  212.1140  152.5980 C   0  0  0  0  0  0  0  0  0  0  0  0
  162.3000  212.0870  147.9920 C   0  0  0  0  0  3  0  0  0  0  0  0
  162.4590  210.9520  148.8080 C   0  0  0  0  0  3  0  0  0  0  0  0
  160.4920  209.8460  153.4400 S   0  0  0  0  0  0  0  0  0  0  0  0
  160.8990  211.9500  150.3710 C   0  0  0  0  0  0  0  0  0  0  0  0
  161.7650  209.9310  150.9470 N   0  0  0  0  0  0  0  0  0  0  0  0
  158.8200  211.5530  154.7900 N   0  0  0  0  0  0  0  0  0  0  0  0
  161.7390  210.9060  150.0010 C   0  0  0  0  0  0  0  0  0  0  0  0
  160.3990  211.5980  151.6000 C   0  0  0  0  0  0  0  0  0  0  0  0
  158.8980  213.3140  152.6410 C   0  0  0  0  0  3  0  0  0  0  0  0
  158.1760  213.5950  153.7630 N   0  0  0  0  0  0  0  0  0  0  0  0
  159.5410  211.2490  153.6850 C   0  0  0  0  0  0  0  0  0  0  0  0
  160.9410  210.3950  151.9060 C   0  0  0  0  0  0  0  0  0  0  0  0
  157.3380  213.0800  156.0150 C   0  0  0  0  0  0  0  0  0  0  0  0
  155.9210  212.8900  156.0090 N   0  0  0  0  0  2  0  0  0  0  0  0
  155.0960  213.2120  157.1620 C   0  0  0  0  0  1  0  0  0  0  0  0
  157.9100  213.5450  157.0390 O   0  0  0  0  0  0  0  0  0  0  0  0
  162.5920  208.7320  150.9860 C   0  0  0  0  0  2  0  0  0  0  0  0
  161.3420  206.5360  151.0210 C   0  0  0  0  0  3  0  0  0  0  0  0
  161.7750  207.5210  148.9180 C   0  0  0  0  0  3  0  0  0  0  0  0
  160.6900  205.4860  149.8800 S   0  0  0  0  0  0  0  0  0  0  0  0
  161.8920  207.6020  150.3120 C   0  0  0  0  0  0  0  0  0  0  0  0
  161.1090  206.3760  148.5170 C   0  0  0  0  0  0  0  0  0  0  0  0
  161.7520  206.1780  146.2190 N   0  0  0  0  0  2  0  0  0  0  0  0
  160.8540  206.0010  147.1290 C   0  0  0  0  0  3  0  0  0  0  0  0
  161.3100  214.3380  147.4940 C   0  0  0  0  0  2  0  0  0  0  0  0
  161.8570  214.0300  146.1100 C   0  0  0  0  0  2  0  0  0  0  0  0
  160.8640  214.4440  145.0370 C   0  0  0  0  0  2  0  0  0  0  0  0
  159.6480  211.8360  144.9850 O   0  0  0  0  0  1  0  0  0  0  0  0
  159.1960  213.5490  142.7350 C   0  0  0  0  0  1  0  0  0  0  0  0
  160.3700  213.0210  144.0160 P   0  0  1  0  0  0  0  0  0  0  0  0
  161.5980  212.4390  143.3510 O   0  0  0  0  0  0  0  0  0  0  0  0
  1  8  1  0  0  0  0
  2 17  1  0  0  0  0
  3  1  2  0  0  0  0
  4 13  1  0  0  0  0
  4 15  2  0  0  0  0
  5  3  1  0  0  0  0
  5  6  2  0  0  0  0
  6 11  1  0  0  0  0
  7 15  1  0  0  0  0
  8 12  1  0  0  0  0
  9 21  1  0  0  0  0
  9 16  1  0  0  0  0
 10  2  2  0  0  0  0
 11  8  2  0  0  0  0
 11  9  1  0  0  0  0
 12 16  2  0  0  0  0
 12  4  1  0  0  0  0
 13 14  2  0  0  0  0
 14  2  1  0  0  0  0
 15 10  1  0  0  0  0
 16  7  1  0  0  0  0
 17 20  2  0  0  0  0
 18 17  1  0  0  0  0
 18 19  1  0  0  0  0
 23 25  1  0  0  0  0
 24 22  1  0  0  0  0
 25 21  1  0  0  0  0
 25 22  2  0  0  0  0
 26 23  2  0  0  0  0
 26 24  1  0  0  0  0
 27 28  2  0  0  0  0
 28 26  1  0  0  0  0
 29  3  1  0  0  0  0
 30 29  1  0  0  0  0
 31 30  1  0  0  0  0
 34 33  1  6  0  0  0
 34 32  1  0  0  0  0
 34 31  1  0  0  0  0
 35 34  2  0  0  0  0
M  END
>  <MODEL>
6

>  <REMARK>
 VINA RESULT:      -6.0      3.504      8.087
  Name = 
  8 active torsions:
  status: ('A' for Active; 'I' for Inactive)
    1  A    between atoms: C_2  and  C_30
    2  A    between atoms: C_2  and  C_32
    3  A    between atoms: C_5  and  C_7
    4  A    between atoms: C_8  and  C_30
    5  A    between atoms: C_14  and  C_19
    6  A    between atoms: C_17  and  C_22
    7  A    between atoms: N_20  and  C_22
    8  A    between atoms: P_23  and  C_32
                            x       y       z     vdW  Elec       q    Type
                         _______ _______ _______ _____ _____    ______ ____

>  <TORSDO>
F 8

$$$$
=
 OpenBabel11052410433D

 35 39  0  0  0  0  0  0  0  0999 V2000
  160.9180  206.6250  152.3250 C   0  0  0  0  0  3  0  0  0  0  0  0
  160.9130  203.0370  147.6920 C   0  0  0  0  0  0  0  0  0  0  0  0
  161.0160  207.5110  153.4160 C   0  0  0  0  0  0  0  0  0  0  0  0
  161.1760  205.2640  149.2630 C   0  0  0  0  0  0  0  0  0  0  0  0
  161.5330  208.8150  153.2380 C   0  0  0  0  0  3  0  0  0  0  0  0
  161.9540  209.2620  151.9720 C   0  0  0  0  0  3  0  0  0  0  0  0
  162.1830  206.8010  147.4510 S   0  0  0  0  0  0  0  0  0  0  0  0
  161.3350  207.0930  151.0850 C   0  0  0  0  0  0  0  0  0  0  0  0
  162.2120  208.5820  149.6110 N   0  0  0  0  0  0  0  0  0  0  0  0
  161.4220  204.1820  147.1450 N   0  0  0  0  0  0  0  0  0  0  0  0
  161.8400  208.3750  150.9010 C   0  0  0  0  0  0  0  0  0  0  0  0
  161.4110  206.4920  149.8530 C   0  0  0  0  0  0  0  0  0  0  0  0
  160.6660  204.0990  149.8180 C   0  0  0  0  0  3  0  0  0  0  0  0
  160.5430  203.0060  149.0120 N   0  0  0  0  0  0  0  0  0  0  0  0
  161.5500  205.2820  147.9240 C   0  0  0  0  0  0  0  0  0  0  0  0
  161.9400  207.4090  149.0080 C   0  0  0  0  0  0  0  0  0  0  0  0
  160.7620  201.8340  146.8630 C   0  0  0  0  0  0  0  0  0  0  0  0
  160.2060  201.9370  145.5500 N   0  0  0  0  0  2  0  0  0  0  0  0
  160.0440  200.7760  144.6900 C   0  0  0  0  0  1  0  0  0  0  0  0
  161.1240  200.7120  147.3110 O   0  0  0  0  0  0  0  0  0  0  0  0
  162.8770  209.7450  149.0380 C   0  0  0  0  0  2  0  0  0  0  0  0
  161.6620  211.5460  147.7480 C   0  0  0  0  0  3  0  0  0  0  0  0
  161.2640  211.4010  150.0720 C   0  0  0  0  0  3  0  0  0  0  0  0
  160.5720  212.7780  148.1050 S   0  0  0  0  0  0  0  0  0  0  0  0
  161.9260  210.8890  148.9480 C   0  0  0  0  0  0  0  0  0  0  0  0
  160.4520  212.4750  149.7540 C   0  0  0  0  0  0  0  0  0  0  0  0
  159.0810  212.6450  151.7100 N   0  0  0  0  0  2  0  0  0  0  0  0
  159.6540  213.2340  150.7140 C   0  0  0  0  0  3  0  0  0  0  0  0
  160.5970  207.0660  154.7730 C   0  0  0  0  0  2  0  0  0  0  0  0
  160.1530  208.2600  155.6010 C   0  0  0  0  0  2  0  0  0  0  0  0
  161.3430  209.1340  155.9620 C   0  0  0  0  0  2  0  0  0  0  0  0
  160.7740  211.7240  154.8420 O   0  0  0  0  0  0  0  0  0  0  0  0
  159.1770  210.8640  157.0590 C   0  0  0  0  0  1  0  0  0  0  0  0
  160.8220  210.8480  156.2890 P   0  0  1  0  0  0  0  0  0  0  0  0
  161.8140  211.4950  157.2300 O   0  0  0  0  0  1  0  0  0  0  0  0
  1  3  1  0  0  0  0
  2 14  1  0  0  0  0
  3 29  1  0  0  0  0
  4 13  1  0  0  0  0
  4 12  1  0  0  0  0
  5  3  2  0  0  0  0
  6  5  1  0  0  0  0
  7 15  1  0  0  0  0
  7 16  1  0  0  0  0
  8  1  2  0  0  0  0
  9 11  1  0  0  0  0
 10  2  2  0  0  0  0
 10 15  1  0  0  0  0
 11  8  1  0  0  0  0
 11  6  2  0  0  0  0
 12  8  1  0  0  0  0
 14 13  2  0  0  0  0
 15  4  2  0  0  0  0
 16  9  1  0  0  0  0
 16 12  2  0  0  0  0
 17 20  2  0  0  0  0
 17  2  1  0  0  0  0
 18 17  1  0  0  0  0
 19 18  1  0  0  0  0
 21  9  1  0  0  0  0
 22 24  1  0  0  0  0
 22 25  2  0  0  0  0
 24 26  1  0  0  0  0
 25 21  1  0  0  0  0
 25 23  1  0  0  0  0
 26 23  2  0  0  0  0
 26 28  1  0  0  0  0
 28 27  2  0  0  0  0
 29 30  1  0  0  0  0
 30 31  1  0  0  0  0
 31 34  1  0  0  0  0
 32 34  2  0  0  0  0
 34 33  1  1  0  0  0
 34 35  1  0  0  0  0
M  END
>  <MODEL>
7

>  <REMARK>
 VINA RESULT:      -5.9      4.145      7.764
  Name = 
  8 active torsions:
  status: ('A' for Active; 'I' for Inactive)
    1  A    between atoms: C_2  and  C_30
    2  A    between atoms: C_2  and  C_32
    3  A    between atoms: C_5  and  C_7
    4  A    between atoms: C_8  and  C_30
    5  A    between atoms: C_14  and  C_19
    6  A    between atoms: C_17  and  C_22
    7  A    between atoms: N_20  and  C_22
    8  A    between atoms: P_23  and  C_32
                            x       y       z     vdW  Elec       q    Type
                         _______ _______ _______ _____ _____    ______ ____

>  <TORSDO>
F 8

$$$$
=
 OpenBabel11052410433D

 35 39  0  0  0  0  0  0  0  0999 V2000
  161.1290  208.9170  151.9880 C   0  0  0  0  0  3  0  0  0  0  0  0
  161.2250  212.9270  147.7150 C   0  0  0  0  0  0  0  0  0  0  0  0
  161.1540  208.0210  153.0740 C   0  0  0  0  0  0  0  0  0  0  0  0
  160.8300  211.7040  150.1330 C   0  0  0  0  0  0  0  0  0  0  0  0
  160.7460  208.4400  154.3620 C   0  0  0  0  0  3  0  0  0  0  0  0
  160.2990  209.7550  154.5880 C   0  0  0  0  0  3  0  0  0  0  0  0
  159.9950  213.7910  151.4000 S   0  0  0  0  0  0  0  0  0  0  0  0
  160.6780  210.2080  152.2370 C   0  0  0  0  0  0  0  0  0  0  0  0
  159.9110  211.9360  153.4960 N   0  0  0  0  0  0  0  0  0  0  0  0
  160.7500  213.6640  148.7650 N   0  0  0  0  0  0  0  0  0  0  0  0
  160.2710  210.6260  153.4990 C   0  0  0  0  0  0  0  0  0  0  0  0
  160.5670  211.3150  151.4330 C   0  0  0  0  0  0  0  0  0  0  0  0
  161.3190  210.9600  149.0680 C   0  0  0  0  0  3  0  0  0  0  0  0
  161.5040  211.5940  147.8760 N   0  0  0  0  0  0  0  0  0  0  0  0
  160.5550  213.0560  149.9590 C   0  0  0  0  0  0  0  0  0  0  0  0
  160.1120  212.3190  152.2200 C   0  0  0  0  0  0  0  0  0  0  0  0
  161.4410  213.5660  146.4100 C   0  0  0  0  0  0  0  0  0  0  0  0
  162.6540  213.3300  145.6920 N   0  0  0  0  0  2  0  0  0  0  0  0
  162.9100  213.9350  144.3950 C   0  0  0  0  0  1  0  0  0  0  0  0
  160.5550  214.3220  145.9250 O   0  0  0  0  0  0  0  0  0  0  0  0
  159.5290  212.7710  154.6270 C   0  0  0  0  0  2  0  0  0  0  0  0
  157.3700  211.9590  155.6600 C   0  0  0  0  0  3  0  0  0  0  0  0
  157.2330  213.6330  153.9980 C   0  0  0  0  0  3  0  0  0  0  0  0
  155.7310  212.2900  155.4760 S   0  0  0  0  0  0  0  0  0  0  0  0
  158.0460  212.7940  154.7720 C   0  0  0  0  0  0  0  0  0  0  0  0
  155.8900  213.4680  154.2870 C   0  0  0  0  0  0  0  0  0  0  0  0
  154.8500  214.4530  152.3680 N   0  0  0  0  0  2  0  0  0  0  0  0
  154.7980  214.1820  153.6300 C   0  0  0  0  0  3  0  0  0  0  0  0
  161.6380  206.6280  152.8750 C   0  0  0  0  0  2  0  0  0  0  0  0
  162.2150  206.4700  151.4770 C   0  0  0  0  0  2  0  0  0  0  0  0
  161.4440  205.4190  150.6950 C   0  0  0  0  0  2  0  0  0  0  0  0
  162.6610  206.8860  148.5380 O   0  0  0  0  0  0  0  0  0  0  0  0
  161.5660  204.3100  147.9310 C   0  0  0  0  0  1  0  0  0  0  0  0
  161.4000  205.8240  148.9210 P   0  0  1  0  0  0  0  0  0  0  0  0
  160.0780  206.4840  148.5970 O   0  0  0  0  0  1  0  0  0  0  0  0
  1  8  2  0  0  0  0
  1  3  1  0  0  0  0
  2 14  1  0  0  0  0
  2 10  2  0  0  0  0
  3  5  2  0  0  0  0
  4 12  1  0  0  0  0
  5  6  1  0  0  0  0
  7 16  1  0  0  0  0
  8 11  1  0  0  0  0
  9 11  1  0  0  0  0
  9 21  1  0  0  0  0
 10 15  1  0  0  0  0
 11  6  2  0  0  0  0
 12 16  2  0  0  0  0
 12  8  1  0  0  0  0
 13  4  1  0  0  0  0
 14 13  2  0  0  0  0
 15  4  2  0  0  0  0
 15  7  1  0  0  0  0
 16  9  1  0  0  0  0
 17  2  1  0  0  0  0
 18 17  1  0  0  0  0
 19 18  1  0  0  0  0
 20 17  2  0  0  0  0
 21 25  1  0  0  0  0
 23 26  2  0  0  0  0
 23 25  1  0  0  0  0
 24 22  1  0  0  0  0
 25 22  2  0  0  0  0
 26 24  1  0  0  0  0
 27 28  2  0  0  0  0
 28 26  1  0  0  0  0
 29  3  1  0  0  0  0
 30 29  1  0  0  0  0
 31 30  1  0  0  0  0
 32 34  2  0  0  0  0
 34 33  1  6  0  0  0
 34 31  1  0  0  0  0
 35 34  1  0  0  0  0
M  END
>  <MODEL>
8

>  <REMARK>
 VINA RESULT:      -5.9      2.496      3.911
  Name = 
  8 active torsions:
  status: ('A' for Active; 'I' for Inactive)
    1  A    between atoms: C_2  and  C_30
    2  A    between atoms: C_2  and  C_32
    3  A    between atoms: C_5  and  C_7
    4  A    between atoms: C_8  and  C_30
    5  A    between atoms: C_14  and  C_19
    6  A    between atoms: C_17  and  C_22
    7  A    between atoms: N_20  and  C_22
    8  A    between atoms: P_23  and  C_32
                            x       y       z     vdW  Elec       q    Type
                         _______ _______ _______ _____ _____    ______ ____

>  <TORSDO>
F 8

$$$$
=
 OpenBabel11052410433D

 35 39  0  0  0  0  0  0  0  0999 V2000
  160.5810  208.7210  152.3180 C   0  0  0  0  0  3  0  0  0  0  0  0
  161.0790  203.7830  149.2020 C   0  0  0  0  0  0  0  0  0  0  0  0
  160.5580  209.9290  153.0430 C   0  0  0  0  0  0  0  0  0  0  0  0
  161.1320  206.4220  149.9290 C   0  0  0  0  0  0  0  0  0  0  0  0
  161.0380  211.1250  152.4620 C   0  0  0  0  0  3  0  0  0  0  0  0
  161.5400  211.1420  151.1480 C   0  0  0  0  0  3  0  0  0  0  0  0
  162.2200  207.3150  147.7660 S   0  0  0  0  0  0  0  0  0  0  0  0
  161.0760  208.7670  151.0210 C   0  0  0  0  0  0  0  0  0  0  0  0
  162.0110  209.7210  149.1830 N   0  0  0  0  0  0  0  0  0  0  0  0
  161.5860  204.7050  148.3280 N   0  0  0  0  0  0  0  0  0  0  0  0
  161.5450  209.9400  150.4410 C   0  0  0  0  0  0  0  0  0  0  0  0
  161.2730  207.7900  150.0760 C   0  0  0  0  0  0  0  0  0  0  0  0
  160.6240  205.4840  150.8170 C   0  0  0  0  0  3  0  0  0  0  0  0
  160.6070  204.1780  150.4270 N   0  0  0  0  0  0  0  0  0  0  0  0
  161.6100  206.0090  148.6900 C   0  0  0  0  0  0  0  0  0  0  0  0
  161.8320  208.3980  149.0030 C   0  0  0  0  0  0  0  0  0  0  0  0
  161.0400  202.3630  148.8280 C   0  0  0  0  0  0  0  0  0  0  0  0
  161.1250  201.9860  147.4510 N   0  0  0  0  0  2  0  0  0  0  0  0
  161.0990  200.5940  147.0330 C   0  0  0  0  0  1  0  0  0  0  0  0
  160.9330  201.4790  149.7210 O   0  0  0  0  0  0  0  0  0  0  0  0
  162.6740  210.6600  148.2890 C   0  0  0  0  0  2  0  0  0  0  0  0
  162.0620  213.0940  148.5860 C   0  0  0  0  0  3  0  0  0  0  0  0
  160.6310  211.7540  147.2690 C   0  0  0  0  0  3  0  0  0  0  0  0
  160.8190  214.1090  148.0820 S   0  0  0  0  0  0  0  0  0  0  0  0
  161.7980  211.8400  148.0400 C   0  0  0  0  0  0  0  0  0  0  0  0
  159.9660  212.9650  147.1930 C   0  0  0  0  0  0  0  0  0  0  0  0
  157.6020  212.6920  146.9270 N   0  0  0  0  0  2  0  0  0  0  0  0
  158.7090  213.1860  146.4830 C   0  0  0  0  0  3  0  0  0  0  0  0
  160.0500  209.9440  154.4420 C   0  0  0  0  0  2  0  0  0  0  0  0
  161.2120  209.8960  155.4210 C   0  0  0  0  0  2  0  0  0  0  0  0
  160.8510  209.0670  156.6420 C   0  0  0  0  0  2  0  0  0  0  0  0
  158.6550  207.3390  155.9490 O   0  0  0  0  0  0  0  0  0  0  0  0
  161.1540  206.8980  154.6200 C   0  0  0  0  0  1  0  0  0  0  0  0
  160.3330  207.3880  156.1650 P   0  0  1  0  0  0  0  0  0  0  0  0
  160.7230  206.4210  157.2600 O   0  0  0  0  0  1  0  0  0  0  0  0
  1  3  1  0  0  0  0
  2 14  1  0  0  0  0
  3 29  1  0  0  0  0
  4 12  1  0  0  0  0
  4 13  1  0  0  0  0
  5  3  2  0  0  0  0
  6  5  1  0  0  0  0
  7 15  1  0  0  0  0
  7 16  1  0  0  0  0
  8  1  2  0  0  0  0
  9 11  1  0  0  0  0
 10 15  1  0  0  0  0
 10  2  2  0  0  0  0
 11  8  1  0  0  0  0
 11  6  2  0  0  0  0
 12  8  1  0  0  0  0
 14 13  2  0  0  0  0
 15  4  2  0  0  0  0
 16  9  1  0  0  0  0
 16 12  2  0  0  0  0
 17  2  1  0  0  0  0
 17 20  2  0  0  0  0
 18 17  1  0  0  0  0
 19 18  1  0  0  0  0
 21  9  1  0  0  0  0
 23 25  1  0  0  0  0
 24 22  1  0  0  0  0
 25 21  1  0  0  0  0
 25 22  2  0  0  0  0
 26 23  2  0  0  0  0
 26 24  1  0  0  0  0
 28 27  2  0  0  0  0
 28 26  1  0  0  0  0
 29 30  1  0  0  0  0
 30 31  1  0  0  0  0
 32 34  2  0  0  0  0
 34 33  1  6  0  0  0
 34 31  1  0  0  0  0
 34 35  1  0  0  0  0
M  END
>  <MODEL>
9

>  <REMARK>
 VINA RESULT:      -5.8      4.030      7.948
  Name = 
  8 active torsions:
  status: ('A' for Active; 'I' for Inactive)
    1  A    between atoms: C_2  and  C_30
    2  A    between atoms: C_2  and  C_32
    3  A    between atoms: C_5  and  C_7
    4  A    between atoms: C_8  and  C_30
    5  A    between atoms: C_14  and  C_19
    6  A    between atoms: C_17  and  C_22
    7  A    between atoms: N_20  and  C_22
    8  A    between atoms: P_23  and  C_32
                            x       y       z     vdW  Elec       q    Type
                         _______ _______ _______ _____ _____    ______ ____

>  <TORSDO>
F 8

$$$$
