=
 OpenBabel11042420123D

 30 32  0  0  1  0  0  0  0  0999 V2000
  161.4950  208.5260  151.4390 C   0  0  0  0  0  0  0  0  0  0  0  0
  161.4430  207.3730  150.6420 C   0  0  0  0  0  3  0  0  0  0  0  0
  161.2240  208.4310  152.8060 C   0  0  0  0  0  3  0  0  0  0  0  0
  160.8950  207.1980  153.3740 C   0  0  0  0  0  0  0  0  0  0  0  0
  160.8370  206.0530  152.5750 C   0  0  0  0  0  3  0  0  0  0  0  0
  161.1100  206.1270  151.1990 C   0  0  0  0  0  0  0  0  0  0  0  0
  161.3270  204.9850  148.9790 C   0  0  0  0  0  3  0  0  0  0  0  0
  161.2670  203.8460  148.1610 C   0  0  0  0  0  0  0  0  0  0  0  0
  160.6360  202.5340  150.1040 C   0  0  0  0  0  3  0  0  0  0  0  0
  160.6940  203.6760  150.9030 C   0  0  0  0  0  3  0  0  0  0  0  0
  160.9200  202.5980  148.7360 C   0  0  0  0  0  0  0  0  0  0  0  0
  161.0440  204.9140  150.3500 C   0  0  0  0  0  0  0  0  0  0  0  0
  161.6390  200.2860  148.1640 C   0  0  0  0  0  2  0  0  0  0  0  0
  160.8330  201.3260  147.9900 C   0  0  0  0  0  3  0  0  0  0  0  0
  161.5650  203.9590  146.7650 N   0  0  0  0  0  2  0  0  0  0  0  0
  162.6730  204.7460  146.2480 C   0  0  0  0  0  1  0  0  0  0  0  0
  161.8520  209.8550  150.8560 C   0  0  1  0  0  3  0  0  0  0  0  0
  162.8860  210.4380  151.5900 O   0  0  0  0  0  1  0  0  0  0  0  0
  162.2540  209.7200  149.4140 C   0  0  0  0  0  3  0  0  0  0  0  0
  162.1390  210.6760  148.5570 N   0  0  0  0  0  0  0  0  0  0  0  0
  161.5940  211.9690  148.8930 C   0  0  0  0  0  2  0  0  0  0  0  0
  160.5390  214.0130  145.3120 N   0  0  0  0  0  0  0  0  0  0  0  0
  161.9710  213.8040  147.2130 C   0  0  0  0  0  0  0  0  0  0  0  0
  161.6060  214.4530  146.0310 C   0  0  0  0  0  3  0  0  0  0  0  0
  159.8040  212.9400  145.7130 C   0  0  0  0  0  3  0  0  0  0  0  0
  163.0650  214.2600  147.9400 O   0  0  0  0  0  1  0  0  0  0  0  0
  161.2250  212.6990  147.6470 C   0  0  0  0  0  0  0  0  0  0  0  0
  160.1360  212.2610  146.8880 C   0  0  0  0  0  3  0  0  0  0  0  0
  160.4050  207.0290  155.9150 N   0  0  0  0  0  0  0  0  0  0  0  0
  160.6220  207.1030  154.7800 C   0  0  0  0  0  0  0  0  0  0  0  0
  1  3  1  0  0  0  0
  2  6  1  0  0  0  0
  2  1  2  0  0  0  0
  3  4  2  0  0  0  0
  4 30  1  0  0  0  0
  5  4  1  0  0  0  0
  6  5  2  0  0  0  0
  7 12  1  0  0  0  0
  8 11  1  0  0  0  0
  8  7  2  0  0  0  0
  9 10  1  0  0  0  0
 11  9  2  0  0  0  0
 12 10  2  0  0  0  0
 12  6  1  0  0  0  0
 14 13  2  0  0  0  0
 14 11  1  0  0  0  0
 15  8  1  0  0  0  0
 16 15  1  0  0  0  0
 17  1  1  0  0  0  0
 17 18  1  1  0  0  0
 19 17  1  0  0  0  0
 20 21  1  0  0  0  0
 20 19  2  0  0  0  0
 22 25  2  0  0  0  0
 22 24  1  0  0  0  0
 23 27  1  0  0  0  0
 23 26  1  0  0  0  0
 24 23  2  0  0  0  0
 25 28  1  0  0  0  0
 27 21  1  0  0  0  0
 28 27  2  0  0  0  0
 30 29  3  0  0  0  0
M  END
>  <MODEL>
1

>  <REMARK>
 VINA RESULT:      -8.9      0.000      0.000
  Name = 
  8 active torsions:
  status: ('A' for Active; 'I' for Inactive)
    1  A    between atoms: C_1  and  N_16
    2  A    between atoms: C_1  and  C_25
    3  A    between atoms: N_4  and  C_9
    4  A    between atoms: C_6  and  C_10
    5  A    between atoms: C_8  and  C_10
    6  A    between atoms: C_13  and  C_22
    7  A    between atoms: C_20  and  C_30
    8  A    between atoms: C_26  and  C_29
                            x       y       z     vdW  Elec       q    Type
                         _______ _______ _______ _____ _____    ______ ____

>  <TORSDO>
F 8

$$$$
=
 OpenBabel11042420123D

 30 32  0  0  1  0  0  0  0  0999 V2000
  161.1230  208.2550  152.4100 C   0  0  0  0  0  0  0  0  0  0  0  0
  161.0480  207.0230  151.7420 C   0  0  0  0  0  3  0  0  0  0  0  0
  161.4600  209.4070  151.6960 C   0  0  0  0  0  3  0  0  0  0  0  0
  161.7270  209.3320  150.3270 C   0  0  0  0  0  0  0  0  0  0  0  0
  161.6570  208.1020  149.6670 C   0  0  0  0  0  3  0  0  0  0  0  0
  161.3170  206.9330  150.3660 C   0  0  0  0  0  0  0  0  0  0  0  0
  161.5430  205.5330  148.3010 C   0  0  0  0  0  3  0  0  0  0  0  0
  161.4800  204.3050  147.6240 C   0  0  0  0  0  0  0  0  0  0  0  0
  160.8210  203.2390  149.7040 C   0  0  0  0  0  3  0  0  0  0  0  0
  160.8820  204.4680  150.3610 C   0  0  0  0  0  3  0  0  0  0  0  0
  161.1170  203.1370  148.3410 C   0  0  0  0  0  0  0  0  0  0  0  0
  161.2480  205.6280  149.6680 C   0  0  0  0  0  0  0  0  0  0  0  0
  161.2430  200.6530  148.4090 C   0  0  0  0  0  2  0  0  0  0  0  0
  161.0250  201.7850  147.7520 C   0  0  0  0  0  3  0  0  0  0  0  0
  161.7910  204.2470  146.2280 N   0  0  0  0  0  2  0  0  0  0  0  0
  161.9760  205.4320  145.4030 C   0  0  0  0  0  1  0  0  0  0  0  0
  160.8350  208.3610  153.8730 C   0  0  1  0  0  3  0  0  0  0  0  0
  161.1890  207.1750  154.5180 O   0  0  0  0  0  1  0  0  0  0  0  0
  161.5680  209.5210  154.4850 C   0  0  0  0  0  3  0  0  0  0  0  0
  160.9710  210.5330  155.0150 N   0  0  0  0  0  0  0  0  0  0  0  0
  159.5360  210.6620  155.0570 C   0  0  0  0  0  2  0  0  0  0  0  0
  158.3380  213.8390  152.4890 N   0  0  0  0  0  0  0  0  0  0  0  0
  158.9650  213.0820  154.6670 C   0  0  0  0  0  0  0  0  0  0  0  0
  158.5760  214.1070  153.8010 C   0  0  0  0  0  3  0  0  0  0  0  0
  158.4710  212.5830  151.9840 C   0  0  0  0  0  3  0  0  0  0  0  0
  159.2090  213.3660  156.0060 O   0  0  0  0  0  1  0  0  0  0  0  0
  159.1040  211.7800  154.1680 C   0  0  0  0  0  0  0  0  0  0  0  0
  158.8600  211.5300  152.8150 C   0  0  0  0  0  3  0  0  0  0  0  0
  162.3470  211.4730  149.0020 N   0  0  0  0  0  0  0  0  0  0  0  0
  162.0680  210.5180  149.5940 C   0  0  0  0  0  0  0  0  0  0  0  0
  1 17  1  0  0  0  0
  2  1  1  0  0  0  0
  3  1  2  0  0  0  0
  4  3  1  0  0  0  0
  5  4  2  0  0  0  0
  5  6  1  0  0  0  0
  6  2  2  0  0  0  0
  7 12  1  0  0  0  0
  8  7  2  0  0  0  0
  8 11  1  0  0  0  0
  9 10  1  0  0  0  0
 11  9  2  0  0  0  0
 12 10  2  0  0  0  0
 12  6  1  0  0  0  0
 14 11  1  0  0  0  0
 14 13  2  0  0  0  0
 15  8  1  0  0  0  0
 16 15  1  0  0  0  0
 17 19  1  0  0  0  0
 17 18  1  1  0  0  0
 19 20  2  0  0  0  0
 20 21  1  0  0  0  0
 22 24  1  0  0  0  0
 23 26  1  0  0  0  0
 24 23  2  0  0  0  0
 25 22  2  0  0  0  0
 25 28  1  0  0  0  0
 27 23  1  0  0  0  0
 27 21  1  0  0  0  0
 28 27  2  0  0  0  0
 29 30  3  0  0  0  0
 30  4  1  0  0  0  0
M  END
>  <MODEL>
2

>  <REMARK>
 VINA RESULT:      -8.8      2.989      4.828
  Name = 
  8 active torsions:
  status: ('A' for Active; 'I' for Inactive)
    1  A    between atoms: C_1  and  N_16
    2  A    between atoms: C_1  and  C_25
    3  A    between atoms: N_4  and  C_9
    4  A    between atoms: C_6  and  C_10
    5  A    between atoms: C_8  and  C_10
    6  A    between atoms: C_13  and  C_22
    7  A    between atoms: C_20  and  C_30
    8  A    between atoms: C_26  and  C_29
                            x       y       z     vdW  Elec       q    Type
                         _______ _______ _______ _____ _____    ______ ____

>  <TORSDO>
F 8

$$$$
=
 OpenBabel11042420123D

 30 32  0  0  1  0  0  0  0  0999 V2000
  161.4020  208.8580  152.9270 C   0  0  0  0  0  0  0  0  0  0  0  0
  161.3650  207.8170  151.9870 C   0  0  0  0  0  3  0  0  0  0  0  0
  161.1150  208.5860  154.2670 C   0  0  0  0  0  3  0  0  0  0  0  0
  160.7860  207.2890  154.6670 C   0  0  0  0  0  0  0  0  0  0  0  0
  160.7430  206.2570  153.7250 C   0  0  0  0  0  3  0  0  0  0  0  0
  161.0320  206.5090  152.3740 C   0  0  0  0  0  0  0  0  0  0  0  0
  161.1640  205.6850  150.0110 C   0  0  0  0  0  3  0  0  0  0  0  0
  161.1180  204.6610  149.0520 C   0  0  0  0  0  0  0  0  0  0  0  0
  160.7070  203.0650  150.8350 C   0  0  0  0  0  3  0  0  0  0  0  0
  160.7500  204.0940  151.7760 C   0  0  0  0  0  3  0  0  0  0  0  0
  160.8900  203.3280  149.4740 C   0  0  0  0  0  0  0  0  0  0  0  0
  160.9820  205.4160  151.3750 C   0  0  0  0  0  0  0  0  0  0  0  0
  161.3530  200.9690  148.8310 C   0  0  0  0  0  2  0  0  0  0  0  0
  160.8310  202.1600  148.5700 C   0  0  0  0  0  3  0  0  0  0  0  0
  161.3080  204.9760  147.6690 N   0  0  0  0  0  2  0  0  0  0  0  0
  161.8850  206.2310  147.2090 C   0  0  0  0  0  1  0  0  0  0  0  0
  161.7590  210.2530  152.5250 C   0  0  1  0  0  3  0  0  0  0  0  0
  162.8990  210.2420  151.7200 O   0  0  0  0  0  1  0  0  0  0  0  0
  160.6200  210.9120  151.7990 C   0  0  0  0  0  3  0  0  0  0  0  0
  159.7770  211.6990  152.3750 N   0  0  0  0  0  0  0  0  0  0  0  0
  159.8310  212.0090  153.7830 C   0  0  0  0  0  2  0  0  0  0  0  0
  155.8840  212.3160  155.3470 N   0  0  0  0  0  0  0  0  0  0  0  0
  158.0900  211.4110  155.4990 C   0  0  0  0  0  0  0  0  0  0  0  0
  156.7900  211.5340  155.9940 C   0  0  0  0  0  3  0  0  0  0  0  0
  156.2110  212.9960  154.2140 C   0  0  0  0  0  3  0  0  0  0  0  0
  159.0100  210.6120  156.1690 O   0  0  0  0  0  1  0  0  0  0  0  0
  158.4470  212.1000  154.3320 C   0  0  0  0  0  0  0  0  0  0  0  0
  157.5010  212.9020  153.6870 C   0  0  0  0  0  3  0  0  0  0  0  0
  160.2580  206.7890  157.1550 N   0  0  0  0  0  0  0  0  0  0  0  0
  160.4960  207.0120  156.0450 C   0  0  0  0  0  0  0  0  0  0  0  0
  1  3  1  0  0  0  0
  2  6  1  0  0  0  0
  2  1  2  0  0  0  0
  3  4  2  0  0  0  0
  4 30  1  0  0  0  0
  5  4  1  0  0  0  0
  6  5  2  0  0  0  0
  7 12  1  0  0  0  0
  8 11  1  0  0  0  0
  8  7  2  0  0  0  0
  9 10  1  0  0  0  0
 11  9  2  0  0  0  0
 12 10  2  0  0  0  0
 12  6  1  0  0  0  0
 14 13  2  0  0  0  0
 14 11  1  0  0  0  0
 15  8  1  0  0  0  0
 16 15  1  0  0  0  0
 17 18  1  6  0  0  0
 17  1  1  0  0  0  0
 19 20  2  0  0  0  0
 19 17  1  0  0  0  0
 20 21  1  0  0  0  0
 21 27  1  0  0  0  0
 22 24  1  0  0  0  0
 23 24  2  0  0  0  0
 23 26  1  0  0  0  0
 25 22  2  0  0  0  0
 27 23  1  0  0  0  0
 28 25  1  0  0  0  0
 28 27  2  0  0  0  0
 30 29  3  0  0  0  0
M  END
>  <MODEL>
3

>  <REMARK>
 VINA RESULT:      -8.7      3.244      4.916
  Name = 
  8 active torsions:
  status: ('A' for Active; 'I' for Inactive)
    1  A    between atoms: C_1  and  N_16
    2  A    between atoms: C_1  and  C_25
    3  A    between atoms: N_4  and  C_9
    4  A    between atoms: C_6  and  C_10
    5  A    between atoms: C_8  and  C_10
    6  A    between atoms: C_13  and  C_22
    7  A    between atoms: C_20  and  C_30
    8  A    between atoms: C_26  and  C_29
                            x       y       z     vdW  Elec       q    Type
                         _______ _______ _______ _____ _____    ______ ____

>  <TORSDO>
F 8

$$$$
=
 OpenBabel11042420123D

 30 32  0  0  1  0  0  0  0  0999 V2000
  161.3710  207.4450  148.3470 C   0  0  0  0  0  0  0  0  0  0  0  0
  161.1400  207.2210  149.7130 C   0  0  0  0  0  3  0  0  0  0  0  0
  161.8190  208.6970  147.9200 C   0  0  0  0  0  3  0  0  0  0  0  0
  162.0300  209.7220  148.8450 C   0  0  0  0  0  0  0  0  0  0  0  0
  161.7930  209.4960  150.2040 C   0  0  0  0  0  3  0  0  0  0  0  0
  161.3450  208.2440  150.6540 C   0  0  0  0  0  0  0  0  0  0  0  0
  160.8240  209.0770  152.9590 C   0  0  0  0  0  3  0  0  0  0  0  0
  160.5810  208.8680  154.3260 C   0  0  0  0  0  0  0  0  0  0  0  0
  160.8670  206.4830  153.9710 C   0  0  0  0  0  3  0  0  0  0  0  0
  161.1110  206.7060  152.6160 C   0  0  0  0  0  3  0  0  0  0  0  0
  160.5980  207.5470  154.8380 C   0  0  0  0  0  0  0  0  0  0  0  0
  161.0890  208.0060  152.0940 C   0  0  0  0  0  0  0  0  0  0  0  0
  161.1610  207.4720  157.2610 C   0  0  0  0  0  2  0  0  0  0  0  0
  160.3480  207.1910  156.2500 C   0  0  0  0  0  3  0  0  0  0  0  0
  160.3130  209.9870  155.1770 N   0  0  0  0  0  2  0  0  0  0  0  0
  158.9710  210.4830  155.4430 C   0  0  0  0  0  1  0  0  0  0  0  0
  161.1590  206.3620  147.3380 C   0  0  1  0  0  3  0  0  0  0  0  0
  160.6970  206.9080  146.1400 O   0  0  0  0  0  1  0  0  0  0  0  0
  162.4270  205.5920  147.1010 C   0  0  0  0  0  3  0  0  0  0  0  0
  162.4560  204.3150  146.9270 N   0  0  0  0  0  0  0  0  0  0  0  0
  161.2710  203.4930  146.9620 C   0  0  0  0  0  2  0  0  0  0  0  0
  160.8950  201.7570  150.8300 N   0  0  0  0  0  0  0  0  0  0  0  0
  161.1490  201.4820  148.4700 C   0  0  0  0  0  0  0  0  0  0  0  0
  161.0290  200.9390  149.7520 C   0  0  0  0  0  3  0  0  0  0  0  0
  160.8760  203.1110  150.6990 C   0  0  0  0  0  3  0  0  0  0  0  0
  161.2870  200.6380  147.3740 O   0  0  0  0  0  1  0  0  0  0  0  0
  161.1270  202.8740  148.3120 C   0  0  0  0  0  0  0  0  0  0  0  0
  160.9950  203.6950  149.4360 C   0  0  0  0  0  3  0  0  0  0  0  0
  162.8740  212.0390  148.0440 N   0  0  0  0  0  0  0  0  0  0  0  0
  162.4960  211.0050  148.4040 C   0  0  0  0  0  0  0  0  0  0  0  0
  1  2  1  0  0  0  0
  2  6  2  0  0  0  0
  3  1  2  0  0  0  0
  3  4  1  0  0  0  0
  4  5  2  0  0  0  0
  5  6  1  0  0  0  0
  6 12  1  0  0  0  0
  7  8  1  0  0  0  0
  8 11  2  0  0  0  0
  8 15  1  0  0  0  0
  9 11  1  0  0  0  0
 10  9  2  0  0  0  0
 11 14  1  0  0  0  0
 12 10  1  0  0  0  0
 12  7  2  0  0  0  0
 14 13  2  0  0  0  0
 15 16  1  0  0  0  0
 17 18  1  6  0  0  0
 17  1  1  0  0  0  0
 19 17  1  0  0  0  0
 20 21  1  0  0  0  0
 20 19  2  0  0  0  0
 21 27  1  0  0  0  0
 23 24  1  0  0  0  0
 24 22  2  0  0  0  0
 25 22  1  0  0  0  0
 26 23  1  0  0  0  0
 27 23  2  0  0  0  0
 27 28  1  0  0  0  0
 28 25  2  0  0  0  0
 29 30  3  0  0  0  0
 30  4  1  0  0  0  0
M  END
>  <MODEL>
4

>  <REMARK>
 VINA RESULT:      -8.3      2.909      8.496
  Name = 
  8 active torsions:
  status: ('A' for Active; 'I' for Inactive)
    1  A    between atoms: C_1  and  N_16
    2  A    between atoms: C_1  and  C_25
    3  A    between atoms: N_4  and  C_9
    4  A    between atoms: C_6  and  C_10
    5  A    between atoms: C_8  and  C_10
    6  A    between atoms: C_13  and  C_22
    7  A    between atoms: C_20  and  C_30
    8  A    between atoms: C_26  and  C_29
                            x       y       z     vdW  Elec       q    Type
                         _______ _______ _______ _____ _____    ______ ____

>  <TORSDO>
F 8

$$$$
=
 OpenBabel11042420123D

 30 32  0  0  1  0  0  0  0  0999 V2000
  161.3550  206.8150  149.7230 C   0  0  0  0  0  0  0  0  0  0  0  0
  161.2130  207.7500  150.7600 C   0  0  0  0  0  3  0  0  0  0  0  0
  161.3500  205.4510  150.0200 C   0  0  0  0  0  3  0  0  0  0  0  0
  161.2140  205.0190  151.3410 C   0  0  0  0  0  0  0  0  0  0  0  0
  161.0800  205.9530  152.3720 C   0  0  0  0  0  3  0  0  0  0  0  0
  161.0790  207.3300  152.0940 C   0  0  0  0  0  0  0  0  0  0  0  0
  160.7630  207.9020  154.5120 C   0  0  0  0  0  3  0  0  0  0  0  0
  160.6290  208.8280  155.5590 C   0  0  0  0  0  0  0  0  0  0  0  0
  160.8600  210.6260  153.9430 C   0  0  0  0  0  3  0  0  0  0  0  0
  160.9850  209.6940  152.9130 C   0  0  0  0  0  3  0  0  0  0  0  0
  160.6840  210.2140  155.2680 C   0  0  0  0  0  0  0  0  0  0  0  0
  160.9420  208.3210  153.1860 C   0  0  0  0  0  0  0  0  0  0  0  0
  160.1770  212.5310  156.0220 C   0  0  0  0  0  2  0  0  0  0  0  0
  160.5690  211.2890  156.2760 C   0  0  0  0  0  3  0  0  0  0  0  0
  160.4500  208.3620  156.9000 N   0  0  0  0  0  2  0  0  0  0  0  0
  160.4500  206.9520  157.2610 C   0  0  0  0  0  1  0  0  0  0  0  0
  161.4950  207.2530  148.3000 C   0  0  1  0  0  3  0  0  0  0  0  0
  161.5970  208.6440  148.2350 O   0  0  0  0  0  1  0  0  0  0  0  0
  162.6940  206.6150  147.6560 C   0  0  0  0  0  3  0  0  0  0  0  0
  162.6080  205.7800  146.6780 N   0  0  0  0  0  0  0  0  0  0  0  0
  161.3490  205.3570  146.1160 C   0  0  0  0  0  2  0  0  0  0  0  0
  160.8510  201.1850  146.7950 N   0  0  0  0  0  0  0  0  0  0  0  0
  160.5980  203.0780  145.3590 C   0  0  0  0  0  0  0  0  0  0  0  0
  160.4510  201.7110  145.6060 C   0  0  0  0  0  3  0  0  0  0  0  0
  161.4010  201.9610  147.7680 C   0  0  0  0  0  3  0  0  0  0  0  0
  160.1890  203.6060  144.1400 O   0  0  0  0  0  1  0  0  0  0  0  0
  161.1590  203.8960  146.3490 C   0  0  0  0  0  0  0  0  0  0  0  0
  161.5680  203.3320  147.5610 C   0  0  0  0  0  3  0  0  0  0  0  0
  161.1930  202.4840  151.8880 N   0  0  0  0  0  0  0  0  0  0  0  0
  161.2040  203.6160  151.6430 C   0  0  0  0  0  0  0  0  0  0  0  0
  1  3  2  0  0  0  0
  1  2  1  0  0  0  0
  2  6  2  0  0  0  0
  3  4  1  0  0  0  0
  4 30  1  0  0  0  0
  4  5  2  0  0  0  0
  6  5  1  0  0  0  0
  6 12  1  0  0  0  0
  7  8  1  0  0  0  0
  8 15  1  0  0  0  0
  9 11  1  0  0  0  0
 10 12  1  0  0  0  0
 10  9  2  0  0  0  0
 11  8  2  0  0  0  0
 11 14  1  0  0  0  0
 12  7  2  0  0  0  0
 13 14  2  0  0  0  0
 15 16  1  0  0  0  0
 17 18  1  1  0  0  0
 17  1  1  0  0  0  0
 19 17  1  0  0  0  0
 20 19  2  0  0  0  0
 21 27  1  0  0  0  0
 21 20  1  0  0  0  0
 22 25  1  0  0  0  0
 23 24  1  0  0  0  0
 23 27  2  0  0  0  0
 24 22  2  0  0  0  0
 26 23  1  0  0  0  0
 27 28  1  0  0  0  0
 28 25  2  0  0  0  0
 30 29  3  0  0  0  0
M  END
>  <MODEL>
5

>  <REMARK>
 VINA RESULT:      -8.1      3.714      8.343
  Name = 
  8 active torsions:
  status: ('A' for Active; 'I' for Inactive)
    1  A    between atoms: C_1  and  N_16
    2  A    between atoms: C_1  and  C_25
    3  A    between atoms: N_4  and  C_9
    4  A    between atoms: C_6  and  C_10
    5  A    between atoms: C_8  and  C_10
    6  A    between atoms: C_13  and  C_22
    7  A    between atoms: C_20  and  C_30
    8  A    between atoms: C_26  and  C_29
                            x       y       z     vdW  Elec       q    Type
                         _______ _______ _______ _____ _____    ______ ____

>  <TORSDO>
F 8

$$$$
=
 OpenBabel11042420123D

 30 32  0  0  1  0  0  0  0  0999 V2000
  160.9720  209.0780  152.7420 C   0  0  0  0  0  0  0  0  0  0  0  0
  161.0120  208.0200  151.8220 C   0  0  0  0  0  3  0  0  0  0  0  0
  160.8730  208.8010  154.1080 C   0  0  0  0  0  3  0  0  0  0  0  0
  160.8060  207.4790  154.5530 C   0  0  0  0  0  0  0  0  0  0  0  0
  160.8390  206.4280  153.6320 C   0  0  0  0  0  3  0  0  0  0  0  0
  160.9420  206.6860  152.2560 C   0  0  0  0  0  0  0  0  0  0  0  0
  161.0940  205.8290  149.9060 C   0  0  0  0  0  3  0  0  0  0  0  0
  161.1220  204.7850  148.9680 C   0  0  0  0  0  0  0  0  0  0  0  0
  160.9090  203.1950  150.7910 C   0  0  0  0  0  3  0  0  0  0  0  0
  160.8770  204.2430  151.7110 C   0  0  0  0  0  3  0  0  0  0  0  0
  161.0330  203.4450  149.4200 C   0  0  0  0  0  0  0  0  0  0  0  0
  160.9730  205.5720  151.2790 C   0  0  0  0  0  0  0  0  0  0  0  0
  161.1350  201.0020  148.9600 C   0  0  0  0  0  2  0  0  0  0  0  0
  161.0630  202.2590  148.5400 C   0  0  0  0  0  3  0  0  0  0  0  0
  161.2480  205.0880  147.5740 N   0  0  0  0  0  2  0  0  0  0  0  0
  161.8350  206.3220  147.0760 C   0  0  0  0  0  1  0  0  0  0  0  0
  161.0500  210.5010  152.2900 C   0  0  1  0  0  3  0  0  0  0  0  0
  161.4300  210.5570  150.9480 O   0  0  0  0  0  1  0  0  0  0  0  0
  159.7340  211.2010  152.4840 C   0  0  0  0  0  3  0  0  0  0  0  0
  159.4680  212.3570  151.9800 N   0  0  0  0  0  0  0  0  0  0  0  0
  160.4170  213.1050  151.1930 C   0  0  0  0  0  2  0  0  0  0  0  0
  158.6190  214.1670  147.4830 N   0  0  0  0  0  0  0  0  0  0  0  0
  160.5380  213.4250  148.6990 C   0  0  0  0  0  0  0  0  0  0  0  0
  159.9210  213.7740  147.4950 C   0  0  0  0  0  3  0  0  0  0  0  0
  157.8840  214.2310  148.6270 C   0  0  0  0  0  3  0  0  0  0  0  0
  161.8680  213.0220  148.7010 O   0  0  0  0  0  1  0  0  0  0  0  0
  159.8000  213.4870  149.8900 C   0  0  0  0  0  0  0  0  0  0  0  0
  158.4610  213.8890  149.8520 C   0  0  0  0  0  3  0  0  0  0  0  0
  160.6280  206.9710  157.0900 N   0  0  0  0  0  0  0  0  0  0  0  0
  160.7100  207.1960  155.9570 C   0  0  0  0  0  0  0  0  0  0  0  0
  1  3  1  0  0  0  0
  2  6  1  0  0  0  0
  2  1  2  0  0  0  0
  3  4  2  0  0  0  0
  4 30  1  0  0  0  0
  5  4  1  0  0  0  0
  6  5  2  0  0  0  0
  7 12  1  0  0  0  0
  8 11  1  0  0  0  0
  8  7  2  0  0  0  0
  9 10  1  0  0  0  0
 11  9  2  0  0  0  0
 12 10  2  0  0  0  0
 12  6  1  0  0  0  0
 14 13  2  0  0  0  0
 14 11  1  0  0  0  0
 15  8  1  0  0  0  0
 16 15  1  0  0  0  0
 17 18  1  6  0  0  0
 17 19  1  0  0  0  0
 17  1  1  0  0  0  0
 20 19  2  0  0  0  0
 21 20  1  0  0  0  0
 22 24  2  0  0  0  0
 22 25  1  0  0  0  0
 23 26  1  0  0  0  0
 23 27  2  0  0  0  0
 24 23  1  0  0  0  0
 25 28  2  0  0  0  0
 27 21  1  0  0  0  0
 28 27  1  0  0  0  0
 30 29  3  0  0  0  0
M  END
>  <MODEL>
6

>  <REMARK>
 VINA RESULT:      -8.0      1.931      2.163
  Name = 
  8 active torsions:
  status: ('A' for Active; 'I' for Inactive)
    1  A    between atoms: C_1  and  N_16
    2  A    between atoms: C_1  and  C_25
    3  A    between atoms: N_4  and  C_9
    4  A    between atoms: C_6  and  C_10
    5  A    between atoms: C_8  and  C_10
    6  A    between atoms: C_13  and  C_22
    7  A    between atoms: C_20  and  C_30
    8  A    between atoms: C_26  and  C_29
                            x       y       z     vdW  Elec       q    Type
                         _______ _______ _______ _____ _____    ______ ____

>  <TORSDO>
F 8

$$$$
=
 OpenBabel11042420123D

 30 32  0  0  1  0  0  0  0  0999 V2000
  161.2460  208.4360  151.3630 C   0  0  0  0  0  0  0  0  0  0  0  0
  161.2070  207.2570  150.6040 C   0  0  0  0  0  3  0  0  0  0  0  0
  161.6170  209.6370  150.7540 C   0  0  0  0  0  3  0  0  0  0  0  0
  161.9540  209.6620  149.3990 C   0  0  0  0  0  0  0  0  0  0  0  0
  161.9220  208.4840  148.6480 C   0  0  0  0  0  3  0  0  0  0  0  0
  161.5480  207.2670  149.2410 C   0  0  0  0  0  0  0  0  0  0  0  0
  161.1740  204.7980  149.0460 C   0  0  0  0  0  3  0  0  0  0  0  0
  161.1420  203.6040  148.3070 C   0  0  0  0  0  0  0  0  0  0  0  0
  161.8030  204.8560  146.3340 C   0  0  0  0  0  3  0  0  0  0  0  0
  161.8350  206.0330  147.0820 C   0  0  0  0  0  3  0  0  0  0  0  0
  161.4580  203.6370  146.9260 C   0  0  0  0  0  0  0  0  0  0  0  0
  161.5180  206.0180  148.4460 C   0  0  0  0  0  0  0  0  0  0  0  0
  160.4230  202.0760  145.2870 C   0  0  0  0  0  2  0  0  0  0  0  0
  161.4500  202.4580  146.0350 C   0  0  0  0  0  3  0  0  0  0  0  0
  160.7850  202.3790  148.9540 N   0  0  0  0  0  2  0  0  0  0  0  0
  160.8290  202.1970  150.3970 C   0  0  0  0  0  1  0  0  0  0  0  0
  160.8810  208.4350  152.8130 C   0  0  1  0  0  3  0  0  0  0  0  0
  161.3010  207.2460  153.4110 O   0  0  0  0  0  1  0  0  0  0  0  0
  161.4880  209.6130  153.5220 C   0  0  0  0  0  3  0  0  0  0  0  0
  160.7970  210.4570  154.2090 N   0  0  0  0  0  0  0  0  0  0  0  0
  159.3640  210.3650  154.3490 C   0  0  0  0  0  2  0  0  0  0  0  0
  157.5580  213.6850  152.3910 N   0  0  0  0  0  0  0  0  0  0  0  0
  157.6830  212.2370  154.2870 C   0  0  0  0  0  0  0  0  0  0  0  0
  157.1120  213.3260  153.6240 C   0  0  0  0  0  3  0  0  0  0  0  0
  158.5630  213.0070  151.7720 C   0  0  0  0  0  3  0  0  0  0  0  0
  157.2210  211.8790  155.5490 O   0  0  0  0  0  1  0  0  0  0  0  0
  158.7160  211.5220  153.6660 C   0  0  0  0  0  0  0  0  0  0  0  0
  159.1630  211.9140  152.4010 C   0  0  0  0  0  3  0  0  0  0  0  0
  162.6310  211.8940  148.2660 N   0  0  0  0  0  0  0  0  0  0  0  0
  162.3300  210.8980  148.7740 C   0  0  0  0  0  0  0  0  0  0  0  0
  1 17  1  0  0  0  0
  2  1  2  0  0  0  0
  3  1  1  0  0  0  0
  4  3  2  0  0  0  0
  5  6  2  0  0  0  0
  5  4  1  0  0  0  0
  6  2  1  0  0  0  0
  8 15  1  0  0  0  0
  8  7  2  0  0  0  0
  9 11  2  0  0  0  0
  9 10  1  0  0  0  0
 10 12  2  0  0  0  0
 11  8  1  0  0  0  0
 12  7  1  0  0  0  0
 12  6  1  0  0  0  0
 13 14  2  0  0  0  0
 14 11  1  0  0  0  0
 15 16  1  0  0  0  0
 17 18  1  1  0  0  0
 17 19  1  0  0  0  0
 19 20  2  0  0  0  0
 20 21  1  0  0  0  0
 22 24  1  0  0  0  0
 23 26  1  0  0  0  0
 24 23  2  0  0  0  0
 25 22  2  0  0  0  0
 25 28  1  0  0  0  0
 27 23  1  0  0  0  0
 27 21  1  0  0  0  0
 28 27  2  0  0  0  0
 29 30  3  0  0  0  0
 30  4  1  0  0  0  0
M  END
>  <MODEL>
7

>  <REMARK>
 VINA RESULT:      -7.9      3.128      5.275
  Name = 
  8 active torsions:
  status: ('A' for Active; 'I' for Inactive)
    1  A    between atoms: C_1  and  N_16
    2  A    between atoms: C_1  and  C_25
    3  A    between atoms: N_4  and  C_9
    4  A    between atoms: C_6  and  C_10
    5  A    between atoms: C_8  and  C_10
    6  A    between atoms: C_13  and  C_22
    7  A    between atoms: C_20  and  C_30
    8  A    between atoms: C_26  and  C_29
                            x       y       z     vdW  Elec       q    Type
                         _______ _______ _______ _____ _____    ______ ____

>  <TORSDO>
F 8

$$$$
=
 OpenBabel11042420123D

 30 32  0  0  1  0  0  0  0  0999 V2000
  161.8080  209.6280  150.4690 C   0  0  0  0  0  0  0  0  0  0  0  0
  161.7170  208.3600  149.8740 C   0  0  0  0  0  3  0  0  0  0  0  0
  161.5480  209.7690  151.8340 C   0  0  0  0  0  3  0  0  0  0  0  0
  161.1920  208.6570  152.6000 C   0  0  0  0  0  0  0  0  0  0  0  0
  161.0960  207.3970  152.0020 C   0  0  0  0  0  3  0  0  0  0  0  0
  161.3570  207.2340  150.6320 C   0  0  0  0  0  0  0  0  0  0  0  0
  161.4640  205.7450  148.6200 C   0  0  0  0  0  3  0  0  0  0  0  0
  161.3650  204.4880  148.0020 C   0  0  0  0  0  0  0  0  0  0  0  0
  160.8340  203.5140  150.1620 C   0  0  0  0  0  3  0  0  0  0  0  0
  160.9300  204.7700  150.7600 C   0  0  0  0  0  3  0  0  0  0  0  0
  161.0490  203.3530  148.7900 C   0  0  0  0  0  0  0  0  0  0  0  0
  161.2500  205.9000  149.9970 C   0  0  0  0  0  0  0  0  0  0  0  0
  161.1760  200.8740  148.9620 C   0  0  0  0  0  2  0  0  0  0  0  0
  160.9270  201.9760  148.2670 C   0  0  0  0  0  3  0  0  0  0  0  0
  161.5920  204.3700  146.5940 N   0  0  0  0  0  2  0  0  0  0  0  0
  162.2800  205.3840  145.8090 C   0  0  0  0  0  1  0  0  0  0  0  0
  162.1950  210.8320  149.6710 C   0  0  1  0  0  3  0  0  0  0  0  0
  162.2930  210.4980  148.3190 O   0  0  0  0  0  1  0  0  0  0  0  0
  161.2020  211.9440  149.8590 C   0  0  0  0  0  3  0  0  0  0  0  0
  161.0920  212.9370  149.0440 N   0  0  0  0  0  0  0  0  0  0  0  0
  161.9260  213.0890  147.8770 C   0  0  0  0  0  2  0  0  0  0  0  0
  159.5380  212.6970  144.3760 N   0  0  0  0  0  0  0  0  0  0  0  0
  161.6750  213.0800  145.3730 C   0  0  0  0  0  0  0  0  0  0  0  0
  160.8690  212.9420  144.2410 C   0  0  0  0  0  3  0  0  0  0  0  0
  158.9570  212.5780  145.6010 C   0  0  0  0  0  3  0  0  0  0  0  0
  163.0350  213.3290  145.2250 O   0  0  0  0  0  1  0  0  0  0  0  0
  161.0960  212.9660  146.6440 C   0  0  0  0  0  0  0  0  0  0  0  0
  159.7270  212.7070  146.7580 C   0  0  0  0  0  3  0  0  0  0  0  0
  160.7220  208.9190  155.1370 N   0  0  0  0  0  0  0  0  0  0  0  0
  160.9300  208.8040  154.0040 C   0  0  0  0  0  0  0  0  0  0  0  0
  1  3  1  0  0  0  0
  2  1  2  0  0  0  0
  2  6  1  0  0  0  0
  3  4  2  0  0  0  0
  4 30  1  0  0  0  0
  5  4  1  0  0  0  0
  6  5  2  0  0  0  0
  7 12  1  0  0  0  0
  8  7  2  0  0  0  0
  8 11  1  0  0  0  0
  9 10  1  0  0  0  0
 11  9  2  0  0  0  0
 12  6  1  0  0  0  0
 12 10  2  0  0  0  0
 14 11  1  0  0  0  0
 14 13  2  0  0  0  0
 15  8  1  0  0  0  0
 16 15  1  0  0  0  0
 17 18  1  6  0  0  0
 17 19  1  0  0  0  0
 17  1  1  0  0  0  0
 20 19  2  0  0  0  0
 21 20  1  0  0  0  0
 22 25  1  0  0  0  0
 23 27  2  0  0  0  0
 24 22  2  0  0  0  0
 24 23  1  0  0  0  0
 25 28  2  0  0  0  0
 26 23  1  0  0  0  0
 27 28  1  0  0  0  0
 27 21  1  0  0  0  0
 30 29  3  0  0  0  0
M  END
>  <MODEL>
8

>  <REMARK>
 VINA RESULT:      -7.9      1.397      1.652
  Name = 
  8 active torsions:
  status: ('A' for Active; 'I' for Inactive)
    1  A    between atoms: C_1  and  N_16
    2  A    between atoms: C_1  and  C_25
    3  A    between atoms: N_4  and  C_9
    4  A    between atoms: C_6  and  C_10
    5  A    between atoms: C_8  and  C_10
    6  A    between atoms: C_13  and  C_22
    7  A    between atoms: C_20  and  C_30
    8  A    between atoms: C_26  and  C_29
                            x       y       z     vdW  Elec       q    Type
                         _______ _______ _______ _____ _____    ______ ____

>  <TORSDO>
F 8

$$$$
=
 OpenBabel11042420123D

 30 32  0  0  1  0  0  0  0  0999 V2000
  161.5800  208.7440  150.6840 C   0  0  0  0  0  0  0  0  0  0  0  0
  161.5640  207.7260  149.7190 C   0  0  0  0  0  3  0  0  0  0  0  0
  161.3380  208.4290  152.0230 C   0  0  0  0  0  3  0  0  0  0  0  0
  161.0750  207.1090  152.3980 C   0  0  0  0  0  0  0  0  0  0  0  0
  161.0550  206.0990  151.4330 C   0  0  0  0  0  3  0  0  0  0  0  0
  161.2980  206.3950  150.0820 C   0  0  0  0  0  0  0  0  0  0  0  0
  161.0140  203.9950  149.4200 C   0  0  0  0  0  3  0  0  0  0  0  0
  160.9880  202.9690  148.4620 C   0  0  0  0  0  0  0  0  0  0  0  0
  161.4770  204.6160  146.7450 C   0  0  0  0  0  3  0  0  0  0  0  0
  161.5060  205.6230  147.7090 C   0  0  0  0  0  3  0  0  0  0  0  0
  161.2180  203.2880  147.1000 C   0  0  0  0  0  0  0  0  0  0  0  0
  161.2720  205.3250  149.0580 C   0  0  0  0  0  0  0  0  0  0  0  0
  160.1450  202.0050  145.2580 C   0  0  0  0  0  2  0  0  0  0  0  0
  161.2060  202.3070  145.9950 C   0  0  0  0  0  3  0  0  0  0  0  0
  160.7200  201.6240  148.8700 N   0  0  0  0  0  2  0  0  0  0  0  0
  160.8310  201.1730  150.2490 C   0  0  0  0  0  1  0  0  0  0  0  0
  161.8650  210.1630  150.3080 C   0  0  1  0  0  3  0  0  0  0  0  0
  162.8270  210.7010  151.1650 O   0  0  0  0  0  1  0  0  0  0  0  0
  162.3320  210.2590  148.8830 C   0  0  0  0  0  3  0  0  0  0  0  0
  162.2110  211.3260  148.1710 N   0  0  0  0  0  0  0  0  0  0  0  0
  161.5960  212.5330  148.6670 C   0  0  0  0  0  2  0  0  0  0  0  0
  158.9090  214.0630  145.7410 N   0  0  0  0  0  0  0  0  0  0  0  0
  161.1450  213.5470  146.4080 C   0  0  0  0  0  0  0  0  0  0  0  0
  160.2400  214.0380  145.4640 C   0  0  0  0  0  3  0  0  0  0  0  0
  158.4210  213.6130  146.9290 C   0  0  0  0  0  3  0  0  0  0  0  0
  162.5040  213.5240  146.1150 O   0  0  0  0  0  1  0  0  0  0  0  0
  160.6640  213.0820  147.6400 C   0  0  0  0  0  0  0  0  0  0  0  0
  159.2910  213.1120  147.9000 C   0  0  0  0  0  3  0  0  0  0  0  0
  160.6340  206.5230  154.8850 N   0  0  0  0  0  0  0  0  0  0  0  0
  160.8320  206.7870  153.7750 C   0  0  0  0  0  0  0  0  0  0  0  0
  1  3  1  0  0  0  0
  2  6  1  0  0  0  0
  2  1  2  0  0  0  0
  3  4  2  0  0  0  0
  4 30  1  0  0  0  0
  5  4  1  0  0  0  0
  6  5  2  0  0  0  0
  8 15  1  0  0  0  0
  8  7  2  0  0  0  0
  9 11  2  0  0  0  0
  9 10  1  0  0  0  0
 10 12  2  0  0  0  0
 11  8  1  0  0  0  0
 12  7  1  0  0  0  0
 12  6  1  0  0  0  0
 13 14  2  0  0  0  0
 14 11  1  0  0  0  0
 15 16  1  0  0  0  0
 17  1  1  0  0  0  0
 17 18  1  1  0  0  0
 19 17  1  0  0  0  0
 20 21  1  0  0  0  0
 20 19  2  0  0  0  0
 22 25  1  0  0  0  0
 23 27  2  0  0  0  0
 24 22  2  0  0  0  0
 24 23  1  0  0  0  0
 25 28  2  0  0  0  0
 26 23  1  0  0  0  0
 27 28  1  0  0  0  0
 27 21  1  0  0  0  0
 30 29  3  0  0  0  0
M  END
>  <MODEL>
9

>  <REMARK>
 VINA RESULT:      -7.7      1.384      2.066
  Name = 
  8 active torsions:
  status: ('A' for Active; 'I' for Inactive)
    1  A    between atoms: C_1  and  N_16
    2  A    between atoms: C_1  and  C_25
    3  A    between atoms: N_4  and  C_9
    4  A    between atoms: C_6  and  C_10
    5  A    between atoms: C_8  and  C_10
    6  A    between atoms: C_13  and  C_22
    7  A    between atoms: C_20  and  C_30
    8  A    between atoms: C_26  and  C_29
                            x       y       z     vdW  Elec       q    Type
                         _______ _______ _______ _____ _____    ______ ____

>  <TORSDO>
F 8

$$$$
