=
 OpenBabel11042421123D

 32 34  0  0  1  0  0  0  0  0999 V2000
  161.0000  208.4790  154.3430 C   0  0  0  0  0  0  0  0  0  0  0  0
  161.6450  208.3560  152.0210 N   0  0  0  0  0  0  0  0  0  0  0  0
  160.4430  212.1740  156.8350 O   0  0  0  0  0  0  0  0  0  0  0  0
  161.1190  210.6920  155.1610 N   0  0  0  0  0  0  0  0  0  0  0  0
  160.8840  209.4560  155.4420 C   0  0  0  0  0  0  0  0  0  0  0  0
  160.9550  208.9660  152.9400 C   0  0  0  0  0  0  0  0  0  0  0  0
  158.4920  212.8210  152.1100 S   0  0  0  0  0  0  0  0  0  0  0  0
  159.9450  212.5380  153.1730 C   0  0  1  0  0  3  0  0  0  0  0  0
  160.3040  209.0400  156.6850 N   0  0  0  0  0  2  0  0  0  0  0  0
  160.1970  207.6330  156.9540 C   0  0  0  0  0  3  0  0  0  0  0  0
  158.1050  211.8180  154.6400 C   0  0  0  0  0  2  0  0  0  0  0  0
  160.3900  211.8100  155.6290 C   0  0  0  0  0  0  0  0  0  0  0  0
  159.4680  212.4780  154.6470 C   0  0  1  0  0  3  0  0  0  0  0  0
  160.7700  211.4090  152.6820 N   0  0  0  0  0  2  0  0  0  0  0  0
  160.8100  207.1820  154.6180 C   0  0  0  0  0  3  0  0  0  0  0  0
  160.4630  206.7370  155.9890 C   0  0  0  0  0  3  0  0  0  0  0  0
  157.3320  212.3540  153.4440 C   0  0  1  0  0  3  0  0  0  0  0  0
  160.0410  210.1370  152.6020 C   0  0  0  0  0  2  0  0  0  0  0  0
  156.4990  213.5280  153.8450 C   0  0  0  0  0  0  0  0  0  0  0  0
  155.6400  214.1320  152.9310 O   0  0  0  0  0  0  0  0  0  0  0  0
  156.5820  213.9790  155.0180 O   0  0  0  0  0  1  0  0  0  0  0  0
  161.6380  208.7420  150.6110 C   0  0  0  0  0  2  0  0  0  0  0  0
  162.0860  207.5910  149.7250 C   0  0  0  0  0  2  0  0  0  0  0  0
  160.8870  206.8410  149.1620 C   0  0  0  0  0  2  0  0  0  0  0  0
  161.0120  204.3090  149.1380 C   0  0  0  0  0  0  0  0  0  0  0  0
  161.4130  204.3070  147.9420 O   0  0  0  0  0  0  0  0  0  0  0  0
  160.7490  205.5440  149.8130 N   0  0  0  0  0  2  0  0  0  0  0  0
  160.7410  203.0040  149.8170 C   0  0  0  0  0  2  0  0  0  0  0  0
  160.3670  201.9120  148.8240 C   0  0  2  0  0  3  0  0  0  0  0  0
  159.1850  201.2900  149.2300 O   0  0  0  0  0  1  0  0  0  0  0  0
  161.4090  200.1260  147.6310 O   0  0  0  0  0  1  0  0  0  0  0  0
  161.4910  200.8990  148.7900 C   0  0  0  0  0  2  0  0  0  0  0  0
  1 15  2  0  0  0  0
  1  5  1  0  0  0  0
  2  6  2  0  0  0  0
  4  5  2  0  0  0  0
  4 12  1  0  0  0  0
  5  9  1  0  0  0  0
  6  1  1  0  0  0  0
  7 17  1  0  0  0  0
  8  7  1  6  0  0  0
  8 13  1  0  0  0  0
  9 10  1  0  0  0  0
 12  3  2  0  0  0  0
 13 11  1  6  0  0  0
 13 12  1  0  0  0  0
 14  8  1  0  0  0  0
 15 16  1  0  0  0  0
 16 10  2  0  0  0  0
 17 19  1  1  0  0  0
 17 11  1  0  0  0  0
 18 14  1  0  0  0  0
 18  6  1  0  0  0  0
 19 21  1  0  0  0  0
 20 19  2  0  0  0  0
 22  2  1  0  0  0  0
 23 22  1  0  0  0  0
 24 23  1  0  0  0  0
 24 27  1  0  0  0  0
 25 27  1  0  0  0  0
 25 28  1  0  0  0  0
 26 25  2  0  0  0  0
 29 30  1  1  0  0  0
 29 28  1  0  0  0  0
 31 32  1  0  0  0  0
 32 29  1  0  0  0  0
M  END
>  <MODEL>
1

>  <REMARK>
 VINA RESULT:      -7.2      0.000      0.000
  Name = 
  8 active torsions:
  status: ('A' for Active; 'I' for Inactive)
    1  A    between atoms: N_2  and  C_10
    2  A    between atoms: C_3  and  C_32
    3  A    between atoms: C_5  and  C_10
    4  A    between atoms: C_5  and  C_17
    5  A    between atoms: C_9  and  C_30
    6  A    between atoms: C_16  and  C_28
    7  A    between atoms: C_16  and  C_32
    8  A    between atoms: C_17  and  N_22
                            x       y       z     vdW  Elec       q    Type
                         _______ _______ _______ _____ _____    ______ ____

>  <TORSDO>
F 8

$$$$
=
 OpenBabel11042421123D

 32 34  0  0  1  0  0  0  0  0999 V2000
  160.9530  208.5570  154.2330 C   0  0  0  0  0  0  0  0  0  0  0  0
  161.6040  208.4540  151.9110 N   0  0  0  0  0  0  0  0  0  0  0  0
  160.3840  212.2310  156.7530 O   0  0  0  0  0  0  0  0  0  0  0  0
  161.0670  210.7640  155.0690 N   0  0  0  0  0  0  0  0  0  0  0  0
  160.8320  209.5250  155.3400 C   0  0  0  0  0  0  0  0  0  0  0  0
  160.9110  209.0560  152.8340 C   0  0  0  0  0  0  0  0  0  0  0  0
  158.4460  212.9150  152.0280 S   0  0  0  0  0  0  0  0  0  0  0  0
  159.8960  212.6240  153.0930 C   0  0  1  0  0  3  0  0  0  0  0  0
  160.2490  209.0990  156.5780 N   0  0  0  0  0  2  0  0  0  0  0  0
  160.1420  207.6900  156.8340 C   0  0  0  0  0  3  0  0  0  0  0  0
  158.0530  211.8900  154.5490 C   0  0  0  0  0  2  0  0  0  0  0  0
  160.3350  211.8770  155.5450 C   0  0  0  0  0  0  0  0  0  0  0  0
  159.4150  212.5520  154.5650 C   0  0  1  0  0  3  0  0  0  0  0  0
  160.7230  211.5010  152.5960 N   0  0  0  0  0  2  0  0  0  0  0  0
  160.7630  207.2580  154.4960 C   0  0  0  0  0  3  0  0  0  0  0  0
  160.4130  206.8020  155.8630 C   0  0  0  0  0  3  0  0  0  0  0  0
  157.2830  212.4360  153.3550 C   0  0  1  0  0  3  0  0  0  0  0  0
  159.9960  210.2290  152.5030 C   0  0  0  0  0  2  0  0  0  0  0  0
  156.4470  213.6060  153.7630 C   0  0  0  0  0  0  0  0  0  0  0  0
  155.8100  214.3890  152.8050 O   0  0  0  0  0  0  0  0  0  0  0  0
  156.3260  213.8880  154.9850 O   0  0  0  0  0  1  0  0  0  0  0  0
  161.6010  208.8520  150.5050 C   0  0  0  0  0  2  0  0  0  0  0  0
  161.9390  207.6770  149.6020 C   0  0  0  0  0  2  0  0  0  0  0  0
  160.7590  206.7220  149.4890 C   0  0  0  0  0  2  0  0  0  0  0  0
  161.1440  204.3290  148.7440 C   0  0  0  0  0  0  0  0  0  0  0  0
  161.0120  203.9060  149.9240 O   0  0  0  0  0  0  0  0  0  0  0  0
  161.0110  205.7250  148.4550 N   0  0  0  0  0  2  0  0  0  0  0  0
  161.5190  203.3670  147.6620 C   0  0  0  0  0  2  0  0  0  0  0  0
  161.3920  203.9890  146.2780 C   0  0  2  0  0  3  0  0  0  0  0  0
  161.0060  203.0140  145.3560 O   0  0  0  0  0  1  0  0  0  0  0  0
  162.6100  205.8870  145.4930 O   0  0  0  0  0  1  0  0  0  0  0  0
  162.7410  204.5540  145.8870 C   0  0  0  0  0  2  0  0  0  0  0  0
  1 15  2  0  0  0  0
  1  5  1  0  0  0  0
  2  6  2  0  0  0  0
  4  5  2  0  0  0  0
  4 12  1  0  0  0  0
  5  9  1  0  0  0  0
  6  1  1  0  0  0  0
  7 17  1  0  0  0  0
  8  7  1  6  0  0  0
  8 13  1  0  0  0  0
  9 10  1  0  0  0  0
 12  3  2  0  0  0  0
 13 11  1  6  0  0  0
 13 12  1  0  0  0  0
 14  8  1  0  0  0  0
 15 16  1  0  0  0  0
 16 10  2  0  0  0  0
 17 19  1  1  0  0  0
 17 11  1  0  0  0  0
 18 14  1  0  0  0  0
 18  6  1  0  0  0  0
 19 21  1  0  0  0  0
 20 19  2  0  0  0  0
 22  2  1  0  0  0  0
 23 22  1  0  0  0  0
 24 23  1  0  0  0  0
 25 26  2  0  0  0  0
 27 25  1  0  0  0  0
 27 24  1  0  0  0  0
 28 25  1  0  0  0  0
 29 30  1  6  0  0  0
 29 28  1  0  0  0  0
 31 32  1  0  0  0  0
 32 29  1  0  0  0  0
M  END
>  <MODEL>
2

>  <REMARK>
 VINA RESULT:      -7.1      1.261      1.839
  Name = 
  8 active torsions:
  status: ('A' for Active; 'I' for Inactive)
    1  A    between atoms: N_2  and  C_10
    2  A    between atoms: C_3  and  C_32
    3  A    between atoms: C_5  and  C_10
    4  A    between atoms: C_5  and  C_17
    5  A    between atoms: C_9  and  C_30
    6  A    between atoms: C_16  and  C_28
    7  A    between atoms: C_16  and  C_32
    8  A    between atoms: C_17  and  N_22
                            x       y       z     vdW  Elec       q    Type
                         _______ _______ _______ _____ _____    ______ ____

>  <TORSDO>
F 8

$$$$
=
 OpenBabel11042421123D

 32 34  0  0  1  0  0  0  0  0999 V2000
  161.0850  208.2930  154.4800 C   0  0  0  0  0  0  0  0  0  0  0  0
  161.6000  208.0270  152.1370 N   0  0  0  0  0  0  0  0  0  0  0  0
  160.7620  212.1300  156.7910 O   0  0  0  0  0  0  0  0  0  0  0  0
  161.3080  210.5420  155.1680 N   0  0  0  0  0  0  0  0  0  0  0  0
  161.0540  209.3300  155.5280 C   0  0  0  0  0  0  0  0  0  0  0  0
  160.9770  208.7060  153.0560 C   0  0  0  0  0  0  0  0  0  0  0  0
  158.5790  212.5840  152.1460 S   0  0  0  0  0  0  0  0  0  0  0  0
  160.0790  212.3130  153.1450 C   0  0  1  0  0  3  0  0  0  0  0  0
  160.5310  208.9990  156.8210 N   0  0  0  0  0  2  0  0  0  0  0  0
  160.4000  207.6120  157.1710 C   0  0  0  0  0  3  0  0  0  0  0  0
  158.3020  211.7280  154.7440 C   0  0  0  0  0  2  0  0  0  0  0  0
  160.6350  211.7040  155.6120 C   0  0  0  0  0  0  0  0  0  0  0  0
  159.6800  212.3470  154.6440 C   0  0  1  0  0  3  0  0  0  0  0  0
  160.8450  211.1360  152.6750 N   0  0  0  0  0  2  0  0  0  0  0  0
  160.8740  207.0190  154.8350 C   0  0  0  0  0  3  0  0  0  0  0  0
  160.5900  206.6590  156.2450 C   0  0  0  0  0  3  0  0  0  0  0  0
  157.4800  212.2230  153.5620 C   0  0  1  0  0  3  0  0  0  0  0  0
  160.0790  209.8840  152.7030 C   0  0  0  0  0  2  0  0  0  0  0  0
  156.7020  213.4420  153.9420 C   0  0  0  0  0  0  0  0  0  0  0  0
  155.9480  213.4640  155.1110 O   0  0  0  0  0  1  0  0  0  0  0  0
  156.7250  214.4530  153.1920 O   0  0  0  0  0  0  0  0  0  0  0  0
  161.5280  208.3380  150.7110 C   0  0  0  0  0  2  0  0  0  0  0  0
  161.9540  207.1460  149.8680 C   0  0  0  0  0  2  0  0  0  0  0  0
  160.8520  206.7480  148.8960 C   0  0  0  0  0  2  0  0  0  0  0  0
  161.3780  204.5070  147.8320 C   0  0  0  0  0  0  0  0  0  0  0  0
  162.1180  205.0530  146.9700 O   0  0  0  0  0  0  0  0  0  0  0  0
  160.7300  205.2960  148.8360 N   0  0  0  0  0  2  0  0  0  0  0  0
  161.1230  203.0360  147.7470 C   0  0  0  0  0  2  0  0  0  0  0  0
  161.4520  202.3250  149.0530 C   0  0  2  0  0  3  0  0  0  0  0  0
  161.4340  200.9430  148.8550 O   0  0  0  0  0  1  0  0  0  0  0  0
  160.9920  202.8490  151.3370 O   0  0  0  0  0  1  0  0  0  0  0  0
  160.4060  202.7080  150.0780 C   0  0  0  0  0  2  0  0  0  0  0  0
  1 15  2  0  0  0  0
  1  5  1  0  0  0  0
  2  6  2  0  0  0  0
  4  5  2  0  0  0  0
  4 12  1  0  0  0  0
  5  9  1  0  0  0  0
  6  1  1  0  0  0  0
  7 17  1  0  0  0  0
  8  7  1  6  0  0  0
  8 13  1  0  0  0  0
  9 10  1  0  0  0  0
 12  3  2  0  0  0  0
 13 11  1  6  0  0  0
 13 12  1  0  0  0  0
 14 18  1  0  0  0  0
 14  8  1  0  0  0  0
 15 16  1  0  0  0  0
 16 10  2  0  0  0  0
 17 19  1  1  0  0  0
 17 11  1  0  0  0  0
 18  6  1  0  0  0  0
 19 20  1  0  0  0  0
 21 19  2  0  0  0  0
 22  2  1  0  0  0  0
 23 22  1  0  0  0  0
 24 23  1  0  0  0  0
 25 27  1  0  0  0  0
 26 25  2  0  0  0  0
 27 24  1  0  0  0  0
 28 25  1  0  0  0  0
 28 29  1  0  0  0  0
 29 30  1  6  0  0  0
 29 32  1  0  0  0  0
 32 31  1  0  0  0  0
M  END
>  <MODEL>
3

>  <REMARK>
 VINA RESULT:      -6.4      0.898      1.302
  Name = 
  8 active torsions:
  status: ('A' for Active; 'I' for Inactive)
    1  A    between atoms: N_2  and  C_10
    2  A    between atoms: C_3  and  C_32
    3  A    between atoms: C_5  and  C_10
    4  A    between atoms: C_5  and  C_17
    5  A    between atoms: C_9  and  C_30
    6  A    between atoms: C_16  and  C_28
    7  A    between atoms: C_16  and  C_32
    8  A    between atoms: C_17  and  N_22
                            x       y       z     vdW  Elec       q    Type
                         _______ _______ _______ _____ _____    ______ ____

>  <TORSDO>
F 8

$$$$
=
 OpenBabel11042421123D

 32 34  0  0  1  0  0  0  0  0999 V2000
  161.3170  208.2830  150.7810 C   0  0  0  0  0  0  0  0  0  0  0  0
  161.1560  205.9740  151.4670 N   0  0  0  0  0  0  0  0  0  0  0  0
  159.7400  211.8930  152.9380 O   0  0  0  0  0  0  0  0  0  0  0  0
  160.0760  209.7000  152.2060 N   0  0  0  0  0  0  0  0  0  0  0  0
  160.8070  209.6170  151.1470 C   0  0  0  0  0  0  0  0  0  0  0  0
  161.3430  207.2140  151.8140 C   0  0  0  0  0  0  0  0  0  0  0  0
  161.8590  208.5500  156.2370 S   0  0  0  0  0  0  0  0  0  0  0  0
  160.5570  208.9280  155.0190 C   0  0  1  0  0  3  0  0  0  0  0  0
  161.3190  210.7700  150.4660 N   0  0  0  0  0  2  0  0  0  0  0  0
  162.0180  210.5780  149.2260 C   0  0  0  0  0  3  0  0  0  0  0  0
  162.2790  210.5870  154.4390 C   0  0  0  0  0  2  0  0  0  0  0  0
  160.1330  210.7210  153.1840 C   0  0  0  0  0  0  0  0  0  0  0  0
  160.7820  210.3700  154.4950 C   0  0  1  0  0  3  0  0  0  0  0  0
  160.4250  207.8530  154.0080 N   0  0  0  0  0  2  0  0  0  0  0  0
  162.0370  208.1590  149.6580 C   0  0  0  0  0  3  0  0  0  0  0  0
  162.3390  209.3410  148.8150 C   0  0  0  0  0  3  0  0  0  0  0  0
  162.8900  209.9540  155.6810 C   0  0  1  0  0  3  0  0  0  0  0  0
  161.6580  207.5980  153.2540 C   0  0  0  0  0  2  0  0  0  0  0  0
  163.0220  210.9680  156.7710 C   0  0  0  0  0  0  0  0  0  0  0  0
  161.9000  211.6310  157.2610 O   0  0  0  0  0  1  0  0  0  0  0  0
  164.1590  211.2290  157.2450 O   0  0  0  0  0  0  0  0  0  0  0  0
  161.1950  204.8550  152.4050 C   0  0  0  0  0  2  0  0  0  0  0  0
  161.5960  203.5660  151.7040 C   0  0  0  0  0  2  0  0  0  0  0  0
  160.6320  203.2410  150.5720 C   0  0  0  0  0  2  0  0  0  0  0  0
  161.2420  204.3640  148.3820 C   0  0  0  0  0  0  0  0  0  0  0  0
  160.5710  205.3890  148.6820 O   0  0  0  0  0  0  0  0  0  0  0  0
  161.3280  203.2620  149.2920 N   0  0  0  0  0  2  0  0  0  0  0  0
  161.8810  204.2810  147.0320 C   0  0  0  0  0  2  0  0  0  0  0  0
  160.8670  203.9700  145.9400 C   0  0  2  0  0  3  0  0  0  0  0  0
  161.2060  202.7720  145.3090 O   0  0  0  0  0  1  0  0  0  0  0  0
  160.1250  206.1740  145.3940 O   0  0  0  0  0  1  0  0  0  0  0  0
  160.8930  205.1020  144.9340 C   0  0  0  0  0  2  0  0  0  0  0  0
  1  5  1  0  0  0  0
  1  6  1  0  0  0  0
  2  6  2  0  0  0  0
  2 22  1  0  0  0  0
  3 12  2  0  0  0  0
  4 12  1  0  0  0  0
  5  4  2  0  0  0  0
  6 18  1  0  0  0  0
  8 14  1  6  0  0  0
  8  7  1  0  0  0  0
  9  5  1  0  0  0  0
 10  9  1  0  0  0  0
 11 17  1  0  0  0  0
 12 13  1  0  0  0  0
 13 11  1  6  0  0  0
 13  8  1  0  0  0  0
 15  1  2  0  0  0  0
 16 10  2  0  0  0  0
 16 15  1  0  0  0  0
 17  7  1  0  0  0  0
 17 19  1  1  0  0  0
 18 14  1  0  0  0  0
 19 21  2  0  0  0  0
 19 20  1  0  0  0  0
 23 22  1  0  0  0  0
 24 23  1  0  0  0  0
 25 26  2  0  0  0  0
 25 27  1  0  0  0  0
 27 24  1  0  0  0  0
 28 25  1  0  0  0  0
 29 30  1  6  0  0  0
 29 28  1  0  0  0  0
 32 31  1  0  0  0  0
 32 29  1  0  0  0  0
M  END
>  <MODEL>
4

>  <REMARK>
 VINA RESULT:      -6.0      2.757      5.028
  Name = 
  8 active torsions:
  status: ('A' for Active; 'I' for Inactive)
    1  A    between atoms: N_2  and  C_10
    2  A    between atoms: C_3  and  C_32
    3  A    between atoms: C_5  and  C_10
    4  A    between atoms: C_5  and  C_17
    5  A    between atoms: C_9  and  C_30
    6  A    between atoms: C_16  and  C_28
    7  A    between atoms: C_16  and  C_32
    8  A    between atoms: C_17  and  N_22
                            x       y       z     vdW  Elec       q    Type
                         _______ _______ _______ _____ _____    ______ ____

>  <TORSDO>
F 8

$$$$
=
 OpenBabel11042421123D

 32 34  0  0  1  0  0  0  0  0999 V2000
  161.1610  208.5200  153.4880 C   0  0  0  0  0  0  0  0  0  0  0  0
  161.9990  209.2480  151.3450 N   0  0  0  0  0  0  0  0  0  0  0  0
  159.9960  211.0880  156.9840 O   0  0  0  0  0  0  0  0  0  0  0  0
  160.9660  210.3240  155.0020 N   0  0  0  0  0  0  0  0  0  0  0  0
  160.8480  209.0520  154.8280 C   0  0  0  0  0  0  0  0  0  0  0  0
  161.1740  209.4520  152.3300 C   0  0  0  0  0  0  0  0  0  0  0  0
  158.3710  213.1550  152.5520 S   0  0  0  0  0  0  0  0  0  0  0  0
  159.7570  212.6400  153.6180 C   0  0  1  0  0  3  0  0  0  0  0  0
  160.2210  208.1930  155.7890 N   0  0  0  0  0  2  0  0  0  0  0  0
  160.2500  206.7750  155.5610 C   0  0  0  0  0  3  0  0  0  0  0  0
  157.8970  211.3210  154.5460 C   0  0  0  0  0  2  0  0  0  0  0  0
  160.0810  211.1540  155.7280 C   0  0  0  0  0  0  0  0  0  0  0  0
  159.1720  212.0440  154.9260 C   0  0  1  0  0  3  0  0  0  0  0  0
  160.7390  211.8140  152.8780 N   0  0  0  0  0  2  0  0  0  0  0  0
  161.0950  207.1970  153.2930 C   0  0  0  0  0  3  0  0  0  0  0  0
  160.6910  206.2860  154.3910 C   0  0  0  0  0  3  0  0  0  0  0  0
  157.1670  212.1720  153.5150 C   0  0  1  0  0  3  0  0  0  0  0  0
  160.1660  210.5940  152.2990 C   0  0  0  0  0  2  0  0  0  0  0  0
  156.1790  213.0700  154.1860 C   0  0  0  0  0  0  0  0  0  0  0  0
  156.2410  214.4490  154.0070 O   0  0  0  0  0  0  0  0  0  0  0  0
  155.2880  212.5740  154.9260 O   0  0  0  0  0  1  0  0  0  0  0  0
  162.0630  210.0900  150.1530 C   0  0  0  0  0  2  0  0  0  0  0  0
  161.6770  209.3090  148.9080 C   0  0  0  0  0  2  0  0  0  0  0  0
  162.5850  208.1010  148.7210 C   0  0  0  0  0  2  0  0  0  0  0  0
  161.2640  205.9640  149.0620 C   0  0  0  0  0  0  0  0  0  0  0  0
  161.3880  206.0480  150.3140 O   0  0  0  0  0  0  0  0  0  0  0  0
  161.8230  206.9680  148.2080 N   0  0  0  0  0  2  0  0  0  0  0  0
  160.5940  204.7620  148.4750 C   0  0  0  0  0  2  0  0  0  0  0  0
  161.3870  203.4870  148.7270 C   0  0  2  0  0  3  0  0  0  0  0  0
  161.5240  202.7730  147.5360 O   0  0  0  0  0  1  0  0  0  0  0  0
  160.9190  201.2980  149.5590 O   0  0  0  0  0  1  0  0  0  0  0  0
  160.6320  202.6530  149.7400 C   0  0  0  0  0  2  0  0  0  0  0  0
  1  5  1  0  0  0  0
  2  6  2  0  0  0  0
  4 12  1  0  0  0  0
  5  4  2  0  0  0  0
  5  9  1  0  0  0  0
  6  1  1  0  0  0  0
  7 17  1  0  0  0  0
  8  7  1  6  0  0  0
  8 13  1  0  0  0  0
 10  9  1  0  0  0  0
 12  3  2  0  0  0  0
 13 11  1  6  0  0  0
 13 12  1  0  0  0  0
 14  8  1  0  0  0  0
 15  1  2  0  0  0  0
 15 16  1  0  0  0  0
 16 10  2  0  0  0  0
 17 19  1  1  0  0  0
 17 11  1  0  0  0  0
 18  6  1  0  0  0  0
 18 14  1  0  0  0  0
 19 21  1  0  0  0  0
 20 19  2  0  0  0  0
 22  2  1  0  0  0  0
 23 22  1  0  0  0  0
 24 23  1  0  0  0  0
 25 26  2  0  0  0  0
 27 24  1  0  0  0  0
 27 25  1  0  0  0  0
 28 29  1  0  0  0  0
 28 25  1  0  0  0  0
 29 30  1  6  0  0  0
 29 32  1  0  0  0  0
 31 32  1  0  0  0  0
M  END
>  <MODEL>
5

>  <REMARK>
 VINA RESULT:      -6.0      1.210      1.569
  Name = 
  8 active torsions:
  status: ('A' for Active; 'I' for Inactive)
    1  A    between atoms: N_2  and  C_10
    2  A    between atoms: C_3  and  C_32
    3  A    between atoms: C_5  and  C_10
    4  A    between atoms: C_5  and  C_17
    5  A    between atoms: C_9  and  C_30
    6  A    between atoms: C_16  and  C_28
    7  A    between atoms: C_16  and  C_32
    8  A    between atoms: C_17  and  N_22
                            x       y       z     vdW  Elec       q    Type
                         _______ _______ _______ _____ _____    ______ ____

>  <TORSDO>
F 8

$$$$
=
 OpenBabel11042421123D

 32 34  0  0  1  0  0  0  0  0999 V2000
  161.7000  207.8300  149.4170 C   0  0  0  0  0  0  0  0  0  0  0  0
  162.4480  209.9690  148.5870 N   0  0  0  0  0  0  0  0  0  0  0  0
  162.2110  206.1730  153.5600 O   0  0  0  0  0  0  0  0  0  0  0  0
  162.4850  207.4260  151.6090 N   0  0  0  0  0  0  0  0  0  0  0  0
  161.8290  206.9600  150.6010 C   0  0  0  0  0  0  0  0  0  0  0  0
  161.9310  209.2910  149.5700 C   0  0  0  0  0  0  0  0  0  0  0  0
  160.9710  211.1720  153.7110 S   0  0  0  0  0  0  0  0  0  0  0  0
  162.1560  209.8720  153.2360 C   0  0  1  0  0  3  0  0  0  0  0  0
  161.0470  205.7610  150.6730 N   0  0  0  0  0  2  0  0  0  0  0  0
  160.4550  205.2570  149.4660 C   0  0  0  0  0  3  0  0  0  0  0  0
  160.0710  208.5850  153.4670 C   0  0  0  0  0  2  0  0  0  0  0  0
  162.1360  207.2850  152.9720 C   0  0  0  0  0  0  0  0  0  0  0  0
  161.5710  208.4990  153.6570 C   0  0  1  0  0  3  0  0  0  0  0  0
  162.5930  210.0190  151.8280 N   0  0  0  0  0  2  0  0  0  0  0  0
  161.0660  207.3530  148.3390 C   0  0  0  0  0  3  0  0  0  0  0  0
  160.4830  205.9890  148.3400 C   0  0  0  0  0  3  0  0  0  0  0  0
  159.6190  209.9610  153.9360 C   0  0  1  0  0  3  0  0  0  0  0  0
  161.4910  209.9700  150.8600 C   0  0  0  0  0  2  0  0  0  0  0  0
  159.1970  209.9110  155.3680 C   0  0  0  0  0  0  0  0  0  0  0  0
  159.7380  208.9630  156.2330 O   0  0  0  0  0  1  0  0  0  0  0  0
  158.3390  210.7290  155.7940 O   0  0  0  0  0  0  0  0  0  0  0  0
  162.6830  211.4110  148.6330 C   0  0  0  0  0  2  0  0  0  0  0  0
  161.6000  212.1670  147.8820 C   0  0  0  0  0  2  0  0  0  0  0  0
  162.2090  213.1270  146.8700 C   0  0  0  0  0  2  0  0  0  0  0  0
  162.1770  213.0500  144.3350 C   0  0  0  0  0  0  0  0  0  0  0  0
  163.4360  213.1040  144.2850 O   0  0  0  0  0  0  0  0  0  0  0  0
  161.5020  213.0390  145.5980 N   0  0  0  0  0  2  0  0  0  0  0  0
  161.3950  213.0760  143.0610 C   0  0  0  0  0  2  0  0  0  0  0  0
  162.0180  212.1870  141.9920 C   0  0  2  0  0  3  0  0  0  0  0  0
  162.6330  212.9780  141.0200 O   0  0  0  0  0  1  0  0  0  0  0  0
  161.4530  210.4670  140.4360 O   0  0  0  0  0  1  0  0  0  0  0  0
  160.9150  211.3650  141.3600 C   0  0  0  0  0  2  0  0  0  0  0  0
  1  6  1  0  0  0  0
  1  5  1  0  0  0  0
  2 22  1  0  0  0  0
  2  6  2  0  0  0  0
  4 12  1  0  0  0  0
  5  9  1  0  0  0  0
  5  4  2  0  0  0  0
  6 18  1  0  0  0  0
  7 17  1  0  0  0  0
  8 14  1  6  0  0  0
  8 13  1  0  0  0  0
  8  7  1  0  0  0  0
 10  9  1  0  0  0  0
 11 17  1  0  0  0  0
 12  3  2  0  0  0  0
 12 13  1  0  0  0  0
 13 11  1  6  0  0  0
 15 16  1  0  0  0  0
 15  1  2  0  0  0  0
 16 10  2  0  0  0  0
 17 19  1  1  0  0  0
 18 14  1  0  0  0  0
 19 21  2  0  0  0  0
 19 20  1  0  0  0  0
 23 22  1  0  0  0  0
 24 23  1  0  0  0  0
 25 27  1  0  0  0  0
 26 25  2  0  0  0  0
 27 24  1  0  0  0  0
 28 25  1  0  0  0  0
 29 30  1  6  0  0  0
 29 28  1  0  0  0  0
 31 32  1  0  0  0  0
 32 29  1  0  0  0  0
M  END
>  <MODEL>
6

>  <REMARK>
 VINA RESULT:      -5.2      5.114      7.429
  Name = 
  8 active torsions:
  status: ('A' for Active; 'I' for Inactive)
    1  A    between atoms: N_2  and  C_10
    2  A    between atoms: C_3  and  C_32
    3  A    between atoms: C_5  and  C_10
    4  A    between atoms: C_5  and  C_17
    5  A    between atoms: C_9  and  C_30
    6  A    between atoms: C_16  and  C_28
    7  A    between atoms: C_16  and  C_32
    8  A    between atoms: C_17  and  N_22
                            x       y       z     vdW  Elec       q    Type
                         _______ _______ _______ _____ _____    ______ ____

>  <TORSDO>
F 8

$$$$
=
 OpenBabel11042421123D

 32 34  0  0  1  0  0  0  0  0999 V2000
  161.2410  204.9860  150.2780 C   0  0  0  0  0  0  0  0  0  0  0  0
  161.5030  205.9420  148.0770 N   0  0  0  0  0  0  0  0  0  0  0  0
  162.8590  206.5680  154.1570 O   0  0  0  0  0  0  0  0  0  0  0  0
  162.5330  206.1390  151.8850 N   0  0  0  0  0  0  0  0  0  0  0  0
  161.7390  205.1490  151.6570 C   0  0  0  0  0  0  0  0  0  0  0  0
  161.3070  206.1430  149.3480 C   0  0  0  0  0  0  0  0  0  0  0  0
  161.0380  210.3910  151.2200 S   0  0  0  0  0  0  0  0  0  0  0  0
  162.2510  209.0520  151.4640 C   0  0  1  0  0  3  0  0  0  0  0  0
  161.1550  204.3660  152.7050 N   0  0  0  0  0  2  0  0  0  0  0  0
  160.3850  203.2080  152.3470 C   0  0  0  0  0  3  0  0  0  0  0  0
  160.4540  208.3840  153.0080 C   0  0  0  0  0  2  0  0  0  0  0  0
  162.5120  206.9840  153.0190 C   0  0  0  0  0  0  0  0  0  0  0  0
  161.9570  208.3680  152.8250 C   0  0  1  0  0  3  0  0  0  0  0  0
  162.3460  208.1760  150.2730 N   0  0  0  0  0  2  0  0  0  0  0  0
  160.4540  203.9380  150.0020 C   0  0  0  0  0  3  0  0  0  0  0  0
  160.0690  202.9750  151.0620 C   0  0  0  0  0  3  0  0  0  0  0  0
  159.9390  209.7330  152.5260 C   0  0  1  0  0  3  0  0  0  0  0  0
  161.0740  207.5420  149.9040 C   0  0  0  0  0  2  0  0  0  0  0  0
  159.8510  210.6950  153.6660 C   0  0  0  0  0  0  0  0  0  0  0  0
  158.6130  211.1350  154.1270 O   0  0  0  0  0  0  0  0  0  0  0  0
  160.9070  211.1170  154.2080 O   0  0  0  0  0  1  0  0  0  0  0  0
  161.5510  207.0120  147.0840 C   0  0  0  0  0  2  0  0  0  0  0  0
  160.8400  206.6050  145.8040 C   0  0  0  0  0  2  0  0  0  0  0  0
  161.6570  205.5770  145.0330 C   0  0  0  0  0  2  0  0  0  0  0  0
  161.3370  203.2180  145.9080 C   0  0  0  0  0  0  0  0  0  0  0  0
  162.2570  203.3730  146.7560 O   0  0  0  0  0  0  0  0  0  0  0  0
  160.9740  204.2880  145.0280 N   0  0  0  0  0  2  0  0  0  0  0  0
  160.6820  201.8800  145.7790 C   0  0  0  0  0  2  0  0  0  0  0  0
  161.3340  200.8380  146.6790 C   0  0  2  0  0  3  0  0  0  0  0  0
  161.1740  199.5680  146.1220 O   0  0  0  0  0  1  0  0  0  0  0  0
  161.5750  200.5980  149.0420 O   0  0  0  0  0  1  0  0  0  0  0  0
  160.6570  200.8910  148.0320 C   0  0  0  0  0  2  0  0  0  0  0  0
  1  5  1  0  0  0  0
  2  6  2  0  0  0  0
  4 12  1  0  0  0  0
  5  4  2  0  0  0  0
  5  9  1  0  0  0  0
  6 18  1  0  0  0  0
  6  1  1  0  0  0  0
  7  8  1  0  0  0  0
  7 17  1  0  0  0  0
  8 14  1  6  0  0  0
  8 13  1  0  0  0  0
 10  9  1  0  0  0  0
 12  3  2  0  0  0  0
 13 11  1  6  0  0  0
 13 12  1  0  0  0  0
 15  1  2  0  0  0  0
 15 16  1  0  0  0  0
 16 10  2  0  0  0  0
 17 11  1  0  0  0  0
 17 19  1  1  0  0  0
 18 14  1  0  0  0  0
 19 20  2  0  0  0  0
 19 21  1  0  0  0  0
 22  2  1  0  0  0  0
 23 22  1  0  0  0  0
 24 23  1  0  0  0  0
 25 26  2  0  0  0  0
 27 24  1  0  0  0  0
 27 25  1  0  0  0  0
 28 25  1  0  0  0  0
 28 29  1  0  0  0  0
 29 30  1  6  0  0  0
 29 32  1  0  0  0  0
 32 31  1  0  0  0  0
M  END
>  <MODEL>
7

>  <REMARK>
 VINA RESULT:      -4.3      2.824      4.669
  Name = 
  8 active torsions:
  status: ('A' for Active; 'I' for Inactive)
    1  A    between atoms: N_2  and  C_10
    2  A    between atoms: C_3  and  C_32
    3  A    between atoms: C_5  and  C_10
    4  A    between atoms: C_5  and  C_17
    5  A    between atoms: C_9  and  C_30
    6  A    between atoms: C_16  and  C_28
    7  A    between atoms: C_16  and  C_32
    8  A    between atoms: C_17  and  N_22
                            x       y       z     vdW  Elec       q    Type
                         _______ _______ _______ _____ _____    ______ ____

>  <TORSDO>
F 8

$$$$
