=
 OpenBabel11052411293D

 57 64  0  0  1  0  0  0  0  0999 V2000
  160.1770  212.9010  150.8830 C   0  0  2  0  0  3  0  0  0  0  0  0
  159.4890  211.9180  151.8470 C   0  0  0  0  0  0  0  0  0  0  0  0
  160.0170  214.2670  151.2320 O   0  0  0  0  0  0  0  0  0  0  0  0
  158.9830  213.8310  153.3160 C   0  0  0  0  0  2  0  0  0  0  0  0
  158.8810  212.3790  152.9600 C   0  0  0  0  0  0  0  0  0  0  0  0
  160.1880  214.4290  152.6130 C   0  0  0  0  0  2  0  0  0  0  0  0
  162.0020  212.9190  148.6720 O   0  0  0  0  0  0  0  0  0  0  0  0
  159.2190  213.0790  146.1060 C   0  0  1  0  0  0  0  0  0  0  0  0
  160.1880  212.1630  145.7500 C   0  0  2  0  0  3  0  0  0  0  0  0
  160.7760  212.9300  148.3790 C   0  0  0  0  0  0  0  0  0  0  0  0
  159.1950  214.3410  145.5350 F   0  0  0  0  0  0  0  0  0  0  0  0
  159.6990  212.7610  149.4240 C   0  0  2  0  0  3  0  0  0  0  0  0
  157.9730  212.5780  146.8230 C   0  0  0  0  0  2  0  0  0  0  0  0
  157.6660  213.4370  148.0250 C   0  0  0  0  0  3  0  0  0  0  0  0
  160.3790  212.9300  147.0220 N   0  0  0  0  0  0  0  0  0  0  0  0
  158.4190  213.5200  149.1410 C   0  0  0  0  0  3  0  0  0  0  0  0
  161.1630  212.6710  144.7010 C   0  0  0  0  0  2  0  0  0  0  0  0
  160.6770  212.2880  143.3840 N   0  0  0  0  0  2  0  0  0  0  0  0
  162.3700  213.3570  142.1750 O   0  0  0  0  0  0  0  0  0  0  0  0
  161.2060  212.8660  142.1880 C   0  0  0  0  0  0  0  0  0  0  0  0
  158.8740  211.6260  139.4340 C   0  0  1  0  0  3  0  0  0  0  0  0
  159.7280  211.5950  140.6970 C   0  0  0  0  0  2  0  0  0  0  0  0
  159.3600  214.4520  138.5910 O   0  0  0  0  0  1  0  0  0  0  0  0
  161.1860  213.4140  139.7600 C   0  0  0  0  0  2  0  0  0  0  0  0
  160.3360  213.4580  138.4890 C   0  0  1  0  0  3  0  0  0  0  0  0
  160.3590  212.9570  140.9650 C   0  0  2  0  0  3  0  0  0  0  0  0
  159.6840  212.0990  138.2220 C   0  0  0  0  0  2  0  0  0  0  0  0
  158.1960  210.2730  139.1920 C   0  0  0  0  0  2  0  0  0  0  0  0
  154.5900  209.1970  138.3070 C   0  0  0  0  0  2  0  0  0  0  0  0
  156.7390  210.3610  138.8520 C   0  0  0  0  0  0  0  0  0  0  0  0
  155.7740  209.2790  139.2760 C   0  0  0  0  0  2  0  0  0  0  0  0
  156.2680  211.4900  138.3140 C   0  0  0  0  0  3  0  0  0  0  0  0
  154.8350  211.6310  137.9900 C   0  0  0  0  0  3  0  0  0  0  0  0
  154.0310  210.5660  138.0220 C   0  0  0  0  0  3  0  0  0  0  0  0
  158.9610  210.6840  154.8780 C   0  0  0  0  0  0  0  0  0  0  0  0
  158.5370  209.5250  155.1330 O   0  0  0  0  0  0  0  0  0  0  0  0
  158.2780  211.4550  153.8800 N   0  0  0  0  0  2  0  0  0  0  0  0
  159.9150  212.3010  156.5290 C   0  0  0  0  0  3  0  0  0  0  0  0
  162.1910  212.2190  157.1570 C   0  0  0  0  0  3  0  0  0  0  0  0
  161.3820  210.6630  155.5710 C   0  0  0  0  0  0  0  0  0  0  0  0
  160.9580  212.7760  157.2600 N   0  0  0  0  0  0  0  0  0  0  0  0
  161.6340  209.6210  154.7390 F   0  0  0  0  0  0  0  0  0  0  0  0
  162.3960  211.1730  156.3190 N   0  0  0  0  0  0  0  0  0  0  0  0
  160.1000  211.2280  155.6500 C   0  0  0  0  0  0  0  0  0  0  0  0
  159.6790  210.4620  151.7120 C   0  0  0  0  0  3  0  0  0  0  0  0
  160.8520  209.9240  151.6420 N   0  0  0  0  0  0  0  0  0  0  0  0
  161.2500  203.8460  151.3000 C   0  0  0  0  0  0  0  0  0  0  0  0
  161.0710  206.4130  152.3270 C   0  0  0  0  0  0  0  0  0  0  0  0
  161.2930  207.6280  150.1370 S   0  0  0  0  0  0  0  0  0  0  0  0
  161.2660  206.1760  150.9790 C   0  0  0  0  0  0  0  0  0  0  0  0
  161.0440  208.5120  151.5750 C   0  0  0  0  0  0  0  0  0  0  0  0
  161.3420  204.9220  150.4630 N   0  0  0  0  0  0  0  0  0  0  0  0
  161.0470  204.0370  152.6810 C   0  0  0  0  0  3  0  0  0  0  0  0
  160.9570  205.3400  153.2060 C   0  0  0  0  0  3  0  0  0  0  0  0
  160.9410  207.7180  152.6710 N   0  0  0  0  0  0  0  0  0  0  0  0
  160.7300  202.4680  149.3940 N   0  0  0  0  0  1  0  0  0  0  0  0
  161.2940  202.4660  150.7340 C   0  0  0  0  0  2  0  0  0  0  0  0
  1  3  1  1  0  0  0
  1  2  1  0  0  0  0
  2  5  2  0  0  0  0
  3  6  1  0  0  0  0
  5  4  1  0  0  0  0
  5 37  1  0  0  0  0
  6  4  1  0  0  0  0
  8 11  1  6  0  0  0
  8 13  1  0  0  0  0
  8 15  1  0  0  0  0
  9 17  1  6  0  0  0
  9  8  1  0  0  0  0
  9 15  1  0  0  0  0
 10  7  2  0  0  0  0
 10 12  1  0  0  0  0
 12 16  1  6  0  0  0
 12  1  1  0  0  0  0
 13 14  1  0  0  0  0
 14 16  2  0  0  0  0
 15 10  1  0  0  0  0
 18 17  1  0  0  0  0
 19 20  2  0  0  0  0
 20 18  1  0  0  0  0
 21 28  1  6  0  0  0
 21 22  1  0  0  0  0
 22 26  1  0  0  0  0
 24 26  1  0  0  0  0
 25 23  1  1  0  0  0
 25 24  1  0  0  0  0
 26 20  1  1  0  0  0
 27 25  1  0  0  0  0
 27 21  1  0  0  0  0
 29 31  1  0  0  0  0
 30 28  1  0  0  0  0
 30 31  1  0  0  0  0
 32 30  2  0  0  0  0
 33 34  2  0  0  0  0
 33 32  1  0  0  0  0
 34 29  1  0  0  0  0
 35 36  2  0  0  0  0
 35 44  1  0  0  0  0
 37 35  1  0  0  0  0
 38 41  1  0  0  0  0
 39 41  2  0  0  0  0
 40 44  1  0  0  0  0
 40 43  2  0  0  0  0
 42 40  1  0  0  0  0
 43 39  1  0  0  0  0
 44 38  2  0  0  0  0
 45  2  1  0  0  0  0
 46 45  2  0  0  0  0
 47 53  1  0  0  0  0
 48 55  1  0  0  0  0
 48 54  1  0  0  0  0
 49 50  1  0  0  0  0
 49 51  1  0  0  0  0
 50 48  2  0  0  0  0
 51 46  1  0  0  0  0
 51 55  2  0  0  0  0
 52 50  1  0  0  0  0
 52 47  2  0  0  0  0
 53 54  2  0  0  0  0
 56 57  1  0  0  0  0
 57 47  1  0  0  0  0
M  END
>  <MODEL>
1

>  <REMARK>
 VINA RESULT:      -4.5      0.000      0.000
  Name = 
  11 active torsions:
  status: ('A' for Active; 'I' for Inactive)
    1  A    between atoms: C_2  and  N_19
    2  A    between atoms: C_2  and  C_24
    3  A    between atoms: C_3  and  C_8
    4  A    between atoms: C_4  and  C_9
    5  A    between atoms: C_5  and  C_49
    6  A    between atoms: C_9  and  C_20
    7  A    between atoms: C_14  and  C_41
    8  A    between atoms: C_15  and  C_30
    9  A    between atoms: C_18  and  N_35
   10  A    between atoms: C_46  and  N_51
   11  A    between atoms: C_54  and  C_56
                            x       y       z     vdW  Elec       q    Type
                         _______ _______ _______ _____ _____    ______ ____

>  <TORSDO>
F 11

$$$$
=
 OpenBabel11052411293D

 57 64  0  0  1  0  0  0  0  0999 V2000
  160.1970  212.9110  151.2530 C   0  0  2  0  0  3  0  0  0  0  0  0
  159.5050  211.9110  152.1970 C   0  0  0  0  0  0  0  0  0  0  0  0
  160.0140  214.2720  151.6100 O   0  0  0  0  0  0  0  0  0  0  0  0
  158.9480  213.8060  153.6720 C   0  0  0  0  0  2  0  0  0  0  0  0
  158.8710  212.3550  153.3020 C   0  0  0  0  0  0  0  0  0  0  0  0
  160.1590  214.4250  152.9950 C   0  0  0  0  0  2  0  0  0  0  0  0
  162.0130  213.2680  149.0640 O   0  0  0  0  0  0  0  0  0  0  0  0
  159.2440  213.1800  146.4800 C   0  0  1  0  0  0  0  0  0  0  0  0
  160.3260  212.4160  146.0930 C   0  0  2  0  0  3  0  0  0  0  0  0
  160.7980  213.1320  148.7590 C   0  0  0  0  0  0  0  0  0  0  0  0
  159.0560  214.4530  145.9660 F   0  0  0  0  0  0  0  0  0  0  0  0
  159.7480  212.7760  149.7840 C   0  0  2  0  0  3  0  0  0  0  0  0
  158.0710  212.4880  147.1610 C   0  0  0  0  0  2  0  0  0  0  0  0
  157.6500  213.2440  148.3980 C   0  0  0  0  0  3  0  0  0  0  0  0
  160.4090  213.1420  147.3990 N   0  0  0  0  0  0  0  0  0  0  0  0
  158.3810  213.3730  149.5230 C   0  0  0  0  0  3  0  0  0  0  0  0
  161.2300  213.0940  145.0770 C   0  0  0  0  0  2  0  0  0  0  0  0
  161.2870  212.2720  143.8770 N   0  0  0  0  0  2  0  0  0  0  0  0
  163.0860  213.3980  142.8930 O   0  0  0  0  0  0  0  0  0  0  0  0
  162.0850  212.6400  142.7490 C   0  0  0  0  0  0  0  0  0  0  0  0
  159.7400  211.5100  139.9600 C   0  0  1  0  0  3  0  0  0  0  0  0
  160.1860  212.0020  141.3330 C   0  0  0  0  0  2  0  0  0  0  0  0
  162.4110  211.2780  138.6380 O   0  0  0  0  0  1  0  0  0  0  0  0
  162.4160  210.8900  141.0110 C   0  0  0  0  0  2  0  0  0  0  0  0
  161.9820  210.3930  139.6300 C   0  0  1  0  0  3  0  0  0  0  0  0
  161.6980  212.1910  141.3820 C   0  0  2  0  0  3  0  0  0  0  0  0
  160.4640  210.2180  139.5660 C   0  0  0  0  0  2  0  0  0  0  0  0
  158.2160  211.3700  139.8920 C   0  0  0  0  0  2  0  0  0  0  0  0
  157.6190  214.4530  137.6360 C   0  0  0  0  0  2  0  0  0  0  0  0
  157.5470  212.3180  138.9420 C   0  0  0  0  0  0  0  0  0  0  0  0
  158.3560  213.1530  137.9770 C   0  0  0  0  0  2  0  0  0  0  0  0
  156.2150  212.2950  138.8380 C   0  0  0  0  0  3  0  0  0  0  0  0
  155.5160  213.1900  137.8940 C   0  0  0  0  0  3  0  0  0  0  0  0
  156.1780  214.1830  137.2950 C   0  0  0  0  0  3  0  0  0  0  0  0
  157.2640  211.7130  155.1900 C   0  0  0  0  0  0  0  0  0  0  0  0
  157.2910  211.0780  156.2780 O   0  0  0  0  0  0  0  0  0  0  0  0
  158.2630  211.4170  154.2040 N   0  0  0  0  0  2  0  0  0  0  0  0
  155.6660  212.8690  153.6530 C   0  0  0  0  0  3  0  0  0  0  0  0
  154.1060  214.4490  154.4610 C   0  0  0  0  0  3  0  0  0  0  0  0
  155.5940  213.4220  155.9850 C   0  0  0  0  0  0  0  0  0  0  0  0
  154.6470  213.7420  153.4360 N   0  0  0  0  0  0  0  0  0  0  0  0
  156.0420  213.2980  157.2600 F   0  0  0  0  0  0  0  0  0  0  0  0
  154.5790  214.2870  155.7210 N   0  0  0  0  0  0  0  0  0  0  0  0
  156.1790  212.6880  154.9420 C   0  0  0  0  0  0  0  0  0  0  0  0
  159.7160  210.4580  152.0540 C   0  0  0  0  0  3  0  0  0  0  0  0
  160.8670  209.9560  151.7520 N   0  0  0  0  0  0  0  0  0  0  0  0
  161.4130  203.8940  151.3310 C   0  0  0  0  0  0  0  0  0  0  0  0
  161.1010  206.4370  152.3880 C   0  0  0  0  0  0  0  0  0  0  0  0
  161.4730  207.6990  150.2460 S   0  0  0  0  0  0  0  0  0  0  0  0
  161.4080  206.2310  151.0550 C   0  0  0  0  0  0  0  0  0  0  0  0
  161.0920  208.5490  151.6750 C   0  0  0  0  0  0  0  0  0  0  0  0
  161.5510  204.9880  150.5240 N   0  0  0  0  0  0  0  0  0  0  0  0
  161.0970  204.0540  152.6950 C   0  0  0  0  0  3  0  0  0  0  0  0
  160.9390  205.3440  153.2340 C   0  0  0  0  0  3  0  0  0  0  0  0
  160.9190  207.7320  152.7440 N   0  0  0  0  0  0  0  0  0  0  0  0
  160.8140  202.4740  149.4800 N   0  0  0  0  0  1  0  0  0  0  0  0
  161.5290  202.5270  150.7440 C   0  0  0  0  0  2  0  0  0  0  0  0
  1  3  1  1  0  0  0
  1  2  1  0  0  0  0
  2  5  2  0  0  0  0
  3  6  1  0  0  0  0
  5  4  1  0  0  0  0
  5 37  1  0  0  0  0
  6  4  1  0  0  0  0
  8 11  1  6  0  0  0
  8 13  1  0  0  0  0
  8 15  1  0  0  0  0
  9 17  1  6  0  0  0
  9  8  1  0  0  0  0
  9 15  1  0  0  0  0
 10  7  2  0  0  0  0
 10 12  1  0  0  0  0
 12 16  1  1  0  0  0
 12  1  1  0  0  0  0
 13 14  1  0  0  0  0
 14 16  2  0  0  0  0
 15 10  1  0  0  0  0
 18 17  1  0  0  0  0
 20 19  2  0  0  0  0
 20 18  1  0  0  0  0
 21 28  1  1  0  0  0
 21 22  1  0  0  0  0
 22 26  1  0  0  0  0
 24 26  1  0  0  0  0
 25 23  1  6  0  0  0
 25 24  1  0  0  0  0
 26 20  1  1  0  0  0
 27 25  1  0  0  0  0
 27 21  1  0  0  0  0
 29 31  1  0  0  0  0
 30 28  1  0  0  0  0
 31 30  1  0  0  0  0
 32 30  2  0  0  0  0
 33 32  1  0  0  0  0
 34 29  1  0  0  0  0
 34 33  2  0  0  0  0
 35 36  2  0  0  0  0
 37 35  1  0  0  0  0
 38 44  1  0  0  0  0
 39 43  2  0  0  0  0
 40 42  1  0  0  0  0
 41 38  2  0  0  0  0
 41 39  1  0  0  0  0
 43 40  1  0  0  0  0
 44 35  1  0  0  0  0
 44 40  2  0  0  0  0
 45  2  1  0  0  0  0
 46 45  2  0  0  0  0
 47 53  1  0  0  0  0
 48 55  1  0  0  0  0
 48 54  1  0  0  0  0
 49 50  1  0  0  0  0
 49 51  1  0  0  0  0
 50 48  2  0  0  0  0
 51 46  1  0  0  0  0
 51 55  2  0  0  0  0
 52 50  1  0  0  0  0
 52 47  2  0  0  0  0
 53 54  2  0  0  0  0
 56 57  1  0  0  0  0
 57 47  1  0  0  0  0
M  END
>  <MODEL>
2

>  <REMARK>
 VINA RESULT:      -4.3      2.060      2.956
  Name = 
  11 active torsions:
  status: ('A' for Active; 'I' for Inactive)
    1  A    between atoms: C_2  and  N_19
    2  A    between atoms: C_2  and  C_24
    3  A    between atoms: C_3  and  C_8
    4  A    between atoms: C_4  and  C_9
    5  A    between atoms: C_5  and  C_49
    6  A    between atoms: C_9  and  C_20
    7  A    between atoms: C_14  and  C_41
    8  A    between atoms: C_15  and  C_30
    9  A    between atoms: C_18  and  N_35
   10  A    between atoms: C_46  and  N_51
   11  A    between atoms: C_54  and  C_56
                            x       y       z     vdW  Elec       q    Type
                         _______ _______ _______ _____ _____    ______ ____

>  <TORSDO>
F 11

$$$$
=
 OpenBabel11052411293D

 57 64  0  0  1  0  0  0  0  0999 V2000
  162.4170  210.5130  150.1150 C   0  0  2  0  0  3  0  0  0  0  0  0
  161.7140  209.2750  150.7010 C   0  0  0  0  0  0  0  0  0  0  0  0
  162.6200  211.5640  151.0460 O   0  0  0  0  0  0  0  0  0  0  0  0
  161.9010  210.3190  152.9270 C   0  0  0  0  0  2  0  0  0  0  0  0
  161.4250  209.2250  152.0190 C   0  0  0  0  0  0  0  0  0  0  0  0
  163.0630  211.0390  152.2670 C   0  0  0  0  0  2  0  0  0  0  0  0
  163.8030  211.6490  147.8780 O   0  0  0  0  0  0  0  0  0  0  0  0
  160.6330  213.0750  146.3710 C   0  0  1  0  0  0  0  0  0  0  0  0
  161.4220  212.4670  145.4160 C   0  0  2  0  0  3  0  0  0  0  0  0
  162.5520  211.8030  147.8910 C   0  0  0  0  0  0  0  0  0  0  0  0
  160.6360  214.4530  146.5180 F   0  0  0  0  0  0  0  0  0  0  0  0
  161.6710  211.1270  148.9130 C   0  0  2  0  0  3  0  0  0  0  0  0
  159.4930  212.2770  146.9880 C   0  0  0  0  0  2  0  0  0  0  0  0
  159.4990  212.4110  148.4910 C   0  0  0  0  0  3  0  0  0  0  0  0
  161.9180  212.4880  146.8290 N   0  0  0  0  0  0  0  0  0  0  0  0
  160.4460  211.9220  149.3170 C   0  0  0  0  0  3  0  0  0  0  0  0
  162.2380  213.4380  144.5790 C   0  0  0  0  0  2  0  0  0  0  0  0
  161.6090  213.5740  143.2730 N   0  0  0  0  0  2  0  0  0  0  0  0
  160.4590  211.5380  143.3400 O   0  0  0  0  0  0  0  0  0  0  0  0
  160.9310  212.4820  142.6450 C   0  0  0  0  0  0  0  0  0  0  0  0
  159.8260  211.1220  139.2560 C   0  0  1  0  0  3  0  0  0  0  0  0
  159.9280  211.2550  140.7720 C   0  0  0  0  0  2  0  0  0  0  0  0
  161.6930  213.3130  138.4510 O   0  0  0  0  0  1  0  0  0  0  0  0
  162.2280  212.2390  140.5350 C   0  0  0  0  0  2  0  0  0  0  0  0
  162.1370  212.1140  139.0120 C   0  0  1  0  0  3  0  0  0  0  0  0
  160.8410  212.4140  141.1590 C   0  0  2  0  0  3  0  0  0  0  0  0
  161.2090  210.9650  138.6140 C   0  0  0  0  0  2  0  0  0  0  0  0
  158.8680  209.9920  138.8650 C   0  0  0  0  0  2  0  0  0  0  0  0
  155.7950  212.2490  138.2220 C   0  0  0  0  0  2  0  0  0  0  0  0
  157.4430  210.4210  138.6850 C   0  0  0  0  0  0  0  0  0  0  0  0
  157.0830  211.5590  137.7590 C   0  0  0  0  0  2  0  0  0  0  0  0
  156.4710  209.6780  139.2250 C   0  0  0  0  0  3  0  0  0  0  0  0
  155.0530  210.0460  139.0490 C   0  0  0  0  0  3  0  0  0  0  0  0
  154.7270  211.2370  138.5420 C   0  0  0  0  0  3  0  0  0  0  0  0
  160.7910  207.6740  153.9560 C   0  0  0  0  0  0  0  0  0  0  0  0
  160.8500  206.4490  154.2420 O   0  0  0  0  0  0  0  0  0  0  0  0
  160.8090  208.0520  152.5720 N   0  0  0  0  0  2  0  0  0  0  0  0
  159.7600  209.7450  154.9050 C   0  0  0  0  0  3  0  0  0  0  0  0
  160.3010  210.5040  157.0770 C   0  0  0  0  0  3  0  0  0  0  0  0
  161.3420  208.5470  156.2520 C   0  0  0  0  0  0  0  0  0  0  0  0
  159.6070  210.6380  155.9180 N   0  0  0  0  0  0  0  0  0  0  0  0
  162.2180  207.5300  156.4530 F   0  0  0  0  0  0  0  0  0  0  0  0
  161.1590  209.4670  157.2370 N   0  0  0  0  0  0  0  0  0  0  0  0
  160.6460  208.6700  155.0400 C   0  0  0  0  0  0  0  0  0  0  0  0
  161.5580  208.0410  149.9090 C   0  0  0  0  0  3  0  0  0  0  0  0
  162.0330  206.9060  150.3020 N   0  0  0  0  0  0  0  0  0  0  0  0
  160.7570  201.8460  147.1430 C   0  0  0  0  0  0  0  0  0  0  0  0
  161.2300  203.5740  149.2560 C   0  0  0  0  0  0  0  0  0  0  0  0
  161.9160  205.5580  147.8730 S   0  0  0  0  0  0  0  0  0  0  0  0
  161.4370  203.9510  147.9420 C   0  0  0  0  0  0  0  0  0  0  0  0
  161.8320  205.6980  149.5710 C   0  0  0  0  0  0  0  0  0  0  0  0
  161.1960  203.1160  146.8970 N   0  0  0  0  0  0  0  0  0  0  0  0
  160.5290  201.4160  148.4650 C   0  0  0  0  0  3  0  0  0  0  0  0
  160.7700  202.2920  149.5400 C   0  0  0  0  0  3  0  0  0  0  0  0
  161.4450  204.5460  150.1760 N   0  0  0  0  0  0  0  0  0  0  0  0
  159.9250  201.7110  144.8860 N   0  0  0  0  0  1  0  0  0  0  0  0
  160.4530  200.9370  145.9980 C   0  0  0  0  0  2  0  0  0  0  0  0
  1  2  1  1  0  0  0
  1  3  1  0  0  0  0
  2  5  2  0  0  0  0
  3  6  1  0  0  0  0
  5 37  1  0  0  0  0
  5  4  1  0  0  0  0
  6  4  1  0  0  0  0
  7 10  2  0  0  0  0
  8 11  1  6  0  0  0
  8 15  1  0  0  0  0
  8 13  1  0  0  0  0
  9 17  1  6  0  0  0
  9  8  1  0  0  0  0
  9 15  1  0  0  0  0
 10 12  1  0  0  0  0
 12 16  1  1  0  0  0
 12  1  1  0  0  0  0
 13 14  1  0  0  0  0
 14 16  2  0  0  0  0
 15 10  1  0  0  0  0
 18 17  1  0  0  0  0
 20 18  1  0  0  0  0
 20 19  2  0  0  0  0
 21 28  1  1  0  0  0
 21 22  1  0  0  0  0
 22 26  1  0  0  0  0
 24 26  1  0  0  0  0
 25 23  1  6  0  0  0
 25 24  1  0  0  0  0
 26 20  1  1  0  0  0
 27 25  1  0  0  0  0
 27 21  1  0  0  0  0
 29 34  1  0  0  0  0
 30 28  1  0  0  0  0
 30 32  2  0  0  0  0
 31 29  1  0  0  0  0
 31 30  1  0  0  0  0
 33 32  1  0  0  0  0
 34 33  2  0  0  0  0
 35 36  2  0  0  0  0
 35 44  1  0  0  0  0
 37 35  1  0  0  0  0
 38 44  2  0  0  0  0
 38 41  1  0  0  0  0
 39 43  1  0  0  0  0
 40 42  1  0  0  0  0
 40 43  2  0  0  0  0
 41 39  2  0  0  0  0
 44 40  1  0  0  0  0
 45 46  2  0  0  0  0
 45  2  1  0  0  0  0
 47 53  1  0  0  0  0
 48 54  1  0  0  0  0
 48 55  1  0  0  0  0
 49 50  1  0  0  0  0
 49 51  1  0  0  0  0
 50 48  2  0  0  0  0
 51 55  2  0  0  0  0
 51 46  1  0  0  0  0
 52 47  2  0  0  0  0
 52 50  1  0  0  0  0
 53 54  2  0  0  0  0
 56 57  1  0  0  0  0
 57 47  1  0  0  0  0
M  END
>  <MODEL>
3

>  <REMARK>
 VINA RESULT:      -2.3      2.141      3.039
  Name = 
  11 active torsions:
  status: ('A' for Active; 'I' for Inactive)
    1  A    between atoms: C_2  and  N_19
    2  A    between atoms: C_2  and  C_24
    3  A    between atoms: C_3  and  C_8
    4  A    between atoms: C_4  and  C_9
    5  A    between atoms: C_5  and  C_49
    6  A    between atoms: C_9  and  C_20
    7  A    between atoms: C_14  and  C_41
    8  A    between atoms: C_15  and  C_30
    9  A    between atoms: C_18  and  N_35
   10  A    between atoms: C_46  and  N_51
   11  A    between atoms: C_54  and  C_56
                            x       y       z     vdW  Elec       q    Type
                         _______ _______ _______ _____ _____    ______ ____

>  <TORSDO>
F 11

$$$$
=
 OpenBabel11052411293D

 57 64  0  0  1  0  0  0  0  0999 V2000
  162.4120  210.6210  149.9980 C   0  0  2  0  0  3  0  0  0  0  0  0
  161.7600  209.3240  150.5090 C   0  0  0  0  0  0  0  0  0  0  0  0
  162.4550  211.6670  150.9550 O   0  0  0  0  0  0  0  0  0  0  0  0
  161.6780  210.3390  152.7540 C   0  0  0  0  0  2  0  0  0  0  0  0
  161.3670  209.2280  151.7970 C   0  0  0  0  0  0  0  0  0  0  0  0
  162.8330  211.1560  152.2040 C   0  0  0  0  0  2  0  0  0  0  0  0
  163.9030  211.7000  147.8010 O   0  0  0  0  0  0  0  0  0  0  0  0
  160.8070  213.0710  146.1010 C   0  0  1  0  0  0  0  0  0  0  0  0
  161.6430  212.4390  145.2030 C   0  0  2  0  0  3  0  0  0  0  0  0
  162.6530  211.8490  147.7480 C   0  0  0  0  0  0  0  0  0  0  0  0
  160.7990  214.4520  146.2090 F   0  0  0  0  0  0  0  0  0  0  0  0
  161.7250  211.1980  148.7450 C   0  0  2  0  0  3  0  0  0  0  0  0
  159.6400  212.2850  146.6840 C   0  0  0  0  0  2  0  0  0  0  0  0
  159.5720  212.4610  148.1810 C   0  0  0  0  0  3  0  0  0  0  0  0
  162.0690  212.5010  146.6370 N   0  0  0  0  0  0  0  0  0  0  0  0
  160.4790  211.9990  149.0650 C   0  0  0  0  0  3  0  0  0  0  0  0
  162.4970  213.3890  144.3790 C   0  0  0  0  0  2  0  0  0  0  0  0
  161.7820  213.7200  143.1550 N   0  0  0  0  0  2  0  0  0  0  0  0
  160.5980  211.7070  143.0090 O   0  0  0  0  0  0  0  0  0  0  0  0
  161.0400  212.7380  142.4270 C   0  0  0  0  0  0  0  0  0  0  0  0
  160.0900  211.6770  138.8870 C   0  0  1  0  0  3  0  0  0  0  0  0
  160.2800  211.5870  140.3970 C   0  0  0  0  0  2  0  0  0  0  0  0
  161.1620  214.4300  138.4280 O   0  0  0  0  0  1  0  0  0  0  0  0
  162.1640  213.2430  140.2640 C   0  0  0  0  0  2  0  0  0  0  0  0
  161.9830  213.3450  138.7480 C   0  0  1  0  0  3  0  0  0  0  0  0
  160.8460  212.8880  140.9570 C   0  0  2  0  0  3  0  0  0  0  0  0
  161.3980  212.0500  138.1810 C   0  0  0  0  0  2  0  0  0  0  0  0
  159.4720  210.3900  138.3300 C   0  0  0  0  0  2  0  0  0  0  0  0
  162.2540  207.9240  139.3900 C   0  0  0  0  0  2  0  0  0  0  0  0
  160.4010  209.2140  138.3080 C   0  0  0  0  0  0  0  0  0  0  0  0
  160.8830  208.5780  139.5900 C   0  0  0  0  0  2  0  0  0  0  0  0
  160.6700  208.6260  137.1380 C   0  0  0  0  0  3  0  0  0  0  0  0
  161.5570  207.4480  137.0720 C   0  0  0  0  0  3  0  0  0  0  0  0
  162.2760  207.0880  138.1380 C   0  0  0  0  0  3  0  0  0  0  0  0
  160.8930  207.4920  153.6190 C   0  0  0  0  0  0  0  0  0  0  0  0
  160.9770  206.2460  153.7810 O   0  0  0  0  0  0  0  0  0  0  0  0
  160.7980  208.0010  152.2820 N   0  0  0  0  0  2  0  0  0  0  0  0
  161.8680  208.3690  155.7480 C   0  0  0  0  0  3  0  0  0  0  0  0
  160.7930  210.0720  156.9840 C   0  0  0  0  0  3  0  0  0  0  0  0
  159.7860  209.2890  154.9930 C   0  0  0  0  0  0  0  0  0  0  0  0
  161.8270  209.2090  156.8170 N   0  0  0  0  0  0  0  0  0  0  0  0
  158.7510  209.3520  154.1170 F   0  0  0  0  0  0  0  0  0  0  0  0
  159.7840  210.1070  156.0790 N   0  0  0  0  0  0  0  0  0  0  0  0
  160.8370  208.3780  154.8030 C   0  0  0  0  0  0  0  0  0  0  0  0
  161.7660  208.0960  149.6920 C   0  0  0  0  0  3  0  0  0  0  0  0
  161.4470  206.9430  150.1790 N   0  0  0  0  0  0  0  0  0  0  0  0
  160.7820  201.8890  146.8270 C   0  0  0  0  0  0  0  0  0  0  0  0
  161.2860  203.5740  148.9690 C   0  0  0  0  0  0  0  0  0  0  0  0
  161.1090  205.7350  147.6970 S   0  0  0  0  0  0  0  0  0  0  0  0
  161.0780  204.0580  147.6900 C   0  0  0  0  0  0  0  0  0  0  0  0
  161.3900  205.7630  149.3800 C   0  0  0  0  0  0  0  0  0  0  0  0
  160.8170  203.2420  146.6350 N   0  0  0  0  0  0  0  0  0  0  0  0
  160.9840  201.3490  148.1130 C   0  0  0  0  0  3  0  0  0  0  0  0
  161.2410  202.2020  149.2020 C   0  0  0  0  0  3  0  0  0  0  0  0
  161.4580  204.5210  149.9230 N   0  0  0  0  0  0  0  0  0  0  0  0
  159.9630  201.7810  144.5650 N   0  0  0  0  0  1  0  0  0  0  0  0
  160.4570  200.9910  145.6800 C   0  0  0  0  0  2  0  0  0  0  0  0
  1  2  1  1  0  0  0
  1  3  1  0  0  0  0
  2  5  2  0  0  0  0
  3  6  1  0  0  0  0
  5 37  1  0  0  0  0
  5  4  1  0  0  0  0
  6  4  1  0  0  0  0
  8 11  1  6  0  0  0
  8 15  1  0  0  0  0
  8 13  1  0  0  0  0
  9 17  1  6  0  0  0
  9  8  1  0  0  0  0
  9 15  1  0  0  0  0
 10  7  2  0  0  0  0
 10 12  1  0  0  0  0
 12 16  1  1  0  0  0
 12  1  1  0  0  0  0
 13 14  1  0  0  0  0
 14 16  2  0  0  0  0
 15 10  1  0  0  0  0
 18 17  1  0  0  0  0
 20 19  2  0  0  0  0
 20 18  1  0  0  0  0
 21 28  1  6  0  0  0
 21 22  1  0  0  0  0
 22 26  1  0  0  0  0
 24 26  1  0  0  0  0
 25 23  1  1  0  0  0
 25 24  1  0  0  0  0
 26 20  1  1  0  0  0
 27 25  1  0  0  0  0
 27 21  1  0  0  0  0
 29 31  1  0  0  0  0
 30 28  1  0  0  0  0
 30 31  1  0  0  0  0
 32 30  2  0  0  0  0
 33 32  1  0  0  0  0
 33 34  2  0  0  0  0
 34 29  1  0  0  0  0
 35 36  2  0  0  0  0
 35 44  1  0  0  0  0
 37 35  1  0  0  0  0
 38 41  1  0  0  0  0
 40 43  2  0  0  0  0
 41 39  2  0  0  0  0
 42 40  1  0  0  0  0
 43 39  1  0  0  0  0
 44 40  1  0  0  0  0
 44 38  2  0  0  0  0
 45 46  2  0  0  0  0
 45  2  1  0  0  0  0
 47 53  1  0  0  0  0
 48 54  1  0  0  0  0
 48 55  1  0  0  0  0
 49 51  1  0  0  0  0
 50 49  1  0  0  0  0
 50 48  2  0  0  0  0
 51 55  2  0  0  0  0
 51 46  1  0  0  0  0
 52 47  2  0  0  0  0
 52 50  1  0  0  0  0
 53 54  2  0  0  0  0
 56 57  1  0  0  0  0
 57 47  1  0  0  0  0
M  END
>  <MODEL>
4

>  <REMARK>
 VINA RESULT:      -1.7      2.565      3.779
  Name = 
  11 active torsions:
  status: ('A' for Active; 'I' for Inactive)
    1  A    between atoms: C_2  and  N_19
    2  A    between atoms: C_2  and  C_24
    3  A    between atoms: C_3  and  C_8
    4  A    between atoms: C_4  and  C_9
    5  A    between atoms: C_5  and  C_49
    6  A    between atoms: C_9  and  C_20
    7  A    between atoms: C_14  and  C_41
    8  A    between atoms: C_15  and  C_30
    9  A    between atoms: C_18  and  N_35
   10  A    between atoms: C_46  and  N_51
   11  A    between atoms: C_54  and  C_56
                            x       y       z     vdW  Elec       q    Type
                         _______ _______ _______ _____ _____    ______ ____

>  <TORSDO>
F 11

$$$$
