=
 OpenBabel11042422463D

 38 43  0  0  1  0  0  0  0  0999 V2000
  161.5600  205.5880  152.6200 C   0  0  0  0  0  0  0  0  0  0  0  0
  160.5550  209.6560  154.1740 C   0  0  0  0  0  3  0  0  0  0  0  0
  161.6860  206.8340  152.0870 N   0  0  0  0  0  0  0  0  0  0  0  0
  161.0440  205.5920  153.8800 N   0  0  0  0  0  0  0  0  0  0  0  0
  161.0840  209.0410  153.0260 C   0  0  0  0  0  3  0  0  0  0  0  0
  161.2130  207.6500  153.0430 C   0  0  0  0  0  0  0  0  0  0  0  0
  160.3180  207.4790  155.2750 C   0  0  0  0  0  3  0  0  0  0  0  0
  159.6520  209.5060  156.4170 O   0  0  0  0  0  1  0  0  0  0  0  0
  160.1750  208.8800  155.2950 C   0  0  0  0  0  0  0  0  0  0  0  0
  160.8390  206.9000  154.1200 C   0  0  0  0  0  0  0  0  0  0  0  0
  160.7390  203.7890  151.1800 N   0  0  1  0  0  0  0  0  0  0  0  0
  161.1890  203.2000  152.4480 C   0  0  0  0  0  2  0  0  0  0  0  0
  161.9150  204.3340  151.8800 C   0  0  2  0  0  3  0  0  0  0  0  0
  161.2550  202.9440  150.1230 C   0  0  1  0  0  3  0  0  0  0  0  0
  160.2480  202.0660  149.6930 O   0  0  0  0  0  0  0  0  0  0  0  0
  160.4950  203.1850  148.8710 C   0  0  2  0  0  3  0  0  0  0  0  0
  160.7190  201.8160  146.7290 C   0  0  0  0  0  2  0  0  0  0  0  0
  161.7090  203.9860  146.9580 O   0  0  0  0  0  0  0  0  0  0  0  0
  161.0520  203.9150  145.7170 C   0  0  2  0  0  3  0  0  0  0  0  0
  160.8000  202.4670  145.3870 C   0  0  0  0  0  2  0  0  0  0  0  0
  161.3680  202.8170  147.6700 C   0  0  1  0  0  3  0  0  0  0  0  0
  161.9150  204.5300  144.6360 C   0  0  0  0  0  2  0  0  0  0  0  0
  161.2380  205.6850  144.0670 N   0  0  0  0  0  2  0  0  0  0  0  0
  160.3470  206.1950  145.0940 C   0  0  0  0  0  1  0  0  0  0  0  0
  161.0240  206.8530  149.7200 C   0  0  0  0  0  2  0  0  0  0  0  0
  162.1110  207.1760  150.7290 C   0  0  1  0  0  3  0  0  0  0  0  0
  161.2180  208.2750  150.1890 C   0  0  1  0  0  3  0  0  0  0  0  0
  161.9790  209.0670  149.1430 C   0  0  0  0  0  2  0  0  0  0  0  0
  161.2170  211.3270  147.3790 C   0  0  0  0  0  1  0  0  0  0  0  0
  162.0780  210.4870  149.5900 C   0  0  0  0  0  0  0  0  0  0  0  0
  162.5740  210.7420  150.7210 O   0  0  0  0  0  0  0  0  0  0  0  0
  161.5500  211.5520  148.7780 N   0  0  0  0  0  0  0  0  0  0  0  0
  161.1610  212.8180  149.3860 C   0  0  0  0  0  2  0  0  0  0  0  0
  160.2390  213.5850  148.4530 C   0  0  0  0  0  2  0  0  0  0  0  0
  157.8380  212.4810  147.2630 O   0  0  0  0  0  0  0  0  0  0  0  0
  156.6380  213.3830  148.9880 O   0  0  0  0  0  1  0  0  0  0  0  0
  157.7560  213.2030  148.4460 C   0  0  0  0  0  0  0  0  0  0  0  0
  158.9300  213.7220  149.0620 N   0  0  0  0  0  2  0  0  0  0  0  0
  1  4  2  0  0  0  0
  2  9  1  0  0  0  0
  3  1  1  0  0  0  0
  3  6  1  0  0  0  0
  4 10  1  0  0  0  0
  5  6  1  0  0  0  0
  5  2  2  0  0  0  0
  6 10  2  0  0  0  0
  7  9  2  0  0  0  0
  9  8  1  0  0  0  0
 10  7  1  0  0  0  0
 11 13  1  0  0  0  0
 11 12  1  1  0  0  0
 13 12  1  0  0  0  0
 13  1  1  1  0  0  0
 14 15  1  1  0  0  0
 14 11  1  0  0  0  0
 16 15  1  1  0  0  0
 16 14  1  0  0  0  0
 18 21  1  0  0  0  0
 19 22  1  6  0  0  0
 19 18  1  0  0  0  0
 20 19  1  0  0  0  0
 20 17  1  0  0  0  0
 21 17  1  6  0  0  0
 21 16  1  0  0  0  0
 23 22  1  0  0  0  0
 23 24  1  0  0  0  0
 25 27  1  0  0  0  0
 26 25  1  6  0  0  0
 26  3  1  0  0  0  0
 27 28  1  6  0  0  0
 27 26  1  0  0  0  0
 28 30  1  0  0  0  0
 29 32  1  0  0  0  0
 30 31  2  0  0  0  0
 32 33  1  0  0  0  0
 32 30  1  0  0  0  0
 34 38  1  0  0  0  0
 34 33  1  0  0  0  0
 35 37  2  0  0  0  0
 37 36  1  0  0  0  0
 37 38  1  0  0  0  0
M  END
>  <MODEL>
1

>  <REMARK>
 VINA RESULT:      -7.5      0.000      0.000
  Name = 
  11 active torsions:
  status: ('A' for Active; 'I' for Inactive)
    1  A    between atoms: C_1  and  C_36
    2  A    between atoms: N_2  and  C_3
    3  A    between atoms: N_6  and  C_23
    4  A    between atoms: C_8  and  C_17
    5  A    between atoms: C_8  and  C_29
    6  A    between atoms: C_12  and  C_27
    7  A    between atoms: C_12  and  N_34
    8  A    between atoms: N_16  and  C_38
    9  A    between atoms: C_22  and  C_38
   10  A    between atoms: C_27  and  N_37
   11  A    between atoms: C_30  and  C_35
                            x       y       z     vdW  Elec       q    Type
                         _______ _______ _______ _____ _____    ______ ____

>  <TORSDO>
F 11

$$$$
=
 OpenBabel11042422463D

 38 43  0  0  1  0  0  0  0  0999 V2000
  161.2140  206.2950  149.6510 C   0  0  0  0  0  0  0  0  0  0  0  0
  160.7440  201.9190  148.8750 C   0  0  0  0  0  3  0  0  0  0  0  0
  160.8970  205.2460  150.4580 N   0  0  0  0  0  0  0  0  0  0  0  0
  161.4520  205.9290  148.3620 N   0  0  0  0  0  0  0  0  0  0  0  0
  160.6450  202.8440  149.9290 C   0  0  0  0  0  3  0  0  0  0  0  0
  160.9180  204.1820  149.6380 C   0  0  0  0  0  0  0  0  0  0  0  0
  161.3750  203.7060  147.3200 C   0  0  0  0  0  3  0  0  0  0  0  0
  161.1990  201.4180  146.5480 O   0  0  0  0  0  1  0  0  0  0  0  0
  161.1100  202.3470  147.5750 C   0  0  0  0  0  0  0  0  0  0  0  0
  161.2620  204.5970  148.3850 C   0  0  0  0  0  0  0  0  0  0  0  0
  162.0070  208.5600  149.1780 N   0  0  1  0  0  0  0  0  0  0  0  0
  162.6380  208.0980  150.4210 C   0  0  0  0  0  2  0  0  0  0  0  0
  161.2580  207.7170  150.1250 C   0  0  2  0  0  3  0  0  0  0  0  0
  161.5670  209.9200  149.4150 C   0  0  1  0  0  3  0  0  0  0  0  0
  162.6580  210.6980  149.8310 O   0  0  0  0  0  0  0  0  0  0  0  0
  162.2640  210.8430  148.4850 C   0  0  2  0  0  3  0  0  0  0  0  0
  162.2200  213.3810  148.2260 C   0  0  0  0  0  2  0  0  0  0  0  0
  160.6490  211.9630  147.1010 O   0  0  0  0  0  0  0  0  0  0  0  0
  161.1480  212.9070  146.1850 C   0  0  2  0  0  3  0  0  0  0  0  0
  161.7890  214.0330  146.9530 C   0  0  0  0  0  2  0  0  0  0  0  0
  161.4110  212.0970  148.2810 C   0  0  1  0  0  3  0  0  0  0  0  0
  160.0200  213.4580  145.3400 C   0  0  0  0  0  2  0  0  0  0  0  0
  159.3320  212.3660  144.6690 N   0  0  0  0  0  2  0  0  0  0  0  0
  160.0320  212.1380  143.4180 C   0  0  0  0  0  1  0  0  0  0  0  0
  161.5500  204.6850  152.7600 C   0  0  0  0  0  2  0  0  0  0  0  0
  160.4920  205.3020  151.8630 C   0  0  1  0  0  3  0  0  0  0  0  0
  161.4570  206.1860  152.6270 C   0  0  1  0  0  3  0  0  0  0  0  0
  160.7480  206.7710  153.8330 C   0  0  0  0  0  2  0  0  0  0  0  0
  161.6060  208.4080  156.1550 C   0  0  0  0  0  1  0  0  0  0  0  0
  160.8280  208.2600  153.7660 C   0  0  0  0  0  0  0  0  0  0  0  0
  160.4460  208.8490  152.7170 O   0  0  0  0  0  0  0  0  0  0  0  0
  161.4020  209.0160  154.8480 N   0  0  0  0  0  0  0  0  0  0  0  0
  161.9620  210.3390  154.6070 C   0  0  0  0  0  2  0  0  0  0  0  0
  161.1070  211.4000  155.2800 C   0  0  0  0  0  2  0  0  0  0  0  0
  158.3330  210.5780  155.4510 O   0  0  0  0  0  1  0  0  0  0  0  0
  157.9070  211.8290  153.5860 O   0  0  0  0  0  0  0  0  0  0  0  0
  158.7410  211.4290  154.4340 C   0  0  0  0  0  0  0  0  0  0  0  0
  160.0930  211.8710  154.3560 N   0  0  0  0  0  2  0  0  0  0  0  0
  1  3  1  0  0  0  0
  2  5  1  0  0  0  0
  4 10  1  0  0  0  0
  4  1  2  0  0  0  0
  6  5  2  0  0  0  0
  6  3  1  0  0  0  0
  7  9  1  0  0  0  0
  7 10  2  0  0  0  0
  8  9  1  0  0  0  0
  9  2  2  0  0  0  0
 10  6  1  0  0  0  0
 11 14  1  0  0  0  0
 11 13  1  0  0  0  0
 11 12  1  1  0  0  0
 13  1  1  6  0  0  0
 13 12  1  0  0  0  0
 14 15  1  1  0  0  0
 16 14  1  0  0  0  0
 16 15  1  1  0  0  0
 18 21  1  0  0  0  0
 19 22  1  1  0  0  0
 19 20  1  0  0  0  0
 19 18  1  0  0  0  0
 20 17  1  0  0  0  0
 21 17  1  6  0  0  0
 21 16  1  0  0  0  0
 23 22  1  0  0  0  0
 24 23  1  0  0  0  0
 26  3  1  6  0  0  0
 26 27  1  0  0  0  0
 26 25  1  0  0  0  0
 27 25  1  0  0  0  0
 27 28  1  1  0  0  0
 30 28  1  0  0  0  0
 30 32  1  0  0  0  0
 31 30  2  0  0  0  0
 32 29  1  0  0  0  0
 33 32  1  0  0  0  0
 33 34  1  0  0  0  0
 36 37  2  0  0  0  0
 37 35  1  0  0  0  0
 38 37  1  0  0  0  0
 38 34  1  0  0  0  0
M  END
>  <MODEL>
2

>  <REMARK>
 VINA RESULT:      -7.3      2.368      7.283
  Name = 
  11 active torsions:
  status: ('A' for Active; 'I' for Inactive)
    1  A    between atoms: C_1  and  C_36
    2  A    between atoms: N_2  and  C_3
    3  A    between atoms: N_6  and  C_23
    4  A    between atoms: C_8  and  C_17
    5  A    between atoms: C_8  and  C_29
    6  A    between atoms: C_12  and  C_27
    7  A    between atoms: C_12  and  N_34
    8  A    between atoms: N_16  and  C_38
    9  A    between atoms: C_22  and  C_38
   10  A    between atoms: C_27  and  N_37
   11  A    between atoms: C_30  and  C_35
                            x       y       z     vdW  Elec       q    Type
                         _______ _______ _______ _____ _____    ______ ____

>  <TORSDO>
F 11

$$$$
=
 OpenBabel11042422463D

 38 43  0  0  1  0  0  0  0  0999 V2000
  161.6390  207.2190  152.8590 C   0  0  0  0  0  0  0  0  0  0  0  0
  160.5160  211.4840  153.5770 C   0  0  0  0  0  3  0  0  0  0  0  0
  161.8150  208.3520  152.1270 N   0  0  0  0  0  0  0  0  0  0  0  0
  161.0160  207.4380  154.0500 N   0  0  0  0  0  0  0  0  0  0  0  0
  161.1410  210.6820  152.6050 C   0  0  0  0  0  3  0  0  0  0  0  0
  161.2630  209.3190  152.8790 C   0  0  0  0  0  0  0  0  0  0  0  0
  160.1780  209.5330  155.0210 C   0  0  0  0  0  3  0  0  0  0  0  0
  159.4220  211.7220  155.7250 O   0  0  0  0  0  1  0  0  0  0  0  0
  160.0380  210.9130  154.7810 C   0  0  0  0  0  0  0  0  0  0  0  0
  160.7950  208.7660  154.0350 C   0  0  0  0  0  0  0  0  0  0  0  0
  160.9320  205.1710  151.7240 N   0  0  1  0  0  0  0  0  0  0  0  0
  161.3000  204.8320  153.1040 C   0  0  0  0  0  2  0  0  0  0  0  0
  162.0540  205.8580  152.3860 C   0  0  2  0  0  3  0  0  0  0  0  0
  161.5240  204.1570  150.8740 C   0  0  1  0  0  3  0  0  0  0  0  0
  160.6090  203.1100  150.6900 O   0  0  0  0  0  0  0  0  0  0  0  0
  160.7340  204.0250  149.6250 C   0  0  2  0  0  3  0  0  0  0  0  0
  161.0330  202.2890  147.7780 C   0  0  0  0  0  2  0  0  0  0  0  0
  161.9300  204.5040  147.5950 O   0  0  0  0  0  0  0  0  0  0  0  0
  161.2870  204.1720  146.3900 C   0  0  2  0  0  3  0  0  0  0  0  0
  161.0980  202.6780  146.3380 C   0  0  0  0  0  2  0  0  0  0  0  0
  161.6320  203.4750  148.5140 C   0  0  1  0  0  3  0  0  0  0  0  0
  162.1320  204.6090  145.2130 C   0  0  0  0  0  2  0  0  0  0  0  0
  161.3160  205.3680  144.2780 N   0  0  0  0  0  2  0  0  0  0  0  0
  160.3820  206.1440  145.0740 C   0  0  0  0  0  1  0  0  0  0  0  0
  161.3860  207.8890  149.7520 C   0  0  0  0  0  2  0  0  0  0  0  0
  162.3580  208.4550  150.7720 C   0  0  1  0  0  3  0  0  0  0  0  0
  161.4820  209.3820  149.9530 C   0  0  1  0  0  3  0  0  0  0  0  0
  162.3120  210.0020  148.8450 C   0  0  0  0  0  2  0  0  0  0  0  0
  164.1330  211.8720  147.4360 C   0  0  0  0  0  1  0  0  0  0  0  0
  162.0790  211.4760  148.8340 C   0  0  0  0  0  0  0  0  0  0  0  0
  161.1240  211.9520  149.5080 O   0  0  0  0  0  0  0  0  0  0  0  0
  162.8800  212.3410  148.0100 N   0  0  0  0  0  0  0  0  0  0  0  0
  162.3650  213.6350  147.5790 C   0  0  0  0  0  2  0  0  0  0  0  0
  161.9510  213.5740  146.1190 C   0  0  0  0  0  2  0  0  0  0  0  0
  160.7910  212.6620  143.6240 O   0  0  0  0  0  0  0  0  0  0  0  0
  158.8160  212.3350  144.7280 O   0  0  0  0  0  1  0  0  0  0  0  0
  160.0180  212.6930  144.7760 C   0  0  0  0  0  0  0  0  0  0  0  0
  160.5820  213.1040  146.0170 N   0  0  0  0  0  2  0  0  0  0  0  0
  1  4  2  0  0  0  0
  2  9  1  0  0  0  0
  3  1  1  0  0  0  0
  3  6  1  0  0  0  0
  5  6  1  0  0  0  0
  5  2  2  0  0  0  0
  6 10  2  0  0  0  0
  9  7  2  0  0  0  0
  9  8  1  0  0  0  0
 10  4  1  0  0  0  0
 10  7  1  0  0  0  0
 11 13  1  0  0  0  0
 11 12  1  1  0  0  0
 13  1  1  1  0  0  0
 13 12  1  0  0  0  0
 14 15  1  1  0  0  0
 14 11  1  0  0  0  0
 16 15  1  1  0  0  0
 16 14  1  0  0  0  0
 18 21  1  0  0  0  0
 19 22  1  6  0  0  0
 19 18  1  0  0  0  0
 20 19  1  0  0  0  0
 20 17  1  0  0  0  0
 21 17  1  6  0  0  0
 21 16  1  0  0  0  0
 23 24  1  0  0  0  0
 23 22  1  0  0  0  0
 25 27  1  0  0  0  0
 26 25  1  6  0  0  0
 26  3  1  0  0  0  0
 27 28  1  6  0  0  0
 27 26  1  0  0  0  0
 29 32  1  0  0  0  0
 30 28  1  0  0  0  0
 30 31  2  0  0  0  0
 32 30  1  0  0  0  0
 33 32  1  0  0  0  0
 34 33  1  0  0  0  0
 35 37  2  0  0  0  0
 36 37  1  0  0  0  0
 37 38  1  0  0  0  0
 38 34  1  0  0  0  0
M  END
>  <MODEL>
3

>  <REMARK>
 VINA RESULT:      -7.2      1.782      2.111
  Name = 
  11 active torsions:
  status: ('A' for Active; 'I' for Inactive)
    1  A    between atoms: C_1  and  C_36
    2  A    between atoms: N_2  and  C_3
    3  A    between atoms: N_6  and  C_23
    4  A    between atoms: C_8  and  C_17
    5  A    between atoms: C_8  and  C_29
    6  A    between atoms: C_12  and  C_27
    7  A    between atoms: C_12  and  N_34
    8  A    between atoms: N_16  and  C_38
    9  A    between atoms: C_22  and  C_38
   10  A    between atoms: C_27  and  N_37
   11  A    between atoms: C_30  and  C_35
                            x       y       z     vdW  Elec       q    Type
                         _______ _______ _______ _____ _____    ______ ____

>  <TORSDO>
F 11

$$$$
=
 OpenBabel11042422463D

 38 43  0  0  1  0  0  0  0  0999 V2000
  162.0800  207.3970  150.1770 C   0  0  0  0  0  0  0  0  0  0  0  0
  161.2070  204.4240  146.9580 C   0  0  0  0  0  3  0  0  0  0  0  0
  161.8580  206.0550  150.2000 N   0  0  0  0  0  0  0  0  0  0  0  0
  162.0480  207.9270  148.9230 N   0  0  0  0  0  0  0  0  0  0  0  0
  161.3660  204.4870  148.3530 C   0  0  0  0  0  3  0  0  0  0  0  0
  161.6590  205.7320  148.9120 C   0  0  0  0  0  0  0  0  0  0  0  0
  161.6400  206.8280  146.7650 C   0  0  0  0  0  3  0  0  0  0  0  0
  161.1820  205.5060  144.7900 O   0  0  0  0  0  1  0  0  0  0  0  0
  161.3460  205.5890  146.1650 C   0  0  0  0  0  0  0  0  0  0  0  0
  161.7840  206.8570  148.1500 C   0  0  0  0  0  0  0  0  0  0  0  0
  161.1100  209.0350  151.7150 N   0  0  1  0  0  0  0  0  0  0  0  0
  162.2830  209.6400  151.0710 C   0  0  0  0  0  2  0  0  0  0  0  0
  162.2990  208.2190  151.4130 C   0  0  2  0  0  3  0  0  0  0  0  0
  161.1930  209.3610  153.1240 C   0  0  1  0  0  3  0  0  0  0  0  0
  161.6040  210.6950  153.2700 O   0  0  0  0  0  0  0  0  0  0  0  0
  160.2280  210.4410  153.4470 C   0  0  2  0  0  3  0  0  0  0  0  0
  160.6650  211.2980  155.8110 C   0  0  0  0  0  2  0  0  0  0  0  0
  158.4810  210.6290  155.0870 O   0  0  0  0  0  0  0  0  0  0  0  0
  158.3800  211.8570  155.7650 C   0  0  2  0  0  3  0  0  0  0  0  0
  159.6360  212.0700  156.5690 C   0  0  0  0  0  2  0  0  0  0  0  0
  159.8570  210.3610  154.9290 C   0  0  1  0  0  3  0  0  0  0  0  0
  157.1880  211.8400  156.6970 C   0  0  0  0  0  2  0  0  0  0  0  0
  155.9590  211.8020  155.9210 N   0  0  0  0  0  2  0  0  0  0  0  0
  155.7470  213.1430  155.4070 C   0  0  0  0  0  1  0  0  0  0  0  0
  160.5450  205.6190  152.2320 C   0  0  0  0  0  2  0  0  0  0  0  0
  161.7300  205.1990  151.3810 C   0  0  1  0  0  3  0  0  0  0  0  0
  160.4240  204.4350  151.3030 C   0  0  1  0  0  3  0  0  0  0  0  0
  160.5550  203.1440  152.0890 C   0  0  0  0  0  2  0  0  0  0  0  0
  159.4530  201.5140  149.8680 C   0  0  0  0  0  1  0  0  0  0  0  0
  161.4000  202.1900  151.3120 C   0  0  0  0  0  0  0  0  0  0  0  0
  162.6000  202.0100  151.6590 O   0  0  0  0  0  0  0  0  0  0  0  0
  160.8830  201.5360  150.1390 N   0  0  0  0  0  0  0  0  0  0  0  0
  161.7890  201.0490  149.1070 C   0  0  0  0  0  2  0  0  0  0  0  0
  161.0600  200.9380  147.7790 C   0  0  0  0  0  2  0  0  0  0  0  0
  160.2940  200.3540  145.0460 O   0  0  0  0  0  0  0  0  0  0  0  0
  161.4150  198.3700  145.2160 O   0  0  0  0  0  1  0  0  0  0  0  0
  161.0640  199.4460  145.7580 C   0  0  0  0  0  0  0  0  0  0  0  0
  161.4790  199.7330  147.0900 N   0  0  0  0  0  2  0  0  0  0  0  0
  1  3  1  0  0  0  0
  2  5  1  0  0  0  0
  4  1  2  0  0  0  0
  5  6  2  0  0  0  0
  6  3  1  0  0  0  0
  7 10  2  0  0  0  0
  8  9  1  0  0  0  0
  9  7  1  0  0  0  0
  9  2  2  0  0  0  0
 10  6  1  0  0  0  0
 10  4  1  0  0  0  0
 11 12  1  6  0  0  0
 11 14  1  0  0  0  0
 12 13  1  0  0  0  0
 13  1  1  6  0  0  0
 13 11  1  0  0  0  0
 14 15  1  6  0  0  0
 14 16  1  0  0  0  0
 16 15  1  1  0  0  0
 16 21  1  0  0  0  0
 17 20  1  0  0  0  0
 18 19  1  0  0  0  0
 19 20  1  0  0  0  0
 19 22  1  1  0  0  0
 21 18  1  0  0  0  0
 21 17  1  1  0  0  0
 23 22  1  0  0  0  0
 24 23  1  0  0  0  0
 26  3  1  6  0  0  0
 26 25  1  0  0  0  0
 27 26  1  0  0  0  0
 27 28  1  1  0  0  0
 27 25  1  0  0  0  0
 29 32  1  0  0  0  0
 30 31  2  0  0  0  0
 30 28  1  0  0  0  0
 32 30  1  0  0  0  0
 33 32  1  0  0  0  0
 34 33  1  0  0  0  0
 35 37  2  0  0  0  0
 36 37  1  0  0  0  0
 37 38  1  0  0  0  0
 38 34  1  0  0  0  0
M  END
>  <MODEL>
4

>  <REMARK>
 VINA RESULT:      -6.2      3.190     10.018
  Name = 
  11 active torsions:
  status: ('A' for Active; 'I' for Inactive)
    1  A    between atoms: C_1  and  C_36
    2  A    between atoms: N_2  and  C_3
    3  A    between atoms: N_6  and  C_23
    4  A    between atoms: C_8  and  C_17
    5  A    between atoms: C_8  and  C_29
    6  A    between atoms: C_12  and  C_27
    7  A    between atoms: C_12  and  N_34
    8  A    between atoms: N_16  and  C_38
    9  A    between atoms: C_22  and  C_38
   10  A    between atoms: C_27  and  N_37
   11  A    between atoms: C_30  and  C_35
                            x       y       z     vdW  Elec       q    Type
                         _______ _______ _______ _____ _____    ______ ____

>  <TORSDO>
F 11

$$$$
=
 OpenBabel11042422463D

 38 43  0  0  1  0  0  0  0  0999 V2000
  161.1610  208.0020  150.9610 C   0  0  0  0  0  0  0  0  0  0  0  0
  161.1790  203.5870  150.2730 C   0  0  0  0  0  3  0  0  0  0  0  0
  161.1960  207.2480  149.8290 N   0  0  0  0  0  0  0  0  0  0  0  0
  161.1010  207.2610  152.1010 N   0  0  0  0  0  0  0  0  0  0  0  0
  161.2170  204.7920  149.5480 C   0  0  0  0  0  3  0  0  0  0  0  0
  161.1760  205.9820  150.2770 C   0  0  0  0  0  0  0  0  0  0  0  0
  161.0630  204.8220  152.3870 C   0  0  0  0  0  3  0  0  0  0  0  0
  161.0680  202.4010  152.3820 O   0  0  0  0  0  1  0  0  0  0  0  0
  161.1010  203.6010  151.6860 C   0  0  0  0  0  0  0  0  0  0  0  0
  161.1090  205.9960  151.6390 C   0  0  0  0  0  0  0  0  0  0  0  0
  162.3120  209.9760  150.0830 N   0  0  1  0  0  0  0  0  0  0  0  0
  162.4880  209.9460  151.5410 C   0  0  0  0  0  2  0  0  0  0  0  0
  161.2240  209.5010  150.9560 C   0  0  2  0  0  3  0  0  0  0  0  0
  161.9790  211.3410  149.7320 C   0  0  1  0  0  3  0  0  0  0  0  0
  163.0140  211.8880  148.9570 O   0  0  0  0  0  0  0  0  0  0  0  0
  161.8650  211.4670  148.2570 C   0  0  2  0  0  3  0  0  0  0  0  0
  161.6930  213.8740  147.4280 C   0  0  0  0  0  2  0  0  0  0  0  0
  160.0020  212.2450  146.9530 O   0  0  0  0  0  0  0  0  0  0  0  0
  160.3060  212.9430  145.7710 C   0  0  2  0  0  3  0  0  0  0  0  0
  161.0310  214.2130  146.1330 C   0  0  0  0  0  2  0  0  0  0  0  0
  160.9480  212.6440  147.9190 C   0  0  1  0  0  3  0  0  0  0  0  0
  159.0320  213.2900  145.0300 C   0  0  0  0  0  2  0  0  0  0  0  0
  159.1980  213.0110  143.6130 N   0  0  0  0  0  2  0  0  0  0  0  0
  160.0930  211.8720  143.5130 C   0  0  0  0  0  1  0  0  0  0  0  0
  162.7070  207.3110  147.8910 C   0  0  0  0  0  2  0  0  0  0  0  0
  161.3580  207.7220  148.4540 C   0  0  1  0  0  3  0  0  0  0  0  0
  161.4690  206.5300  147.5240 C   0  0  1  0  0  3  0  0  0  0  0  0
  160.9930  206.9300  146.1410 C   0  0  0  0  0  2  0  0  0  0  0  0
  162.4950  204.5260  145.2680 C   0  0  0  0  0  1  0  0  0  0  0  0
  160.3160  205.7620  145.5060 C   0  0  0  0  0  0  0  0  0  0  0  0
  159.0800  205.8280  145.2590 O   0  0  0  0  0  0  0  0  0  0  0  0
  161.0390  204.5460  145.2420 N   0  0  0  0  0  0  0  0  0  0  0  0
  160.3320  203.2770  145.1320 C   0  0  0  0  0  2  0  0  0  0  0  0
  161.1930  202.1490  145.6760 C   0  0  0  0  0  2  0  0  0  0  0  0
  161.5850  199.6590  147.1070 O   0  0  0  0  0  0  0  0  0  0  0  0
  160.9360  200.7250  149.0230 O   0  0  0  0  0  1  0  0  0  0  0  0
  161.1590  200.7900  147.7900 C   0  0  0  0  0  0  0  0  0  0  0  0
  160.9960  202.0300  147.1080 N   0  0  0  0  0  2  0  0  0  0  0  0
  1  4  2  0  0  0  0
  2  9  1  0  0  0  0
  3  6  1  0  0  0  0
  3  1  1  0  0  0  0
  5  2  2  0  0  0  0
  5  6  1  0  0  0  0
  6 10  2  0  0  0  0
  9  8  1  0  0  0  0
  9  7  2  0  0  0  0
 10  4  1  0  0  0  0
 10  7  1  0  0  0  0
 11 13  1  0  0  0  0
 11 12  1  1  0  0  0
 13  1  1  6  0  0  0
 13 12  1  0  0  0  0
 14 15  1  6  0  0  0
 14 11  1  0  0  0  0
 16 15  1  6  0  0  0
 16 14  1  0  0  0  0
 18 21  1  0  0  0  0
 19 22  1  1  0  0  0
 19 20  1  0  0  0  0
 19 18  1  0  0  0  0
 20 17  1  0  0  0  0
 21 17  1  6  0  0  0
 21 16  1  0  0  0  0
 23 22  1  0  0  0  0
 24 23  1  0  0  0  0
 26 25  1  1  0  0  0
 26  3  1  0  0  0  0
 27 28  1  6  0  0  0
 27 25  1  0  0  0  0
 27 26  1  0  0  0  0
 30 28  1  0  0  0  0
 31 30  2  0  0  0  0
 32 29  1  0  0  0  0
 32 30  1  0  0  0  0
 33 32  1  0  0  0  0
 33 34  1  0  0  0  0
 34 38  1  0  0  0  0
 35 37  2  0  0  0  0
 37 36  1  0  0  0  0
 38 37  1  0  0  0  0
M  END
>  <MODEL>
5

>  <REMARK>
 VINA RESULT:      -6.0      2.638      8.114
  Name = 
  11 active torsions:
  status: ('A' for Active; 'I' for Inactive)
    1  A    between atoms: C_1  and  C_36
    2  A    between atoms: N_2  and  C_3
    3  A    between atoms: N_6  and  C_23
    4  A    between atoms: C_8  and  C_17
    5  A    between atoms: C_8  and  C_29
    6  A    between atoms: C_12  and  C_27
    7  A    between atoms: C_12  and  N_34
    8  A    between atoms: N_16  and  C_38
    9  A    between atoms: C_22  and  C_38
   10  A    between atoms: C_27  and  N_37
   11  A    between atoms: C_30  and  C_35
                            x       y       z     vdW  Elec       q    Type
                         _______ _______ _______ _____ _____    ______ ____

>  <TORSDO>
F 11

$$$$
=
 OpenBabel11042422463D

 38 43  0  0  1  0  0  0  0  0999 V2000
  161.2980  208.4060  152.8790 C   0  0  0  0  0  0  0  0  0  0  0  0
  159.7390  212.5700  152.4360 C   0  0  0  0  0  3  0  0  0  0  0  0
  161.4690  209.3550  151.9190 N   0  0  0  0  0  0  0  0  0  0  0  0
  160.5130  208.8190  153.9110 N   0  0  0  0  0  0  0  0  0  0  0  0
  160.5460  211.6430  151.7540 C   0  0  0  0  0  3  0  0  0  0  0  0
  160.7470  210.4000  152.3570 C   0  0  0  0  0  0  0  0  0  0  0  0
  159.3850  210.9730  154.2610 C   0  0  0  0  0  3  0  0  0  0  0  0
  158.3650  213.1670  154.3400 O   0  0  0  0  0  1  0  0  0  0  0  0
  159.1610  212.2390  153.6850 C   0  0  0  0  0  0  0  0  0  0  0  0
  160.1850  210.0760  153.5570 C   0  0  0  0  0  0  0  0  0  0  0  0
  160.8310  206.0310  152.5170 N   0  0  1  0  0  0  0  0  0  0  0  0
  161.3630  206.1980  153.8760 C   0  0  0  0  0  2  0  0  0  0  0  0
  161.8810  207.0270  152.7890 C   0  0  2  0  0  3  0  0  0  0  0  0
  161.5030  204.8830  151.9450 C   0  0  1  0  0  3  0  0  0  0  0  0
  160.7910  203.7170  152.2670 O   0  0  0  0  0  0  0  0  0  0  0  0
  160.6130  204.2180  150.9610 C   0  0  2  0  0  3  0  0  0  0  0  0
  160.7870  202.2070  149.4010 C   0  0  0  0  0  2  0  0  0  0  0  0
  161.8090  204.3100  148.8780 O   0  0  0  0  0  0  0  0  0  0  0  0
  161.1320  203.8370  147.7390 C   0  0  2  0  0  3  0  0  0  0  0  0
  160.8560  202.3670  147.9170 C   0  0  0  0  0  2  0  0  0  0  0  0
  161.4630  203.4540  149.9440 C   0  0  1  0  0  3  0  0  0  0  0  0
  161.9860  204.0390  146.5060 C   0  0  0  0  0  2  0  0  0  0  0  0
  161.2050  203.7440  145.3160 N   0  0  0  0  0  2  0  0  0  0  0  0
  161.2040  204.9510  144.5080 C   0  0  0  0  0  1  0  0  0  0  0  0
  161.5730  208.0750  149.8230 C   0  0  0  0  0  2  0  0  0  0  0  0
  162.1680  209.2070  150.6420 C   0  0  1  0  0  3  0  0  0  0  0  0
  161.2070  209.5050  149.5090 C   0  0  1  0  0  3  0  0  0  0  0  0
  161.9920  209.9890  148.3050 C   0  0  0  0  0  2  0  0  0  0  0  0
  160.5040  211.8260  146.5120 C   0  0  0  0  0  1  0  0  0  0  0  0
  162.1420  211.4710  148.3890 C   0  0  0  0  0  0  0  0  0  0  0  0
  162.9850  211.9580  149.1930 O   0  0  0  0  0  0  0  0  0  0  0  0
  161.2900  212.3420  147.6230 N   0  0  0  0  0  0  0  0  0  0  0  0
  161.0530  213.7120  148.0610 C   0  0  0  0  0  2  0  0  0  0  0  0
  159.5940  214.0820  147.8520 C   0  0  0  0  0  2  0  0  0  0  0  0
  156.7090  213.8690  147.6700 O   0  0  0  0  0  0  0  0  0  0  0  0
  156.7030  212.9550  149.7660 O   0  0  0  0  0  1  0  0  0  0  0  0
  157.3650  213.4310  148.8120 C   0  0  0  0  0  0  0  0  0  0  0  0
  158.7850  213.4960  148.9030 N   0  0  0  0  0  2  0  0  0  0  0  0
  1  4  2  0  0  0  0
  2  9  1  0  0  0  0
  3  6  1  0  0  0  0
  3  1  1  0  0  0  0
  5  6  1  0  0  0  0
  5  2  2  0  0  0  0
  6 10  2  0  0  0  0
  9  7  2  0  0  0  0
  9  8  1  0  0  0  0
 10  4  1  0  0  0  0
 10  7  1  0  0  0  0
 11 13  1  0  0  0  0
 11 12  1  1  0  0  0
 13  1  1  1  0  0  0
 13 12  1  0  0  0  0
 14 15  1  1  0  0  0
 14 11  1  0  0  0  0
 16 14  1  0  0  0  0
 16 15  1  1  0  0  0
 18 21  1  0  0  0  0
 19 22  1  6  0  0  0
 19 20  1  0  0  0  0
 19 18  1  0  0  0  0
 20 17  1  0  0  0  0
 21 17  1  6  0  0  0
 21 16  1  0  0  0  0
 23 22  1  0  0  0  0
 24 23  1  0  0  0  0
 26 25  1  6  0  0  0
 26  3  1  0  0  0  0
 27 28  1  6  0  0  0
 27 25  1  0  0  0  0
 27 26  1  0  0  0  0
 28 30  1  0  0  0  0
 29 32  1  0  0  0  0
 30 31  2  0  0  0  0
 32 33  1  0  0  0  0
 32 30  1  0  0  0  0
 34 33  1  0  0  0  0
 34 38  1  0  0  0  0
 35 37  2  0  0  0  0
 37 38  1  0  0  0  0
 37 36  1  0  0  0  0
M  END
>  <MODEL>
6

>  <REMARK>
 VINA RESULT:      -6.0      1.766      2.451
  Name = 
  11 active torsions:
  status: ('A' for Active; 'I' for Inactive)
    1  A    between atoms: C_1  and  C_36
    2  A    between atoms: N_2  and  C_3
    3  A    between atoms: N_6  and  C_23
    4  A    between atoms: C_8  and  C_17
    5  A    between atoms: C_8  and  C_29
    6  A    between atoms: C_12  and  C_27
    7  A    between atoms: C_12  and  N_34
    8  A    between atoms: N_16  and  C_38
    9  A    between atoms: C_22  and  C_38
   10  A    between atoms: C_27  and  N_37
   11  A    between atoms: C_30  and  C_35
                            x       y       z     vdW  Elec       q    Type
                         _______ _______ _______ _____ _____    ______ ____

>  <TORSDO>
F 11

$$$$
=
 OpenBabel11042422463D

 38 43  0  0  1  0  0  0  0  0999 V2000
  161.4810  206.3920  151.4010 C   0  0  0  0  0  0  0  0  0  0  0  0
  160.7680  202.4950  149.3350 C   0  0  0  0  0  3  0  0  0  0  0  0
  161.2480  206.0700  150.1000 N   0  0  0  0  0  0  0  0  0  0  0  0
  161.4760  205.3140  152.2320 N   0  0  0  0  0  0  0  0  0  0  0  0
  160.8770  203.8660  149.0430 C   0  0  0  0  0  3  0  0  0  0  0  0
  161.1100  204.7340  150.1120 C   0  0  0  0  0  0  0  0  0  0  0  0
  161.1280  202.9370  151.7180 C   0  0  0  0  0  3  0  0  0  0  0  0
  160.7840  200.6740  150.9330 O   0  0  0  0  0  1  0  0  0  0  0  0
  160.8910  202.0310  150.6670 C   0  0  0  0  0  0  0  0  0  0  0  0
  161.2370  204.2880  151.3940 C   0  0  0  0  0  0  0  0  0  0  0  0
  160.5020  208.4990  152.1670 N   0  0  1  0  0  0  0  0  0  0  0  0
  161.2150  208.7500  150.9080 C   0  0  0  0  0  2  0  0  0  0  0  0
  161.7580  207.7900  151.8690 C   0  0  2  0  0  3  0  0  0  0  0  0
  160.8520  209.5790  153.0670 C   0  0  1  0  0  3  0  0  0  0  0  0
  160.6240  210.8090  152.4310 O   0  0  0  0  0  0  0  0  0  0  0  0
  159.6500  210.3970  153.3630 C   0  0  2  0  0  3  0  0  0  0  0  0
  159.8640  212.6100  154.6150 C   0  0  0  0  0  2  0  0  0  0  0  0
  158.8040  210.6970  155.5930 O   0  0  0  0  0  0  0  0  0  0  0  0
  157.9980  211.8280  155.8160 C   0  0  2  0  0  3  0  0  0  0  0  0
  158.8280  213.0640  155.5900 C   0  0  0  0  0  2  0  0  0  0  0  0
  159.8320  211.0950  154.7120 C   0  0  1  0  0  3  0  0  0  0  0  0
  157.4840  211.8260  157.2390 C   0  0  0  0  0  2  0  0  0  0  0  0
  156.0310  211.8940  157.2350 N   0  0  0  0  0  2  0  0  0  0  0  0
  155.5810  211.1530  156.0710 C   0  0  0  0  0  1  0  0  0  0  0  0
  162.7060  207.1740  148.4570 C   0  0  0  0  0  2  0  0  0  0  0  0
  161.2830  206.9690  148.9460 C   0  0  1  0  0  3  0  0  0  0  0  0
  161.7940  206.2100  147.7370 C   0  0  1  0  0  3  0  0  0  0  0  0
  161.2480  206.8550  146.4780 C   0  0  0  0  0  2  0  0  0  0  0  0
  162.8440  204.5900  145.4160 C   0  0  0  0  0  1  0  0  0  0  0  0
  160.6450  205.7970  145.6150 C   0  0  0  0  0  0  0  0  0  0  0  0
  159.4390  205.9080  145.2610 O   0  0  0  0  0  0  0  0  0  0  0  0
  161.3980  204.6270  145.2510 N   0  0  0  0  0  0  0  0  0  0  0  0
  160.7130  203.3920  144.8890 C   0  0  0  0  0  2  0  0  0  0  0  0
  160.8700  202.3620  145.9940 C   0  0  0  0  0  2  0  0  0  0  0  0
  161.5810  199.9960  147.5100 O   0  0  0  0  0  1  0  0  0  0  0  0
  161.1880  198.7480  145.6360 O   0  0  0  0  0  0  0  0  0  0  0  0
  161.2060  199.8790  146.1790 C   0  0  0  0  0  0  0  0  0  0  0  0
  160.8190  201.0270  145.4300 N   0  0  0  0  0  2  0  0  0  0  0  0
  1  4  2  0  0  0  0
  2  9  1  0  0  0  0
  3  6  1  0  0  0  0
  3  1  1  0  0  0  0
  5  2  2  0  0  0  0
  5  6  1  0  0  0  0
  6 10  2  0  0  0  0
  9  8  1  0  0  0  0
  9  7  2  0  0  0  0
 10  7  1  0  0  0  0
 10  4  1  0  0  0  0
 11 12  1  6  0  0  0
 11 14  1  0  0  0  0
 12 13  1  0  0  0  0
 13  1  1  6  0  0  0
 13 11  1  0  0  0  0
 14 15  1  6  0  0  0
 14 16  1  0  0  0  0
 16 15  1  6  0  0  0
 16 21  1  0  0  0  0
 17 20  1  0  0  0  0
 18 19  1  0  0  0  0
 19 22  1  1  0  0  0
 20 19  1  0  0  0  0
 21 17  1  6  0  0  0
 21 18  1  0  0  0  0
 23 22  1  0  0  0  0
 24 23  1  0  0  0  0
 26 25  1  1  0  0  0
 26  3  1  0  0  0  0
 27 28  1  6  0  0  0
 27 25  1  0  0  0  0
 27 26  1  0  0  0  0
 30 28  1  0  0  0  0
 31 30  2  0  0  0  0
 32 29  1  0  0  0  0
 32 30  1  0  0  0  0
 33 32  1  0  0  0  0
 33 34  1  0  0  0  0
 36 37  2  0  0  0  0
 37 35  1  0  0  0  0
 38 34  1  0  0  0  0
 38 37  1  0  0  0  0
M  END
>  <MODEL>
7

>  <REMARK>
 VINA RESULT:      -5.9      2.919      9.441
  Name = 
  11 active torsions:
  status: ('A' for Active; 'I' for Inactive)
    1  A    between atoms: C_1  and  C_36
    2  A    between atoms: N_2  and  C_3
    3  A    between atoms: N_6  and  C_23
    4  A    between atoms: C_8  and  C_17
    5  A    between atoms: C_8  and  C_29
    6  A    between atoms: C_12  and  C_27
    7  A    between atoms: C_12  and  N_34
    8  A    between atoms: N_16  and  C_38
    9  A    between atoms: C_22  and  C_38
   10  A    between atoms: C_27  and  N_37
   11  A    between atoms: C_30  and  C_35
                            x       y       z     vdW  Elec       q    Type
                         _______ _______ _______ _____ _____    ______ ____

>  <TORSDO>
F 11

$$$$
=
 OpenBabel11042422463D

 38 43  0  0  1  0  0  0  0  0999 V2000
  160.8060  206.6130  151.7990 C   0  0  0  0  0  0  0  0  0  0  0  0
  162.0240  206.9240  147.5110 C   0  0  0  0  0  3  0  0  0  0  0  0
  161.0430  207.6770  150.9850 N   0  0  0  0  0  0  0  0  0  0  0  0
  160.9520  205.4130  151.1730 N   0  0  0  0  0  0  0  0  0  0  0  0
  161.7320  207.7490  148.6110 C   0  0  0  0  0  3  0  0  0  0  0  0
  161.3690  207.1230  149.8060 C   0  0  0  0  0  0  0  0  0  0  0  0
  161.5800  204.9200  148.8500 C   0  0  0  0  0  3  0  0  0  0  0  0
  162.2430  204.7200  146.5310 O   0  0  0  0  0  1  0  0  0  0  0  0
  161.9470  205.5160  147.6280 C   0  0  0  0  0  0  0  0  0  0  0  0
  161.3030  205.7650  149.9220 C   0  0  0  0  0  0  0  0  0  0  0  0
  161.5810  207.3290  154.0070 N   0  0  1  0  0  0  0  0  0  0  0  0
  161.3270  205.8830  154.0500 C   0  0  0  0  0  2  0  0  0  0  0  0
  160.4580  206.7470  153.2520 C   0  0  2  0  0  3  0  0  0  0  0  0
  161.0080  207.8900  155.2130 C   0  0  1  0  0  3  0  0  0  0  0  0
  162.0290  208.1360  156.1440 O   0  0  0  0  0  0  0  0  0  0  0  0
  161.5440  209.2550  155.4360 C   0  0  2  0  0  3  0  0  0  0  0  0
  161.1450  211.3080  156.8980 C   0  0  0  0  0  2  0  0  0  0  0  0
  159.4380  210.4130  155.4750 O   0  0  0  0  0  0  0  0  0  0  0  0
  159.4810  211.8090  155.3110 C   0  0  2  0  0  3  0  0  0  0  0  0
  160.2290  212.4090  156.4730 C   0  0  0  0  0  2  0  0  0  0  0  0
  160.5470  210.0600  156.2720 C   0  0  1  0  0  3  0  0  0  0  0  0
  158.0760  212.3720  155.2780 C   0  0  0  0  0  2  0  0  0  0  0  0
  157.1440  211.3960  155.8200 N   0  0  0  0  0  2  0  0  0  0  0  0
  155.9560  211.4440  154.9880 C   0  0  0  0  0  1  0  0  0  0  0  0
  162.4490  209.5040  151.8380 C   0  0  0  0  0  2  0  0  0  0  0  0
  161.0680  209.0910  151.3620 C   0  0  1  0  0  3  0  0  0  0  0  0
  162.0060  209.8380  150.4340 C   0  0  1  0  0  3  0  0  0  0  0  0
  161.5780  211.2910  150.3570 C   0  0  0  0  0  2  0  0  0  0  0  0
  160.5210  213.8760  149.3570 C   0  0  0  0  0  1  0  0  0  0  0  0
  161.9560  211.8370  149.0210 C   0  0  0  0  0  0  0  0  0  0  0  0
  162.6850  211.1440  148.2590 O   0  0  0  0  0  0  0  0  0  0  0  0
  161.5620  213.1640  148.6300 N   0  0  0  0  0  0  0  0  0  0  0  0
  162.3230  213.8920  147.6230 C   0  0  0  0  0  2  0  0  0  0  0  0
  161.5550  213.9300  146.3120 C   0  0  0  0  0  2  0  0  0  0  0  0
  160.5440  212.8300  143.8290 O   0  0  0  0  0  1  0  0  0  0  0  0
  162.7050  212.5780  143.1270 O   0  0  0  0  0  0  0  0  0  0  0  0
  161.9120  212.9540  144.0240 C   0  0  0  0  0  0  0  0  0  0  0  0
  162.4250  213.5250  145.2240 N   0  0  0  0  0  2  0  0  0  0  0  0
  2  9  2  0  0  0  0
  2  5  1  0  0  0  0
  3  1  1  0  0  0  0
  4  1  2  0  0  0  0
  5  6  2  0  0  0  0
  6 10  1  0  0  0  0
  6  3  1  0  0  0  0
  7 10  2  0  0  0  0
  8  9  1  0  0  0  0
  9  7  1  0  0  0  0
 10  4  1  0  0  0  0
 11 12  1  1  0  0  0
 11 14  1  0  0  0  0
 13  1  1  6  0  0  0
 13 11  1  0  0  0  0
 13 12  1  0  0  0  0
 14 16  1  0  0  0  0
 14 15  1  1  0  0  0
 16 15  1  1  0  0  0
 16 21  1  0  0  0  0
 18 21  1  0  0  0  0
 19 22  1  1  0  0  0
 19 18  1  0  0  0  0
 19 20  1  0  0  0  0
 20 17  1  0  0  0  0
 21 17  1  6  0  0  0
 22 23  1  0  0  0  0
 24 23  1  0  0  0  0
 26  3  1  6  0  0  0
 26 25  1  0  0  0  0
 27 28  1  1  0  0  0
 27 26  1  0  0  0  0
 27 25  1  0  0  0  0
 30 28  1  0  0  0  0
 31 30  2  0  0  0  0
 32 30  1  0  0  0  0
 32 29  1  0  0  0  0
 33 32  1  0  0  0  0
 34 33  1  0  0  0  0
 35 37  1  0  0  0  0
 36 37  2  0  0  0  0
 37 38  1  0  0  0  0
 38 34  1  0  0  0  0
M  END
>  <MODEL>
8

>  <REMARK>
 VINA RESULT:      -5.9      2.779      7.573
  Name = 
  11 active torsions:
  status: ('A' for Active; 'I' for Inactive)
    1  A    between atoms: C_1  and  C_36
    2  A    between atoms: N_2  and  C_3
    3  A    between atoms: N_6  and  C_23
    4  A    between atoms: C_8  and  C_17
    5  A    between atoms: C_8  and  C_29
    6  A    between atoms: C_12  and  C_27
    7  A    between atoms: C_12  and  N_34
    8  A    between atoms: N_16  and  C_38
    9  A    between atoms: C_22  and  C_38
   10  A    between atoms: C_27  and  N_37
   11  A    between atoms: C_30  and  C_35
                            x       y       z     vdW  Elec       q    Type
                         _______ _______ _______ _____ _____    ______ ____

>  <TORSDO>
F 11

$$$$
=
 OpenBabel11042422463D

 38 43  0  0  1  0  0  0  0  0999 V2000
  160.8850  207.8260  154.4850 C   0  0  0  0  0  0  0  0  0  0  0  0
  161.5740  206.3150  150.3360 C   0  0  0  0  0  3  0  0  0  0  0  0
  161.1250  208.4570  153.3040 N   0  0  0  0  0  0  0  0  0  0  0  0
  160.8250  206.4710  154.3680 N   0  0  0  0  0  0  0  0  0  0  0  0
  161.5110  207.5270  151.0460 C   0  0  0  0  0  3  0  0  0  0  0  0
  161.2400  207.4580  152.4140 C   0  0  0  0  0  0  0  0  0  0  0  0
  161.0990  205.0510  152.3820 C   0  0  0  0  0  3  0  0  0  0  0  0
  161.4380  203.8960  150.2820 O   0  0  0  0  0  1  0  0  0  0  0  0
  161.3670  205.0810  151.0000 C   0  0  0  0  0  0  0  0  0  0  0  0
  161.0490  206.2700  153.0560 C   0  0  0  0  0  0  0  0  0  0  0  0
  161.9580  209.3150  156.1030 N   0  0  1  0  0  0  0  0  0  0  0  0
  161.7070  208.0240  156.7560 C   0  0  0  0  0  2  0  0  0  0  0  0
  160.7410  208.5470  155.7920 C   0  0  2  0  0  3  0  0  0  0  0  0
  161.5580  210.3420  157.0420 C   0  0  1  0  0  3  0  0  0  0  0  0
  162.3940  211.4600  156.8950 O   0  0  0  0  0  0  0  0  0  0  0  0
  161.1160  211.5520  156.3060 C   0  0  2  0  0  3  0  0  0  0  0  0
  159.9250  213.7740  156.6960 C   0  0  0  0  0  2  0  0  0  0  0  0
  158.9140  211.6770  157.2610 O   0  0  0  0  0  0  0  0  0  0  0  0
  157.9720  212.4660  156.5760 C   0  0  2  0  0  3  0  0  0  0  0  0
  158.4400  213.8980  156.5930 C   0  0  0  0  0  2  0  0  0  0  0  0
  160.1490  212.3520  157.1810 C   0  0  1  0  0  3  0  0  0  0  0  0
  156.6240  212.3740  157.2580 C   0  0  0  0  0  2  0  0  0  0  0  0
  155.5970  212.0690  156.2740 N   0  0  0  0  0  2  0  0  0  0  0  0
  156.1050  210.9740  155.4670 C   0  0  0  0  0  1  0  0  0  0  0  0
  161.1640  210.2600  151.6330 C   0  0  0  0  0  2  0  0  0  0  0  0
  161.3440  209.8890  153.0940 C   0  0  1  0  0  3  0  0  0  0  0  0
  160.0540  210.5270  152.6210 C   0  0  1  0  0  3  0  0  0  0  0  0
  160.0500  211.9920  153.0120 C   0  0  0  0  0  2  0  0  0  0  0  0
  160.0900  213.6690  150.5650 C   0  0  0  0  0  1  0  0  0  0  0  0
  158.8150  212.6340  152.4720 C   0  0  0  0  0  0  0  0  0  0  0  0
  157.7360  212.5270  153.1160 O   0  0  0  0  0  0  0  0  0  0  0  0
  158.8320  213.3030  151.1980 N   0  0  0  0  0  0  0  0  0  0  0  0
  157.6020  213.4580  150.4310 C   0  0  0  0  0  2  0  0  0  0  0  0
  157.9110  214.0210  149.0540 C   0  0  0  0  0  2  0  0  0  0  0  0
  159.0770  212.5780  146.8270 O   0  0  0  0  0  1  0  0  0  0  0  0
  156.9610  212.1280  146.0870 O   0  0  0  0  0  0  0  0  0  0  0  0
  157.6970  212.6660  146.9490 C   0  0  0  0  0  0  0  0  0  0  0  0
  157.1080  213.3400  148.0570 N   0  0  0  0  0  2  0  0  0  0  0  0
  2  9  2  0  0  0  0
  2  5  1  0  0  0  0
  3  1  1  0  0  0  0
  4  1  2  0  0  0  0
  5  6  2  0  0  0  0
  6 10  1  0  0  0  0
  6  3  1  0  0  0  0
  7 10  2  0  0  0  0
  8  9  1  0  0  0  0
  9  7  1  0  0  0  0
 10  4  1  0  0  0  0
 11 12  1  1  0  0  0
 11 14  1  0  0  0  0
 13  1  1  6  0  0  0
 13 11  1  0  0  0  0
 13 12  1  0  0  0  0
 14 15  1  1  0  0  0
 16 15  1  1  0  0  0
 16 14  1  0  0  0  0
 16 21  1  0  0  0  0
 19 20  1  0  0  0  0
 19 22  1  1  0  0  0
 19 18  1  0  0  0  0
 20 17  1  0  0  0  0
 21 17  1  6  0  0  0
 21 18  1  0  0  0  0
 23 22  1  0  0  0  0
 24 23  1  0  0  0  0
 25 27  1  0  0  0  0
 26 25  1  6  0  0  0
 26  3  1  0  0  0  0
 27 28  1  1  0  0  0
 27 26  1  0  0  0  0
 29 32  1  0  0  0  0
 30 28  1  0  0  0  0
 30 31  2  0  0  0  0
 32 30  1  0  0  0  0
 33 32  1  0  0  0  0
 34 33  1  0  0  0  0
 35 37  1  0  0  0  0
 36 37  2  0  0  0  0
 37 38  1  0  0  0  0
 38 34  1  0  0  0  0
M  END
>  <MODEL>
9

>  <REMARK>
 VINA RESULT:      -5.8      3.400      8.198
  Name = 
  11 active torsions:
  status: ('A' for Active; 'I' for Inactive)
    1  A    between atoms: C_1  and  C_36
    2  A    between atoms: N_2  and  C_3
    3  A    between atoms: N_6  and  C_23
    4  A    between atoms: C_8  and  C_17
    5  A    between atoms: C_8  and  C_29
    6  A    between atoms: C_12  and  C_27
    7  A    between atoms: C_12  and  N_34
    8  A    between atoms: N_16  and  C_38
    9  A    between atoms: C_22  and  C_38
   10  A    between atoms: C_27  and  N_37
   11  A    between atoms: C_30  and  C_35
                            x       y       z     vdW  Elec       q    Type
                         _______ _______ _______ _____ _____    ______ ____

>  <TORSDO>
F 11

$$$$
