=
 OpenBabel11042422303D

 34 37  0  0  1  0  0  0  0  0999 V2000
  161.6060  207.0640  148.7090 C   0  0  0  0  0  0  0  0  0  0  0  0
  161.9300  209.5270  148.4140 C   0  0  0  0  0  3  0  0  0  0  0  0
  161.3570  205.2030  147.2940 C   0  0  0  0  0  0  0  0  0  0  0  0
  161.7840  208.3990  150.3790 C   0  0  0  0  0  0  0  0  0  0  0  0
  161.9920  209.9610  150.9500 S   0  0  0  0  0  0  0  0  0  0  0  0
  161.2470  204.3520  148.4400 C   0  0  0  0  0  0  0  0  0  0  0  0
  161.7750  208.3460  149.0520 N   0  0  0  0  0  0  0  0  0  0  0  0
  162.0570  210.5650  149.3470 C   0  0  0  0  0  0  0  0  0  0  0  0
  161.3230  204.9130  149.7350 C   0  0  0  0  0  3  0  0  0  0  0  0
  161.5060  206.2840  149.8390 C   0  0  0  0  0  0  0  0  0  0  0  0
  161.6220  207.1420  150.9370 C   0  0  0  0  0  0  0  0  0  0  0  0
  161.5370  206.5510  147.4590 N   0  0  0  0  0  0  0  0  0  0  0  0
  161.2860  204.6760  145.9130 C   0  0  0  0  0  0  0  0  0  0  0  0
  160.5280  205.3720  144.9280 N   0  0  0  0  0  1  0  0  0  0  0  0
  161.8860  203.6180  145.5860 O   0  0  0  0  0  0  0  0  0  0  0  0
  160.5170  202.1430  149.2960 C   0  0  0  0  0  1  0  0  0  0  0  0
  161.0630  202.9730  148.2790 O   0  0  0  0  0  0  0  0  0  0  0  0
  162.2920  211.9900  148.9960 C   0  0  0  0  0  2  0  0  0  0  0  0
  161.1670  212.4960  148.2250 N   0  0  0  0  0  2  0  0  0  0  0  0
  162.5510  213.0520  146.2620 C   0  0  0  0  0  3  0  0  0  0  0  0
  161.3010  213.0100  146.8980 C   0  0  0  0  0  0  0  0  0  0  0  0
  160.1980  213.4660  146.2450 N   0  0  0  0  0  0  0  0  0  0  0  0
  161.4960  214.0210  144.3170 C   0  0  0  0  0  3  0  0  0  0  0  0
  160.2690  213.9660  144.9810 C   0  0  0  0  0  3  0  0  0  0  0  0
  162.6420  213.5600  144.9660 C   0  0  0  0  0  3  0  0  0  0  0  0
  161.5750  206.8300  152.3300 N   0  0  0  0  0  2  0  0  0  0  0  0
  160.8070  207.6110  153.2860 C   0  0  0  0  0  2  0  0  0  0  0  0
  160.6910  206.8600  154.6030 C   0  0  0  0  0  2  0  0  0  0  0  0
  160.0770  207.0270  156.9930 C   0  0  0  0  0  1  0  0  0  0  0  0
  160.4770  207.8190  155.7630 C   0  0  1  0  0  3  0  0  0  0  0  0
  160.7470  210.6670  155.7590 O   0  0  0  0  0  0  0  0  0  0  0  0
  161.7050  208.5530  156.0330 N   0  0  0  0  0  2  0  0  0  0  0  0
  163.0580  210.6590  156.3110 C   0  0  0  0  0  1  0  0  0  0  0  0
  161.7700  209.9800  156.0200 C   0  0  0  0  0  0  0  0  0  0  0  0
  1  7  1  0  0  0  0
  1 10  1  0  0  0  0
  2  7  1  0  0  0  0
  2  8  2  0  0  0  0
  3 12  1  0  0  0  0
  3  6  2  0  0  0  0
  4 11  2  0  0  0  0
  4  5  1  0  0  0  0
  6  9  1  0  0  0  0
  7  4  1  0  0  0  0
  8  5  1  0  0  0  0
  9 10  2  0  0  0  0
 10 11  1  0  0  0  0
 11 26  1  0  0  0  0
 12  1  2  0  0  0  0
 13  3  1  0  0  0  0
 14 13  1  0  0  0  0
 15 13  2  0  0  0  0
 17  6  1  0  0  0  0
 17 16  1  0  0  0  0
 18  8  1  0  0  0  0
 19 18  1  0  0  0  0
 20 21  1  0  0  0  0
 21 19  1  0  0  0  0
 22 21  2  0  0  0  0
 23 25  1  0  0  0  0
 23 24  2  0  0  0  0
 24 22  1  0  0  0  0
 25 20  2  0  0  0  0
 26 27  1  0  0  0  0
 27 28  1  0  0  0  0
 28 30  1  0  0  0  0
 30 32  1  0  0  0  0
 30 29  1  1  0  0  0
 31 34  2  0  0  0  0
 34 32  1  0  0  0  0
 34 33  1  0  0  0  0
M  END
>  <MODEL>
1

>  <REMARK>
 VINA RESULT:      -8.3      0.000      0.000
  Name = 
  9 active torsions:
  status: ('A' for Active; 'I' for Inactive)
    1  A    between atoms: N_1  and  C_23
    2  A    between atoms: C_2  and  C_15
    3  A    between atoms: C_2  and  N_31
    4  A    between atoms: C_3  and  C_11
    5  A    between atoms: N_7  and  C_26
    6  A    between atoms: C_15  and  C_26
    7  A    between atoms: C_21  and  O_33
    8  A    between atoms: C_23  and  C_27
    9  A    between atoms: N_31  and  C_32
                            x       y       z     vdW  Elec       q    Type
                         _______ _______ _______ _____ _____    ______ ____

>  <TORSDO>
F 9

$$$$
=
 OpenBabel11042422303D

 34 37  0  0  1  0  0  0  0  0999 V2000
  161.6460  206.6690  148.7290 C   0  0  0  0  0  0  0  0  0  0  0  0
  162.0090  209.1410  148.5940 C   0  0  0  0  0  3  0  0  0  0  0  0
  161.6520  204.8680  147.2190 C   0  0  0  0  0  0  0  0  0  0  0  0
  161.5280  207.9360  150.4570 C   0  0  0  0  0  0  0  0  0  0  0  0
  161.6300  209.4730  151.1170 S   0  0  0  0  0  0  0  0  0  0  0  0
  161.3480  203.9720  148.2930 C   0  0  0  0  0  0  0  0  0  0  0  0
  161.7490  207.9360  149.1480 N   0  0  0  0  0  0  0  0  0  0  0  0
  161.9700  210.1410  149.5750 C   0  0  0  0  0  0  0  0  0  0  0  0
  161.1980  204.4810  149.6040 C   0  0  0  0  0  3  0  0  0  0  0  0
  161.3550  205.8460  149.7930 C   0  0  0  0  0  0  0  0  0  0  0  0
  161.2770  206.6590  150.9270 C   0  0  0  0  0  0  0  0  0  0  0  0
  161.7960  206.2070  147.4660 N   0  0  0  0  0  0  0  0  0  0  0  0
  161.8220  204.3970  145.8270 C   0  0  0  0  0  0  0  0  0  0  0  0
  160.7020  204.3680  144.9470 N   0  0  0  0  0  1  0  0  0  0  0  0
  162.9440  204.0180  145.3980 O   0  0  0  0  0  0  0  0  0  0  0  0
  160.7370  201.6860  149.0330 C   0  0  0  0  0  1  0  0  0  0  0  0
  161.1990  202.6010  148.0490 O   0  0  0  0  0  0  0  0  0  0  0  0
  162.2570  211.5780  149.3270 C   0  0  0  0  0  2  0  0  0  0  0  0
  162.2190  211.8450  147.8990 N   0  0  0  0  0  2  0  0  0  0  0  0
  160.2590  213.3310  148.0620 C   0  0  0  0  0  3  0  0  0  0  0  0
  161.2450  212.6970  147.2920 C   0  0  0  0  0  0  0  0  0  0  0  0
  161.2770  212.8940  145.9460 N   0  0  0  0  0  0  0  0  0  0  0  0
  159.3800  214.3420  146.0520 C   0  0  0  0  0  3  0  0  0  0  0  0
  160.3750  213.6950  145.3160 C   0  0  0  0  0  3  0  0  0  0  0  0
  159.3250  214.1560  147.4330 C   0  0  0  0  0  3  0  0  0  0  0  0
  160.9910  206.2910  152.2780 N   0  0  0  0  0  2  0  0  0  0  0  0
  161.4660  207.0570  153.4190 C   0  0  0  0  0  2  0  0  0  0  0  0
  160.5180  206.8880  154.5950 C   0  0  0  0  0  2  0  0  0  0  0  0
  161.6690  208.0230  156.4670 C   0  0  0  0  0  1  0  0  0  0  0  0
  160.5200  208.1230  155.4820 C   0  0  1  0  0  3  0  0  0  0  0  0
  158.9820  210.5230  155.7310 O   0  0  0  0  0  0  0  0  0  0  0  0
  160.6780  209.3190  154.6660 N   0  0  0  0  0  2  0  0  0  0  0  0
  160.1010  211.6730  153.9790 C   0  0  0  0  0  1  0  0  0  0  0  0
  159.8780  210.4880  154.8470 C   0  0  0  0  0  0  0  0  0  0  0  0
  1  7  1  0  0  0  0
  1 10  1  0  0  0  0
  2  7  1  0  0  0  0
  2  8  2  0  0  0  0
  3 12  1  0  0  0  0
  3  6  2  0  0  0  0
  4 11  2  0  0  0  0
  4  5  1  0  0  0  0
  6  9  1  0  0  0  0
  7  4  1  0  0  0  0
  8  5  1  0  0  0  0
  9 10  2  0  0  0  0
 10 11  1  0  0  0  0
 11 26  1  0  0  0  0
 12  1  2  0  0  0  0
 13  3  1  0  0  0  0
 14 13  1  0  0  0  0
 15 13  2  0  0  0  0
 17  6  1  0  0  0  0
 17 16  1  0  0  0  0
 18  8  1  0  0  0  0
 19 18  1  0  0  0  0
 21 19  1  0  0  0  0
 21 20  1  0  0  0  0
 22 21  2  0  0  0  0
 23 25  1  0  0  0  0
 24 22  1  0  0  0  0
 24 23  2  0  0  0  0
 25 20  2  0  0  0  0
 26 27  1  0  0  0  0
 27 28  1  0  0  0  0
 28 30  1  0  0  0  0
 30 29  1  1  0  0  0
 32 34  1  0  0  0  0
 32 30  1  0  0  0  0
 33 34  1  0  0  0  0
 34 31  2  0  0  0  0
M  END
>  <MODEL>
2

>  <REMARK>
 VINA RESULT:      -8.1      1.156      1.496
  Name = 
  9 active torsions:
  status: ('A' for Active; 'I' for Inactive)
    1  A    between atoms: N_1  and  C_23
    2  A    between atoms: C_2  and  C_15
    3  A    between atoms: C_2  and  N_31
    4  A    between atoms: C_3  and  C_11
    5  A    between atoms: N_7  and  C_26
    6  A    between atoms: C_15  and  C_26
    7  A    between atoms: C_21  and  O_33
    8  A    between atoms: C_23  and  C_27
    9  A    between atoms: N_31  and  C_32
                            x       y       z     vdW  Elec       q    Type
                         _______ _______ _______ _____ _____    ______ ____

>  <TORSDO>
F 9

$$$$
=
 OpenBabel11042422303D

 34 37  0  0  1  0  0  0  0  0999 V2000
  161.1880  205.3280  150.1890 C   0  0  0  0  0  0  0  0  0  0  0  0
  160.8720  206.0570  152.5620 C   0  0  0  0  0  3  0  0  0  0  0  0
  160.9020  203.3360  148.9730 C   0  0  0  0  0  0  0  0  0  0  0  0
  161.6040  207.3320  150.8320 C   0  0  0  0  0  0  0  0  0  0  0  0
  161.6450  208.4610  152.0700 S   0  0  0  0  0  0  0  0  0  0  0  0
  161.3460  204.0030  147.7870 C   0  0  0  0  0  0  0  0  0  0  0  0
  161.1830  206.1440  151.2500 N   0  0  0  0  0  0  0  0  0  0  0  0
  161.0880  207.2900  153.1910 C   0  0  0  0  0  0  0  0  0  0  0  0
  161.7110  205.3670  147.8480 C   0  0  0  0  0  3  0  0  0  0  0  0
  161.6190  206.0090  149.0740 C   0  0  0  0  0  0  0  0  0  0  0  0
  161.8930  207.3190  149.4780 C   0  0  0  0  0  0  0  0  0  0  0  0
  160.8330  204.0220  150.1570 N   0  0  0  0  0  0  0  0  0  0  0  0
  160.5070  201.9100  148.9730 C   0  0  0  0  0  0  0  0  0  0  0  0
  161.4700  200.9090  148.6610 N   0  0  0  0  0  1  0  0  0  0  0  0
  159.3290  201.5590  149.2460 O   0  0  0  0  0  0  0  0  0  0  0  0
  161.3900  203.9560  145.3090 C   0  0  0  0  0  1  0  0  0  0  0  0
  161.4210  203.3070  146.5730 O   0  0  0  0  0  0  0  0  0  0  0  0
  160.8020  207.5680  154.6230 C   0  0  0  0  0  2  0  0  0  0  0  0
  161.4060  208.8340  155.0050 N   0  0  0  0  0  2  0  0  0  0  0  0
  159.2520  209.8680  155.6100 C   0  0  0  0  0  3  0  0  0  0  0  0
  160.6460  209.9470  155.4830 C   0  0  0  0  0  0  0  0  0  0  0  0
  161.2890  211.0980  155.8190 N   0  0  0  0  0  0  0  0  0  0  0  0
  159.2250  212.1440  156.4180 C   0  0  0  0  0  3  0  0  0  0  0  0
  160.6140  212.1870  156.2790 C   0  0  0  0  0  3  0  0  0  0  0  0
  158.5440  210.9750  156.0800 C   0  0  0  0  0  3  0  0  0  0  0  0
  162.3750  208.4170  148.7020 N   0  0  0  0  0  2  0  0  0  0  0  0
  161.5930  209.6210  148.4720 C   0  0  0  0  0  2  0  0  0  0  0  0
  162.2400  210.8070  149.1700 C   0  0  0  0  0  2  0  0  0  0  0  0
  163.2380  212.6430  147.8460 C   0  0  0  0  0  1  0  0  0  0  0  0
  161.9470  212.1040  148.4310 C   0  0  1  0  0  3  0  0  0  0  0  0
  159.9870  213.9660  147.4950 O   0  0  0  0  0  0  0  0  0  0  0  0
  160.9900  211.8590  147.3610 N   0  0  0  0  0  2  0  0  0  0  0  0
  159.0970  212.5180  145.8360 C   0  0  0  0  0  1  0  0  0  0  0  0
  160.0390  212.8380  146.9390 C   0  0  0  0  0  0  0  0  0  0  0  0
  1  7  1  0  0  0  0
  2  8  2  0  0  0  0
  3 12  2  0  0  0  0
  4  7  1  0  0  0  0
  4  5  1  0  0  0  0
  5  8  1  0  0  0  0
  6  9  2  0  0  0  0
  6  3  1  0  0  0  0
  7  2  1  0  0  0  0
  8 18  1  0  0  0  0
  9 10  1  0  0  0  0
 10 11  1  0  0  0  0
 10  1  2  0  0  0  0
 11  4  2  0  0  0  0
 12  1  1  0  0  0  0
 13  3  1  0  0  0  0
 13 15  2  0  0  0  0
 14 13  1  0  0  0  0
 16 17  1  0  0  0  0
 17  6  1  0  0  0  0
 18 19  1  0  0  0  0
 19 21  1  0  0  0  0
 20 25  2  0  0  0  0
 21 20  1  0  0  0  0
 21 22  2  0  0  0  0
 22 24  1  0  0  0  0
 24 23  2  0  0  0  0
 25 23  1  0  0  0  0
 26 11  1  0  0  0  0
 27 26  1  0  0  0  0
 27 28  1  0  0  0  0
 30 29  1  6  0  0  0
 30 28  1  0  0  0  0
 32 30  1  0  0  0  0
 33 34  1  0  0  0  0
 34 32  1  0  0  0  0
 34 31  2  0  0  0  0
M  END
>  <MODEL>
3

>  <REMARK>
 VINA RESULT:      -8.0      2.443      7.115
  Name = 
  9 active torsions:
  status: ('A' for Active; 'I' for Inactive)
    1  A    between atoms: N_1  and  C_23
    2  A    between atoms: C_2  and  C_15
    3  A    between atoms: C_2  and  N_31
    4  A    between atoms: C_3  and  C_11
    5  A    between atoms: N_7  and  C_26
    6  A    between atoms: C_15  and  C_26
    7  A    between atoms: C_21  and  O_33
    8  A    between atoms: C_23  and  C_27
    9  A    between atoms: N_31  and  C_32
                            x       y       z     vdW  Elec       q    Type
                         _______ _______ _______ _____ _____    ______ ____

>  <TORSDO>
F 9

$$$$
=
 OpenBabel11042422303D

 34 37  0  0  1  0  0  0  0  0999 V2000
  161.5470  209.2360  152.3870 C   0  0  0  0  0  0  0  0  0  0  0  0
  161.8740  210.8060  150.4670 C   0  0  0  0  0  3  0  0  0  0  0  0
  161.2440  209.4340  154.7100 C   0  0  0  0  0  0  0  0  0  0  0  0
  161.7890  208.5400  150.3720 C   0  0  0  0  0  0  0  0  0  0  0  0
  162.0210  208.8950  148.7510 S   0  0  0  0  0  0  0  0  0  0  0  0
  161.1680  208.0080  154.8160 C   0  0  0  0  0  0  0  0  0  0  0  0
  161.7350  209.6330  151.1230 N   0  0  0  0  0  0  0  0  0  0  0  0
  162.0590  210.5740  149.0980 C   0  0  0  0  0  0  0  0  0  0  0  0
  161.2890  207.2140  153.6530 C   0  0  0  0  0  3  0  0  0  0  0  0
  161.4790  207.8620  152.4420 C   0  0  0  0  0  0  0  0  0  0  0  0
  161.6330  207.3950  151.1340 C   0  0  0  0  0  0  0  0  0  0  0  0
  161.4330  210.0180  153.4850 N   0  0  0  0  0  0  0  0  0  0  0  0
  161.1240  210.3190  155.8900 C   0  0  0  0  0  0  0  0  0  0  0  0
  159.8730  210.9300  156.1910 N   0  0  0  0  0  1  0  0  0  0  0  0
  162.1100  210.5450  156.6400 O   0  0  0  0  0  0  0  0  0  0  0  0
  159.6940  207.0290  156.5520 C   0  0  0  0  0  1  0  0  0  0  0  0
  160.9750  207.4040  156.0660 O   0  0  0  0  0  0  0  0  0  0  0  0
  162.1960  211.6410  148.0720 C   0  0  0  0  0  2  0  0  0  0  0  0
  161.2050  212.6780  148.3090 N   0  0  0  0  0  2  0  0  0  0  0  0
  159.9880  212.2250  146.2140 C   0  0  0  0  0  3  0  0  0  0  0  0
  160.1370  212.9560  147.4020 C   0  0  0  0  0  0  0  0  0  0  0  0
  159.2510  213.9460  147.6980 N   0  0  0  0  0  0  0  0  0  0  0  0
  158.0370  213.5440  145.6790 C   0  0  0  0  0  3  0  0  0  0  0  0
  158.2150  214.2520  146.8700 C   0  0  0  0  0  3  0  0  0  0  0  0
  158.9320  212.5250  145.3530 C   0  0  0  0  0  3  0  0  0  0  0  0
  161.6460  206.0490  150.6560 N   0  0  0  0  0  2  0  0  0  0  0  0
  160.7180  205.5620  149.6480 C   0  0  0  0  0  2  0  0  0  0  0  0
  160.7530  204.0430  149.5930 C   0  0  0  0  0  2  0  0  0  0  0  0
  161.0730  202.1320  148.0560 C   0  0  0  0  0  1  0  0  0  0  0  0
  161.4960  203.5560  148.3590 C   0  0  1  0  0  3  0  0  0  0  0  0
  163.3920  204.5860  146.4800 O   0  0  0  0  0  0  0  0  0  0  0  0
  161.1830  204.4110  147.2220 N   0  0  0  0  0  2  0  0  0  0  0  0
  161.7850  205.7530  145.1770 C   0  0  0  0  0  1  0  0  0  0  0  0
  162.1800  204.8870  146.3170 C   0  0  0  0  0  0  0  0  0  0  0  0
  1 10  2  0  0  0  0
  1 12  1  0  0  0  0
  2  7  1  0  0  0  0
  3  6  1  0  0  0  0
  3 13  1  0  0  0  0
  4  7  1  0  0  0  0
  4 11  2  0  0  0  0
  5  8  1  0  0  0  0
  5  4  1  0  0  0  0
  6 17  1  0  0  0  0
  7  1  1  0  0  0  0
  8  2  2  0  0  0  0
  9  6  2  0  0  0  0
 10  9  1  0  0  0  0
 11 10  1  0  0  0  0
 12  3  2  0  0  0  0
 13 14  1  0  0  0  0
 13 15  2  0  0  0  0
 17 16  1  0  0  0  0
 18 19  1  0  0  0  0
 18  8  1  0  0  0  0
 20 21  1  0  0  0  0
 21 22  2  0  0  0  0
 21 19  1  0  0  0  0
 23 24  2  0  0  0  0
 24 22  1  0  0  0  0
 25 23  1  0  0  0  0
 25 20  2  0  0  0  0
 26 11  1  0  0  0  0
 27 26  1  0  0  0  0
 28 27  1  0  0  0  0
 30 29  1  6  0  0  0
 30 28  1  0  0  0  0
 32 30  1  0  0  0  0
 33 34  1  0  0  0  0
 34 31  2  0  0  0  0
 34 32  1  0  0  0  0
M  END
>  <MODEL>
4

>  <REMARK>
 VINA RESULT:      -7.9      1.793      6.938
  Name = 
  9 active torsions:
  status: ('A' for Active; 'I' for Inactive)
    1  A    between atoms: N_1  and  C_23
    2  A    between atoms: C_2  and  C_15
    3  A    between atoms: C_2  and  N_31
    4  A    between atoms: C_3  and  C_11
    5  A    between atoms: N_7  and  C_26
    6  A    between atoms: C_15  and  C_26
    7  A    between atoms: C_21  and  O_33
    8  A    between atoms: C_23  and  C_27
    9  A    between atoms: N_31  and  C_32
                            x       y       z     vdW  Elec       q    Type
                         _______ _______ _______ _____ _____    ______ ____

>  <TORSDO>
F 9

$$$$
=
 OpenBabel11042422303D

 34 37  0  0  1  0  0  0  0  0999 V2000
  161.2640  208.2960  152.2150 C   0  0  0  0  0  0  0  0  0  0  0  0
  161.0210  206.5490  150.4400 C   0  0  0  0  0  3  0  0  0  0  0  0
  160.9380  208.4090  154.5400 C   0  0  0  0  0  0  0  0  0  0  0  0
  161.6980  208.6960  150.1520 C   0  0  0  0  0  0  0  0  0  0  0  0
  161.7800  208.1470  148.5710 S   0  0  0  0  0  0  0  0  0  0  0  0
  161.3450  209.7810  154.5250 C   0  0  0  0  0  0  0  0  0  0  0  0
  161.2900  207.7520  150.9920 N   0  0  0  0  0  0  0  0  0  0  0  0
  161.2360  206.5950  149.0560 C   0  0  0  0  0  0  0  0  0  0  0  0
  161.7120  210.3870  153.3020 C   0  0  0  0  0  3  0  0  0  0  0  0
  161.6620  209.6110  152.1530 C   0  0  0  0  0  0  0  0  0  0  0  0
  161.9500  209.8870  150.8130 C   0  0  0  0  0  0  0  0  0  0  0  0
  160.9080  207.6930  153.3730 N   0  0  0  0  0  0  0  0  0  0  0  0
  160.5440  207.7190  155.7880 C   0  0  0  0  0  0  0  0  0  0  0  0
  161.5020  207.5280  156.8250 N   0  0  0  0  0  1  0  0  0  0  0  0
  159.3700  207.2940  155.9570 O   0  0  0  0  0  0  0  0  0  0  0  0
  162.5840  210.8200  156.4040 C   0  0  0  0  0  1  0  0  0  0  0  0
  161.3780  210.5210  155.7150 O   0  0  0  0  0  0  0  0  0  0  0  0
  161.0850  205.4340  148.1400 C   0  0  0  0  0  2  0  0  0  0  0  0
  161.2400  204.1970  148.8880 N   0  0  0  0  0  2  0  0  0  0  0  0
  161.0040  202.7680  146.8930 C   0  0  0  0  0  3  0  0  0  0  0  0
  161.1990  202.9060  148.2750 C   0  0  0  0  0  0  0  0  0  0  0  0
  161.3510  201.7970  149.0470 N   0  0  0  0  0  0  0  0  0  0  0  0
  161.1290  200.3690  147.1430 C   0  0  0  0  0  3  0  0  0  0  0  0
  161.3210  200.5440  148.5150 C   0  0  0  0  0  3  0  0  0  0  0  0
  160.9700  201.4920  146.3300 C   0  0  0  0  0  3  0  0  0  0  0  0
  162.3930  211.1090  150.2220 N   0  0  0  0  0  2  0  0  0  0  0  0
  161.5310  211.9460  149.4020 C   0  0  0  0  0  2  0  0  0  0  0  0
  161.9530  211.8630  147.9440 C   0  0  0  0  0  2  0  0  0  0  0  0
  161.3990  214.2640  148.1650 C   0  0  0  0  0  1  0  0  0  0  0  0
  161.5440  213.1150  147.1840 C   0  0  1  0  0  3  0  0  0  0  0  0
  161.2620  212.8030  144.3550 O   0  0  0  0  0  0  0  0  0  0  0  0
  162.5560  213.4460  146.1910 N   0  0  0  0  0  2  0  0  0  0  0  0
  163.4260  213.6340  143.8340 C   0  0  0  0  0  1  0  0  0  0  0  0
  162.3480  213.2690  144.7890 C   0  0  0  0  0  0  0  0  0  0  0  0
  1 12  1  0  0  0  0
  2  7  1  0  0  0  0
  3 13  1  0  0  0  0
  4 11  2  0  0  0  0
  4  7  1  0  0  0  0
  5  8  1  0  0  0  0
  5  4  1  0  0  0  0
  6  3  1  0  0  0  0
  6 17  1  0  0  0  0
  7  1  1  0  0  0  0
  8  2  2  0  0  0  0
  9  6  2  0  0  0  0
 10  1  2  0  0  0  0
 10  9  1  0  0  0  0
 11 10  1  0  0  0  0
 12  3  2  0  0  0  0
 13 15  2  0  0  0  0
 13 14  1  0  0  0  0
 17 16  1  0  0  0  0
 18 19  1  0  0  0  0
 18  8  1  0  0  0  0
 20 21  1  0  0  0  0
 21 19  1  0  0  0  0
 21 22  2  0  0  0  0
 23 24  2  0  0  0  0
 24 22  1  0  0  0  0
 25 20  2  0  0  0  0
 25 23  1  0  0  0  0
 26 11  1  0  0  0  0
 27 26  1  0  0  0  0
 28 27  1  0  0  0  0
 30 28  1  0  0  0  0
 30 29  1  1  0  0  0
 31 34  2  0  0  0  0
 32 30  1  0  0  0  0
 33 34  1  0  0  0  0
 34 32  1  0  0  0  0
M  END
>  <MODEL>
5

>  <REMARK>
 VINA RESULT:      -7.6      2.763      9.152
  Name = 
  9 active torsions:
  status: ('A' for Active; 'I' for Inactive)
    1  A    between atoms: N_1  and  C_23
    2  A    between atoms: C_2  and  C_15
    3  A    between atoms: C_2  and  N_31
    4  A    between atoms: C_3  and  C_11
    5  A    between atoms: N_7  and  C_26
    6  A    between atoms: C_15  and  C_26
    7  A    between atoms: C_21  and  O_33
    8  A    between atoms: C_23  and  C_27
    9  A    between atoms: N_31  and  C_32
                            x       y       z     vdW  Elec       q    Type
                         _______ _______ _______ _____ _____    ______ ____

>  <TORSDO>
F 9

$$$$
=
 OpenBabel11042422303D

 34 37  0  0  1  0  0  0  0  0999 V2000
  161.2860  208.3830  152.1770 C   0  0  0  0  0  0  0  0  0  0  0  0
  161.0470  206.6060  150.4330 C   0  0  0  0  0  3  0  0  0  0  0  0
  160.9850  208.5280  154.5050 C   0  0  0  0  0  0  0  0  0  0  0  0
  161.6910  208.7570  150.1040 C   0  0  0  0  0  0  0  0  0  0  0  0
  161.7620  208.1840  148.5310 S   0  0  0  0  0  0  0  0  0  0  0  0
  161.3730  209.9060  154.4630 C   0  0  0  0  0  0  0  0  0  0  0  0
  161.3060  207.8210  150.9630 N   0  0  0  0  0  0  0  0  0  0  0  0
  161.2460  206.6330  149.0460 C   0  0  0  0  0  0  0  0  0  0  0  0
  161.7180  210.4970  153.2260 C   0  0  0  0  0  3  0  0  0  0  0  0
  161.6650  209.7030  152.0900 C   0  0  0  0  0  0  0  0  0  0  0  0
  161.9340  209.9610  150.7430 C   0  0  0  0  0  0  0  0  0  0  0  0
  160.9520  207.7940  153.3490 N   0  0  0  0  0  0  0  0  0  0  0  0
  160.6150  207.8530  155.7680 C   0  0  0  0  0  0  0  0  0  0  0  0
  161.5680  207.7490  156.8210 N   0  0  0  0  0  1  0  0  0  0  0  0
  159.4660  207.3640  155.9340 O   0  0  0  0  0  0  0  0  0  0  0  0
  160.3610  211.5420  156.0270 C   0  0  0  0  0  1  0  0  0  0  0  0
  161.4100  210.6640  155.6410 O   0  0  0  0  0  0  0  0  0  0  0  0
  161.1000  205.4560  148.1490 C   0  0  0  0  0  2  0  0  0  0  0  0
  161.2170  204.2320  148.9260 N   0  0  0  0  0  2  0  0  0  0  0  0
  161.0520  202.7680  146.9500 C   0  0  0  0  0  3  0  0  0  0  0  0
  161.1920  202.9310  148.3360 C   0  0  0  0  0  0  0  0  0  0  0  0
  161.3070  201.8350  149.1340 N   0  0  0  0  0  0  0  0  0  0  0  0
  161.1520  200.3730  147.2500 C   0  0  0  0  0  3  0  0  0  0  0  0
  161.2900  200.5720  148.6250 C   0  0  0  0  0  3  0  0  0  0  0  0
  161.0330  201.4810  146.4100 C   0  0  0  0  0  3  0  0  0  0  0  0
  162.3540  211.1800  150.1280 N   0  0  0  0  0  2  0  0  0  0  0  0
  161.4620  212.0090  149.3330 C   0  0  0  0  0  2  0  0  0  0  0  0
  161.8020  211.8790  147.8570 C   0  0  0  0  0  2  0  0  0  0  0  0
  162.0530  213.3690  145.8980 C   0  0  0  0  0  1  0  0  0  0  0  0
  161.1380  212.9790  147.0440 C   0  0  1  0  0  3  0  0  0  0  0  0
  158.5520  213.7300  148.0110 O   0  0  0  0  0  0  0  0  0  0  0  0
  159.8660  212.5070  146.5150 N   0  0  0  0  0  2  0  0  0  0  0  0
  157.3500  212.4050  146.4470 C   0  0  0  0  0  1  0  0  0  0  0  0
  158.6070  212.9260  147.0430 C   0  0  0  0  0  0  0  0  0  0  0  0
  1 12  1  0  0  0  0
  2  7  1  0  0  0  0
  3 13  1  0  0  0  0
  4 11  2  0  0  0  0
  4  7  1  0  0  0  0
  5  8  1  0  0  0  0
  5  4  1  0  0  0  0
  6  3  1  0  0  0  0
  6 17  1  0  0  0  0
  7  1  1  0  0  0  0
  8  2  2  0  0  0  0
  9  6  2  0  0  0  0
 10  1  2  0  0  0  0
 10  9  1  0  0  0  0
 11 10  1  0  0  0  0
 12  3  2  0  0  0  0
 13 15  2  0  0  0  0
 13 14  1  0  0  0  0
 17 16  1  0  0  0  0
 18 19  1  0  0  0  0
 18  8  1  0  0  0  0
 20 21  1  0  0  0  0
 21 19  1  0  0  0  0
 21 22  2  0  0  0  0
 23 24  2  0  0  0  0
 24 22  1  0  0  0  0
 25 20  2  0  0  0  0
 25 23  1  0  0  0  0
 26 11  1  0  0  0  0
 27 26  1  0  0  0  0
 28 27  1  0  0  0  0
 30 29  1  6  0  0  0
 30 28  1  0  0  0  0
 32 34  1  0  0  0  0
 32 30  1  0  0  0  0
 33 34  1  0  0  0  0
 34 31  2  0  0  0  0
M  END
>  <MODEL>
6

>  <REMARK>
 VINA RESULT:      -7.5      2.943      8.994
  Name = 
  9 active torsions:
  status: ('A' for Active; 'I' for Inactive)
    1  A    between atoms: N_1  and  C_23
    2  A    between atoms: C_2  and  C_15
    3  A    between atoms: C_2  and  N_31
    4  A    between atoms: C_3  and  C_11
    5  A    between atoms: N_7  and  C_26
    6  A    between atoms: C_15  and  C_26
    7  A    between atoms: C_21  and  O_33
    8  A    between atoms: C_23  and  C_27
    9  A    between atoms: N_31  and  C_32
                            x       y       z     vdW  Elec       q    Type
                         _______ _______ _______ _____ _____    ______ ____

>  <TORSDO>
F 9

$$$$
=
 OpenBabel11042422303D

 34 37  0  0  1  0  0  0  0  0999 V2000
  161.2700  207.3340  152.3080 C   0  0  0  0  0  0  0  0  0  0  0  0
  161.1010  205.0370  151.3300 C   0  0  0  0  0  3  0  0  0  0  0  0
  161.0880  208.2850  154.4500 C   0  0  0  0  0  0  0  0  0  0  0  0
  161.5220  206.9660  150.2090 C   0  0  0  0  0  0  0  0  0  0  0  0
  161.5590  205.8730  148.9400 S   0  0  0  0  0  0  0  0  0  0  0  0
  161.3430  209.5780  153.8930 C   0  0  0  0  0  0  0  0  0  0  0  0
  161.2750  206.3770  151.3730 N   0  0  0  0  0  0  0  0  0  0  0  0
  161.2180  204.5780  150.0110 C   0  0  0  0  0  0  0  0  0  0  0  0
  161.5610  209.7070  152.5020 C   0  0  0  0  0  3  0  0  0  0  0  0
  161.5200  208.5570  151.7280 C   0  0  0  0  0  0  0  0  0  0  0  0
  161.6880  208.3320  150.3590 C   0  0  0  0  0  0  0  0  0  0  0  0
  161.0580  207.1840  153.6360 N   0  0  0  0  0  0  0  0  0  0  0  0
  160.8520  208.0840  155.8970 C   0  0  0  0  0  0  0  0  0  0  0  0
  161.9530  208.0820  156.8000 N   0  0  0  0  0  1  0  0  0  0  0  0
  159.6900  207.9140  156.3520 O   0  0  0  0  0  0  0  0  0  0  0  0
  160.4010  211.7420  154.6520 C   0  0  0  0  0  1  0  0  0  0  0  0
  161.3740  210.7090  154.7190 O   0  0  0  0  0  0  0  0  0  0  0  0
  161.1320  203.1510  149.6040 C   0  0  0  0  0  2  0  0  0  0  0  0
  160.7010  203.0640  148.2180 N   0  0  0  0  0  2  0  0  0  0  0  0
  161.4480  200.7290  147.9610 C   0  0  0  0  0  3  0  0  0  0  0  0
  160.8590  201.8840  147.4270 C   0  0  0  0  0  0  0  0  0  0  0  0
  160.4300  201.8840  146.1360 N   0  0  0  0  0  0  0  0  0  0  0  0
  161.1360  199.6210  145.8370 C   0  0  0  0  0  3  0  0  0  0  0  0
  160.5550  200.7880  145.3380 C   0  0  0  0  0  3  0  0  0  0  0  0
  161.5840  199.5950  147.1580 C   0  0  0  0  0  3  0  0  0  0  0  0
  161.9580  209.2740  149.3200 N   0  0  0  0  0  2  0  0  0  0  0  0
  161.9590  210.7120  149.5420 C   0  0  0  0  0  2  0  0  0  0  0  0
  162.3740  211.4380  148.2720 C   0  0  0  0  0  2  0  0  0  0  0  0
  162.3770  213.8890  147.9450 C   0  0  0  0  0  1  0  0  0  0  0  0
  161.4980  212.6560  148.0270 C   0  0  1  0  0  3  0  0  0  0  0  0
  158.6880  213.0700  147.6880 O   0  0  0  0  0  0  0  0  0  0  0  0
  160.7630  212.4960  146.7800 N   0  0  0  0  0  2  0  0  0  0  0  0
  158.6760  212.5460  145.3710 C   0  0  0  0  0  1  0  0  0  0  0  0
  159.3570  212.7250  146.6790 C   0  0  0  0  0  0  0  0  0  0  0  0
  1 12  1  0  0  0  0
  2  7  1  0  0  0  0
  3 13  1  0  0  0  0
  4 11  2  0  0  0  0
  4  7  1  0  0  0  0
  5  8  1  0  0  0  0
  5  4  1  0  0  0  0
  6  3  1  0  0  0  0
  6 17  1  0  0  0  0
  7  1  1  0  0  0  0
  8  2  2  0  0  0  0
  9  6  2  0  0  0  0
 10  1  2  0  0  0  0
 10  9  1  0  0  0  0
 11 10  1  0  0  0  0
 12  3  2  0  0  0  0
 13 15  2  0  0  0  0
 13 14  1  0  0  0  0
 16 17  1  0  0  0  0
 18  8  1  0  0  0  0
 19 18  1  0  0  0  0
 21 20  1  0  0  0  0
 21 19  1  0  0  0  0
 22 21  2  0  0  0  0
 23 25  1  0  0  0  0
 24 23  2  0  0  0  0
 24 22  1  0  0  0  0
 25 20  2  0  0  0  0
 26 27  1  0  0  0  0
 26 11  1  0  0  0  0
 28 27  1  0  0  0  0
 30 29  1  6  0  0  0
 30 28  1  0  0  0  0
 32 30  1  0  0  0  0
 33 34  1  0  0  0  0
 34 32  1  0  0  0  0
 34 31  2  0  0  0  0
M  END
>  <MODEL>
7

>  <REMARK>
 VINA RESULT:      -7.3      3.114      9.146
  Name = 
  9 active torsions:
  status: ('A' for Active; 'I' for Inactive)
    1  A    between atoms: N_1  and  C_23
    2  A    between atoms: C_2  and  C_15
    3  A    between atoms: C_2  and  N_31
    4  A    between atoms: C_3  and  C_11
    5  A    between atoms: N_7  and  C_26
    6  A    between atoms: C_15  and  C_26
    7  A    between atoms: C_21  and  O_33
    8  A    between atoms: C_23  and  C_27
    9  A    between atoms: N_31  and  C_32
                            x       y       z     vdW  Elec       q    Type
                         _______ _______ _______ _____ _____    ______ ____

>  <TORSDO>
F 9

$$$$
=
 OpenBabel11042422303D

 34 37  0  0  1  0  0  0  0  0999 V2000
  161.5020  209.2290  151.9170 C   0  0  0  0  0  0  0  0  0  0  0  0
  160.7850  210.4060  154.0060 C   0  0  0  0  0  3  0  0  0  0  0  0
  161.9440  209.8400  149.6910 C   0  0  0  0  0  0  0  0  0  0  0  0
  161.2220  208.1910  153.7740 C   0  0  0  0  0  0  0  0  0  0  0  0
  160.8150  208.2430  155.3990 S   0  0  0  0  0  0  0  0  0  0  0  0
  162.2540  208.4770  149.3840 C   0  0  0  0  0  0  0  0  0  0  0  0
  161.1580  209.3870  153.2010 N   0  0  0  0  0  0  0  0  0  0  0  0
  160.5370  209.9320  155.3010 C   0  0  0  0  0  0  0  0  0  0  0  0
  162.1730  207.4970  150.3990 C   0  0  0  0  0  3  0  0  0  0  0  0
  161.7920  207.9070  151.6680 C   0  0  0  0  0  0  0  0  0  0  0  0
  161.6150  207.2180  152.8710 C   0  0  0  0  0  0  0  0  0  0  0  0
  161.5730  210.1860  150.9630 N   0  0  0  0  0  0  0  0  0  0  0  0
  162.0110  210.9110  148.6720 C   0  0  0  0  0  0  0  0  0  0  0  0
  163.1270  211.7950  148.6470 N   0  0  0  0  0  1  0  0  0  0  0  0
  161.0970  211.0590  147.8190 O   0  0  0  0  0  0  0  0  0  0  0  0
  162.3160  206.8560  147.5090 C   0  0  0  0  0  1  0  0  0  0  0  0
  162.6350  208.1150  148.0840 O   0  0  0  0  0  0  0  0  0  0  0  0
  160.1550  210.7880  156.4540 C   0  0  0  0  0  2  0  0  0  0  0  0
  159.7400  212.0970  155.9750 N   0  0  0  0  0  2  0  0  0  0  0  0
  157.3690  211.4550  155.7740 C   0  0  0  0  0  3  0  0  0  0  0  0
  158.3850  212.4120  155.6460 C   0  0  0  0  0  0  0  0  0  0  0  0
  158.0800  213.6620  155.2020 N   0  0  0  0  0  0  0  0  0  0  0  0
  155.7700  213.0880  154.9910 C   0  0  0  0  0  3  0  0  0  0  0  0
  156.8070  214.0160  154.8760 C   0  0  0  0  0  3  0  0  0  0  0  0
  156.0570  211.8000  155.4440 C   0  0  0  0  0  3  0  0  0  0  0  0
  161.7810  205.8250  153.1410 N   0  0  0  0  0  2  0  0  0  0  0  0
  160.8670  204.8110  152.6390 C   0  0  0  0  0  2  0  0  0  0  0  0
  161.5790  203.9110  151.6410 C   0  0  0  0  0  2  0  0  0  0  0  0
  160.4020  204.8580  149.6820 C   0  0  0  0  0  1  0  0  0  0  0  0
  160.6790  203.5850  150.4590 C   0  0  1  0  0  3  0  0  0  0  0  0
  159.4100  201.3370  149.2280 O   0  0  0  0  0  0  0  0  0  0  0  0
  161.3320  202.6150  149.5920 N   0  0  0  0  0  2  0  0  0  0  0  0
  161.3690  200.5680  148.1250 C   0  0  0  0  0  1  0  0  0  0  0  0
  160.6360  201.5150  149.0040 C   0  0  0  0  0  0  0  0  0  0  0  0
  1  7  1  0  0  0  0
  2  8  2  0  0  0  0
  3 12  1  0  0  0  0
  4  5  1  0  0  0  0
  6  3  2  0  0  0  0
  6  9  1  0  0  0  0
  7  4  1  0  0  0  0
  7  2  1  0  0  0  0
  8  5  1  0  0  0  0
  8 18  1  0  0  0  0
  9 10  2  0  0  0  0
 10  1  1  0  0  0  0
 10 11  1  0  0  0  0
 11 26  1  0  0  0  0
 11  4  2  0  0  0  0
 12  1  2  0  0  0  0
 13  3  1  0  0  0  0
 14 13  1  0  0  0  0
 15 13  2  0  0  0  0
 16 17  1  0  0  0  0
 17  6  1  0  0  0  0
 19 18  1  0  0  0  0
 21 20  1  0  0  0  0
 21 19  1  0  0  0  0
 22 21  2  0  0  0  0
 23 25  1  0  0  0  0
 24 23  2  0  0  0  0
 24 22  1  0  0  0  0
 25 20  2  0  0  0  0
 27 26  1  0  0  0  0
 28 27  1  0  0  0  0
 30 29  1  6  0  0  0
 30 28  1  0  0  0  0
 32 30  1  0  0  0  0
 33 34  1  0  0  0  0
 34 31  2  0  0  0  0
 34 32  1  0  0  0  0
M  END
>  <MODEL>
8

>  <REMARK>
 VINA RESULT:      -7.3      3.525      7.516
  Name = 
  9 active torsions:
  status: ('A' for Active; 'I' for Inactive)
    1  A    between atoms: N_1  and  C_23
    2  A    between atoms: C_2  and  C_15
    3  A    between atoms: C_2  and  N_31
    4  A    between atoms: C_3  and  C_11
    5  A    between atoms: N_7  and  C_26
    6  A    between atoms: C_15  and  C_26
    7  A    between atoms: C_21  and  O_33
    8  A    between atoms: C_23  and  C_27
    9  A    between atoms: N_31  and  C_32
                            x       y       z     vdW  Elec       q    Type
                         _______ _______ _______ _____ _____    ______ ____

>  <TORSDO>
F 9

$$$$
=
 OpenBabel11042422303D

 34 37  0  0  1  0  0  0  0  0999 V2000
  161.4210  206.6700  150.0910 C   0  0  0  0  0  0  0  0  0  0  0  0
  161.2140  207.3170  152.4990 C   0  0  0  0  0  3  0  0  0  0  0  0
  161.1750  204.6970  148.8360 C   0  0  0  0  0  0  0  0  0  0  0  0
  161.7600  208.6780  150.7670 C   0  0  0  0  0  0  0  0  0  0  0  0
  161.8140  209.7750  152.0320 S   0  0  0  0  0  0  0  0  0  0  0  0
  161.5040  205.4200  147.6450 C   0  0  0  0  0  0  0  0  0  0  0  0
  161.4360  207.4570  151.1740 N   0  0  0  0  0  0  0  0  0  0  0  0
  161.3980  208.5440  153.1500 C   0  0  0  0  0  0  0  0  0  0  0  0
  161.7920  206.8020  147.7250 C   0  0  0  0  0  3  0  0  0  0  0  0
  161.7410  207.4050  148.9720 C   0  0  0  0  0  0  0  0  0  0  0  0
  161.9630  208.7180  149.3980 C   0  0  0  0  0  0  0  0  0  0  0  0
  161.1410  205.3470  150.0420 N   0  0  0  0  0  0  0  0  0  0  0  0
  160.8640  203.2510  148.8180 C   0  0  0  0  0  0  0  0  0  0  0  0
  160.1560  202.6660  149.9070 N   0  0  0  0  0  1  0  0  0  0  0  0
  161.2130  202.5200  147.8540 O   0  0  0  0  0  0  0  0  0  0  0  0
  162.1370  205.3300  145.2500 C   0  0  0  0  0  1  0  0  0  0  0  0
  161.5410  204.7630  146.4090 O   0  0  0  0  0  0  0  0  0  0  0  0
  161.1880  208.7670  154.6050 C   0  0  0  0  0  2  0  0  0  0  0  0
  159.8100  209.1660  154.8450 N   0  0  0  0  0  2  0  0  0  0  0  0
  160.4260  211.4250  155.6180 C   0  0  0  0  0  3  0  0  0  0  0  0
  159.4490  210.4590  155.3370 C   0  0  0  0  0  0  0  0  0  0  0  0
  158.1350  210.7530  155.5360 N   0  0  0  0  0  0  0  0  0  0  0  0
  158.6810  212.9530  156.2930 C   0  0  0  0  0  3  0  0  0  0  0  0
  157.7350  211.9670  156.0030 C   0  0  0  0  0  3  0  0  0  0  0  0
  160.0340  212.6750  156.0970 C   0  0  0  0  0  3  0  0  0  0  0  0
  162.3300  209.8620  148.6260 N   0  0  0  0  0  2  0  0  0  0  0  0
  161.7010  211.1620  148.7970 C   0  0  0  0  0  2  0  0  0  0  0  0
  162.3790  212.1940  147.9100 C   0  0  0  0  0  2  0  0  0  0  0  0
  161.3020  214.4080  147.6710 C   0  0  0  0  0  1  0  0  0  0  0  0
  161.3560  212.9950  147.1210 C   0  0  1  0  0  3  0  0  0  0  0  0
  159.7010  212.1810  144.9340 O   0  0  0  0  0  0  0  0  0  0  0  0
  161.7320  213.0330  145.7140 N   0  0  0  0  0  2  0  0  0  0  0  0
  161.3050  212.6860  143.2560 C   0  0  0  0  0  1  0  0  0  0  0  0
  160.8530  212.6150  144.6700 C   0  0  0  0  0  0  0  0  0  0  0  0
  1  7  1  0  0  0  0
  2  8  2  0  0  0  0
  3 12  2  0  0  0  0
  4  7  1  0  0  0  0
  4  5  1  0  0  0  0
  5  8  1  0  0  0  0
  6  9  2  0  0  0  0
  6  3  1  0  0  0  0
  7  2  1  0  0  0  0
  8 18  1  0  0  0  0
  9 10  1  0  0  0  0
 10 11  1  0  0  0  0
 10  1  2  0  0  0  0
 11  4  2  0  0  0  0
 12  1  1  0  0  0  0
 13  3  1  0  0  0  0
 13 14  1  0  0  0  0
 15 13  2  0  0  0  0
 16 17  1  0  0  0  0
 17  6  1  0  0  0  0
 18 19  1  0  0  0  0
 19 21  1  0  0  0  0
 20 25  2  0  0  0  0
 21 22  2  0  0  0  0
 21 20  1  0  0  0  0
 22 24  1  0  0  0  0
 24 23  2  0  0  0  0
 25 23  1  0  0  0  0
 26 27  1  0  0  0  0
 26 11  1  0  0  0  0
 28 27  1  0  0  0  0
 30 29  1  1  0  0  0
 30 28  1  0  0  0  0
 32 30  1  0  0  0  0
 33 34  1  0  0  0  0
 34 31  2  0  0  0  0
 34 32  1  0  0  0  0
M  END
>  <MODEL>
9

>  <REMARK>
 VINA RESULT:      -7.2      2.594      7.461
  Name = 
  9 active torsions:
  status: ('A' for Active; 'I' for Inactive)
    1  A    between atoms: N_1  and  C_23
    2  A    between atoms: C_2  and  C_15
    3  A    between atoms: C_2  and  N_31
    4  A    between atoms: C_3  and  C_11
    5  A    between atoms: N_7  and  C_26
    6  A    between atoms: C_15  and  C_26
    7  A    between atoms: C_21  and  O_33
    8  A    between atoms: C_23  and  C_27
    9  A    between atoms: N_31  and  C_32
                            x       y       z     vdW  Elec       q    Type
                         _______ _______ _______ _____ _____    ______ ____

>  <TORSDO>
F 9

$$$$
