=
 OpenBabel11052410193D

 55 61  0  0  1  0  0  0  0  0999 V2000
  161.2150  210.4350  147.5070 C   0  0  0  0  0  3  0  0  0  0  0  0
  160.2050  212.7920  147.0160 C   0  0  2  0  0  0  0  0  0  0  0  0
  158.8810  212.6010  147.3820 F   0  0  0  0  0  0  0  0  0  0  0  0
  161.9980  210.0170  148.5830 C   0  0  0  0  0  0  0  0  0  0  0  0
  161.0480  211.7860  147.7420 C   0  0  0  0  0  0  0  0  0  0  0  0
  160.8860  214.3870  148.9390 C   0  0  2  0  0  3  0  0  0  0  0  0
  160.6550  214.2140  147.4210 C   0  0  0  0  0  2  0  0  0  0  0  0
  162.2730  211.0100  149.3970 O   0  0  0  0  0  0  0  0  0  0  0  0
  161.6940  212.0730  148.9100 C   0  0  0  0  0  0  0  0  0  0  0  0
  161.7120  213.3460  149.4730 O   0  0  0  0  0  0  0  0  0  0  0  0
  160.3570  212.6110  145.5020 C   0  0  0  0  0  2  0  0  0  0  0  0
  159.0840  212.9510  144.7260 C   0  0  0  0  0  2  0  0  0  0  0  0
  159.3150  212.9300  143.2500 C   0  0  0  0  0  0  0  0  0  0  0  0
  158.9390  213.8610  142.5560 O   0  0  0  0  0  0  0  0  0  0  0  0
  160.0270  211.7750  142.6290 C   0  0  0  0  0  2  0  0  0  0  0  0
  160.3120  212.0460  141.2300 N   0  0  0  0  0  0  0  0  0  0  0  0
  159.5540  213.0560  138.1870 O   0  0  0  0  0  1  0  0  0  0  0  0
  159.4360  211.6730  140.1360 C   0  0  0  0  0  2  0  0  0  0  0  0
  160.2020  212.0140  138.8490 C   0  0  2  0  0  3  0  0  0  0  0  0
  161.6120  212.4650  139.2500 C   0  0  1  0  0  3  0  0  0  0  0  0
  162.4980  212.8670  141.4660 O   0  0  0  0  0  0  0  0  0  0  0  0
  161.5550  212.4820  140.7270 C   0  0  0  0  0  0  0  0  0  0  0  0
  164.1970  211.8380  138.8670 O   0  0  0  0  0  0  0  0  0  0  0  0
  162.5800  210.9540  137.2420 O   0  0  0  0  0  0  0  0  0  0  0  0
  162.8170  211.2710  138.6900 S   0  0  0  0  0  0  0  0  0  0  0  0
  161.2410  208.7510  138.1280 O   0  0  0  0  0  0  0  0  0  0  0  0
  162.6610  209.8300  139.6360 N   0  0  0  0  0  2  0  0  0  0  0  0
  161.8580  208.7260  139.2250 C   0  0  0  0  0  0  0  0  0  0  0  0
  161.7800  207.5160  140.0860 C   0  0  0  0  0  2  0  0  0  0  0  0
  162.2290  206.4050  139.3720 O   0  0  0  0  0  1  0  0  0  0  0  0
  159.5570  214.4530  149.6850 C   0  0  0  0  0  2  0  0  0  0  0  0
  159.5640  213.5510  150.8060 N   0  0  0  0  0  0  0  0  0  0  0  0
  158.4760  213.2640  151.4230 C   0  0  0  0  0  3  0  0  0  0  0  0
  159.4610  210.4020  156.1120 C   0  0  0  0  0  2  0  0  0  0  0  0
  161.1310  210.2120  154.3920 N   0  0  0  0  0  0  0  0  0  0  0  0
  158.4970  212.3430  152.5980 C   0  0  2  0  0  3  0  0  0  0  0  0
  160.7950  209.7630  155.7360 C   0  0  0  0  0  2  0  0  0  0  0  0
  158.9510  210.9830  154.8870 N   0  0  1  0  0  0  0  0  0  0  0  0
  156.7180  213.4390  153.8000 O   0  0  0  0  0  1  0  0  0  0  0  0
  158.0660  213.0820  153.8850 C   0  0  1  0  0  3  0  0  0  0  0  0
  158.2920  212.2560  155.1730 C   0  0  0  0  0  2  0  0  0  0  0  0
  160.8500  209.0890  153.5050 C   0  0  0  0  0  1  0  0  0  0  0  0
  160.1720  211.2910  154.1690 C   0  0  2  0  0  3  0  0  0  0  0  0
  159.8820  211.6740  152.7150 C   0  0  0  0  0  2  0  0  0  0  0  0
  162.4850  208.6230  148.8110 C   0  0  0  0  0  2  0  0  0  0  0  0
  161.3490  207.6710  149.1650 C   0  0  0  0  0  2  0  0  0  0  0  0
  162.0000  206.4100  147.2960 C   0  0  0  0  0  2  0  0  0  0  0  0
  161.0430  205.5330  147.9550 C   0  0  2  0  0  3  0  0  0  0  0  0
  160.8340  207.0060  147.9670 N   0  0  0  0  0  0  0  0  0  0  0  0
  161.6570  204.9470  149.2280 C   0  0  0  0  0  2  0  0  0  0  0  0
  160.7700  202.9220  150.0140 C   0  0  0  0  0  2  0  0  0  0  0  0
  160.6060  204.3750  150.0570 N   0  0  0  0  0  0  0  0  0  0  0  0
  160.8090  203.5640  152.3110 C   0  0  0  0  0  2  0  0  0  0  0  0
  161.1960  202.4440  151.3880 C   0  0  0  0  0  2  0  0  0  0  0  0
  160.8700  204.7930  151.4340 C   0  0  0  0  0  2  0  0  0  0  0  0
  1  5  1  0  0  0  0
  1  4  2  0  0  0  0
  2  3  1  1  0  0  0
  2  7  1  0  0  0  0
  2  5  1  0  0  0  0
  4 45  1  0  0  0  0
  4  8  1  0  0  0  0
  5  9  2  0  0  0  0
  6 10  1  0  0  0  0
  6 31  1  1  0  0  0
  7  6  1  0  0  0  0
  9  8  1  0  0  0  0
  9 10  1  0  0  0  0
 11  2  1  0  0  0  0
 12 11  1  0  0  0  0
 13 12  1  0  0  0  0
 14 13  2  0  0  0  0
 15 13  1  0  0  0  0
 16 15  1  0  0  0  0
 18 16  1  0  0  0  0
 19 17  1  1  0  0  0
 19 20  1  0  0  0  0
 19 18  1  0  0  0  0
 20 25  1  1  0  0  0
 20 22  1  0  0  0  0
 22 16  1  0  0  0  0
 22 21  2  0  0  0  0
 24 25  2  0  0  0  0
 25 23  2  0  0  0  0
 25 27  1  0  0  0  0
 26 28  2  0  0  0  0
 28 27  1  0  0  0  0
 28 29  1  0  0  0  0
 30 29  1  0  0  0  0
 31 32  1  0  0  0  0
 32 33  2  0  0  0  0
 35 37  1  0  0  0  0
 36 33  1  6  0  0  0
 36 44  1  0  0  0  0
 36 40  1  0  0  0  0
 37 34  1  0  0  0  0
 38 41  1  1  0  0  0
 38 34  1  0  0  0  0
 40 39  1  6  0  0  0
 40 41  1  0  0  0  0
 42 35  1  0  0  0  0
 43 44  1  6  0  0  0
 43 35  1  0  0  0  0
 43 38  1  0  0  0  0
 45 46  1  0  0  0  0
 47 48  1  0  0  0  0
 47 49  1  0  0  0  0
 48 49  1  0  0  0  0
 48 50  1  1  0  0  0
 49 46  1  0  0  0  0
 50 52  1  0  0  0  0
 51 52  1  0  0  0  0
 51 54  1  0  0  0  0
 52 55  1  0  0  0  0
 54 53  1  0  0  0  0
 55 53  1  0  0  0  0
M  END
>  <MODEL>
1

>  <REMARK>
 VINA RESULT:      -6.8      0.000      0.000
  Name = 
  16 active torsions:
  status: ('A' for Active; 'I' for Inactive)
    1  A    between atoms: C_1  and  C_6
    2  A    between atoms: C_1  and  C_46
    3  A    between atoms: C_9  and  C_22
    4  A    between atoms: C_10  and  C_13
    5  A    between atoms: C_10  and  C_46
    6  A    between atoms: C_11  and  C_32
    7  A    between atoms: C_13  and  N_15
    8  A    between atoms: C_14  and  C_43
    9  A    between atoms: N_17  and  C_30
   10  A    between atoms: C_22  and  C_41
   11  A    between atoms: C_26  and  C_30
   12  A    between atoms: N_28  and  S_54
   13  A    between atoms: C_31  and  C_40
   14  A    between atoms: C_36  and  S_54
   15  A    between atoms: N_39  and  C_40
   16  A    between atoms: C_41  and  N_53
                            x       y       z     vdW  Elec       q    Type
                         _______ _______ _______ _____ _____    ______ ____

>  <TORSDO>
F 16

$$$$
=
 OpenBabel11052410193D

 55 61  0  0  1  0  0  0  0  0999 V2000
  161.3870  210.5860  147.4800 C   0  0  0  0  0  3  0  0  0  0  0  0
  160.4480  212.9830  147.0520 C   0  0  2  0  0  0  0  0  0  0  0  0
  159.0820  212.7560  147.1180 F   0  0  0  0  0  0  0  0  0  0  0  0
  161.9440  210.0500  148.6410 C   0  0  0  0  0  0  0  0  0  0  0  0
  161.1480  211.9020  147.8210 C   0  0  0  0  0  0  0  0  0  0  0  0
  160.6920  214.3560  149.2340 C   0  0  2  0  0  3  0  0  0  0  0  0
  160.7770  214.3520  147.6910 C   0  0  0  0  0  2  0  0  0  0  0  0
  162.0280  210.9470  149.5970 O   0  0  0  0  0  0  0  0  0  0  0  0
  161.5380  212.0580  149.1200 C   0  0  0  0  0  0  0  0  0  0  0  0
  161.4150  213.2610  149.8100 O   0  0  0  0  0  0  0  0  0  0  0  0
  160.9070  212.9700  145.5900 C   0  0  0  0  0  2  0  0  0  0  0  0
  162.3840  213.3290  145.4220 C   0  0  0  0  0  2  0  0  0  0  0  0
  162.6700  213.8620  144.0550 C   0  0  0  0  0  0  0  0  0  0  0  0
  163.8130  214.1460  143.7340 O   0  0  0  0  0  0  0  0  0  0  0  0
  161.5560  214.0250  143.0760 C   0  0  0  0  0  2  0  0  0  0  0  0
  161.6160  212.9880  142.0590 N   0  0  0  0  0  0  0  0  0  0  0  0
  163.1350  210.7060  140.2320 O   0  0  0  0  0  1  0  0  0  0  0  0
  162.6500  212.9030  141.0460 C   0  0  0  0  0  2  0  0  0  0  0  0
  162.2300  211.7590  140.1110 C   0  0  2  0  0  3  0  0  0  0  0  0
  160.8370  211.2860  140.5490 C   0  0  1  0  0  3  0  0  0  0  0  0
  159.5560  211.9490  142.4930 O   0  0  0  0  0  0  0  0  0  0  0  0
  160.5780  212.0790  141.7690 C   0  0  0  0  0  0  0  0  0  0  0  0
  160.3120  211.7000  137.9470 O   0  0  0  0  0  0  0  0  0  0  0  0
  159.0240  213.0210  139.5700 O   0  0  0  0  0  0  0  0  0  0  0  0
  159.6350  211.6790  139.2870 S   0  0  0  0  0  0  0  0  0  0  0  0
  157.1970  211.3940  137.5190 O   0  0  0  0  0  0  0  0  0  0  0  0
  158.4010  210.4640  139.2900 N   0  0  0  0  0  2  0  0  0  0  0  0
  157.3000  210.4860  138.3840 C   0  0  0  0  0  0  0  0  0  0  0  0
  156.2840  209.4020  138.4390 C   0  0  0  0  0  2  0  0  0  0  0  0
  155.4300  209.6170  139.5200 O   0  0  0  0  0  1  0  0  0  0  0  0
  159.2390  214.3420  149.6970 C   0  0  0  0  0  2  0  0  0  0  0  0
  159.1540  213.9340  151.0740 N   0  0  0  0  0  0  0  0  0  0  0  0
  158.3870  212.9660  151.4250 C   0  0  0  0  0  3  0  0  0  0  0  0
  158.7700  212.2810  156.9500 C   0  0  0  0  0  2  0  0  0  0  0  0
  160.7610  211.8020  155.6890 N   0  0  0  0  0  0  0  0  0  0  0  0
  158.2900  212.5650  152.8600 C   0  0  2  0  0  3  0  0  0  0  0  0
  160.2220  211.8220  157.0430 C   0  0  0  0  0  2  0  0  0  0  0  0
  158.4450  212.2590  155.5390 N   0  0  1  0  0  0  0  0  0  0  0  0
  156.1810  213.6570  153.2760 O   0  0  0  0  0  1  0  0  0  0  0  0
  157.5190  213.6260  153.6770 C   0  0  1  0  0  3  0  0  0  0  0  0
  157.5860  213.3930  155.2040 C   0  0  0  0  0  2  0  0  0  0  0  0
  160.8090  210.4000  155.2900 C   0  0  0  0  0  1  0  0  0  0  0  0
  159.7360  212.5130  154.9300 C   0  0  2  0  0  3  0  0  0  0  0  0
  159.6970  212.2700  153.4180 C   0  0  0  0  0  2  0  0  0  0  0  0
  162.4040  208.6390  148.8120 C   0  0  0  0  0  2  0  0  0  0  0  0
  161.2800  207.7240  149.2850 C   0  0  0  0  0  2  0  0  0  0  0  0
  160.6010  205.9830  150.7050 C   0  0  0  0  0  2  0  0  0  0  0  0
  161.5920  205.3360  149.8570 C   0  0  2  0  0  3  0  0  0  0  0  0
  161.7740  206.7550  150.2650 N   0  0  0  0  0  0  0  0  0  0  0  0
  161.0250  205.1240  148.4520 C   0  0  0  0  0  2  0  0  0  0  0  0
  161.2570  203.4560  146.8190 C   0  0  0  0  0  2  0  0  0  0  0  0
  162.0000  204.4160  147.6350 N   0  0  0  0  0  0  0  0  0  0  0  0
  162.5260  204.8140  145.3240 C   0  0  0  0  0  2  0  0  0  0  0  0
  161.3450  203.8870  145.3680 C   0  0  0  0  0  2  0  0  0  0  0  0
  162.5830  205.3940  146.7180 C   0  0  0  0  0  2  0  0  0  0  0  0
  1  5  1  0  0  0  0
  1  4  2  0  0  0  0
  2  3  1  1  0  0  0
  2  7  1  0  0  0  0
  2  5  1  0  0  0  0
  4 45  1  0  0  0  0
  4  8  1  0  0  0  0
  5  9  2  0  0  0  0
  6 31  1  6  0  0  0
  6 10  1  0  0  0  0
  7  6  1  0  0  0  0
  9  8  1  0  0  0  0
  9 10  1  0  0  0  0
 11  2  1  0  0  0  0
 12 11  1  0  0  0  0
 13 12  1  0  0  0  0
 14 13  2  0  0  0  0
 15 13  1  0  0  0  0
 16 15  1  0  0  0  0
 18 16  1  0  0  0  0
 19 17  1  1  0  0  0
 19 20  1  0  0  0  0
 19 18  1  0  0  0  0
 20 25  1  6  0  0  0
 20 22  1  0  0  0  0
 22 16  1  0  0  0  0
 22 21  2  0  0  0  0
 23 25  2  0  0  0  0
 25 27  1  0  0  0  0
 25 24  2  0  0  0  0
 26 28  2  0  0  0  0
 28 29  1  0  0  0  0
 28 27  1  0  0  0  0
 29 30  1  0  0  0  0
 31 32  1  0  0  0  0
 32 33  2  0  0  0  0
 34 37  1  0  0  0  0
 35 37  1  0  0  0  0
 36 33  1  6  0  0  0
 36 44  1  0  0  0  0
 36 40  1  0  0  0  0
 38 41  1  1  0  0  0
 38 34  1  0  0  0  0
 40 39  1  6  0  0  0
 40 41  1  0  0  0  0
 42 35  1  0  0  0  0
 43 44  1  6  0  0  0
 43 38  1  0  0  0  0
 43 35  1  0  0  0  0
 45 46  1  0  0  0  0
 46 49  1  0  0  0  0
 48 50  1  6  0  0  0
 48 49  1  0  0  0  0
 48 47  1  0  0  0  0
 49 47  1  0  0  0  0
 51 52  1  0  0  0  0
 52 50  1  0  0  0  0
 53 54  1  0  0  0  0
 53 55  1  0  0  0  0
 54 51  1  0  0  0  0
 55 52  1  0  0  0  0
M  END
>  <MODEL>
2

>  <REMARK>
 VINA RESULT:      -6.2      1.910      3.070
  Name = 
  16 active torsions:
  status: ('A' for Active; 'I' for Inactive)
    1  A    between atoms: C_1  and  C_6
    2  A    between atoms: C_1  and  C_46
    3  A    between atoms: C_9  and  C_22
    4  A    between atoms: C_10  and  C_13
    5  A    between atoms: C_10  and  C_46
    6  A    between atoms: C_11  and  C_32
    7  A    between atoms: C_13  and  N_15
    8  A    between atoms: C_14  and  C_43
    9  A    between atoms: N_17  and  C_30
   10  A    between atoms: C_22  and  C_41
   11  A    between atoms: C_26  and  C_30
   12  A    between atoms: N_28  and  S_54
   13  A    between atoms: C_31  and  C_40
   14  A    between atoms: C_36  and  S_54
   15  A    between atoms: N_39  and  C_40
   16  A    between atoms: C_41  and  N_53
                            x       y       z     vdW  Elec       q    Type
                         _______ _______ _______ _____ _____    ______ ____

>  <TORSDO>
F 16

$$$$
=
 OpenBabel11052410193D

 55 61  0  0  1  0  0  0  0  0999 V2000
  160.3630  212.3190  150.6020 C   0  0  0  0  0  3  0  0  0  0  0  0
  161.8960  211.5140  148.6490 C   0  0  2  0  0  0  0  0  0  0  0  0
  160.9910  210.8210  147.8610 F   0  0  0  0  0  0  0  0  0  0  0  0
  159.8160  213.5820  150.8330 C   0  0  0  0  0  0  0  0  0  0  0  0
  161.1400  212.5110  149.4770 C   0  0  0  0  0  0  0  0  0  0  0  0
  162.3040  213.5140  147.0550 C   0  0  2  0  0  3  0  0  0  0  0  0
  162.9000  212.2670  147.7450 C   0  0  0  0  0  2  0  0  0  0  0  0
  160.2130  214.4530  149.9330 O   0  0  0  0  0  0  0  0  0  0  0  0
  160.9960  213.8170  149.1060 C   0  0  0  0  0  0  0  0  0  0  0  0
  161.6190  214.3610  147.9860 O   0  0  0  0  0  0  0  0  0  0  0  0
  162.6490  210.5380  149.5580 C   0  0  0  0  0  2  0  0  0  0  0  0
  161.9380  210.2860  150.8890 C   0  0  0  0  0  2  0  0  0  0  0  0
  161.4800  208.8690  151.0100 C   0  0  0  0  0  0  0  0  0  0  0  0
  160.6100  208.5710  151.8130 O   0  0  0  0  0  0  0  0  0  0  0  0
  162.0740  207.8210  150.1290 C   0  0  0  0  0  2  0  0  0  0  0  0
  161.5660  206.5070  150.4870 N   0  0  0  0  0  0  0  0  0  0  0  0
  160.5540  204.1900  152.5990 O   0  0  0  0  0  1  0  0  0  0  0  0
  162.0990  205.6970  151.5650 C   0  0  0  0  0  2  0  0  0  0  0  0
  161.3680  204.3480  151.4790 C   0  0  2  0  0  3  0  0  0  0  0  0
  160.4980  204.3700  150.2150 C   0  0  1  0  0  3  0  0  0  0  0  0
  160.0600  206.2140  148.7110 O   0  0  0  0  0  0  0  0  0  0  0  0
  160.6670  205.7480  149.7110 C   0  0  0  0  0  0  0  0  0  0  0  0
  159.9720  202.4130  148.4500 O   0  0  0  0  0  0  0  0  0  0  0  0
  162.0850  202.2570  149.6960 O   0  0  0  0  0  0  0  0  0  0  0  0
  161.1210  203.1920  149.0250 S   0  0  0  0  0  0  0  0  0  0  0  0
  161.0260  202.7580  146.0330 O   0  0  0  0  0  0  0  0  0  0  0  0
  161.9270  204.0510  147.7560 N   0  0  0  0  0  2  0  0  0  0  0  0
  161.7790  203.7040  146.3810 C   0  0  0  0  0  0  0  0  0  0  0  0
  162.4950  204.4940  145.3450 C   0  0  0  0  0  2  0  0  0  0  0  0
  162.2860  205.8550  145.5690 O   0  0  0  0  0  1  0  0  0  0  0  0
  161.3770  213.1110  145.9140 C   0  0  0  0  0  2  0  0  0  0  0  0
  162.0860  213.1180  144.6620 N   0  0  0  0  0  0  0  0  0  0  0  0
  161.5550  212.6200  143.6040 C   0  0  0  0  0  3  0  0  0  0  0  0
  163.4630  213.1030  138.3820 C   0  0  0  0  0  2  0  0  0  0  0  0
  161.5520  211.6720  138.6770 N   0  0  0  0  0  0  0  0  0  0  0  0
  162.3090  212.6140  142.3150 C   0  0  2  0  0  3  0  0  0  0  0  0
  162.4710  212.1880  137.6700 C   0  0  0  0  0  2  0  0  0  0  0  0
  163.2480  212.8830  139.7970 N   0  0  1  0  0  0  0  0  0  0  0  0
  163.7640  214.4520  142.8750 O   0  0  0  0  0  1  0  0  0  0  0  0
  162.7970  214.0350  141.9570 C   0  0  1  0  0  3  0  0  0  0  0  0
  163.3750  214.1430  140.5270 C   0  0  0  0  0  2  0  0  0  0  0  0
  161.9590  210.2950  138.9320 C   0  0  0  0  0  1  0  0  0  0  0  0
  161.8460  212.5140  139.8340 C   0  0  2  0  0  3  0  0  0  0  0  0
  161.4490  211.9680  141.2090 C   0  0  0  0  0  2  0  0  0  0  0  0
  158.8950  213.9370  151.9540 C   0  0  0  0  0  2  0  0  0  0  0  0
  158.8620  212.8600  153.0300 C   0  0  0  0  0  2  0  0  0  0  0  0
  157.1090  212.7240  154.5850 C   0  0  0  0  0  2  0  0  0  0  0  0
  158.2770  212.4010  155.3920 C   0  0  2  0  0  3  0  0  0  0  0  0
  158.3810  213.4070  154.3010 N   0  0  0  0  0  0  0  0  0  0  0  0
  158.7840  211.0000  155.0440 C   0  0  0  0  0  2  0  0  0  0  0  0
  160.0320  209.1520  155.7720 C   0  0  0  0  0  2  0  0  0  0  0  0
  159.7050  210.5450  156.0760 N   0  0  0  0  0  0  0  0  0  0  0  0
  162.0940  210.3430  155.9090 C   0  0  0  0  0  2  0  0  0  0  0  0
  161.4920  209.0760  155.3720 C   0  0  0  0  0  2  0  0  0  0  0  0
  160.9380  211.3160  155.9210 C   0  0  0  0  0  2  0  0  0  0  0  0
  1  4  2  0  0  0  0
  2  3  1  6  0  0  0
  2  5  1  0  0  0  0
  2 11  1  0  0  0  0
  4 45  1  0  0  0  0
  5  1  1  0  0  0  0
  6 31  1  6  0  0  0
  6  7  1  0  0  0  0
  6 10  1  0  0  0  0
  7  2  1  0  0  0  0
  8  4  1  0  0  0  0
  9  5  2  0  0  0  0
  9  8  1  0  0  0  0
 10  9  1  0  0  0  0
 11 12  1  0  0  0  0
 12 13  1  0  0  0  0
 13 14  2  0  0  0  0
 15 16  1  0  0  0  0
 15 13  1  0  0  0  0
 16 18  1  0  0  0  0
 19 18  1  0  0  0  0
 19 17  1  1  0  0  0
 20 25  1  6  0  0  0
 20 19  1  0  0  0  0
 21 22  2  0  0  0  0
 22 20  1  0  0  0  0
 22 16  1  0  0  0  0
 23 25  2  0  0  0  0
 25 24  2  0  0  0  0
 26 28  2  0  0  0  0
 27 25  1  0  0  0  0
 28 27  1  0  0  0  0
 29 30  1  0  0  0  0
 29 28  1  0  0  0  0
 32 31  1  0  0  0  0
 33 32  2  0  0  0  0
 35 42  1  0  0  0  0
 35 43  1  0  0  0  0
 36 33  1  1  0  0  0
 37 34  1  0  0  0  0
 37 35  1  0  0  0  0
 38 34  1  6  0  0  0
 38 43  1  0  0  0  0
 38 41  1  0  0  0  0
 40 36  1  0  0  0  0
 40 39  1  1  0  0  0
 41 40  1  0  0  0  0
 43 44  1  1  0  0  0
 44 36  1  0  0  0  0
 45 46  1  0  0  0  0
 46 49  1  0  0  0  0
 47 48  1  0  0  0  0
 48 50  1  6  0  0  0
 49 47  1  0  0  0  0
 49 48  1  0  0  0  0
 50 52  1  0  0  0  0
 51 52  1  0  0  0  0
 53 55  1  0  0  0  0
 54 51  1  0  0  0  0
 54 53  1  0  0  0  0
 55 52  1  0  0  0  0
M  END
>  <MODEL>
3

>  <REMARK>
 VINA RESULT:      -6.2      3.561     10.449
  Name = 
  16 active torsions:
  status: ('A' for Active; 'I' for Inactive)
    1  A    between atoms: C_1  and  C_6
    2  A    between atoms: C_1  and  C_46
    3  A    between atoms: C_9  and  C_22
    4  A    between atoms: C_10  and  C_13
    5  A    between atoms: C_10  and  C_46
    6  A    between atoms: C_11  and  C_32
    7  A    between atoms: C_13  and  N_15
    8  A    between atoms: C_14  and  C_43
    9  A    between atoms: N_17  and  C_30
   10  A    between atoms: C_22  and  C_41
   11  A    between atoms: C_26  and  C_30
   12  A    between atoms: N_28  and  S_54
   13  A    between atoms: C_31  and  C_40
   14  A    between atoms: C_36  and  S_54
   15  A    between atoms: N_39  and  C_40
   16  A    between atoms: C_41  and  N_53
                            x       y       z     vdW  Elec       q    Type
                         _______ _______ _______ _____ _____    ______ ____

>  <TORSDO>
F 16

$$$$
=
 OpenBabel11052410193D

 55 61  0  0  1  0  0  0  0  0999 V2000
  160.0340  212.4280  150.3680 C   0  0  0  0  0  3  0  0  0  0  0  0
  161.6700  211.8430  148.4200 C   0  0  2  0  0  0  0  0  0  0  0  0
  160.9480  210.8730  147.7410 F   0  0  0  0  0  0  0  0  0  0  0  0
  159.1930  213.5310  150.5140 C   0  0  0  0  0  0  0  0  0  0  0  0
  160.7090  212.6960  149.1930 C   0  0  0  0  0  0  0  0  0  0  0  0
  161.5200  213.7170  146.6390 C   0  0  2  0  0  3  0  0  0  0  0  0
  162.4280  212.7290  147.4050 C   0  0  0  0  0  2  0  0  0  0  0  0
  159.3350  214.3820  149.5230 O   0  0  0  0  0  0  0  0  0  0  0  0
  160.2310  213.8830  148.7170 C   0  0  0  0  0  0  0  0  0  0  0  0
  160.6670  214.4530  147.5250 O   0  0  0  0  0  0  0  0  0  0  0  0
  162.6680  211.1770  149.3730 C   0  0  0  0  0  2  0  0  0  0  0  0
  162.4250  209.6770  149.5450 C   0  0  0  0  0  2  0  0  0  0  0  0
  162.0530  209.3360  150.9510 C   0  0  0  0  0  0  0  0  0  0  0  0
  162.6320  209.8690  151.8850 O   0  0  0  0  0  0  0  0  0  0  0  0
  160.9570  208.3580  151.2120 C   0  0  0  0  0  2  0  0  0  0  0  0
  161.1930  207.1230  150.4830 N   0  0  0  0  0  0  0  0  0  0  0  0
  161.8420  205.3460  147.7860 O   0  0  0  0  0  1  0  0  0  0  0  0
  160.5860  206.8070  149.2040 C   0  0  0  0  0  2  0  0  0  0  0  0
  160.9930  205.3590  148.8910 C   0  0  2  0  0  3  0  0  0  0  0  0
  161.7410  204.8100  150.1140 C   0  0  1  0  0  3  0  0  0  0  0  0
  162.4470  205.9860  152.1080 O   0  0  0  0  0  0  0  0  0  0  0  0
  161.8370  205.9840  151.0070 C   0  0  0  0  0  0  0  0  0  0  0  0
  159.3210  203.7590  150.6210 O   0  0  0  0  0  0  0  0  0  0  0  0
  161.0330  203.5170  152.3680 O   0  0  0  0  0  0  0  0  0  0  0  0
  160.7790  203.5190  150.8880 S   0  0  0  0  0  0  0  0  0  0  0  0
  160.6860  202.5620  148.0190 O   0  0  0  0  0  0  0  0  0  0  0  0
  161.2440  201.9930  150.2140 N   0  0  0  0  0  2  0  0  0  0  0  0
  161.1220  201.6990  148.8240 C   0  0  0  0  0  0  0  0  0  0  0  0
  161.5520  200.3690  148.3160 C   0  0  0  0  0  2  0  0  0  0  0  0
  161.2250  200.2580  146.9650 O   0  0  0  0  0  1  0  0  0  0  0  0
  160.6940  212.9870  145.5840 C   0  0  0  0  0  2  0  0  0  0  0  0
  161.4860  212.7380  144.4080 N   0  0  0  0  0  0  0  0  0  0  0  0
  160.9380  212.3190  143.3260 C   0  0  0  0  0  3  0  0  0  0  0  0
  163.1700  211.6800  138.2510 C   0  0  0  0  0  2  0  0  0  0  0  0
  161.2520  210.3120  138.7380 N   0  0  0  0  0  0  0  0  0  0  0  0
  161.7710  212.0450  142.1180 C   0  0  2  0  0  3  0  0  0  0  0  0
  162.2300  210.6120  137.7000 C   0  0  0  0  0  2  0  0  0  0  0  0
  162.8670  211.7720  139.6640 N   0  0  1  0  0  0  0  0  0  0  0  0
  163.1790  213.9890  142.3450 O   0  0  0  0  0  1  0  0  0  0  0  0
  162.2740  213.3620  141.4850 C   0  0  1  0  0  3  0  0  0  0  0  0
  162.9410  213.1640  140.1040 C   0  0  0  0  0  2  0  0  0  0  0  0
  161.6500  209.0330  139.3150 C   0  0  0  0  0  1  0  0  0  0  0  0
  161.4680  211.3930  139.6960 C   0  0  2  0  0  3  0  0  0  0  0  0
  160.9880  211.1550  141.1310 C   0  0  0  0  0  2  0  0  0  0  0  0
  158.2420  213.7530  151.6440 C   0  0  0  0  0  2  0  0  0  0  0  0
  158.9630  214.1000  152.9400 C   0  0  0  0  0  2  0  0  0  0  0  0
  157.5450  212.6910  154.1720 C   0  0  0  0  0  2  0  0  0  0  0  0
  158.4660  213.1840  155.1860 C   0  0  2  0  0  3  0  0  0  0  0  0
  158.0370  214.0750  154.0750 N   0  0  0  0  0  0  0  0  0  0  0  0
  159.8390  212.5320  155.0130 C   0  0  0  0  0  2  0  0  0  0  0  0
  161.0150  210.5360  154.6430 C   0  0  0  0  0  2  0  0  0  0  0  0
  159.6760  211.0980  154.8170 N   0  0  0  0  0  0  0  0  0  0  0  0
  159.9890  209.3600  156.4470 C   0  0  0  0  0  2  0  0  0  0  0  0
  161.3300  209.6620  155.8410 C   0  0  0  0  0  2  0  0  0  0  0  0
  159.1420  210.5510  156.0630 C   0  0  0  0  0  2  0  0  0  0  0  0
  1  4  2  0  0  0  0
  2  3  1  6  0  0  0
  2  5  1  0  0  0  0
  2 11  1  0  0  0  0
  4 45  1  0  0  0  0
  5  1  1  0  0  0  0
  6 31  1  6  0  0  0
  6  7  1  0  0  0  0
  6 10  1  0  0  0  0
  7  2  1  0  0  0  0
  8  4  1  0  0  0  0
  9  5  2  0  0  0  0
  9  8  1  0  0  0  0
 10  9  1  0  0  0  0
 11 12  1  0  0  0  0
 12 13  1  0  0  0  0
 13 15  1  0  0  0  0
 13 14  2  0  0  0  0
 16 22  1  0  0  0  0
 16 15  1  0  0  0  0
 18 16  1  0  0  0  0
 19 17  1  6  0  0  0
 19 18  1  0  0  0  0
 19 20  1  0  0  0  0
 20 25  1  1  0  0  0
 20 22  1  0  0  0  0
 22 21  2  0  0  0  0
 23 25  2  0  0  0  0
 25 24  2  0  0  0  0
 26 28  2  0  0  0  0
 27 25  1  0  0  0  0
 28 27  1  0  0  0  0
 29 28  1  0  0  0  0
 30 29  1  0  0  0  0
 32 31  1  0  0  0  0
 33 32  2  0  0  0  0
 35 42  1  0  0  0  0
 35 43  1  0  0  0  0
 36 33  1  1  0  0  0
 37 34  1  0  0  0  0
 37 35  1  0  0  0  0
 38 34  1  6  0  0  0
 38 43  1  0  0  0  0
 38 41  1  0  0  0  0
 40 36  1  0  0  0  0
 40 39  1  1  0  0  0
 41 40  1  0  0  0  0
 43 44  1  1  0  0  0
 44 36  1  0  0  0  0
 45 46  1  0  0  0  0
 46 49  1  0  0  0  0
 47 48  1  0  0  0  0
 48 50  1  6  0  0  0
 49 47  1  0  0  0  0
 49 48  1  0  0  0  0
 51 52  1  0  0  0  0
 51 54  1  0  0  0  0
 52 50  1  0  0  0  0
 52 55  1  0  0  0  0
 54 53  1  0  0  0  0
 55 53  1  0  0  0  0
M  END
>  <MODEL>
4

>  <REMARK>
 VINA RESULT:      -5.8      3.649     10.669
  Name = 
  16 active torsions:
  status: ('A' for Active; 'I' for Inactive)
    1  A    between atoms: C_1  and  C_6
    2  A    between atoms: C_1  and  C_46
    3  A    between atoms: C_9  and  C_22
    4  A    between atoms: C_10  and  C_13
    5  A    between atoms: C_10  and  C_46
    6  A    between atoms: C_11  and  C_32
    7  A    between atoms: C_13  and  N_15
    8  A    between atoms: C_14  and  C_43
    9  A    between atoms: N_17  and  C_30
   10  A    between atoms: C_22  and  C_41
   11  A    between atoms: C_26  and  C_30
   12  A    between atoms: N_28  and  S_54
   13  A    between atoms: C_31  and  C_40
   14  A    between atoms: C_36  and  S_54
   15  A    between atoms: N_39  and  C_40
   16  A    between atoms: C_41  and  N_53
                            x       y       z     vdW  Elec       q    Type
                         _______ _______ _______ _____ _____    ______ ____

>  <TORSDO>
F 16

$$$$
=
 OpenBabel11052410193D

 55 61  0  0  1  0  0  0  0  0999 V2000
  161.4710  207.5020  151.1060 C   0  0  0  0  0  3  0  0  0  0  0  0
  161.8920  208.5510  148.7530 C   0  0  2  0  0  0  0  0  0  0  0  0
  160.5970  208.6730  148.2740 F   0  0  0  0  0  0  0  0  0  0  0  0
  161.4970  208.1090  152.3620 C   0  0  0  0  0  0  0  0  0  0  0  0
  161.8430  208.5210  150.2520 C   0  0  0  0  0  0  0  0  0  0  0  0
  162.4010  211.0710  149.0640 C   0  0  2  0  0  3  0  0  0  0  0  0
  162.7290  209.7690  148.2990 C   0  0  0  0  0  2  0  0  0  0  0  0
  161.8430  209.3740  152.2800 O   0  0  0  0  0  0  0  0  0  0  0  0
  162.0380  209.6350  151.0170 C   0  0  0  0  0  0  0  0  0  0  0  0
  162.3980  210.8690  150.4830 O   0  0  0  0  0  0  0  0  0  0  0  0
  162.5240  207.2610  148.2210 C   0  0  0  0  0  2  0  0  0  0  0  0
  161.5000  206.1590  147.9470 C   0  0  0  0  0  2  0  0  0  0  0  0
  161.2380  206.0010  146.4850 C   0  0  0  0  0  0  0  0  0  0  0  0
  160.3960  206.6930  145.9340 O   0  0  0  0  0  0  0  0  0  0  0  0
  162.0240  205.0090  145.6940 C   0  0  0  0  0  2  0  0  0  0  0  0
  161.5160  203.6650  145.9140 N   0  0  0  0  0  0  0  0  0  0  0  0
  160.3220  200.7480  144.9540 O   0  0  0  0  0  1  0  0  0  0  0  0
  160.3440  203.1220  145.2540 C   0  0  0  0  0  2  0  0  0  0  0  0
  160.0970  201.7490  145.8970 C   0  0  2  0  0  3  0  0  0  0  0  0
  161.0920  201.5910  147.0550 C   0  0  1  0  0  3  0  0  0  0  0  0
  162.9300  203.0360  147.6780 O   0  0  0  0  0  0  0  0  0  0  0  0
  161.9320  202.8010  146.9480 C   0  0  0  0  0  0  0  0  0  0  0  0
  160.6760  200.4040  149.4290 O   0  0  0  0  0  0  0  0  0  0  0  0
  158.7400  201.4790  148.3630 O   0  0  0  0  0  0  0  0  0  0  0  0
  160.2170  201.5780  148.6130 S   0  0  0  0  0  0  0  0  0  0  0  0
  161.4700  201.9790  151.3370 O   0  0  0  0  0  0  0  0  0  0  0  0
  160.5680  203.0440  149.4650 N   0  0  0  0  0  2  0  0  0  0  0  0
  161.1570  203.0550  150.7630 C   0  0  0  0  0  0  0  0  0  0  0  0
  161.4390  204.3540  151.4290 C   0  0  0  0  0  2  0  0  0  0  0  0
  160.9010  204.3450  152.7160 O   0  0  0  0  0  1  0  0  0  0  0  0
  161.0670  211.6490  148.6020 C   0  0  0  0  0  2  0  0  0  0  0  0
  161.1910  212.2110  147.2830 N   0  0  0  0  0  0  0  0  0  0  0  0
  160.1810  212.7460  146.7000 C   0  0  0  0  0  3  0  0  0  0  0  0
  161.0220  213.8140  141.2880 C   0  0  0  0  0  2  0  0  0  0  0  0
  162.9810  213.2580  142.5680 N   0  0  0  0  0  0  0  0  0  0  0  0
  160.3160  213.3080  145.3230 C   0  0  2  0  0  3  0  0  0  0  0  0
  162.5340  213.6200  141.2290 C   0  0  0  0  0  2  0  0  0  0  0  0
  160.6850  213.8150  142.6960 N   0  0  1  0  0  0  0  0  0  0  0  0
  157.9600  213.2700  144.8120 O   0  0  0  0  0  1  0  0  0  0  0  0
  159.1990  212.7730  144.3990 C   0  0  1  0  0  3  0  0  0  0  0  0
  159.4150  213.1240  142.9090 C   0  0  0  0  0  2  0  0  0  0  0  0
  163.6030  214.4530  143.1260 C   0  0  0  0  0  1  0  0  0  0  0  0
  161.7230  212.9700  143.2530 C   0  0  2  0  0  3  0  0  0  0  0  0
  161.7350  213.0360  144.7830 C   0  0  0  0  0  2  0  0  0  0  0  0
  161.1820  207.4360  153.6570 C   0  0  0  0  0  2  0  0  0  0  0  0
  161.3700  208.3700  154.8470 C   0  0  0  0  0  2  0  0  0  0  0  0
  160.5370  208.9460  156.9650 C   0  0  0  0  0  2  0  0  0  0  0  0
  159.8160  209.8510  156.0810 C   0  0  2  0  0  3  0  0  0  0  0  0
  160.1370  208.4690  155.6310 N   0  0  0  0  0  0  0  0  0  0  0  0
  160.7550  210.9430  155.5670 C   0  0  0  0  0  2  0  0  0  0  0  0
  160.1970  211.9010  153.4990 C   0  0  0  0  0  2  0  0  0  0  0  0
  159.9760  212.0020  154.9420 N   0  0  0  0  0  0  0  0  0  0  0  0
  157.8410  211.7950  153.8580 C   0  0  0  0  0  2  0  0  0  0  0  0
  158.9000  211.4720  152.8420 C   0  0  0  0  0  2  0  0  0  0  0  0
  158.5660  211.6970  155.1800 C   0  0  0  0  0  2  0  0  0  0  0  0
  1  4  2  0  0  0  0
  2  3  1  6  0  0  0
  2  5  1  0  0  0  0
  4 45  1  0  0  0  0
  5  9  2  0  0  0  0
  5  1  1  0  0  0  0
  6 31  1  6  0  0  0
  6 10  1  0  0  0  0
  7  2  1  0  0  0  0
  7  6  1  0  0  0  0
  8  4  1  0  0  0  0
  9  8  1  0  0  0  0
 10  9  1  0  0  0  0
 11  2  1  0  0  0  0
 12 11  1  0  0  0  0
 13 12  1  0  0  0  0
 14 13  2  0  0  0  0
 15 16  1  0  0  0  0
 15 13  1  0  0  0  0
 16 22  1  0  0  0  0
 18 19  1  0  0  0  0
 18 16  1  0  0  0  0
 19 17  1  6  0  0  0
 19 20  1  0  0  0  0
 20 25  1  1  0  0  0
 22 20  1  0  0  0  0
 22 21  2  0  0  0  0
 24 25  2  0  0  0  0
 25 23  2  0  0  0  0
 25 27  1  0  0  0  0
 27 28  1  0  0  0  0
 28 26  2  0  0  0  0
 28 29  1  0  0  0  0
 29 30  1  0  0  0  0
 32 31  1  0  0  0  0
 33 32  2  0  0  0  0
 35 42  1  0  0  0  0
 35 43  1  0  0  0  0
 36 33  1  1  0  0  0
 37 34  1  0  0  0  0
 37 35  1  0  0  0  0
 38 34  1  6  0  0  0
 38 41  1  0  0  0  0
 38 43  1  0  0  0  0
 40 39  1  1  0  0  0
 40 36  1  0  0  0  0
 41 40  1  0  0  0  0
 43 44  1  1  0  0  0
 44 36  1  0  0  0  0
 45 46  1  0  0  0  0
 46 49  1  0  0  0  0
 48 50  1  6  0  0  0
 48 47  1  0  0  0  0
 49 48  1  0  0  0  0
 49 47  1  0  0  0  0
 51 52  1  0  0  0  0
 52 55  1  0  0  0  0
 52 50  1  0  0  0  0
 53 55  1  0  0  0  0
 54 51  1  0  0  0  0
 54 53  1  0  0  0  0
M  END
>  <MODEL>
5

>  <REMARK>
 VINA RESULT:      -5.5      4.148      9.848
  Name = 
  16 active torsions:
  status: ('A' for Active; 'I' for Inactive)
    1  A    between atoms: C_1  and  C_6
    2  A    between atoms: C_1  and  C_46
    3  A    between atoms: C_9  and  C_22
    4  A    between atoms: C_10  and  C_13
    5  A    between atoms: C_10  and  C_46
    6  A    between atoms: C_11  and  C_32
    7  A    between atoms: C_13  and  N_15
    8  A    between atoms: C_14  and  C_43
    9  A    between atoms: N_17  and  C_30
   10  A    between atoms: C_22  and  C_41
   11  A    between atoms: C_26  and  C_30
   12  A    between atoms: N_28  and  S_54
   13  A    between atoms: C_31  and  C_40
   14  A    between atoms: C_36  and  S_54
   15  A    between atoms: N_39  and  C_40
   16  A    between atoms: C_41  and  N_53
                            x       y       z     vdW  Elec       q    Type
                         _______ _______ _______ _____ _____    ______ ____

>  <TORSDO>
F 16

$$$$
=
 OpenBabel11052410193D

 55 61  0  0  1  0  0  0  0  0999 V2000
  160.0250  212.2610  150.4820 C   0  0  0  0  0  3  0  0  0  0  0  0
  161.4430  211.5400  148.4120 C   0  0  2  0  0  0  0  0  0  0  0  0
  160.4950  210.8740  147.6510 F   0  0  0  0  0  0  0  0  0  0  0  0
  159.4900  213.5110  150.7940 C   0  0  0  0  0  0  0  0  0  0  0  0
  160.7340  212.5000  149.3210 C   0  0  0  0  0  0  0  0  0  0  0  0
  161.7530  213.6030  146.8780 C   0  0  2  0  0  3  0  0  0  0  0  0
  162.3900  212.3320  147.4810 C   0  0  0  0  0  2  0  0  0  0  0  0
  159.8320  214.4180  149.9080 O   0  0  0  0  0  0  0  0  0  0  0  0
  160.5660  213.8190  149.0110 C   0  0  0  0  0  0  0  0  0  0  0  0
  161.1210  214.4100  147.8800 O   0  0  0  0  0  0  0  0  0  0  0  0
  162.2500  210.5320  149.2370 C   0  0  0  0  0  2  0  0  0  0  0  0
  161.6790  209.1150  149.1780 C   0  0  0  0  0  2  0  0  0  0  0  0
  161.7580  208.4330  150.5060 C   0  0  0  0  0  0  0  0  0  0  0  0
  161.1120  208.8560  151.4520 O   0  0  0  0  0  0  0  0  0  0  0  0
  162.6120  207.2210  150.6660 C   0  0  0  0  0  2  0  0  0  0  0  0
  161.7980  206.0650  151.0020 N   0  0  0  0  0  0  0  0  0  0  0  0
  160.2780  204.0050  153.0760 O   0  0  0  0  0  1  0  0  0  0  0  0
  162.1310  205.1120  152.0440 C   0  0  0  0  0  2  0  0  0  0  0  0
  161.0850  203.9920  151.9400 C   0  0  2  0  0  3  0  0  0  0  0  0
  160.2240  204.2720  150.7010 C   0  0  1  0  0  3  0  0  0  0  0  0
  160.2340  206.2150  149.2580 O   0  0  0  0  0  0  0  0  0  0  0  0
  160.7230  205.5800  150.2290 C   0  0  0  0  0  0  0  0  0  0  0  0
  159.2110  202.3370  149.1350 O   0  0  0  0  0  0  0  0  0  0  0  0
  161.4940  202.0070  149.9830 O   0  0  0  0  0  0  0  0  0  0  0  0
  160.5100  203.0160  149.4630 S   0  0  0  0  0  0  0  0  0  0  0  0
  160.7400  201.9340  146.6470 O   0  0  0  0  0  0  0  0  0  0  0  0
  161.1430  203.7670  148.0380 N   0  0  0  0  0  2  0  0  0  0  0  0
  161.1890  203.1030  146.7760 C   0  0  0  0  0  0  0  0  0  0  0  0
  161.7370  203.8160  145.5920 C   0  0  0  0  0  2  0  0  0  0  0  0
  162.7260  204.7100  146.0030 O   0  0  0  0  0  1  0  0  0  0  0  0
  160.7610  213.2420  145.7770 C   0  0  0  0  0  2  0  0  0  0  0  0
  161.3560  213.4310  144.4800 N   0  0  0  0  0  0  0  0  0  0  0  0
  161.2890  212.5110  143.5880 C   0  0  0  0  0  3  0  0  0  0  0  0
  162.8760  214.0160  138.4540 C   0  0  0  0  0  2  0  0  0  0  0  0
  160.7240  212.9560  138.6220 N   0  0  0  0  0  0  0  0  0  0  0  0
  161.9280  212.7090  142.2530 C   0  0  2  0  0  3  0  0  0  0  0  0
  161.6590  213.5380  137.6680 C   0  0  0  0  0  2  0  0  0  0  0  0
  162.7200  213.4650  139.7840 N   0  0  1  0  0  0  0  0  0  0  0  0
  163.7900  214.0090  143.0640 O   0  0  0  0  0  1  0  0  0  0  0  0
  162.6910  214.0520  142.2030 C   0  0  1  0  0  3  0  0  0  0  0  0
  163.1750  214.4310  140.7830 C   0  0  0  0  0  2  0  0  0  0  0  0
  160.8350  211.5100  138.4710 C   0  0  0  0  0  1  0  0  0  0  0  0
  161.2780  213.3780  139.9060 C   0  0  2  0  0  3  0  0  0  0  0  0
  160.8710  212.5670  141.1390 C   0  0  0  0  0  2  0  0  0  0  0  0
  158.6350  213.8170  151.9790 C   0  0  0  0  0  2  0  0  0  0  0  0
  158.9290  212.8900  153.1520 C   0  0  0  0  0  2  0  0  0  0  0  0
  158.6100  210.6020  153.5680 C   0  0  0  0  0  2  0  0  0  0  0  0
  157.8220  211.2310  154.6180 C   0  0  2  0  0  3  0  0  0  0  0  0
  157.8990  211.8560  153.2710 N   0  0  0  0  0  0  0  0  0  0  0  0
  158.7450  211.8360  155.6770 C   0  0  0  0  0  2  0  0  0  0  0  0
  157.8640  213.7860  156.6400 C   0  0  0  0  0  2  0  0  0  0  0  0
  157.9500  212.3330  156.7910 N   0  0  0  0  0  0  0  0  0  0  0  0
  155.6300  212.9580  156.7610 C   0  0  0  0  0  2  0  0  0  0  0  0
  156.4280  214.1520  156.3200 C   0  0  0  0  0  2  0  0  0  0  0  0
  156.5970  211.8060  156.6230 C   0  0  0  0  0  2  0  0  0  0  0  0
  1  4  2  0  0  0  0
  2  3  1  6  0  0  0
  2 11  1  0  0  0  0
  2  5  1  0  0  0  0
  4 45  1  0  0  0  0
  5  1  1  0  0  0  0
  6 31  1  6  0  0  0
  6  7  1  0  0  0  0
  6 10  1  0  0  0  0
  7  2  1  0  0  0  0
  8  4  1  0  0  0  0
  9  5  2  0  0  0  0
  9  8  1  0  0  0  0
 10  9  1  0  0  0  0
 12 11  1  0  0  0  0
 12 13  1  0  0  0  0
 13 15  1  0  0  0  0
 13 14  2  0  0  0  0
 15 16  1  0  0  0  0
 16 18  1  0  0  0  0
 19 18  1  0  0  0  0
 19 17  1  1  0  0  0
 20 25  1  6  0  0  0
 20 19  1  0  0  0  0
 21 22  2  0  0  0  0
 22 20  1  0  0  0  0
 22 16  1  0  0  0  0
 23 25  2  0  0  0  0
 25 24  2  0  0  0  0
 26 28  2  0  0  0  0
 27 25  1  0  0  0  0
 28 27  1  0  0  0  0
 29 30  1  0  0  0  0
 29 28  1  0  0  0  0
 32 31  1  0  0  0  0
 33 32  2  0  0  0  0
 35 43  1  0  0  0  0
 36 33  1  1  0  0  0
 37 34  1  0  0  0  0
 37 35  1  0  0  0  0
 38 34  1  6  0  0  0
 38 43  1  0  0  0  0
 38 41  1  0  0  0  0
 40 36  1  0  0  0  0
 40 39  1  1  0  0  0
 41 40  1  0  0  0  0
 42 35  1  0  0  0  0
 43 44  1  1  0  0  0
 44 36  1  0  0  0  0
 45 46  1  0  0  0  0
 46 49  1  0  0  0  0
 47 48  1  0  0  0  0
 48 50  1  1  0  0  0
 49 47  1  0  0  0  0
 49 48  1  0  0  0  0
 50 52  1  0  0  0  0
 51 52  1  0  0  0  0
 54 51  1  0  0  0  0
 54 53  1  0  0  0  0
 55 53  1  0  0  0  0
 55 52  1  0  0  0  0
M  END
>  <MODEL>
6

>  <REMARK>
 VINA RESULT:      -4.7      3.723     10.866
  Name = 
  16 active torsions:
  status: ('A' for Active; 'I' for Inactive)
    1  A    between atoms: C_1  and  C_6
    2  A    between atoms: C_1  and  C_46
    3  A    between atoms: C_9  and  C_22
    4  A    between atoms: C_10  and  C_13
    5  A    between atoms: C_10  and  C_46
    6  A    between atoms: C_11  and  C_32
    7  A    between atoms: C_13  and  N_15
    8  A    between atoms: C_14  and  C_43
    9  A    between atoms: N_17  and  C_30
   10  A    between atoms: C_22  and  C_41
   11  A    between atoms: C_26  and  C_30
   12  A    between atoms: N_28  and  S_54
   13  A    between atoms: C_31  and  C_40
   14  A    between atoms: C_36  and  S_54
   15  A    between atoms: N_39  and  C_40
   16  A    between atoms: C_41  and  N_53
                            x       y       z     vdW  Elec       q    Type
                         _______ _______ _______ _____ _____    ______ ____

>  <TORSDO>
F 16

$$$$
=
 OpenBabel11052410193D

 55 61  0  0  1  0  0  0  0  0999 V2000
  159.7470  212.5020  149.9110 C   0  0  0  0  0  3  0  0  0  0  0  0
  161.1900  211.8190  147.8460 C   0  0  2  0  0  0  0  0  0  0  0  0
  160.3880  210.8510  147.2620 F   0  0  0  0  0  0  0  0  0  0  0  0
  158.9490  213.6310  150.0970 C   0  0  0  0  0  0  0  0  0  0  0  0
  160.3220  212.7190  148.6750 C   0  0  0  0  0  0  0  0  0  0  0  0
  160.9300  213.6470  146.0300 C   0  0  2  0  0  3  0  0  0  0  0  0
  161.8770  212.6570  146.7430 C   0  0  0  0  0  2  0  0  0  0  0  0
  159.0240  214.4500  149.0730 O   0  0  0  0  0  0  0  0  0  0  0  0
  159.8330  213.9050  148.2070 C   0  0  0  0  0  0  0  0  0  0  0  0
  160.1770  214.4300  146.9650 O   0  0  0  0  0  0  0  0  0  0  0  0
  162.2510  211.1530  148.7280 C   0  0  0  0  0  2  0  0  0  0  0  0
  162.2680  209.6290  148.6000 C   0  0  0  0  0  2  0  0  0  0  0  0
  161.8680  208.9640  149.8760 C   0  0  0  0  0  0  0  0  0  0  0  0
  161.7870  209.6130  150.9080 O   0  0  0  0  0  0  0  0  0  0  0  0
  161.5450  207.5070  149.8830 C   0  0  0  0  0  2  0  0  0  0  0  0
  161.4240  207.0060  148.5250 N   0  0  0  0  0  0  0  0  0  0  0  0
  160.0870  206.8780  145.5160 O   0  0  0  0  0  1  0  0  0  0  0  0
  160.1630  206.6590  147.8980 C   0  0  0  0  0  2  0  0  0  0  0  0
  160.5260  206.0390  146.5400 C   0  0  2  0  0  3  0  0  0  0  0  0
  162.0540  205.9150  146.4760 C   0  0  1  0  0  3  0  0  0  0  0  0
  163.7050  206.7490  148.0370 O   0  0  0  0  0  0  0  0  0  0  0  0
  162.4990  206.5700  147.7240 C   0  0  0  0  0  0  0  0  0  0  0  0
  164.0250  204.0890  146.5170 O   0  0  0  0  0  0  0  0  0  0  0  0
  162.0030  203.5230  145.2400 O   0  0  0  0  0  0  0  0  0  0  0  0
  162.5270  204.1920  146.4780 S   0  0  0  0  0  0  0  0  0  0  0  0
  160.7270  201.7700  146.6890 O   0  0  0  0  0  0  0  0  0  0  0  0
  161.8590  203.4290  147.8810 N   0  0  0  0  0  2  0  0  0  0  0  0
  161.0090  202.2870  147.8010 C   0  0  0  0  0  0  0  0  0  0  0  0
  160.4810  201.6780  149.0510 C   0  0  0  0  0  2  0  0  0  0  0  0
  161.2860  200.6010  149.4210 O   0  0  0  0  0  1  0  0  0  0  0  0
  159.9980  212.9120  145.0730 C   0  0  0  0  0  2  0  0  0  0  0  0
  160.2590  213.3050  143.7140 N   0  0  0  0  0  0  0  0  0  0  0  0
  160.1650  212.4550  142.7560 C   0  0  0  0  0  3  0  0  0  0  0  0
  161.6090  212.9470  137.3880 C   0  0  0  0  0  2  0  0  0  0  0  0
  163.4080  212.5240  138.9280 N   0  0  0  0  0  0  0  0  0  0  0  0
  160.4580  212.8690  141.3520 C   0  0  2  0  0  3  0  0  0  0  0  0
  163.1160  212.7440  137.5170 C   0  0  0  0  0  2  0  0  0  0  0  0
  161.1200  213.0970  138.7430 N   0  0  1  0  0  0  0  0  0  0  0  0
  158.1730  212.7820  140.5900 O   0  0  0  0  0  1  0  0  0  0  0  0
  159.4420  212.2420  140.3710 C   0  0  1  0  0  3  0  0  0  0  0  0
  159.8250  212.4340  138.8840 C   0  0  0  0  0  2  0  0  0  0  0  0
  163.9820  213.7700  139.4240 C   0  0  0  0  0  1  0  0  0  0  0  0
  162.0790  212.3120  139.4960 C   0  0  2  0  0  3  0  0  0  0  0  0
  161.9240  212.5390  141.0030 C   0  0  0  0  0  2  0  0  0  0  0  0
  158.1060  213.9090  151.2980 C   0  0  0  0  0  2  0  0  0  0  0  0
  158.9430  214.3180  152.5040 C   0  0  0  0  0  2  0  0  0  0  0  0
  157.5130  212.7810  153.5530 C   0  0  0  0  0  2  0  0  0  0  0  0
  158.6590  212.8150  154.4500 C   0  0  2  0  0  3  0  0  0  0  0  0
  158.2240  214.0540  153.7520 N   0  0  0  0  0  0  0  0  0  0  0  0
  159.8450  212.0850  153.8160 C   0  0  0  0  0  2  0  0  0  0  0  0
  159.5890  210.8470  155.7920 C   0  0  0  0  0  2  0  0  0  0  0  0
  160.5780  211.3600  154.8440 N   0  0  0  0  0  0  0  0  0  0  0  0
  160.8630  208.9810  155.0260 C   0  0  0  0  0  2  0  0  0  0  0  0
  159.5610  209.3350  155.6870 C   0  0  0  0  0  2  0  0  0  0  0  0
  161.1910  210.2010  154.1980 C   0  0  0  0  0  2  0  0  0  0  0  0
  1  4  2  0  0  0  0
  2  3  1  6  0  0  0
  2  5  1  0  0  0  0
  2 11  1  0  0  0  0
  4 45  1  0  0  0  0
  5  1  1  0  0  0  0
  6 31  1  6  0  0  0
  6  7  1  0  0  0  0
  6 10  1  0  0  0  0
  7  2  1  0  0  0  0
  8  4  1  0  0  0  0
  9  5  2  0  0  0  0
  9  8  1  0  0  0  0
 10  9  1  0  0  0  0
 12 11  1  0  0  0  0
 12 13  1  0  0  0  0
 13 15  1  0  0  0  0
 13 14  2  0  0  0  0
 16 15  1  0  0  0  0
 18 16  1  0  0  0  0
 19 17  1  6  0  0  0
 19 18  1  0  0  0  0
 20 25  1  1  0  0  0
 20 19  1  0  0  0  0
 20 22  1  0  0  0  0
 22 21  2  0  0  0  0
 22 16  1  0  0  0  0
 24 25  2  0  0  0  0
 25 23  2  0  0  0  0
 25 27  1  0  0  0  0
 26 28  2  0  0  0  0
 28 27  1  0  0  0  0
 28 29  1  0  0  0  0
 29 30  1  0  0  0  0
 32 31  1  0  0  0  0
 33 32  2  0  0  0  0
 34 37  1  0  0  0  0
 35 42  1  0  0  0  0
 35 43  1  0  0  0  0
 36 33  1  1  0  0  0
 37 35  1  0  0  0  0
 38 34  1  6  0  0  0
 38 41  1  0  0  0  0
 38 43  1  0  0  0  0
 40 39  1  6  0  0  0
 40 36  1  0  0  0  0
 41 40  1  0  0  0  0
 43 44  1  1  0  0  0
 44 36  1  0  0  0  0
 45 46  1  0  0  0  0
 46 49  1  0  0  0  0
 47 49  1  0  0  0  0
 47 48  1  0  0  0  0
 48 50  1  6  0  0  0
 49 48  1  0  0  0  0
 50 52  1  0  0  0  0
 52 51  1  0  0  0  0
 53 54  1  0  0  0  0
 54 51  1  0  0  0  0
 55 52  1  0  0  0  0
 55 53  1  0  0  0  0
M  END
>  <MODEL>
7

>  <REMARK>
 VINA RESULT:      -4.6      3.295      9.979
  Name = 
  16 active torsions:
  status: ('A' for Active; 'I' for Inactive)
    1  A    between atoms: C_1  and  C_6
    2  A    between atoms: C_1  and  C_46
    3  A    between atoms: C_9  and  C_22
    4  A    between atoms: C_10  and  C_13
    5  A    between atoms: C_10  and  C_46
    6  A    between atoms: C_11  and  C_32
    7  A    between atoms: C_13  and  N_15
    8  A    between atoms: C_14  and  C_43
    9  A    between atoms: N_17  and  C_30
   10  A    between atoms: C_22  and  C_41
   11  A    between atoms: C_26  and  C_30
   12  A    between atoms: N_28  and  S_54
   13  A    between atoms: C_31  and  C_40
   14  A    between atoms: C_36  and  S_54
   15  A    between atoms: N_39  and  C_40
   16  A    between atoms: C_41  and  N_53
                            x       y       z     vdW  Elec       q    Type
                         _______ _______ _______ _____ _____    ______ ____

>  <TORSDO>
F 16

$$$$
=
 OpenBabel11052410193D

 55 61  0  0  1  0  0  0  0  0999 V2000
  160.2650  212.2750  151.1440 C   0  0  0  0  0  3  0  0  0  0  0  0
  161.5170  211.4610  149.0030 C   0  0  2  0  0  0  0  0  0  0  0  0
  160.4930  210.8310  148.3120 F   0  0  0  0  0  0  0  0  0  0  0  0
  159.8090  213.5530  151.4680 C   0  0  0  0  0  0  0  0  0  0  0  0
  160.9120  212.4650  149.9390 C   0  0  0  0  0  0  0  0  0  0  0  0
  161.8290  213.4870  147.4210 C   0  0  2  0  0  3  0  0  0  0  0  0
  162.4410  212.1950  148.0040 C   0  0  0  0  0  2  0  0  0  0  0  0
  160.1380  214.4320  150.5490 O   0  0  0  0  0  0  0  0  0  0  0  0
  160.7870  213.7860  149.6190 C   0  0  0  0  0  0  0  0  0  0  0  0
  161.2990  214.3350  148.4470 O   0  0  0  0  0  0  0  0  0  0  0  0
  162.3250  210.4260  149.7930 C   0  0  0  0  0  2  0  0  0  0  0  0
  162.4250  209.0740  149.0830 C   0  0  0  0  0  2  0  0  0  0  0  0
  161.9250  207.9610  149.9450 C   0  0  0  0  0  0  0  0  0  0  0  0
  162.4190  207.7660  151.0440 O   0  0  0  0  0  0  0  0  0  0  0  0
  160.8040  207.1000  149.4660 C   0  0  0  0  0  2  0  0  0  0  0  0
  161.3200  205.8990  148.8310 N   0  0  0  0  0  0  0  0  0  0  0  0
  163.0340  204.2480  146.5520 O   0  0  0  0  0  1  0  0  0  0  0  0
  161.3040  205.6670  147.3990 C   0  0  0  0  0  2  0  0  0  0  0  0
  161.8010  204.2270  147.2010 C   0  0  2  0  0  3  0  0  0  0  0  0
  161.9660  203.5950  148.5900 C   0  0  1  0  0  3  0  0  0  0  0  0
  161.7750  204.6450  150.7620 O   0  0  0  0  0  0  0  0  0  0  0  0
  161.6830  204.7170  149.5080 C   0  0  0  0  0  0  0  0  0  0  0  0
  159.5090  202.8690  149.3990 O   0  0  0  0  0  0  0  0  0  0  0  0
  161.3210  201.2440  149.7360 O   0  0  0  0  0  0  0  0  0  0  0  0
  160.7660  202.2910  148.8140 S   0  0  0  0  0  0  0  0  0  0  0  0
  161.9000  199.8020  147.5220 O   0  0  0  0  0  0  0  0  0  0  0  0
  160.4120  201.5840  147.2740 N   0  0  0  0  0  2  0  0  0  0  0  0
  161.0540  200.3990  146.8070 C   0  0  0  0  0  0  0  0  0  0  0  0
  160.6910  199.8430  145.4770 C   0  0  0  0  0  2  0  0  0  0  0  0
  161.1840  198.5440  145.3630 O   0  0  0  0  0  1  0  0  0  0  0  0
  160.7550  213.1590  146.3880 C   0  0  0  0  0  2  0  0  0  0  0  0
  161.3520  212.9030  145.1040 N   0  0  0  0  0  0  0  0  0  0  0  0
  161.3630  213.8070  144.1940 C   0  0  0  0  0  3  0  0  0  0  0  0
  163.1550  213.7180  138.9100 C   0  0  0  0  0  2  0  0  0  0  0  0
  160.7720  213.5880  139.2160 N   0  0  0  0  0  0  0  0  0  0  0  0
  161.9660  213.5240  142.8580 C   0  0  2  0  0  3  0  0  0  0  0  0
  161.8110  213.6070  138.1940 C   0  0  0  0  0  2  0  0  0  0  0  0
  162.8670  213.4990  140.3120 N   0  0  1  0  0  0  0  0  0  0  0  0
  164.2130  214.1470  143.4690 O   0  0  0  0  0  1  0  0  0  0  0  0
  163.1710  214.4530  142.5900 C   0  0  1  0  0  3  0  0  0  0  0  0
  163.6940  214.3780  141.1370 C   0  0  0  0  0  2  0  0  0  0  0  0
  160.3290  212.2020  139.3200 C   0  0  0  0  0  1  0  0  0  0  0  0
  161.5040  213.9810  140.4170 C   0  0  2  0  0  3  0  0  0  0  0  0
  160.8810  213.6030  141.7640 C   0  0  0  0  0  2  0  0  0  0  0  0
  159.0450  213.9150  152.6990 C   0  0  0  0  0  2  0  0  0  0  0  0
  157.8120  213.0390  152.8860 C   0  0  0  0  0  2  0  0  0  0  0  0
  156.7570  211.9840  154.6980 C   0  0  0  0  0  2  0  0  0  0  0  0
  157.8810  212.6590  155.3320 C   0  0  2  0  0  3  0  0  0  0  0  0
  157.1820  213.2950  154.1830 N   0  0  0  0  0  0  0  0  0  0  0  0
  159.1880  211.9400  154.9890 C   0  0  0  0  0  2  0  0  0  0  0  0
  159.6690  209.7620  155.7170 C   0  0  0  0  0  2  0  0  0  0  0  0
  159.6330  211.1630  156.1370 N   0  0  0  0  0  0  0  0  0  0  0  0
  161.8390  210.3030  156.5470 C   0  0  0  0  0  2  0  0  0  0  0  0
  161.1130  209.3050  155.6890 C   0  0  0  0  0  2  0  0  0  0  0  0
  161.0120  211.5600  156.4160 C   0  0  0  0  0  2  0  0  0  0  0  0
  1  4  2  0  0  0  0
  2  3  1  6  0  0  0
  2 11  1  0  0  0  0
  2  5  1  0  0  0  0
  4 45  1  0  0  0  0
  5  1  1  0  0  0  0
  6 31  1  6  0  0  0
  6  7  1  0  0  0  0
  6 10  1  0  0  0  0
  7  2  1  0  0  0  0
  8  4  1  0  0  0  0
  9  5  2  0  0  0  0
  9  8  1  0  0  0  0
 10  9  1  0  0  0  0
 12 11  1  0  0  0  0
 12 13  1  0  0  0  0
 13 14  2  0  0  0  0
 15 13  1  0  0  0  0
 16 15  1  0  0  0  0
 16 22  1  0  0  0  0
 18 16  1  0  0  0  0
 19 17  1  1  0  0  0
 19 18  1  0  0  0  0
 19 20  1  0  0  0  0
 20 25  1  1  0  0  0
 20 22  1  0  0  0  0
 22 21  2  0  0  0  0
 25 23  2  0  0  0  0
 25 24  2  0  0  0  0
 27 25  1  0  0  0  0
 28 27  1  0  0  0  0
 28 26  2  0  0  0  0
 29 28  1  0  0  0  0
 30 29  1  0  0  0  0
 32 31  1  0  0  0  0
 33 32  2  0  0  0  0
 35 42  1  0  0  0  0
 35 43  1  0  0  0  0
 36 33  1  1  0  0  0
 37 34  1  0  0  0  0
 37 35  1  0  0  0  0
 38 34  1  6  0  0  0
 38 43  1  0  0  0  0
 38 41  1  0  0  0  0
 40 36  1  0  0  0  0
 40 39  1  1  0  0  0
 41 40  1  0  0  0  0
 43 44  1  1  0  0  0
 44 36  1  0  0  0  0
 45 46  1  0  0  0  0
 46 49  1  0  0  0  0
 47 48  1  0  0  0  0
 48 50  1  6  0  0  0
 49 47  1  0  0  0  0
 49 48  1  0  0  0  0
 50 52  1  0  0  0  0
 51 52  1  0  0  0  0
 52 55  1  0  0  0  0
 54 51  1  0  0  0  0
 54 53  1  0  0  0  0
 55 53  1  0  0  0  0
M  END
>  <MODEL>
8

>  <REMARK>
 VINA RESULT:      -4.2      4.008     10.402
  Name = 
  16 active torsions:
  status: ('A' for Active; 'I' for Inactive)
    1  A    between atoms: C_1  and  C_6
    2  A    between atoms: C_1  and  C_46
    3  A    between atoms: C_9  and  C_22
    4  A    between atoms: C_10  and  C_13
    5  A    between atoms: C_10  and  C_46
    6  A    between atoms: C_11  and  C_32
    7  A    between atoms: C_13  and  N_15
    8  A    between atoms: C_14  and  C_43
    9  A    between atoms: N_17  and  C_30
   10  A    between atoms: C_22  and  C_41
   11  A    between atoms: C_26  and  C_30
   12  A    between atoms: N_28  and  S_54
   13  A    between atoms: C_31  and  C_40
   14  A    between atoms: C_36  and  S_54
   15  A    between atoms: N_39  and  C_40
   16  A    between atoms: C_41  and  N_53
                            x       y       z     vdW  Elec       q    Type
                         _______ _______ _______ _____ _____    ______ ____

>  <TORSDO>
F 16

$$$$
=
 OpenBabel11052410193D

 55 61  0  0  1  0  0  0  0  0999 V2000
  162.8100  213.4130  145.9630 C   0  0  0  0  0  3  0  0  0  0  0  0
  161.6100  212.7140  148.1740 C   0  0  2  0  0  0  0  0  0  0  0  0
  161.9250  213.7790  149.0020 F   0  0  0  0  0  0  0  0  0  0  0  0
  162.2680  213.9530  144.7970 C   0  0  0  0  0  0  0  0  0  0  0  0
  161.7000  213.1770  146.7490 C   0  0  0  0  0  0  0  0  0  0  0  0
  159.0790  213.1930  147.9140 C   0  0  2  0  0  3  0  0  0  0  0  0
  160.1660  212.2430  148.4610 C   0  0  0  0  0  2  0  0  0  0  0  0
  160.9600  214.0440  144.8680 O   0  0  0  0  0  0  0  0  0  0  0  0
  160.6100  213.5960  146.0420 C   0  0  0  0  0  0  0  0  0  0  0  0
  159.3120  213.5350  146.5410 O   0  0  0  0  0  0  0  0  0  0  0  0
  162.5890  211.5600  148.4150 C   0  0  0  0  0  2  0  0  0  0  0  0
  161.9300  210.1830  148.3180 C   0  0  0  0  0  2  0  0  0  0  0  0
  162.2110  209.3520  149.5270 C   0  0  0  0  0  0  0  0  0  0  0  0
  162.8890  208.3410  149.4330 O   0  0  0  0  0  0  0  0  0  0  0  0
  161.6780  209.7720  150.8560 C   0  0  0  0  0  2  0  0  0  0  0  0
  161.3810  208.6100  151.6760 N   0  0  0  0  0  0  0  0  0  0  0  0
  160.4880  207.0910  154.4600 O   0  0  0  0  0  1  0  0  0  0  0  0
  161.8650  208.4280  153.0310 C   0  0  0  0  0  2  0  0  0  0  0  0
  161.4380  207.0110  153.4430 C   0  0  2  0  0  3  0  0  0  0  0  0
  160.8130  206.3360  152.2150 C   0  0  1  0  0  3  0  0  0  0  0  0
  160.2930  207.3030  150.0580 O   0  0  0  0  0  0  0  0  0  0  0  0
  160.7950  207.4160  151.2070 C   0  0  0  0  0  0  0  0  0  0  0  0
  161.4170  203.7210  152.3400 O   0  0  0  0  0  0  0  0  0  0  0  0
  163.2830  205.2840  152.0050 O   0  0  0  0  0  0  0  0  0  0  0  0
  161.8500  204.9900  151.6640 S   0  0  0  0  0  0  0  0  0  0  0  0
  160.8120  202.6520  150.0490 O   0  0  0  0  0  0  0  0  0  0  0  0
  161.6820  204.8170  149.9500 N   0  0  0  0  0  2  0  0  0  0  0  0
  161.1790  203.6280  149.3440 C   0  0  0  0  0  0  0  0  0  0  0  0
  161.0520  203.5560  147.8650 C   0  0  0  0  0  2  0  0  0  0  0  0
  162.0960  204.2660  147.2720 O   0  0  0  0  0  1  0  0  0  0  0  0
  158.9780  214.4520  148.7690 C   0  0  0  0  0  2  0  0  0  0  0  0
  159.0500  214.1180  150.1670 N   0  0  0  0  0  0  0  0  0  0  0  0
  157.9820  213.8860  150.8420 C   0  0  0  0  0  3  0  0  0  0  0  0
  157.5130  211.9130  156.0400 C   0  0  0  0  0  2  0  0  0  0  0  0
  155.5730  213.0280  155.1580 N   0  0  0  0  0  0  0  0  0  0  0  0
  158.0670  213.5610  152.2960 C   0  0  2  0  0  3  0  0  0  0  0  0
  156.0820  212.3470  156.3420 C   0  0  0  0  0  2  0  0  0  0  0  0
  157.8690  212.5790  154.8050 N   0  0  1  0  0  0  0  0  0  0  0  0
  160.1140  212.2970  152.1450 O   0  0  0  0  0  1  0  0  0  0  0  0
  158.7710  212.2030  152.5160 C   0  0  1  0  0  3  0  0  0  0  0  0
  158.6820  211.6940  153.9730 C   0  0  0  0  0  2  0  0  0  0  0  0
  155.5980  214.4530  155.4660 C   0  0  0  0  0  1  0  0  0  0  0  0
  156.5810  212.7060  154.1510 C   0  0  2  0  0  3  0  0  0  0  0  0
  156.6630  213.6280  152.9310 C   0  0  0  0  0  2  0  0  0  0  0  0
  163.0460  214.3800  143.5960 C   0  0  0  0  0  2  0  0  0  0  0  0
  162.4890  213.7830  142.3100 C   0  0  0  0  0  2  0  0  0  0  0  0
  160.2010  213.4520  141.9040 C   0  0  0  0  0  2  0  0  0  0  0  0
  160.7970  212.2280  141.3880 C   0  0  2  0  0  3  0  0  0  0  0  0
  161.3690  212.8830  142.5950 N   0  0  0  0  0  0  0  0  0  0  0  0
  161.5310  212.5130  140.0760 C   0  0  0  0  0  2  0  0  0  0  0  0
  162.0630  210.7580  138.6130 C   0  0  0  0  0  2  0  0  0  0  0  0
  160.9910  211.6660  139.0220 N   0  0  0  0  0  0  0  0  0  0  0  0
  160.1950  209.4080  139.2310 C   0  0  0  0  0  2  0  0  0  0  0  0
  161.6820  209.3490  139.0220 C   0  0  0  0  0  2  0  0  0  0  0  0
  159.9420  210.8450  139.6240 C   0  0  0  0  0  2  0  0  0  0  0  0
  1  5  1  0  0  0  0
  2 11  1  0  0  0  0
  2  7  1  0  0  0  0
  2  3  1  1  0  0  0
  4  8  1  0  0  0  0
  4  1  2  0  0  0  0
  5  2  1  0  0  0  0
  6  7  1  0  0  0  0
  6 31  1  1  0  0  0
  8  9  1  0  0  0  0
  9 10  1  0  0  0  0
  9  5  2  0  0  0  0
 10  6  1  0  0  0  0
 12 11  1  0  0  0  0
 12 13  1  0  0  0  0
 13 15  1  0  0  0  0
 14 13  2  0  0  0  0
 15 16  1  0  0  0  0
 16 18  1  0  0  0  0
 18 19  1  0  0  0  0
 19 17  1  1  0  0  0
 20 25  1  6  0  0  0
 20 19  1  0  0  0  0
 21 22  2  0  0  0  0
 22 16  1  0  0  0  0
 22 20  1  0  0  0  0
 25 24  2  0  0  0  0
 25 23  2  0  0  0  0
 27 25  1  0  0  0  0
 28 27  1  0  0  0  0
 28 26  2  0  0  0  0
 29 28  1  0  0  0  0
 30 29  1  0  0  0  0
 31 32  1  0  0  0  0
 32 33  2  0  0  0  0
 34 37  1  0  0  0  0
 35 42  1  0  0  0  0
 35 37  1  0  0  0  0
 36 33  1  6  0  0  0
 36 40  1  0  0  0  0
 36 44  1  0  0  0  0
 38 41  1  6  0  0  0
 38 34  1  0  0  0  0
 40 39  1  1  0  0  0
 40 41  1  0  0  0  0
 43 44  1  6  0  0  0
 43 38  1  0  0  0  0
 43 35  1  0  0  0  0
 45  4  1  0  0  0  0
 46 49  1  0  0  0  0
 46 45  1  0  0  0  0
 47 49  1  0  0  0  0
 48 50  1  6  0  0  0
 48 47  1  0  0  0  0
 48 49  1  0  0  0  0
 51 54  1  0  0  0  0
 51 52  1  0  0  0  0
 52 55  1  0  0  0  0
 52 50  1  0  0  0  0
 53 55  1  0  0  0  0
 54 53  1  0  0  0  0
M  END
>  <MODEL>
9

>  <REMARK>
 VINA RESULT:      -4.1      3.627      9.211
  Name = 
  16 active torsions:
  status: ('A' for Active; 'I' for Inactive)
    1  A    between atoms: C_1  and  C_6
    2  A    between atoms: C_1  and  C_46
    3  A    between atoms: C_9  and  C_22
    4  A    between atoms: C_10  and  C_13
    5  A    between atoms: C_10  and  C_46
    6  A    between atoms: C_11  and  C_32
    7  A    between atoms: C_13  and  N_15
    8  A    between atoms: C_14  and  C_43
    9  A    between atoms: N_17  and  C_30
   10  A    between atoms: C_22  and  C_41
   11  A    between atoms: C_26  and  C_30
   12  A    between atoms: N_28  and  S_54
   13  A    between atoms: C_31  and  C_40
   14  A    between atoms: C_36  and  S_54
   15  A    between atoms: N_39  and  C_40
   16  A    between atoms: C_41  and  N_53
                            x       y       z     vdW  Elec       q    Type
                         _______ _______ _______ _____ _____    ______ ____

>  <TORSDO>
F 16

$$$$
