=
 OpenBabel11052411193D

 31 35  0  0  1  0  0  0  0  0999 V2000
  161.5740  210.6050  149.1250 C   0  0  1  0  0  3  0  0  0  0  0  0
  161.6390  206.9800  148.9600 N   0  0  0  0  0  0  0  0  0  0  0  0
  160.4270  203.6670  151.4720 N   0  0  0  0  0  1  0  0  0  0  0  0
  162.1130  208.2740  149.3000 C   0  0  2  0  0  3  0  0  0  0  0  0
  161.5270  204.5720  151.7520 C   0  0  1  0  0  3  0  0  0  0  0  0
  161.8520  208.5450  150.5410 C   0  0  2  0  0  3  0  0  0  0  0  0
  161.5590  206.9930  152.5000 C   0  0  2  0  0  3  0  0  0  0  0  0
  161.9830  205.2540  150.4600 C   0  0  0  0  0  2  0  0  0  0  0  0
  161.0490  207.4220  151.1090 C   0  0  2  0  0  3  0  0  0  0  0  0
  162.2360  209.4370  148.3870 C   0  0  0  0  0  2  0  0  0  0  0  0
  161.0710  206.3420  150.0820 N   0  0  1  0  0  0  0  0  0  0  0  0
  161.1040  205.5710  152.8330 C   0  0  0  0  0  2  0  0  0  0  0  0
  161.6720  210.2710  150.9270 S   0  0  0  0  0  0  0  0  0  0  0  0
  160.3400  206.1000  145.5480 C   0  0  0  0  0  3  0  0  0  0  0  0
  161.4220  205.3870  145.0270 C   0  0  0  0  0  0  0  0  0  0  0  0
  162.5710  205.1980  145.7980 C   0  0  0  0  0  3  0  0  0  0  0  0
  160.4060  206.6220  146.8430 C   0  0  0  0  0  3  0  0  0  0  0  0
  161.3570  204.8800  143.7710 F   0  0  0  0  0  0  0  0  0  0  0  0
  161.5540  206.4330  147.6290 C   0  0  0  0  0  0  0  0  0  0  0  0
  162.6360  205.7200  147.0930 C   0  0  0  0  0  3  0  0  0  0  0  0
  162.2040  211.9220  148.7710 C   0  0  0  0  0  0  0  0  0  0  0  0
  161.5350  213.0130  148.9460 N   0  0  0  0  0  1  0  0  0  0  0  0
  163.3590  211.9550  147.9360 N   0  0  0  0  0  2  0  0  0  0  0  0
  161.1830  207.9450  153.5480 N   0  0  0  0  0  2  0  0  0  0  0  0
  161.1640  207.2940  154.8560 C   0  0  0  0  0  2  0  0  0  0  0  0
  160.0060  207.8270  155.6820 C   0  0  0  0  0  2  0  0  0  0  0  0
  160.4480  210.0410  156.3000 C   0  0  0  0  0  2  0  0  0  0  0  0
  161.9190  208.3800  156.9020 C   0  0  0  0  0  2  0  0  0  0  0  0
  160.5020  208.6670  156.7610 N   0  0  0  0  0  0  0  0  0  0  0  0
  161.7750  210.6730  156.6460 C   0  0  0  0  0  2  0  0  0  0  0  0
  162.6280  209.6220  157.1710 N   0  0  0  0  0  2  0  0  0  0  0  0
  1 21  1  1  0  0  0
  1 13  1  0  0  0  0
  2  4  1  0  0  0  0
  2 11  1  0  0  0  0
  4 10  1  6  0  0  0
  4  6  1  0  0  0  0
  5  3  1  6  0  0  0
  5 12  1  0  0  0  0
  6 13  1  6  0  0  0
  6  9  1  0  0  0  0
  7 12  1  0  0  0  0
  7 24  1  1  0  0  0
  8  5  1  0  0  0  0
  9  7  1  0  0  0  0
 10  1  1  0  0  0  0
 11  8  1  0  0  0  0
 11  9  1  0  0  0  0
 14 17  1  0  0  0  0
 15 14  2  0  0  0  0
 15 16  1  0  0  0  0
 16 20  2  0  0  0  0
 17 19  2  0  0  0  0
 18 15  1  0  0  0  0
 19  2  1  0  0  0  0
 20 19  1  0  0  0  0
 21 22  1  0  0  0  0
 23 21  2  0  0  0  0
 24 25  1  0  0  0  0
 25 26  1  0  0  0  0
 26 29  1  0  0  0  0
 27 30  1  0  0  0  0
 27 29  1  0  0  0  0
 28 31  1  0  0  0  0
 29 28  1  0  0  0  0
 30 31  1  0  0  0  0
M  END
>  <MODEL>
1

>  <REMARK>
 VINA RESULT:      -7.7      0.000      0.000
  Name = 
  6 active torsions:
  status: ('A' for Active; 'I' for Inactive)
    1  A    between atoms: C_1  and  C_3
    2  A    between atoms: N_4  and  C_16
    3  A    between atoms: N_4  and  C_28
    4  A    between atoms: N_6  and  C_24
    5  A    between atoms: C_11  and  N_14
    6  A    between atoms: C_11  and  C_28
                            x       y       z     vdW  Elec       q    Type
                         _______ _______ _______ _____ _____    ______ ____

>  <TORSDO>
F 6

$$$$
=
 OpenBabel11052411193D

 31 35  0  0  1  0  0  0  0  0999 V2000
  161.6190  210.5660  149.1420 C   0  0  1  0  0  3  0  0  0  0  0  0
  161.6690  206.9420  148.9300 N   0  0  0  0  0  0  0  0  0  0  0  0
  160.4700  203.6020  151.4130 N   0  0  0  0  0  1  0  0  0  0  0  0
  162.1510  208.2310  149.2820 C   0  0  2  0  0  3  0  0  0  0  0  0
  161.5760  204.5000  151.6930 C   0  0  1  0  0  3  0  0  0  0  0  0
  161.9040  208.4870  150.5290 C   0  0  2  0  0  3  0  0  0  0  0  0
  161.6240  206.9110  152.4710 C   0  0  2  0  0  3  0  0  0  0  0  0
  162.0220  205.1970  150.4060 C   0  0  0  0  0  2  0  0  0  0  0  0
  161.1020  207.3590  151.0910 C   0  0  2  0  0  3  0  0  0  0  0  0
  162.2690  209.4050  148.3830 C   0  0  0  0  0  2  0  0  0  0  0  0
  161.1100  206.2930  150.0500 N   0  0  1  0  0  0  0  0  0  0  0  0
  161.1680  205.4870  152.7900 C   0  0  0  0  0  2  0  0  0  0  0  0
  161.7330  210.2090  150.9380 S   0  0  0  0  0  0  0  0  0  0  0  0
  162.5090  205.1540  145.7370 C   0  0  0  0  0  3  0  0  0  0  0  0
  161.3400  205.3610  145.0000 C   0  0  0  0  0  0  0  0  0  0  0  0
  160.2840  206.0870  145.5560 C   0  0  0  0  0  3  0  0  0  0  0  0
  162.6210  205.6760  147.0290 C   0  0  0  0  0  3  0  0  0  0  0  0
  161.2300  204.8550  143.7480 F   0  0  0  0  0  0  0  0  0  0  0  0
  161.5690  206.4130  147.5940 C   0  0  0  0  0  0  0  0  0  0  0  0
  160.3970  206.6090  146.8470 C   0  0  0  0  0  3  0  0  0  0  0  0
  162.2500  211.8850  148.7980 C   0  0  0  0  0  0  0  0  0  0  0  0
  161.5660  212.9720  148.9400 N   0  0  0  0  0  1  0  0  0  0  0  0
  163.4340  211.9210  148.0040 N   0  0  0  0  0  2  0  0  0  0  0  0
  161.2630  207.8520  153.5350 N   0  0  0  0  0  2  0  0  0  0  0  0
  160.8100  207.1370  154.7260 C   0  0  0  0  0  2  0  0  0  0  0  0
  161.1340  207.9460  155.9690 C   0  0  0  0  0  2  0  0  0  0  0  0
  162.3030  209.9310  156.3860 C   0  0  0  0  0  2  0  0  0  0  0  0
  160.0100  209.9780  156.2260 C   0  0  0  0  0  2  0  0  0  0  0  0
  161.1920  209.3640  155.6460 N   0  0  0  0  0  0  0  0  0  0  0  0
  161.8000  211.2010  157.0290 C   0  0  0  0  0  2  0  0  0  0  0  0
  160.3730  211.2770  156.7730 N   0  0  0  0  0  2  0  0  0  0  0  0
  1 21  1  1  0  0  0
  1 13  1  0  0  0  0
  2  4  1  0  0  0  0
  2 11  1  0  0  0  0
  4 10  1  6  0  0  0
  4  6  1  0  0  0  0
  5  3  1  6  0  0  0
  5 12  1  0  0  0  0
  6 13  1  6  0  0  0
  6  9  1  0  0  0  0
  7 12  1  0  0  0  0
  7 24  1  1  0  0  0
  8  5  1  0  0  0  0
  9  7  1  0  0  0  0
 10  1  1  0  0  0  0
 11  8  1  0  0  0  0
 11  9  1  0  0  0  0
 14 17  1  0  0  0  0
 15 16  1  0  0  0  0
 15 14  2  0  0  0  0
 16 20  2  0  0  0  0
 17 19  2  0  0  0  0
 18 15  1  0  0  0  0
 19  2  1  0  0  0  0
 20 19  1  0  0  0  0
 21 22  1  0  0  0  0
 23 21  2  0  0  0  0
 24 25  1  0  0  0  0
 25 26  1  0  0  0  0
 27 30  1  0  0  0  0
 28 31  1  0  0  0  0
 29 26  1  0  0  0  0
 29 28  1  0  0  0  0
 29 27  1  0  0  0  0
 31 30  1  0  0  0  0
M  END
>  <MODEL>
2

>  <REMARK>
 VINA RESULT:      -7.6      0.629      1.216
  Name = 
  6 active torsions:
  status: ('A' for Active; 'I' for Inactive)
    1  A    between atoms: C_1  and  C_3
    2  A    between atoms: N_4  and  C_16
    3  A    between atoms: N_4  and  C_28
    4  A    between atoms: N_6  and  C_24
    5  A    between atoms: C_11  and  N_14
    6  A    between atoms: C_11  and  C_28
                            x       y       z     vdW  Elec       q    Type
                         _______ _______ _______ _____ _____    ______ ____

>  <TORSDO>
F 6

$$$$
=
 OpenBabel11052411193D

 31 35  0  0  1  0  0  0  0  0999 V2000
  161.6040  204.2090  151.0100 C   0  0  1  0  0  3  0  0  0  0  0  0
  161.5370  206.8630  148.5350 N   0  0  0  0  0  0  0  0  0  0  0  0
  162.9130  210.9590  148.2360 N   0  0  0  0  0  1  0  0  0  0  0  0
  161.0830  206.1190  149.6560 C   0  0  2  0  0  3  0  0  0  0  0  0
  161.8310  210.4990  149.0880 C   0  0  1  0  0  3  0  0  0  0  0  0
  161.4200  206.7050  150.7610 C   0  0  2  0  0  3  0  0  0  0  0  0
  161.8410  209.1420  151.2280 C   0  0  2  0  0  3  0  0  0  0  0  0
  161.2920  209.1630  148.5710 C   0  0  0  0  0  2  0  0  0  0  0  0
  162.2610  207.8940  150.4270 C   0  0  2  0  0  3  0  0  0  0  0  0
  160.8990  204.6480  149.7230 C   0  0  0  0  0  2  0  0  0  0  0  0
  162.1760  208.0500  148.9470 N   0  0  1  0  0  0  0  0  0  0  0  0
  162.3190  210.4200  150.5370 C   0  0  0  0  0  2  0  0  0  0  0  0
  161.6210  205.6340  152.1660 S   0  0  0  0  0  0  0  0  0  0  0  0
  162.6790  205.4110  145.2660 C   0  0  0  0  0  3  0  0  0  0  0  0
  161.5120  205.5150  144.5060 C   0  0  0  0  0  0  0  0  0  0  0  0
  160.3570  206.0610  145.0700 C   0  0  0  0  0  3  0  0  0  0  0  0
  162.6920  205.8570  146.5900 C   0  0  0  0  0  3  0  0  0  0  0  0
  161.4990  205.0820  143.2220 F   0  0  0  0  0  0  0  0  0  0  0  0
  161.5390  206.4140  147.1660 C   0  0  0  0  0  0  0  0  0  0  0  0
  160.3710  206.5070  146.3950 C   0  0  0  0  0  3  0  0  0  0  0  0
  160.9500  203.0050  151.6260 C   0  0  0  0  0  0  0  0  0  0  0  0
  160.5160  203.0690  152.8400 N   0  0  0  0  0  1  0  0  0  0  0  0
  161.1200  201.7210  151.0280 N   0  0  0  0  0  2  0  0  0  0  0  0
  162.2790  209.0800  152.6250 N   0  0  0  0  0  2  0  0  0  0  0  0
  161.1630  209.3450  153.5290 C   0  0  0  0  0  2  0  0  0  0  0  0
  161.2590  210.7610  154.0690 C   0  0  0  0  0  2  0  0  0  0  0  0
  162.5550  210.4470  155.9930 C   0  0  0  0  0  2  0  0  0  0  0  0
  160.4200  209.6000  155.9140 C   0  0  0  0  0  2  0  0  0  0  0  0
  161.2170  210.7500  155.5230 N   0  0  0  0  0  0  0  0  0  0  0  0
  162.4190  209.3840  157.0560 C   0  0  0  0  0  2  0  0  0  0  0  0
  161.0240  208.9830  157.0850 N   0  0  0  0  0  2  0  0  0  0  0  0
  1 21  1  1  0  0  0
  1 13  1  0  0  0  0
  2 11  1  0  0  0  0
  2  4  1  0  0  0  0
  4 10  1  1  0  0  0
  4  6  1  0  0  0  0
  5  3  1  6  0  0  0
  5 12  1  0  0  0  0
  6 13  1  1  0  0  0
  7 24  1  1  0  0  0
  8 11  1  0  0  0  0
  8  5  1  0  0  0  0
  9  6  1  0  0  0  0
  9  7  1  0  0  0  0
 10  1  1  0  0  0  0
 11  9  1  0  0  0  0
 12  7  1  0  0  0  0
 14 17  1  0  0  0  0
 15 16  1  0  0  0  0
 15 14  2  0  0  0  0
 16 20  2  0  0  0  0
 17 19  2  0  0  0  0
 18 15  1  0  0  0  0
 19  2  1  0  0  0  0
 20 19  1  0  0  0  0
 21 22  1  0  0  0  0
 23 21  2  0  0  0  0
 24 25  1  0  0  0  0
 25 26  1  0  0  0  0
 26 29  1  0  0  0  0
 27 30  1  0  0  0  0
 28 31  1  0  0  0  0
 29 28  1  0  0  0  0
 29 27  1  0  0  0  0
 30 31  1  0  0  0  0
M  END
>  <MODEL>
3

>  <REMARK>
 VINA RESULT:      -6.7      1.545      4.653
  Name = 
  6 active torsions:
  status: ('A' for Active; 'I' for Inactive)
    1  A    between atoms: C_1  and  C_3
    2  A    between atoms: N_4  and  C_16
    3  A    between atoms: N_4  and  C_28
    4  A    between atoms: N_6  and  C_24
    5  A    between atoms: C_11  and  N_14
    6  A    between atoms: C_11  and  C_28
                            x       y       z     vdW  Elec       q    Type
                         _______ _______ _______ _____ _____    ______ ____

>  <TORSDO>
F 6

$$$$
=
 OpenBabel11052411193D

 31 35  0  0  1  0  0  0  0  0999 V2000
  161.5870  204.1820  150.9990 C   0  0  1  0  0  3  0  0  0  0  0  0
  161.5320  206.8440  148.5330 N   0  0  0  0  0  0  0  0  0  0  0  0
  162.9090  210.9410  148.2550 N   0  0  0  0  0  1  0  0  0  0  0  0
  161.0720  206.0960  149.6490 C   0  0  2  0  0  3  0  0  0  0  0  0
  161.8230  210.4780  149.1000 C   0  0  1  0  0  3  0  0  0  0  0  0
  161.4040  206.6790  150.7580 C   0  0  2  0  0  3  0  0  0  0  0  0
  161.8220  209.1140  151.2350 C   0  0  2  0  0  3  0  0  0  0  0  0
  161.2860  209.1440  148.5750 C   0  0  0  0  0  2  0  0  0  0  0  0
  162.2460  207.8690  150.4320 C   0  0  2  0  0  3  0  0  0  0  0  0
  160.8890  204.6250  149.7100 C   0  0  0  0  0  2  0  0  0  0  0  0
  162.1690  208.0300  148.9520 N   0  0  1  0  0  0  0  0  0  0  0  0
  162.3030  210.3940  150.5510 C   0  0  0  0  0  2  0  0  0  0  0  0
  161.5980  205.6030  152.1610 S   0  0  0  0  0  0  0  0  0  0  0  0
  162.6840  205.3810  145.2720 C   0  0  0  0  0  3  0  0  0  0  0  0
  161.5270  205.5100  144.4990 C   0  0  0  0  0  0  0  0  0  0  0  0
  160.3770  206.0770  145.0520 C   0  0  0  0  0  3  0  0  0  0  0  0
  162.6900  205.8230  146.5980 C   0  0  0  0  0  3  0  0  0  0  0  0
  161.5210  205.0820  143.2130 F   0  0  0  0  0  0  0  0  0  0  0  0
  161.5410  206.4000  147.1620 C   0  0  0  0  0  0  0  0  0  0  0  0
  160.3840  206.5180  146.3790 C   0  0  0  0  0  3  0  0  0  0  0  0
  160.9310  202.9750  151.6080 C   0  0  0  0  0  0  0  0  0  0  0  0
  160.4700  203.0430  152.8120 N   0  0  0  0  0  1  0  0  0  0  0  0
  161.1240  201.6900  151.0200 N   0  0  0  0  0  2  0  0  0  0  0  0
  162.2540  209.0480  152.6340 N   0  0  0  0  0  2  0  0  0  0  0  0
  161.1660  209.4340  153.5300 C   0  0  0  0  0  2  0  0  0  0  0  0
  161.5150  210.7340  154.2350 C   0  0  0  0  0  2  0  0  0  0  0  0
  159.8960  212.0450  155.3030 C   0  0  0  0  0  2  0  0  0  0  0  0
  159.4040  211.0550  153.2880 C   0  0  0  0  0  2  0  0  0  0  0  0
  160.4720  211.7230  154.0120 N   0  0  0  0  0  0  0  0  0  0  0  0
  158.3950  212.0060  155.1380 C   0  0  0  0  0  2  0  0  0  0  0  0
  158.1240  211.5230  153.7960 N   0  0  0  0  0  2  0  0  0  0  0  0
  1 21  1  1  0  0  0
  1 13  1  0  0  0  0
  2 11  1  0  0  0  0
  2  4  1  0  0  0  0
  4 10  1  1  0  0  0
  4  6  1  0  0  0  0
  5  3  1  6  0  0  0
  5 12  1  0  0  0  0
  6 13  1  1  0  0  0
  7 24  1  1  0  0  0
  8 11  1  0  0  0  0
  8  5  1  0  0  0  0
  9  6  1  0  0  0  0
  9  7  1  0  0  0  0
 10  1  1  0  0  0  0
 11  9  1  0  0  0  0
 12  7  1  0  0  0  0
 14 17  1  0  0  0  0
 15 16  1  0  0  0  0
 15 14  2  0  0  0  0
 16 20  2  0  0  0  0
 17 19  2  0  0  0  0
 18 15  1  0  0  0  0
 19  2  1  0  0  0  0
 20 19  1  0  0  0  0
 21 22  1  0  0  0  0
 23 21  2  0  0  0  0
 24 25  1  0  0  0  0
 25 26  1  0  0  0  0
 28 31  1  0  0  0  0
 28 29  1  0  0  0  0
 29 26  1  0  0  0  0
 29 27  1  0  0  0  0
 30 27  1  0  0  0  0
 31 30  1  0  0  0  0
M  END
>  <MODEL>
4

>  <REMARK>
 VINA RESULT:      -6.6      2.078      4.922
  Name = 
  6 active torsions:
  status: ('A' for Active; 'I' for Inactive)
    1  A    between atoms: C_1  and  C_3
    2  A    between atoms: N_4  and  C_16
    3  A    between atoms: N_4  and  C_28
    4  A    between atoms: N_6  and  C_24
    5  A    between atoms: C_11  and  N_14
    6  A    between atoms: C_11  and  C_28
                            x       y       z     vdW  Elec       q    Type
                         _______ _______ _______ _____ _____    ______ ____

>  <TORSDO>
F 6

$$$$
=
 OpenBabel11052411193D

 31 35  0  0  1  0  0  0  0  0999 V2000
  160.5640  203.9280  150.9850 C   0  0  1  0  0  3  0  0  0  0  0  0
  161.3030  207.3590  151.9130 N   0  0  0  0  0  0  0  0  0  0  0  0
  161.3770  211.2270  149.9670 N   0  0  0  0  0  1  0  0  0  0  0  0
  161.5770  206.0620  151.4050 C   0  0  2  0  0  3  0  0  0  0  0  0
  162.3110  210.1450  149.7160 C   0  0  1  0  0  3  0  0  0  0  0  0
  161.5600  206.0660  150.1090 C   0  0  2  0  0  3  0  0  0  0  0  0
  162.0350  207.9400  148.4980 C   0  0  2  0  0  3  0  0  0  0  0  0
  162.3160  209.1730  150.8990 C   0  0  0  0  0  2  0  0  0  0  0  0
  161.1460  207.4240  149.6470 C   0  0  2  0  0  3  0  0  0  0  0  0
  161.2560  204.7700  152.0610 C   0  0  0  0  0  2  0  0  0  0  0  0
  161.1450  208.2860  150.8630 N   0  0  1  0  0  0  0  0  0  0  0  0
  161.9590  209.4630  148.3910 C   0  0  0  0  0  2  0  0  0  0  0  0
  161.1360  204.5180  149.3430 S   0  0  0  0  0  0  0  0  0  0  0  0
  160.6360  209.3310  155.0380 C   0  0  0  0  0  3  0  0  0  0  0  0
  160.4490  208.3040  155.9670 C   0  0  0  0  0  0  0  0  0  0  0  0
  160.5440  206.9700  155.5620 C   0  0  0  0  0  3  0  0  0  0  0  0
  160.9210  209.0230  153.7050 C   0  0  0  0  0  3  0  0  0  0  0  0
  160.1730  208.6020  157.2600 F   0  0  0  0  0  0  0  0  0  0  0  0
  161.0250  207.6870  153.2880 C   0  0  0  0  0  0  0  0  0  0  0  0
  160.8290  206.6640  154.2280 C   0  0  0  0  0  3  0  0  0  0  0  0
  160.8230  202.4600  151.1670 C   0  0  0  0  0  0  0  0  0  0  0  0
  161.7510  202.0750  151.9790 N   0  0  0  0  0  1  0  0  0  0  0  0
  160.3160  201.5260  150.2160 N   0  0  0  0  0  2  0  0  0  0  0  0
  161.7300  207.2870  147.2220 N   0  0  0  0  0  2  0  0  0  0  0  0
  162.7180  206.2530  146.9210 C   0  0  0  0  0  2  0  0  0  0  0  0
  162.3470  205.5440  145.6300 C   0  0  0  0  0  2  0  0  0  0  0  0
  161.5800  203.3880  146.1250 C   0  0  0  0  0  2  0  0  0  0  0  0
  160.4950  204.6390  144.5310 C   0  0  0  0  0  2  0  0  0  0  0  0
  161.1500  204.7390  145.8240 N   0  0  0  0  0  0  0  0  0  0  0  0
  160.7570  202.4610  145.2620 C   0  0  0  0  0  2  0  0  0  0  0  0
  159.9670  203.2930  144.3730 N   0  0  0  0  0  2  0  0  0  0  0  0
  1 21  1  1  0  0  0
  1 10  1  0  0  0  0
  2 19  1  0  0  0  0
  4  2  1  0  0  0  0
  4 10  1  1  0  0  0
  5  3  1  1  0  0  0
  5  8  1  0  0  0  0
  6 13  1  1  0  0  0
  6  4  1  0  0  0  0
  7 24  1  6  0  0  0
  7  9  1  0  0  0  0
  9  6  1  0  0  0  0
  9 11  1  0  0  0  0
 11  8  1  0  0  0  0
 11  2  1  0  0  0  0
 12  7  1  0  0  0  0
 12  5  1  0  0  0  0
 13  1  1  0  0  0  0
 14 15  1  0  0  0  0
 15 18  1  0  0  0  0
 16 15  2  0  0  0  0
 17 14  2  0  0  0  0
 19 17  1  0  0  0  0
 19 20  2  0  0  0  0
 20 16  1  0  0  0  0
 21 22  1  0  0  0  0
 23 21  2  0  0  0  0
 25 24  1  0  0  0  0
 26 29  1  0  0  0  0
 26 25  1  0  0  0  0
 28 29  1  0  0  0  0
 29 27  1  0  0  0  0
 30 27  1  0  0  0  0
 31 28  1  0  0  0  0
 31 30  1  0  0  0  0
M  END
>  <MODEL>
5

>  <REMARK>
 VINA RESULT:      -6.5      3.402      8.835
  Name = 
  6 active torsions:
  status: ('A' for Active; 'I' for Inactive)
    1  A    between atoms: C_1  and  C_3
    2  A    between atoms: N_4  and  C_16
    3  A    between atoms: N_4  and  C_28
    4  A    between atoms: N_6  and  C_24
    5  A    between atoms: C_11  and  N_14
    6  A    between atoms: C_11  and  C_28
                            x       y       z     vdW  Elec       q    Type
                         _______ _______ _______ _____ _____    ______ ____

>  <TORSDO>
F 6

$$$$
=
 OpenBabel11052411193D

 31 35  0  0  1  0  0  0  0  0999 V2000
  160.7980  210.1440  152.8810 C   0  0  1  0  0  3  0  0  0  0  0  0
  161.8810  209.6820  149.4480 N   0  0  0  0  0  0  0  0  0  0  0  0
  161.6650  206.5700  146.4440 N   0  0  0  0  0  1  0  0  0  0  0  0
  161.9730  209.5980  150.8620 C   0  0  2  0  0  3  0  0  0  0  0  0
  162.4670  206.5130  147.6530 C   0  0  1  0  0  3  0  0  0  0  0  0
  161.6530  208.4100  151.2710 C   0  0  2  0  0  3  0  0  0  0  0  0
  161.8190  206.1990  150.0820 C   0  0  2  0  0  3  0  0  0  0  0  0
  162.7060  207.9270  148.1870 C   0  0  0  0  0  2  0  0  0  0  0  0
  161.2020  207.6120  150.0930 C   0  0  2  0  0  3  0  0  0  0  0  0
  161.7580  210.7040  151.8280 C   0  0  0  0  0  2  0  0  0  0  0  0
  161.5220  208.4360  148.8940 N   0  0  1  0  0  0  0  0  0  0  0  0
  161.7860  205.6000  148.6760 C   0  0  0  0  0  2  0  0  0  0  0  0
  160.9960  208.3190  152.9210 S   0  0  0  0  0  0  0  0  0  0  0  0
  160.9010  212.5260  147.2000 C   0  0  0  0  0  3  0  0  0  0  0  0
  162.0850  213.2660  147.1750 C   0  0  0  0  0  0  0  0  0  0  0  0
  163.1990  212.8280  147.8960 C   0  0  0  0  0  3  0  0  0  0  0  0
  160.8320  211.3440  147.9430 C   0  0  0  0  0  3  0  0  0  0  0  0
  162.1530  214.4120  146.4550 F   0  0  0  0  0  0  0  0  0  0  0  0
  161.9460  210.8910  148.6660 C   0  0  0  0  0  0  0  0  0  0  0  0
  163.1280  211.6460  148.6390 C   0  0  0  0  0  3  0  0  0  0  0  0
  161.0290  210.7550  154.2340 C   0  0  0  0  0  0  0  0  0  0  0  0
  160.4850  211.8920  154.5180 N   0  0  0  0  0  2  0  0  0  0  0  0
  162.0980  210.2850  155.0520 N   0  0  0  0  0  1  0  0  0  0  0  0
  161.1960  205.3120  151.0680 N   0  0  0  0  0  2  0  0  0  0  0  0
  160.3540  204.3160  150.4100 C   0  0  0  0  0  2  0  0  0  0  0  0
  160.8120  202.9190  150.7900 C   0  0  0  0  0  2  0  0  0  0  0  0
  161.2710  200.8570  149.7810 C   0  0  0  0  0  2  0  0  0  0  0  0
  160.4030  202.5690  148.5170 C   0  0  0  0  0  2  0  0  0  0  0  0
  160.3160  201.9470  149.8270 N   0  0  0  0  0  0  0  0  0  0  0  0
  161.5300  200.5600  148.3240 C   0  0  0  0  0  2  0  0  0  0  0  0
  160.8370  201.5730  147.5490 N   0  0  0  0  0  2  0  0  0  0  0  0
  1 13  1  0  0  0  0
  1 21  1  1  0  0  0
  2  4  1  0  0  0  0
  4  6  1  0  0  0  0
  4 10  1  1  0  0  0
  5  3  1  6  0  0  0
  5  8  1  0  0  0  0
  5 12  1  0  0  0  0
  6 13  1  1  0  0  0
  7  9  1  0  0  0  0
  7 24  1  1  0  0  0
  8 11  1  0  0  0  0
  9  6  1  0  0  0  0
 10  1  1  0  0  0  0
 11  2  1  0  0  0  0
 11  9  1  0  0  0  0
 12  7  1  0  0  0  0
 14 17  1  0  0  0  0
 15 14  2  0  0  0  0
 15 16  1  0  0  0  0
 16 20  2  0  0  0  0
 17 19  2  0  0  0  0
 18 15  1  0  0  0  0
 19  2  1  0  0  0  0
 20 19  1  0  0  0  0
 21 22  2  0  0  0  0
 21 23  1  0  0  0  0
 25 26  1  0  0  0  0
 25 24  1  0  0  0  0
 27 29  1  0  0  0  0
 28 29  1  0  0  0  0
 29 26  1  0  0  0  0
 30 27  1  0  0  0  0
 31 30  1  0  0  0  0
 31 28  1  0  0  0  0
M  END
>  <MODEL>
6

>  <REMARK>
 VINA RESULT:      -6.4      3.012      6.665
  Name = 
  6 active torsions:
  status: ('A' for Active; 'I' for Inactive)
    1  A    between atoms: C_1  and  C_3
    2  A    between atoms: N_4  and  C_16
    3  A    between atoms: N_4  and  C_28
    4  A    between atoms: N_6  and  C_24
    5  A    between atoms: C_11  and  N_14
    6  A    between atoms: C_11  and  C_28
                            x       y       z     vdW  Elec       q    Type
                         _______ _______ _______ _____ _____    ______ ____

>  <TORSDO>
F 6

$$$$
=
 OpenBabel11052411193D

 31 35  0  0  1  0  0  0  0  0999 V2000
  161.5010  211.1980  148.7240 C   0  0  1  0  0  3  0  0  0  0  0  0
  161.6670  207.9040  150.2410 N   0  0  0  0  0  0  0  0  0  0  0  0
  160.5070  206.0760  153.9910 N   0  0  0  0  0  1  0  0  0  0  0  0
  162.1000  209.2240  149.9500 C   0  0  2  0  0  3  0  0  0  0  0  0
  161.5770  207.0420  153.8260 C   0  0  1  0  0  3  0  0  0  0  0  0
  161.8140  210.0250  150.9280 C   0  0  2  0  0  3  0  0  0  0  0  0
  161.5320  209.5360  153.3800 C   0  0  2  0  0  3  0  0  0  0  0  0
  162.0350  207.0700  152.3660 C   0  0  0  0  0  2  0  0  0  0  0  0
  161.0320  209.2640  151.9470 C   0  0  2  0  0  3  0  0  0  0  0  0
  162.2060  209.8430  148.6050 C   0  0  0  0  0  2  0  0  0  0  0  0
  161.1000  207.8350  151.5290 N   0  0  1  0  0  0  0  0  0  0  0  0
  161.1110  208.4120  154.3280 C   0  0  0  0  0  2  0  0  0  0  0  0
  161.5810  211.7300  150.4790 S   0  0  0  0  0  0  0  0  0  0  0  0
  162.2790  205.7790  147.2060 C   0  0  0  0  0  3  0  0  0  0  0  0
  161.5320  204.6410  147.5230 C   0  0  0  0  0  0  0  0  0  0  0  0
  160.8320  204.5790  148.7290 C   0  0  0  0  0  3  0  0  0  0  0  0
  162.3220  206.8550  148.0970 C   0  0  0  0  0  3  0  0  0  0  0  0
  161.4910  203.5970  146.6600 F   0  0  0  0  0  0  0  0  0  0  0  0
  161.6170  206.8060  149.3090 C   0  0  0  0  0  0  0  0  0  0  0  0
  160.8760  205.6560  149.6190 C   0  0  0  0  0  3  0  0  0  0  0  0
  162.1000  212.2250  147.8060 C   0  0  0  0  0  0  0  0  0  0  0  0
  161.4470  212.5970  146.7560 N   0  0  0  0  0  2  0  0  0  0  0  0
  163.4930  212.5220  147.8850 N   0  0  0  0  0  1  0  0  0  0  0  0
  161.1150  210.8510  153.8750 N   0  0  0  0  0  2  0  0  0  0  0  0
  159.6770  210.8760  154.1270 C   0  0  0  0  0  2  0  0  0  0  0  0
  159.1850  212.3130  154.1710 C   0  0  0  0  0  2  0  0  0  0  0  0
  157.5490  211.0770  155.3000 C   0  0  0  0  0  2  0  0  0  0  0  0
  156.9690  213.0470  154.2680 C   0  0  0  0  0  2  0  0  0  0  0  0
  158.0260  212.4220  155.0440 N   0  0  0  0  0  0  0  0  0  0  0  0
  156.0520  211.0960  155.1020 C   0  0  0  0  0  2  0  0  0  0  0  0
  155.7030  212.4110  154.5960 N   0  0  0  0  0  2  0  0  0  0  0  0
  1 21  1  6  0  0  0
  1 13  1  0  0  0  0
  2 11  1  0  0  0  0
  4 10  1  6  0  0  0
  4  2  1  0  0  0  0
  4  6  1  0  0  0  0
  5  3  1  6  0  0  0
  5 12  1  0  0  0  0
  6 13  1  6  0  0  0
  6  9  1  0  0  0  0
  7 24  1  1  0  0  0
  7 12  1  0  0  0  0
  8  5  1  0  0  0  0
  9  7  1  0  0  0  0
 10  1  1  0  0  0  0
 11  9  1  0  0  0  0
 11  8  1  0  0  0  0
 14 15  2  0  0  0  0
 14 17  1  0  0  0  0
 15 16  1  0  0  0  0
 16 20  2  0  0  0  0
 17 19  2  0  0  0  0
 18 15  1  0  0  0  0
 19 20  1  0  0  0  0
 19  2  1  0  0  0  0
 21 23  1  0  0  0  0
 22 21  2  0  0  0  0
 24 25  1  0  0  0  0
 25 26  1  0  0  0  0
 26 29  1  0  0  0  0
 28 31  1  0  0  0  0
 28 29  1  0  0  0  0
 29 27  1  0  0  0  0
 30 27  1  0  0  0  0
 31 30  1  0  0  0  0
M  END
>  <MODEL>
7

>  <REMARK>
 VINA RESULT:      -6.3      2.592      3.389
  Name = 
  6 active torsions:
  status: ('A' for Active; 'I' for Inactive)
    1  A    between atoms: C_1  and  C_3
    2  A    between atoms: N_4  and  C_16
    3  A    between atoms: N_4  and  C_28
    4  A    between atoms: N_6  and  C_24
    5  A    between atoms: C_11  and  N_14
    6  A    between atoms: C_11  and  C_28
                            x       y       z     vdW  Elec       q    Type
                         _______ _______ _______ _____ _____    ______ ____

>  <TORSDO>
F 6

$$$$
=
 OpenBabel11052411193D

 31 35  0  0  1  0  0  0  0  0999 V2000
  161.5300  207.2620  154.2750 C   0  0  1  0  0  3  0  0  0  0  0  0
  161.1800  205.8940  150.9320 N   0  0  0  0  0  0  0  0  0  0  0  0
  162.3630  206.9930  146.9130 N   0  0  0  0  0  1  0  0  0  0  0  0
  160.8370  206.7000  152.0490 C   0  0  2  0  0  3  0  0  0  0  0  0
  161.3640  207.6810  147.7100 C   0  0  1  0  0  3  0  0  0  0  0  0
  161.2280  207.9230  151.8670 C   0  0  2  0  0  3  0  0  0  0  0  0
  161.5810  209.1990  149.7270 C   0  0  2  0  0  3  0  0  0  0  0  0
  160.8450  206.7530  148.8110 C   0  0  0  0  0  2  0  0  0  0  0  0
  161.9930  207.9870  150.5860 C   0  0  2  0  0  3  0  0  0  0  0  0
  160.7190  206.2530  153.4580 C   0  0  0  0  0  2  0  0  0  0  0  0
  161.7980  206.6650  149.9270 N   0  0  1  0  0  0  0  0  0  0  0  0
  161.9560  208.9810  148.2610 C   0  0  0  0  0  2  0  0  0  0  0  0
  161.5710  208.8460  153.3480 S   0  0  0  0  0  0  0  0  0  0  0  0
  161.1870  202.2820  151.9580 C   0  0  0  0  0  3  0  0  0  0  0  0
  160.9170  201.6570  150.7380 C   0  0  0  0  0  0  0  0  0  0  0  0
  160.7350  202.4260  149.5850 C   0  0  0  0  0  3  0  0  0  0  0  0
  161.2790  203.6750  152.0240 C   0  0  0  0  0  3  0  0  0  0  0  0
  160.8290  200.3070  150.6730 F   0  0  0  0  0  0  0  0  0  0  0  0
  161.1030  204.4560  150.8710 C   0  0  0  0  0  0  0  0  0  0  0  0
  160.8260  203.8190  149.6530 C   0  0  0  0  0  3  0  0  0  0  0  0
  160.9720  207.4450  155.6580 C   0  0  0  0  0  0  0  0  0  0  0  0
  159.7000  207.3280  155.8490 N   0  0  0  0  0  2  0  0  0  0  0  0
  161.7590  208.0790  156.6640 N   0  0  0  0  0  1  0  0  0  0  0  0
  162.1190  210.4590  150.2470 N   0  0  0  0  0  2  0  0  0  0  0  0
  162.3230  211.4200  149.1650 C   0  0  0  0  0  2  0  0  0  0  0  0
  161.2430  212.4870  149.2120 C   0  0  0  0  0  2  0  0  0  0  0  0
  160.4060  213.1390  147.1250 C   0  0  0  0  0  2  0  0  0  0  0  0
  162.6780  213.0970  147.4730 C   0  0  0  0  0  2  0  0  0  0  0  0
  161.4200  213.4310  148.1190 N   0  0  0  0  0  0  0  0  0  0  0  0
  161.0990  213.1120  145.7840 C   0  0  0  0  0  2  0  0  0  0  0  0
  162.5230  213.2450  146.0340 N   0  0  0  0  0  2  0  0  0  0  0  0
  1 21  1  1  0  0  0
  2  4  1  0  0  0  0
  4 10  1  1  0  0  0
  5  3  1  1  0  0  0
  5 12  1  0  0  0  0
  5  8  1  0  0  0  0
  6  4  1  0  0  0  0
  6 13  1  1  0  0  0
  7 24  1  1  0  0  0
  7  9  1  0  0  0  0
  8 11  1  0  0  0  0
  9  6  1  0  0  0  0
 10  1  1  0  0  0  0
 11  9  1  0  0  0  0
 11  2  1  0  0  0  0
 12  7  1  0  0  0  0
 13  1  1  0  0  0  0
 14 17  1  0  0  0  0
 15 14  2  0  0  0  0
 16 20  2  0  0  0  0
 16 15  1  0  0  0  0
 18 15  1  0  0  0  0
 19  2  1  0  0  0  0
 19 17  2  0  0  0  0
 20 19  1  0  0  0  0
 21 22  2  0  0  0  0
 21 23  1  0  0  0  0
 25 26  1  0  0  0  0
 25 24  1  0  0  0  0
 27 29  1  0  0  0  0
 28 29  1  0  0  0  0
 29 26  1  0  0  0  0
 30 31  1  0  0  0  0
 30 27  1  0  0  0  0
 31 28  1  0  0  0  0
M  END
>  <MODEL>
8

>  <REMARK>
 VINA RESULT:      -6.3      2.407      6.783
  Name = 
  6 active torsions:
  status: ('A' for Active; 'I' for Inactive)
    1  A    between atoms: C_1  and  C_3
    2  A    between atoms: N_4  and  C_16
    3  A    between atoms: N_4  and  C_28
    4  A    between atoms: N_6  and  C_24
    5  A    between atoms: C_11  and  N_14
    6  A    between atoms: C_11  and  C_28
                            x       y       z     vdW  Elec       q    Type
                         _______ _______ _______ _____ _____    ______ ____

>  <TORSDO>
F 6

$$$$
=
 OpenBabel11052411193D

 31 35  0  0  1  0  0  0  0  0999 V2000
  161.1310  202.4030  150.1830 C   0  0  1  0  0  3  0  0  0  0  0  0
  161.2310  205.7510  148.7830 N   0  0  0  0  0  0  0  0  0  0  0  0
  162.5520  209.6780  150.0430 N   0  0  0  0  0  1  0  0  0  0  0  0
  160.6940  204.6700  149.5330 C   0  0  2  0  0  3  0  0  0  0  0  0
  161.4080  208.9660  150.5840 C   0  0  1  0  0  3  0  0  0  0  0  0
  160.9240  204.8330  150.7980 C   0  0  2  0  0  3  0  0  0  0  0  0
  161.2570  206.9520  152.1140 C   0  0  2  0  0  3  0  0  0  0  0  0
  160.9410  207.8990  149.5910 C   0  0  0  0  0  2  0  0  0  0  0  0
  161.7680  206.0530  150.9710 C   0  0  2  0  0  3  0  0  0  0  0  0
  160.5330  203.2700  149.0700 C   0  0  0  0  0  2  0  0  0  0  0  0
  161.8090  206.7130  149.6350 N   0  0  1  0  0  0  0  0  0  0  0  0
  161.7690  208.3840  151.9530 C   0  0  0  0  0  2  0  0  0  0  0  0
  161.0210  203.3400  151.7580 S   0  0  0  0  0  0  0  0  0  0  0  0
  162.6640  205.4580  145.3250 C   0  0  0  0  0  3  0  0  0  0  0  0
  161.5810  205.8830  144.5510 C   0  0  0  0  0  0  0  0  0  0  0  0
  160.3870  206.2630  145.1690 C   0  0  0  0  0  3  0  0  0  0  0  0
  162.5530  205.4180  146.7180 C   0  0  0  0  0  3  0  0  0  0  0  0
  161.6880  205.9230  143.2010 F   0  0  0  0  0  0  0  0  0  0  0  0
  161.3610  205.8040  147.3490 C   0  0  0  0  0  0  0  0  0  0  0  0
  160.2780  206.2210  146.5620 C   0  0  0  0  0  3  0  0  0  0  0  0
  160.4480  201.0690  150.2830 C   0  0  0  0  0  0  0  0  0  0  0  0
  161.1620  199.9960  150.3750 N   0  0  0  0  0  1  0  0  0  0  0  0
  159.0720  200.9460  149.9290 N   0  0  0  0  0  2  0  0  0  0  0  0
  161.5730  206.4050  153.4360 N   0  0  0  0  0  2  0  0  0  0  0  0
  161.5950  207.4630  154.4430 C   0  0  0  0  0  2  0  0  0  0  0  0
  160.3810  207.3430  155.3470 C   0  0  0  0  0  2  0  0  0  0  0  0
  159.5000  209.4570  155.8330 C   0  0  0  0  0  2  0  0  0  0  0  0
  161.7030  209.0100  156.3120 C   0  0  0  0  0  2  0  0  0  0  0  0
  160.3780  208.4150  156.3310 N   0  0  0  0  0  0  0  0  0  0  0  0
  160.2340  210.7660  155.9970 C   0  0  0  0  0  2  0  0  0  0  0  0
  161.5760  210.4520  156.4520 N   0  0  0  0  0  2  0  0  0  0  0  0
  1 21  1  1  0  0  0
  1 13  1  0  0  0  0
  2  4  1  0  0  0  0
  2 11  1  0  0  0  0
  4 10  1  6  0  0  0
  4  6  1  0  0  0  0
  5  3  1  6  0  0  0
  5 12  1  0  0  0  0
  6  9  1  0  0  0  0
  6 13  1  6  0  0  0
  7 24  1  1  0  0  0
  8 11  1  0  0  0  0
  8  5  1  0  0  0  0
  9  7  1  0  0  0  0
 10  1  1  0  0  0  0
 11  9  1  0  0  0  0
 12  7  1  0  0  0  0
 14 17  1  0  0  0  0
 15 16  1  0  0  0  0
 15 14  2  0  0  0  0
 16 20  2  0  0  0  0
 17 19  2  0  0  0  0
 18 15  1  0  0  0  0
 19  2  1  0  0  0  0
 20 19  1  0  0  0  0
 21 22  1  0  0  0  0
 23 21  2  0  0  0  0
 24 25  1  0  0  0  0
 25 26  1  0  0  0  0
 26 29  1  0  0  0  0
 27 30  1  0  0  0  0
 27 29  1  0  0  0  0
 28 29  1  0  0  0  0
 28 31  1  0  0  0  0
 30 31  1  0  0  0  0
M  END
>  <MODEL>
9

>  <REMARK>
 VINA RESULT:      -5.8      2.127      4.924
  Name = 
  6 active torsions:
  status: ('A' for Active; 'I' for Inactive)
    1  A    between atoms: C_1  and  C_3
    2  A    between atoms: N_4  and  C_16
    3  A    between atoms: N_4  and  C_28
    4  A    between atoms: N_6  and  C_24
    5  A    between atoms: C_11  and  N_14
    6  A    between atoms: C_11  and  C_28
                            x       y       z     vdW  Elec       q    Type
                         _______ _______ _______ _____ _____    ______ ____

>  <TORSDO>
F 6

$$$$
