=
 OpenBabel11042422573D

 62 71  0  0  1  0  0  0  0  0999 V2000
  161.2750  202.5020  146.1230 C   0  0  0  0  0  3  0  0  0  0  0  0
  161.4960  206.3810  151.1950 C   0  0  0  0  0  0  0  0  0  0  0  0
  160.9390  202.4950  148.4270 C   0  0  0  0  0  0  0  0  0  0  0  0
  161.7330  207.3880  147.5740 C   0  0  0  0  0  2  0  0  0  0  0  0
  161.5440  206.5690  148.7750 N   0  0  0  0  0  0  0  0  0  0  0  0
  161.6600  207.1580  150.0990 C   0  0  0  0  0  0  0  0  0  0  0  0
  160.9800  200.8740  148.0220 S   0  0  0  0  0  0  0  0  0  0  0  0
  162.7480  208.4940  147.8140 C   0  0  0  0  0  2  0  0  0  0  0  0
  160.8880  202.9820  149.6300 N   0  0  0  0  0  0  0  0  0  0  0  0
  161.2230  201.1230  146.3610 C   0  0  0  0  0  3  0  0  0  0  0  0
  160.7940  205.3170  148.6270 C   0  0  1  0  0  3  0  0  0  0  0  0
  161.1060  204.5930  147.3310 C   0  0  0  0  0  3  0  0  0  0  0  0
  162.2050  208.5640  150.2640 C   0  0  0  0  0  2  0  0  0  0  0  0
  160.9730  204.4080  149.8280 C   0  0  0  0  0  0  0  0  0  0  0  0
  161.2160  204.9180  151.0490 C   0  0  0  0  0  0  0  0  0  0  0  0
  162.2880  209.3750  148.9720 C   0  0  2  0  0  3  0  0  0  0  0  0
  161.1060  203.2600  147.2860 C   0  0  0  0  0  0  0  0  0  0  0  0
  160.4030  202.8290  152.0480 C   0  0  0  0  0  2  0  0  0  0  0  0
  161.3710  203.9440  152.1980 C   0  0  2  0  0  3  0  0  0  0  0  0
  160.2150  203.8490  153.0000 O   0  0  0  0  0  0  0  0  0  0  0  0
  160.9630  210.1090  148.7110 C   0  0  0  0  0  2  0  0  0  0  0  0
  161.1350  211.4600  148.0180 C   0  0  0  0  0  2  0  0  0  0  0  0
  159.5380  212.8410  146.7230 C   0  0  0  0  0  0  0  0  0  0  0  0
  160.4060  212.9860  145.5480 C   0  0  0  0  0  2  0  0  0  0  0  0
  159.8380  212.1930  147.8530 C   0  0  0  0  0  3  0  0  0  0  0  0
  159.7350  213.9880  144.7300 N   0  0  0  0  0  0  0  0  0  0  0  0
  158.3590  213.9570  145.0640 N   0  0  0  0  0  2  0  0  0  0  0  0
  158.2780  213.5500  146.4650 C   0  0  0  0  0  2  0  0  0  0  0  0
  159.9190  213.6660  143.3080 C   0  0  1  0  0  3  0  0  0  0  0  0
  158.2270  214.4310  139.9500 F   0  0  0  0  0  0  0  0  0  0  0  0
  159.4090  212.4980  140.6810 F   0  0  0  0  0  0  0  0  0  0  0  0
  157.8420  213.5200  142.0230 O   0  0  0  0  0  0  0  0  0  0  0  0
  158.9510  214.3510  142.3050 C   0  0  2  0  0  3  0  0  0  0  0  0
  158.7770  213.6900  140.9840 C   0  0  0  0  0  0  0  0  0  0  0  0
  161.6900  212.2790  142.4560 O   0  0  0  0  0  0  0  0  0  0  0  0
  162.2980  214.4520  143.0610 N   0  0  0  0  0  2  0  0  0  0  0  0
  163.7020  214.2730  142.7230 C   0  0  0  0  0  1  0  0  0  0  0  0
  161.3490  213.3870  142.9470 C   0  0  0  0  0  0  0  0  0  0  0  0
  161.6690  206.9150  152.4810 O   0  0  0  0  0  0  0  0  0  0  0  0
  161.0050  208.1350  154.6140 C   0  0  2  0  0  0  0  0  0  0  0  0
  160.7590  206.6570  154.5600 C   0  0  0  0  0  2  0  0  0  0  0  0
  160.5940  207.4110  153.2700 C   0  0  2  0  0  0  0  0  0  0  0  0
  160.8720  208.8840  153.3260 C   0  0  0  0  0  2  0  0  0  0  0  0
  159.9660  208.7040  155.4970 N   0  0  0  0  0  2  0  0  0  0  0  0
  160.2150  210.0570  156.0050 C   0  0  0  0  0  2  0  0  0  0  0  0
  158.9540  210.8880  155.8700 C   0  0  0  0  0  2  0  0  0  0  0  0
  159.0860  212.0690  156.6020 O   0  0  0  0  0  0  0  0  0  0  0  0
  157.7850  213.0640  156.1350 P   0  0  1  0  0  0  0  0  0  0  0  0
  155.8220  211.8660  154.9940 O   0  0  0  0  0  0  0  0  0  0  0  0
  156.1570  212.2790  156.3110 C   0  0  1  0  0  3  0  0  0  0  0  0
  157.8280  214.4440  156.7600 O   0  0  0  0  0  0  0  0  0  0  0  0
  156.5730  212.4030  153.9700 N   0  0  0  0  0  0  0  0  0  0  0  0
  157.5900  213.0900  154.3650 C   0  0  0  0  0  0  0  0  0  0  0  0
  154.9300  210.4820  157.2610 O   0  0  0  0  0  1  0  0  0  0  0  0
  156.1840  211.0900  157.2430 C   0  0  0  0  0  2  0  0  0  0  0  0
  158.3960  213.7620  153.4360 O   0  0  0  0  0  0  0  0  0  0  0  0
  158.7470  213.3160  152.1210 C   0  0  2  0  0  3  0  0  0  0  0  0
  160.6480  212.4550  150.9870 O   0  0  0  0  0  0  0  0  0  0  0  0
  160.2210  213.0920  151.9340 C   0  0  0  0  0  3  0  0  0  0  0  0
  158.0890  214.1500  151.0250 C   0  0  0  0  0  2  0  0  0  0  0  0
  156.2250  214.4090  149.8740 C   0  0  0  0  0  1  0  0  0  0  0  0
  156.6970  214.1300  151.1580 O   0  0  0  0  0  0  0  0  0  0  0  0
  1 10  2  0  0  0  0
  1 17  1  0  0  0  0
  2 39  1  0  0  0  0
  3  9  2  0  0  0  0
  4  8  1  0  0  0  0
  4  5  1  0  0  0  0
  5  6  1  0  0  0  0
  6 13  1  0  0  0  0
  6  2  2  0  0  0  0
  7  3  1  0  0  0  0
  8 16  1  0  0  0  0
  9 14  1  0  0  0  0
 10  7  1  0  0  0  0
 11 12  1  6  0  0  0
 11  5  1  0  0  0  0
 11 14  1  0  0  0  0
 14 15  2  0  0  0  0
 15  2  1  0  0  0  0
 16 21  1  6  0  0  0
 16 13  1  0  0  0  0
 17 12  2  0  0  0  0
 17  3  1  0  0  0  0
 18 19  1  0  0  0  0
 18 20  1  0  0  0  0
 19 15  1  6  0  0  0
 19 20  1  0  0  0  0
 22 21  1  0  0  0  0
 23 25  2  0  0  0  0
 24 23  1  0  0  0  0
 25 22  1  0  0  0  0
 26 27  1  0  0  0  0
 26 24  1  0  0  0  0
 27 28  1  0  0  0  0
 28 23  1  0  0  0  0
 29 38  1  6  0  0  0
 29 26  1  0  0  0  0
 30 34  1  0  0  0  0
 31 34  1  0  0  0  0
 32 33  1  0  0  0  0
 33 29  1  1  0  0  0
 34 32  1  0  0  0  0
 34 33  1  0  0  0  0
 35 38  2  0  0  0  0
 37 36  1  0  0  0  0
 38 36  1  0  0  0  0
 40 44  1  1  0  0  0
 41 40  1  0  0  0  0
 42 39  1  6  0  0  0
 42 43  1  0  0  0  0
 42 41  1  0  0  0  0
 42 40  1  0  0  0  0
 43 40  1  0  0  0  0
 44 45  1  0  0  0  0
 46 45  1  0  0  0  0
 46 47  1  0  0  0  0
 48 50  1  0  0  0  0
 48 47  1  0  0  0  0
 48 51  2  1  0  0  0
 49 50  1  0  0  0  0
 50 55  1  1  0  0  0
 52 53  2  0  0  0  0
 52 49  1  0  0  0  0
 53 48  1  0  0  0  0
 55 54  1  0  0  0  0
 56 53  1  0  0  0  0
 57 60  1  6  0  0  0
 57 56  1  0  0  0  0
 58 59  2  0  0  0  0
 59 57  1  0  0  0  0
 60 62  1  0  0  0  0
 61 62  1  0  0  0  0
M  END
>  <MODEL>
1

>  <REMARK>
 VINA RESULT:      -4.2      0.000      0.000
  Name = 
  20 active torsions:
  status: ('A' for Active; 'I' for Inactive)
    1  A    between atoms: C_4  and  C_54
    2  A    between atoms: C_4  and  O_55
    3  A    between atoms: C_4  and  C_57
    4  A    between atoms: P_5  and  O_40
    5  A    between atoms: C_6  and  N_15
    6  A    between atoms: C_8  and  O_31
    7  A    between atoms: N_15  and  C_19
    8  A    between atoms: C_19  and  C_36
    9  A    between atoms: C_24  and  C_35
   10  A    between atoms: C_24  and  C_37
   11  A    between atoms: C_26  and  C_27
   12  A    between atoms: C_26  and  N_41
   13  A    between atoms: C_26  and  C_49
   14  A    between atoms: O_30  and  C_57
   15  A    between atoms: O_31  and  C_39
   16  A    between atoms: C_32  and  C_51
   17  A    between atoms: C_35  and  C_59
   18  A    between atoms: C_36  and  O_40
   19  A    between atoms: C_45  and  C_53
   20  A    between atoms: O_55  and  C_58
                            x       y       z     vdW  Elec       q    Type
                         _______ _______ _______ _____ _____    ______ ____

>  <TORSDO>
F 20

$$$$
=
 OpenBabel11042422573D

 62 71  0  0  1  0  0  0  0  0999 V2000
  160.9450  201.1450  149.0870 C   0  0  0  0  0  3  0  0  0  0  0  0
  161.1990  207.5110  149.5620 C   0  0  0  0  0  0  0  0  0  0  0  0
  161.3780  203.0420  147.8090 C   0  0  0  0  0  0  0  0  0  0  0  0
  160.8740  205.0500  152.3930 C   0  0  0  0  0  2  0  0  0  0  0  0
  161.0600  205.5940  151.0450 N   0  0  0  0  0  0  0  0  0  0  0  0
  161.0400  207.0290  150.8160 C   0  0  0  0  0  0  0  0  0  0  0  0
  161.2120  201.8240  146.6770 S   0  0  0  0  0  0  0  0  0  0  0  0
  159.9450  205.9270  153.2190 C   0  0  0  0  0  2  0  0  0  0  0  0
  161.5130  204.3090  147.5560 N   0  0  0  0  0  2  0  0  0  0  0  0
  160.9140  200.5890  147.8020 C   0  0  0  0  0  3  0  0  0  0  0  0
  161.7180  204.7350  150.0550 C   0  0  0  0  0  0  0  0  0  0  0  0
  161.3030  203.2800  150.1690 C   0  0  0  0  0  3  0  0  0  0  0  0
  160.5970  207.9730  151.9200 C   0  0  0  0  0  2  0  0  0  0  0  0
  161.5310  205.2570  148.6430 C   0  0  0  0  0  0  0  0  0  0  0  0
  161.3740  206.5720  148.4090 C   0  0  0  0  0  0  0  0  0  0  0  0
  160.5120  207.3410  153.3070 C   0  0  2  0  0  3  0  0  0  0  0  0
  161.2130  202.5180  149.0790 C   0  0  0  0  0  0  0  0  0  0  0  0
  160.0100  206.3600  146.3790 C   0  0  0  0  0  2  0  0  0  0  0  0
  161.2050  207.0130  146.9700 C   0  0  2  0  0  3  0  0  0  0  0  0
  161.3170  205.9500  146.0500 O   0  0  0  0  0  0  0  0  0  0  0  0
  161.8700  207.4260  154.0210 C   0  0  0  0  0  2  0  0  0  0  0  0
  161.7680  207.3780  155.5460 C   0  0  0  0  0  2  0  0  0  0  0  0
  161.6480  209.8350  155.8360 C   0  0  0  0  0  0  0  0  0  0  0  0
  160.6600  210.0480  154.7710 C   0  0  0  0  0  2  0  0  0  0  0  0
  162.1860  208.6640  156.1930 C   0  0  0  0  0  3  0  0  0  0  0  0
  160.6180  211.4960  154.6100 N   0  0  0  0  0  0  0  0  0  0  0  0
  161.0330  212.0720  155.8360 N   0  0  0  0  0  2  0  0  0  0  0  0
  161.9720  211.1320  156.4430 C   0  0  0  0  0  2  0  0  0  0  0  0
  159.2470  211.9160  154.2910 C   0  0  1  0  0  3  0  0  0  0  0  0
  157.5990  213.0310  151.0100 F   0  0  0  0  0  0  0  0  0  0  0  0
  158.2440  214.2930  152.9220 F   0  0  0  0  0  0  0  0  0  0  0  0
  159.6410  212.7070  152.0100 O   0  0  0  0  0  0  0  0  0  0  0  0
  158.8280  211.8590  152.7960 C   0  0  2  0  0  3  0  0  0  0  0  0
  158.3070  213.1170  152.1970 C   0  0  0  0  0  0  0  0  0  0  0  0
  157.9670  210.4300  155.6850 O   0  0  0  0  0  0  0  0  0  0  0  0
  157.7720  212.7080  156.1710 N   0  0  0  0  0  2  0  0  0  0  0  0
  156.8280  212.5080  157.2600 C   0  0  0  0  0  1  0  0  0  0  0  0
  158.2680  211.6170  155.3880 C   0  0  0  0  0  0  0  0  0  0  0  0
  161.1170  208.8890  149.3090 O   0  0  0  0  0  0  0  0  0  0  0  0
  162.1230  211.0910  148.5230 C   0  0  2  0  0  0  0  0  0  0  0  0
  162.6780  209.8290  147.9310 C   0  0  0  0  0  2  0  0  0  0  0  0
  162.2410  209.7600  149.3680 C   0  0  2  0  0  0  0  0  0  0  0  0
  161.6580  211.0180  149.9430 C   0  0  0  0  0  2  0  0  0  0  0  0
  163.2260  212.0730  148.5300 N   0  0  0  0  0  2  0  0  0  0  0  0
  162.9640  213.3490  147.8550 C   0  0  0  0  0  2  0  0  0  0  0  0
  161.5590  213.3390  147.2830 C   0  0  0  0  0  2  0  0  0  0  0  0
  161.5100  212.5040  146.1660 O   0  0  0  0  0  0  0  0  0  0  0  0
  161.2150  213.5180  144.8300 P   0  0  1  0  0  0  0  0  0  0  0  0
  158.7690  213.6600  144.0600 O   0  0  0  0  0  0  0  0  0  0  0  0
  159.6310  214.4020  144.9110 C   0  0  1  0  0  3  0  0  0  0  0  0
  162.3720  214.4410  144.5070 O   0  0  0  0  0  0  0  0  0  0  0  0
  159.3720  212.7540  143.2120 N   0  0  0  0  0  0  0  0  0  0  0  0
  160.6330  212.5890  143.4260 C   0  0  0  0  0  0  0  0  0  0  0  0
  158.1690  213.4020  146.4930 O   0  0  0  0  0  1  0  0  0  0  0  0
  159.0670  214.4530  146.3120 C   0  0  0  0  0  2  0  0  0  0  0  0
  161.3910  211.7590  142.5890 O   0  0  0  0  0  0  0  0  0  0  0  0
  161.9730  212.1100  141.3290 C   0  0  2  0  0  3  0  0  0  0  0  0
  162.9010  214.2910  141.4930 O   0  0  0  0  0  0  0  0  0  0  0  0
  161.9990  213.5900  141.0680 C   0  0  0  0  0  3  0  0  0  0  0  0
  161.4250  211.2730  140.1760 C   0  0  0  0  0  2  0  0  0  0  0  0
  159.9410  211.0790  138.5560 C   0  0  0  0  0  1  0  0  0  0  0  0
  160.5200  212.0170  139.4140 O   0  0  0  0  0  0  0  0  0  0  0  0
  2  6  2  0  0  0  0
  3 17  2  0  0  0  0
  4  8  1  0  0  0  0
  5  4  1  0  0  0  0
  6  5  1  0  0  0  0
  6 13  1  0  0  0  0
  7 10  1  0  0  0  0
  7  3  1  0  0  0  0
  8 16  1  0  0  0  0
  9  3  1  0  0  0  0
  9 14  1  0  0  0  0
 10  1  2  0  0  0  0
 11 12  2  0  0  0  0
 11  5  1  0  0  0  0
 13 16  1  0  0  0  0
 14 11  1  0  0  0  0
 15 14  2  0  0  0  0
 15  2  1  0  0  0  0
 16 21  1  6  0  0  0
 17  1  1  0  0  0  0
 17 12  1  0  0  0  0
 18 19  1  0  0  0  0
 19 15  1  1  0  0  0
 20 18  1  0  0  0  0
 20 19  1  0  0  0  0
 21 22  1  0  0  0  0
 22 25  1  0  0  0  0
 23 25  2  0  0  0  0
 23 28  1  0  0  0  0
 24 23  1  0  0  0  0
 26 24  1  0  0  0  0
 26 27  1  0  0  0  0
 27 28  1  0  0  0  0
 29 26  1  0  0  0  0
 29 38  1  1  0  0  0
 30 34  1  0  0  0  0
 32 34  1  0  0  0  0
 32 33  1  0  0  0  0
 33 29  1  1  0  0  0
 34 33  1  0  0  0  0
 34 31  1  0  0  0  0
 36 37  1  0  0  0  0
 38 35  2  0  0  0  0
 38 36  1  0  0  0  0
 39  2  1  0  0  0  0
 40 44  1  1  0  0  0
 40 42  1  0  0  0  0
 40 43  1  0  0  0  0
 41 40  1  0  0  0  0
 41 42  1  0  0  0  0
 42 39  1  6  0  0  0
 42 43  1  0  0  0  0
 45 44  1  0  0  0  0
 46 45  1  0  0  0  0
 47 46  1  0  0  0  0
 48 51  2  6  0  0  0
 48 50  1  0  0  0  0
 48 47  1  0  0  0  0
 49 50  1  0  0  0  0
 50 55  1  1  0  0  0
 52 53  2  0  0  0  0
 52 49  1  0  0  0  0
 53 48  1  0  0  0  0
 55 54  1  0  0  0  0
 56 53  1  0  0  0  0
 57 60  1  6  0  0  0
 57 56  1  0  0  0  0
 59 57  1  0  0  0  0
 59 58  2  0  0  0  0
 61 62  1  0  0  0  0
 62 60  1  0  0  0  0
M  END
>  <MODEL>
2

>  <REMARK>
 VINA RESULT:      -3.8      3.404      9.128
  Name = 
  20 active torsions:
  status: ('A' for Active; 'I' for Inactive)
    1  A    between atoms: C_4  and  C_54
    2  A    between atoms: C_4  and  O_55
    3  A    between atoms: C_4  and  C_57
    4  A    between atoms: P_5  and  O_40
    5  A    between atoms: C_6  and  N_15
    6  A    between atoms: C_8  and  O_31
    7  A    between atoms: N_15  and  C_19
    8  A    between atoms: C_19  and  C_36
    9  A    between atoms: C_24  and  C_35
   10  A    between atoms: C_24  and  C_37
   11  A    between atoms: C_26  and  C_27
   12  A    between atoms: C_26  and  N_41
   13  A    between atoms: C_26  and  C_49
   14  A    between atoms: O_30  and  C_57
   15  A    between atoms: O_31  and  C_39
   16  A    between atoms: C_32  and  C_51
   17  A    between atoms: C_35  and  C_59
   18  A    between atoms: C_36  and  O_40
   19  A    between atoms: C_45  and  C_53
   20  A    between atoms: O_55  and  C_58
                            x       y       z     vdW  Elec       q    Type
                         _______ _______ _______ _____ _____    ______ ____

>  <TORSDO>
F 20

$$$$
=
 OpenBabel11042422573D

 62 71  0  0  1  0  0  0  0  0999 V2000
  155.5710  214.2640  155.2280 C   0  0  0  0  0  3  0  0  0  0  0  0
  160.3410  210.8820  152.6510 C   0  0  0  0  0  0  0  0  0  0  0  0
  157.1710  212.6680  155.7880 C   0  0  0  0  0  0  0  0  0  0  0  0
  158.4880  213.7450  151.0550 C   0  0  0  0  0  2  0  0  0  0  0  0
  158.9410  212.7740  152.0540 N   0  0  0  0  0  0  0  0  0  0  0  0
  159.9460  211.7790  151.7180 C   0  0  0  0  0  0  0  0  0  0  0  0
  156.1270  212.6650  157.0920 S   0  0  0  0  0  0  0  0  0  0  0  0
  158.5120  213.1490  149.6550 C   0  0  0  0  0  2  0  0  0  0  0  0
  158.1620  211.8490  155.5990 N   0  0  0  0  0  0  0  0  0  0  0  0
  155.0890  213.8590  156.4780 C   0  0  0  0  0  3  0  0  0  0  0  0
  158.7330  213.1110  153.4670 C   0  0  1  0  0  3  0  0  0  0  0  0
  157.4070  213.8040  153.7170 C   0  0  0  0  0  3  0  0  0  0  0  0
  160.3690  211.5780  150.2740 C   0  0  0  0  0  2  0  0  0  0  0  0
  158.9080  211.9030  154.3660 C   0  0  0  0  0  0  0  0  0  0  0  0
  159.7320  210.8980  154.0190 C   0  0  0  0  0  0  0  0  0  0  0  0
  159.9250  212.6830  149.3170 C   0  0  2  0  0  3  0  0  0  0  0  0
  156.7430  213.5960  154.8550 C   0  0  0  0  0  0  0  0  0  0  0  0
  160.0670  210.2350  156.3580 C   0  0  0  0  0  2  0  0  0  0  0  0
  159.8600  209.7330  154.9770 C   0  0  2  0  0  3  0  0  0  0  0  0
  161.1190  209.6750  155.6100 O   0  0  0  0  0  0  0  0  0  0  0  0
  160.9650  213.8140  149.2800 C   0  0  0  0  0  2  0  0  0  0  0  0
  162.3950  213.3270  149.0430 C   0  0  0  0  0  2  0  0  0  0  0  0
  162.5460  213.8200  146.6210 C   0  0  0  0  0  0  0  0  0  0  0  0
  161.4030  212.9820  146.2410 C   0  0  0  0  0  2  0  0  0  0  0  0
  163.0360  213.9780  147.8560 C   0  0  0  0  0  3  0  0  0  0  0  0
  161.4590  212.9420  144.7850 N   0  0  0  0  0  0  0  0  0  0  0  0
  162.1410  214.1070  144.3540 N   0  0  0  0  0  2  0  0  0  0  0  0
  163.0890  214.4510  145.4110 C   0  0  0  0  0  2  0  0  0  0  0  0
  160.0950  212.9220  144.2400 C   0  0  1  0  0  3  0  0  0  0  0  0
  159.3070  211.7400  140.6760 F   0  0  0  0  0  0  0  0  0  0  0  0
  160.2240  213.7940  141.4560 F   0  0  0  0  0  0  0  0  0  0  0  0
  160.9650  211.7700  142.2650 O   0  0  0  0  0  0  0  0  0  0  0  0
  159.8200  211.9270  143.0800 C   0  0  2  0  0  3  0  0  0  0  0  0
  159.8860  212.4740  141.6980 C   0  0  0  0  0  0  0  0  0  0  0  0
  158.9140  214.3990  145.7280 O   0  0  0  0  0  0  0  0  0  0  0  0
  158.1160  212.2050  145.6220 N   0  0  0  0  0  2  0  0  0  0  0  0
  157.0610  212.4240  146.6010 C   0  0  0  0  0  1  0  0  0  0  0  0
  159.0450  213.2350  145.2670 C   0  0  0  0  0  0  0  0  0  0  0  0
  161.2600  209.8720  152.3280 O   0  0  0  0  0  0  0  0  0  0  0  0
  162.0740  207.5120  151.8320 C   0  0  2  0  0  0  0  0  0  0  0  0
  161.1880  208.1650  150.8120 C   0  0  0  0  0  2  0  0  0  0  0  0
  160.9090  208.4950  152.2520 C   0  0  2  0  0  0  0  0  0  0  0  0
  161.8190  207.8630  153.2640 C   0  0  0  0  0  2  0  0  0  0  0  0
  161.8210  206.0600  151.7410 N   0  0  0  0  0  2  0  0  0  0  0  0
  160.9930  205.6140  150.6150 C   0  0  0  0  0  2  0  0  0  0  0  0
  161.8880  205.1630  149.4770 C   0  0  0  0  0  2  0  0  0  0  0  0
  161.1120  204.6050  148.4590 O   0  0  0  0  0  0  0  0  0  0  0  0
  161.9460  204.9100  147.0070 P   0  0  1  0  0  0  0  0  0  0  0  0
  160.5720  206.0320  145.1500 O   0  0  0  0  0  0  0  0  0  0  0  0
  161.4520  206.4510  146.1830 C   0  0  1  0  0  3  0  0  0  0  0  0
  163.4500  204.7860  147.1370 O   0  0  0  0  0  0  0  0  0  0  0  0
  160.5770  204.6870  144.8450 N   0  0  0  0  0  0  0  0  0  0  0  0
  161.2690  203.9640  145.6570 C   0  0  0  0  0  0  0  0  0  0  0  0
  161.6640  208.3250  147.6260 O   0  0  0  0  0  1  0  0  0  0  0  0
  160.7460  207.4070  147.1170 C   0  0  0  0  0  2  0  0  0  0  0  0
  161.4300  202.5910  145.4240 O   0  0  0  0  0  0  0  0  0  0  0  0
  160.8680  201.5180  146.1870 C   0  0  2  0  0  3  0  0  0  0  0  0
  159.5400  200.9220  144.3090 O   0  0  0  0  0  0  0  0  0  0  0  0
  159.7070  200.8430  145.5140 C   0  0  0  0  0  3  0  0  0  0  0  0
  160.6200  201.9020  147.6430 C   0  0  0  0  0  2  0  0  0  0  0  0
  160.8500  201.3290  149.7610 C   0  0  0  0  0  1  0  0  0  0  0  0
  161.4120  201.1300  148.4980 O   0  0  0  0  0  0  0  0  0  0  0  0
  1 10  2  0  0  0  0
  2 15  1  0  0  0  0
  3  7  1  0  0  0  0
  4  5  1  0  0  0  0
  5 11  1  0  0  0  0
  6  5  1  0  0  0  0
  6  2  2  0  0  0  0
  8  4  1  0  0  0  0
  9  3  2  0  0  0  0
 10  7  1  0  0  0  0
 11 12  1  6  0  0  0
 11 14  1  0  0  0  0
 12 17  2  0  0  0  0
 13  6  1  0  0  0  0
 14  9  1  0  0  0  0
 15 14  2  0  0  0  0
 16 21  1  1  0  0  0
 16  8  1  0  0  0  0
 16 13  1  0  0  0  0
 17  1  1  0  0  0  0
 17  3  1  0  0  0  0
 19 15  1  6  0  0  0
 19 20  1  0  0  0  0
 19 18  1  0  0  0  0
 20 18  1  0  0  0  0
 22 21  1  0  0  0  0
 23 25  2  0  0  0  0
 24 23  1  0  0  0  0
 25 22  1  0  0  0  0
 26 24  1  0  0  0  0
 27 26  1  0  0  0  0
 27 28  1  0  0  0  0
 28 23  1  0  0  0  0
 29 26  1  0  0  0  0
 29 38  1  1  0  0  0
 30 34  1  0  0  0  0
 31 34  1  0  0  0  0
 32 33  1  0  0  0  0
 33 29  1  1  0  0  0
 34 32  1  0  0  0  0
 34 33  1  0  0  0  0
 36 37  1  0  0  0  0
 38 36  1  0  0  0  0
 38 35  2  0  0  0  0
 39  2  1  0  0  0  0
 40 44  1  1  0  0  0
 40 42  1  0  0  0  0
 40 43  1  0  0  0  0
 41 40  1  0  0  0  0
 41 42  1  0  0  0  0
 42 39  1  6  0  0  0
 42 43  1  0  0  0  0
 45 44  1  0  0  0  0
 46 45  1  0  0  0  0
 47 46  1  0  0  0  0
 48 51  2  1  0  0  0
 48 47  1  0  0  0  0
 49 50  1  0  0  0  0
 50 48  1  0  0  0  0
 50 55  1  1  0  0  0
 52 49  1  0  0  0  0
 52 53  2  0  0  0  0
 53 48  1  0  0  0  0
 55 54  1  0  0  0  0
 56 53  1  0  0  0  0
 56 57  1  0  0  0  0
 57 59  1  6  0  0  0
 57 60  1  0  0  0  0
 58 59  2  0  0  0  0
 60 62  1  0  0  0  0
 62 61  1  0  0  0  0
M  END
>  <MODEL>
3

>  <REMARK>
 VINA RESULT:      -3.7      3.860      9.181
  Name = 
  20 active torsions:
  status: ('A' for Active; 'I' for Inactive)
    1  A    between atoms: C_4  and  C_54
    2  A    between atoms: C_4  and  O_55
    3  A    between atoms: C_4  and  C_57
    4  A    between atoms: P_5  and  O_40
    5  A    between atoms: C_6  and  N_15
    6  A    between atoms: C_8  and  O_31
    7  A    between atoms: N_15  and  C_19
    8  A    between atoms: C_19  and  C_36
    9  A    between atoms: C_24  and  C_35
   10  A    between atoms: C_24  and  C_37
   11  A    between atoms: C_26  and  C_27
   12  A    between atoms: C_26  and  N_41
   13  A    between atoms: C_26  and  C_49
   14  A    between atoms: O_30  and  C_57
   15  A    between atoms: O_31  and  C_39
   16  A    between atoms: C_32  and  C_51
   17  A    between atoms: C_35  and  C_59
   18  A    between atoms: C_36  and  O_40
   19  A    between atoms: C_45  and  C_53
   20  A    between atoms: O_55  and  C_58
                            x       y       z     vdW  Elec       q    Type
                         _______ _______ _______ _____ _____    ______ ____

>  <TORSDO>
F 20

$$$$
=
 OpenBabel11042422573D

 62 71  0  0  1  0  0  0  0  0999 V2000
  161.2620  202.4950  146.1070 C   0  0  0  0  0  3  0  0  0  0  0  0
  161.5960  206.2860  151.2390 C   0  0  0  0  0  0  0  0  0  0  0  0
  160.8760  202.4760  148.4020 C   0  0  0  0  0  0  0  0  0  0  0  0
  161.9700  207.3260  147.6400 C   0  0  0  0  0  2  0  0  0  0  0  0
  161.7080  206.5030  148.8240 N   0  0  0  0  0  0  0  0  0  0  0  0
  161.8290  207.0660  150.1580 C   0  0  0  0  0  0  0  0  0  0  0  0
  160.8320  200.8620  147.9750 S   0  0  0  0  0  0  0  0  0  0  0  0
  163.0420  208.3680  147.9180 C   0  0  0  0  0  2  0  0  0  0  0  0
  160.8270  202.9490  149.6120 N   0  0  0  0  0  0  0  0  0  0  0  0
  161.1260  201.1190  146.3230 C   0  0  0  0  0  3  0  0  0  0  0  0
  160.8900  205.2990  148.6410 C   0  0  1  0  0  3  0  0  0  0  0  0
  161.1880  204.5760  147.3420 C   0  0  0  0  0  3  0  0  0  0  0  0
  162.4500  208.4360  150.3560 C   0  0  0  0  0  2  0  0  0  0  0  0
  160.9900  204.3650  149.8320 C   0  0  0  0  0  0  0  0  0  0  0  0
  161.2360  204.8430  151.0650 C   0  0  0  0  0  0  0  0  0  0  0  0
  162.6080  209.2580  149.0790 C   0  0  2  0  0  3  0  0  0  0  0  0
  161.1120  203.2460  147.2770 C   0  0  0  0  0  0  0  0  0  0  0  0
  160.1500  202.9210  152.1380 C   0  0  0  0  0  2  0  0  0  0  0  0
  161.3080  203.8460  152.2030 C   0  0  2  0  0  3  0  0  0  0  0  0
  160.2220  203.9490  153.0970 O   0  0  0  0  0  0  0  0  0  0  0  0
  161.3340  210.0720  148.8010 C   0  0  0  0  0  2  0  0  0  0  0  0
  161.5940  211.3960  148.0820 C   0  0  0  0  0  2  0  0  0  0  0  0
  160.0300  212.8970  146.8850 C   0  0  0  0  0  0  0  0  0  0  0  0
  160.7830  212.8990  145.6250 C   0  0  0  0  0  2  0  0  0  0  0  0
  160.3740  212.2620  148.0110 C   0  0  0  0  0  3  0  0  0  0  0  0
  160.1420  213.9390  144.8290 N   0  0  0  0  0  0  0  0  0  0  0  0
  158.8130  214.0750  145.2990 N   0  0  0  0  0  2  0  0  0  0  0  0
  158.8340  213.7330  146.7190 C   0  0  0  0  0  2  0  0  0  0  0  0
  160.1430  213.5460  143.4140 C   0  0  1  0  0  3  0  0  0  0  0  0
  162.8470  211.6090  141.5020 F   0  0  0  0  0  0  0  0  0  0  0  0
  162.5270  213.9520  141.7770 F   0  0  0  0  0  0  0  0  0  0  0  0
  162.3520  212.5040  143.5580 O   0  0  0  0  0  0  0  0  0  0  0  0
  161.0530  212.3510  143.0200 C   0  0  2  0  0  3  0  0  0  0  0  0
  162.2300  212.6580  142.1640 C   0  0  0  0  0  0  0  0  0  0  0  0
  157.8450  214.2580  143.3680 O   0  0  0  0  0  0  0  0  0  0  0  0
  158.7390  213.5620  141.3240 N   0  0  0  0  0  2  0  0  0  0  0  0
  157.5030  213.7730  140.5850 C   0  0  0  0  0  1  0  0  0  0  0  0
  158.8250  213.7810  142.7360 C   0  0  0  0  0  0  0  0  0  0  0  0
  161.7710  206.7910  152.5360 O   0  0  0  0  0  0  0  0  0  0  0  0
  161.1430  208.0870  154.6360 C   0  0  2  0  0  0  0  0  0  0  0  0
  160.8350  206.6180  154.6130 C   0  0  0  0  0  2  0  0  0  0  0  0
  160.7120  207.3490  153.3050 C   0  0  2  0  0  0  0  0  0  0  0  0
  161.0510  208.8100  153.3300 C   0  0  0  0  0  2  0  0  0  0  0  0
  160.1220  208.7170  155.4970 N   0  0  0  0  0  2  0  0  0  0  0  0
  160.3540  210.1200  155.8570 C   0  0  0  0  0  2  0  0  0  0  0  0
  159.0600  210.8990  155.7180 C   0  0  0  0  0  2  0  0  0  0  0  0
  159.1500  212.0960  156.4300 O   0  0  0  0  0  0  0  0  0  0  0  0
  157.8550  213.0630  155.8970 P   0  0  1  0  0  0  0  0  0  0  0  0
  156.0670  211.8580  154.5020 O   0  0  0  0  0  0  0  0  0  0  0  0
  156.2560  212.2020  155.8670 C   0  0  1  0  0  3  0  0  0  0  0  0
  157.7720  214.4020  156.6020 O   0  0  0  0  0  0  0  0  0  0  0  0
  156.8850  212.4890  153.5890 N   0  0  0  0  0  0  0  0  0  0  0  0
  157.8270  213.1920  154.1200 C   0  0  0  0  0  0  0  0  0  0  0  0
  155.6530  209.9110  156.0280 O   0  0  0  0  0  1  0  0  0  0  0  0
  156.2510  210.9590  156.7270 C   0  0  0  0  0  2  0  0  0  0  0  0
  158.6840  213.9540  153.3150 O   0  0  0  0  0  0  0  0  0  0  0  0
  158.7330  213.9680  151.8850 C   0  0  2  0  0  3  0  0  0  0  0  0
  156.4800  213.7380  151.1680 O   0  0  0  0  0  0  0  0  0  0  0  0
  157.4640  214.4530  151.2430 C   0  0  0  0  0  3  0  0  0  0  0  0
  159.2790  212.6660  151.3040 C   0  0  0  0  0  2  0  0  0  0  0  0
  160.6070  211.2370  152.3330 C   0  0  0  0  0  1  0  0  0  0  0  0
  160.6100  212.4750  151.6870 O   0  0  0  0  0  0  0  0  0  0  0  0
  1 10  2  0  0  0  0
  1 17  1  0  0  0  0
  2 39  1  0  0  0  0
  3  9  2  0  0  0  0
  4  8  1  0  0  0  0
  4  5  1  0  0  0  0
  5  6  1  0  0  0  0
  6 13  1  0  0  0  0
  6  2  2  0  0  0  0
  7  3  1  0  0  0  0
  8 16  1  0  0  0  0
  9 14  1  0  0  0  0
 10  7  1  0  0  0  0
 11 12  1  6  0  0  0
 11  5  1  0  0  0  0
 11 14  1  0  0  0  0
 14 15  2  0  0  0  0
 15  2  1  0  0  0  0
 16 21  1  6  0  0  0
 16 13  1  0  0  0  0
 17 12  2  0  0  0  0
 17  3  1  0  0  0  0
 18 19  1  0  0  0  0
 18 20  1  0  0  0  0
 19 15  1  6  0  0  0
 19 20  1  0  0  0  0
 22 21  1  0  0  0  0
 23 25  2  0  0  0  0
 24 23  1  0  0  0  0
 25 22  1  0  0  0  0
 26 27  1  0  0  0  0
 26 24  1  0  0  0  0
 27 28  1  0  0  0  0
 28 23  1  0  0  0  0
 29 38  1  1  0  0  0
 29 26  1  0  0  0  0
 30 34  1  0  0  0  0
 31 34  1  0  0  0  0
 33 29  1  1  0  0  0
 33 32  1  0  0  0  0
 34 33  1  0  0  0  0
 34 32  1  0  0  0  0
 36 38  1  0  0  0  0
 37 36  1  0  0  0  0
 38 35  2  0  0  0  0
 40 44  1  1  0  0  0
 41 40  1  0  0  0  0
 42 39  1  6  0  0  0
 42 43  1  0  0  0  0
 42 41  1  0  0  0  0
 42 40  1  0  0  0  0
 43 40  1  0  0  0  0
 44 45  1  0  0  0  0
 46 45  1  0  0  0  0
 46 47  1  0  0  0  0
 48 47  1  0  0  0  0
 48 51  2  1  0  0  0
 49 50  1  0  0  0  0
 50 48  1  0  0  0  0
 50 55  1  1  0  0  0
 52 53  2  0  0  0  0
 52 49  1  0  0  0  0
 53 48  1  0  0  0  0
 54 55  1  0  0  0  0
 56 53  1  0  0  0  0
 57 59  1  6  0  0  0
 57 56  1  0  0  0  0
 58 59  2  0  0  0  0
 60 62  1  0  0  0  0
 60 57  1  0  0  0  0
 62 61  1  0  0  0  0
M  END
>  <MODEL>
4

>  <REMARK>
 VINA RESULT:      -3.5      1.056      2.091
  Name = 
  20 active torsions:
  status: ('A' for Active; 'I' for Inactive)
    1  A    between atoms: C_4  and  C_54
    2  A    between atoms: C_4  and  O_55
    3  A    between atoms: C_4  and  C_57
    4  A    between atoms: P_5  and  O_40
    5  A    between atoms: C_6  and  N_15
    6  A    between atoms: C_8  and  O_31
    7  A    between atoms: N_15  and  C_19
    8  A    between atoms: C_19  and  C_36
    9  A    between atoms: C_24  and  C_35
   10  A    between atoms: C_24  and  C_37
   11  A    between atoms: C_26  and  C_27
   12  A    between atoms: C_26  and  N_41
   13  A    between atoms: C_26  and  C_49
   14  A    between atoms: O_30  and  C_57
   15  A    between atoms: O_31  and  C_39
   16  A    between atoms: C_32  and  C_51
   17  A    between atoms: C_35  and  C_59
   18  A    between atoms: C_36  and  O_40
   19  A    between atoms: C_45  and  C_53
   20  A    between atoms: O_55  and  C_58
                            x       y       z     vdW  Elec       q    Type
                         _______ _______ _______ _____ _____    ______ ____

>  <TORSDO>
F 20

$$$$
=
 OpenBabel11042422573D

 62 71  0  0  1  0  0  0  0  0999 V2000
  160.9440  201.1510  149.0750 C   0  0  0  0  0  3  0  0  0  0  0  0
  161.2840  207.5190  149.4640 C   0  0  0  0  0  0  0  0  0  0  0  0
  161.4550  203.0210  147.7860 C   0  0  0  0  0  0  0  0  0  0  0  0
  160.8140  205.1070  152.3170 C   0  0  0  0  0  2  0  0  0  0  0  0
  161.0590  205.6280  150.9700 N   0  0  0  0  0  0  0  0  0  0  0  0
  161.0700  207.0590  150.7190 C   0  0  0  0  0  0  0  0  0  0  0  0
  161.3120  201.7890  146.6660 S   0  0  0  0  0  0  0  0  0  0  0  0
  159.8690  206.0110  153.0950 C   0  0  0  0  0  2  0  0  0  0  0  0
  161.6200  204.2820  147.5190 N   0  0  0  0  0  2  0  0  0  0  0  0
  160.9520  200.5760  147.7980 C   0  0  0  0  0  3  0  0  0  0  0  0
  161.7390  204.7430  150.0170 C   0  0  0  0  0  0  0  0  0  0  0  0
  161.2970  203.2970  150.1380 C   0  0  0  0  0  3  0  0  0  0  0  0
  160.6020  208.0260  151.7910 C   0  0  0  0  0  2  0  0  0  0  0  0
  161.6130  205.2460  148.5920 C   0  0  0  0  0  0  0  0  0  0  0  0
  161.4870  206.5600  148.3330 C   0  0  0  0  0  0  0  0  0  0  0  0
  160.4560  207.4170  153.1840 C   0  0  2  0  0  3  0  0  0  0  0  0
  161.2350  202.5190  149.0560 C   0  0  0  0  0  0  0  0  0  0  0  0
  160.2530  206.2660  146.2320 C   0  0  0  0  0  2  0  0  0  0  0  0
  161.3780  206.9820  146.8830 C   0  0  2  0  0  3  0  0  0  0  0  0
  161.5940  205.9190  145.9810 O   0  0  0  0  0  0  0  0  0  0  0  0
  161.7880  207.4920  153.9470 C   0  0  0  0  0  2  0  0  0  0  0  0
  161.6270  207.4800  155.4670 C   0  0  0  0  0  2  0  0  0  0  0  0
  161.4810  209.9400  155.7160 C   0  0  0  0  0  0  0  0  0  0  0  0
  160.5070  210.1270  154.6330 C   0  0  0  0  0  2  0  0  0  0  0  0
  162.0240  208.7790  156.0990 C   0  0  0  0  0  3  0  0  0  0  0  0
  160.4540  211.5720  154.4480 N   0  0  0  0  0  0  0  0  0  0  0  0
  160.8460  212.1710  155.6700 N   0  0  0  0  0  2  0  0  0  0  0  0
  161.7840  211.2500  156.3060 C   0  0  0  0  0  2  0  0  0  0  0  0
  159.0850  211.9740  154.1020 C   0  0  1  0  0  3  0  0  0  0  0  0
  155.8440  211.9500  156.1560 F   0  0  0  0  0  0  0  0  0  0  0  0
  156.6010  210.4780  154.4450 F   0  0  0  0  0  0  0  0  0  0  0  0
  158.0010  211.1610  156.1390 O   0  0  0  0  0  0  0  0  0  0  0  0
  158.1260  212.2810  155.2840 C   0  0  2  0  0  3  0  0  0  0  0  0
  156.8740  211.4800  155.3570 C   0  0  0  0  0  0  0  0  0  0  0  0
  160.0060  212.8500  152.0590 O   0  0  0  0  0  0  0  0  0  0  0  0
  157.7240  213.2290  152.3950 N   0  0  0  0  0  2  0  0  0  0  0  0
  157.5510  213.9690  151.1540 C   0  0  0  0  0  1  0  0  0  0  0  0
  159.0020  212.7360  152.8110 C   0  0  0  0  0  0  0  0  0  0  0  0
  161.2340  208.8940  149.1890 O   0  0  0  0  0  0  0  0  0  0  0  0
  162.3100  211.0740  148.4340 C   0  0  2  0  0  0  0  0  0  0  0  0
  162.8820  209.7980  147.8910 C   0  0  0  0  0  2  0  0  0  0  0  0
  162.3630  209.7530  149.3010 C   0  0  2  0  0  0  0  0  0  0  0  0
  161.7640  211.0240  149.8260 C   0  0  0  0  0  2  0  0  0  0  0  0
  163.4230  212.0430  148.4920 N   0  0  0  0  0  2  0  0  0  0  0  0
  163.2110  213.3170  147.7970 C   0  0  0  0  0  2  0  0  0  0  0  0
  161.8450  213.3120  147.1360 C   0  0  0  0  0  2  0  0  0  0  0  0
  161.8690  212.4890  146.0100 O   0  0  0  0  0  0  0  0  0  0  0  0
  161.6520  213.5140  144.6680 P   0  0  1  0  0  0  0  0  0  0  0  0
  159.2600  213.6430  143.7420 O   0  0  0  0  0  0  0  0  0  0  0  0
  160.0570  214.3830  144.6560 C   0  0  1  0  0  3  0  0  0  0  0  0
  162.8180  214.4520  144.4310 O   0  0  0  0  0  0  0  0  0  0  0  0
  159.9250  212.7520  142.9260 N   0  0  0  0  0  0  0  0  0  0  0  0
  161.1720  212.5960  143.2190 C   0  0  0  0  0  0  0  0  0  0  0  0
  158.6690  213.2440  146.2080 O   0  0  0  0  0  1  0  0  0  0  0  0
  159.4030  214.4130  146.0180 C   0  0  0  0  0  2  0  0  0  0  0  0
  161.9900  211.7830  142.4240 O   0  0  0  0  0  0  0  0  0  0  0  0
  162.4290  212.0500  141.0880 C   0  0  2  0  0  3  0  0  0  0  0  0
  163.9420  213.5020  139.9730 O   0  0  0  0  0  0  0  0  0  0  0  0
  163.2640  213.2930  140.9640 C   0  0  0  0  0  3  0  0  0  0  0  0
  161.2990  211.9420  140.0680 C   0  0  0  0  0  2  0  0  0  0  0  0
  161.8760  210.8290  138.2540 C   0  0  0  0  0  1  0  0  0  0  0  0
  161.2670  210.6660  139.5000 O   0  0  0  0  0  0  0  0  0  0  0  0
  2  6  2  0  0  0  0
  3 17  2  0  0  0  0
  4  8  1  0  0  0  0
  5  4  1  0  0  0  0
  6  5  1  0  0  0  0
  6 13  1  0  0  0  0
  7  3  1  0  0  0  0
  7 10  1  0  0  0  0
  8 16  1  0  0  0  0
  9  3  1  0  0  0  0
  9 14  1  0  0  0  0
 10  1  2  0  0  0  0
 11 12  2  0  0  0  0
 11  5  1  0  0  0  0
 13 16  1  0  0  0  0
 14 11  1  0  0  0  0
 15 14  2  0  0  0  0
 15  2  1  0  0  0  0
 16 21  1  6  0  0  0
 17  1  1  0  0  0  0
 17 12  1  0  0  0  0
 18 19  1  0  0  0  0
 19 15  1  1  0  0  0
 20 18  1  0  0  0  0
 20 19  1  0  0  0  0
 21 22  1  0  0  0  0
 22 25  1  0  0  0  0
 23 25  2  0  0  0  0
 23 28  1  0  0  0  0
 24 23  1  0  0  0  0
 26 24  1  0  0  0  0
 26 27  1  0  0  0  0
 27 28  1  0  0  0  0
 29 38  1  6  0  0  0
 29 26  1  0  0  0  0
 31 34  1  0  0  0  0
 33 29  1  6  0  0  0
 33 34  1  0  0  0  0
 33 32  1  0  0  0  0
 34 32  1  0  0  0  0
 34 30  1  0  0  0  0
 35 38  2  0  0  0  0
 36 38  1  0  0  0  0
 37 36  1  0  0  0  0
 39  2  1  0  0  0  0
 40 44  1  1  0  0  0
 40 42  1  0  0  0  0
 40 43  1  0  0  0  0
 41 40  1  0  0  0  0
 41 42  1  0  0  0  0
 42 39  1  6  0  0  0
 42 43  1  0  0  0  0
 45 44  1  0  0  0  0
 46 45  1  0  0  0  0
 47 46  1  0  0  0  0
 48 51  2  6  0  0  0
 48 47  1  0  0  0  0
 49 50  1  0  0  0  0
 50 48  1  0  0  0  0
 50 55  1  1  0  0  0
 52 53  2  0  0  0  0
 52 49  1  0  0  0  0
 53 48  1  0  0  0  0
 55 54  1  0  0  0  0
 56 53  1  0  0  0  0
 57 60  1  6  0  0  0
 57 56  1  0  0  0  0
 58 59  2  0  0  0  0
 59 57  1  0  0  0  0
 61 62  1  0  0  0  0
 62 60  1  0  0  0  0
M  END
>  <MODEL>
5

>  <REMARK>
 VINA RESULT:      -3.4      3.870      9.298
  Name = 
  20 active torsions:
  status: ('A' for Active; 'I' for Inactive)
    1  A    between atoms: C_4  and  C_54
    2  A    between atoms: C_4  and  O_55
    3  A    between atoms: C_4  and  C_57
    4  A    between atoms: P_5  and  O_40
    5  A    between atoms: C_6  and  N_15
    6  A    between atoms: C_8  and  O_31
    7  A    between atoms: N_15  and  C_19
    8  A    between atoms: C_19  and  C_36
    9  A    between atoms: C_24  and  C_35
   10  A    between atoms: C_24  and  C_37
   11  A    between atoms: C_26  and  C_27
   12  A    between atoms: C_26  and  N_41
   13  A    between atoms: C_26  and  C_49
   14  A    between atoms: O_30  and  C_57
   15  A    between atoms: O_31  and  C_39
   16  A    between atoms: C_32  and  C_51
   17  A    between atoms: C_35  and  C_59
   18  A    between atoms: C_36  and  O_40
   19  A    between atoms: C_45  and  C_53
   20  A    between atoms: O_55  and  C_58
                            x       y       z     vdW  Elec       q    Type
                         _______ _______ _______ _____ _____    ______ ____

>  <TORSDO>
F 20

$$$$
=
 OpenBabel11042422573D

 62 71  0  0  1  0  0  0  0  0999 V2000
  159.7720  212.0320  156.1220 C   0  0  0  0  0  3  0  0  0  0  0  0
  159.2390  212.8540  149.8090 C   0  0  0  0  0  0  0  0  0  0  0  0
  158.3470  212.9530  154.5280 C   0  0  0  0  0  0  0  0  0  0  0  0
  161.7700  210.7160  151.5980 C   0  0  0  0  0  2  0  0  0  0  0  0
  160.6130  211.5810  151.3540 N   0  0  0  0  0  0  0  0  0  0  0  0
  160.3050  212.0440  150.0110 C   0  0  0  0  0  0  0  0  0  0  0  0
  157.7800  213.5660  155.9750 S   0  0  0  0  0  0  0  0  0  0  0  0
  162.9050  211.0260  150.6350 C   0  0  0  0  0  2  0  0  0  0  0  0
  157.9330  213.2840  153.3420 N   0  0  0  0  0  0  0  0  0  0  0  0
  158.9300  212.7840  156.9490 C   0  0  0  0  0  3  0  0  0  0  0  0
  159.5440  211.5790  152.3580 C   0  0  1  0  0  3  0  0  0  0  0  0
  160.0700  211.5020  153.7790 C   0  0  0  0  0  3  0  0  0  0  0  0
  161.2980  211.8340  148.8840 C   0  0  0  0  0  2  0  0  0  0  0  0
  158.5990  212.7520  152.1780 C   0  0  0  0  0  0  0  0  0  0  0  0
  158.3930  213.2920  150.9630 C   0  0  0  0  0  0  0  0  0  0  0  0
  162.4240  210.8500  149.1970 C   0  0  2  0  0  3  0  0  0  0  0  0
  159.4310  212.1270  154.7690 C   0  0  0  0  0  0  0  0  0  0  0  0
  156.1370  214.0910  151.5080 C   0  0  0  0  0  2  0  0  0  0  0  0
  157.4260  214.4520  150.8660 C   0  0  2  0  0  3  0  0  0  0  0  0
  156.2760  214.1500  150.1080 O   0  0  0  0  0  0  0  0  0  0  0  0
  161.9970  209.4150  148.8510 C   0  0  0  0  0  2  0  0  0  0  0  0
  162.7210  208.3440  149.6670 C   0  0  0  0  0  2  0  0  0  0  0  0
  161.3780  206.2780  149.9120 C   0  0  0  0  0  0  0  0  0  0  0  0
  161.7300  205.7310  148.5960 C   0  0  0  0  0  2  0  0  0  0  0  0
  161.7770  207.4520  150.4140 C   0  0  0  0  0  3  0  0  0  0  0  0
  160.8350  204.5920  148.4330 N   0  0  0  0  0  0  0  0  0  0  0  0
  160.4690  204.1510  149.7280 N   0  0  0  0  0  2  0  0  0  0  0  0
  160.4870  205.3290  150.5920 C   0  0  0  0  0  2  0  0  0  0  0  0
  161.5310  203.5200  147.7090 C   0  0  1  0  0  3  0  0  0  0  0  0
  160.7360  200.4840  149.9170 F   0  0  0  0  0  0  0  0  0  0  0  0
  159.2980  201.8790  148.6310 F   0  0  0  0  0  0  0  0  0  0  0  0
  161.2800  201.0870  147.7690 O   0  0  0  0  0  0  0  0  0  0  0  0
  161.7800  202.1980  148.4870 C   0  0  2  0  0  3  0  0  0  0  0  0
  160.5770  201.4470  148.9340 C   0  0  0  0  0  0  0  0  0  0  0  0
  160.9920  202.4440  145.6260 O   0  0  0  0  0  0  0  0  0  0  0  0
  161.1330  204.7750  145.5640 N   0  0  0  0  0  2  0  0  0  0  0  0
  160.8440  204.8660  144.1400 C   0  0  0  0  0  1  0  0  0  0  0  0
  161.2400  203.5170  146.2370 C   0  0  0  0  0  0  0  0  0  0  0  0
  158.9630  213.3650  148.5310 O   0  0  0  0  0  0  0  0  0  0  0  0
  158.6280  213.3200  146.0080 C   0  0  2  0  0  0  0  0  0  0  0  0
  157.5230  212.7720  146.8610 C   0  0  0  0  0  2  0  0  0  0  0  0
  158.9240  212.5560  147.3610 C   0  0  2  0  0  0  0  0  0  0  0  0
  160.0230  213.1360  146.5190 C   0  0  0  0  0  2  0  0  0  0  0  0
  158.5850  212.5770  144.7320 N   0  0  0  0  0  2  0  0  0  0  0  0
  158.8690  213.3530  143.5200 C   0  0  0  0  0  2  0  0  0  0  0  0
  159.3970  212.4280  142.4390 C   0  0  0  0  0  2  0  0  0  0  0  0
  160.6470  212.8710  142.0080 O   0  0  0  0  0  0  0  0  0  0  0  0
  160.7720  212.4190  140.3710 P   0  0  1  0  0  0  0  0  0  0  0  0
  160.7820  214.3520  138.6810 O   0  0  0  0  0  0  0  0  0  0  0  0
  161.7510  213.5680  139.3620 C   0  0  1  0  0  3  0  0  0  0  0  0
  161.1960  210.9780  140.1750 O   0  0  0  0  0  0  0  0  0  0  0  0
  159.4870  213.8770  138.6920 N   0  0  0  0  0  0  0  0  0  0  0  0
  159.3040  212.8590  139.4620 C   0  0  0  0  0  0  0  0  0  0  0  0
  163.7310  213.7090  140.6640 O   0  0  0  0  0  1  0  0  0  0  0  0
  162.6490  214.4520  140.1960 C   0  0  0  0  0  2  0  0  0  0  0  0
  158.0580  212.2210  139.5100 O   0  0  0  0  0  0  0  0  0  0  0  0
  157.6880  211.0060  138.8500 C   0  0  2  0  0  3  0  0  0  0  0  0
  158.9910  209.5160  137.5370 O   0  0  0  0  0  0  0  0  0  0  0  0
  158.8420  210.0740  138.6100 C   0  0  0  0  0  3  0  0  0  0  0  0
  156.8040  211.2480  137.6290 C   0  0  0  0  0  2  0  0  0  0  0  0
  155.4150  209.7880  138.5250 C   0  0  0  0  0  1  0  0  0  0  0  0
  155.4570  211.0600  137.9500 O   0  0  0  0  0  0  0  0  0  0  0  0
  1 10  2  0  0  0  0
  2  6  2  0  0  0  0
  2 15  1  0  0  0  0
  3 17  1  0  0  0  0
  3  7  1  0  0  0  0
  5  4  1  0  0  0  0
  5 11  1  0  0  0  0
  6  5  1  0  0  0  0
  7 10  1  0  0  0  0
  8  4  1  0  0  0  0
  9  3  2  0  0  0  0
 11 12  1  1  0  0  0
 12 17  2  0  0  0  0
 13 16  1  0  0  0  0
 13  6  1  0  0  0  0
 14 11  1  0  0  0  0
 14  9  1  0  0  0  0
 15 14  2  0  0  0  0
 16 21  1  1  0  0  0
 16  8  1  0  0  0  0
 17  1  1  0  0  0  0
 19 15  1  6  0  0  0
 19 18  1  0  0  0  0
 20 19  1  0  0  0  0
 20 18  1  0  0  0  0
 21 22  1  0  0  0  0
 22 25  1  0  0  0  0
 23 25  2  0  0  0  0
 23 28  1  0  0  0  0
 24 23  1  0  0  0  0
 26 24  1  0  0  0  0
 26 27  1  0  0  0  0
 27 28  1  0  0  0  0
 29 38  1  6  0  0  0
 29 26  1  0  0  0  0
 31 34  1  0  0  0  0
 32 33  1  0  0  0  0
 32 34  1  0  0  0  0
 33 29  1  6  0  0  0
 33 34  1  0  0  0  0
 34 30  1  0  0  0  0
 35 38  2  0  0  0  0
 36 38  1  0  0  0  0
 37 36  1  0  0  0  0
 39  2  1  0  0  0  0
 40 44  1  6  0  0  0
 40 43  1  0  0  0  0
 40 41  1  0  0  0  0
 40 42  1  0  0  0  0
 41 42  1  0  0  0  0
 42 39  1  1  0  0  0
 43 42  1  0  0  0  0
 45 44  1  0  0  0  0
 46 45  1  0  0  0  0
 47 46  1  0  0  0  0
 48 51  2  6  0  0  0
 48 47  1  0  0  0  0
 49 52  1  0  0  0  0
 49 50  1  0  0  0  0
 50 55  1  1  0  0  0
 50 48  1  0  0  0  0
 52 53  2  0  0  0  0
 53 56  1  0  0  0  0
 53 48  1  0  0  0  0
 55 54  1  0  0  0  0
 57 60  1  6  0  0  0
 57 56  1  0  0  0  0
 58 59  2  0  0  0  0
 59 57  1  0  0  0  0
 60 62  1  0  0  0  0
 62 61  1  0  0  0  0
M  END
>  <MODEL>
6

>  <REMARK>
 VINA RESULT:      -3.4      4.800     11.931
  Name = 
  20 active torsions:
  status: ('A' for Active; 'I' for Inactive)
    1  A    between atoms: C_4  and  C_54
    2  A    between atoms: C_4  and  O_55
    3  A    between atoms: C_4  and  C_57
    4  A    between atoms: P_5  and  O_40
    5  A    between atoms: C_6  and  N_15
    6  A    between atoms: C_8  and  O_31
    7  A    between atoms: N_15  and  C_19
    8  A    between atoms: C_19  and  C_36
    9  A    between atoms: C_24  and  C_35
   10  A    between atoms: C_24  and  C_37
   11  A    between atoms: C_26  and  C_27
   12  A    between atoms: C_26  and  N_41
   13  A    between atoms: C_26  and  C_49
   14  A    between atoms: O_30  and  C_57
   15  A    between atoms: O_31  and  C_39
   16  A    between atoms: C_32  and  C_51
   17  A    between atoms: C_35  and  C_59
   18  A    between atoms: C_36  and  O_40
   19  A    between atoms: C_45  and  C_53
   20  A    between atoms: O_55  and  C_58
                            x       y       z     vdW  Elec       q    Type
                         _______ _______ _______ _____ _____    ______ ____

>  <TORSDO>
F 20

$$$$
=
 OpenBabel11042422573D

 62 71  0  0  1  0  0  0  0  0999 V2000
  160.9240  199.0020  146.8550 C   0  0  0  0  0  3  0  0  0  0  0  0
  160.9150  205.2340  148.2650 C   0  0  0  0  0  0  0  0  0  0  0  0
  161.1840  201.0870  145.8540 C   0  0  0  0  0  0  0  0  0  0  0  0
  160.8890  202.3690  150.7080 C   0  0  0  0  0  2  0  0  0  0  0  0
  160.9610  203.1150  149.4490 N   0  0  0  0  0  0  0  0  0  0  0  0
  160.8600  204.5650  149.4400 C   0  0  0  0  0  0  0  0  0  0  0  0
  161.0010  200.0420  144.5630 S   0  0  0  0  0  0  0  0  0  0  0  0
  159.9770  203.0620  151.7090 C   0  0  0  0  0  2  0  0  0  0  0  0
  161.2440  202.3830  145.7860 N   0  0  0  0  0  2  0  0  0  0  0  0
  160.8350  198.6410  145.5060 C   0  0  0  0  0  3  0  0  0  0  0  0
  161.5920  202.4480  148.3050 C   0  0  0  0  0  0  0  0  0  0  0  0
  161.2540  200.9720  148.2230 C   0  0  0  0  0  3  0  0  0  0  0  0
  160.4470  205.3100  150.6960 C   0  0  0  0  0  2  0  0  0  0  0  0
  161.2890  203.1610  147.0000 C   0  0  0  0  0  0  0  0  0  0  0  0
  161.0570  204.4850  146.9760 C   0  0  0  0  0  0  0  0  0  0  0  0
  160.4830  204.4770  151.9750 C   0  0  2  0  0  3  0  0  0  0  0  0
  161.1270  200.3740  147.0380 C   0  0  0  0  0  0  0  0  0  0  0  0
  161.9600  205.8930  145.1790 C   0  0  0  0  0  2  0  0  0  0  0  0
  160.7740  205.1230  145.6320 C   0  0  2  0  0  3  0  0  0  0  0  0
  160.8070  206.5330  145.6730 O   0  0  0  0  0  0  0  0  0  0  0  0
  161.8790  204.5320  152.6150 C   0  0  0  0  0  2  0  0  0  0  0  0
  162.1240  205.7880  153.4500 C   0  0  0  0  0  2  0  0  0  0  0  0
  161.2160  208.0760  153.1770 C   0  0  0  0  0  0  0  0  0  0  0  0
  160.5400  208.1100  154.4790 C   0  0  0  0  0  2  0  0  0  0  0  0
  161.9090  207.0500  152.6710 C   0  0  0  0  0  3  0  0  0  0  0  0
  159.7240  209.3160  154.4260 N   0  0  0  0  0  0  0  0  0  0  0  0
  160.3260  210.1950  153.4940 N   0  0  0  0  0  2  0  0  0  0  0  0
  160.9910  209.3580  152.4980 C   0  0  0  0  0  2  0  0  0  0  0  0
  159.6780  209.9380  155.7560 C   0  0  1  0  0  3  0  0  0  0  0  0
  163.3720  210.2010  156.7570 F   0  0  0  0  0  0  0  0  0  0  0  0
  162.1180  211.4200  155.1420 F   0  0  0  0  0  0  0  0  0  0  0  0
  161.2840  211.0210  157.2500 O   0  0  0  0  0  0  0  0  0  0  0  0
  160.9450  209.7900  156.6420 C   0  0  2  0  0  3  0  0  0  0  0  0
  162.1450  210.5680  156.2310 C   0  0  0  0  0  0  0  0  0  0  0  0
  157.8950  211.3550  154.9790 O   0  0  0  0  0  0  0  0  0  0  0  0
  159.0550  212.1130  156.8610 N   0  0  0  0  0  2  0  0  0  0  0  0
  158.2810  213.3390  156.9820 C   0  0  0  0  0  1  0  0  0  0  0  0
  158.8380  211.1820  155.7960 C   0  0  0  0  0  0  0  0  0  0  0  0
  160.7520  206.6270  148.2270 O   0  0  0  0  0  0  0  0  0  0  0  0
  161.7660  208.9520  148.4500 C   0  0  2  0  0  0  0  0  0  0  0  0
  162.7090  207.8060  148.2310 C   0  0  0  0  0  2  0  0  0  0  0  0
  161.4870  207.5190  149.0580 C   0  0  2  0  0  0  0  0  0  0  0  0
  160.5330  208.6620  149.2460 C   0  0  0  0  0  2  0  0  0  0  0  0
  162.5030  209.9600  149.2380 N   0  0  0  0  0  2  0  0  0  0  0  0
  161.8810  211.2840  149.3420 C   0  0  0  0  0  2  0  0  0  0  0  0
  161.9530  211.9850  147.9990 C   0  0  0  0  0  2  0  0  0  0  0  0
  160.8980  211.5630  147.1890 O   0  0  0  0  0  0  0  0  0  0  0  0
  160.5120  212.8850  146.1880 P   0  0  1  0  0  0  0  0  0  0  0  0
  158.0140  213.2040  145.6820 O   0  0  0  0  0  0  0  0  0  0  0  0
  158.9520  213.7070  146.6230 C   0  0  1  0  0  3  0  0  0  0  0  0
  161.6520  213.8690  146.0220 O   0  0  0  0  0  0  0  0  0  0  0  0
  158.5340  212.5520  144.5840 N   0  0  0  0  0  0  0  0  0  0  0  0
  159.8050  212.3470  144.6440 C   0  0  0  0  0  0  0  0  0  0  0  0
  159.3040  214.0790  148.9420 O   0  0  0  0  0  1  0  0  0  0  0  0
  158.5030  213.3910  148.0310 C   0  0  0  0  0  2  0  0  0  0  0  0
  160.4820  211.7670  143.5620 O   0  0  0  0  0  0  0  0  0  0  0  0
  160.9370  212.4300  142.3780 C   0  0  2  0  0  3  0  0  0  0  0  0
  160.4830  214.4320  141.1830 O   0  0  0  0  0  0  0  0  0  0  0  0
  160.0800  213.5960  141.9720 C   0  0  0  0  0  3  0  0  0  0  0  0
  161.2560  211.4550  141.2470 C   0  0  0  0  0  2  0  0  0  0  0  0
  162.8850  210.4310  140.1710 C   0  0  0  0  0  1  0  0  0  0  0  0
  162.5640  211.6400  140.7920 O   0  0  0  0  0  0  0  0  0  0  0  0
  1 17  1  0  0  0  0
  2  6  2  0  0  0  0
  3 17  2  0  0  0  0
  4  8  1  0  0  0  0
  5  4  1  0  0  0  0
  6  5  1  0  0  0  0
  6 13  1  0  0  0  0
  7 10  1  0  0  0  0
  7  3  1  0  0  0  0
  8 16  1  0  0  0  0
  9  3  1  0  0  0  0
  9 14  1  0  0  0  0
 10  1  2  0  0  0  0
 11  5  1  0  0  0  0
 12 11  2  0  0  0  0
 13 16  1  0  0  0  0
 14 11  1  0  0  0  0
 15 14  2  0  0  0  0
 15  2  1  0  0  0  0
 16 21  1  6  0  0  0
 17 12  1  0  0  0  0
 18 19  1  0  0  0  0
 18 20  1  0  0  0  0
 19 20  1  0  0  0  0
 19 15  1  1  0  0  0
 21 22  1  0  0  0  0
 23 24  1  0  0  0  0
 25 23  2  0  0  0  0
 25 22  1  0  0  0  0
 26 24  1  0  0  0  0
 26 29  1  0  0  0  0
 27 26  1  0  0  0  0
 28 23  1  0  0  0  0
 28 27  1  0  0  0  0
 29 38  1  6  0  0  0
 31 34  1  0  0  0  0
 33 29  1  6  0  0  0
 33 32  1  0  0  0  0
 34 33  1  0  0  0  0
 34 30  1  0  0  0  0
 34 32  1  0  0  0  0
 35 38  2  0  0  0  0
 36 37  1  0  0  0  0
 38 36  1  0  0  0  0
 39  2  1  0  0  0  0
 40 42  1  0  0  0  0
 40 44  1  1  0  0  0
 40 43  1  0  0  0  0
 41 40  1  0  0  0  0
 41 42  1  0  0  0  0
 42 39  1  6  0  0  0
 42 43  1  0  0  0  0
 44 45  1  0  0  0  0
 46 45  1  0  0  0  0
 47 46  1  0  0  0  0
 48 51  2  6  0  0  0
 48 50  1  0  0  0  0
 48 47  1  0  0  0  0
 49 50  1  0  0  0  0
 50 55  1  1  0  0  0
 52 53  2  0  0  0  0
 52 49  1  0  0  0  0
 53 48  1  0  0  0  0
 55 54  1  0  0  0  0
 56 53  1  0  0  0  0
 57 60  1  6  0  0  0
 57 56  1  0  0  0  0
 58 59  2  0  0  0  0
 59 57  1  0  0  0  0
 61 62  1  0  0  0  0
 62 60  1  0  0  0  0
M  END
>  <MODEL>
7

>  <REMARK>
 VINA RESULT:      -3.0      3.818      9.270
  Name = 
  20 active torsions:
  status: ('A' for Active; 'I' for Inactive)
    1  A    between atoms: C_4  and  C_54
    2  A    between atoms: C_4  and  O_55
    3  A    between atoms: C_4  and  C_57
    4  A    between atoms: P_5  and  O_40
    5  A    between atoms: C_6  and  N_15
    6  A    between atoms: C_8  and  O_31
    7  A    between atoms: N_15  and  C_19
    8  A    between atoms: C_19  and  C_36
    9  A    between atoms: C_24  and  C_35
   10  A    between atoms: C_24  and  C_37
   11  A    between atoms: C_26  and  C_27
   12  A    between atoms: C_26  and  N_41
   13  A    between atoms: C_26  and  C_49
   14  A    between atoms: O_30  and  C_57
   15  A    between atoms: O_31  and  C_39
   16  A    between atoms: C_32  and  C_51
   17  A    between atoms: C_35  and  C_59
   18  A    between atoms: C_36  and  O_40
   19  A    between atoms: C_45  and  C_53
   20  A    between atoms: O_55  and  C_58
                            x       y       z     vdW  Elec       q    Type
                         _______ _______ _______ _____ _____    ______ ____

>  <TORSDO>
F 20

$$$$
=
 OpenBabel11042422573D

 62 71  0  0  1  0  0  0  0  0999 V2000
  159.9150  211.5920  140.2190 C   0  0  0  0  0  3  0  0  0  0  0  0
  161.2160  213.4970  146.1770 C   0  0  0  0  0  0  0  0  0  0  0  0
  161.7120  211.9720  141.6490 C   0  0  0  0  0  0  0  0  0  0  0  0
  157.8260  212.6640  144.7650 C   0  0  0  0  0  2  0  0  0  0  0  0
  159.2780  212.8160  144.8810 N   0  0  0  0  0  0  0  0  0  0  0  0
  159.8720  213.3520  146.0950 C   0  0  0  0  0  0  0  0  0  0  0  0
  162.4220  211.8230  140.1430 S   0  0  0  0  0  0  0  0  0  0  0  0
  157.0930  213.7480  145.5410 C   0  0  0  0  0  2  0  0  0  0  0  0
  162.3160  212.3080  142.7490 N   0  0  0  0  0  2  0  0  0  0  0  0
  160.9720  211.5610  139.3010 C   0  0  0  0  0  3  0  0  0  0  0  0
  160.1150  212.0070  143.9880 C   0  0  0  0  0  0  0  0  0  0  0  0
  159.5360  211.8820  142.5920 C   0  0  0  0  0  3  0  0  0  0  0  0
  158.9950  213.9770  147.1630 C   0  0  0  0  0  2  0  0  0  0  0  0
  161.5480  212.5060  143.9530 C   0  0  0  0  0  0  0  0  0  0  0  0
  162.0870  213.1290  145.0170 C   0  0  0  0  0  0  0  0  0  0  0  0
  157.5010  213.6970  147.0110 C   0  0  2  0  0  3  0  0  0  0  0  0
  160.3420  211.8150  141.5320 C   0  0  0  0  0  0  0  0  0  0  0  0
  163.6900  214.4530  143.7130 C   0  0  0  0  0  2  0  0  0  0  0  0
  163.5260  213.5860  144.9060 C   0  0  2  0  0  3  0  0  0  0  0  0
  164.1630  213.1270  143.7340 O   0  0  0  0  0  0  0  0  0  0  0  0
  157.1250  212.3860  147.7190 C   0  0  0  0  0  2  0  0  0  0  0  0
  156.8660  212.5480  149.2170 C   0  0  0  0  0  2  0  0  0  0  0  0
  158.1610  213.4140  151.1410 C   0  0  0  0  0  0  0  0  0  0  0  0
  157.6870  212.4000  152.0910 C   0  0  0  0  0  2  0  0  0  0  0  0
  157.7980  213.5290  149.8600 C   0  0  0  0  0  3  0  0  0  0  0  0
  158.1600  212.8750  153.3850 N   0  0  0  0  0  0  0  0  0  0  0  0
  159.2910  213.6950  153.1490 N   0  0  0  0  0  2  0  0  0  0  0  0
  159.0960  214.3070  151.8370 C   0  0  0  0  0  2  0  0  0  0  0  0
  158.5310  211.7280  154.2240 C   0  0  1  0  0  3  0  0  0  0  0  0
  161.5880  209.5010  154.8690 F   0  0  0  0  0  0  0  0  0  0  0  0
  159.2680  209.0670  155.1750 F   0  0  0  0  0  0  0  0  0  0  0  0
  160.0540  210.0740  153.2600 O   0  0  0  0  0  0  0  0  0  0  0  0
  159.9910  211.2110  154.0970 C   0  0  2  0  0  3  0  0  0  0  0  0
  160.2690  209.8520  154.6330 C   0  0  0  0  0  0  0  0  0  0  0  0
  158.3890  211.9960  156.6120 O   0  0  0  0  0  0  0  0  0  0  0  0
  156.3960  211.4370  155.5270 N   0  0  0  0  0  2  0  0  0  0  0  0
  155.6110  211.3990  156.7510 C   0  0  0  0  0  1  0  0  0  0  0  0
  157.8040  211.6970  155.5370 C   0  0  0  0  0  0  0  0  0  0  0  0
  161.8040  214.0740  147.3120 O   0  0  0  0  0  0  0  0  0  0  0  0
  162.1150  211.7970  148.4070 C   0  0  2  0  0  0  0  0  0  0  0  0
  161.4230  212.8600  149.2090 C   0  0  0  0  0  2  0  0  0  0  0  0
  162.5170  213.3220  148.2870 C   0  0  2  0  0  0  0  0  0  0  0  0
  163.1820  212.2570  147.4660 C   0  0  0  0  0  2  0  0  0  0  0  0
  162.8070  210.9220  149.3750 N   0  0  0  0  0  2  0  0  0  0  0  0
  161.9510  210.0650  150.2030 C   0  0  0  0  0  2  0  0  0  0  0  0
  162.2340  208.6090  149.8840 C   0  0  0  0  0  2  0  0  0  0  0  0
  161.5450  208.2350  148.7300 O   0  0  0  0  0  0  0  0  0  0  0  0
  160.7930  206.7500  149.0860 P   0  0  1  0  0  0  0  0  0  0  0  0
  162.3310  204.9230  150.0300 O   0  0  0  0  0  0  0  0  0  0  0  0
  161.4640  205.9190  150.5550 C   0  0  1  0  0  3  0  0  0  0  0  0
  159.2800  206.8320  149.1150 O   0  0  0  0  0  0  0  0  0  0  0  0
  162.2030  204.6410  148.6860 N   0  0  0  0  0  0  0  0  0  0  0  0
  161.4160  205.4410  148.0510 C   0  0  0  0  0  0  0  0  0  0  0  0
  162.5800  206.2000  152.6320 O   0  0  0  0  0  1  0  0  0  0  0  0
  162.2310  206.8600  151.4540 C   0  0  0  0  0  2  0  0  0  0  0  0
  161.1270  205.2250  146.6970 O   0  0  0  0  0  0  0  0  0  0  0  0
  161.9450  204.5410  145.7420 C   0  0  2  0  0  3  0  0  0  0  0  0
  161.1030  205.6440  143.8140 O   0  0  0  0  0  0  0  0  0  0  0  0
  162.0820  205.2680  144.4340 C   0  0  0  0  0  3  0  0  0  0  0  0
  161.5820  203.0640  145.6100 C   0  0  0  0  0  2  0  0  0  0  0  0
  159.8450  201.7160  145.4470 C   0  0  0  0  0  1  0  0  0  0  0  0
  160.3230  202.8150  146.1640 O   0  0  0  0  0  0  0  0  0  0  0  0
  1 17  1  0  0  0  0
  2 39  1  0  0  0  0
  3  9  1  0  0  0  0
  4  5  1  0  0  0  0
  4  8  1  0  0  0  0
  5  6  1  0  0  0  0
  6  2  2  0  0  0  0
  6 13  1  0  0  0  0
  7  3  1  0  0  0  0
  8 16  1  0  0  0  0
  9 14  1  0  0  0  0
 10  7  1  0  0  0  0
 10  1  2  0  0  0  0
 11  5  1  0  0  0  0
 12 11  2  0  0  0  0
 14 11  1  0  0  0  0
 14 15  2  0  0  0  0
 15  2  1  0  0  0  0
 16 13  1  0  0  0  0
 16 21  1  6  0  0  0
 17  3  2  0  0  0  0
 17 12  1  0  0  0  0
 18 20  1  0  0  0  0
 18 19  1  0  0  0  0
 19 15  1  6  0  0  0
 20 19  1  0  0  0  0
 21 22  1  0  0  0  0
 22 25  1  0  0  0  0
 23 28  1  0  0  0  0
 23 24  1  0  0  0  0
 24 26  1  0  0  0  0
 25 23  2  0  0  0  0
 26 29  1  0  0  0  0
 27 26  1  0  0  0  0
 28 27  1  0  0  0  0
 29 38  1  1  0  0  0
 32 33  1  0  0  0  0
 32 34  1  0  0  0  0
 33 29  1  1  0  0  0
 33 34  1  0  0  0  0
 34 30  1  0  0  0  0
 34 31  1  0  0  0  0
 36 38  1  0  0  0  0
 36 37  1  0  0  0  0
 38 35  2  0  0  0  0
 40 41  1  0  0  0  0
 40 44  1  1  0  0  0
 42 39  1  6  0  0  0
 42 40  1  0  0  0  0
 42 41  1  0  0  0  0
 43 42  1  0  0  0  0
 43 40  1  0  0  0  0
 44 45  1  0  0  0  0
 46 45  1  0  0  0  0
 47 48  1  0  0  0  0
 47 46  1  0  0  0  0
 48 51  2  1  0  0  0
 48 50  1  0  0  0  0
 49 50  1  0  0  0  0
 50 55  1  1  0  0  0
 52 49  1  0  0  0  0
 53 52  2  0  0  0  0
 53 48  1  0  0  0  0
 55 54  1  0  0  0  0
 56 53  1  0  0  0  0
 57 59  1  6  0  0  0
 57 56  1  0  0  0  0
 58 59  2  0  0  0  0
 60 57  1  0  0  0  0
 60 62  1  0  0  0  0
 61 62  1  0  0  0  0
M  END
>  <MODEL>
8

>  <REMARK>
 VINA RESULT:      -1.8      4.210     10.464
  Name = 
  20 active torsions:
  status: ('A' for Active; 'I' for Inactive)
    1  A    between atoms: C_4  and  C_54
    2  A    between atoms: C_4  and  O_55
    3  A    between atoms: C_4  and  C_57
    4  A    between atoms: P_5  and  O_40
    5  A    between atoms: C_6  and  N_15
    6  A    between atoms: C_8  and  O_31
    7  A    between atoms: N_15  and  C_19
    8  A    between atoms: C_19  and  C_36
    9  A    between atoms: C_24  and  C_35
   10  A    between atoms: C_24  and  C_37
   11  A    between atoms: C_26  and  C_27
   12  A    between atoms: C_26  and  N_41
   13  A    between atoms: C_26  and  C_49
   14  A    between atoms: O_30  and  C_57
   15  A    between atoms: O_31  and  C_39
   16  A    between atoms: C_32  and  C_51
   17  A    between atoms: C_35  and  C_59
   18  A    between atoms: C_36  and  O_40
   19  A    between atoms: C_45  and  C_53
   20  A    between atoms: O_55  and  C_58
                            x       y       z     vdW  Elec       q    Type
                         _______ _______ _______ _____ _____    ______ ____

>  <TORSDO>
F 20

$$$$
=
 OpenBabel11042422573D

 62 71  0  0  1  0  0  0  0  0999 V2000
  159.8220  211.6850  155.5330 C   0  0  0  0  0  3  0  0  0  0  0  0
  160.5150  212.1510  149.1990 C   0  0  0  0  0  0  0  0  0  0  0  0
  159.0610  212.9200  153.7130 C   0  0  0  0  0  0  0  0  0  0  0  0
  161.8340  209.4080  151.4160 C   0  0  0  0  0  2  0  0  0  0  0  0
  161.1100  210.6020  150.9710 N   0  0  0  0  0  0  0  0  0  0  0  0
  161.1800  211.0380  149.5860 C   0  0  0  0  0  0  0  0  0  0  0  0
  158.5520  213.8030  155.0370 S   0  0  0  0  0  0  0  0  0  0  0  0
  163.1280  209.2260  150.6390 C   0  0  0  0  0  2  0  0  0  0  0  0
  158.9640  213.2830  152.4690 N   0  0  0  0  0  0  0  0  0  0  0  0
  159.1960  212.7460  156.1990 C   0  0  0  0  0  3  0  0  0  0  0  0
  159.9800  211.0520  151.7920 C   0  0  1  0  0  3  0  0  0  0  0  0
  160.2380  210.9050  153.2800 C   0  0  0  0  0  3  0  0  0  0  0  0
  162.1810  210.4070  148.6370 C   0  0  0  0  0  2  0  0  0  0  0  0
  159.5530  212.4630  151.4380 C   0  0  0  0  0  0  0  0  0  0  0  0
  159.7270  212.9450  150.1940 C   0  0  0  0  0  0  0  0  0  0  0  0
  162.8240  209.1190  149.1470 C   0  0  2  0  0  3  0  0  0  0  0  0
  159.7320  211.7890  154.1410 C   0  0  0  0  0  0  0  0  0  0  0  0
  157.7930  214.4530  150.1000 C   0  0  0  0  0  2  0  0  0  0  0  0
  159.2630  214.3600  149.9190 C   0  0  2  0  0  3  0  0  0  0  0  0
  158.3820  214.4470  148.8210 O   0  0  0  0  0  0  0  0  0  0  0  0
  161.9660  207.9020  148.7690 C   0  0  0  0  0  2  0  0  0  0  0  0
  161.4260  207.9500  147.3400 C   0  0  0  0  0  2  0  0  0  0  0  0
  161.8450  205.5420  146.9400 C   0  0  0  0  0  0  0  0  0  0  0  0
  161.3760  205.1020  148.2590 C   0  0  0  0  0  2  0  0  0  0  0  0
  161.9080  206.8040  146.5030 C   0  0  0  0  0  3  0  0  0  0  0  0
  161.7630  203.6990  148.3260 N   0  0  0  0  0  0  0  0  0  0  0  0
  161.8610  203.2220  146.9950 N   0  0  0  0  0  2  0  0  0  0  0  0
  162.2590  204.3610  146.1720 C   0  0  0  0  0  2  0  0  0  0  0  0
  160.7430  202.9410  149.0620 C   0  0  1  0  0  3  0  0  0  0  0  0
  161.2090  199.4620  147.5120 F   0  0  0  0  0  0  0  0  0  0  0  0
  162.7250  200.8190  148.7490 F   0  0  0  0  0  0  0  0  0  0  0  0
  160.5460  200.5310  149.4330 O   0  0  0  0  0  0  0  0  0  0  0  0
  160.3440  201.5570  148.4810 C   0  0  2  0  0  3  0  0  0  0  0  0
  161.4310  200.5510  148.3390 C   0  0  0  0  0  0  0  0  0  0  0  0
  161.5470  202.5200  151.2910 O   0  0  0  0  0  0  0  0  0  0  0  0
  160.0170  204.2720  151.0720 N   0  0  0  0  0  2  0  0  0  0  0  0
  160.0040  204.5850  152.4930 C   0  0  0  0  0  1  0  0  0  0  0  0
  160.7820  203.1840  150.5430 C   0  0  0  0  0  0  0  0  0  0  0  0
  160.6230  212.6260  147.8830 O   0  0  0  0  0  0  0  0  0  0  0  0
  159.9540  212.5450  145.4280 C   0  0  2  0  0  0  0  0  0  0  0  0
  158.9750  212.0050  146.4280 C   0  0  0  0  0  2  0  0  0  0  0  0
  160.4320  211.8010  146.7400 C   0  0  2  0  0  0  0  0  0  0  0  0
  161.4050  212.3720  145.7500 C   0  0  0  0  0  2  0  0  0  0  0  0
  159.7450  211.7840  144.1800 N   0  0  0  0  0  2  0  0  0  0  0  0
  160.0360  212.4950  142.9300 C   0  0  0  0  0  2  0  0  0  0  0  0
  160.0860  211.5030  141.7830 C   0  0  0  0  0  2  0  0  0  0  0  0
  161.2350  211.7210  141.0210 O   0  0  0  0  0  0  0  0  0  0  0  0
  160.7090  211.8900  139.4100 P   0  0  1  0  0  0  0  0  0  0  0  0
  160.0760  214.2720  138.6910 O   0  0  0  0  0  0  0  0  0  0  0  0
  161.2280  213.4430  138.6250 C   0  0  1  0  0  3  0  0  0  0  0  0
  161.0120  210.6820  138.5480 O   0  0  0  0  0  0  0  0  0  0  0  0
  158.8840  213.6480  138.9920 N   0  0  0  0  0  0  0  0  0  0  0  0
  159.0070  212.4110  139.3330 C   0  0  0  0  0  0  0  0  0  0  0  0
  163.4050  214.3710  138.4310 O   0  0  0  0  0  1  0  0  0  0  0  0
  162.3860  214.0970  139.3420 C   0  0  0  0  0  2  0  0  0  0  0  0
  157.8720  211.6290  139.5880 O   0  0  0  0  0  0  0  0  0  0  0  0
  157.0130  211.0200  138.6190 C   0  0  2  0  0  3  0  0  0  0  0  0
  157.3190  208.8320  137.7430 O   0  0  0  0  0  0  0  0  0  0  0  0
  157.7000  209.9900  137.7660 C   0  0  0  0  0  3  0  0  0  0  0  0
  156.1920  212.0430  137.8380 C   0  0  0  0  0  2  0  0  0  0  0  0
  154.9150  211.5080  139.5540 C   0  0  0  0  0  1  0  0  0  0  0  0
  154.8600  212.0330  138.2610 O   0  0  0  0  0  0  0  0  0  0  0  0
  1 10  2  0  0  0  0
  2  6  2  0  0  0  0
  2 15  1  0  0  0  0
  3 17  1  0  0  0  0
  3  7  1  0  0  0  0
  5  4  1  0  0  0  0
  5 11  1  0  0  0  0
  6  5  1  0  0  0  0
  7 10  1  0  0  0  0
  8  4  1  0  0  0  0
  9  3  2  0  0  0  0
 11 12  1  1  0  0  0
 12 17  2  0  0  0  0
 13 16  1  0  0  0  0
 13  6  1  0  0  0  0
 14 11  1  0  0  0  0
 14  9  1  0  0  0  0
 15 14  2  0  0  0  0
 16 21  1  1  0  0  0
 16  8  1  0  0  0  0
 17  1  1  0  0  0  0
 19 18  1  0  0  0  0
 19 15  1  6  0  0  0
 20 19  1  0  0  0  0
 20 18  1  0  0  0  0
 22 21  1  0  0  0  0
 23 24  1  0  0  0  0
 24 26  1  0  0  0  0
 25 23  2  0  0  0  0
 25 22  1  0  0  0  0
 26 29  1  0  0  0  0
 27 26  1  0  0  0  0
 28 23  1  0  0  0  0
 28 27  1  0  0  0  0
 29 38  1  1  0  0  0
 30 34  1  0  0  0  0
 33 29  1  1  0  0  0
 33 32  1  0  0  0  0
 34 33  1  0  0  0  0
 34 31  1  0  0  0  0
 34 32  1  0  0  0  0
 36 37  1  0  0  0  0
 38 36  1  0  0  0  0
 38 35  2  0  0  0  0
 39  2  1  0  0  0  0
 40 44  1  6  0  0  0
 40 43  1  0  0  0  0
 40 41  1  0  0  0  0
 40 42  1  0  0  0  0
 41 42  1  0  0  0  0
 42 39  1  1  0  0  0
 43 42  1  0  0  0  0
 45 44  1  0  0  0  0
 46 45  1  0  0  0  0
 47 46  1  0  0  0  0
 48 51  2  6  0  0  0
 48 47  1  0  0  0  0
 49 52  1  0  0  0  0
 50 49  1  0  0  0  0
 50 55  1  1  0  0  0
 50 48  1  0  0  0  0
 52 53  2  0  0  0  0
 53 48  1  0  0  0  0
 53 56  1  0  0  0  0
 54 55  1  0  0  0  0
 57 59  1  6  0  0  0
 57 56  1  0  0  0  0
 58 59  2  0  0  0  0
 60 62  1  0  0  0  0
 60 57  1  0  0  0  0
 62 61  1  0  0  0  0
M  END
>  <MODEL>
9

>  <REMARK>
 VINA RESULT:      -1.7      5.054     12.258
  Name = 
  20 active torsions:
  status: ('A' for Active; 'I' for Inactive)
    1  A    between atoms: C_4  and  C_54
    2  A    between atoms: C_4  and  O_55
    3  A    between atoms: C_4  and  C_57
    4  A    between atoms: P_5  and  O_40
    5  A    between atoms: C_6  and  N_15
    6  A    between atoms: C_8  and  O_31
    7  A    between atoms: N_15  and  C_19
    8  A    between atoms: C_19  and  C_36
    9  A    between atoms: C_24  and  C_35
   10  A    between atoms: C_24  and  C_37
   11  A    between atoms: C_26  and  C_27
   12  A    between atoms: C_26  and  N_41
   13  A    between atoms: C_26  and  C_49
   14  A    between atoms: O_30  and  C_57
   15  A    between atoms: O_31  and  C_39
   16  A    between atoms: C_32  and  C_51
   17  A    between atoms: C_35  and  C_59
   18  A    between atoms: C_36  and  O_40
   19  A    between atoms: C_45  and  C_53
   20  A    between atoms: O_55  and  C_58
                            x       y       z     vdW  Elec       q    Type
                         _______ _______ _______ _____ _____    ______ ____

>  <TORSDO>
F 20

$$$$
