=
 OpenBabel11052411353D

 46 49  0  0  1  0  0  0  0  0999 V2000
  162.7220  213.3700  145.7320 O   0  0  0  0  0  0  0  0  0  0  0  0
  161.6060  213.8180  145.3450 C   0  0  0  0  0  0  0  0  0  0  0  0
  161.4080  212.5150  147.9640 N   0  0  0  0  0  0  0  0  0  0  0  0
  160.4010  213.1950  147.5060 C   0  0  0  0  0  0  0  0  0  0  0  0
  160.4670  213.8050  146.2130 N   0  0  0  0  0  2  0  0  0  0  0  0
  155.8750  213.9950  151.3880 F   0  0  0  0  0  0  0  0  0  0  0  0
  159.1290  213.2950  148.2470 C   0  0  0  0  0  0  0  0  0  0  0  0
  159.5490  214.0710  151.7460 C   0  0  0  0  0  3  0  0  0  0  0  0
  157.7600  213.2470  147.6380 C   0  0  0  0  0  3  0  0  0  0  0  0
  159.9210  213.7690  150.4690 N   0  0  0  0  0  0  0  0  0  0  0  0
  157.2010  213.9970  151.0980 C   0  0  0  0  0  0  0  0  0  0  0  0
  158.1880  214.1940  152.0970 C   0  0  0  0  0  0  0  0  0  0  0  0
  158.9630  213.5740  149.5280 C   0  0  1  0  0  3  0  0  0  0  0  0
  156.8790  213.5140  148.7800 N   0  0  0  0  0  0  0  0  0  0  0  0
  157.6330  213.6970  149.8080 C   0  0  0  0  0  0  0  0  0  0  0  0
  157.8760  214.4530  153.4380 O   0  0  0  0  0  0  0  0  0  0  0  0
  157.5390  213.4910  154.3930 C   0  0  0  0  0  0  0  0  0  0  0  0
  157.9810  213.5520  155.5700 O   0  0  0  0  0  0  0  0  0  0  0  0
  156.7860  212.4230  154.0230 F   0  0  0  0  0  0  0  0  0  0  0  0
  161.8450  210.4580  149.2460 C   0  0  0  0  0  0  0  0  0  0  0  0
  162.4810  209.9560  148.2830 O   0  0  0  0  0  0  0  0  0  0  0  0
  161.3530  211.7930  149.1640 N   0  0  0  0  0  2  0  0  0  0  0  0
  161.5450  209.6320  150.4450 C   0  0  0  0  0  2  0  0  0  0  0  0
  162.6980  208.7960  150.7500 N   0  0  0  0  0  2  0  0  0  0  0  0
  162.4320  207.5370  150.2560 O   0  0  0  0  0  0  0  0  0  0  0  0
  162.2680  206.4420  151.1060 C   0  0  0  0  0  0  0  0  0  0  0  0
  163.0990  206.2180  152.0260 O   0  0  0  0  0  0  0  0  0  0  0  0
  160.8850  203.4600  149.6240 C   0  0  0  0  0  2  0  0  0  0  0  0
  161.1170  205.5080  150.9140 C   0  0  2  0  0  3  0  0  0  0  0  0
  161.6050  204.0730  150.8080 C   0  0  1  0  0  3  0  0  0  0  0  0
  160.3640  205.8130  149.6270 C   0  0  0  0  0  2  0  0  0  0  0  0
  160.5420  204.6180  148.6970 C   0  0  1  0  0  3  0  0  0  0  0  0
  161.3700  205.8970  146.6200 C   0  0  1  0  0  3  0  0  0  0  0  0
  163.1460  204.1380  145.5410 S   0  0  0  0  0  0  0  0  0  0  0  0
  161.3220  207.2340  147.1800 N   0  0  0  0  0  1  0  0  0  0  0  0
  160.9560  202.7990  146.4100 C   0  0  0  0  0  1  0  0  0  0  0  0
  162.4910  205.8340  145.6080 C   0  0  0  0  0  2  0  0  0  0  0  0
  161.6890  204.8650  147.6910 C   0  0  2  0  0  3  0  0  0  0  0  0
  162.1340  203.6060  146.9490 C   0  0  2  0  0  3  0  0  0  0  0  0
  160.5480  204.0540  153.1250 C   0  0  0  0  0  1  0  0  0  0  0  0
  161.3700  203.2820  152.0950 C   0  0  0  0  0  2  0  0  0  0  0  0
  161.4670  214.3460  143.9570 C   0  0  0  0  0  2  0  0  0  0  0  0
  161.5860  213.2440  142.9650 C   0  0  0  0  0  0  0  0  0  0  0  0
  160.4410  212.4680  142.6300 N   0  0  0  0  0  2  0  0  0  0  0  0
  160.4890  211.4410  141.6130 C   0  0  0  0  0  1  0  0  0  0  0  0
  162.6860  213.0430  142.3890 O   0  0  0  0  0  0  0  0  0  0  0  0
  2  1  2  0  0  0  0
  2  5  1  0  0  0  0
  3 22  1  0  0  0  0
  4  3  2  0  0  0  0
  4  7  1  0  0  0  0
  5  4  1  0  0  0  0
  8 12  1  0  0  0  0
  9  7  2  0  0  0  0
  9 14  1  0  0  0  0
 10  8  2  0  0  0  0
 11  6  1  0  0  0  0
 11 12  2  0  0  0  0
 12 16  1  0  0  0  0
 13  7  1  6  0  0  0
 13 15  1  0  0  0  0
 13 10  1  0  0  0  0
 14 15  2  0  0  0  0
 15 11  1  0  0  0  0
 16 17  1  0  0  0  0
 17 18  2  0  0  0  0
 19 17  1  0  0  0  0
 20 23  1  0  0  0  0
 21 20  2  0  0  0  0
 22 20  1  0  0  0  0
 23 24  1  0  0  0  0
 25 24  1  0  0  0  0
 25 26  1  0  0  0  0
 26 27  2  0  0  0  0
 28 30  1  0  0  0  0
 29 26  1  6  0  0  0
 30 29  1  0  0  0  0
 30 41  1  1  0  0  0
 31 29  1  0  0  0  0
 32 28  1  1  0  0  0
 32 31  1  0  0  0  0
 33 35  1  1  0  0  0
 33 38  1  0  0  0  0
 34 37  1  0  0  0  0
 34 39  1  0  0  0  0
 37 33  1  0  0  0  0
 38 32  1  6  0  0  0
 39 36  1  6  0  0  0
 39 38  1  0  0  0  0
 41 40  1  0  0  0  0
 42  2  1  0  0  0  0
 43 42  1  0  0  0  0
 44 43  1  0  0  0  0
 45 44  1  0  0  0  0
 46 43  2  0  0  0  0
M  END
>  <MODEL>
1

>  <REMARK>
 VINA RESULT:      -6.4      0.000      0.000
  Name = 
  13 active torsions:
  status: ('A' for Active; 'I' for Inactive)
    1  A    between atoms: C_2  and  C_28
    2  A    between atoms: C_2  and  O_34
    3  A    between atoms: O_3  and  C_5
    4  A    between atoms: O_3  and  C_38
    5  A    between atoms: C_7  and  C_11
    6  A    between atoms: C_7  and  N_43
    7  A    between atoms: C_10  and  C_27
    8  A    between atoms: C_12  and  C_36
    9  A    between atoms: C_13  and  C_36
   10  A    between atoms: N_17  and  N_42
   11  A    between atoms: C_25  and  C_33
   12  A    between atoms: C_30  and  C_35
   13  A    between atoms: O_34  and  N_43
                            x       y       z     vdW  Elec       q    Type
                         _______ _______ _______ _____ _____    ______ ____

>  <TORSDO>
F 13

$$$$
=
 OpenBabel11052411353D

 46 49  0  0  1  0  0  0  0  0999 V2000
  162.2630  210.0570  148.6300 O   0  0  0  0  0  0  0  0  0  0  0  0
  162.1230  211.1850  149.1810 C   0  0  0  0  0  0  0  0  0  0  0  0
  161.4960  208.9880  151.0200 N   0  0  0  0  0  0  0  0  0  0  0  0
  161.5880  210.2010  151.4750 C   0  0  0  0  0  0  0  0  0  0  0  0
  161.8550  211.2900  150.5840 N   0  0  0  0  0  2  0  0  0  0  0  0
  159.4560  211.5420  156.9380 F   0  0  0  0  0  0  0  0  0  0  0  0
  161.3370  210.5210  152.8920 C   0  0  0  0  0  0  0  0  0  0  0  0
  157.9290  211.4910  153.5770 C   0  0  0  0  0  3  0  0  0  0  0  0
  162.3120  210.3300  154.0150 C   0  0  0  0  0  2  0  0  0  0  0  0
  159.0100  211.1310  152.8270 N   0  0  0  0  0  0  0  0  0  0  0  0
  159.2660  211.3460  155.6080 C   0  0  0  0  0  0  0  0  0  0  0  0
  158.0230  211.6080  154.9790 C   0  0  0  0  0  0  0  0  0  0  0  0
  160.1950  210.8940  153.4440 C   0  0  0  0  0  0  0  0  0  0  0  0
  161.5250  210.6770  155.2030 N   0  0  0  0  0  0  0  0  0  0  0  0
  160.3390  210.9750  154.7990 C   0  0  0  0  0  0  0  0  0  0  0  0
  156.8880  212.0330  155.6820 O   0  0  0  0  0  0  0  0  0  0  0  0
  155.7450  211.2650  155.9170 C   0  0  0  0  0  0  0  0  0  0  0  0
  155.1340  211.3170  157.0160 O   0  0  0  0  0  0  0  0  0  0  0  0
  155.3320  210.3820  154.9710 F   0  0  0  0  0  0  0  0  0  0  0  0
  161.9260  206.7360  151.9210 C   0  0  0  0  0  0  0  0  0  0  0  0
  163.0780  206.7200  151.4140 O   0  0  0  0  0  0  0  0  0  0  0  0
  161.1140  207.9040  151.8210 N   0  0  0  0  0  2  0  0  0  0  0  0
  161.3830  205.5100  152.5630 C   0  0  0  0  0  2  0  0  0  0  0  0
  162.0310  204.3410  151.9850 N   0  0  0  0  0  2  0  0  0  0  0  0
  161.0360  203.4640  151.6140 O   0  0  0  0  0  0  0  0  0  0  0  0
  161.3330  202.2480  150.9950 C   0  0  0  0  0  0  0  0  0  0  0  0
  162.2330  201.4980  151.4600 O   0  0  0  0  0  0  0  0  0  0  0  0
  161.1080  202.1390  147.3980 C   0  0  0  0  0  2  0  0  0  0  0  0
  160.6030  201.8370  149.7560 C   0  0  2  0  0  3  0  0  0  0  0  0
  161.5830  201.4520  148.6620 C   0  0  1  0  0  3  0  0  0  0  0  0
  159.7560  202.9770  149.2090 C   0  0  0  0  0  2  0  0  0  0  0  0
  160.3370  203.3700  147.8550 C   0  0  1  0  0  3  0  0  0  0  0  0
  160.5730  205.9150  148.1800 C   0  0  1  0  0  3  0  0  0  0  0  0
  162.9270  206.4320  146.9150 S   0  0  0  0  0  0  0  0  0  0  0  0
  159.9680  206.0020  149.4960 N   0  0  0  0  0  1  0  0  0  0  0  0
  161.4860  204.6560  145.4610 C   0  0  0  0  0  1  0  0  0  0  0  0
  161.6260  206.9920  148.0560 C   0  0  0  0  0  2  0  0  0  0  0  0
  161.2840  204.5830  147.9900 C   0  0  2  0  0  3  0  0  0  0  0  0
  162.2180  204.7680  146.7950 C   0  0  2  0  0  3  0  0  0  0  0  0
  161.5820  199.5000  147.0250 C   0  0  0  0  0  1  0  0  0  0  0  0
  161.6910  199.9370  148.4850 C   0  0  0  0  0  2  0  0  0  0  0  0
  162.2120  212.4230  148.3550 C   0  0  0  0  0  2  0  0  0  0  0  0
  160.9200  212.6840  147.6650 C   0  0  0  0  0  0  0  0  0  0  0  0
  160.8290  212.5260  146.2530 N   0  0  0  0  0  2  0  0  0  0  0  0
  159.5750  212.6870  145.5490 C   0  0  0  0  0  1  0  0  0  0  0  0
  159.9040  212.9860  148.3420 O   0  0  0  0  0  0  0  0  0  0  0  0
  1  2  2  0  0  0  0
  2  5  1  0  0  0  0
  3  4  2  0  0  0  0
  3 22  1  0  0  0  0
  4  7  1  0  0  0  0
  5  4  1  0  0  0  0
  7 13  2  0  0  0  0
  7  9  1  0  0  0  0
  8 12  1  0  0  0  0
  9 14  1  0  0  0  0
 10 13  1  0  0  0  0
 10  8  2  0  0  0  0
 11  6  1  0  0  0  0
 12 11  2  0  0  0  0
 12 16  1  0  0  0  0
 13 15  1  0  0  0  0
 15 14  2  0  0  0  0
 15 11  1  0  0  0  0
 16 17  1  0  0  0  0
 17 18  2  0  0  0  0
 19 17  1  0  0  0  0
 20 23  1  0  0  0  0
 21 20  2  0  0  0  0
 22 20  1  0  0  0  0
 24 23  1  0  0  0  0
 25 24  1  0  0  0  0
 26 27  2  0  0  0  0
 26 25  1  0  0  0  0
 28 30  1  0  0  0  0
 29 26  1  1  0  0  0
 30 41  1  6  0  0  0
 30 29  1  0  0  0  0
 31 29  1  0  0  0  0
 32 28  1  1  0  0  0
 32 31  1  0  0  0  0
 33 35  1  1  0  0  0
 34 37  1  0  0  0  0
 37 33  1  0  0  0  0
 38 32  1  6  0  0  0
 38 33  1  0  0  0  0
 39 36  1  6  0  0  0
 39 34  1  0  0  0  0
 39 38  1  0  0  0  0
 40 41  1  0  0  0  0
 42  2  1  0  0  0  0
 43 46  2  0  0  0  0
 43 42  1  0  0  0  0
 44 43  1  0  0  0  0
 45 44  1  0  0  0  0
M  END
>  <MODEL>
2

>  <REMARK>
 VINA RESULT:      -5.9      2.669      4.600
  Name = 
  13 active torsions:
  status: ('A' for Active; 'I' for Inactive)
    1  A    between atoms: C_2  and  C_28
    2  A    between atoms: C_2  and  O_34
    3  A    between atoms: O_3  and  C_5
    4  A    between atoms: O_3  and  C_38
    5  A    between atoms: C_7  and  C_11
    6  A    between atoms: C_7  and  N_43
    7  A    between atoms: C_10  and  C_27
    8  A    between atoms: C_12  and  C_36
    9  A    between atoms: C_13  and  C_36
   10  A    between atoms: N_17  and  N_42
   11  A    between atoms: C_25  and  C_33
   12  A    between atoms: C_30  and  C_35
   13  A    between atoms: O_34  and  N_43
                            x       y       z     vdW  Elec       q    Type
                         _______ _______ _______ _____ _____    ______ ____

>  <TORSDO>
F 13

$$$$
=
 OpenBabel11052411353D

 46 49  0  0  1  0  0  0  0  0999 V2000
  159.4360  212.1170  152.0220 O   0  0  0  0  0  0  0  0  0  0  0  0
  159.5300  213.2340  151.4400 C   0  0  0  0  0  0  0  0  0  0  0  0
  161.0680  211.1550  150.0590 N   0  0  0  0  0  0  0  0  0  0  0  0
  160.8990  212.3120  149.4950 C   0  0  0  0  0  0  0  0  0  0  0  0
  160.1840  213.3510  150.1720 N   0  0  0  0  0  2  0  0  0  0  0  0
  162.2750  213.5890  143.7790 F   0  0  0  0  0  0  0  0  0  0  0  0
  161.5030  212.6340  148.1880 C   0  0  0  0  0  0  0  0  0  0  0  0
  159.1830  212.4310  145.4310 C   0  0  0  0  0  3  0  0  0  0  0  0
  162.8920  213.1550  147.9750 C   0  0  0  0  0  2  0  0  0  0  0  0
  159.6230  212.3240  146.7170 N   0  0  0  0  0  0  0  0  0  0  0  0
  161.3710  213.2420  144.7310 C   0  0  0  0  0  0  0  0  0  0  0  0
  160.0370  212.8910  144.4070 C   0  0  0  0  0  0  0  0  0  0  0  0
  160.9070  212.6550  147.0090 C   0  0  0  0  0  0  0  0  0  0  0  0
  162.9310  213.4200  146.5330 N   0  0  0  0  0  0  0  0  0  0  0  0
  161.7710  213.1210  146.0600 C   0  0  0  0  0  0  0  0  0  0  0  0
  159.5350  212.9260  143.0990 O   0  0  0  0  0  0  0  0  0  0  0  0
  160.0050  212.1600  142.0280 C   0  0  0  0  0  0  0  0  0  0  0  0
  159.3750  212.0980  140.9410 O   0  0  0  0  0  0  0  0  0  0  0  0
  161.1190  211.4020  142.1930 F   0  0  0  0  0  0  0  0  0  0  0  0
  161.8920  208.8340  150.0570 C   0  0  0  0  0  0  0  0  0  0  0  0
  161.0840  208.5130  150.9670 O   0  0  0  0  0  0  0  0  0  0  0  0
  161.8630  210.1450  149.5000 N   0  0  0  0  0  2  0  0  0  0  0  0
  162.9270  207.8640  149.6110 C   0  0  0  0  0  2  0  0  0  0  0  0
  162.6730  207.4980  148.2240 N   0  0  0  0  0  2  0  0  0  0  0  0
  161.3360  207.1790  148.1240 O   0  0  0  0  0  0  0  0  0  0  0  0
  160.8320  206.5050  147.0100 C   0  0  0  0  0  0  0  0  0  0  0  0
  159.6590  206.7260  146.6070 O   0  0  0  0  0  0  0  0  0  0  0  0
  161.3110  203.1390  145.8080 C   0  0  0  0  0  2  0  0  0  0  0  0
  161.6720  205.4920  146.3010 C   0  0  2  0  0  3  0  0  0  0  0  0
  160.8000  204.5340  145.5080 C   0  0  1  0  0  3  0  0  0  0  0  0
  162.4720  204.6500  147.2850 C   0  0  0  0  0  2  0  0  0  0  0  0
  161.9590  203.2170  147.1830 C   0  0  1  0  0  3  0  0  0  0  0  0
  161.4090  203.2110  149.7000 C   0  0  1  0  0  3  0  0  0  0  0  0
  159.5830  201.2010  149.8770 S   0  0  0  0  0  0  0  0  0  0  0  0
  161.5260  204.6390  149.9310 N   0  0  0  0  0  1  0  0  0  0  0  0
  161.5760  200.4710  148.1930 C   0  0  0  0  0  1  0  0  0  0  0  0
  160.3710  202.6500  150.6450 C   0  0  0  0  0  2  0  0  0  0  0  0
  160.9210  202.9210  148.2890 C   0  0  2  0  0  3  0  0  0  0  0  0
  160.4310  201.4740  148.2990 C   0  0  2  0  0  3  0  0  0  0  0  0
  162.0810  205.5630  143.5620 C   0  0  0  0  0  1  0  0  0  0  0  0
  160.8120  204.8400  144.0100 C   0  0  0  0  0  2  0  0  0  0  0  0
  158.9730  214.4530  152.0950 C   0  0  0  0  0  2  0  0  0  0  0  0
  158.0390  214.0760  153.1900 C   0  0  0  0  0  0  0  0  0  0  0  0
  156.6560  213.8930  152.9080 N   0  0  0  0  0  2  0  0  0  0  0  0
  155.7250  213.4460  153.9220 C   0  0  0  0  0  1  0  0  0  0  0  0
  158.4900  213.8680  154.3460 O   0  0  0  0  0  0  0  0  0  0  0  0
  2  1  2  0  0  0  0
  2 42  1  0  0  0  0
  4  3  2  0  0  0  0
  4  5  1  0  0  0  0
  5  2  1  0  0  0  0
  6 11  1  0  0  0  0
  7  4  1  0  0  0  0
  8 10  2  0  0  0  0
  9  7  1  0  0  0  0
 10 13  1  0  0  0  0
 11 15  1  0  0  0  0
 12 11  2  0  0  0  0
 12  8  1  0  0  0  0
 13  7  2  0  0  0  0
 14  9  1  0  0  0  0
 15 14  2  0  0  0  0
 15 13  1  0  0  0  0
 16 12  1  0  0  0  0
 17 19  1  0  0  0  0
 17 16  1  0  0  0  0
 18 17  2  0  0  0  0
 20 21  2  0  0  0  0
 22 20  1  0  0  0  0
 22  3  1  0  0  0  0
 23 20  1  0  0  0  0
 24 23  1  0  0  0  0
 25 24  1  0  0  0  0
 26 25  1  0  0  0  0
 27 26  2  0  0  0  0
 29 26  1  1  0  0  0
 29 31  1  0  0  0  0
 30 41  1  6  0  0  0
 30 28  1  0  0  0  0
 30 29  1  0  0  0  0
 32 28  1  6  0  0  0
 32 31  1  0  0  0  0
 33 35  1  6  0  0  0
 33 37  1  0  0  0  0
 34 37  1  0  0  0  0
 38 32  1  6  0  0  0
 38 39  1  0  0  0  0
 38 33  1  0  0  0  0
 39 36  1  1  0  0  0
 39 34  1  0  0  0  0
 40 41  1  0  0  0  0
 42 43  1  0  0  0  0
 43 46  2  0  0  0  0
 44 43  1  0  0  0  0
 44 45  1  0  0  0  0
M  END
>  <MODEL>
3

>  <REMARK>
 VINA RESULT:      -5.8      3.157      7.070
  Name = 
  13 active torsions:
  status: ('A' for Active; 'I' for Inactive)
    1  A    between atoms: C_2  and  C_28
    2  A    between atoms: C_2  and  O_34
    3  A    between atoms: O_3  and  C_5
    4  A    between atoms: O_3  and  C_38
    5  A    between atoms: C_7  and  C_11
    6  A    between atoms: C_7  and  N_43
    7  A    between atoms: C_10  and  C_27
    8  A    between atoms: C_12  and  C_36
    9  A    between atoms: C_13  and  C_36
   10  A    between atoms: N_17  and  N_42
   11  A    between atoms: C_25  and  C_33
   12  A    between atoms: C_30  and  C_35
   13  A    between atoms: O_34  and  N_43
                            x       y       z     vdW  Elec       q    Type
                         _______ _______ _______ _____ _____    ______ ____

>  <TORSDO>
F 13

$$$$
=
 OpenBabel11052411353D

 46 49  0  0  1  0  0  0  0  0999 V2000
  161.6970  213.7910  147.4000 O   0  0  0  0  0  0  0  0  0  0  0  0
  162.4880  212.8430  147.1320 C   0  0  0  0  0  0  0  0  0  0  0  0
  161.0400  212.3790  149.6400 N   0  0  0  0  0  0  0  0  0  0  0  0
  161.7490  211.4230  149.1200 C   0  0  0  0  0  0  0  0  0  0  0  0
  162.4930  211.6450  147.9170 N   0  0  0  0  0  2  0  0  0  0  0  0
  162.2930  205.6560  150.7440 F   0  0  0  0  0  0  0  0  0  0  0  0
  161.8900  210.1120  149.7810 C   0  0  0  0  0  0  0  0  0  0  0  0
  161.4820  207.3090  147.5440 C   0  0  0  0  0  3  0  0  0  0  0  0
  162.3150  209.8940  151.2020 C   0  0  0  0  0  2  0  0  0  0  0  0
  161.5030  208.6160  147.9360 N   0  0  0  0  0  0  0  0  0  0  0  0
  162.1020  206.6050  149.7920 C   0  0  0  0  0  0  0  0  0  0  0  0
  161.7790  206.2730  148.4530 C   0  0  0  0  0  0  0  0  0  0  0  0
  161.8030  208.9160  149.2250 C   0  0  0  0  0  0  0  0  0  0  0  0
  162.4100  208.4340  151.3010 N   0  0  0  0  0  0  0  0  0  0  0  0
  162.1150  207.9540  150.1430 C   0  0  0  0  0  0  0  0  0  0  0  0
  161.6880  204.9520  147.9960 O   0  0  0  0  0  0  0  0  0  0  0  0
  162.1300  204.4900  146.7530 C   0  0  0  0  0  0  0  0  0  0  0  0
  161.3770  203.8260  145.9940 O   0  0  0  0  0  0  0  0  0  0  0  0
  163.4240  204.6910  146.3930 F   0  0  0  0  0  0  0  0  0  0  0  0
  159.6370  213.3350  151.4230 C   0  0  0  0  0  0  0  0  0  0  0  0
  159.4020  214.3610  150.7320 O   0  0  0  0  0  0  0  0  0  0  0  0
  160.3950  212.2580  150.8780 N   0  0  0  0  0  2  0  0  0  0  0  0
  159.1830  213.2780  152.8380 C   0  0  0  0  0  2  0  0  0  0  0  0
  159.5580  211.9920  153.4080 N   0  0  0  0  0  2  0  0  0  0  0  0
  160.6180  212.2160  154.2600 O   0  0  0  0  0  0  0  0  0  0  0  0
  161.2730  211.1610  154.8990 C   0  0  0  0  0  0  0  0  0  0  0  0
  162.3590  210.7150  154.4440 O   0  0  0  0  0  0  0  0  0  0  0  0
  158.3920  209.8850  156.6530 C   0  0  0  0  0  2  0  0  0  0  0  0
  160.6730  210.5320  156.1150 C   0  0  2  0  0  3  0  0  0  0  0  0
  159.5540  209.5810  155.7290 C   0  0  1  0  0  3  0  0  0  0  0  0
  160.0640  211.5780  157.0370 C   0  0  0  0  0  2  0  0  0  0  0  0
  158.5580  211.3400  157.0690 C   0  0  1  0  0  3  0  0  0  0  0  0
  157.8310  213.7400  156.4800 C   0  0  1  0  0  3  0  0  0  0  0  0
  155.5700  213.3080  155.0290 S   0  0  0  0  0  0  0  0  0  0  0  0
  159.1550  214.3180  156.3420 N   0  0  0  0  0  1  0  0  0  0  0  0
  155.6220  211.6240  157.1510 C   0  0  0  0  0  1  0  0  0  0  0  0
  156.8890  214.4530  155.5370 C   0  0  0  0  0  2  0  0  0  0  0  0
  157.8290  212.2730  156.0770 C   0  0  2  0  0  3  0  0  0  0  0  0
  156.3650  211.8990  155.8470 C   0  0  2  0  0  3  0  0  0  0  0  0
  160.3810  207.6890  157.2200 C   0  0  0  0  0  1  0  0  0  0  0  0
  159.9820  208.1150  155.8080 C   0  0  0  0  0  2  0  0  0  0  0  0
  163.4480  212.9830  145.9990 C   0  0  0  0  0  2  0  0  0  0  0  0
  162.7160  213.1140  144.7100 C   0  0  0  0  0  0  0  0  0  0  0  0
  161.3360  212.7760  144.6430 N   0  0  0  0  0  2  0  0  0  0  0  0
  160.5630  212.9650  143.4350 C   0  0  0  0  0  1  0  0  0  0  0  0
  163.3110  213.5770  143.7030 O   0  0  0  0  0  0  0  0  0  0  0  0
  2  1  2  0  0  0  0
  2  5  1  0  0  0  0
  3 22  1  0  0  0  0
  4  3  2  0  0  0  0
  4  7  1  0  0  0  0
  5  4  1  0  0  0  0
  7  9  1  0  0  0  0
  8 10  2  0  0  0  0
  8 12  1  0  0  0  0
  9 14  1  0  0  0  0
 10 13  1  0  0  0  0
 11 15  1  0  0  0  0
 11  6  1  0  0  0  0
 12 11  2  0  0  0  0
 13  7  2  0  0  0  0
 13 15  1  0  0  0  0
 15 14  2  0  0  0  0
 16 12  1  0  0  0  0
 17 16  1  0  0  0  0
 18 17  2  0  0  0  0
 19 17  1  0  0  0  0
 20 23  1  0  0  0  0
 21 20  2  0  0  0  0
 22 20  1  0  0  0  0
 23 24  1  0  0  0  0
 24 25  1  0  0  0  0
 25 26  1  0  0  0  0
 27 26  2  0  0  0  0
 29 26  1  6  0  0  0
 29 31  1  0  0  0  0
 30 41  1  1  0  0  0
 30 29  1  0  0  0  0
 30 28  1  0  0  0  0
 31 32  1  0  0  0  0
 32 28  1  6  0  0  0
 33 35  1  6  0  0  0
 34 37  1  0  0  0  0
 34 39  1  0  0  0  0
 37 33  1  0  0  0  0
 38 33  1  0  0  0  0
 38 32  1  1  0  0  0
 39 38  1  0  0  0  0
 39 36  1  1  0  0  0
 41 40  1  0  0  0  0
 42  2  1  0  0  0  0
 43 42  1  0  0  0  0
 44 43  1  0  0  0  0
 45 44  1  0  0  0  0
 46 43  2  0  0  0  0
M  END
>  <MODEL>
4

>  <REMARK>
 VINA RESULT:      -5.6      4.342      8.463
  Name = 
  13 active torsions:
  status: ('A' for Active; 'I' for Inactive)
    1  A    between atoms: C_2  and  C_28
    2  A    between atoms: C_2  and  O_34
    3  A    between atoms: O_3  and  C_5
    4  A    between atoms: O_3  and  C_38
    5  A    between atoms: C_7  and  C_11
    6  A    between atoms: C_7  and  N_43
    7  A    between atoms: C_10  and  C_27
    8  A    between atoms: C_12  and  C_36
    9  A    between atoms: C_13  and  C_36
   10  A    between atoms: N_17  and  N_42
   11  A    between atoms: C_25  and  C_33
   12  A    between atoms: C_30  and  C_35
   13  A    between atoms: O_34  and  N_43
                            x       y       z     vdW  Elec       q    Type
                         _______ _______ _______ _____ _____    ______ ____

>  <TORSDO>
F 13

$$$$
=
 OpenBabel11052411353D

 46 49  0  0  1  0  0  0  0  0999 V2000
  161.9650  210.2190  148.8670 O   0  0  0  0  0  0  0  0  0  0  0  0
  161.9530  211.3510  149.4280 C   0  0  0  0  0  0  0  0  0  0  0  0
  161.1910  209.2100  151.2810 N   0  0  0  0  0  0  0  0  0  0  0  0
  161.4150  210.4050  151.7360 C   0  0  0  0  0  0  0  0  0  0  0  0
  161.7500  211.4710  150.8400 N   0  0  0  0  0  2  0  0  0  0  0  0
  159.6650  212.0460  157.2530 F   0  0  0  0  0  0  0  0  0  0  0  0
  161.2490  210.7360  153.1640 C   0  0  0  0  0  0  0  0  0  0  0  0
  158.1450  212.4190  153.9100 C   0  0  0  0  0  3  0  0  0  0  0  0
  162.1650  210.3070  154.2700 C   0  0  0  0  0  2  0  0  0  0  0  0
  159.1150  211.8480  153.1390 N   0  0  0  0  0  0  0  0  0  0  0  0
  159.4290  211.9300  155.9210 C   0  0  0  0  0  0  0  0  0  0  0  0
  158.2710  212.4760  155.3130 C   0  0  0  0  0  0  0  0  0  0  0  0
  160.2220  211.3390  153.7370 C   0  0  0  0  0  0  0  0  0  0  0  0
  161.4810  210.7890  155.4750 N   0  0  0  0  0  0  0  0  0  0  0  0
  160.3890  211.3530  155.0920 C   0  0  0  0  0  0  0  0  0  0  0  0
  157.2620  213.1240  156.0380 O   0  0  0  0  0  0  0  0  0  0  0  0
  155.8890  212.9550  155.8460 C   0  0  0  0  0  0  0  0  0  0  0  0
  155.0780  213.8960  156.0480 O   0  0  0  0  0  0  0  0  0  0  0  0
  155.4110  211.7280  155.5150 F   0  0  0  0  0  0  0  0  0  0  0  0
  161.5050  206.9700  152.2550 C   0  0  0  0  0  0  0  0  0  0  0  0
  162.6760  206.9010  151.8000 O   0  0  0  0  0  0  0  0  0  0  0  0
  160.7380  208.1610  152.0920 N   0  0  0  0  0  2  0  0  0  0  0  0
  160.8930  205.7800  152.9040 C   0  0  0  0  0  2  0  0  0  0  0  0
  161.2100  204.5940  152.1230 N   0  0  0  0  0  2  0  0  0  0  0  0
  160.3000  204.5290  151.0890 O   0  0  0  0  0  0  0  0  0  0  0  0
  160.6540  204.0160  149.8400 C   0  0  0  0  0  0  0  0  0  0  0  0
  160.1090  202.9680  149.4030 O   0  0  0  0  0  0  0  0  0  0  0  0
  161.6380  205.7380  146.8280 C   0  0  0  0  0  2  0  0  0  0  0  0
  161.7060  204.6920  149.0220 C   0  0  2  0  0  3  0  0  0  0  0  0
  161.1150  205.8560  148.2460 C   0  0  1  0  0  3  0  0  0  0  0  0
  162.3090  203.7400  147.9990 C   0  0  0  0  0  2  0  0  0  0  0  0
  161.9360  204.2600  146.6140 C   0  0  1  0  0  3  0  0  0  0  0  0
  160.9550  202.1060  145.5980 C   0  0  1  0  0  3  0  0  0  0  0  0
  158.8870  203.0700  144.1140 S   0  0  0  0  0  0  0  0  0  0  0  0
  161.2090  201.2240  146.7220 N   0  0  0  0  0  1  0  0  0  0  0  0
  161.0370  204.6960  143.8380 C   0  0  0  0  0  1  0  0  0  0  0  0
  159.7040  201.6410  144.8880 C   0  0  0  0  0  2  0  0  0  0  0  0
  160.6910  203.5290  146.0660 C   0  0  2  0  0  3  0  0  0  0  0  0
  160.0280  204.2460  144.8900 C   0  0  2  0  0  3  0  0  0  0  0  0
  162.7060  207.8450  148.2630 C   0  0  0  0  0  1  0  0  0  0  0  0
  161.4580  207.2080  148.8720 C   0  0  0  0  0  2  0  0  0  0  0  0
  162.1290  212.5820  148.6030 C   0  0  0  0  0  2  0  0  0  0  0  0
  160.8270  213.0130  148.0270 C   0  0  0  0  0  0  0  0  0  0  0  0
  160.2290  212.2510  146.9830 N   0  0  0  0  0  2  0  0  0  0  0  0
  158.9270  212.5840  146.4490 C   0  0  0  0  0  1  0  0  0  0  0  0
  160.2370  214.0150  148.5060 O   0  0  0  0  0  0  0  0  0  0  0  0
  1  2  2  0  0  0  0
  2  5  1  0  0  0  0
  3  4  2  0  0  0  0
  3 22  1  0  0  0  0
  4  7  1  0  0  0  0
  5  4  1  0  0  0  0
  7 13  2  0  0  0  0
  7  9  1  0  0  0  0
  8 12  1  0  0  0  0
  9 14  1  0  0  0  0
 10 13  1  0  0  0  0
 10  8  2  0  0  0  0
 11  6  1  0  0  0  0
 12 11  2  0  0  0  0
 12 16  1  0  0  0  0
 13 15  1  0  0  0  0
 15 14  2  0  0  0  0
 15 11  1  0  0  0  0
 17 16  1  0  0  0  0
 17 18  2  0  0  0  0
 19 17  1  0  0  0  0
 20 23  1  0  0  0  0
 21 20  2  0  0  0  0
 22 20  1  0  0  0  0
 24 23  1  0  0  0  0
 25 24  1  0  0  0  0
 26 25  1  0  0  0  0
 27 26  2  0  0  0  0
 28 30  1  0  0  0  0
 29 26  1  6  0  0  0
 30 41  1  1  0  0  0
 30 29  1  0  0  0  0
 31 29  1  0  0  0  0
 32 28  1  1  0  0  0
 32 31  1  0  0  0  0
 33 38  1  0  0  0  0
 33 35  1  1  0  0  0
 34 37  1  0  0  0  0
 34 39  1  0  0  0  0
 37 33  1  0  0  0  0
 38 32  1  6  0  0  0
 39 36  1  6  0  0  0
 39 38  1  0  0  0  0
 40 41  1  0  0  0  0
 42  2  1  0  0  0  0
 43 46  2  0  0  0  0
 43 42  1  0  0  0  0
 44 43  1  0  0  0  0
 45 44  1  0  0  0  0
M  END
>  <MODEL>
5

>  <REMARK>
 VINA RESULT:      -5.4      2.770      4.781
  Name = 
  13 active torsions:
  status: ('A' for Active; 'I' for Inactive)
    1  A    between atoms: C_2  and  C_28
    2  A    between atoms: C_2  and  O_34
    3  A    between atoms: O_3  and  C_5
    4  A    between atoms: O_3  and  C_38
    5  A    between atoms: C_7  and  C_11
    6  A    between atoms: C_7  and  N_43
    7  A    between atoms: C_10  and  C_27
    8  A    between atoms: C_12  and  C_36
    9  A    between atoms: C_13  and  C_36
   10  A    between atoms: N_17  and  N_42
   11  A    between atoms: C_25  and  C_33
   12  A    between atoms: C_30  and  C_35
   13  A    between atoms: O_34  and  N_43
                            x       y       z     vdW  Elec       q    Type
                         _______ _______ _______ _____ _____    ______ ____

>  <TORSDO>
F 13

$$$$
=
 OpenBabel11052411353D

 46 49  0  0  1  0  0  0  0  0999 V2000
  159.8660  212.1790  151.5950 O   0  0  0  0  0  0  0  0  0  0  0  0
  159.8130  213.2950  151.0070 C   0  0  0  0  0  0  0  0  0  0  0  0
  161.5160  211.3880  149.5730 N   0  0  0  0  0  0  0  0  0  0  0  0
  161.1990  212.5150  149.0110 C   0  0  0  0  0  0  0  0  0  0  0  0
  160.4010  213.4740  149.7130 N   0  0  0  0  0  2  0  0  0  0  0  0
  162.2240  213.8140  143.2270 F   0  0  0  0  0  0  0  0  0  0  0  0
  161.7130  212.8920  147.6810 C   0  0  0  0  0  0  0  0  0  0  0  0
  159.4130  212.1930  144.9890 C   0  0  0  0  0  3  0  0  0  0  0  0
  162.9860  213.6390  147.4180 C   0  0  0  0  0  2  0  0  0  0  0  0
  159.8890  212.2090  146.2670 N   0  0  0  0  0  0  0  0  0  0  0  0
  161.4120  213.3480  144.2110 C   0  0  0  0  0  0  0  0  0  0  0  0
  160.1540  212.7580  143.9310 C   0  0  0  0  0  0  0  0  0  0  0  0
  161.1000  212.7680  146.5160 C   0  0  0  0  0  0  0  0  0  0  0  0
  162.9500  213.8570  145.9680 N   0  0  0  0  0  0  0  0  0  0  0  0
  161.8520  213.3440  145.5330 C   0  0  0  0  0  0  0  0  0  0  0  0
  159.6290  212.6600  142.6350 O   0  0  0  0  0  0  0  0  0  0  0  0
  160.2990  212.1380  141.5260 C   0  0  0  0  0  0  0  0  0  0  0  0
  160.7490  210.9620  141.5250 O   0  0  0  0  0  0  0  0  0  0  0  0
  160.5420  212.9410  140.4580 F   0  0  0  0  0  0  0  0  0  0  0  0
  161.9670  209.1540  148.6380 C   0  0  0  0  0  0  0  0  0  0  0  0
  160.7490  208.8450  148.7070 O   0  0  0  0  0  0  0  0  0  0  0  0
  162.3960  210.4680  148.9850 N   0  0  0  0  0  2  0  0  0  0  0  0
  162.9710  208.1240  148.2600 C   0  0  0  0  0  2  0  0  0  0  0  0
  162.2890  206.8660  147.9960 N   0  0  0  0  0  2  0  0  0  0  0  0
  162.5530  206.0270  149.0570 O   0  0  0  0  0  0  0  0  0  0  0  0
  161.5810  205.7420  150.0180 C   0  0  0  0  0  0  0  0  0  0  0  0
  160.3890  206.1130  149.8500 O   0  0  0  0  0  0  0  0  0  0  0  0
  160.8960  204.9000  153.4570 C   0  0  0  0  0  2  0  0  0  0  0  0
  161.9540  205.0170  151.2710 C   0  0  2  0  0  3  0  0  0  0  0  0
  160.7120  204.5330  151.9990 C   0  0  1  0  0  3  0  0  0  0  0  0
  162.7030  205.9260  152.2350 C   0  0  0  0  0  2  0  0  0  0  0  0
  161.8270  206.1050  153.4710 C   0  0  1  0  0  3  0  0  0  0  0  0
  161.8550  208.6540  153.0980 C   0  0  1  0  0  3  0  0  0  0  0  0
  159.7050  209.4630  154.5580 S   0  0  0  0  0  0  0  0  0  0  0  0
  162.3390  208.6470  151.7300 N   0  0  0  0  0  1  0  0  0  0  0  0
  161.0630  207.5570  155.9230 C   0  0  0  0  0  1  0  0  0  0  0  0
  160.9490  209.8490  153.2870 C   0  0  0  0  0  2  0  0  0  0  0  0
  161.0170  207.4170  153.3890 C   0  0  2  0  0  3  0  0  0  0  0  0
  160.2270  207.7300  154.6580 C   0  0  2  0  0  3  0  0  0  0  0  0
  161.7300  202.2840  151.3700 C   0  0  0  0  0  1  0  0  0  0  0  0
  160.4740  203.0340  151.8110 C   0  0  0  0  0  2  0  0  0  0  0  0
  159.1510  214.4500  151.6790 C   0  0  0  0  0  2  0  0  0  0  0  0
  158.0970  213.9740  152.6150 C   0  0  0  0  0  0  0  0  0  0  0  0
  156.7260  214.2060  152.3130 N   0  0  0  0  0  2  0  0  0  0  0  0
  155.6640  213.6900  153.1500 C   0  0  0  0  0  1  0  0  0  0  0  0
  158.4250  213.3210  153.6390 O   0  0  0  0  0  0  0  0  0  0  0  0
  2  1  2  0  0  0  0
  2 42  1  0  0  0  0
  4  3  2  0  0  0  0
  4  5  1  0  0  0  0
  5  2  1  0  0  0  0
  6 11  1  0  0  0  0
  7  4  1  0  0  0  0
  8 10  2  0  0  0  0
  9  7  1  0  0  0  0
 10 13  1  0  0  0  0
 11 15  1  0  0  0  0
 12 11  2  0  0  0  0
 12  8  1  0  0  0  0
 13  7  2  0  0  0  0
 14  9  1  0  0  0  0
 15 14  2  0  0  0  0
 15 13  1  0  0  0  0
 16 12  1  0  0  0  0
 17 16  1  0  0  0  0
 18 17  2  0  0  0  0
 19 17  1  0  0  0  0
 20 21  2  0  0  0  0
 20 22  1  0  0  0  0
 22  3  1  0  0  0  0
 23 20  1  0  0  0  0
 24 23  1  0  0  0  0
 24 25  1  0  0  0  0
 25 26  1  0  0  0  0
 27 26  2  0  0  0  0
 28 32  1  0  0  0  0
 29 26  1  6  0  0  0
 29 30  1  0  0  0  0
 29 31  1  0  0  0  0
 30 41  1  1  0  0  0
 30 28  1  0  0  0  0
 32 31  1  6  0  0  0
 33 35  1  6  0  0  0
 33 37  1  0  0  0  0
 33 38  1  0  0  0  0
 34 39  1  0  0  0  0
 37 34  1  0  0  0  0
 38 32  1  1  0  0  0
 38 39  1  0  0  0  0
 39 36  1  1  0  0  0
 40 41  1  0  0  0  0
 42 43  1  0  0  0  0
 43 46  2  0  0  0  0
 44 43  1  0  0  0  0
 44 45  1  0  0  0  0
M  END
>  <MODEL>
6

>  <REMARK>
 VINA RESULT:      -4.9      3.586      7.313
  Name = 
  13 active torsions:
  status: ('A' for Active; 'I' for Inactive)
    1  A    between atoms: C_2  and  C_28
    2  A    between atoms: C_2  and  O_34
    3  A    between atoms: O_3  and  C_5
    4  A    between atoms: O_3  and  C_38
    5  A    between atoms: C_7  and  C_11
    6  A    between atoms: C_7  and  N_43
    7  A    between atoms: C_10  and  C_27
    8  A    between atoms: C_12  and  C_36
    9  A    between atoms: C_13  and  C_36
   10  A    between atoms: N_17  and  N_42
   11  A    between atoms: C_25  and  C_33
   12  A    between atoms: C_30  and  C_35
   13  A    between atoms: O_34  and  N_43
                            x       y       z     vdW  Elec       q    Type
                         _______ _______ _______ _____ _____    ______ ____

>  <TORSDO>
F 13

$$$$
=
 OpenBabel11052411353D

 46 49  0  0  1  0  0  0  0  0999 V2000
  158.1380  213.8930  149.3270 O   0  0  0  0  0  0  0  0  0  0  0  0
  157.5510  213.7950  150.4410 C   0  0  0  0  0  0  0  0  0  0  0  0
  160.0320  212.2340  150.3760 N   0  0  0  0  0  0  0  0  0  0  0  0
  159.4040  212.3980  151.5010 C   0  0  0  0  0  0  0  0  0  0  0  0
  158.1720  213.1240  151.5430 N   0  0  0  0  0  2  0  0  0  0  0  0
  161.6100  208.9730  155.9280 F   0  0  0  0  0  0  0  0  0  0  0  0
  159.8780  211.7770  152.7520 C   0  0  0  0  0  0  0  0  0  0  0  0
  160.7770  208.3000  152.3950 C   0  0  0  0  0  3  0  0  0  0  0  0
  160.1350  212.4990  154.0410 C   0  0  0  0  0  2  0  0  0  0  0  0
  160.2980  209.5220  152.0240 N   0  0  0  0  0  0  0  0  0  0  0  0
  161.2540  209.1460  154.6290 C   0  0  0  0  0  0  0  0  0  0  0  0
  161.2670  208.0770  153.6990 C   0  0  0  0  0  0  0  0  0  0  0  0
  160.2840  210.5320  152.9310 C   0  0  0  0  0  0  0  0  0  0  0  0
  160.7010  211.4550  154.9010 N   0  0  0  0  0  0  0  0  0  0  0  0
  160.7600  210.3760  154.2000 C   0  0  0  0  0  0  0  0  0  0  0  0
  161.6950  206.7840  154.0280 O   0  0  0  0  0  0  0  0  0  0  0  0
  161.9020  205.7420  153.1190 C   0  0  0  0  0  0  0  0  0  0  0  0
  161.2020  204.6970  153.1500 O   0  0  0  0  0  0  0  0  0  0  0  0
  162.9340  205.8230  152.2410 F   0  0  0  0  0  0  0  0  0  0  0  0
  161.5940  210.9330  148.9850 C   0  0  0  0  0  0  0  0  0  0  0  0
  161.0400  211.3380  147.9300 O   0  0  0  0  0  0  0  0  0  0  0  0
  161.1730  211.4290  150.2530 N   0  0  0  0  0  2  0  0  0  0  0  0
  162.6430  209.8820  148.9130 C   0  0  0  0  0  2  0  0  0  0  0  0
  162.0130  208.5720  148.9980 N   0  0  0  0  0  2  0  0  0  0  0  0
  161.9700  208.0560  147.7210 O   0  0  0  0  0  0  0  0  0  0  0  0
  161.3150  206.8540  147.4450 C   0  0  0  0  0  0  0  0  0  0  0  0
  160.2170  206.5830  148.0010 O   0  0  0  0  0  0  0  0  0  0  0  0
  161.1760  203.6880  145.7240 C   0  0  0  0  0  2  0  0  0  0  0  0
  161.9270  205.8630  146.5070 C   0  0  2  0  0  3  0  0  0  0  0  0
  160.8530  205.1680  145.6880 C   0  0  1  0  0  3  0  0  0  0  0  0
  162.6780  204.7760  147.2630 C   0  0  0  0  0  2  0  0  0  0  0  0
  161.9500  203.4590  147.0140 C   0  0  1  0  0  3  0  0  0  0  0  0
  161.5880  203.3140  149.5610 C   0  0  1  0  0  3  0  0  0  0  0  0
  159.6960  201.3660  149.7540 S   0  0  0  0  0  0  0  0  0  0  0  0
  161.7820  204.7180  149.8680 N   0  0  0  0  0  1  0  0  0  0  0  0
  161.5270  200.6710  147.8810 C   0  0  0  0  0  1  0  0  0  0  0  0
  160.5990  202.7330  150.5450 C   0  0  0  0  0  2  0  0  0  0  0  0
  160.9850  203.1330  148.1750 C   0  0  2  0  0  3  0  0  0  0  0  0
  160.4370  201.7080  148.1340 C   0  0  2  0  0  3  0  0  0  0  0  0
  162.0570  205.4670  143.4640 C   0  0  0  0  0  1  0  0  0  0  0  0
  160.7740  205.7040  144.2580 C   0  0  0  0  0  2  0  0  0  0  0  0
  156.1810  214.3630  150.6030 C   0  0  0  0  0  2  0  0  0  0  0  0
  155.8180  214.4440  152.0430 C   0  0  0  0  0  0  0  0  0  0  0  0
  154.4480  214.4470  152.4270 N   0  0  0  0  0  2  0  0  0  0  0  0
  154.0470  214.4410  153.8170 C   0  0  0  0  0  1  0  0  0  0  0  0
  156.7270  214.4530  152.9130 O   0  0  0  0  0  0  0  0  0  0  0  0
  1  2  2  0  0  0  0
  2 42  1  0  0  0  0
  2  5  1  0  0  0  0
  3  4  2  0  0  0  0
  4  5  1  0  0  0  0
  4  7  1  0  0  0  0
  7 13  2  0  0  0  0
  7  9  1  0  0  0  0
  8 12  1  0  0  0  0
  9 14  1  0  0  0  0
 10  8  2  0  0  0  0
 10 13  1  0  0  0  0
 11  6  1  0  0  0  0
 12 16  1  0  0  0  0
 12 11  2  0  0  0  0
 13 15  1  0  0  0  0
 15 11  1  0  0  0  0
 15 14  2  0  0  0  0
 17 18  2  0  0  0  0
 17 16  1  0  0  0  0
 19 17  1  0  0  0  0
 20 22  1  0  0  0  0
 21 20  2  0  0  0  0
 22  3  1  0  0  0  0
 23 20  1  0  0  0  0
 23 24  1  0  0  0  0
 25 24  1  0  0  0  0
 26 25  1  0  0  0  0
 26 27  2  0  0  0  0
 29 31  1  0  0  0  0
 29 26  1  1  0  0  0
 30 41  1  6  0  0  0
 30 28  1  0  0  0  0
 30 29  1  0  0  0  0
 32 28  1  6  0  0  0
 32 31  1  0  0  0  0
 33 35  1  1  0  0  0
 33 37  1  0  0  0  0
 34 37  1  0  0  0  0
 38 32  1  6  0  0  0
 38 33  1  0  0  0  0
 39 36  1  1  0  0  0
 39 38  1  0  0  0  0
 39 34  1  0  0  0  0
 40 41  1  0  0  0  0
 42 43  1  0  0  0  0
 43 44  1  0  0  0  0
 43 46  2  0  0  0  0
 44 45  1  0  0  0  0
M  END
>  <MODEL>
7

>  <REMARK>
 VINA RESULT:      -4.9      3.486      6.589
  Name = 
  13 active torsions:
  status: ('A' for Active; 'I' for Inactive)
    1  A    between atoms: C_2  and  C_28
    2  A    between atoms: C_2  and  O_34
    3  A    between atoms: O_3  and  C_5
    4  A    between atoms: O_3  and  C_38
    5  A    between atoms: C_7  and  C_11
    6  A    between atoms: C_7  and  N_43
    7  A    between atoms: C_10  and  C_27
    8  A    between atoms: C_12  and  C_36
    9  A    between atoms: C_13  and  C_36
   10  A    between atoms: N_17  and  N_42
   11  A    between atoms: C_25  and  C_33
   12  A    between atoms: C_30  and  C_35
   13  A    between atoms: O_34  and  N_43
                            x       y       z     vdW  Elec       q    Type
                         _______ _______ _______ _____ _____    ______ ____

>  <TORSDO>
F 13

$$$$
=
 OpenBabel11052411353D

 46 49  0  0  1  0  0  0  0  0999 V2000
  160.9880  201.7490  147.6470 O   0  0  0  0  0  0  0  0  0  0  0  0
  160.8750  202.3180  148.7690 C   0  0  0  0  0  0  0  0  0  0  0  0
  161.7530  204.1840  146.6850 N   0  0  0  0  0  0  0  0  0  0  0  0
  161.4030  204.6390  147.8500 C   0  0  0  0  0  0  0  0  0  0  0  0
  161.0090  203.7380  148.8910 N   0  0  0  0  0  2  0  0  0  0  0  0
  161.9110  210.1250  150.2670 F   0  0  0  0  0  0  0  0  0  0  0  0
  161.4810  206.0750  148.1790 C   0  0  0  0  0  0  0  0  0  0  0  0
  161.6370  206.7430  151.7220 C   0  0  0  0  0  3  0  0  0  0  0  0
  161.6410  207.1880  147.1880 C   0  0  0  0  0  3  0  0  0  0  0  0
  161.5200  206.0000  150.5840 N   0  0  0  0  0  0  0  0  0  0  0  0
  161.8560  208.7750  150.3950 C   0  0  0  0  0  0  0  0  0  0  0  0
  161.8080  208.1420  151.6630 C   0  0  0  0  0  0  0  0  0  0  0  0
  161.5580  206.6230  149.3790 C   0  0  1  0  0  3  0  0  0  0  0  0
  161.7870  208.3740  148.0400 N   0  0  0  0  0  0  0  0  0  0  0  0
  161.7380  207.9720  149.2620 C   0  0  0  0  0  0  0  0  0  0  0  0
  161.8680  208.8490  152.8710 O   0  0  0  0  0  0  0  0  0  0  0  0
  160.9390  209.8000  153.3010 C   0  0  0  0  0  0  0  0  0  0  0  0
  160.1210  209.5470  154.2230 O   0  0  0  0  0  0  0  0  0  0  0  0
  160.8630  210.9930  152.6560 F   0  0  0  0  0  0  0  0  0  0  0  0
  161.5990  205.1370  144.4190 C   0  0  0  0  0  0  0  0  0  0  0  0
  160.4550  204.6400  144.2540 O   0  0  0  0  0  0  0  0  0  0  0  0
  162.2660  205.0060  145.6720 N   0  0  0  0  0  2  0  0  0  0  0  0
  162.2890  205.8000  143.2810 C   0  0  0  0  0  2  0  0  0  0  0  0
  161.3000  206.1930  142.2870 N   0  0  0  0  0  2  0  0  0  0  0  0
  161.9580  206.3140  141.0810 O   0  0  0  0  0  0  0  0  0  0  0  0
  162.1550  207.5590  140.4830 C   0  0  0  0  0  0  0  0  0  0  0  0
  163.1170  208.2920  140.8360 O   0  0  0  0  0  0  0  0  0  0  0  0
  161.3470  209.8800  137.8430 C   0  0  0  0  0  2  0  0  0  0  0  0
  161.2070  208.0480  139.4350 C   0  0  2  0  0  3  0  0  0  0  0  0
  161.9660  208.5490  138.2190 C   0  0  1  0  0  3  0  0  0  0  0  0
  160.3710  209.2130  139.9440 C   0  0  0  0  0  2  0  0  0  0  0  0
  160.7550  210.4430  139.1280 C   0  0  1  0  0  3  0  0  0  0  0  0
  161.2140  212.2060  140.9490 C   0  0  1  0  0  3  0  0  0  0  0  0
  163.4620  213.4200  140.0090 S   0  0  0  0  0  0  0  0  0  0  0  0
  160.7530  211.4360  142.0890 N   0  0  0  0  0  1  0  0  0  0  0  0
  161.7520  212.9610  137.9580 C   0  0  0  0  0  1  0  0  0  0  0  0
  162.3280  213.1230  141.4010 C   0  0  0  0  0  2  0  0  0  0  0  0
  161.8000  211.3000  139.8760 C   0  0  2  0  0  3  0  0  0  0  0  0
  162.6210  212.2050  138.9590 C   0  0  2  0  0  3  0  0  0  0  0  0
  162.5710  206.2100  137.4100 C   0  0  0  0  0  1  0  0  0  0  0  0
  161.9300  207.5520  137.0590 C   0  0  0  0  0  2  0  0  0  0  0  0
  160.6210  201.4960  149.9880 C   0  0  0  0  0  2  0  0  0  0  0  0
  161.1680  202.1730  151.1950 C   0  0  0  0  0  0  0  0  0  0  0  0
  160.3830  203.1440  151.8770 N   0  0  0  0  0  2  0  0  0  0  0  0
  160.8380  203.7680  153.1010 C   0  0  0  0  0  1  0  0  0  0  0  0
  162.2980  201.8390  151.6360 O   0  0  0  0  0  0  0  0  0  0  0  0
  1  2  2  0  0  0  0
  2  5  1  0  0  0  0
  2 42  1  0  0  0  0
  3  4  2  0  0  0  0
  4  7  1  0  0  0  0
  4  5  1  0  0  0  0
  6 11  1  0  0  0  0
  9 14  1  0  0  0  0
  9  7  2  0  0  0  0
 10  8  2  0  0  0  0
 11 12  2  0  0  0  0
 12  8  1  0  0  0  0
 12 16  1  0  0  0  0
 13  7  1  6  0  0  0
 13 10  1  0  0  0  0
 14 15  2  0  0  0  0
 15 13  1  0  0  0  0
 15 11  1  0  0  0  0
 16 17  1  0  0  0  0
 17 18  2  0  0  0  0
 19 17  1  0  0  0  0
 20 22  1  0  0  0  0
 21 20  2  0  0  0  0
 22  3  1  0  0  0  0
 23 20  1  0  0  0  0
 24 23  1  0  0  0  0
 25 24  1  0  0  0  0
 26 27  2  0  0  0  0
 26 25  1  0  0  0  0
 28 30  1  0  0  0  0
 29 31  1  0  0  0  0
 29 26  1  1  0  0  0
 30 41  1  6  0  0  0
 30 29  1  0  0  0  0
 32 28  1  6  0  0  0
 32 31  1  0  0  0  0
 33 37  1  0  0  0  0
 33 35  1  1  0  0  0
 34 37  1  0  0  0  0
 38 32  1  6  0  0  0
 38 33  1  0  0  0  0
 39 36  1  6  0  0  0
 39 38  1  0  0  0  0
 39 34  1  0  0  0  0
 41 40  1  0  0  0  0
 42 43  1  0  0  0  0
 43 46  2  0  0  0  0
 43 44  1  0  0  0  0
 44 45  1  0  0  0  0
M  END
>  <MODEL>
8

>  <REMARK>
 VINA RESULT:      -4.9      4.296     10.159
  Name = 
  13 active torsions:
  status: ('A' for Active; 'I' for Inactive)
    1  A    between atoms: C_2  and  C_28
    2  A    between atoms: C_2  and  O_34
    3  A    between atoms: O_3  and  C_5
    4  A    between atoms: O_3  and  C_38
    5  A    between atoms: C_7  and  C_11
    6  A    between atoms: C_7  and  N_43
    7  A    between atoms: C_10  and  C_27
    8  A    between atoms: C_12  and  C_36
    9  A    between atoms: C_13  and  C_36
   10  A    between atoms: N_17  and  N_42
   11  A    between atoms: C_25  and  C_33
   12  A    between atoms: C_30  and  C_35
   13  A    between atoms: O_34  and  N_43
                            x       y       z     vdW  Elec       q    Type
                         _______ _______ _______ _____ _____    ______ ____

>  <TORSDO>
F 13

$$$$
=
 OpenBabel11052411353D

 46 49  0  0  1  0  0  0  0  0999 V2000
  160.7980  201.9210  145.8600 O   0  0  0  0  0  0  0  0  0  0  0  0
  160.9170  202.0750  147.1080 C   0  0  0  0  0  0  0  0  0  0  0  0
  161.4980  204.5490  145.6460 N   0  0  0  0  0  0  0  0  0  0  0  0
  161.3870  204.5770  146.9390 C   0  0  0  0  0  0  0  0  0  0  0  0
  161.1410  203.3720  147.6720 N   0  0  0  0  0  2  0  0  0  0  0  0
  162.2950  208.9310  150.9900 F   0  0  0  0  0  0  0  0  0  0  0  0
  161.5930  205.8180  147.7090 C   0  0  0  0  0  0  0  0  0  0  0  0
  161.5430  205.3290  151.2850 C   0  0  0  0  0  3  0  0  0  0  0  0
  161.9500  207.1540  147.1310 C   0  0  0  0  0  3  0  0  0  0  0  0
  161.4360  204.9970  149.9660 N   0  0  0  0  0  0  0  0  0  0  0  0
  162.0840  207.6260  150.6810 C   0  0  0  0  0  0  0  0  0  0  0  0
  161.8680  206.6430  151.6790 C   0  0  0  0  0  0  0  0  0  0  0  0
  161.6360  205.9520  149.0240 C   0  0  1  0  0  3  0  0  0  0  0  0
  162.1560  207.9880  148.3200 N   0  0  0  0  0  0  0  0  0  0  0  0
  161.9690  207.2360  149.3480 C   0  0  0  0  0  0  0  0  0  0  0  0
  161.9100  206.9260  153.0510 O   0  0  0  0  0  0  0  0  0  0  0  0
  160.9040  207.5670  153.7780 C   0  0  0  0  0  0  0  0  0  0  0  0
  160.3330  207.0020  154.7470 O   0  0  0  0  0  0  0  0  0  0  0  0
  160.4740  208.7920  153.3790 F   0  0  0  0  0  0  0  0  0  0  0  0
  161.5790  205.7450  143.4940 C   0  0  0  0  0  0  0  0  0  0  0  0
  160.8590  204.8710  142.9450 O   0  0  0  0  0  0  0  0  0  0  0  0
  161.8610  205.6720  144.8890 N   0  0  0  0  0  2  0  0  0  0  0  0
  162.1960  206.8190  142.6710 C   0  0  0  0  0  2  0  0  0  0  0  0
  161.8850  206.5830  141.2680 N   0  0  0  0  0  2  0  0  0  0  0  0
  161.4480  207.7790  140.7400 O   0  0  0  0  0  0  0  0  0  0  0  0
  161.6410  208.0920  139.3930 C   0  0  0  0  0  0  0  0  0  0  0  0
  161.6500  207.1820  138.5210 O   0  0  0  0  0  0  0  0  0  0  0  0
  160.6570  211.5600  139.4640 C   0  0  0  0  0  2  0  0  0  0  0  0
  161.8680  209.5090  138.9770 C   0  0  2  0  0  3  0  0  0  0  0  0
  161.4890  210.4630  140.0970 C   0  0  1  0  0  3  0  0  0  0  0  0
  161.0110  209.8780  137.7750 C   0  0  0  0  0  2  0  0  0  0  0  0
  160.0170  210.9410  138.2290 C   0  0  1  0  0  3  0  0  0  0  0  0
  157.9570  209.6240  137.4190 C   0  0  1  0  0  3  0  0  0  0  0  0
  156.0160  210.5110  139.1080 S   0  0  0  0  0  0  0  0  0  0  0  0
  158.6400  208.4000  137.0460 N   0  0  0  0  0  1  0  0  0  0  0  0
  157.5740  212.5920  138.3430 C   0  0  0  0  0  1  0  0  0  0  0  0
  156.5620  209.2790  137.8860 C   0  0  0  0  0  2  0  0  0  0  0  0
  158.6540  210.3070  138.5860 C   0  0  2  0  0  3  0  0  0  0  0  0
  157.6460  211.3030  139.1570 C   0  0  2  0  0  3  0  0  0  0  0  0
  162.4260  212.3370  141.5460 C   0  0  0  0  0  1  0  0  0  0  0  0
  162.7120  211.0190  140.8270 C   0  0  0  0  0  2  0  0  0  0  0  0
  160.8460  200.8860  148.0060 C   0  0  0  0  0  2  0  0  0  0  0  0
  160.3710  201.2820  149.3590 C   0  0  0  0  0  0  0  0  0  0  0  0
  161.3110  201.4620  150.4130 N   0  0  0  0  0  2  0  0  0  0  0  0
  160.9060  201.9260  151.7220 C   0  0  0  0  0  1  0  0  0  0  0  0
  159.1480  201.5090  149.5460 O   0  0  0  0  0  0  0  0  0  0  0  0
  1  2  2  0  0  0  0
  2  5  1  0  0  0  0
  2 42  1  0  0  0  0
  3  4  2  0  0  0  0
  4  5  1  0  0  0  0
  4  7  1  0  0  0  0
  8 12  1  0  0  0  0
  9  7  2  0  0  0  0
  9 14  1  0  0  0  0
 10  8  2  0  0  0  0
 11  6  1  0  0  0  0
 11 12  2  0  0  0  0
 12 16  1  0  0  0  0
 13  7  1  6  0  0  0
 13 15  1  0  0  0  0
 13 10  1  0  0  0  0
 14 15  2  0  0  0  0
 15 11  1  0  0  0  0
 16 17  1  0  0  0  0
 17 18  2  0  0  0  0
 19 17  1  0  0  0  0
 20 22  1  0  0  0  0
 21 20  2  0  0  0  0
 22  3  1  0  0  0  0
 23 20  1  0  0  0  0
 24 23  1  0  0  0  0
 25 24  1  0  0  0  0
 26 25  1  0  0  0  0
 27 26  2  0  0  0  0
 28 30  1  0  0  0  0
 29 26  1  1  0  0  0
 29 30  1  0  0  0  0
 30 41  1  6  0  0  0
 31 29  1  0  0  0  0
 32 31  1  1  0  0  0
 32 28  1  0  0  0  0
 33 35  1  1  0  0  0
 33 37  1  0  0  0  0
 33 38  1  0  0  0  0
 34 39  1  0  0  0  0
 37 34  1  0  0  0  0
 38 32  1  6  0  0  0
 38 39  1  0  0  0  0
 39 36  1  6  0  0  0
 41 40  1  0  0  0  0
 42 43  1  0  0  0  0
 43 46  2  0  0  0  0
 43 44  1  0  0  0  0
 44 45  1  0  0  0  0
M  END
>  <MODEL>
9

>  <REMARK>
 VINA RESULT:      -4.9      5.153     10.611
  Name = 
  13 active torsions:
  status: ('A' for Active; 'I' for Inactive)
    1  A    between atoms: C_2  and  C_28
    2  A    between atoms: C_2  and  O_34
    3  A    between atoms: O_3  and  C_5
    4  A    between atoms: O_3  and  C_38
    5  A    between atoms: C_7  and  C_11
    6  A    between atoms: C_7  and  N_43
    7  A    between atoms: C_10  and  C_27
    8  A    between atoms: C_12  and  C_36
    9  A    between atoms: C_13  and  C_36
   10  A    between atoms: N_17  and  N_42
   11  A    between atoms: C_25  and  C_33
   12  A    between atoms: C_30  and  C_35
   13  A    between atoms: O_34  and  N_43
                            x       y       z     vdW  Elec       q    Type
                         _______ _______ _______ _____ _____    ______ ____

>  <TORSDO>
F 13

$$$$
