=
 OpenBabel11052409483D

 26 30  0  0  1  0  0  0  0  0999 V2000
  161.0530  204.6420  150.1910 C   0  0  0  0  0  2  0  0  0  0  0  0
  161.1820  206.3380  152.0870 C   0  0  0  0  0  0  0  0  0  0  0  0
  161.2890  205.3400  152.9160 N   0  0  0  0  0  0  0  0  0  0  0  0
  160.8710  203.6310  151.2770 C   0  0  0  0  0  3  0  0  0  0  0  0
  161.3220  207.6610  152.6230 N   0  0  0  0  0  2  0  0  0  0  0  0
  160.7300  206.0830  150.6500 C   0  0  1  0  0  3  0  0  0  0  0  0
  161.0390  203.9770  152.5500 C   0  0  0  0  0  3  0  0  0  0  0  0
  162.5770  207.1870  149.4400 C   0  0  0  0  0  2  0  0  0  0  0  0
  161.7020  206.5780  148.3900 N   0  0  0  0  0  0  0  0  0  0  0  0
  161.2140  207.1770  149.6680 C   0  0  1  0  0  3  0  0  0  0  0  0
  162.0250  204.3780  145.4350 N   0  0  0  0  0  0  0  0  0  0  0  0
  162.2120  204.6040  146.8890 C   0  0  2  0  0  3  0  0  0  0  0  0
  160.6090  206.4390  146.2570 C   0  0  0  0  0  3  0  0  0  0  0  0
  161.4890  205.9120  147.1510 C   0  0  0  0  0  0  0  0  0  0  0  0
  161.0630  204.7910  144.4910 C   0  0  0  0  0  3  0  0  0  0  0  0
  160.3430  205.8370  144.9090 C   0  0  0  0  0  3  0  0  0  0  0  0
  163.3190  204.7360  146.0920 C   0  0  0  0  0  2  0  0  0  0  0  0
  160.8050  208.8760  152.0120 C   0  0  0  0  0  2  0  0  0  0  0  0
  161.5750  210.0210  152.4670 N   0  0  0  0  0  2  0  0  0  0  0  0
  160.6190  211.0270  152.8940 C   0  0  0  0  0  2  0  0  0  0  0  0
  162.0040  210.5890  154.9220 C   0  0  0  0  0  2  0  0  0  0  0  0
  160.7090  211.2180  154.3980 C   0  0  2  0  0  3  0  0  0  0  0  0
  161.4530  209.5770  155.8450 C   0  0  0  0  0  0  0  0  0  0  0  0
  162.1420  208.7840  156.5380 O   0  0  0  0  0  0  0  0  0  0  0  0
  159.6280  210.4870  155.0610 N   0  0  0  0  0  0  0  0  0  0  0  0
  160.0450  209.5910  155.8550 N   0  0  0  0  0  0  0  0  0  0  0  0
  1  4  1  0  0  0  0
  2  5  1  0  0  0  0
  2  3  2  0  0  0  0
  4  7  2  0  0  0  0
  6  1  1  6  0  0  0
  6  2  1  0  0  0  0
  7  3  1  0  0  0  0
  9  8  1  0  0  0  0
  9 10  1  0  0  0  0
 10  8  1  1  0  0  0
 10  6  1  0  0  0  0
 11 17  1  0  0  0  0
 11 12  1  0  0  0  0
 12 17  1  6  0  0  0
 12 14  1  0  0  0  0
 13 14  2  0  0  0  0
 14  9  1  0  0  0  0
 15 16  2  0  0  0  0
 15 11  1  0  0  0  0
 16 13  1  0  0  0  0
 18 19  1  0  0  0  0
 18  5  1  0  0  0  0
 19 20  1  0  0  0  0
 21 23  1  0  0  0  0
 22 20  1  6  0  0  0
 22 21  1  0  0  0  0
 22 25  1  0  0  0  0
 23 26  1  0  0  0  0
 23 24  2  0  0  0  0
 25 26  2  0  0  0  0
M  END
>  <MODEL>
1

>  <REMARK>
 VINA RESULT:      -8.2      0.000      0.000
  Name = 
  6 active torsions:
  status: ('A' for Active; 'I' for Inactive)
    1  A    between atoms: C_3  and  C_26
    2  A    between atoms: C_10  and  N_20
    3  A    between atoms: N_15  and  C_17
    4  A    between atoms: C_17  and  N_18
    5  A    between atoms: N_18  and  C_26
    6  A    between atoms: C_21  and  C_22
                            x       y       z     vdW  Elec       q    Type
                         _______ _______ _______ _____ _____    ______ ____

>  <TORSDO>
F 6

$$$$
=
 OpenBabel11052409483D

 26 30  0  0  1  0  0  0  0  0999 V2000
  161.0880  204.5890  150.1930 C   0  0  0  0  0  2  0  0  0  0  0  0
  161.1470  206.2850  152.0920 C   0  0  0  0  0  0  0  0  0  0  0  0
  161.2680  205.2890  152.9210 N   0  0  0  0  0  0  0  0  0  0  0  0
  160.9160  203.5720  151.2760 C   0  0  0  0  0  3  0  0  0  0  0  0
  161.2460  207.6110  152.6310 N   0  0  0  0  0  2  0  0  0  0  0  0
  160.7220  206.0200  150.6490 C   0  0  1  0  0  3  0  0  0  0  0  0
  161.0570  203.9200  152.5510 C   0  0  0  0  0  3  0  0  0  0  0  0
  162.5540  207.1560  149.4440 C   0  0  0  0  0  2  0  0  0  0  0  0
  161.6850  206.5440  148.3910 N   0  0  0  0  0  0  0  0  0  0  0  0
  161.1910  207.1280  149.6740 C   0  0  1  0  0  3  0  0  0  0  0  0
  162.0250  204.3650  145.4230 N   0  0  0  0  0  0  0  0  0  0  0  0
  162.2080  204.5820  146.8790 C   0  0  2  0  0  3  0  0  0  0  0  0
  160.5980  206.4140  146.2540 C   0  0  0  0  0  3  0  0  0  0  0  0
  161.4780  205.8860  147.1480 C   0  0  0  0  0  0  0  0  0  0  0  0
  161.0640  204.7800  144.4790 C   0  0  0  0  0  3  0  0  0  0  0  0
  160.3370  205.8190  144.9020 C   0  0  0  0  0  3  0  0  0  0  0  0
  163.3150  204.7240  146.0860 C   0  0  0  0  0  2  0  0  0  0  0  0
  160.7070  208.8130  152.0140 C   0  0  0  0  0  2  0  0  0  0  0  0
  161.5070  209.9630  152.3970 N   0  0  0  0  0  2  0  0  0  0  0  0
  161.4360  210.0600  153.8440 C   0  0  0  0  0  2  0  0  0  0  0  0
  159.4170  210.9510  155.0050 C   0  0  0  0  0  2  0  0  0  0  0  0
  160.6920  211.3220  154.2410 C   0  0  2  0  0  3  0  0  0  0  0  0
  158.3940  211.5350  154.1150 C   0  0  0  0  0  0  0  0  0  0  0  0
  157.1530  211.4930  154.3190 O   0  0  0  0  0  0  0  0  0  0  0  0
  160.2340  212.0310  153.0450 N   0  0  0  0  0  0  0  0  0  0  0  0
  158.9730  212.1460  152.9850 N   0  0  0  0  0  0  0  0  0  0  0  0
  1  4  1  0  0  0  0
  2  5  1  0  0  0  0
  2  3  2  0  0  0  0
  4  7  2  0  0  0  0
  6  1  1  6  0  0  0
  6  2  1  0  0  0  0
  7  3  1  0  0  0  0
  9  8  1  0  0  0  0
  9 10  1  0  0  0  0
 10  8  1  1  0  0  0
 10  6  1  0  0  0  0
 11 17  1  0  0  0  0
 11 12  1  0  0  0  0
 12 17  1  6  0  0  0
 12 14  1  0  0  0  0
 13 14  2  0  0  0  0
 14  9  1  0  0  0  0
 15 16  2  0  0  0  0
 15 11  1  0  0  0  0
 16 13  1  0  0  0  0
 18 19  1  0  0  0  0
 18  5  1  0  0  0  0
 19 20  1  0  0  0  0
 22 20  1  6  0  0  0
 22 21  1  0  0  0  0
 23 24  2  0  0  0  0
 23 21  1  0  0  0  0
 25 22  1  0  0  0  0
 26 25  2  0  0  0  0
 26 23  1  0  0  0  0
M  END
>  <MODEL>
2

>  <REMARK>
 VINA RESULT:      -8.0      1.592      1.813
  Name = 
  6 active torsions:
  status: ('A' for Active; 'I' for Inactive)
    1  A    between atoms: C_3  and  C_26
    2  A    between atoms: C_10  and  N_20
    3  A    between atoms: N_15  and  C_17
    4  A    between atoms: C_17  and  N_18
    5  A    between atoms: N_18  and  C_26
    6  A    between atoms: C_21  and  C_22
                            x       y       z     vdW  Elec       q    Type
                         _______ _______ _______ _____ _____    ______ ____

>  <TORSDO>
F 6

$$$$
=
 OpenBabel11052409483D

 26 30  0  0  1  0  0  0  0  0999 V2000
  161.8440  208.3520  150.8000 C   0  0  0  0  0  2  0  0  0  0  0  0
  161.4260  206.3040  149.3450 C   0  0  0  0  0  0  0  0  0  0  0  0
  161.8140  207.0060  148.3190 N   0  0  0  0  0  0  0  0  0  0  0  0
  161.9560  209.0920  149.5050 C   0  0  0  0  0  3  0  0  0  0  0  0
  161.1540  204.9120  149.1290 N   0  0  0  0  0  2  0  0  0  0  0  0
  161.0960  207.0060  150.6600 C   0  0  1  0  0  3  0  0  0  0  0  0
  161.9900  208.4280  148.3540 C   0  0  0  0  0  3  0  0  0  0  0  0
  162.4930  206.0980  152.4820 C   0  0  0  0  0  2  0  0  0  0  0  0
  161.3940  206.8640  153.1480 N   0  0  0  0  0  0  0  0  0  0  0  0
  161.2450  206.0760  151.8890 C   0  0  1  0  0  3  0  0  0  0  0  0
  160.4410  209.8050  155.1780 N   0  0  0  0  0  0  0  0  0  0  0  0
  160.6450  209.1800  153.8490 C   0  0  2  0  0  3  0  0  0  0  0  0
  160.5760  207.1850  155.3830 C   0  0  0  0  0  3  0  0  0  0  0  0
  160.8830  207.7150  154.1670 C   0  0  0  0  0  0  0  0  0  0  0  0
  160.0030  209.3320  156.4320 C   0  0  0  0  0  3  0  0  0  0  0  0
  160.0700  208.0010  156.5350 C   0  0  0  0  0  3  0  0  0  0  0  0
  161.6350  210.0100  154.3040 C   0  0  0  0  0  2  0  0  0  0  0  0
  160.3050  204.0800  149.9700 C   0  0  0  0  0  2  0  0  0  0  0  0
  160.9460  202.7960  150.1950 N   0  0  0  0  0  2  0  0  0  0  0  0
  160.3770  201.8690  149.2320 C   0  0  0  0  0  2  0  0  0  0  0  0
  160.6370  202.2480  146.7810 C   0  0  0  0  0  2  0  0  0  0  0  0
  161.3140  201.7160  148.0480 C   0  0  2  0  0  3  0  0  0  0  0  0
  160.6170  201.0230  145.9560 C   0  0  0  0  0  0  0  0  0  0  0  0
  160.1470  200.9470  144.7910 O   0  0  0  0  0  0  0  0  0  0  0  0
  161.5640  200.2970  147.7870 N   0  0  0  0  0  0  0  0  0  0  0  0
  161.1810  199.9260  146.6370 N   0  0  0  0  0  0  0  0  0  0  0  0
  2  6  1  0  0  0  0
  3  7  1  0  0  0  0
  3  2  2  0  0  0  0
  4  1  1  0  0  0  0
  5  2  1  0  0  0  0
  5 18  1  0  0  0  0
  6  1  1  1  0  0  0
  6 10  1  0  0  0  0
  7  4  2  0  0  0  0
  8  9  1  0  0  0  0
  9 14  1  0  0  0  0
 10  8  1  6  0  0  0
 10  9  1  0  0  0  0
 11 15  1  0  0  0  0
 12 14  1  0  0  0  0
 12 17  1  1  0  0  0
 12 11  1  0  0  0  0
 13 16  1  0  0  0  0
 14 13  2  0  0  0  0
 15 16  2  0  0  0  0
 17 11  1  0  0  0  0
 18 19  1  0  0  0  0
 20 19  1  0  0  0  0
 21 22  1  0  0  0  0
 22 20  1  1  0  0  0
 23 26  1  0  0  0  0
 23 21  1  0  0  0  0
 24 23  2  0  0  0  0
 25 22  1  0  0  0  0
 26 25  2  0  0  0  0
M  END
>  <MODEL>
3

>  <REMARK>
 VINA RESULT:      -7.3      3.662      8.951
  Name = 
  6 active torsions:
  status: ('A' for Active; 'I' for Inactive)
    1  A    between atoms: C_3  and  C_26
    2  A    between atoms: C_10  and  N_20
    3  A    between atoms: N_15  and  C_17
    4  A    between atoms: C_17  and  N_18
    5  A    between atoms: N_18  and  C_26
    6  A    between atoms: C_21  and  C_22
                            x       y       z     vdW  Elec       q    Type
                         _______ _______ _______ _____ _____    ______ ____

>  <TORSDO>
F 6

$$$$
=
 OpenBabel11052409483D

 26 30  0  0  1  0  0  0  0  0999 V2000
  161.9410  209.5400  151.3730 C   0  0  0  0  0  2  0  0  0  0  0  0
  161.5470  208.1190  149.2970 C   0  0  0  0  0  0  0  0  0  0  0  0
  162.0100  209.1060  148.5850 N   0  0  0  0  0  0  0  0  0  0  0  0
  162.1440  210.6650  150.4100 C   0  0  0  0  0  3  0  0  0  0  0  0
  161.2500  206.8930  148.6130 N   0  0  0  0  0  2  0  0  0  0  0  0
  161.1650  208.3530  150.7570 C   0  0  1  0  0  3  0  0  0  0  0  0
  162.2230  210.4250  149.1050 C   0  0  0  0  0  3  0  0  0  0  0  0
  162.4540  206.7930  152.1730 C   0  0  0  0  0  2  0  0  0  0  0  0
  161.3930  207.3710  153.0550 N   0  0  0  0  0  0  0  0  0  0  0  0
  161.2210  207.0590  151.6050 C   0  0  1  0  0  3  0  0  0  0  0  0
  160.5840  209.5310  155.9460 N   0  0  0  0  0  0  0  0  0  0  0  0
  160.7750  209.3690  154.4840 C   0  0  2  0  0  3  0  0  0  0  0  0
  160.5520  206.9880  155.2710 C   0  0  0  0  0  3  0  0  0  0  0  0
  160.9150  207.8680  154.2990 C   0  0  0  0  0  0  0  0  0  0  0  0
  160.0920  208.7000  156.9730 C   0  0  0  0  0  3  0  0  0  0  0  0
  160.0740  207.4080  156.6300 C   0  0  0  0  0  3  0  0  0  0  0  0
  161.8060  209.9350  155.1860 C   0  0  0  0  0  2  0  0  0  0  0  0
  160.3350  205.8650  149.0880 C   0  0  0  0  0  2  0  0  0  0  0  0
  160.7750  204.5630  148.6210 N   0  0  0  0  0  2  0  0  0  0  0  0
  161.4190  204.7720  147.3370 C   0  0  0  0  0  2  0  0  0  0  0  0
  161.3320  203.2130  145.3920 C   0  0  0  0  0  2  0  0  0  0  0  0
  161.9180  203.4480  146.7880 C   0  0  2  0  0  3  0  0  0  0  0  0
  160.5760  201.9660  145.6270 C   0  0  0  0  0  0  0  0  0  0  0  0
  159.9040  201.3550  144.7550 O   0  0  0  0  0  0  0  0  0  0  0  0
  161.4170  202.3440  147.6090 N   0  0  0  0  0  0  0  0  0  0  0  0
  160.6850  201.5350  146.9640 N   0  0  0  0  0  0  0  0  0  0  0  0
  2  6  1  0  0  0  0
  3  7  1  0  0  0  0
  3  2  2  0  0  0  0
  4  1  1  0  0  0  0
  5 18  1  0  0  0  0
  5  2  1  0  0  0  0
  6  1  1  1  0  0  0
  6 10  1  0  0  0  0
  7  4  2  0  0  0  0
  8  9  1  0  0  0  0
  9 14  1  0  0  0  0
 10  8  1  6  0  0  0
 10  9  1  0  0  0  0
 11 15  1  0  0  0  0
 12 17  1  1  0  0  0
 12 11  1  0  0  0  0
 13 16  1  0  0  0  0
 14 12  1  0  0  0  0
 14 13  2  0  0  0  0
 16 15  2  0  0  0  0
 17 11  1  0  0  0  0
 19 18  1  0  0  0  0
 20 19  1  0  0  0  0
 21 23  1  0  0  0  0
 21 22  1  0  0  0  0
 22 20  1  1  0  0  0
 22 25  1  0  0  0  0
 23 26  1  0  0  0  0
 24 23  2  0  0  0  0
 26 25  2  0  0  0  0
M  END
>  <MODEL>
4

>  <REMARK>
 VINA RESULT:      -7.2      3.421      8.872
  Name = 
  6 active torsions:
  status: ('A' for Active; 'I' for Inactive)
    1  A    between atoms: C_3  and  C_26
    2  A    between atoms: C_10  and  N_20
    3  A    between atoms: N_15  and  C_17
    4  A    between atoms: C_17  and  N_18
    5  A    between atoms: N_18  and  C_26
    6  A    between atoms: C_21  and  C_22
                            x       y       z     vdW  Elec       q    Type
                         _______ _______ _______ _____ _____    ______ ____

>  <TORSDO>
F 6

$$$$
=
 OpenBabel11052409483D

 26 30  0  0  1  0  0  0  0  0999 V2000
  160.8670  204.5740  149.8750 C   0  0  0  0  0  2  0  0  0  0  0  0
  161.1320  206.1900  151.8250 C   0  0  0  0  0  0  0  0  0  0  0  0
  161.2460  205.1580  152.6100 N   0  0  0  0  0  0  0  0  0  0  0  0
  160.7040  203.5270  150.9300 C   0  0  0  0  0  3  0  0  0  0  0  0
  161.3360  207.4870  152.4040 N   0  0  0  0  0  2  0  0  0  0  0  0
  160.6080  206.0040  150.4030 C   0  0  1  0  0  3  0  0  0  0  0  0
  160.9390  203.8180  152.2060 C   0  0  0  0  0  3  0  0  0  0  0  0
  162.4480  207.1840  149.2530 C   0  0  0  0  0  2  0  0  0  0  0  0
  161.6270  206.5490  148.1750 N   0  0  0  0  0  0  0  0  0  0  0  0
  161.0790  207.1220  149.4400 C   0  0  1  0  0  3  0  0  0  0  0  0
  162.0950  204.3470  145.2420 N   0  0  0  0  0  0  0  0  0  0  0  0
  162.2080  204.5720  146.7030 C   0  0  2  0  0  3  0  0  0  0  0  0
  160.6450  206.4130  145.9880 C   0  0  0  0  0  3  0  0  0  0  0  0
  161.4760  205.8830  146.9270 C   0  0  0  0  0  0  0  0  0  0  0  0
  161.1850  204.7630  144.2490 C   0  0  0  0  0  3  0  0  0  0  0  0
  160.4470  205.8110  144.6280 C   0  0  0  0  0  3  0  0  0  0  0  0
  163.3540  204.7010  145.9640 C   0  0  0  0  0  2  0  0  0  0  0  0
  160.8290  208.7390  151.8630 C   0  0  0  0  0  2  0  0  0  0  0  0
  161.6690  209.8400  152.3020 N   0  0  0  0  0  2  0  0  0  0  0  0
  162.4150  210.2880  151.1400 C   0  0  0  0  0  2  0  0  0  0  0  0
  162.2400  210.6920  148.6850 C   0  0  0  0  0  2  0  0  0  0  0  0
  161.4610  210.5960  150.0000 C   0  0  2  0  0  3  0  0  0  0  0  0
  161.9470  212.0880  148.3040 C   0  0  0  0  0  0  0  0  0  0  0  0
  162.3740  212.6560  147.2640 O   0  0  0  0  0  0  0  0  0  0  0  0
  160.8620  211.9180  150.1930 N   0  0  0  0  0  0  0  0  0  0  0  0
  161.1310  212.7290  149.2560 N   0  0  0  0  0  0  0  0  0  0  0  0
  1  4  1  0  0  0  0
  2  5  1  0  0  0  0
  2  3  2  0  0  0  0
  4  7  2  0  0  0  0
  6  1  1  6  0  0  0
  6  2  1  0  0  0  0
  7  3  1  0  0  0  0
  9  8  1  0  0  0  0
  9 10  1  0  0  0  0
 10  8  1  1  0  0  0
 10  6  1  0  0  0  0
 11 17  1  0  0  0  0
 11 12  1  0  0  0  0
 12 17  1  6  0  0  0
 12 14  1  0  0  0  0
 13 14  2  0  0  0  0
 14  9  1  0  0  0  0
 15 16  2  0  0  0  0
 15 11  1  0  0  0  0
 16 13  1  0  0  0  0
 18 19  1  0  0  0  0
 18  5  1  0  0  0  0
 20 19  1  0  0  0  0
 21 22  1  0  0  0  0
 22 25  1  0  0  0  0
 22 20  1  1  0  0  0
 23 21  1  0  0  0  0
 23 26  1  0  0  0  0
 24 23  2  0  0  0  0
 26 25  2  0  0  0  0
M  END
>  <MODEL>
5

>  <REMARK>
 VINA RESULT:      -7.2      2.632      3.475
  Name = 
  6 active torsions:
  status: ('A' for Active; 'I' for Inactive)
    1  A    between atoms: C_3  and  C_26
    2  A    between atoms: C_10  and  N_20
    3  A    between atoms: N_15  and  C_17
    4  A    between atoms: C_17  and  N_18
    5  A    between atoms: N_18  and  C_26
    6  A    between atoms: C_21  and  C_22
                            x       y       z     vdW  Elec       q    Type
                         _______ _______ _______ _____ _____    ______ ____

>  <TORSDO>
F 6

$$$$
=
 OpenBabel11052409483D

 26 30  0  0  1  0  0  0  0  0999 V2000
  161.9690  208.4130  148.5760 C   0  0  0  0  0  2  0  0  0  0  0  0
  161.7920  208.5010  151.1150 C   0  0  0  0  0  0  0  0  0  0  0  0
  161.8030  209.8000  151.0300 N   0  0  0  0  0  0  0  0  0  0  0  0
  162.2810  209.8720  148.6750 C   0  0  0  0  0  3  0  0  0  0  0  0
  161.5690  207.9260  152.4110 N   0  0  0  0  0  2  0  0  0  0  0  0
  162.1950  207.6590  149.9070 C   0  0  1  0  0  3  0  0  0  0  0  0
  162.1450  210.5110  149.8330 C   0  0  0  0  0  3  0  0  0  0  0  0
  160.2040  206.2020  149.8180 C   0  0  0  0  0  2  0  0  0  0  0  0
  161.0130  205.8700  148.6040 N   0  0  0  0  0  0  0  0  0  0  0  0
  161.5810  206.2380  149.9340 C   0  0  1  0  0  3  0  0  0  0  0  0
  162.2010  204.4610  145.3980 N   0  0  0  0  0  0  0  0  0  0  0  0
  162.0360  204.3370  146.8660 C   0  0  2  0  0  3  0  0  0  0  0  0
  160.4440  206.2030  146.2950 C   0  0  0  0  0  3  0  0  0  0  0  0
  161.1480  205.5130  147.2340 C   0  0  0  0  0  0  0  0  0  0  0  0
  161.4400  205.0490  144.3670 C   0  0  0  0  0  3  0  0  0  0  0  0
  160.5470  205.9330  144.8230 C   0  0  0  0  0  3  0  0  0  0  0  0
  163.2740  204.7040  146.4100 C   0  0  0  0  0  2  0  0  0  0  0  0
  161.9590  206.5820  152.8130 C   0  0  0  0  0  2  0  0  0  0  0  0
  161.4370  206.2960  154.1380 N   0  0  0  0  0  2  0  0  0  0  0  0
  160.4560  207.3250  154.4340 C   0  0  0  0  0  2  0  0  0  0  0  0
  159.7160  208.9770  156.1490 C   0  0  0  0  0  2  0  0  0  0  0  0
  160.5380  207.7090  155.9010 C   0  0  2  0  0  3  0  0  0  0  0  0
  160.7730  209.8880  156.6330 C   0  0  0  0  0  0  0  0  0  0  0  0
  160.5900  211.0840  156.9800 O   0  0  0  0  0  0  0  0  0  0  0  0
  161.9140  208.0640  156.2490 N   0  0  0  0  0  0  0  0  0  0  0  0
  162.0340  209.2600  156.6530 N   0  0  0  0  0  0  0  0  0  0  0  0
  1  4  1  0  0  0  0
  2  5  1  0  0  0  0
  3  2  2  0  0  0  0
  4  7  2  0  0  0  0
  5 18  1  0  0  0  0
  6  1  1  6  0  0  0
  6 10  1  0  0  0  0
  6  2  1  0  0  0  0
  7  3  1  0  0  0  0
  9  8  1  0  0  0  0
  9 10  1  0  0  0  0
 10  8  1  1  0  0  0
 11 17  1  0  0  0  0
 11 12  1  0  0  0  0
 12 17  1  1  0  0  0
 12 14  1  0  0  0  0
 13 14  2  0  0  0  0
 14  9  1  0  0  0  0
 15 16  2  0  0  0  0
 15 11  1  0  0  0  0
 16 13  1  0  0  0  0
 18 19  1  0  0  0  0
 19 20  1  0  0  0  0
 21 23  1  0  0  0  0
 22 20  1  6  0  0  0
 22 21  1  0  0  0  0
 22 25  1  0  0  0  0
 23 26  1  0  0  0  0
 23 24  2  0  0  0  0
 25 26  2  0  0  0  0
M  END
>  <MODEL>
6

>  <REMARK>
 VINA RESULT:      -7.0      1.736      3.112
  Name = 
  6 active torsions:
  status: ('A' for Active; 'I' for Inactive)
    1  A    between atoms: C_3  and  C_26
    2  A    between atoms: C_10  and  N_20
    3  A    between atoms: N_15  and  C_17
    4  A    between atoms: C_17  and  N_18
    5  A    between atoms: N_18  and  C_26
    6  A    between atoms: C_21  and  C_22
                            x       y       z     vdW  Elec       q    Type
                         _______ _______ _______ _____ _____    ______ ____

>  <TORSDO>
F 6

$$$$
=
 OpenBabel11052409483D

 26 30  0  0  1  0  0  0  0  0999 V2000
  161.1990  207.2360  153.4690 C   0  0  0  0  0  2  0  0  0  0  0  0
  160.9560  209.7260  153.9410 C   0  0  0  0  0  0  0  0  0  0  0  0
  161.1550  209.4640  155.2010 N   0  0  0  0  0  0  0  0  0  0  0  0
  161.0970  207.0740  154.9510 C   0  0  0  0  0  3  0  0  0  0  0  0
  160.8680  211.1070  153.5590 N   0  0  0  0  0  2  0  0  0  0  0  0
  160.6400  208.5890  152.9720 C   0  0  1  0  0  3  0  0  0  0  0  0
  161.1300  208.1390  155.7470 C   0  0  0  0  0  3  0  0  0  0  0  0
  162.3770  208.8960  151.2440 C   0  0  0  0  0  2  0  0  0  0  0  0
  161.5570  207.7260  150.8010 N   0  0  0  0  0  0  0  0  0  0  0  0
  161.0210  208.9260  151.5100 C   0  0  1  0  0  3  0  0  0  0  0  0
  161.1050  204.9610  148.3870 N   0  0  0  0  0  0  0  0  0  0  0  0
  161.6670  206.2930  148.7160 C   0  0  2  0  0  3  0  0  0  0  0  0
  161.0670  205.3830  150.9850 C   0  0  0  0  0  3  0  0  0  0  0  0
  161.4020  206.4450  150.2030 C   0  0  0  0  0  0  0  0  0  0  0  0
  160.8580  203.7870  149.1270 C   0  0  0  0  0  3  0  0  0  0  0  0
  160.8400  204.0000  150.4470 C   0  0  0  0  0  3  0  0  0  0  0  0
  160.5300  206.2700  147.9530 C   0  0  0  0  0  2  0  0  0  0  0  0
  160.2190  211.6070  152.3560 C   0  0  0  0  0  2  0  0  0  0  0  0
  158.8000  211.7880  152.6030 N   0  0  0  0  0  2  0  0  0  0  0  0
  158.6510  213.0600  153.2890 C   0  0  0  0  0  2  0  0  0  0  0  0
  157.5570  211.3760  154.7680 C   0  0  0  0  0  2  0  0  0  0  0  0
  157.8820  212.8620  154.5830 C   0  0  2  0  0  3  0  0  0  0  0  0
  156.0810  211.4280  154.7840 C   0  0  0  0  0  0  0  0  0  0  0  0
  155.3270  210.4280  154.9190 O   0  0  0  0  0  0  0  0  0  0  0  0
  156.5850  213.5350  154.5020 N   0  0  0  0  0  0  0  0  0  0  0  0
  155.6030  212.7420  154.6160 N   0  0  0  0  0  0  0  0  0  0  0  0
  1  4  1  0  0  0  0
  2  3  2  0  0  0  0
  3  7  1  0  0  0  0
  4  7  2  0  0  0  0
  5  2  1  0  0  0  0
  6  1  1  1  0  0  0
  6  2  1  0  0  0  0
  9  8  1  0  0  0  0
  9 10  1  0  0  0  0
 10  8  1  1  0  0  0
 10  6  1  0  0  0  0
 11 12  1  0  0  0  0
 11 15  1  0  0  0  0
 12 17  1  6  0  0  0
 12 14  1  0  0  0  0
 14  9  1  0  0  0  0
 14 13  2  0  0  0  0
 15 16  2  0  0  0  0
 16 13  1  0  0  0  0
 17 11  1  0  0  0  0
 18 19  1  0  0  0  0
 18  5  1  0  0  0  0
 19 20  1  0  0  0  0
 21 23  1  0  0  0  0
 22 20  1  6  0  0  0
 22 21  1  0  0  0  0
 23 24  2  0  0  0  0
 25 22  1  0  0  0  0
 25 26  2  0  0  0  0
 26 23  1  0  0  0  0
M  END
>  <MODEL>
7

>  <REMARK>
 VINA RESULT:      -7.0      2.698      4.232
  Name = 
  6 active torsions:
  status: ('A' for Active; 'I' for Inactive)
    1  A    between atoms: C_3  and  C_26
    2  A    between atoms: C_10  and  N_20
    3  A    between atoms: N_15  and  C_17
    4  A    between atoms: C_17  and  N_18
    5  A    between atoms: N_18  and  C_26
    6  A    between atoms: C_21  and  C_22
                            x       y       z     vdW  Elec       q    Type
                         _______ _______ _______ _____ _____    ______ ____

>  <TORSDO>
F 6

$$$$
=
 OpenBabel11052409483D

 26 30  0  0  1  0  0  0  0  0999 V2000
  161.8180  210.0110  150.5770 C   0  0  0  0  0  2  0  0  0  0  0  0
  162.1420  207.4940  150.7860 C   0  0  0  0  0  0  0  0  0  0  0  0
  162.5090  207.4800  149.5370 N   0  0  0  0  0  0  0  0  0  0  0  0
  161.9540  209.7790  149.1060 C   0  0  0  0  0  3  0  0  0  0  0  0
  162.2510  206.2660  151.5210 N   0  0  0  0  0  2  0  0  0  0  0  0
  161.4470  208.7280  151.3560 C   0  0  1  0  0  3  0  0  0  0  0  0
  162.3310  208.5890  148.6470 C   0  0  0  0  0  3  0  0  0  0  0  0
  162.3500  209.9530  153.3000 C   0  0  0  0  0  2  0  0  0  0  0  0
  160.8610  210.0290  153.4210 N   0  0  0  0  0  0  0  0  0  0  0  0
  161.6160  208.8560  152.8900 C   0  0  1  0  0  3  0  0  0  0  0  0
  157.9250  212.2770  153.4010 N   0  0  0  0  0  0  0  0  0  0  0  0
  158.9130  211.4580  152.6590 C   0  0  2  0  0  3  0  0  0  0  0  0
  159.1640  210.6100  155.0170 C   0  0  0  0  0  3  0  0  0  0  0  0
  159.6510  210.7010  153.7490 C   0  0  0  0  0  0  0  0  0  0  0  0
  157.2920  212.1600  154.6550 C   0  0  0  0  0  3  0  0  0  0  0  0
  157.9200  211.3120  155.4750 C   0  0  0  0  0  3  0  0  0  0  0  0
  159.1250  212.8110  152.6880 C   0  0  0  0  0  2  0  0  0  0  0  0
  161.5040  205.9390  152.7260 C   0  0  0  0  0  2  0  0  0  0  0  0
  160.8600  204.6470  152.5690 N   0  0  0  0  0  2  0  0  0  0  0  0
  161.5810  203.9430  151.5230 C   0  0  0  0  0  2  0  0  0  0  0  0
  160.7970  201.8960  150.3330 C   0  0  0  0  0  2  0  0  0  0  0  0
  160.6030  203.4070  150.4920 C   0  0  2  0  0  3  0  0  0  0  0  0
  161.1680  201.8250  148.9060 C   0  0  0  0  0  0  0  0  0  0  0  0
  161.4330  200.7640  148.2820 O   0  0  0  0  0  0  0  0  0  0  0  0
  160.9000  203.9760  149.1770 N   0  0  0  0  0  0  0  0  0  0  0  0
  161.2060  203.1020  148.3120 N   0  0  0  0  0  0  0  0  0  0  0  0
  2  6  1  0  0  0  0
  2  5  1  0  0  0  0
  3  2  2  0  0  0  0
  4  1  1  0  0  0  0
  5 18  1  0  0  0  0
  6  1  1  6  0  0  0
  6 10  1  0  0  0  0
  7  4  2  0  0  0  0
  7  3  1  0  0  0  0
  8  9  1  0  0  0  0
  9 14  1  0  0  0  0
 10  8  1  6  0  0  0
 10  9  1  0  0  0  0
 11 15  1  0  0  0  0
 12 17  1  1  0  0  0
 12 11  1  0  0  0  0
 12 14  1  0  0  0  0
 13 16  1  0  0  0  0
 14 13  2  0  0  0  0
 15 16  2  0  0  0  0
 17 11  1  0  0  0  0
 19 18  1  0  0  0  0
 20 19  1  0  0  0  0
 21 22  1  0  0  0  0
 22 20  1  1  0  0  0
 23 21  1  0  0  0  0
 24 23  2  0  0  0  0
 25 22  1  0  0  0  0
 26 23  1  0  0  0  0
 26 25  2  0  0  0  0
M  END
>  <MODEL>
8

>  <REMARK>
 VINA RESULT:      -7.0      3.410      8.206
  Name = 
  6 active torsions:
  status: ('A' for Active; 'I' for Inactive)
    1  A    between atoms: C_3  and  C_26
    2  A    between atoms: C_10  and  N_20
    3  A    between atoms: N_15  and  C_17
    4  A    between atoms: C_17  and  N_18
    5  A    between atoms: N_18  and  C_26
    6  A    between atoms: C_21  and  C_22
                            x       y       z     vdW  Elec       q    Type
                         _______ _______ _______ _____ _____    ______ ____

>  <TORSDO>
F 6

$$$$
=
 OpenBabel11052409483D

 26 30  0  0  1  0  0  0  0  0999 V2000
  161.1990  207.6720  153.7650 C   0  0  0  0  0  2  0  0  0  0  0  0
  160.4500  210.0940  154.0040 C   0  0  0  0  0  0  0  0  0  0  0  0
  160.5790  209.9630  155.2930 N   0  0  0  0  0  0  0  0  0  0  0  0
  160.9950  207.5950  155.2440 C   0  0  0  0  0  3  0  0  0  0  0  0
  160.1390  211.4010  153.5000 N   0  0  0  0  0  2  0  0  0  0  0  0
  160.4430  208.8530  153.1140 C   0  0  1  0  0  3  0  0  0  0  0  0
  160.7540  208.6990  155.9460 C   0  0  0  0  0  3  0  0  0  0  0  0
  162.2530  209.1460  151.4600 C   0  0  0  0  0  2  0  0  0  0  0  0
  161.4770  207.9470  151.0140 N   0  0  0  0  0  0  0  0  0  0  0  0
  160.8850  209.1550  151.6610 C   0  0  1  0  0  3  0  0  0  0  0  0
  161.1140  205.1090  148.6710 N   0  0  0  0  0  0  0  0  0  0  0  0
  161.6140  206.4750  148.9580 C   0  0  2  0  0  3  0  0  0  0  0  0
  161.1130  205.5860  151.2590 C   0  0  0  0  0  3  0  0  0  0  0  0
  161.3750  206.6460  150.4470 C   0  0  0  0  0  0  0  0  0  0  0  0
  160.9440  203.9410  149.4420 C   0  0  0  0  0  3  0  0  0  0  0  0
  160.9460  204.1830  150.7560 C   0  0  0  0  0  3  0  0  0  0  0  0
  160.4620  206.3770  148.2230 C   0  0  0  0  0  2  0  0  0  0  0  0
  159.5200  211.6810  152.2130 C   0  0  0  0  0  2  0  0  0  0  0  0
  160.2640  212.7220  151.5270 N   0  0  0  0  0  2  0  0  0  0  0  0
  159.3650  213.3050  150.5470 C   0  0  0  0  0  2  0  0  0  0  0  0
  159.2620  213.6670  148.0810 C   0  0  0  0  0  2  0  0  0  0  0  0
  160.1500  213.7510  149.3260 C   0  0  2  0  0  3  0  0  0  0  0  0
  160.0240  212.6910  147.2770 C   0  0  0  0  0  0  0  0  0  0  0  0
  159.6910  212.2830  146.1330 O   0  0  0  0  0  0  0  0  0  0  0  0
  161.2560  212.8250  149.0770 N   0  0  0  0  0  0  0  0  0  0  0  0
  161.1810  212.2500  147.9490 N   0  0  0  0  0  0  0  0  0  0  0  0
  1  4  1  0  0  0  0
  2  3  2  0  0  0  0
  3  7  1  0  0  0  0
  4  7  2  0  0  0  0
  5  2  1  0  0  0  0
  6  1  1  1  0  0  0
  6  2  1  0  0  0  0
  9  8  1  0  0  0  0
  9 10  1  0  0  0  0
 10  8  1  1  0  0  0
 10  6  1  0  0  0  0
 11 12  1  0  0  0  0
 11 15  1  0  0  0  0
 12 17  1  6  0  0  0
 12 14  1  0  0  0  0
 14  9  1  0  0  0  0
 14 13  2  0  0  0  0
 15 16  2  0  0  0  0
 16 13  1  0  0  0  0
 17 11  1  0  0  0  0
 18  5  1  0  0  0  0
 19 18  1  0  0  0  0
 20 19  1  0  0  0  0
 21 22  1  0  0  0  0
 22 20  1  1  0  0  0
 23 26  1  0  0  0  0
 23 21  1  0  0  0  0
 24 23  2  0  0  0  0
 25 22  1  0  0  0  0
 26 25  2  0  0  0  0
M  END
>  <MODEL>
9

>  <REMARK>
 VINA RESULT:      -6.7      3.481      5.469
  Name = 
  6 active torsions:
  status: ('A' for Active; 'I' for Inactive)
    1  A    between atoms: C_3  and  C_26
    2  A    between atoms: C_10  and  N_20
    3  A    between atoms: N_15  and  C_17
    4  A    between atoms: C_17  and  N_18
    5  A    between atoms: N_18  and  C_26
    6  A    between atoms: C_21  and  C_22
                            x       y       z     vdW  Elec       q    Type
                         _______ _______ _______ _____ _____    ______ ____

>  <TORSDO>
F 6

$$$$
