=
 OpenBabel11052410323D

 65 75  0  0  1  0  0  0  0  0999 V2000
  161.1550  202.6210  148.5790 C   0  0  0  0  0  2  0  0  0  0  0  0
  161.6330  212.0480  150.3400 C   0  0  0  0  0  2  0  0  0  0  0  0
  161.3400  203.8340  149.0850 C   0  0  0  0  0  0  0  0  0  0  0  0
  161.5990  207.4450  151.7910 C   0  0  0  0  0  0  0  0  0  0  0  0
  162.2210  211.9700  148.9600 C   0  0  1  0  0  3  0  0  0  0  0  0
  161.5960  210.5050  147.9030 S   0  0  0  0  0  0  0  0  0  0  0  0
  161.1460  210.5030  150.6320 C   0  0  2  0  0  3  0  0  0  0  0  0
  161.5960  207.3050  150.2380 C   0  0  1  0  0  3  0  0  0  0  0  0
  161.3650  210.0050  152.0630 N   0  0  0  0  0  2  0  0  0  0  0  0
  161.1960  205.0260  152.7870 C   0  0  0  0  0  3  0  0  0  0  0  0
  161.5800  204.6380  150.3480 C   0  0  1  0  0  0  0  0  0  0  0  0
  160.8810  204.1390  151.6710 C   0  0  0  0  0  2  0  0  0  0  0  0
  161.3760  205.2090  148.4820 C   0  0  2  0  0  0  0  0  0  0  0  0
  161.4230  208.7840  152.5640 C   0  0  2  0  0  3  0  0  0  0  0  0
  161.4860  209.5120  149.3910 C   0  0  2  0  0  3  0  0  0  0  0  0
  161.4580  206.3270  152.4400 C   0  0  0  0  0  0  0  0  0  0  0  0
  162.4830  208.2570  149.3750 C   0  0  0  0  0  2  0  0  0  0  0  0
  161.0020  205.9060  149.7160 C   0  0  2  0  0  3  0  0  0  0  0  0
  161.5810  208.7650  154.1500 C   0  0  0  0  0  2  0  0  0  0  0  0
  160.6500  209.1270  154.9920 C   0  0  0  0  0  2  0  0  0  0  0  0
  161.0940  209.0950  156.3840 C   0  0  0  0  0  2  0  0  0  0  0  0
  161.8250  210.3640  156.6550 N   0  0  0  0  0  2  0  0  0  0  0  0
  160.4960  212.5690  157.2580 C   0  0  0  0  0  2  0  0  0  0  0  0
  159.6730  211.2820  157.1780 C   0  0  2  0  0  3  0  0  0  0  0  0
  160.8180  211.4330  156.2640 C   0  0  2  0  0  3  0  0  0  0  0  0
  158.4090  211.4320  156.3990 C   0  0  0  0  0  0  0  0  0  0  0  0
  157.3600  211.5700  157.1420 O   0  0  0  0  0  0  0  0  0  0  0  0
  157.3120  213.8790  155.4440 O   0  0  0  0  0  0  0  0  0  0  0  0
  157.5890  213.0280  154.5780 C   0  0  0  0  0  0  0  0  0  0  0  0
  158.2810  211.7920  154.9850 N   0  0  0  0  0  2  0  0  0  0  0  0
  158.8870  213.9070  152.6190 C   0  0  2  0  0  3  0  0  0  0  0  0
  158.0480  212.9400  151.8640 C   0  0  0  0  0  2  0  0  0  0  0  0
  160.0370  212.9470  152.8380 C   0  0  0  0  0  1  0  0  0  0  0  0
  157.4930  213.5520  153.1090 C   0  0  1  0  0  0  0  0  0  0  0  0
  154.1650  214.1940  151.6930 C   0  0  0  0  0  1  0  0  0  0  0  0
  155.0960  213.7940  152.7300 C   0  0  0  0  0  0  0  0  0  0  0  0
  154.6830  212.9880  153.5870 O   0  0  0  0  0  0  0  0  0  0  0  0
  156.3530  214.4460  152.8860 N   0  0  0  0  0  2  0  0  0  0  0  0
  161.0980  205.5710  147.0510 C   0  0  0  0  0  2  0  0  0  0  0  0
  161.7020  204.3900  146.1220 C   0  0  0  0  0  0  0  0  0  0  0  0
  162.9070  204.0570  145.8410 O   0  0  0  0  0  0  0  0  0  0  0  0
  160.7380  201.9150  145.7540 S   0  0  0  0  0  0  0  0  0  0  0  0
  159.6960  201.5310  144.4960 C   0  0  0  0  0  3  0  0  0  0  0  0
  160.8620  203.4980  145.4000 C   0  0  0  0  0  0  0  0  0  0  0  0
  160.1030  203.8260  144.3920 N   0  0  0  0  0  0  0  0  0  0  0  0
  159.4730  202.7140  143.8790 N   0  0  0  0  0  0  0  0  0  0  0  0
  161.8200  213.3480  148.2900 C   0  0  0  0  0  2  0  0  0  0  0  0
  160.4650  213.2230  147.7240 C   0  0  0  0  0  2  0  0  0  0  0  0
  160.2990  213.9800  146.3870 C   0  0  0  0  0  2  0  0  0  0  0  0
  161.4760  213.6510  145.4730 C   0  0  0  0  0  0  0  0  0  0  0  0
  162.6480  213.8020  145.8410 O   0  0  0  0  0  0  0  0  0  0  0  0
  161.2270  212.6830  144.2130 C   0  0  0  0  0  2  0  0  0  0  0  0
  157.9130  214.4500  139.0970 C   0  0  0  0  0  2  0  0  0  0  0  0
  160.6340  212.9680  141.4360 C   0  0  2  0  0  0  0  0  0  0  0  0
  162.0670  213.5500  141.2410 C   0  0  0  0  0  2  0  0  0  0  0  0
  159.6960  213.9200  140.6560 C   0  0  2  0  0  3  0  0  0  0  0  0
  157.0790  214.4530  141.5270 C   0  0  0  0  0  2  0  0  0  0  0  0
  160.2590  212.9690  142.9520 C   0  0  2  0  0  3  0  0  0  0  0  0
  158.5930  214.2040  141.7570 C   0  0  1  0  0  3  0  0  0  0  0  0
  156.7610  214.0850  140.0670 C   0  0  0  0  0  2  0  0  0  0  0  0
  162.5670  211.6010  141.7430 O   0  0  0  0  0  1  0  0  0  0  0  0
  161.7740  212.1820  140.7840 C   0  0  1  0  0  3  0  0  0  0  0  0
  158.1950  213.3800  144.1280 O   0  0  0  0  0  1  0  0  0  0  0  0
  159.1840  213.5900  139.2420 C   0  0  0  0  0  2  0  0  0  0  0  0
  159.1420  213.9540  143.2110 C   0  0  1  0  0  3  0  0  0  0  0  0
  1  3  2  0  0  0  0
  3 11  1  0  0  0  0
  4 16  2  0  0  0  0
  4 14  1  0  0  0  0
  5 47  1  6  0  0  0
  5  2  1  0  0  0  0
  6  5  1  0  0  0  0
  6 15  1  0  0  0  0
  7  2  1  6  0  0  0
  7  9  1  0  0  0  0
  8 17  1  1  0  0  0
  8  4  1  0  0  0  0
  9 14  1  0  0  0  0
 11 12  1  1  0  0  0
 12 10  1  0  0  0  0
 13 39  1  6  0  0  0
 13  3  1  0  0  0  0
 13 18  1  0  0  0  0
 13 11  1  0  0  0  0
 14 19  1  1  0  0  0
 15 17  1  1  0  0  0
 15  7  1  0  0  0  0
 16 10  2  0  0  0  0
 18  8  1  0  0  0  0
 18 11  1  0  0  0  0
 19 20  1  0  0  0  0
 20 21  1  0  0  0  0
 21 22  1  0  0  0  0
 24 23  1  0  0  0  0
 25 22  1  0  0  0  0
 25 24  1  0  0  0  0
 25 23  1  0  0  0  0
 26 27  2  0  0  0  0
 26 24  1  0  0  0  0
 29 30  1  0  0  0  0
 29 28  2  0  0  0  0
 30 26  1  0  0  0  0
 31 33  1  0  0  0  0
 31 34  1  0  0  0  0
 32 31  1  0  0  0  0
 32 34  1  0  0  0  0
 34 29  1  0  0  0  0
 35 36  1  0  0  0  0
 36 38  1  0  0  0  0
 36 37  2  0  0  0  0
 38 34  1  0  0  0  0
 40 39  1  0  0  0  0
 41 40  2  0  0  0  0
 43 42  1  0  0  0  0
 44 42  1  0  0  0  0
 44 40  1  0  0  0  0
 45 44  2  0  0  0  0
 46 45  1  0  0  0  0
 46 43  2  0  0  0  0
 48 47  1  0  0  0  0
 49 48  1  0  0  0  0
 50 51  2  0  0  0  0
 50 49  1  0  0  0  0
 52 50  1  0  0  0  0
 53 64  1  0  0  0  0
 53 60  1  0  0  0  0
 54 58  1  0  0  0  0
 55 54  1  0  0  0  0
 56 54  1  0  0  0  0
 56 59  1  0  0  0  0
 57 59  1  0  0  0  0
 58 65  1  0  0  0  0
 58 52  1  0  0  0  0
 59 65  1  0  0  0  0
 60 57  1  0  0  0  0
 62 55  1  0  0  0  0
 62 54  1  0  0  0  0
 62 61  1  0  0  0  0
 64 56  1  0  0  0  0
 65 63  1  0  0  0  0
M  END
>  <MODEL>
1

>  <REMARK>
 VINA RESULT:      -6.1      0.000      0.000
  Name = 
  16 active torsions:
  status: ('A' for Active; 'I' for Inactive)
    1  A    between atoms: N_1  and  C_15
    2  A    between atoms: N_1  and  C_40
    3  A    between atoms: C_3  and  C_34
    4  A    between atoms: C_4  and  C_56
    5  A    between atoms: C_9  and  C_20
    6  A    between atoms: C_9  and  C_46
    7  A    between atoms: C_15  and  C_54
    8  A    between atoms: C_20  and  C_64
    9  A    between atoms: C_21  and  C_25
   10  A    between atoms: C_24  and  C_41
   11  A    between atoms: C_25  and  C_46
   12  A    between atoms: C_28  and  C_60
   13  A    between atoms: C_31  and  C_64
   14  A    between atoms: N_36  and  C_60
   15  A    between atoms: C_41  and  C_50
   16  A    between atoms: C_50  and  C_53
                            x       y       z     vdW  Elec       q    Type
                         _______ _______ _______ _____ _____    ______ ____

>  <TORSDO>
F 16

$$$$
=
 OpenBabel11052410323D

 65 75  0  0  1  0  0  0  0  0999 V2000
  160.9980  203.1040  149.7650 C   0  0  0  0  0  2  0  0  0  0  0  0
  161.5600  212.6820  150.1360 C   0  0  0  0  0  2  0  0  0  0  0  0
  161.2220  204.3740  150.0750 C   0  0  0  0  0  0  0  0  0  0  0  0
  161.7140  208.3270  152.2120 C   0  0  0  0  0  0  0  0  0  0  0  0
  162.0100  212.4090  148.7300 C   0  0  1  0  0  3  0  0  0  0  0  0
  161.2960  210.8140  147.9550 S   0  0  0  0  0  0  0  0  0  0  0  0
  161.1200  211.1950  150.6890 C   0  0  2  0  0  3  0  0  0  0  0  0
  161.5590  207.9710  150.7010 C   0  0  1  0  0  3  0  0  0  0  0  0
  161.4850  210.9010  152.1460 N   0  0  0  0  0  2  0  0  0  0  0  0
  161.4350  206.0730  153.5710 C   0  0  0  0  0  3  0  0  0  0  0  0
  161.5780  205.3450  151.1830 C   0  0  1  0  0  0  0  0  0  0  0  0
  161.0180  205.0400  152.6260 C   0  0  0  0  0  2  0  0  0  0  0  0
  161.1840  205.6510  149.2860 C   0  0  2  0  0  0  0  0  0  0  0  0
  161.6030  209.7620  152.8040 C   0  0  2  0  0  3  0  0  0  0  0  0
  161.3440  210.0390  149.5700 C   0  0  2  0  0  3  0  0  0  0  0  0
  161.6490  207.3110  153.0210 C   0  0  0  0  0  0  0  0  0  0  0  0
  162.3460  208.7890  149.6300 C   0  0  0  0  0  2  0  0  0  0  0  0
  160.9290  206.5160  150.4410 C   0  0  2  0  0  3  0  0  0  0  0  0
  161.9180  209.9640  154.3530 C   0  0  0  0  0  2  0  0  0  0  0  0
  161.0100  210.1050  155.2820 C   0  0  0  0  0  2  0  0  0  0  0  0
  161.5800  210.3630  156.6030 C   0  0  0  0  0  2  0  0  0  0  0  0
  161.8080  211.8310  156.7180 N   0  0  0  0  0  2  0  0  0  0  0  0
  160.1510  213.8540  156.3270 C   0  0  0  0  0  2  0  0  0  0  0  0
  159.5550  212.6060  156.9810 C   0  0  2  0  0  3  0  0  0  0  0  0
  160.6200  212.4250  155.9800 C   0  0  2  0  0  3  0  0  0  0  0  0
  158.2530  212.1860  156.3830 C   0  0  0  0  0  0  0  0  0  0  0  0
  157.3150  212.0220  157.2580 O   0  0  0  0  0  0  0  0  0  0  0  0
  156.2180  213.9240  155.4160 O   0  0  0  0  0  0  0  0  0  0  0  0
  156.7030  213.1330  154.5860 C   0  0  0  0  0  0  0  0  0  0  0  0
  157.8500  212.2960  154.9800 N   0  0  0  0  0  2  0  0  0  0  0  0
  154.7720  213.1250  152.9840 C   0  0  2  0  0  3  0  0  0  0  0  0
  155.3280  214.4470  152.5930 C   0  0  0  0  0  2  0  0  0  0  0  0
  153.8060  213.6820  154.0090 C   0  0  0  0  0  1  0  0  0  0  0  0
  156.2610  213.4000  153.1110 C   0  0  1  0  0  0  0  0  0  0  0  0
  158.7850  214.0170  150.5140 C   0  0  0  0  0  1  0  0  0  0  0  0
  158.3270  213.7610  151.8650 C   0  0  0  0  0  0  0  0  0  0  0  0
  159.0450  214.1690  152.7980 O   0  0  0  0  0  0  0  0  0  0  0  0
  157.2190  212.9020  152.1190 N   0  0  0  0  0  2  0  0  0  0  0  0
  160.7620  205.8120  147.8530 C   0  0  0  0  0  2  0  0  0  0  0  0
  161.7130  204.8560  146.9550 C   0  0  0  0  0  0  0  0  0  0  0  0
  162.9730  204.8800  146.7260 O   0  0  0  0  0  0  0  0  0  0  0  0
  160.2810  203.9720  144.8670 S   0  0  0  0  0  0  0  0  0  0  0  0
  159.9840  202.3420  144.6040 C   0  0  0  0  0  3  0  0  0  0  0  0
  161.1890  203.7700  146.2020 C   0  0  0  0  0  0  0  0  0  0  0  0
  161.3660  202.5070  146.4750 N   0  0  0  0  0  0  0  0  0  0  0  0
  160.6680  201.7170  145.5890 N   0  0  0  0  0  0  0  0  0  0  0  0
  161.5310  213.6810  147.9170 C   0  0  0  0  0  2  0  0  0  0  0  0
  160.3530  213.3140  147.1120 C   0  0  0  0  0  2  0  0  0  0  0  0
  160.7250  212.7490  145.7230 C   0  0  0  0  0  2  0  0  0  0  0  0
  159.4540  212.5600  144.8990 C   0  0  0  0  0  0  0  0  0  0  0  0
  158.4560  211.9940  145.3630 O   0  0  0  0  0  0  0  0  0  0  0  0
  159.2300  213.4860  143.6040 C   0  0  0  0  0  2  0  0  0  0  0  0
  162.9140  213.0370  138.4550 C   0  0  0  0  0  2  0  0  0  0  0  0
  159.8490  213.1900  140.8330 C   0  0  2  0  0  0  0  0  0  0  0  0
  158.9290  211.9310  140.8140 C   0  0  0  0  0  2  0  0  0  0  0  0
  161.1360  212.7670  140.0850 C   0  0  2  0  0  3  0  0  0  0  0  0
  163.6580  213.7810  140.7980 C   0  0  0  0  0  2  0  0  0  0  0  0
  160.1890  213.5800  142.3070 C   0  0  2  0  0  3  0  0  0  0  0  0
  162.2390  213.2400  141.1190 C   0  0  1  0  0  3  0  0  0  0  0  0
  163.7180  214.0670  139.2870 C   0  0  0  0  0  2  0  0  0  0  0  0
  157.4900  213.3880  141.1470 O   0  0  0  0  0  1  0  0  0  0  0  0
  158.4590  213.1810  140.1950 C   0  0  1  0  0  3  0  0  0  0  0  0
  162.1780  214.4510  143.3530 O   0  0  0  0  0  1  0  0  0  0  0  0
  161.3820  213.1270  138.6080 C   0  0  0  0  0  2  0  0  0  0  0  0
  161.6590  213.3570  142.5780 C   0  0  1  0  0  3  0  0  0  0  0  0
  1  3  2  0  0  0  0
  3 11  1  0  0  0  0
  4 14  1  0  0  0  0
  4 16  2  0  0  0  0
  5 47  1  6  0  0  0
  5  2  1  0  0  0  0
  6  5  1  0  0  0  0
  6 15  1  0  0  0  0
  7  2  1  6  0  0  0
  7  9  1  0  0  0  0
  8 17  1  6  0  0  0
  8  4  1  0  0  0  0
  9 14  1  0  0  0  0
 11 12  1  1  0  0  0
 12 10  1  0  0  0  0
 13 39  1  6  0  0  0
 13  3  1  0  0  0  0
 13 18  1  0  0  0  0
 13 11  1  0  0  0  0
 14 19  1  6  0  0  0
 15 17  1  1  0  0  0
 15  7  1  0  0  0  0
 16 10  2  0  0  0  0
 18  8  1  0  0  0  0
 18 11  1  0  0  0  0
 19 20  1  0  0  0  0
 20 21  1  0  0  0  0
 21 22  1  0  0  0  0
 23 24  1  0  0  0  0
 25 23  1  0  0  0  0
 25 22  1  0  0  0  0
 25 24  1  0  0  0  0
 26 24  1  0  0  0  0
 26 27  2  0  0  0  0
 29 30  1  0  0  0  0
 29 28  2  0  0  0  0
 30 26  1  0  0  0  0
 31 34  1  0  0  0  0
 31 33  1  0  0  0  0
 32 31  1  0  0  0  0
 32 34  1  0  0  0  0
 34 29  1  0  0  0  0
 35 36  1  0  0  0  0
 36 38  1  0  0  0  0
 36 37  2  0  0  0  0
 38 34  1  0  0  0  0
 40 39  1  0  0  0  0
 41 40  2  0  0  0  0
 42 44  1  0  0  0  0
 43 42  1  0  0  0  0
 43 46  2  0  0  0  0
 44 45  2  0  0  0  0
 44 40  1  0  0  0  0
 46 45  1  0  0  0  0
 48 47  1  0  0  0  0
 49 48  1  0  0  0  0
 50 51  2  0  0  0  0
 50 49  1  0  0  0  0
 52 50  1  0  0  0  0
 53 64  1  0  0  0  0
 53 60  1  0  0  0  0
 54 58  1  0  0  0  0
 55 54  1  0  0  0  0
 56 54  1  0  0  0  0
 56 59  1  0  0  0  0
 57 59  1  0  0  0  0
 58 65  1  0  0  0  0
 58 52  1  0  0  0  0
 59 65  1  0  0  0  0
 60 57  1  0  0  0  0
 62 55  1  0  0  0  0
 62 54  1  0  0  0  0
 62 61  1  0  0  0  0
 64 56  1  0  0  0  0
 65 63  1  0  0  0  0
M  END
>  <MODEL>
2

>  <REMARK>
 VINA RESULT:      -5.1      1.427      2.613
  Name = 
  16 active torsions:
  status: ('A' for Active; 'I' for Inactive)
    1  A    between atoms: N_1  and  C_15
    2  A    between atoms: N_1  and  C_40
    3  A    between atoms: C_3  and  C_34
    4  A    between atoms: C_4  and  C_56
    5  A    between atoms: C_9  and  C_20
    6  A    between atoms: C_9  and  C_46
    7  A    between atoms: C_15  and  C_54
    8  A    between atoms: C_20  and  C_64
    9  A    between atoms: C_21  and  C_25
   10  A    between atoms: C_24  and  C_41
   11  A    between atoms: C_25  and  C_46
   12  A    between atoms: C_28  and  C_60
   13  A    between atoms: C_31  and  C_64
   14  A    between atoms: N_36  and  C_60
   15  A    between atoms: C_41  and  C_50
   16  A    between atoms: C_50  and  C_53
                            x       y       z     vdW  Elec       q    Type
                         _______ _______ _______ _____ _____    ______ ____

>  <TORSDO>
F 16

$$$$
=
 OpenBabel11052410323D

 65 75  0  0  1  0  0  0  0  0999 V2000
  159.9330  213.5730  141.1250 C   0  0  0  0  0  2  0  0  0  0  0  0
  160.7470  211.7130  150.5090 C   0  0  0  0  0  2  0  0  0  0  0  0
  159.7450  213.2880  142.4070 C   0  0  0  0  0  0  0  0  0  0  0  0
  158.1800  213.0280  146.6390 C   0  0  0  0  0  0  0  0  0  0  0  0
  161.8040  210.8160  149.9330 C   0  0  1  0  0  3  0  0  0  0  0  0
  162.5610  211.4250  148.2860 S   0  0  0  0  0  0  0  0  0  0  0  0
  160.2080  212.5540  149.2010 C   0  0  2  0  0  3  0  0  0  0  0  0
  159.5600  212.6580  146.0140 C   0  0  1  0  0  3  0  0  0  0  0  0
  158.7000  212.8140  149.1620 N   0  0  0  0  0  2  0  0  0  0  0  0
  156.7360  214.1440  144.7220 C   0  0  0  0  0  3  0  0  0  0  0  0
  158.7390  213.2280  143.5390 C   0  0  1  0  0  0  0  0  0  0  0  0
  157.6100  214.3290  143.5670 C   0  0  0  0  0  2  0  0  0  0  0  0
  160.6590  212.8280  143.5060 C   0  0  2  0  0  0  0  0  0  0  0  0
  157.8930  213.1300  148.1650 C   0  0  2  0  0  3  0  0  0  0  0  0
  160.9670  212.1080  147.8360 C   0  0  2  0  0  3  0  0  0  0  0  0
  157.3270  213.5500  145.8080 C   0  0  0  0  0  0  0  0  0  0  0  0
  160.3350  211.4090  146.5390 C   0  0  0  0  0  2  0  0  0  0  0  0
  159.8370  213.3620  144.5960 C   0  0  2  0  0  3  0  0  0  0  0  0
  156.3930  213.3930  148.6340 C   0  0  0  0  0  2  0  0  0  0  0  0
  156.0440  214.2450  149.5620 C   0  0  0  0  0  2  0  0  0  0  0  0
  154.6120  214.2190  149.8520 C   0  0  0  0  0  2  0  0  0  0  0  0
  154.4430  214.4530  151.3140 N   0  0  0  0  0  2  0  0  0  0  0  0
  154.7780  212.8440  153.3860 C   0  0  0  0  0  2  0  0  0  0  0  0
  155.9510  213.7660  153.0470 C   0  0  2  0  0  3  0  0  0  0  0  0
  155.1310  213.2500  151.9380 C   0  0  2  0  0  3  0  0  0  0  0  0
  157.2710  213.0710  153.0370 C   0  0  0  0  0  0  0  0  0  0  0  0
  158.1070  213.5660  152.1840 O   0  0  0  0  0  0  0  0  0  0  0  0
  159.5070  213.7010  154.6810 O   0  0  0  0  0  0  0  0  0  0  0  0
  159.0490  212.5490  154.7970 C   0  0  0  0  0  0  0  0  0  0  0  0
  157.8140  212.1940  154.0770 N   0  0  0  0  0  2  0  0  0  0  0  0
  158.7210  211.8600  157.1870 C   0  0  2  0  0  3  0  0  0  0  0  0
  159.0970  210.5220  156.6610 C   0  0  0  0  0  2  0  0  0  0  0  0
  157.2300  211.6600  157.0160 C   0  0  0  0  0  1  0  0  0  0  0  0
  159.6490  211.7380  155.9900 C   0  0  1  0  0  0  0  0  0  0  0  0
  162.8870  210.5550  157.2600 C   0  0  0  0  0  1  0  0  0  0  0  0
  161.8290  210.6800  156.2780 C   0  0  0  0  0  0  0  0  0  0  0  0
  161.7040  209.7550  155.4520 O   0  0  0  0  0  0  0  0  0  0  0  0
  161.1010  211.8960  156.1280 N   0  0  0  0  0  2  0  0  0  0  0  0
  162.1480  212.6500  143.4230 C   0  0  0  0  0  2  0  0  0  0  0  0
  162.6270  213.2080  141.9800 C   0  0  0  0  0  0  0  0  0  0  0  0
  162.9200  214.3880  141.5770 O   0  0  0  0  0  0  0  0  0  0  0  0
  163.6800  212.7310  139.5610 S   0  0  0  0  0  0  0  0  0  0  0  0
  163.2960  211.3660  138.6650 C   0  0  0  0  0  3  0  0  0  0  0  0
  162.7640  212.3540  140.8520 C   0  0  0  0  0  0  0  0  0  0  0  0
  162.1920  211.1910  140.7120 N   0  0  0  0  0  0  0  0  0  0  0  0
  162.4770  210.6570  139.4750 N   0  0  0  0  0  0  0  0  0  0  0  0
  162.9130  210.7510  151.0620 C   0  0  0  0  0  2  0  0  0  0  0  0
  162.9240  209.3940  151.6370 C   0  0  0  0  0  2  0  0  0  0  0  0
  161.5160  208.7650  151.7230 C   0  0  0  0  0  2  0  0  0  0  0  0
  161.6210  207.3770  152.3490 C   0  0  0  0  0  0  0  0  0  0  0  0
  162.1120  207.2050  153.4720 O   0  0  0  0  0  0  0  0  0  0  0  0
  160.6900  206.1990  151.7740 C   0  0  0  0  0  2  0  0  0  0  0  0
  161.6420  203.4290  146.1430 C   0  0  0  0  0  2  0  0  0  0  0  0
  160.8550  204.0590  149.8920 C   0  0  2  0  0  0  0  0  0  0  0  0
  161.7780  203.3100  150.9000 C   0  0  0  0  0  2  0  0  0  0  0  0
  161.5530  203.9220  148.5180 C   0  0  2  0  0  3  0  0  0  0  0  0
  161.4060  205.9490  146.5790 C   0  0  0  0  0  2  0  0  0  0  0  0
  160.7420  205.5660  150.2890 C   0  0  2  0  0  3  0  0  0  0  0  0
  161.5380  205.4300  148.0350 C   0  0  1  0  0  3  0  0  0  0  0  0
  160.9890  204.7600  145.6950 C   0  0  0  0  0  2  0  0  0  0  0  0
  160.0090  203.2730  151.9820 O   0  0  0  0  0  1  0  0  0  0  0  0
  160.3870  202.8640  150.7260 C   0  0  1  0  0  3  0  0  0  0  0  0
  160.6100  207.5940  148.9930 O   0  0  0  0  0  1  0  0  0  0  0  0
  161.1250  202.8660  147.4820 C   0  0  0  0  0  2  0  0  0  0  0  0
  161.4150  206.4290  149.2450 C   0  0  1  0  0  3  0  0  0  0  0  0
  1  3  2  0  0  0  0
  3 13  1  0  0  0  0
  3 11  1  0  0  0  0
  4 14  1  0  0  0  0
  5  2  1  0  0  0  0
  5 47  1  1  0  0  0
  6  5  1  0  0  0  0
  7  2  1  1  0  0  0
  8 17  1  6  0  0  0
  8  4  1  0  0  0  0
  9  7  1  0  0  0  0
 10 16  2  0  0  0  0
 11 12  1  1  0  0  0
 11 18  1  0  0  0  0
 12 10  1  0  0  0  0
 13 39  1  1  0  0  0
 13 11  1  0  0  0  0
 13 18  1  0  0  0  0
 14 19  1  6  0  0  0
 14  9  1  0  0  0  0
 15 17  1  1  0  0  0
 15  6  1  0  0  0  0
 15  7  1  0  0  0  0
 16  4  2  0  0  0  0
 18  8  1  0  0  0  0
 19 20  1  0  0  0  0
 20 21  1  0  0  0  0
 21 22  1  0  0  0  0
 22 25  1  0  0  0  0
 24 23  1  0  0  0  0
 25 24  1  0  0  0  0
 25 23  1  0  0  0  0
 26 24  1  0  0  0  0
 26 30  1  0  0  0  0
 27 26  2  0  0  0  0
 28 29  2  0  0  0  0
 29 34  1  0  0  0  0
 30 29  1  0  0  0  0
 32 31  1  0  0  0  0
 33 31  1  0  0  0  0
 34 38  1  0  0  0  0
 34 32  1  0  0  0  0
 34 31  1  0  0  0  0
 36 35  1  0  0  0  0
 37 36  2  0  0  0  0
 38 36  1  0  0  0  0
 40 39  1  0  0  0  0
 41 40  2  0  0  0  0
 42 44  1  0  0  0  0
 43 46  2  0  0  0  0
 43 42  1  0  0  0  0
 44 40  1  0  0  0  0
 45 44  2  0  0  0  0
 46 45  1  0  0  0  0
 47 48  1  0  0  0  0
 48 49  1  0  0  0  0
 49 50  1  0  0  0  0
 50 51  2  0  0  0  0
 52 50  1  0  0  0  0
 53 64  1  0  0  0  0
 54 58  1  0  0  0  0
 54 62  1  0  0  0  0
 54 55  1  0  0  0  0
 56 54  1  0  0  0  0
 57 59  1  0  0  0  0
 58 52  1  0  0  0  0
 59 56  1  0  0  0  0
 59 65  1  0  0  0  0
 60 53  1  0  0  0  0
 60 57  1  0  0  0  0
 62 55  1  0  0  0  0
 62 61  1  0  0  0  0
 63 65  1  0  0  0  0
 64 56  1  0  0  0  0
 65 58  1  0  0  0  0
M  END
>  <MODEL>
3

>  <REMARK>
 VINA RESULT:      -4.7      2.953      9.127
  Name = 
  16 active torsions:
  status: ('A' for Active; 'I' for Inactive)
    1  A    between atoms: N_1  and  C_15
    2  A    between atoms: N_1  and  C_40
    3  A    between atoms: C_3  and  C_34
    4  A    between atoms: C_4  and  C_56
    5  A    between atoms: C_9  and  C_20
    6  A    between atoms: C_9  and  C_46
    7  A    between atoms: C_15  and  C_54
    8  A    between atoms: C_20  and  C_64
    9  A    between atoms: C_21  and  C_25
   10  A    between atoms: C_24  and  C_41
   11  A    between atoms: C_25  and  C_46
   12  A    between atoms: C_28  and  C_60
   13  A    between atoms: C_31  and  C_64
   14  A    between atoms: N_36  and  C_60
   15  A    between atoms: C_41  and  C_50
   16  A    between atoms: C_50  and  C_53
                            x       y       z     vdW  Elec       q    Type
                         _______ _______ _______ _____ _____    ______ ____

>  <TORSDO>
F 16

$$$$
=
 OpenBabel11052410323D

 65 75  0  0  1  0  0  0  0  0999 V2000
  161.7380  201.6210  147.8150 C   0  0  0  0  0  2  0  0  0  0  0  0
  161.5410  210.6000  151.2100 C   0  0  0  0  0  2  0  0  0  0  0  0
  161.7590  202.7260  148.5490 C   0  0  0  0  0  0  0  0  0  0  0  0
  161.2260  205.8200  151.8000 C   0  0  0  0  0  0  0  0  0  0  0  0
  162.4700  210.7430  150.0390 C   0  0  1  0  0  3  0  0  0  0  0  0
  162.1730  209.4930  148.6230 S   0  0  0  0  0  0  0  0  0  0  0  0
  161.0270  209.0400  151.0990 C   0  0  2  0  0  3  0  0  0  0  0  0
  161.6320  205.9450  150.3000 C   0  0  1  0  0  3  0  0  0  0  0  0
  160.8760  208.3020  152.4320 N   0  0  0  0  0  2  0  0  0  0  0  0
  160.6290  203.2780  152.2330 C   0  0  0  0  0  3  0  0  0  0  0  0
  161.6440  203.2980  149.9480 C   0  0  1  0  0  0  0  0  0  0  0  0
  160.6340  202.6010  150.9390 C   0  0  0  0  0  2  0  0  0  0  0  0
  161.9220  204.1820  148.2180 C   0  0  2  0  0  0  0  0  0  0  0  0
  160.8260  207.0130  152.7160 C   0  0  2  0  0  3  0  0  0  0  0  0
  161.7000  208.2650  149.8400 C   0  0  2  0  0  3  0  0  0  0  0  0
  160.9440  204.6120  152.1910 C   0  0  0  0  0  0  0  0  0  0  0  0
  162.6930  207.0070  149.8720 C   0  0  0  0  0  2  0  0  0  0  0  0
  161.2240  204.6690  149.4120 C   0  0  2  0  0  3  0  0  0  0  0  0
  160.5650  206.7230  154.2610 C   0  0  0  0  0  2  0  0  0  0  0  0
  159.7650  207.4220  155.0220 C   0  0  0  0  0  2  0  0  0  0  0  0
  159.7830  206.9900  156.4180 C   0  0  0  0  0  2  0  0  0  0  0  0
  160.0490  208.1900  157.2600 N   0  0  0  0  0  2  0  0  0  0  0  0
  162.2800  209.3460  156.4330 C   0  0  0  0  0  2  0  0  0  0  0  0
  161.2560  210.2570  157.1130 C   0  0  2  0  0  3  0  0  0  0  0  0
  160.7560  209.1340  156.3010 C   0  0  2  0  0  3  0  0  0  0  0  0
  161.0130  211.5320  156.3760 C   0  0  0  0  0  0  0  0  0  0  0  0
  162.0530  211.9680  155.7450 O   0  0  0  0  0  0  0  0  0  0  0  0
  160.0460  211.7660  153.7100 O   0  0  0  0  0  0  0  0  0  0  0  0
  159.3490  212.2980  154.5940 C   0  0  0  0  0  0  0  0  0  0  0  0
  159.7160  212.1050  156.0070 N   0  0  0  0  0  2  0  0  0  0  0  0
  158.1310  214.1390  153.4010 C   0  0  2  0  0  3  0  0  0  0  0  0
  157.4850  213.0030  152.6920 C   0  0  0  0  0  2  0  0  0  0  0  0
  159.2340  214.3260  152.3800 C   0  0  0  0  0  1  0  0  0  0  0  0
  157.9550  212.8000  154.0960 C   0  0  1  0  0  0  0  0  0  0  0  0
  155.1530  210.7850  155.3540 C   0  0  0  0  0  1  0  0  0  0  0  0
  156.5370  211.2110  155.2850 C   0  0  0  0  0  0  0  0  0  0  0  0
  157.4070  210.3780  155.6050 O   0  0  0  0  0  0  0  0  0  0  0  0
  156.8790  212.5770  155.0670 N   0  0  0  0  0  2  0  0  0  0  0  0
  162.0200  204.7880  146.8470 C   0  0  0  0  0  2  0  0  0  0  0  0
  160.6180  204.5040  146.0870 C   0  0  0  0  0  0  0  0  0  0  0  0
  159.5770  205.2320  145.9190 O   0  0  0  0  0  0  0  0  0  0  0  0
  158.9310  202.9350  144.7150 S   0  0  0  0  0  0  0  0  0  0  0  0
  159.2840  201.3370  144.3490 C   0  0  0  0  0  3  0  0  0  0  0  0
  160.3360  203.2540  145.4720 C   0  0  0  0  0  0  0  0  0  0  0  0
  161.1440  202.2310  145.4350 N   0  0  0  0  0  0  0  0  0  0  0  0
  160.5370  201.1560  144.8250 N   0  0  0  0  0  0  0  0  0  0  0  0
  162.2290  212.2230  149.5310 C   0  0  0  0  0  2  0  0  0  0  0  0
  162.5540  212.2900  148.0950 C   0  0  0  0  0  2  0  0  0  0  0  0
  161.7030  213.3310  147.3330 C   0  0  0  0  0  2  0  0  0  0  0  0
  162.4240  213.7280  146.0480 C   0  0  0  0  0  0  0  0  0  0  0  0
  163.5050  213.2200  145.7250 O   0  0  0  0  0  0  0  0  0  0  0  0
  161.5840  214.4530  144.8850 C   0  0  0  0  0  2  0  0  0  0  0  0
  160.1300  211.4100  139.5080 C   0  0  0  0  0  2  0  0  0  0  0  0
  159.8980  213.2920  142.8950 C   0  0  2  0  0  0  0  0  0  0  0  0
  159.1690  212.5200  144.0360 C   0  0  0  0  0  2  0  0  0  0  0  0
  160.1520  212.2410  141.7880 C   0  0  2  0  0  3  0  0  0  0  0  0
  162.4350  212.3440  140.1520 C   0  0  0  0  0  2  0  0  0  0  0  0
  161.2560  213.8590  143.4180 C   0  0  2  0  0  3  0  0  0  0  0  0
  161.6930  212.4840  141.5080 C   0  0  1  0  0  3  0  0  0  0  0  0
  161.3710  212.2170  139.0480 C   0  0  0  0  0  2  0  0  0  0  0  0
  158.5940  214.4520  144.5250 O   0  0  0  0  0  1  0  0  0  0  0  0
  158.5040  213.6680  143.4000 C   0  0  1  0  0  3  0  0  0  0  0  0
  163.4240  214.1190  142.3970 O   0  0  0  0  0  1  0  0  0  0  0  0
  159.2430  212.1160  140.5520 C   0  0  0  0  0  2  0  0  0  0  0  0
  162.4090  213.1580  142.7370 C   0  0  1  0  0  3  0  0  0  0  0  0
  1  3  2  0  0  0  0
  3 11  1  0  0  0  0
  4 16  2  0  0  0  0
  4 14  1  0  0  0  0
  5 47  1  6  0  0  0
  5  2  1  0  0  0  0
  6 15  1  0  0  0  0
  6  5  1  0  0  0  0
  7  2  1  1  0  0  0
  7  9  1  0  0  0  0
  8 17  1  1  0  0  0
  8  4  1  0  0  0  0
  9 14  1  0  0  0  0
 11 12  1  1  0  0  0
 12 10  1  0  0  0  0
 13 39  1  6  0  0  0
 13  3  1  0  0  0  0
 13 18  1  0  0  0  0
 13 11  1  0  0  0  0
 14 19  1  1  0  0  0
 15 17  1  1  0  0  0
 15  7  1  0  0  0  0
 16 10  2  0  0  0  0
 18 11  1  0  0  0  0
 18  8  1  0  0  0  0
 19 20  1  0  0  0  0
 20 21  1  0  0  0  0
 21 22  1  0  0  0  0
 23 24  1  0  0  0  0
 25 23  1  0  0  0  0
 25 24  1  0  0  0  0
 25 22  1  0  0  0  0
 26 24  1  0  0  0  0
 27 26  2  0  0  0  0
 28 29  2  0  0  0  0
 29 30  1  0  0  0  0
 30 26  1  0  0  0  0
 31 34  1  0  0  0  0
 32 31  1  0  0  0  0
 32 34  1  0  0  0  0
 33 31  1  0  0  0  0
 34 29  1  0  0  0  0
 34 38  1  0  0  0  0
 36 35  1  0  0  0  0
 36 37  2  0  0  0  0
 38 36  1  0  0  0  0
 40 39  1  0  0  0  0
 41 40  2  0  0  0  0
 42 44  1  0  0  0  0
 43 42  1  0  0  0  0
 43 46  2  0  0  0  0
 44 40  1  0  0  0  0
 45 44  2  0  0  0  0
 46 45  1  0  0  0  0
 48 47  1  0  0  0  0
 49 48  1  0  0  0  0
 50 49  1  0  0  0  0
 51 50  2  0  0  0  0
 52 50  1  0  0  0  0
 53 64  1  0  0  0  0
 54 62  1  0  0  0  0
 54 58  1  0  0  0  0
 54 55  1  0  0  0  0
 56 54  1  0  0  0  0
 57 59  1  0  0  0  0
 58 52  1  0  0  0  0
 59 56  1  0  0  0  0
 59 65  1  0  0  0  0
 60 53  1  0  0  0  0
 60 57  1  0  0  0  0
 62 55  1  0  0  0  0
 62 61  1  0  0  0  0
 63 65  1  0  0  0  0
 64 56  1  0  0  0  0
 65 58  1  0  0  0  0
M  END
>  <MODEL>
4

>  <REMARK>
 VINA RESULT:      -4.1      1.772      2.710
  Name = 
  16 active torsions:
  status: ('A' for Active; 'I' for Inactive)
    1  A    between atoms: N_1  and  C_15
    2  A    between atoms: N_1  and  C_40
    3  A    between atoms: C_3  and  C_34
    4  A    between atoms: C_4  and  C_56
    5  A    between atoms: C_9  and  C_20
    6  A    between atoms: C_9  and  C_46
    7  A    between atoms: C_15  and  C_54
    8  A    between atoms: C_20  and  C_64
    9  A    between atoms: C_21  and  C_25
   10  A    between atoms: C_24  and  C_41
   11  A    between atoms: C_25  and  C_46
   12  A    between atoms: C_28  and  C_60
   13  A    between atoms: C_31  and  C_64
   14  A    between atoms: N_36  and  C_60
   15  A    between atoms: C_41  and  C_50
   16  A    between atoms: C_50  and  C_53
                            x       y       z     vdW  Elec       q    Type
                         _______ _______ _______ _____ _____    ______ ____

>  <TORSDO>
F 16

$$$$
=
 OpenBabel11052410323D

 65 75  0  0  1  0  0  0  0  0999 V2000
  160.2680  207.6660  156.6960 C   0  0  0  0  0  2  0  0  0  0  0  0
  161.5800  212.0430  148.2520 C   0  0  0  0  0  2  0  0  0  0  0  0
  160.4140  207.9930  155.4180 C   0  0  0  0  0  0  0  0  0  0  0  0
  161.5260  208.1030  151.0390 C   0  0  0  0  0  0  0  0  0  0  0  0
  160.5590  212.9360  148.8960 C   0  0  1  0  0  3  0  0  0  0  0  0
  160.6080  212.9600  150.8070 S   0  0  0  0  0  0  0  0  0  0  0  0
  161.9410  210.9600  149.4380 C   0  0  2  0  0  3  0  0  0  0  0  0
  160.9920  209.2030  152.0060 C   0  0  1  0  0  3  0  0  0  0  0  0
  162.1530  209.5190  148.9690 N   0  0  0  0  0  2  0  0  0  0  0  0
  161.9360  205.9280  152.4900 C   0  0  0  0  0  3  0  0  0  0  0  0
  160.7120  207.4780  154.0240 C   0  0  1  0  0  0  0  0  0  0  0  0
  161.7470  206.2950  153.8910 C   0  0  0  0  0  2  0  0  0  0  0  0
  160.3500  209.2940  154.6720 C   0  0  2  0  0  0  0  0  0  0  0  0
  162.1160  208.3720  149.6240 C   0  0  2  0  0  3  0  0  0  0  0  0
  161.0850  211.2320  150.7910 C   0  0  2  0  0  3  0  0  0  0  0  0
  161.7370  206.9450  151.5920 C   0  0  0  0  0  0  0  0  0  0  0  0
  159.9930  210.2790  151.4750 C   0  0  0  0  0  2  0  0  0  0  0  0
  161.1980  208.8530  153.5610 C   0  0  2  0  0  3  0  0  0  0  0  0
  162.4970  207.1200  148.7150 C   0  0  0  0  0  2  0  0  0  0  0  0
  162.3800  207.0840  147.4150 C   0  0  0  0  0  2  0  0  0  0  0  0
  162.7170  205.7800  146.8460 C   0  0  0  0  0  2  0  0  0  0  0  0
  162.9920  205.9770  145.3960 N   0  0  0  0  0  2  0  0  0  0  0  0
  161.0940  205.2030  143.7250 C   0  0  0  0  0  2  0  0  0  0  0  0
  160.8160  204.9860  145.2140 C   0  0  2  0  0  3  0  0  0  0  0  0
  162.2050  204.8550  144.7400 C   0  0  2  0  0  3  0  0  0  0  0  0
  160.2820  203.6290  145.5280 C   0  0  0  0  0  0  0  0  0  0  0  0
  160.3110  202.8180  144.5210 O   0  0  0  0  0  0  0  0  0  0  0  0
  161.7780  201.4390  146.5590 O   0  0  0  0  0  0  0  0  0  0  0  0
  160.8260  201.8310  147.2600 C   0  0  0  0  0  0  0  0  0  0  0  0
  160.0900  203.0410  146.8560 N   0  0  0  0  0  2  0  0  0  0  0  0
  160.5030  199.7020  148.5490 C   0  0  2  0  0  3  0  0  0  0  0  0
  161.6980  200.1840  149.2890 C   0  0  0  0  0  2  0  0  0  0  0  0
  161.2860  198.8760  147.5500 C   0  0  0  0  0  1  0  0  0  0  0  0
  160.7730  201.1910  148.6850 C   0  0  1  0  0  0  0  0  0  0  0  0
  160.7240  203.1560  151.7890 C   0  0  0  0  0  1  0  0  0  0  0  0
  160.8550  202.9650  150.3580 C   0  0  0  0  0  0  0  0  0  0  0  0
  161.5580  203.7840  149.7350 O   0  0  0  0  0  0  0  0  0  0  0  0
  160.0540  202.0130  149.6630 N   0  0  0  0  0  2  0  0  0  0  0  0
  160.1750  210.6640  155.2640 C   0  0  0  0  0  2  0  0  0  0  0  0
  158.5870  210.9780  155.3070 C   0  0  0  0  0  0  0  0  0  0  0  0
  157.5950  210.2950  155.7430 O   0  0  0  0  0  0  0  0  0  0  0  0
  156.7900  212.9630  155.4500 S   0  0  0  0  0  0  0  0  0  0  0  0
  156.6730  214.1590  154.2800 C   0  0  0  0  0  3  0  0  0  0  0  0
  158.0440  212.1780  154.7720 C   0  0  0  0  0  0  0  0  0  0  0  0
  158.4690  212.7870  153.7010 N   0  0  0  0  0  0  0  0  0  0  0  0
  157.6810  213.8810  153.4210 N   0  0  0  0  0  0  0  0  0  0  0  0
  160.8800  214.3740  148.3160 C   0  0  0  0  0  2  0  0  0  0  0  0
  160.3700  214.4530  146.9360 C   0  0  0  0  0  2  0  0  0  0  0  0
  159.8780  213.0910  146.3970 C   0  0  0  0  0  2  0  0  0  0  0  0
  159.1080  213.3120  145.0980 C   0  0  0  0  0  0  0  0  0  0  0  0
  157.8710  213.2960  145.0630 O   0  0  0  0  0  0  0  0  0  0  0  0
  159.8610  214.0200  143.8650 C   0  0  0  0  0  2  0  0  0  0  0  0
  162.6440  211.8710  138.5810 C   0  0  0  0  0  2  0  0  0  0  0  0
  161.9860  213.0650  142.2160 C   0  0  2  0  0  0  0  0  0  0  0  0
  162.8270  214.2950  142.6740 C   0  0  0  0  0  2  0  0  0  0  0  0
  162.1710  212.9920  140.6810 C   0  0  2  0  0  3  0  0  0  0  0  0
  160.1170  212.0920  138.9880 C   0  0  0  0  0  2  0  0  0  0  0  0
  160.4800  213.2880  142.5640 C   0  0  2  0  0  3  0  0  0  0  0  0
  160.6620  212.8720  140.2140 C   0  0  1  0  0  3  0  0  0  0  0  0
  161.2530  211.1980  138.4600 C   0  0  0  0  0  2  0  0  0  0  0  0
  162.7150  213.2790  144.4800 O   0  0  0  0  0  1  0  0  0  0  0  0
  163.1420  212.9620  143.2130 C   0  0  1  0  0  3  0  0  0  0  0  0
  158.4340  212.7150  141.4260 O   0  0  0  0  0  1  0  0  0  0  0  0
  163.1720  212.0250  140.0210 C   0  0  0  0  0  2  0  0  0  0  0  0
  159.6700  213.4390  141.2970 C   0  0  1  0  0  3  0  0  0  0  0  0
  2  5  1  0  0  0  0
  3  1  2  0  0  0  0
  4 16  2  0  0  0  0
  4  8  1  0  0  0  0
  5 47  1  6  0  0  0
  5  6  1  0  0  0  0
  7  2  1  6  0  0  0
  7 15  1  0  0  0  0
  8 17  1  1  0  0  0
  8 18  1  0  0  0  0
  9  7  1  0  0  0  0
  9 14  1  0  0  0  0
 10 12  1  0  0  0  0
 11 12  1  6  0  0  0
 11 13  1  0  0  0  0
 11  3  1  0  0  0  0
 13 39  1  6  0  0  0
 13  3  1  0  0  0  0
 14 19  1  6  0  0  0
 14  4  1  0  0  0  0
 15  6  1  0  0  0  0
 15 17  1  6  0  0  0
 16 10  2  0  0  0  0
 18 11  1  0  0  0  0
 18 13  1  0  0  0  0
 20 19  1  0  0  0  0
 21 20  1  0  0  0  0
 22 21  1  0  0  0  0
 23 25  1  0  0  0  0
 23 24  1  0  0  0  0
 24 26  1  0  0  0  0
 25 24  1  0  0  0  0
 25 22  1  0  0  0  0
 26 30  1  0  0  0  0
 27 26  2  0  0  0  0
 28 29  2  0  0  0  0
 29 34  1  0  0  0  0
 30 29  1  0  0  0  0
 31 34  1  0  0  0  0
 31 32  1  0  0  0  0
 33 31  1  0  0  0  0
 34 32  1  0  0  0  0
 34 38  1  0  0  0  0
 36 35  1  0  0  0  0
 37 36  2  0  0  0  0
 38 36  1  0  0  0  0
 39 40  1  0  0  0  0
 40 41  2  0  0  0  0
 43 42  1  0  0  0  0
 44 40  1  0  0  0  0
 44 42  1  0  0  0  0
 45 44  2  0  0  0  0
 46 45  1  0  0  0  0
 46 43  2  0  0  0  0
 48 47  1  0  0  0  0
 49 48  1  0  0  0  0
 50 49  1  0  0  0  0
 51 50  2  0  0  0  0
 52 50  1  0  0  0  0
 53 64  1  0  0  0  0
 54 58  1  0  0  0  0
 54 55  1  0  0  0  0
 54 62  1  0  0  0  0
 55 62  1  0  0  0  0
 56 54  1  0  0  0  0
 57 59  1  0  0  0  0
 58 52  1  0  0  0  0
 59 56  1  0  0  0  0
 59 65  1  0  0  0  0
 60 53  1  0  0  0  0
 60 57  1  0  0  0  0
 62 61  1  0  0  0  0
 64 56  1  0  0  0  0
 65 63  1  0  0  0  0
 65 58  1  0  0  0  0
M  END
>  <MODEL>
5

>  <REMARK>
 VINA RESULT:      -3.2      2.574      9.122
  Name = 
  16 active torsions:
  status: ('A' for Active; 'I' for Inactive)
    1  A    between atoms: N_1  and  C_15
    2  A    between atoms: N_1  and  C_40
    3  A    between atoms: C_3  and  C_34
    4  A    between atoms: C_4  and  C_56
    5  A    between atoms: C_9  and  C_20
    6  A    between atoms: C_9  and  C_46
    7  A    between atoms: C_15  and  C_54
    8  A    between atoms: C_20  and  C_64
    9  A    between atoms: C_21  and  C_25
   10  A    between atoms: C_24  and  C_41
   11  A    between atoms: C_25  and  C_46
   12  A    between atoms: C_28  and  C_60
   13  A    between atoms: C_31  and  C_64
   14  A    between atoms: N_36  and  C_60
   15  A    between atoms: C_41  and  C_50
   16  A    between atoms: C_50  and  C_53
                            x       y       z     vdW  Elec       q    Type
                         _______ _______ _______ _____ _____    ______ ____

>  <TORSDO>
F 16

$$$$
=
 OpenBabel11052410323D

 65 75  0  0  1  0  0  0  0  0999 V2000
  160.1950  207.8630  156.9240 C   0  0  0  0  0  2  0  0  0  0  0  0
  161.7150  211.9560  148.3720 C   0  0  0  0  0  2  0  0  0  0  0  0
  160.3520  208.1500  155.6380 C   0  0  0  0  0  0  0  0  0  0  0  0
  161.4400  208.0920  151.2510 C   0  0  0  0  0  0  0  0  0  0  0  0
  160.7540  212.9230  149.0010 C   0  0  1  0  0  3  0  0  0  0  0  0
  160.8170  212.9880  150.9110 S   0  0  0  0  0  0  0  0  0  0  0  0
  162.0170  210.8800  149.5820 C   0  0  2  0  0  3  0  0  0  0  0  0
  160.9790  209.2440  152.1960 C   0  0  1  0  0  3  0  0  0  0  0  0
  162.1380  209.4180  149.1460 N   0  0  0  0  0  2  0  0  0  0  0  0
  161.7260  205.9300  152.7520 C   0  0  0  0  0  3  0  0  0  0  0  0
  160.6090  207.5860  154.2550 C   0  0  1  0  0  0  0  0  0  0  0  0
  161.5690  206.3390  154.1450 C   0  0  0  0  0  2  0  0  0  0  0  0
  160.3620  209.4350  154.8610 C   0  0  2  0  0  0  0  0  0  0  0  0
  162.0350  208.2910  149.8280 C   0  0  2  0  0  3  0  0  0  0  0  0
  161.1880  211.2350  150.9330 C   0  0  2  0  0  3  0  0  0  0  0  0
  161.5830  206.9360  151.8310 C   0  0  0  0  0  0  0  0  0  0  0  0
  160.0440  210.3670  151.6450 C   0  0  0  0  0  2  0  0  0  0  0  0
  161.1750  208.9180  153.7570 C   0  0  2  0  0  3  0  0  0  0  0  0
  162.3330  206.9970  148.9470 C   0  0  0  0  0  2  0  0  0  0  0  0
  162.3240  206.9710  147.6410 C   0  0  0  0  0  2  0  0  0  0  0  0
  162.5440  205.6330  147.0950 C   0  0  0  0  0  2  0  0  0  0  0  0
  162.7760  205.7740  145.6300 N   0  0  0  0  0  2  0  0  0  0  0  0
  161.0500  204.6100  143.9980 C   0  0  0  0  0  2  0  0  0  0  0  0
  160.7600  204.4830  145.4950 C   0  0  2  0  0  3  0  0  0  0  0  0
  162.1670  204.5040  145.0600 C   0  0  2  0  0  3  0  0  0  0  0  0
  160.4040  203.0960  145.9160 C   0  0  0  0  0  0  0  0  0  0  0  0
  161.0130  202.1800  145.2370 O   0  0  0  0  0  0  0  0  0  0  0  0
  161.6890  201.5860  147.9570 O   0  0  0  0  0  0  0  0  0  0  0  0
  160.4740  201.8050  148.1210 C   0  0  0  0  0  0  0  0  0  0  0  0
  159.7730  202.6900  147.1740 N   0  0  0  0  0  2  0  0  0  0  0  0
  158.4160  201.4860  149.5200 C   0  0  2  0  0  3  0  0  0  0  0  0
  159.0970  200.2220  149.9050 C   0  0  0  0  0  2  0  0  0  0  0  0
  157.6290  200.8760  148.3800 C   0  0  0  0  0  1  0  0  0  0  0  0
  159.9330  201.4020  149.5310 C   0  0  1  0  0  0  0  0  0  0  0  0
  162.3530  203.8500  150.8150 C   0  0  0  0  0  1  0  0  0  0  0  0
  161.0260  203.3440  150.5220 C   0  0  0  0  0  0  0  0  0  0  0  0
  160.1210  204.1840  150.3490 O   0  0  0  0  0  0  0  0  0  0  0  0
  160.7230  201.9570  150.6350 N   0  0  0  0  0  2  0  0  0  0  0  0
  160.2750  210.8270  155.4220 C   0  0  0  0  0  2  0  0  0  0  0  0
  158.9950  211.5490  154.7400 C   0  0  0  0  0  0  0  0  0  0  0  0
  158.5690  211.5630  153.5320 O   0  0  0  0  0  0  0  0  0  0  0  0
  156.6990  211.8380  156.0940 S   0  0  0  0  0  0  0  0  0  0  0  0
  156.2080  213.3100  156.7300 C   0  0  0  0  0  3  0  0  0  0  0  0
  158.1110  212.3730  155.4870 C   0  0  0  0  0  0  0  0  0  0  0  0
  158.3120  213.6290  155.7760 N   0  0  0  0  0  0  0  0  0  0  0  0
  157.2310  214.1500  156.4520 N   0  0  0  0  0  0  0  0  0  0  0  0
  161.1580  214.3250  148.3860 C   0  0  0  0  0  2  0  0  0  0  0  0
  160.5870  214.4310  147.0320 C   0  0  0  0  0  2  0  0  0  0  0  0
  159.5010  213.3690  146.7510 C   0  0  0  0  0  2  0  0  0  0  0  0
  158.7080  213.7730  145.5120 C   0  0  0  0  0  0  0  0  0  0  0  0
  157.6760  214.4520  145.5910 O   0  0  0  0  0  0  0  0  0  0  0  0
  159.4370  213.7240  144.0790 C   0  0  0  0  0  2  0  0  0  0  0  0
  157.2790  213.0640  138.1470 C   0  0  0  0  0  2  0  0  0  0  0  0
  159.3730  212.7410  141.4010 C   0  0  2  0  0  0  0  0  0  0  0  0
  160.8720  213.1470  141.2690 C   0  0  0  0  0  2  0  0  0  0  0  0
  158.6940  213.2580  140.1090 C   0  0  2  0  0  3  0  0  0  0  0  0
  156.0380  214.1750  140.1040 C   0  0  0  0  0  2  0  0  0  0  0  0
  158.7410  213.4310  142.6520 C   0  0  2  0  0  3  0  0  0  0  0  0
  157.4530  214.0270  140.7240 C   0  0  1  0  0  3  0  0  0  0  0  0
  155.9420  213.1960  138.9200 C   0  0  0  0  0  2  0  0  0  0  0  0
  161.0630  211.6220  142.6620 O   0  0  0  0  0  1  0  0  0  0  0  0
  160.5170  211.7250  141.4050 C   0  0  1  0  0  3  0  0  0  0  0  0
  156.5600  214.3640  143.0800 O   0  0  0  0  0  1  0  0  0  0  0  0
  158.4050  212.3380  138.9090 C   0  0  0  0  0  2  0  0  0  0  0  0
  157.7090  214.4470  142.2190 C   0  0  1  0  0  3  0  0  0  0  0  0
  2  5  1  0  0  0  0
  3  1  2  0  0  0  0
  4 16  2  0  0  0  0
  4  8  1  0  0  0  0
  5 47  1  6  0  0  0
  5  6  1  0  0  0  0
  6 15  1  0  0  0  0
  7  2  1  6  0  0  0
  7 15  1  0  0  0  0
  8 17  1  1  0  0  0
  8 18  1  0  0  0  0
  9  7  1  0  0  0  0
  9 14  1  0  0  0  0
 10 12  1  0  0  0  0
 11 12  1  6  0  0  0
 11 13  1  0  0  0  0
 11  3  1  0  0  0  0
 13 39  1  6  0  0  0
 13  3  1  0  0  0  0
 14 19  1  6  0  0  0
 14  4  1  0  0  0  0
 15 17  1  6  0  0  0
 16 10  2  0  0  0  0
 18 11  1  0  0  0  0
 18 13  1  0  0  0  0
 20 19  1  0  0  0  0
 21 20  1  0  0  0  0
 22 21  1  0  0  0  0
 23 25  1  0  0  0  0
 23 24  1  0  0  0  0
 24 26  1  0  0  0  0
 25 24  1  0  0  0  0
 25 22  1  0  0  0  0
 26 30  1  0  0  0  0
 27 26  2  0  0  0  0
 28 29  2  0  0  0  0
 29 34  1  0  0  0  0
 30 29  1  0  0  0  0
 31 34  1  0  0  0  0
 31 32  1  0  0  0  0
 33 31  1  0  0  0  0
 34 32  1  0  0  0  0
 34 38  1  0  0  0  0
 36 38  1  0  0  0  0
 36 35  1  0  0  0  0
 37 36  2  0  0  0  0
 40 39  1  0  0  0  0
 40 44  1  0  0  0  0
 41 40  2  0  0  0  0
 42 43  1  0  0  0  0
 44 45  2  0  0  0  0
 44 42  1  0  0  0  0
 45 46  1  0  0  0  0
 46 43  2  0  0  0  0
 48 47  1  0  0  0  0
 49 48  1  0  0  0  0
 50 51  2  0  0  0  0
 50 49  1  0  0  0  0
 52 50  1  0  0  0  0
 53 64  1  0  0  0  0
 53 60  1  0  0  0  0
 54 62  1  0  0  0  0
 54 58  1  0  0  0  0
 55 54  1  0  0  0  0
 55 62  1  0  0  0  0
 56 59  1  0  0  0  0
 56 54  1  0  0  0  0
 57 59  1  0  0  0  0
 58 52  1  0  0  0  0
 59 65  1  0  0  0  0
 60 57  1  0  0  0  0
 62 61  1  0  0  0  0
 64 56  1  0  0  0  0
 65 58  1  0  0  0  0
 65 63  1  0  0  0  0
M  END
>  <MODEL>
6

>  <REMARK>
 VINA RESULT:      -3.1      2.683      8.971
  Name = 
  16 active torsions:
  status: ('A' for Active; 'I' for Inactive)
    1  A    between atoms: N_1  and  C_15
    2  A    between atoms: N_1  and  C_40
    3  A    between atoms: C_3  and  C_34
    4  A    between atoms: C_4  and  C_56
    5  A    between atoms: C_9  and  C_20
    6  A    between atoms: C_9  and  C_46
    7  A    between atoms: C_15  and  C_54
    8  A    between atoms: C_20  and  C_64
    9  A    between atoms: C_21  and  C_25
   10  A    between atoms: C_24  and  C_41
   11  A    between atoms: C_25  and  C_46
   12  A    between atoms: C_28  and  C_60
   13  A    between atoms: C_31  and  C_64
   14  A    between atoms: N_36  and  C_60
   15  A    between atoms: C_41  and  C_50
   16  A    between atoms: C_50  and  C_53
                            x       y       z     vdW  Elec       q    Type
                         _______ _______ _______ _____ _____    ______ ____

>  <TORSDO>
F 16

$$$$
