=
 OpenBabel11042420013D

 42 47  0  0  1  0  0  0  0  0999 V2000
  162.6930  205.8710  146.2220 N   0  0  0  0  0  1  0  0  0  0  0  0
  160.9050  205.3190  151.5960 C   0  0  0  0  0  3  0  0  0  0  0  0
  161.9390  207.7910  150.6770 N   0  0  0  0  0  0  0  0  0  0  0  0
  161.3180  205.4620  150.1960 C   0  0  0  0  0  0  0  0  0  0  0  0
  161.8380  210.3560  152.8770 S   0  0  0  0  0  0  0  0  0  0  0  0
  160.8390  206.3820  152.3980 C   0  0  0  0  0  0  0  0  0  0  0  0
  160.7510  207.1360  154.6990 N   0  0  0  0  0  0  0  0  0  0  0  0
  161.6870  204.4870  148.0050 C   0  0  0  0  0  0  0  0  0  0  0  0
  161.8580  206.6820  149.7580 C   0  0  0  0  0  0  0  0  0  0  0  0
  161.4600  209.4800  155.1780 C   0  0  0  0  0  3  0  0  0  0  0  0
  161.2370  208.4210  154.2920 C   0  0  0  0  0  0  0  0  0  0  0  0
  162.3110  206.7990  148.4370 C   0  0  0  0  0  3  0  0  0  0  0  0
  161.4490  208.7250  152.9580 C   0  0  0  0  0  0  0  0  0  0  0  0
  162.2260  205.7140  147.5590 C   0  0  0  0  0  0  0  0  0  0  0  0
  161.0380  207.7900  151.8460 C   0  0  0  0  0  0  0  0  0  0  0  0
  161.2430  204.3730  149.3270 C   0  0  0  0  0  2  0  0  0  0  0  0
  160.5640  206.1800  153.8370 C   0  0  0  0  0  3  0  0  0  0  0  0
  161.8260  210.6630  154.5370 C   0  0  0  0  0  3  0  0  0  0  0  0
  160.4050  202.3410  145.0950 C   0  0  0  0  0  3  0  0  0  0  0  0
  160.7990  203.5910  145.8420 C   0  0  0  0  0  2  0  0  0  0  0  0
  161.5710  203.2790  147.1220 C   0  0  2  0  0  3  0  0  0  0  0  0
  160.9380  202.1030  147.8530 C   0  0  0  0  0  2  0  0  0  0  0  0
  160.4630  201.1620  145.6210 N   0  0  0  0  0  0  0  0  0  0  0  0
  161.0070  200.8860  146.9390 C   0  0  0  0  0  2  0  0  0  0  0  0
  162.5640  208.9810  150.2670 N   0  0  0  0  0  2  0  0  0  0  0  0
  161.5940  209.7380  149.4920 C   0  0  0  0  0  2  0  0  0  0  0  0
  162.0400  211.1810  149.4020 C   0  0  0  0  0  2  0  0  0  0  0  0
  161.9560  211.6440  147.9640 C   0  0  0  0  0  2  0  0  0  0  0  0
  161.0810  212.8790  147.8840 C   0  0  0  0  0  2  0  0  0  0  0  0
  162.7540  214.4310  147.2110 O   0  0  0  0  0  1  0  0  0  0  0  0
  161.5810  213.8020  146.7850 C   0  0  1  0  0  3  0  0  0  0  0  0
  162.7960  213.0810  143.4570 C   0  0  0  0  0  2  0  0  0  0  0  0
  162.8900  213.5980  144.7680 O   0  0  0  0  0  0  0  0  0  0  0  0
  161.8520  213.0050  145.5110 C   0  0  2  0  0  3  0  0  0  0  0  0
  161.3610  213.1830  142.9560 C   0  0  1  0  0  0  0  0  0  0  0  0
  160.3960  212.9550  144.4430 P   0  0  1  0  0  0  0  0  0  0  0  0
  159.6070  211.4610  144.5210 O   0  0  0  0  0  0  0  0  0  0  0  0
  159.4430  214.1040  144.6910 O   0  0  0  0  0  1  0  0  0  0  0  0
  161.1280  214.4520  142.4220 O   0  0  0  0  0  1  0  0  0  0  0  0
  161.0430  212.1010  141.9310 C   0  0  0  0  0  2  0  0  0  0  0  0
  162.2320  211.7370  141.1770 N   0  0  0  0  0  2  0  0  0  0  0  0
  161.9360  210.4780  140.5190 C   0  0  0  0  0  1  0  0  0  0  0  0
  1 14  1  0  0  0  0
  2  6  1  0  0  0  0
  3 15  1  0  0  0  0
  4  2  2  0  0  0  0
  5 13  1  0  0  0  0
  5 18  1  0  0  0  0
  6 17  1  0  0  0  0
  8 16  1  0  0  0  0
  9  4  1  0  0  0  0
  9  3  1  0  0  0  0
 11  7  1  0  0  0  0
 11 10  1  0  0  0  0
 12  9  2  0  0  0  0
 13 11  2  0  0  0  0
 14  8  2  0  0  0  0
 14 12  1  0  0  0  0
 15  6  2  0  0  0  0
 15 13  1  0  0  0  0
 16  4  1  0  0  0  0
 17  7  2  0  0  0  0
 18 10  2  0  0  0  0
 19 23  2  0  0  0  0
 19 20  1  0  0  0  0
 20 21  1  0  0  0  0
 21 22  1  0  0  0  0
 21  8  1  1  0  0  0
 23 24  1  0  0  0  0
 24 22  1  0  0  0  0
 25  3  1  0  0  0  0
 26 25  1  0  0  0  0
 27 26  1  0  0  0  0
 28 27  1  0  0  0  0
 29 28  1  0  0  0  0
 31 30  1  1  0  0  0
 31 29  1  0  0  0  0
 32 33  1  0  0  0  0
 33 34  1  0  0  0  0
 34 31  1  1  0  0  0
 35 39  1  6  0  0  0
 35 32  1  0  0  0  0
 35 36  1  0  0  0  0
 36 37  2  1  0  0  0
 36 38  1  0  0  0  0
 36 34  1  0  0  0  0
 40 35  1  0  0  0  0
 41 40  1  0  0  0  0
 42 41  1  0  0  0  0
M  END
>  <MODEL>
1

>  <REMARK>
 VINA RESULT:      -8.0      0.000      0.000
  Name = 
  10 active torsions:
  status: ('A' for Active; 'I' for Inactive)
    1  A    between atoms: C_5  and  C_36
    2  A    between atoms: N_6  and  N_21
    3  A    between atoms: C_7  and  C_25
    4  A    between atoms: N_8  and  C_25
    5  A    between atoms: C_13  and  C_20
    6  A    between atoms: C_15  and  C_17
    7  A    between atoms: C_15  and  C_41
    8  A    between atoms: C_17  and  C_22
    9  A    between atoms: N_21  and  C_22
   10  A    between atoms: C_36  and  C_41
                            x       y       z     vdW  Elec       q    Type
                         _______ _______ _______ _____ _____    ______ ____

>  <TORSDO>
F 10

$$$$
=
 OpenBabel11042420013D

 42 47  0  0  1  0  0  0  0  0999 V2000
  161.1050  206.2790  147.8480 N   0  0  0  0  0  1  0  0  0  0  0  0
  161.2760  206.0850  153.5330 C   0  0  0  0  0  3  0  0  0  0  0  0
  160.9160  208.5550  152.1940 N   0  0  0  0  0  0  0  0  0  0  0  0
  161.1850  206.1150  152.0690 C   0  0  0  0  0  0  0  0  0  0  0  0
  160.4050  211.2540  154.1640 S   0  0  0  0  0  0  0  0  0  0  0  0
  161.0120  207.1750  154.2540 C   0  0  0  0  0  0  0  0  0  0  0  0
  161.2730  208.2440  156.4120 N   0  0  0  0  0  0  0  0  0  0  0  0
  161.2890  204.9670  149.9340 C   0  0  0  0  0  0  0  0  0  0  0  0
  161.0380  207.3480  151.4130 C   0  0  0  0  0  0  0  0  0  0  0  0
  161.0750  210.7290  156.5060 C   0  0  0  0  0  3  0  0  0  0  0  0
  161.0610  209.5220  155.8000 C   0  0  0  0  0  0  0  0  0  0  0  0
  161.0160  207.3830  150.0120 C   0  0  0  0  0  3  0  0  0  0  0  0
  160.7500  209.6370  154.4560 C   0  0  0  0  0  0  0  0  0  0  0  0
  161.1360  206.2050  149.2710 C   0  0  0  0  0  0  0  0  0  0  0  0
  160.4600  208.4330  153.5920 C   0  0  0  0  0  0  0  0  0  0  0  0
  161.3180  204.9380  151.3330 C   0  0  0  0  0  2  0  0  0  0  0  0
  161.2570  207.1480  155.7120 C   0  0  0  0  0  3  0  0  0  0  0  0
  160.7340  211.8280  155.7170 C   0  0  0  0  0  3  0  0  0  0  0  0
  161.1510  202.5400  146.9660 C   0  0  0  0  0  3  0  0  0  0  0  0
  161.3210  203.8510  147.6930 C   0  0  0  0  0  2  0  0  0  0  0  0
  161.4310  203.6630  149.2050 C   0  0  2  0  0  3  0  0  0  0  0  0
  160.4210  202.6320  149.6880 C   0  0  0  0  0  2  0  0  0  0  0  0
  160.8480  201.4370  147.5700 N   0  0  0  0  0  0  0  0  0  0  0  0
  160.7410  201.3040  149.0120 C   0  0  0  0  0  2  0  0  0  0  0  0
  160.8630  209.7970  151.5390 N   0  0  0  0  0  2  0  0  0  0  0  0
  162.1630  210.0240  150.9290 C   0  0  0  0  0  2  0  0  0  0  0  0
  162.0510  211.1330  149.9060 C   0  0  0  0  0  2  0  0  0  0  0  0
  160.9470  212.0840  150.3140 C   0  0  0  0  0  2  0  0  0  0  0  0
  160.9970  213.3180  149.4360 C   0  0  0  0  0  2  0  0  0  0  0  0
  158.9120  214.4530  149.5900 O   0  0  0  0  0  1  0  0  0  0  0  0
  159.6390  213.5600  148.7990 C   0  0  1  0  0  3  0  0  0  0  0  0
  158.7960  214.4530  145.3970 C   0  0  0  0  0  2  0  0  0  0  0  0
  158.5580  214.3370  146.7850 O   0  0  0  0  0  0  0  0  0  0  0  0
  159.8120  214.1330  147.3940 C   0  0  2  0  0  3  0  0  0  0  0  0
  159.6840  213.3120  144.9210 C   0  0  1  0  0  0  0  0  0  0  0  0
  160.7390  213.0040  146.3310 P   0  0  1  0  0  0  0  0  0  0  0  0
  162.3370  213.5150  146.1100 O   0  0  0  0  0  0  0  0  0  0  0  0
  160.6710  211.5660  146.7970 O   0  0  0  0  0  1  0  0  0  0  0  0
  158.9090  212.1830  144.6470 O   0  0  0  0  0  1  0  0  0  0  0  0
  160.5080  213.7080  143.7030 C   0  0  0  0  0  2  0  0  0  0  0  0
  160.9610  212.5300  142.9790 N   0  0  0  0  0  2  0  0  0  0  0  0
  162.3750  212.7230  142.7160 C   0  0  0  0  0  1  0  0  0  0  0  0
  1 14  1  0  0  0  0
  2  6  1  0  0  0  0
  3 15  1  0  0  0  0
  4  2  2  0  0  0  0
  5 13  1  0  0  0  0
  5 18  1  0  0  0  0
  6 17  1  0  0  0  0
  8 16  1  0  0  0  0
  9  4  1  0  0  0  0
  9  3  1  0  0  0  0
 11  7  1  0  0  0  0
 11 10  1  0  0  0  0
 12  9  2  0  0  0  0
 13 11  2  0  0  0  0
 14  8  2  0  0  0  0
 14 12  1  0  0  0  0
 15  6  2  0  0  0  0
 15 13  1  0  0  0  0
 16  4  1  0  0  0  0
 17  7  2  0  0  0  0
 18 10  2  0  0  0  0
 19 23  2  0  0  0  0
 19 20  1  0  0  0  0
 20 21  1  0  0  0  0
 21 22  1  0  0  0  0
 21  8  1  1  0  0  0
 23 24  1  0  0  0  0
 24 22  1  0  0  0  0
 25  3  1  0  0  0  0
 26 25  1  0  0  0  0
 27 28  1  0  0  0  0
 27 26  1  0  0  0  0
 29 28  1  0  0  0  0
 31 29  1  0  0  0  0
 31 30  1  1  0  0  0
 32 33  1  0  0  0  0
 33 34  1  0  0  0  0
 34 31  1  1  0  0  0
 35 39  1  6  0  0  0
 35 32  1  0  0  0  0
 35 36  1  0  0  0  0
 36 37  2  6  0  0  0
 36 38  1  0  0  0  0
 36 34  1  0  0  0  0
 40 35  1  0  0  0  0
 41 40  1  0  0  0  0
 42 41  1  0  0  0  0
M  END
>  <MODEL>
2

>  <REMARK>
 VINA RESULT:      -7.4      1.769      2.550
  Name = 
  10 active torsions:
  status: ('A' for Active; 'I' for Inactive)
    1  A    between atoms: C_5  and  C_36
    2  A    between atoms: N_6  and  N_21
    3  A    between atoms: C_7  and  C_25
    4  A    between atoms: N_8  and  C_25
    5  A    between atoms: C_13  and  C_20
    6  A    between atoms: C_15  and  C_17
    7  A    between atoms: C_15  and  C_41
    8  A    between atoms: C_17  and  C_22
    9  A    between atoms: N_21  and  C_22
   10  A    between atoms: C_36  and  C_41
                            x       y       z     vdW  Elec       q    Type
                         _______ _______ _______ _____ _____    ______ ____

>  <TORSDO>
F 10

$$$$
=
 OpenBabel11042420013D

 42 47  0  0  1  0  0  0  0  0999 V2000
  161.7990  206.5490  147.6860 N   0  0  0  0  0  1  0  0  0  0  0  0
  160.7350  205.8060  153.2270 C   0  0  0  0  0  3  0  0  0  0  0  0
  161.6640  208.3040  152.2690 N   0  0  0  0  0  0  0  0  0  0  0  0
  160.9600  205.9990  151.7900 C   0  0  0  0  0  0  0  0  0  0  0  0
  161.8840  210.7850  154.5540 S   0  0  0  0  0  0  0  0  0  0  0  0
  160.7880  206.8380  154.0690 C   0  0  0  0  0  0  0  0  0  0  0  0
  161.0150  207.5060  156.3870 N   0  0  0  0  0  0  0  0  0  0  0  0
  161.0240  205.1050  149.5350 C   0  0  0  0  0  0  0  0  0  0  0  0
  161.4500  207.2310  151.3290 C   0  0  0  0  0  0  0  0  0  0  0  0
  161.8070  209.8260  156.8520 C   0  0  0  0  0  3  0  0  0  0  0  0
  161.4560  208.8020  155.9650 C   0  0  0  0  0  0  0  0  0  0  0  0
  161.7250  207.3950  149.9640 C   0  0  0  0  0  3  0  0  0  0  0  0
  161.4920  209.1540  154.6270 C   0  0  0  0  0  0  0  0  0  0  0  0
  161.5130  206.3440  149.0670 C   0  0  0  0  0  0  0  0  0  0  0  0
  160.9270  208.2650  153.5470 C   0  0  0  0  0  0  0  0  0  0  0  0
  160.7590  204.9440  150.9000 C   0  0  0  0  0  2  0  0  0  0  0  0
  160.7040  206.5840  155.5230 C   0  0  0  0  0  3  0  0  0  0  0  0
  162.0970  211.0300  156.2110 C   0  0  0  0  0  3  0  0  0  0  0  0
  160.8620  201.4170  148.4910 C   0  0  0  0  0  3  0  0  0  0  0  0
  160.7960  202.6150  149.4060 C   0  0  0  0  0  2  0  0  0  0  0  0
  160.7790  203.9320  148.6330 C   0  0  2  0  0  3  0  0  0  0  0  0
  161.7740  203.8860  147.4810 C   0  0  0  0  0  2  0  0  0  0  0  0
  161.1580  201.5080  147.2360 N   0  0  0  0  0  0  0  0  0  0  0  0
  161.3540  202.7660  146.5370 C   0  0  0  0  0  2  0  0  0  0  0  0
  162.2420  209.5060  151.8230 N   0  0  0  0  0  2  0  0  0  0  0  0
  161.1630  210.4560  151.6110 C   0  0  0  0  0  2  0  0  0  0  0  0
  161.5940  211.4870  150.5900 C   0  0  0  0  0  2  0  0  0  0  0  0
  160.5230  212.5470  150.4630 C   0  0  0  0  0  2  0  0  0  0  0  0
  159.9000  212.7970  151.8210 C   0  0  0  0  0  2  0  0  0  0  0  0
  157.7260  213.2410  150.9620 O   0  0  0  0  0  1  0  0  0  0  0  0
  158.7700  213.8070  151.6990 C   0  0  1  0  0  3  0  0  0  0  0  0
  158.8430  214.3970  155.2650 C   0  0  0  0  0  2  0  0  0  0  0  0
  159.3550  214.4510  153.9500 O   0  0  0  0  0  0  0  0  0  0  0  0
  158.2710  214.2080  153.0850 C   0  0  2  0  0  3  0  0  0  0  0  0
  158.0040  213.1390  155.4490 C   0  0  1  0  0  0  0  0  0  0  0  0
  157.2790  212.8970  153.8330 P   0  0  1  0  0  0  0  0  0  0  0  0
  155.6240  213.2440  153.7700 O   0  0  0  0  0  1  0  0  0  0  0  0
  157.5850  211.5290  153.2650 O   0  0  0  0  0  0  0  0  0  0  0  0
  158.8250  212.0570  155.7730 O   0  0  0  0  0  1  0  0  0  0  0  0
  156.9240  213.3310  156.5050 C   0  0  0  0  0  2  0  0  0  0  0  0
  156.7050  212.1000  157.2510 N   0  0  0  0  0  2  0  0  0  0  0  0
  155.5600  211.4470  156.6460 C   0  0  0  0  0  1  0  0  0  0  0  0
  1 14  1  0  0  0  0
  2  6  1  0  0  0  0
  3 15  1  0  0  0  0
  4  2  2  0  0  0  0
  5 13  1  0  0  0  0
  5 18  1  0  0  0  0
  6 17  1  0  0  0  0
  8 16  1  0  0  0  0
  9  4  1  0  0  0  0
  9  3  1  0  0  0  0
 11  7  1  0  0  0  0
 11 10  1  0  0  0  0
 12  9  2  0  0  0  0
 13 11  2  0  0  0  0
 14  8  2  0  0  0  0
 14 12  1  0  0  0  0
 15  6  2  0  0  0  0
 15 13  1  0  0  0  0
 16  4  1  0  0  0  0
 17  7  2  0  0  0  0
 18 10  2  0  0  0  0
 19 20  1  0  0  0  0
 21 20  1  0  0  0  0
 21  8  1  1  0  0  0
 22 21  1  0  0  0  0
 23 19  2  0  0  0  0
 24 23  1  0  0  0  0
 24 22  1  0  0  0  0
 25  3  1  0  0  0  0
 26 25  1  0  0  0  0
 27 26  1  0  0  0  0
 28 27  1  0  0  0  0
 28 29  1  0  0  0  0
 31 30  1  6  0  0  0
 31 29  1  0  0  0  0
 32 35  1  0  0  0  0
 33 32  1  0  0  0  0
 34 31  1  6  0  0  0
 34 36  1  0  0  0  0
 34 33  1  0  0  0  0
 35 39  1  1  0  0  0
 35 40  1  0  0  0  0
 36 38  2  6  0  0  0
 36 35  1  0  0  0  0
 37 36  1  0  0  0  0
 40 41  1  0  0  0  0
 42 41  1  0  0  0  0
M  END
>  <MODEL>
3

>  <REMARK>
 VINA RESULT:      -6.6      4.444      6.891
  Name = 
  10 active torsions:
  status: ('A' for Active; 'I' for Inactive)
    1  A    between atoms: C_5  and  C_36
    2  A    between atoms: N_6  and  N_21
    3  A    between atoms: C_7  and  C_25
    4  A    between atoms: N_8  and  C_25
    5  A    between atoms: C_13  and  C_20
    6  A    between atoms: C_15  and  C_17
    7  A    between atoms: C_15  and  C_41
    8  A    between atoms: C_17  and  C_22
    9  A    between atoms: N_21  and  C_22
   10  A    between atoms: C_36  and  C_41
                            x       y       z     vdW  Elec       q    Type
                         _______ _______ _______ _____ _____    ______ ____

>  <TORSDO>
F 10

$$$$
=
 OpenBabel11042420013D

 42 47  0  0  1  0  0  0  0  0999 V2000
  162.1380  212.7420  148.2540 N   0  0  0  0  0  1  0  0  0  0  0  0
  157.1350  214.0920  150.6050 C   0  0  0  0  0  3  0  0  0  0  0  0
  159.1830  212.9190  152.1710 N   0  0  0  0  0  0  0  0  0  0  0  0
  158.4360  213.7930  149.9990 C   0  0  0  0  0  0  0  0  0  0  0  0
  158.5280  212.5870  155.4700 S   0  0  0  0  0  0  0  0  0  0  0  0
  156.9580  213.9880  151.9220 C   0  0  0  0  0  0  0  0  0  0  0  0
  155.3240  213.8020  153.7020 N   0  0  0  0  0  0  0  0  0  0  0  0
  159.8750  213.7110  148.0460 C   0  0  0  0  0  0  0  0  0  0  0  0
  159.4350  213.1830  150.7750 C   0  0  0  0  0  0  0  0  0  0  0  0
  156.0830  212.8390  155.8750 C   0  0  0  0  0  3  0  0  0  0  0  0
  156.3260  213.2370  154.5560 C   0  0  0  0  0  0  0  0  0  0  0  0
  160.6560  212.8390  150.1790 C   0  0  0  0  0  3  0  0  0  0  0  0
  157.6430  213.1170  154.1460 C   0  0  0  0  0  0  0  0  0  0  0  0
  160.8830  213.1010  148.8250 C   0  0  0  0  0  0  0  0  0  0  0  0
  158.1370  213.7090  152.8480 C   0  0  0  0  0  0  0  0  0  0  0  0
  158.6550  214.0450  148.6430 C   0  0  0  0  0  2  0  0  0  0  0  0
  155.5980  214.1530  152.4790 C   0  0  0  0  0  3  0  0  0  0  0  0
  157.2340  212.4230  156.5430 C   0  0  0  0  0  3  0  0  0  0  0  0
  158.8060  214.3620  144.4190 C   0  0  0  0  0  3  0  0  0  0  0  0
  158.7110  214.3570  145.9250 C   0  0  0  0  0  2  0  0  0  0  0  0
  160.0450  214.0150  146.5860 C   0  0  2  0  0  3  0  0  0  0  0  0
  160.7290  212.8750  145.8460 C   0  0  0  0  0  2  0  0  0  0  0  0
  159.8100  213.8600  143.7780 N   0  0  0  0  0  0  0  0  0  0  0  0
  161.0020  213.3340  144.4190 C   0  0  0  0  0  2  0  0  0  0  0  0
  160.1450  212.2250  152.9240 N   0  0  0  0  0  2  0  0  0  0  0  0
  159.9640  210.8060  152.6630 C   0  0  0  0  0  2  0  0  0  0  0  0
  161.1910  210.0500  153.1230 C   0  0  0  0  0  2  0  0  0  0  0  0
  162.1470  209.8910  151.9610 C   0  0  0  0  0  2  0  0  0  0  0  0
  162.0900  208.4630  151.4560 C   0  0  0  0  0  2  0  0  0  0  0  0
  162.1210  209.6110  149.3720 O   0  0  0  0  0  1  0  0  0  0  0  0
  161.6710  208.4440  149.9950 C   0  0  1  0  0  3  0  0  0  0  0  0
  162.7730  206.3190  147.2840 C   0  0  0  0  0  2  0  0  0  0  0  0
  162.6450  207.5430  147.9780 O   0  0  0  0  0  0  0  0  0  0  0  0
  162.2610  207.2220  149.2950 C   0  0  2  0  0  3  0  0  0  0  0  0
  161.5420  205.4540  147.5170 C   0  0  1  0  0  0  0  0  0  0  0  0
  161.0570  205.8810  149.1840 P   0  0  1  0  0  0  0  0  0  0  0  0
  161.3640  204.6610  150.3160 O   0  0  0  0  0  1  0  0  0  0  0  0
  159.6260  206.3650  149.2590 O   0  0  0  0  0  0  0  0  0  0  0  0
  160.5320  205.8030  146.6190 O   0  0  0  0  0  1  0  0  0  0  0  0
  161.8670  203.9690  147.4100 C   0  0  0  0  0  2  0  0  0  0  0  0
  161.0160  203.3230  146.4220 N   0  0  0  0  0  2  0  0  0  0  0  0
  161.0780  201.8980  146.6900 C   0  0  0  0  0  1  0  0  0  0  0  0
  1 14  1  0  0  0  0
  2  6  1  0  0  0  0
  3 15  1  0  0  0  0
  3 25  1  0  0  0  0
  4  2  2  0  0  0  0
  4  9  1  0  0  0  0
  5 18  1  0  0  0  0
  6 17  2  0  0  0  0
  6 15  1  0  0  0  0
  7 11  2  0  0  0  0
  8 16  1  0  0  0  0
  8 14  2  0  0  0  0
  9  3  1  0  0  0  0
 10 18  2  0  0  0  0
 11 10  1  0  0  0  0
 12  9  2  0  0  0  0
 13 11  1  0  0  0  0
 13  5  1  0  0  0  0
 14 12  1  0  0  0  0
 15 13  2  0  0  0  0
 16  4  1  0  0  0  0
 17  7  1  0  0  0  0
 19 20  1  0  0  0  0
 20 21  1  0  0  0  0
 21  8  1  1  0  0  0
 22 21  1  0  0  0  0
 23 24  1  0  0  0  0
 23 19  2  0  0  0  0
 24 22  1  0  0  0  0
 26 25  1  0  0  0  0
 26 27  1  0  0  0  0
 28 27  1  0  0  0  0
 29 28  1  0  0  0  0
 31 30  1  6  0  0  0
 31 29  1  0  0  0  0
 32 35  1  0  0  0  0
 32 33  1  0  0  0  0
 33 34  1  0  0  0  0
 34 31  1  6  0  0  0
 35 39  1  6  0  0  0
 35 36  1  0  0  0  0
 36 38  2  1  0  0  0
 36 34  1  0  0  0  0
 36 37  1  0  0  0  0
 40 35  1  0  0  0  0
 41 42  1  0  0  0  0
 41 40  1  0  0  0  0
M  END
>  <MODEL>
4

>  <REMARK>
 VINA RESULT:      -6.6      4.494      8.355
  Name = 
  10 active torsions:
  status: ('A' for Active; 'I' for Inactive)
    1  A    between atoms: C_5  and  C_36
    2  A    between atoms: N_6  and  N_21
    3  A    between atoms: C_7  and  C_25
    4  A    between atoms: N_8  and  C_25
    5  A    between atoms: C_13  and  C_20
    6  A    between atoms: C_15  and  C_17
    7  A    between atoms: C_15  and  C_41
    8  A    between atoms: C_17  and  C_22
    9  A    between atoms: N_21  and  C_22
   10  A    between atoms: C_36  and  C_41
                            x       y       z     vdW  Elec       q    Type
                         _______ _______ _______ _____ _____    ______ ____

>  <TORSDO>
F 10

$$$$
=
 OpenBabel11042420013D

 42 47  0  0  1  0  0  0  0  0999 V2000
  162.6550  206.0220  145.7510 N   0  0  0  0  0  1  0  0  0  0  0  0
  160.8600  205.4080  151.1170 C   0  0  0  0  0  3  0  0  0  0  0  0
  161.9020  207.8880  150.2300 N   0  0  0  0  0  0  0  0  0  0  0  0
  161.2740  205.5680  149.7190 C   0  0  0  0  0  0  0  0  0  0  0  0
  161.8060  210.4250  152.4610 S   0  0  0  0  0  0  0  0  0  0  0  0
  160.7960  206.4610  151.9320 C   0  0  0  0  0  0  0  0  0  0  0  0
  160.7090  207.1870  154.2420 N   0  0  0  0  0  0  0  0  0  0  0  0
  161.6430  204.6190  147.5160 C   0  0  0  0  0  0  0  0  0  0  0  0
  161.8180  206.7910  149.2970 C   0  0  0  0  0  0  0  0  0  0  0  0
  161.4240  209.5220  154.7510 C   0  0  0  0  0  3  0  0  0  0  0  0
  161.1980  208.4750  153.8510 C   0  0  0  0  0  0  0  0  0  0  0  0
  162.2730  206.9230  147.9770 C   0  0  0  0  0  3  0  0  0  0  0  0
  161.4120  208.7950  152.5220 C   0  0  0  0  0  0  0  0  0  0  0  0
  162.1860  205.8500  147.0860 C   0  0  0  0  0  0  0  0  0  0  0  0
  161.0000  207.8750  151.3980 C   0  0  0  0  0  0  0  0  0  0  0  0
  161.1980  204.4900  148.8360 C   0  0  0  0  0  2  0  0  0  0  0  0
  160.5190  206.2420  153.3680 C   0  0  0  0  0  3  0  0  0  0  0  0
  161.7930  210.7120  154.1250 C   0  0  0  0  0  3  0  0  0  0  0  0
  160.1110  202.3490  144.8290 C   0  0  0  0  0  3  0  0  0  0  0  0
  160.4640  203.6320  145.5400 C   0  0  0  0  0  2  0  0  0  0  0  0
  161.5250  203.4220  146.6180 C   0  0  2  0  0  3  0  0  0  0  0  0
  161.2400  202.1510  147.4050 C   0  0  0  0  0  2  0  0  0  0  0  0
  160.4510  201.1840  145.2750 N   0  0  0  0  0  0  0  0  0  0  0  0
  161.2950  200.9740  146.4380 C   0  0  0  0  0  2  0  0  0  0  0  0
  162.5300  209.0820  149.8350 N   0  0  0  0  0  2  0  0  0  0  0  0
  161.6810  209.7130  148.8380 C   0  0  0  0  0  2  0  0  0  0  0  0
  161.9580  211.2000  148.8120 C   0  0  0  0  0  2  0  0  0  0  0  0
  161.2980  211.8130  147.5960 C   0  0  0  0  0  2  0  0  0  0  0  0
  161.0950  213.2960  147.8290 C   0  0  0  0  0  2  0  0  0  0  0  0
  158.9140  212.5100  147.2970 O   0  0  0  0  0  1  0  0  0  0  0  0
  159.6380  213.6650  147.6030 C   0  0  1  0  0  3  0  0  0  0  0  0
  159.2180  214.4490  151.1080 C   0  0  0  0  0  2  0  0  0  0  0  0
  159.9630  214.2140  149.9310 O   0  0  0  0  0  0  0  0  0  0  0  0
  159.0610  214.3230  148.8540 C   0  0  2  0  0  3  0  0  0  0  0  0
  157.9510  213.6050  151.1020 C   0  0  1  0  0  0  0  0  0  0  0  0
  157.5230  213.5280  149.3680 P   0  0  1  0  0  0  0  0  0  0  0  0
  156.1670  214.4530  148.9590 O   0  0  0  0  0  1  0  0  0  0  0  0
  157.4000  212.1050  148.8700 O   0  0  0  0  0  0  0  0  0  0  0  0
  158.2240  212.3250  151.5870 O   0  0  0  0  0  1  0  0  0  0  0  0
  156.8340  214.2580  151.9080 C   0  0  0  0  0  2  0  0  0  0  0  0
  157.1400  214.2340  153.3300 N   0  0  0  0  0  2  0  0  0  0  0  0
  155.9990  213.6240  153.9880 C   0  0  0  0  0  1  0  0  0  0  0  0
  1 14  1  0  0  0  0
  2  6  1  0  0  0  0
  3 15  1  0  0  0  0
  4  2  2  0  0  0  0
  5 13  1  0  0  0  0
  5 18  1  0  0  0  0
  6 17  1  0  0  0  0
  8 16  1  0  0  0  0
  9  4  1  0  0  0  0
  9  3  1  0  0  0  0
 11  7  1  0  0  0  0
 11 10  1  0  0  0  0
 12  9  2  0  0  0  0
 13 11  2  0  0  0  0
 14  8  2  0  0  0  0
 14 12  1  0  0  0  0
 15  6  2  0  0  0  0
 15 13  1  0  0  0  0
 16  4  1  0  0  0  0
 17  7  2  0  0  0  0
 18 10  2  0  0  0  0
 19 23  2  0  0  0  0
 19 20  1  0  0  0  0
 20 21  1  0  0  0  0
 21 22  1  0  0  0  0
 21  8  1  1  0  0  0
 23 24  1  0  0  0  0
 24 22  1  0  0  0  0
 25  3  1  0  0  0  0
 26 25  1  0  0  0  0
 27 26  1  0  0  0  0
 28 29  1  0  0  0  0
 28 27  1  0  0  0  0
 31 30  1  1  0  0  0
 31 29  1  0  0  0  0
 33 32  1  0  0  0  0
 34 31  1  6  0  0  0
 34 36  1  0  0  0  0
 34 33  1  0  0  0  0
 35 32  1  0  0  0  0
 35 39  1  1  0  0  0
 35 40  1  0  0  0  0
 36 38  2  6  0  0  0
 36 35  1  0  0  0  0
 37 36  1  0  0  0  0
 40 41  1  0  0  0  0
 41 42  1  0  0  0  0
M  END
>  <MODEL>
5

>  <REMARK>
 VINA RESULT:      -6.6      2.900      4.786
  Name = 
  10 active torsions:
  status: ('A' for Active; 'I' for Inactive)
    1  A    between atoms: C_5  and  C_36
    2  A    between atoms: N_6  and  N_21
    3  A    between atoms: C_7  and  C_25
    4  A    between atoms: N_8  and  C_25
    5  A    between atoms: C_13  and  C_20
    6  A    between atoms: C_15  and  C_17
    7  A    between atoms: C_15  and  C_41
    8  A    between atoms: C_17  and  C_22
    9  A    between atoms: N_21  and  C_22
   10  A    between atoms: C_36  and  C_41
                            x       y       z     vdW  Elec       q    Type
                         _______ _______ _______ _____ _____    ______ ____

>  <TORSDO>
F 10

$$$$
=
 OpenBabel11042420013D

 42 47  0  0  1  0  0  0  0  0999 V2000
  160.6560  206.5860  147.3540 N   0  0  0  0  0  1  0  0  0  0  0  0
  161.1200  205.8030  152.9710 C   0  0  0  0  0  3  0  0  0  0  0  0
  161.0050  208.4200  151.8950 N   0  0  0  0  0  0  0  0  0  0  0  0
  160.9520  205.9910  151.5260 C   0  0  0  0  0  0  0  0  0  0  0  0
  160.9550  210.9500  154.1360 S   0  0  0  0  0  0  0  0  0  0  0  0
  161.0390  206.8390  153.8070 C   0  0  0  0  0  0  0  0  0  0  0  0
  161.5570  207.6460  156.0310 N   0  0  0  0  0  0  0  0  0  0  0  0
  160.7870  205.0590  149.2920 C   0  0  0  0  0  0  0  0  0  0  0  0
  160.9280  207.2920  150.9990 C   0  0  0  0  0  0  0  0  0  0  0  0
  161.6830  210.1150  156.3680 C   0  0  0  0  0  3  0  0  0  0  0  0
  161.4760  208.9950  155.5560 C   0  0  0  0  0  0  0  0  0  0  0  0
  160.8310  207.4700  149.6120 C   0  0  0  0  0  3  0  0  0  0  0  0
  161.1060  209.2820  154.2530 C   0  0  0  0  0  0  0  0  0  0  0  0
  160.7580  206.3660  148.7580 C   0  0  0  0  0  0  0  0  0  0  0  0
  160.6160  208.2150  153.3030 C   0  0  0  0  0  0  0  0  0  0  0  0
  160.8920  204.8860  150.6760 C   0  0  0  0  0  2  0  0  0  0  0  0
  161.3600  206.6360  155.2360 C   0  0  0  0  0  3  0  0  0  0  0  0
  161.4420  211.3210  155.7090 C   0  0  0  0  0  3  0  0  0  0  0  0
  160.6880  201.3080  148.4920 C   0  0  0  0  0  3  0  0  0  0  0  0
  160.4540  202.5770  149.2730 C   0  0  0  0  0  2  0  0  0  0  0  0
  160.7200  203.8270  148.4370 C   0  0  2  0  0  3  0  0  0  0  0  0
  161.9790  203.6500  147.6000 C   0  0  0  0  0  2  0  0  0  0  0  0
  161.3090  201.2860  147.3580 N   0  0  0  0  0  0  0  0  0  0  0  0
  161.7570  202.4750  146.6550 C   0  0  0  0  0  2  0  0  0  0  0  0
  161.0750  209.7190  151.3620 N   0  0  0  0  0  2  0  0  0  0  0  0
  162.3390  209.8320  150.6520 C   0  0  0  0  0  2  0  0  0  0  0  0
  162.0800  209.8270  149.1610 C   0  0  0  0  0  2  0  0  0  0  0  0
  162.6330  211.0960  148.5510 C   0  0  0  0  0  2  0  0  0  0  0  0
  161.8660  212.2870  149.0890 C   0  0  0  0  0  2  0  0  0  0  0  0
  162.6540  213.0860  146.9910 O   0  0  0  0  0  1  0  0  0  0  0  0
  162.1010  213.5010  148.2050 C   0  0  1  0  0  3  0  0  0  0  0  0
  158.6400  214.4530  148.6400 C   0  0  0  0  0  2  0  0  0  0  0  0
  159.9460  214.1440  149.0810 O   0  0  0  0  0  0  0  0  0  0  0  0
  160.7840  214.2320  147.9530 C   0  0  2  0  0  3  0  0  0  0  0  0
  158.3050  213.6480  147.3920 C   0  0  1  0  0  0  0  0  0  0  0  0
  159.8830  213.5060  146.5650 P   0  0  1  0  0  0  0  0  0  0  0  0
  160.0080  214.4530  145.1680 O   0  0  0  0  0  0  0  0  0  0  0  0
  160.2660  212.0670  146.3010 O   0  0  0  0  0  1  0  0  0  0  0  0
  157.8340  212.3830  147.7480 O   0  0  0  0  0  1  0  0  0  0  0  0
  157.2930  214.3690  146.5100 C   0  0  0  0  0  2  0  0  0  0  0  0
  156.6380  213.4380  145.6050 N   0  0  0  0  0  2  0  0  0  0  0  0
  156.0850  214.2300  144.5230 C   0  0  0  0  0  1  0  0  0  0  0  0
  1 14  1  0  0  0  0
  2  6  1  0  0  0  0
  3 15  1  0  0  0  0
  4  2  2  0  0  0  0
  5 13  1  0  0  0  0
  5 18  1  0  0  0  0
  6 17  1  0  0  0  0
  8 16  1  0  0  0  0
  9  4  1  0  0  0  0
  9  3  1  0  0  0  0
 11  7  1  0  0  0  0
 11 10  1  0  0  0  0
 12  9  2  0  0  0  0
 13 11  2  0  0  0  0
 14  8  2  0  0  0  0
 14 12  1  0  0  0  0
 15  6  2  0  0  0  0
 15 13  1  0  0  0  0
 16  4  1  0  0  0  0
 17  7  2  0  0  0  0
 18 10  2  0  0  0  0
 19 20  1  0  0  0  0
 21 20  1  0  0  0  0
 21  8  1  1  0  0  0
 22 21  1  0  0  0  0
 23 19  2  0  0  0  0
 24 23  1  0  0  0  0
 24 22  1  0  0  0  0
 25  3  1  0  0  0  0
 26 25  1  0  0  0  0
 27 26  1  0  0  0  0
 28 29  1  0  0  0  0
 28 27  1  0  0  0  0
 31 30  1  6  0  0  0
 31 29  1  0  0  0  0
 32 33  1  0  0  0  0
 34 31  1  1  0  0  0
 34 33  1  0  0  0  0
 35 39  1  1  0  0  0
 35 32  1  0  0  0  0
 36 37  2  6  0  0  0
 36 35  1  0  0  0  0
 36 34  1  0  0  0  0
 38 36  1  0  0  0  0
 40 35  1  0  0  0  0
 41 40  1  0  0  0  0
 42 41  1  0  0  0  0
M  END
>  <MODEL>
6

>  <REMARK>
 VINA RESULT:      -6.6      2.646      3.234
  Name = 
  10 active torsions:
  status: ('A' for Active; 'I' for Inactive)
    1  A    between atoms: C_5  and  C_36
    2  A    between atoms: N_6  and  N_21
    3  A    between atoms: C_7  and  C_25
    4  A    between atoms: N_8  and  C_25
    5  A    between atoms: C_13  and  C_20
    6  A    between atoms: C_15  and  C_17
    7  A    between atoms: C_15  and  C_41
    8  A    between atoms: C_17  and  C_22
    9  A    between atoms: N_21  and  C_22
   10  A    between atoms: C_36  and  C_41
                            x       y       z     vdW  Elec       q    Type
                         _______ _______ _______ _____ _____    ______ ____

>  <TORSDO>
F 10

$$$$
=
 OpenBabel11042420013D

 42 47  0  0  1  0  0  0  0  0999 V2000
  163.0970  212.9410  143.5130 N   0  0  0  0  0  1  0  0  0  0  0  0
  158.0750  213.0650  146.1870 C   0  0  0  0  0  3  0  0  0  0  0  0
  160.4850  213.3070  147.6550 N   0  0  0  0  0  0  0  0  0  0  0  0
  159.3610  213.0800  145.4810 C   0  0  0  0  0  0  0  0  0  0  0  0
  160.1570  213.8660  150.9720 S   0  0  0  0  0  0  0  0  0  0  0  0
  158.0100  213.3440  147.4890 C   0  0  0  0  0  0  0  0  0  0  0  0
  156.6640  213.1720  149.4960 N   0  0  0  0  0  0  0  0  0  0  0  0
  160.6280  212.8900  143.4210 C   0  0  0  0  0  0  0  0  0  0  0  0
  160.5510  213.1690  146.2200 C   0  0  0  0  0  0  0  0  0  0  0  0
  157.8340  213.3260  151.6940 C   0  0  0  0  0  3  0  0  0  0  0  0
  157.8420  213.3280  150.2950 C   0  0  0  0  0  0  0  0  0  0  0  0
  161.7820  213.1190  145.5510 C   0  0  0  0  0  3  0  0  0  0  0  0
  159.0790  213.5680  149.7200 C   0  0  0  0  0  0  0  0  0  0  0  0
  161.8280  212.9840  144.1600 C   0  0  0  0  0  0  0  0  0  0  0  0
  159.2400  213.8370  148.2440 C   0  0  0  0  0  0  0  0  0  0  0  0
  159.4030  212.9320  144.0940 C   0  0  0  0  0  2  0  0  0  0  0  0
  156.7220  213.1740  148.1960 C   0  0  0  0  0  3  0  0  0  0  0  0
  159.0830  213.6050  152.2490 C   0  0  0  0  0  3  0  0  0  0  0  0
  159.1550  212.9950  139.8800 C   0  0  0  0  0  3  0  0  0  0  0  0
  159.3650  213.3960  141.3190 C   0  0  0  0  0  2  0  0  0  0  0  0
  160.6000  212.7370  141.9280 C   0  0  2  0  0  3  0  0  0  0  0  0
  160.6860  211.2760  141.5080 C   0  0  0  0  0  2  0  0  0  0  0  0
  159.7740  212.0010  139.3320 N   0  0  0  0  0  0  0  0  0  0  0  0
  160.8120  211.2270  139.9900 C   0  0  0  0  0  2  0  0  0  0  0  0
  161.6750  213.3020  148.4020 N   0  0  0  0  0  2  0  0  0  0  0  0
  162.3470  212.0380  148.1450 C   0  0  0  0  0  2  0  0  0  0  0  0
  161.7230  210.9560  149.0000 C   0  0  0  0  0  2  0  0  0  0  0  0
  162.3290  209.6180  148.6360 C   0  0  0  0  0  2  0  0  0  0  0  0
  161.2670  208.5420  148.7410 C   0  0  0  0  0  2  0  0  0  0  0  0
  161.7940  207.1860  150.6240 O   0  0  0  0  0  1  0  0  0  0  0  0
  161.8880  207.2440  149.2310 C   0  0  1  0  0  3  0  0  0  0  0  0
  161.2130  203.8020  148.3490 C   0  0  0  0  0  2  0  0  0  0  0  0
  161.5800  204.8490  149.2240 O   0  0  0  0  0  0  0  0  0  0  0  0
  161.1660  206.0490  148.6120 C   0  0  2  0  0  3  0  0  0  0  0  0
  161.6720  204.1190  146.9320 C   0  0  1  0  0  0  0  0  0  0  0  0
  161.5320  205.8990  146.8500 P   0  0  1  0  0  0  0  0  0  0  0  0
  160.2460  206.4370  145.8900 O   0  0  0  0  0  0  0  0  0  0  0  0
  162.8350  206.5600  146.4590 O   0  0  0  0  0  1  0  0  0  0  0  0
  163.0030  203.7340  146.7610 O   0  0  0  0  0  1  0  0  0  0  0  0
  160.7810  203.4550  145.8900 C   0  0  0  0  0  2  0  0  0  0  0  0
  160.6330  202.0340  146.1640 N   0  0  0  0  0  2  0  0  0  0  0  0
  160.0810  201.4360  144.9630 C   0  0  0  0  0  1  0  0  0  0  0  0
  1 14  1  0  0  0  0
  2  6  1  0  0  0  0
  3 15  1  0  0  0  0
  3 25  1  0  0  0  0
  4  2  2  0  0  0  0
  4  9  1  0  0  0  0
  5 18  1  0  0  0  0
  6 17  2  0  0  0  0
  6 15  1  0  0  0  0
  7 11  2  0  0  0  0
  8 16  1  0  0  0  0
  8 14  2  0  0  0  0
  9  3  1  0  0  0  0
 10 18  2  0  0  0  0
 11 10  1  0  0  0  0
 12  9  2  0  0  0  0
 13 11  1  0  0  0  0
 13  5  1  0  0  0  0
 14 12  1  0  0  0  0
 15 13  2  0  0  0  0
 16  4  1  0  0  0  0
 17  7  1  0  0  0  0
 19 20  1  0  0  0  0
 20 21  1  0  0  0  0
 21  8  1  1  0  0  0
 22 21  1  0  0  0  0
 23 19  2  0  0  0  0
 23 24  1  0  0  0  0
 24 22  1  0  0  0  0
 26 25  1  0  0  0  0
 26 27  1  0  0  0  0
 28 29  1  0  0  0  0
 28 27  1  0  0  0  0
 29 31  1  0  0  0  0
 31 30  1  1  0  0  0
 32 33  1  0  0  0  0
 34 33  1  0  0  0  0
 34 31  1  1  0  0  0
 35 39  1  6  0  0  0
 35 32  1  0  0  0  0
 36 37  2  6  0  0  0
 36 35  1  0  0  0  0
 36 34  1  0  0  0  0
 38 36  1  0  0  0  0
 40 41  1  0  0  0  0
 40 35  1  0  0  0  0
 42 41  1  0  0  0  0
M  END
>  <MODEL>
7

>  <REMARK>
 VINA RESULT:      -6.4      4.084      8.577
  Name = 
  10 active torsions:
  status: ('A' for Active; 'I' for Inactive)
    1  A    between atoms: C_5  and  C_36
    2  A    between atoms: N_6  and  N_21
    3  A    between atoms: C_7  and  C_25
    4  A    between atoms: N_8  and  C_25
    5  A    between atoms: C_13  and  C_20
    6  A    between atoms: C_15  and  C_17
    7  A    between atoms: C_15  and  C_41
    8  A    between atoms: C_17  and  C_22
    9  A    between atoms: N_21  and  C_22
   10  A    between atoms: C_36  and  C_41
                            x       y       z     vdW  Elec       q    Type
                         _______ _______ _______ _____ _____    ______ ____

>  <TORSDO>
F 10

$$$$
=
 OpenBabel11042420013D

 42 47  0  0  1  0  0  0  0  0999 V2000
  162.1360  212.7190  146.9740 N   0  0  0  0  0  1  0  0  0  0  0  0
  156.9520  214.0330  148.9210 C   0  0  0  0  0  3  0  0  0  0  0  0
  159.0610  213.4700  150.7270 N   0  0  0  0  0  0  0  0  0  0  0  0
  158.2950  213.7430  148.4070 C   0  0  0  0  0  0  0  0  0  0  0  0
  158.3430  213.8320  154.0100 S   0  0  0  0  0  0  0  0  0  0  0  0
  156.7470  214.2140  150.2260 C   0  0  0  0  0  0  0  0  0  0  0  0
  155.0880  214.2670  151.9900 N   0  0  0  0  0  0  0  0  0  0  0  0
  159.7930  213.3700  146.5350 C   0  0  0  0  0  0  0  0  0  0  0  0
  159.3260  213.4350  149.3090 C   0  0  0  0  0  0  0  0  0  0  0  0
  155.8730  213.9100  154.3310 C   0  0  0  0  0  3  0  0  0  0  0  0
  156.1150  214.0210  152.9570 C   0  0  0  0  0  0  0  0  0  0  0  0
  160.5940  213.0950  148.8160 C   0  0  0  0  0  3  0  0  0  0  0  0
  157.4490  213.9490  152.5940 C   0  0  0  0  0  0  0  0  0  0  0  0
  160.8340  213.0640  147.4390 C   0  0  0  0  0  0  0  0  0  0  0  0
  157.9200  214.2790  151.1980 C   0  0  0  0  0  0  0  0  0  0  0  0
  158.5280  213.7010  147.0320 C   0  0  0  0  0  2  0  0  0  0  0  0
  155.3610  214.3570  150.7210 C   0  0  0  0  0  3  0  0  0  0  0  0
  157.0410  213.7820  155.0840 C   0  0  0  0  0  3  0  0  0  0  0  0
  159.0250  214.1830  142.8650 C   0  0  0  0  0  3  0  0  0  0  0  0
  159.0920  214.3900  144.3580 C   0  0  0  0  0  2  0  0  0  0  0  0
  159.9750  213.3510  145.0450 C   0  0  2  0  0  3  0  0  0  0  0  0
  159.7220  211.9670  144.4620 C   0  0  0  0  0  2  0  0  0  0  0  0
  159.4270  213.0980  142.2880 N   0  0  0  0  0  0  0  0  0  0  0  0
  160.0830  212.0040  142.9830 C   0  0  0  0  0  2  0  0  0  0  0  0
  160.0650  213.0720  151.6260 N   0  0  0  0  0  2  0  0  0  0  0  0
  160.3400  211.6670  151.3770 C   0  0  0  0  0  2  0  0  0  0  0  0
  160.3230  210.9120  152.6890 C   0  0  0  0  0  2  0  0  0  0  0  0
  161.4620  209.9160  152.7100 C   0  0  0  0  0  2  0  0  0  0  0  0
  160.9080  208.5160  152.5470 C   0  0  0  0  0  2  0  0  0  0  0  0
  162.2850  206.5940  152.2780 O   0  0  0  0  0  1  0  0  0  0  0  0
  161.7890  207.7130  151.6040 C   0  0  1  0  0  3  0  0  0  0  0  0
  160.3570  205.4880  149.1390 C   0  0  0  0  0  2  0  0  0  0  0  0
  160.7090  205.8900  150.4470 O   0  0  0  0  0  0  0  0  0  0  0  0
  160.9860  207.2700  150.3830 C   0  0  2  0  0  3  0  0  0  0  0  0
  161.3840  206.0020  148.1400 C   0  0  1  0  0  0  0  0  0  0  0  0
  161.9010  207.5570  148.8530 P   0  0  1  0  0  0  0  0  0  0  0  0
  161.3270  208.9130  148.0190 O   0  0  0  0  0  0  0  0  0  0  0  0
  163.3970  207.6230  149.0640 O   0  0  0  0  0  1  0  0  0  0  0  0
  162.4670  205.1230  148.0690 O   0  0  0  0  0  1  0  0  0  0  0  0
  160.7730  206.2130  146.7600 C   0  0  0  0  0  2  0  0  0  0  0  0
  161.5600  205.5430  145.7370 N   0  0  0  0  0  2  0  0  0  0  0  0
  160.8140  205.6610  144.4970 C   0  0  0  0  0  1  0  0  0  0  0  0
  1 14  1  0  0  0  0
  2  6  1  0  0  0  0
  3 15  1  0  0  0  0
  3 25  1  0  0  0  0
  4  2  2  0  0  0  0
  4  9  1  0  0  0  0
  5 18  1  0  0  0  0
  6 17  2  0  0  0  0
  6 15  1  0  0  0  0
  7 11  2  0  0  0  0
  8 16  1  0  0  0  0
  8 14  2  0  0  0  0
  9  3  1  0  0  0  0
 10 18  2  0  0  0  0
 11 10  1  0  0  0  0
 12  9  2  0  0  0  0
 13 11  1  0  0  0  0
 13  5  1  0  0  0  0
 14 12  1  0  0  0  0
 15 13  2  0  0  0  0
 16  4  1  0  0  0  0
 17  7  1  0  0  0  0
 19 20  1  0  0  0  0
 20 21  1  0  0  0  0
 21  8  1  1  0  0  0
 22 21  1  0  0  0  0
 23 19  2  0  0  0  0
 23 24  1  0  0  0  0
 24 22  1  0  0  0  0
 26 25  1  0  0  0  0
 26 27  1  0  0  0  0
 27 28  1  0  0  0  0
 29 28  1  0  0  0  0
 31 30  1  1  0  0  0
 31 29  1  0  0  0  0
 32 33  1  0  0  0  0
 34 33  1  0  0  0  0
 34 31  1  1  0  0  0
 35 39  1  6  0  0  0
 35 36  1  0  0  0  0
 35 32  1  0  0  0  0
 36 37  2  6  0  0  0
 36 38  1  0  0  0  0
 36 34  1  0  0  0  0
 40 35  1  0  0  0  0
 41 40  1  0  0  0  0
 42 41  1  0  0  0  0
M  END
>  <MODEL>
8

>  <REMARK>
 VINA RESULT:      -6.4      4.627      8.374
  Name = 
  10 active torsions:
  status: ('A' for Active; 'I' for Inactive)
    1  A    between atoms: C_5  and  C_36
    2  A    between atoms: N_6  and  N_21
    3  A    between atoms: C_7  and  C_25
    4  A    between atoms: N_8  and  C_25
    5  A    between atoms: C_13  and  C_20
    6  A    between atoms: C_15  and  C_17
    7  A    between atoms: C_15  and  C_41
    8  A    between atoms: C_17  and  C_22
    9  A    between atoms: N_21  and  C_22
   10  A    between atoms: C_36  and  C_41
                            x       y       z     vdW  Elec       q    Type
                         _______ _______ _______ _____ _____    ______ ____

>  <TORSDO>
F 10

$$$$
=
 OpenBabel11042420013D

 42 47  0  0  1  0  0  0  0  0999 V2000
  160.7460  206.9690  147.7850 N   0  0  0  0  0  1  0  0  0  0  0  0
  161.1580  206.2590  153.4160 C   0  0  0  0  0  3  0  0  0  0  0  0
  160.9760  208.8600  152.3100 N   0  0  0  0  0  0  0  0  0  0  0  0
  161.0030  206.4260  151.9670 C   0  0  0  0  0  0  0  0  0  0  0  0
  160.8150  211.4100  154.5230 S   0  0  0  0  0  0  0  0  0  0  0  0
  161.0320  207.3000  154.2390 C   0  0  0  0  0  0  0  0  0  0  0  0
  161.4940  208.1470  156.4620 N   0  0  0  0  0  0  0  0  0  0  0  0
  160.8990  205.4670  149.7410 C   0  0  0  0  0  0  0  0  0  0  0  0
  160.9450  207.7200  151.4260 C   0  0  0  0  0  0  0  0  0  0  0  0
  161.5390  210.6220  156.7730 C   0  0  0  0  0  3  0  0  0  0  0  0
  161.3770  209.4870  155.9710 C   0  0  0  0  0  0  0  0  0  0  0  0
  160.8620  207.8810  150.0360 C   0  0  0  0  0  3  0  0  0  0  0  0
  161.0170  209.7490  154.6600 C   0  0  0  0  0  0  0  0  0  0  0  0
  160.8350  206.7670  149.1930 C   0  0  0  0  0  0  0  0  0  0  0  0
  160.5740  208.6570  153.7160 C   0  0  0  0  0  0  0  0  0  0  0  0
  160.9890  205.3110  151.1290 C   0  0  0  0  0  2  0  0  0  0  0  0
  161.3410  207.1220  155.6750 C   0  0  0  0  0  3  0  0  0  0  0  0
  161.2690  211.8120  156.0990 C   0  0  0  0  0  3  0  0  0  0  0  0
  161.0860  201.7140  148.9660 C   0  0  0  0  0  3  0  0  0  0  0  0
  160.7950  202.9650  149.7570 C   0  0  0  0  0  2  0  0  0  0  0  0
  160.8820  204.2250  148.8990 C   0  0  2  0  0  3  0  0  0  0  0  0
  162.0850  204.1550  147.9700 C   0  0  0  0  0  2  0  0  0  0  0  0
  161.6200  201.7370  147.7890 N   0  0  0  0  0  0  0  0  0  0  0  0
  161.9030  202.9550  147.0490 C   0  0  0  0  0  2  0  0  0  0  0  0
  161.0110  210.1540  151.7640 N   0  0  0  0  0  2  0  0  0  0  0  0
  162.2540  210.2790  151.0190 C   0  0  0  0  0  2  0  0  0  0  0  0
  161.9610  210.1940  149.5370 C   0  0  0  0  0  2  0  0  0  0  0  0
  162.5340  211.4090  148.8410 C   0  0  0  0  0  2  0  0  0  0  0  0
  161.5810  212.5750  149.0010 C   0  0  0  0  0  2  0  0  0  0  0  0
  163.0080  214.3440  148.2950 O   0  0  0  0  0  1  0  0  0  0  0  0
  161.8620  213.6270  147.9400 C   0  0  1  0  0  3  0  0  0  0  0  0
  162.6820  213.3130  144.4320 C   0  0  0  0  0  2  0  0  0  0  0  0
  162.8830  213.7610  145.7570 O   0  0  0  0  0  0  0  0  0  0  0  0
  162.0660  212.9620  146.5810 C   0  0  2  0  0  3  0  0  0  0  0  0
  161.1920  213.2090  144.1360 C   0  0  1  0  0  0  0  0  0  0  0  0
  160.4970  212.7390  145.7140 P   0  0  1  0  0  0  0  0  0  0  0  0
  159.9670  211.1330  145.7740 O   0  0  0  0  0  0  0  0  0  0  0  0
  159.4250  213.6990  146.1790 O   0  0  0  0  0  1  0  0  0  0  0  0
  160.6920  214.4520  143.7430 O   0  0  0  0  0  1  0  0  0  0  0  0
  160.9000  212.1520  143.0780 C   0  0  0  0  0  2  0  0  0  0  0  0
  161.3770  212.5810  141.7720 N   0  0  0  0  0  2  0  0  0  0  0  0
  161.9360  211.4070  141.1290 C   0  0  0  0  0  1  0  0  0  0  0  0
  1 14  1  0  0  0  0
  2  6  1  0  0  0  0
  3 15  1  0  0  0  0
  4  2  2  0  0  0  0
  5 13  1  0  0  0  0
  5 18  1  0  0  0  0
  6 17  1  0  0  0  0
  8 16  1  0  0  0  0
  9  4  1  0  0  0  0
  9  3  1  0  0  0  0
 11  7  1  0  0  0  0
 11 10  1  0  0  0  0
 12  9  2  0  0  0  0
 13 11  2  0  0  0  0
 14  8  2  0  0  0  0
 14 12  1  0  0  0  0
 15  6  2  0  0  0  0
 15 13  1  0  0  0  0
 16  4  1  0  0  0  0
 17  7  2  0  0  0  0
 18 10  2  0  0  0  0
 19 20  1  0  0  0  0
 21  8  1  1  0  0  0
 21 20  1  0  0  0  0
 22 21  1  0  0  0  0
 23 19  2  0  0  0  0
 24 23  1  0  0  0  0
 24 22  1  0  0  0  0
 25  3  1  0  0  0  0
 26 25  1  0  0  0  0
 27 26  1  0  0  0  0
 28 29  1  0  0  0  0
 28 27  1  0  0  0  0
 31 30  1  1  0  0  0
 31 29  1  0  0  0  0
 32 33  1  0  0  0  0
 33 34  1  0  0  0  0
 34 31  1  1  0  0  0
 35 39  1  6  0  0  0
 35 32  1  0  0  0  0
 35 36  1  0  0  0  0
 36 37  2  1  0  0  0
 36 38  1  0  0  0  0
 36 34  1  0  0  0  0
 40 35  1  0  0  0  0
 41 40  1  0  0  0  0
 42 41  1  0  0  0  0
M  END
>  <MODEL>
9

>  <REMARK>
 VINA RESULT:      -6.4      1.426      2.013
  Name = 
  10 active torsions:
  status: ('A' for Active; 'I' for Inactive)
    1  A    between atoms: C_5  and  C_36
    2  A    between atoms: N_6  and  N_21
    3  A    between atoms: C_7  and  C_25
    4  A    between atoms: N_8  and  C_25
    5  A    between atoms: C_13  and  C_20
    6  A    between atoms: C_15  and  C_17
    7  A    between atoms: C_15  and  C_41
    8  A    between atoms: C_17  and  C_22
    9  A    between atoms: N_21  and  C_22
   10  A    between atoms: C_36  and  C_41
                            x       y       z     vdW  Elec       q    Type
                         _______ _______ _______ _____ _____    ______ ____

>  <TORSDO>
F 10

$$$$
