=
 OpenBabel11052409553D

 29 32  0  0  1  0  0  0  0  0999 V2000
  160.9460  204.9670  151.1180 C   0  0  0  0  0  0  0  0  0  0  0  0
  161.9020  209.2910  152.2060 O   0  0  0  0  0  1  0  0  0  0  0  0
  161.2970  206.1700  152.9370 C   0  0  0  0  0  0  0  0  0  0  0  0
  160.8460  203.2710  149.3420 C   0  0  0  0  0  3  0  0  0  0  0  0
  161.7490  204.0340  147.1970 C   0  0  0  0  0  3  0  0  0  0  0  0
  161.6500  207.2040  153.8490 N   0  0  0  0  0  1  0  0  0  0  0  0
  160.9150  204.6640  149.8140 C   0  0  0  0  0  0  0  0  0  0  0  0
  160.9580  205.7720  148.7680 C   0  0  2  0  0  3  0  0  0  0  0  0
  161.6850  205.3300  147.5270 C   0  0  0  0  0  3  0  0  0  0  0  0
  161.9950  209.4860  149.7670 C   0  0  0  0  0  0  0  0  0  0  0  0
  160.8980  204.0990  152.2880 C   0  0  0  0  0  3  0  0  0  0  0  0
  161.7400  208.5010  148.4270 S   0  0  0  0  0  0  0  0  0  0  0  0
  161.4970  207.3970  150.6750 C   0  0  0  0  0  0  0  0  0  0  0  0
  161.0950  204.8160  153.3510 N   0  0  0  0  0  0  0  0  0  0  0  0
  161.2060  202.9760  148.0880 C   0  0  0  0  0  0  0  0  0  0  0  0
  161.8110  208.7430  150.9340 C   0  0  0  0  0  0  0  0  0  0  0  0
  161.4440  207.1000  149.3120 C   0  0  0  0  0  0  0  0  0  0  0  0
  161.2160  206.2960  151.6180 C   0  0  0  0  0  0  0  0  0  0  0  0
  162.2990  210.8820  149.6740 N   0  0  0  0  0  2  0  0  0  0  0  0
  161.8320  211.7500  148.6020 C   0  0  1  0  0  3  0  0  0  0  0  0
  160.5610  212.5380  150.4900 O   0  0  0  0  0  1  0  0  0  0  0  0
  160.8560  212.7920  149.1480 C   0  0  0  0  0  2  0  0  0  0  0  0
  163.0220  212.4130  147.9280 C   0  0  0  0  0  2  0  0  0  0  0  0
  162.6930  213.8230  147.5600 C   0  0  0  0  0  3  0  0  0  0  0  0
  162.4570  214.1940  146.3040 C   0  0  0  0  0  3  0  0  0  0  0  0
  162.5050  213.2600  145.2290 N   0  0  0  0  0  1  0  0  0  0  0  0
  161.1410  201.6170  147.6530 N   0  0  0  0  0  2  0  0  0  0  0  0
  160.7990  201.2460  146.2890 C   0  0  0  0  0  2  0  0  0  0  0  0
  161.1630  199.7960  146.0540 C   0  0  0  0  0  1  0  0  0  0  0  0
  1 18  1  0  0  0  0
  1 11  1  0  0  0  0
  3 14  1  0  0  0  0
  3  6  1  0  0  0  0
  4  7  1  0  0  0  0
  5  9  2  0  0  0  0
  5 15  1  0  0  0  0
  7  1  2  0  0  0  0
  8  9  1  6  0  0  0
  8 17  1  0  0  0  0
  8  7  1  0  0  0  0
 10 16  2  0  0  0  0
 11 14  2  0  0  0  0
 12 17  1  0  0  0  0
 12 10  1  0  0  0  0
 13 16  1  0  0  0  0
 13 18  1  0  0  0  0
 15  4  2  0  0  0  0
 16  2  1  0  0  0  0
 17 13  2  0  0  0  0
 18  3  2  0  0  0  0
 19 10  1  0  0  0  0
 20 23  1  1  0  0  0
 20 22  1  0  0  0  0
 20 19  1  0  0  0  0
 22 21  1  0  0  0  0
 24 23  1  0  0  0  0
 25 24  2  0  0  0  0
 26 25  1  0  0  0  0
 27 15  1  0  0  0  0
 28 27  1  0  0  0  0
 29 28  1  0  0  0  0
M  END
>  <MODEL>
1

>  <REMARK>
 VINA RESULT:      -8.7      0.000      0.000
  Name = 
  7 active torsions:
  status: ('A' for Active; 'I' for Inactive)
    1  A    between atoms: C_1  and  C_15
    2  A    between atoms: N_5  and  C_17
    3  A    between atoms: N_5  and  CA_23
    4  A    between atoms: C_9  and  N_13
    5  A    between atoms: N_13  and  C_25
    6  A    between atoms: C_15  and  CA_23
    7  A    between atoms: CA_23  and  C_27
                            x       y       z     vdW  Elec       q    Type
                         _______ _______ _______ _____ _____    ______ ____

>  <TORSDO>
F 7

$$$$
=
 OpenBabel11052409553D

 29 32  0  0  1  0  0  0  0  0999 V2000
  160.9230  204.4970  150.2250 C   0  0  0  0  0  0  0  0  0  0  0  0
  161.5110  207.5410  153.5700 O   0  0  0  0  0  1  0  0  0  0  0  0
  160.9780  204.5300  152.4330 C   0  0  0  0  0  0  0  0  0  0  0  0
  161.1360  204.0200  147.8240 C   0  0  0  0  0  2  0  0  0  0  0  0
  162.2650  205.7900  146.5620 C   0  0  0  0  0  3  0  0  0  0  0  0
  161.1590  204.9050  153.7930 N   0  0  0  0  0  1  0  0  0  0  0  0
  161.0740  204.9410  148.9700 C   0  0  0  0  0  0  0  0  0  0  0  0
  161.1930  206.4360  148.6940 C   0  0  0  0  0  0  0  0  0  0  0  0
  162.0930  206.7080  147.5200 C   0  0  0  0  0  3  0  0  0  0  0  0
  161.9040  209.0100  151.6500 C   0  0  0  0  0  0  0  0  0  0  0  0
  160.7700  203.1400  150.7320 C   0  0  0  0  0  3  0  0  0  0  0  0
  161.8720  208.9020  149.9710 S   0  0  0  0  0  0  0  0  0  0  0  0
  161.4010  206.7720  151.2260 C   0  0  0  0  0  0  0  0  0  0  0  0
  160.7950  203.1710  152.0290 N   0  0  0  0  0  0  0  0  0  0  0  0
  161.6670  204.4330  146.6670 C   0  0  0  0  0  0  0  0  0  0  0  0
  161.6110  207.7620  152.2030 C   0  0  0  0  0  0  0  0  0  0  0  0
  161.5370  207.2530  149.9230 C   0  0  0  0  0  0  0  0  0  0  0  0
  161.0590  205.3450  151.3880 C   0  0  0  0  0  0  0  0  0  0  0  0
  162.1460  210.2300  152.3580 N   0  0  0  0  0  2  0  0  0  0  0  0
  161.1330  210.9460  153.1220 C   0  0  1  0  0  3  0  0  0  0  0  0
  158.9240  211.5050  152.3440 O   0  0  0  0  0  1  0  0  0  0  0  0
  159.7370  210.4460  152.7530 C   0  0  0  0  0  2  0  0  0  0  0  0
  161.4020  210.7750  154.6080 C   0  0  0  0  0  2  0  0  0  0  0  0
  160.1730  210.2910  155.3080 C   0  0  0  0  0  3  0  0  0  0  0  0
  160.2220  209.4200  156.3110 C   0  0  0  0  0  3  0  0  0  0  0  0
  161.4590  208.8920  156.7820 N   0  0  0  0  0  1  0  0  0  0  0  0
  161.7270  203.5200  145.5700 N   0  0  0  0  0  2  0  0  0  0  0  0
  160.5370  203.0130  144.9070 C   0  0  0  0  0  2  0  0  0  0  0  0
  160.3010  201.5770  145.3240 C   0  0  0  0  0  1  0  0  0  0  0  0
  1 11  1  0  0  0  0
  1 18  1  0  0  0  0
  3  6  1  0  0  0  0
  4  7  1  0  0  0  0
  5 15  2  0  0  0  0
  5  9  1  0  0  0  0
  7  1  2  0  0  0  0
  8  7  1  0  0  0  0
  8 17  1  0  0  0  0
  9  8  2  0  0  0  0
 10 16  2  0  0  0  0
 10 19  1  0  0  0  0
 11 14  2  0  0  0  0
 12 10  1  0  0  0  0
 13 18  1  0  0  0  0
 13 16  1  0  0  0  0
 14  3  1  0  0  0  0
 15  4  1  0  0  0  0
 16  2  1  0  0  0  0
 17 12  1  0  0  0  0
 17 13  2  0  0  0  0
 18  3  2  0  0  0  0
 19 20  1  0  0  0  0
 20 22  1  1  0  0  0
 20 23  1  0  0  0  0
 21 22  1  0  0  0  0
 23 24  1  0  0  0  0
 24 25  2  0  0  0  0
 25 26  1  0  0  0  0
 27 15  1  0  0  0  0
 28 29  1  0  0  0  0
 28 27  1  0  0  0  0
M  END
>  <MODEL>
2

>  <REMARK>
 VINA RESULT:      -8.5      3.087      4.285
  Name = 
  7 active torsions:
  status: ('A' for Active; 'I' for Inactive)
    1  A    between atoms: C_1  and  C_15
    2  A    between atoms: N_5  and  C_17
    3  A    between atoms: N_5  and  CA_23
    4  A    between atoms: C_9  and  N_13
    5  A    between atoms: N_13  and  C_25
    6  A    between atoms: C_15  and  CA_23
    7  A    between atoms: CA_23  and  C_27
                            x       y       z     vdW  Elec       q    Type
                         _______ _______ _______ _____ _____    ______ ____

>  <TORSDO>
F 7

$$$$
=
 OpenBabel11052409553D

 29 32  0  0  1  0  0  0  0  0999 V2000
  160.9210  204.4020  150.2060 C   0  0  0  0  0  0  0  0  0  0  0  0
  161.4100  207.3850  153.6200 O   0  0  0  0  0  1  0  0  0  0  0  0
  160.9680  204.3870  152.4140 C   0  0  0  0  0  0  0  0  0  0  0  0
  161.1560  203.9850  147.7950 C   0  0  0  0  0  2  0  0  0  0  0  0
  162.2380  205.8140  146.5780 C   0  0  0  0  0  3  0  0  0  0  0  0
  161.1330  204.7360  153.7830 N   0  0  0  0  0  1  0  0  0  0  0  0
  161.0640  204.8780  148.9620 C   0  0  0  0  0  0  0  0  0  0  0  0
  161.1400  206.3810  148.7200 C   0  0  0  0  0  0  0  0  0  0  0  0
  162.0360  206.7050  147.5560 C   0  0  0  0  0  3  0  0  0  0  0  0
  161.7670  208.9070  151.7360 C   0  0  0  0  0  0  0  0  0  0  0  0
  160.8060  203.0290  150.6820 C   0  0  0  0  0  3  0  0  0  0  0  0
  161.7440  208.8360  150.0550 S   0  0  0  0  0  0  0  0  0  0  0  0
  161.3300  206.6660  151.2600 C   0  0  0  0  0  0  0  0  0  0  0  0
  160.8250  203.0310  151.9790 N   0  0  0  0  0  0  0  0  0  0  0  0
  161.6790  204.4390  146.6510 C   0  0  0  0  0  0  0  0  0  0  0  0
  161.5080  207.6400  152.2600 C   0  0  0  0  0  0  0  0  0  0  0  0
  161.4570  207.1800  149.9680 C   0  0  0  0  0  0  0  0  0  0  0  0
  161.0290  205.2260  151.3880 C   0  0  0  0  0  0  0  0  0  0  0  0
  161.9710  210.1180  152.4720 N   0  0  0  0  0  2  0  0  0  0  0  0
  161.1580  210.5300  153.6080 C   0  0  1  0  0  3  0  0  0  0  0  0
  161.3530  211.4690  155.8170 O   0  0  0  0  0  1  0  0  0  0  0  0
  162.0360  210.7390  154.8410 C   0  0  0  0  0  2  0  0  0  0  0  0
  160.3960  211.7960  153.2550 C   0  0  0  0  0  2  0  0  0  0  0  0
  158.9920  211.4670  152.8630 C   0  0  0  0  0  3  0  0  0  0  0  0
  157.9700  211.5940  153.7040 C   0  0  0  0  0  3  0  0  0  0  0  0
  158.1550  212.0560  155.0400 N   0  0  0  0  0  1  0  0  0  0  0  0
  161.7690  203.5530  145.5340 N   0  0  0  0  0  2  0  0  0  0  0  0
  160.5960  203.0270  144.8550 C   0  0  0  0  0  2  0  0  0  0  0  0
  160.3440  201.6060  145.3100 C   0  0  0  0  0  1  0  0  0  0  0  0
  1 11  1  0  0  0  0
  1 18  1  0  0  0  0
  3  6  1  0  0  0  0
  4  7  1  0  0  0  0
  5 15  2  0  0  0  0
  5  9  1  0  0  0  0
  7  1  2  0  0  0  0
  8  7  1  0  0  0  0
  8 17  1  0  0  0  0
  9  8  2  0  0  0  0
 10 16  2  0  0  0  0
 10 19  1  0  0  0  0
 11 14  2  0  0  0  0
 12 10  1  0  0  0  0
 13 18  1  0  0  0  0
 13 16  1  0  0  0  0
 14  3  1  0  0  0  0
 15  4  1  0  0  0  0
 16  2  1  0  0  0  0
 17 12  1  0  0  0  0
 17 13  2  0  0  0  0
 18  3  2  0  0  0  0
 19 20  1  0  0  0  0
 20 23  1  6  0  0  0
 20 22  1  0  0  0  0
 22 21  1  0  0  0  0
 24 23  1  0  0  0  0
 24 25  2  0  0  0  0
 25 26  1  0  0  0  0
 27 15  1  0  0  0  0
 28 29  1  0  0  0  0
 28 27  1  0  0  0  0
M  END
>  <MODEL>
3

>  <REMARK>
 VINA RESULT:      -8.3      3.267      3.967
  Name = 
  7 active torsions:
  status: ('A' for Active; 'I' for Inactive)
    1  A    between atoms: C_1  and  C_15
    2  A    between atoms: N_5  and  C_17
    3  A    between atoms: N_5  and  CA_23
    4  A    between atoms: C_9  and  N_13
    5  A    between atoms: N_13  and  C_25
    6  A    between atoms: C_15  and  CA_23
    7  A    between atoms: CA_23  and  C_27
                            x       y       z     vdW  Elec       q    Type
                         _______ _______ _______ _____ _____    ______ ____

>  <TORSDO>
F 7

$$$$
=
 OpenBabel11052409553D

 29 32  0  0  1  0  0  0  0  0999 V2000
  161.6320  205.9000  149.0370 C   0  0  0  0  0  0  0  0  0  0  0  0
  161.6130  209.7200  151.5270 O   0  0  0  0  0  1  0  0  0  0  0  0
  161.7030  208.0830  148.7070 C   0  0  0  0  0  0  0  0  0  0  0  0
  161.2280  203.4760  148.9930 C   0  0  0  0  0  3  0  0  0  0  0  0
  160.2610  202.5990  151.0660 C   0  0  0  0  0  3  0  0  0  0  0  0
  161.6460  209.4950  148.8680 N   0  0  0  0  0  1  0  0  0  0  0  0
  161.4680  204.7460  149.6970 C   0  0  2  0  0  3  0  0  0  0  0  0
  161.5210  204.7220  151.2210 C   0  0  0  0  0  0  0  0  0  0  0  0
  160.5990  203.6760  151.7860 C   0  0  0  0  0  3  0  0  0  0  0  0
  161.3020  208.0930  153.3300 C   0  0  0  0  0  0  0  0  0  0  0  0
  161.6410  206.1730  147.6050 C   0  0  0  0  0  3  0  0  0  0  0  0
  161.2270  206.4210  153.5010 S   0  0  0  0  0  0  0  0  0  0  0  0
  161.4970  207.2830  151.1520 C   0  0  0  0  0  0  0  0  0  0  0  0
  161.6930  207.4560  147.4220 N   0  0  0  0  0  0  0  0  0  0  0  0
  160.6900  202.4430  149.6520 C   0  0  0  0  0  0  0  0  0  0  0  0
  161.4660  208.4180  151.9830 C   0  0  0  0  0  0  0  0  0  0  0  0
  161.3500  206.0860  151.8560 C   0  0  0  0  0  0  0  0  0  0  0  0
  161.6660  207.1900  149.6880 C   0  0  0  0  0  0  0  0  0  0  0  0
  161.2530  209.0020  154.4350 N   0  0  0  0  0  2  0  0  0  0  0  0
  160.1580  209.0660  155.3930 C   0  0  1  0  0  3  0  0  0  0  0  0
  160.0140  207.2330  156.9480 O   0  0  0  0  0  1  0  0  0  0  0  0
  160.5940  208.4860  156.7380 C   0  0  0  0  0  2  0  0  0  0  0  0
  159.6940  210.5060  155.5400 C   0  0  0  0  0  2  0  0  0  0  0  0
  160.4980  211.4050  154.6580 C   0  0  0  0  0  3  0  0  0  0  0  0
  159.9650  212.0470  153.6220 C   0  0  0  0  0  3  0  0  0  0  0  0
  158.5850  211.9140  153.2910 N   0  0  0  0  0  1  0  0  0  0  0  0
  160.4560  201.2230  148.9480 N   0  0  0  0  0  2  0  0  0  0  0  0
  161.3560  200.7260  147.9200 C   0  0  0  0  0  2  0  0  0  0  0  0
  160.8530  201.1530  146.5580 C   0  0  0  0  0  1  0  0  0  0  0  0
  1 18  1  0  0  0  0
  1  7  1  0  0  0  0
  2 16  1  0  0  0  0
  3  6  1  0  0  0  0
  3 18  1  0  0  0  0
  4 15  2  0  0  0  0
  5  9  2  0  0  0  0
  7  4  1  1  0  0  0
  7  8  1  0  0  0  0
  8  9  1  0  0  0  0
  8 17  2  0  0  0  0
 10 12  1  0  0  0  0
 10 19  1  0  0  0  0
 11  1  2  0  0  0  0
 13 17  1  0  0  0  0
 13 16  1  0  0  0  0
 14 11  1  0  0  0  0
 14  3  2  0  0  0  0
 15  5  1  0  0  0  0
 16 10  2  0  0  0  0
 17 12  1  0  0  0  0
 18 13  2  0  0  0  0
 19 20  1  0  0  0  0
 20 23  1  1  0  0  0
 20 22  1  0  0  0  0
 22 21  1  0  0  0  0
 24 23  1  0  0  0  0
 25 24  2  0  0  0  0
 26 25  1  0  0  0  0
 27 15  1  0  0  0  0
 28 27  1  0  0  0  0
 29 28  1  0  0  0  0
M  END
>  <MODEL>
4

>  <REMARK>
 VINA RESULT:      -8.1      2.925      5.109
  Name = 
  7 active torsions:
  status: ('A' for Active; 'I' for Inactive)
    1  A    between atoms: C_1  and  C_15
    2  A    between atoms: N_5  and  C_17
    3  A    between atoms: N_5  and  CA_23
    4  A    between atoms: C_9  and  N_13
    5  A    between atoms: N_13  and  C_25
    6  A    between atoms: C_15  and  CA_23
    7  A    between atoms: CA_23  and  C_27
                            x       y       z     vdW  Elec       q    Type
                         _______ _______ _______ _____ _____    ______ ____

>  <TORSDO>
F 7

$$$$
=
 OpenBabel11052409553D

 29 32  0  0  1  0  0  0  0  0999 V2000
  160.9620  204.5850  150.3190 C   0  0  0  0  0  0  0  0  0  0  0  0
  161.3690  207.7150  153.6110 O   0  0  0  0  0  1  0  0  0  0  0  0
  161.0060  204.6600  152.5270 C   0  0  0  0  0  0  0  0  0  0  0  0
  161.2110  204.0770  147.9280 C   0  0  0  0  0  2  0  0  0  0  0  0
  162.2460  205.8840  146.6380 C   0  0  0  0  0  3  0  0  0  0  0  0
  161.1610  205.0690  153.8810 N   0  0  0  0  0  1  0  0  0  0  0  0
  161.0940  205.0140  149.0570 C   0  0  0  0  0  0  0  0  0  0  0  0
  161.1310  206.5080  148.7550 C   0  0  0  0  0  0  0  0  0  0  0  0
  162.0200  206.8080  147.5790 C   0  0  0  0  0  3  0  0  0  0  0  0
  161.6870  209.1690  151.6660 C   0  0  0  0  0  0  0  0  0  0  0  0
  160.8830  203.2300  150.8510 C   0  0  0  0  0  3  0  0  0  0  0  0
  161.6680  209.0300  149.9900 S   0  0  0  0  0  0  0  0  0  0  0  0
  161.3110  206.9000  151.2810 C   0  0  0  0  0  0  0  0  0  0  0  0
  160.9000  203.2850  152.1470 N   0  0  0  0  0  0  0  0  0  0  0  0
  161.7240  204.4990  146.7660 C   0  0  0  0  0  0  0  0  0  0  0  0
  161.4620  207.9170  152.2410 C   0  0  0  0  0  0  0  0  0  0  0  0
  161.4250  207.3640  149.9700 C   0  0  0  0  0  0  0  0  0  0  0  0
  161.0470  205.4590  151.4680 C   0  0  0  0  0  0  0  0  0  0  0  0
  161.8590  210.4130  152.3530 N   0  0  0  0  0  2  0  0  0  0  0  0
  160.7630  211.2960  152.7310 C   0  0  1  0  0  3  0  0  0  0  0  0
  159.0440  212.6350  151.7070 O   0  0  0  0  0  1  0  0  0  0  0  0
  160.3500  212.1670  151.5460 C   0  0  0  0  0  2  0  0  0  0  0  0
  159.5940  210.4660  153.2370 C   0  0  0  0  0  2  0  0  0  0  0  0
  159.4330  210.6380  154.7120 C   0  0  0  0  0  3  0  0  0  0  0  0
  158.3190  211.1190  155.2560 C   0  0  0  0  0  3  0  0  0  0  0  0
  157.2030  211.5010  154.4560 N   0  0  0  0  0  1  0  0  0  0  0  0
  161.8380  203.5710  145.6850 N   0  0  0  0  0  2  0  0  0  0  0  0
  160.6810  203.0150  145.0040 C   0  0  0  0  0  2  0  0  0  0  0  0
  160.4350  201.6050  145.4960 C   0  0  0  0  0  1  0  0  0  0  0  0
  1 11  1  0  0  0  0
  1 18  1  0  0  0  0
  3  6  1  0  0  0  0
  4  7  1  0  0  0  0
  5 15  2  0  0  0  0
  5  9  1  0  0  0  0
  7  1  2  0  0  0  0
  8  7  1  0  0  0  0
  8 17  1  0  0  0  0
  9  8  2  0  0  0  0
 10 16  2  0  0  0  0
 10 19  1  0  0  0  0
 11 14  2  0  0  0  0
 12 10  1  0  0  0  0
 13 18  1  0  0  0  0
 13 16  1  0  0  0  0
 14  3  1  0  0  0  0
 15  4  1  0  0  0  0
 16  2  1  0  0  0  0
 17 12  1  0  0  0  0
 17 13  2  0  0  0  0
 18  3  2  0  0  0  0
 19 20  1  0  0  0  0
 20 22  1  6  0  0  0
 20 23  1  0  0  0  0
 22 21  1  0  0  0  0
 23 24  1  0  0  0  0
 24 25  2  0  0  0  0
 26 25  1  0  0  0  0
 27 15  1  0  0  0  0
 28 29  1  0  0  0  0
 28 27  1  0  0  0  0
M  END
>  <MODEL>
5

>  <REMARK>
 VINA RESULT:      -8.0      2.689      3.882
  Name = 
  7 active torsions:
  status: ('A' for Active; 'I' for Inactive)
    1  A    between atoms: C_1  and  C_15
    2  A    between atoms: N_5  and  C_17
    3  A    between atoms: N_5  and  CA_23
    4  A    between atoms: C_9  and  N_13
    5  A    between atoms: N_13  and  C_25
    6  A    between atoms: C_15  and  CA_23
    7  A    between atoms: CA_23  and  C_27
                            x       y       z     vdW  Elec       q    Type
                         _______ _______ _______ _____ _____    ______ ____

>  <TORSDO>
F 7

$$$$
=
 OpenBabel11052409553D

 29 32  0  0  1  0  0  0  0  0999 V2000
  161.3320  207.0140  152.9260 C   0  0  0  0  0  0  0  0  0  0  0  0
  161.5430  204.3790  149.2100 O   0  0  0  0  0  1  0  0  0  0  0  0
  161.1050  204.8800  152.4030 C   0  0  0  0  0  0  0  0  0  0  0  0
  161.1720  209.3000  153.8150 C   0  0  0  0  0  3  0  0  0  0  0  0
  160.8310  211.0070  152.0920 C   0  0  0  0  0  3  0  0  0  0  0  0
  160.9490  203.6490  151.7070 N   0  0  0  0  0  1  0  0  0  0  0  0
  161.4490  208.3350  152.7380 C   0  0  0  0  0  0  0  0  0  0  0  0
  161.8750  208.8810  151.3800 C   0  0  2  0  0  3  0  0  0  0  0  0
  161.2260  210.2080  151.0940 C   0  0  0  0  0  3  0  0  0  0  0  0
  161.8440  206.5620  148.1420 C   0  0  0  0  0  0  0  0  0  0  0  0
  160.9650  206.2610  154.1190 C   0  0  0  0  0  3  0  0  0  0  0  0
  161.9790  208.1710  148.6120 S   0  0  0  0  0  0  0  0  0  0  0  0
  161.5810  206.5080  150.4590 C   0  0  0  0  0  0  0  0  0  0  0  0
  160.8430  205.0080  153.8040 N   0  0  0  0  0  0  0  0  0  0  0  0
  160.9160  210.5770  153.5120 C   0  0  0  0  0  0  0  0  0  0  0  0
  161.6420  205.7620  149.2680 C   0  0  0  0  0  0  0  0  0  0  0  0
  161.7300  207.8810  150.2520 C   0  0  0  0  0  0  0  0  0  0  0  0
  161.3970  206.0500  151.8510 C   0  0  0  0  0  0  0  0  0  0  0  0
  161.9760  206.1220  146.7860 N   0  0  0  0  0  2  0  0  0  0  0  0
  161.0580  205.1980  146.1340 C   0  0  1  0  0  3  0  0  0  0  0  0
  161.3470  205.7670  143.8110 O   0  0  0  0  0  1  0  0  0  0  0  0
  160.4560  205.8410  144.8850 C   0  0  0  0  0  2  0  0  0  0  0  0
  161.7890  203.9110  145.7900 C   0  0  0  0  0  2  0  0  0  0  0  0
  160.8310  202.8930  145.2610 C   0  0  0  0  0  3  0  0  0  0  0  0
  160.4560  201.8330  145.9710 C   0  0  0  0  0  3  0  0  0  0  0  0
  160.9490  201.6040  147.2880 N   0  0  0  0  0  1  0  0  0  0  0  0
  160.6390  211.4950  154.5710 N   0  0  0  0  0  2  0  0  0  0  0  0
  159.5010  212.3990  154.5470 C   0  0  0  0  0  2  0  0  0  0  0  0
  158.2240  211.6080  154.7260 C   0  0  0  0  0  1  0  0  0  0  0  0
  1 11  1  0  0  0  0
  2 16  1  0  0  0  0
  3 14  1  0  0  0  0
  5 15  1  0  0  0  0
  6  3  1  0  0  0  0
  7  1  2  0  0  0  0
  7  4  1  0  0  0  0
  8  9  1  6  0  0  0
  8  7  1  0  0  0  0
  9  5  2  0  0  0  0
 10 12  1  0  0  0  0
 10 16  2  0  0  0  0
 12 17  1  0  0  0  0
 13 18  1  0  0  0  0
 14 11  2  0  0  0  0
 15  4  2  0  0  0  0
 15 27  1  0  0  0  0
 16 13  1  0  0  0  0
 17 13  2  0  0  0  0
 17  8  1  0  0  0  0
 18  3  2  0  0  0  0
 18  1  1  0  0  0  0
 19 10  1  0  0  0  0
 20 22  1  6  0  0  0
 20 19  1  0  0  0  0
 21 22  1  0  0  0  0
 23 20  1  0  0  0  0
 24 23  1  0  0  0  0
 24 25  2  0  0  0  0
 25 26  1  0  0  0  0
 28 27  1  0  0  0  0
 28 29  1  0  0  0  0
M  END
>  <MODEL>
6

>  <REMARK>
 VINA RESULT:      -7.7      3.365      7.647
  Name = 
  7 active torsions:
  status: ('A' for Active; 'I' for Inactive)
    1  A    between atoms: C_1  and  C_15
    2  A    between atoms: N_5  and  C_17
    3  A    between atoms: N_5  and  CA_23
    4  A    between atoms: C_9  and  N_13
    5  A    between atoms: N_13  and  C_25
    6  A    between atoms: C_15  and  CA_23
    7  A    between atoms: CA_23  and  C_27
                            x       y       z     vdW  Elec       q    Type
                         _______ _______ _______ _____ _____    ______ ____

>  <TORSDO>
F 7

$$$$
=
 OpenBabel11052409553D

 29 32  0  0  1  0  0  0  0  0999 V2000
  160.9330  204.4340  149.7060 C   0  0  0  0  0  0  0  0  0  0  0  0
  160.8550  205.7570  154.0690 O   0  0  0  0  0  1  0  0  0  0  0  0
  160.8080  203.5080  151.7070 C   0  0  0  0  0  0  0  0  0  0  0  0
  161.3960  205.0680  147.3770 C   0  0  0  0  0  3  0  0  0  0  0  0
  162.3830  207.2970  147.1380 C   0  0  0  0  0  3  0  0  0  0  0  0
  160.8300  203.2680  153.1090 N   0  0  0  0  0  1  0  0  0  0  0  0
  161.1240  205.3900  148.7870 C   0  0  0  0  0  0  0  0  0  0  0  0
  161.0700  206.8600  149.1880 C   0  0  0  0  0  0  0  0  0  0  0  0
  162.0180  207.6890  148.3640 C   0  0  0  0  0  2  0  0  0  0  0  0
  161.2050  207.9420  153.0190 C   0  0  0  0  0  0  0  0  0  0  0  0
  160.9180  202.9830  149.5670 C   0  0  0  0  0  3  0  0  0  0  0  0
  161.3210  208.5720  151.4640 S   0  0  0  0  0  0  0  0  0  0  0  0
  161.0320  206.0780  151.6270 C   0  0  0  0  0  0  0  0  0  0  0  0
  160.8350  202.4490  150.7460 N   0  0  0  0  0  0  0  0  0  0  0  0
  161.9590  205.9850  146.5820 C   0  0  0  0  0  0  0  0  0  0  0  0
  161.0340  206.5580  152.9500 C   0  0  0  0  0  0  0  0  0  0  0  0
  161.2070  207.0870  150.6790 C   0  0  0  0  0  0  0  0  0  0  0  0
  160.8660  204.6990  151.1250 C   0  0  0  0  0  0  0  0  0  0  0  0
  161.2300  208.7480  154.2020 N   0  0  0  0  0  2  0  0  0  0  0  0
  160.0390  209.2210  154.8930 C   0  0  1  0  0  3  0  0  0  0  0  0
  159.7160  207.4650  156.5110 O   0  0  0  0  0  1  0  0  0  0  0  0
  160.0780  208.8070  156.3630 C   0  0  0  0  0  2  0  0  0  0  0  0
  159.9330  210.7300  154.7510 C   0  0  0  0  0  2  0  0  0  0  0  0
  158.7300  211.0940  153.9430 C   0  0  0  0  0  3  0  0  0  0  0  0
  158.8220  211.7020  152.7640 C   0  0  0  0  0  3  0  0  0  0  0  0
  160.0840  212.0450  152.1970 N   0  0  0  0  0  1  0  0  0  0  0  0
  162.2240  205.6490  145.2200 N   0  0  0  0  0  2  0  0  0  0  0  0
  161.1670  205.4590  144.2400 C   0  0  0  0  0  2  0  0  0  0  0  0
  160.4560  204.1510  144.5110 C   0  0  0  0  0  1  0  0  0  0  0  0
  1 18  1  0  0  0  0
  3  6  1  0  0  0  0
  4  7  2  0  0  0  0
  5  9  1  0  0  0  0
  7  8  1  0  0  0  0
  7  1  1  0  0  0  0
  8 17  2  0  0  0  0
  9  8  1  0  0  0  0
 10 19  1  0  0  0  0
 11  1  2  0  0  0  0
 11 14  1  0  0  0  0
 12 10  1  0  0  0  0
 13 16  1  0  0  0  0
 14  3  2  0  0  0  0
 15  5  2  0  0  0  0
 15  4  1  0  0  0  0
 16 10  2  0  0  0  0
 16  2  1  0  0  0  0
 17 12  1  0  0  0  0
 17 13  1  0  0  0  0
 18 13  2  0  0  0  0
 18  3  1  0  0  0  0
 19 20  1  0  0  0  0
 20 23  1  1  0  0  0
 20 22  1  0  0  0  0
 22 21  1  0  0  0  0
 24 23  1  0  0  0  0
 25 24  2  0  0  0  0
 26 25  1  0  0  0  0
 27 15  1  0  0  0  0
 28 29  1  0  0  0  0
 28 27  1  0  0  0  0
M  END
>  <MODEL>
7

>  <REMARK>
 VINA RESULT:      -7.5      3.527      4.769
  Name = 
  7 active torsions:
  status: ('A' for Active; 'I' for Inactive)
    1  A    between atoms: C_1  and  C_15
    2  A    between atoms: N_5  and  C_17
    3  A    between atoms: N_5  and  CA_23
    4  A    between atoms: C_9  and  N_13
    5  A    between atoms: N_13  and  C_25
    6  A    between atoms: C_15  and  CA_23
    7  A    between atoms: CA_23  and  C_27
                            x       y       z     vdW  Elec       q    Type
                         _______ _______ _______ _____ _____    ______ ____

>  <TORSDO>
F 7

$$$$
=
 OpenBabel11052409553D

 29 32  0  0  1  0  0  0  0  0999 V2000
  161.4590  206.5740  152.6010 C   0  0  0  0  0  0  0  0  0  0  0  0
  161.4810  203.9210  148.8920 O   0  0  0  0  0  1  0  0  0  0  0  0
  161.0810  204.4600  152.0840 C   0  0  0  0  0  0  0  0  0  0  0  0
  161.4620  208.8680  153.4840 C   0  0  0  0  0  3  0  0  0  0  0  0
  161.2410  210.5910  151.7570 C   0  0  0  0  0  3  0  0  0  0  0  0
  160.8390  203.2420  151.3910 N   0  0  0  0  0  1  0  0  0  0  0  0
  161.6690  207.8830  152.4100 C   0  0  0  0  0  0  0  0  0  0  0  0
  162.1320  208.3950  151.0500 C   0  0  2  0  0  3  0  0  0  0  0  0
  161.5780  209.7630  150.7600 C   0  0  0  0  0  3  0  0  0  0  0  0
  161.9340  206.0750  147.8180 C   0  0  0  0  0  0  0  0  0  0  0  0
  161.0410  205.8520  153.7960 C   0  0  0  0  0  3  0  0  0  0  0  0
  162.1830  207.6720  148.2840 S   0  0  0  0  0  0  0  0  0  0  0  0
  161.6700  206.0460  150.1350 C   0  0  0  0  0  0  0  0  0  0  0  0
  160.8310  204.6100  153.4840 N   0  0  0  0  0  0  0  0  0  0  0  0
  161.2960  210.1600  153.1780 C   0  0  0  0  0  0  0  0  0  0  0  0
  161.6770  205.2940  148.9460 C   0  0  0  0  0  0  0  0  0  0  0  0
  161.9150  207.4040  149.9240 C   0  0  0  0  0  0  0  0  0  0  0  0
  161.4550  205.6060  151.5280 C   0  0  0  0  0  0  0  0  0  0  0  0
  162.0350  205.6230  146.4630 N   0  0  0  0  0  2  0  0  0  0  0  0
  160.9530  204.9700  145.7380 C   0  0  1  0  0  3  0  0  0  0  0  0
  161.4870  205.8250  143.5510 O   0  0  0  0  0  1  0  0  0  0  0  0
  160.5140  205.8280  144.5530 C   0  0  0  0  0  2  0  0  0  0  0  0
  161.4070  203.5930  145.2810 C   0  0  0  0  0  2  0  0  0  0  0  0
  161.2070  202.5900  146.3700 C   0  0  0  0  0  3  0  0  0  0  0  0
  160.5860  201.4320  146.1660 C   0  0  0  0  0  3  0  0  0  0  0  0
  160.0710  201.0770  144.8850 N   0  0  0  0  0  1  0  0  0  0  0  0
  161.0850  211.0970  154.2350 N   0  0  0  0  0  2  0  0  0  0  0  0
  160.9270  210.6920  155.6220 C   0  0  0  0  0  2  0  0  0  0  0  0
  162.2680  210.7570  156.3220 C   0  0  0  0  0  1  0  0  0  0  0  0
  1 11  1  0  0  0  0
  2 16  1  0  0  0  0
  3 14  1  0  0  0  0
  5 15  1  0  0  0  0
  6  3  1  0  0  0  0
  7  1  2  0  0  0  0
  7  4  1  0  0  0  0
  8  9  1  6  0  0  0
  8  7  1  0  0  0  0
  9  5  2  0  0  0  0
 10 12  1  0  0  0  0
 10 16  2  0  0  0  0
 12 17  1  0  0  0  0
 13 18  1  0  0  0  0
 14 11  2  0  0  0  0
 15  4  2  0  0  0  0
 15 27  1  0  0  0  0
 16 13  1  0  0  0  0
 17 13  2  0  0  0  0
 17  8  1  0  0  0  0
 18  3  2  0  0  0  0
 18  1  1  0  0  0  0
 19 10  1  0  0  0  0
 20 22  1  6  0  0  0
 20 19  1  0  0  0  0
 21 22  1  0  0  0  0
 23 20  1  0  0  0  0
 23 24  1  0  0  0  0
 25 24  2  0  0  0  0
 26 25  1  0  0  0  0
 27 28  1  0  0  0  0
 28 29  1  0  0  0  0
M  END
>  <MODEL>
8

>  <REMARK>
 VINA RESULT:      -7.2      3.453      7.645
  Name = 
  7 active torsions:
  status: ('A' for Active; 'I' for Inactive)
    1  A    between atoms: C_1  and  C_15
    2  A    between atoms: N_5  and  C_17
    3  A    between atoms: N_5  and  CA_23
    4  A    between atoms: C_9  and  N_13
    5  A    between atoms: N_13  and  C_25
    6  A    between atoms: C_15  and  CA_23
    7  A    between atoms: CA_23  and  C_27
                            x       y       z     vdW  Elec       q    Type
                         _______ _______ _______ _____ _____    ______ ____

>  <TORSDO>
F 7

$$$$
=
 OpenBabel11052409553D

 29 32  0  0  1  0  0  0  0  0999 V2000
  161.2770  208.7910  151.5130 C   0  0  0  0  0  0  0  0  0  0  0  0
  162.2210  207.2880  147.3120 O   0  0  0  0  0  1  0  0  0  0  0  0
  161.9610  209.6160  149.5820 C   0  0  0  0  0  0  0  0  0  0  0  0
  160.8730  208.1960  153.8630 C   0  0  0  0  0  3  0  0  0  0  0  0
  161.2330  205.8240  154.3570 C   0  0  0  0  0  3  0  0  0  0  0  0
  162.4530  209.7730  148.2560 N   0  0  0  0  0  1  0  0  0  0  0  0
  160.9720  207.8650  152.4330 C   0  0  0  0  0  0  0  0  0  0  0  0
  160.7210  206.4210  152.0130 C   0  0  2  0  0  3  0  0  0  0  0  0
  161.1750  205.4540  153.0720 C   0  0  0  0  0  3  0  0  0  0  0  0
  161.7560  205.1370  148.3870 C   0  0  0  0  0  0  0  0  0  0  0  0
  161.5380  210.2170  151.6630 C   0  0  0  0  0  3  0  0  0  0  0  0
  161.2610  204.5780  149.8950 S   0  0  0  0  0  0  0  0  0  0  0  0
  161.5850  207.0650  149.6880 C   0  0  0  0  0  0  0  0  0  0  0  0
  161.9290  210.6940  150.5220 N   0  0  0  0  0  0  0  0  0  0  0  0
  160.9590  207.2230  154.7770 C   0  0  0  0  0  0  0  0  0  0  0  0
  161.8770  206.5270  148.4210 C   0  0  0  0  0  0  0  0  0  0  0  0
  161.2450  206.0930  150.6290 C   0  0  0  0  0  0  0  0  0  0  0  0
  161.5810  208.4720  150.1360 C   0  0  0  0  0  0  0  0  0  0  0  0
  161.9570  204.2830  147.2560 N   0  0  0  0  0  2  0  0  0  0  0  0
  160.9040  203.8990  146.3240 C   0  0  1  0  0  3  0  0  0  0  0  0
  160.6310  205.8070  144.8800 O   0  0  0  0  0  1  0  0  0  0  0  0
  161.1600  204.5160  144.9500 C   0  0  0  0  0  2  0  0  0  0  0  0
  160.8270  202.3840  146.2400 C   0  0  0  0  0  2  0  0  0  0  0  0
  160.8520  201.7840  147.6090 C   0  0  0  0  0  3  0  0  0  0  0  0
  161.2030  200.5200  147.8260 C   0  0  0  0  0  3  0  0  0  0  0  0
  161.5800  199.6560  146.7570 N   0  0  0  0  0  1  0  0  0  0  0  0
  160.8710  207.5660  156.1610 N   0  0  0  0  0  2  0  0  0  0  0  0
  161.4920  208.7590  156.7140 C   0  0  0  0  0  2  0  0  0  0  0  0
  160.4200  209.6880  157.2420 C   0  0  0  0  0  1  0  0  0  0  0  0
  1 11  1  0  0  0  0
  1  7  2  0  0  0  0
  2 16  1  0  0  0  0
  3 18  2  0  0  0  0
  3 14  1  0  0  0  0
  4 15  2  0  0  0  0
  5 15  1  0  0  0  0
  6  3  1  0  0  0  0
  7  4  1  0  0  0  0
  8  7  1  0  0  0  0
  8  9  1  1  0  0  0
  9  5  2  0  0  0  0
 10 16  2  0  0  0  0
 10 12  1  0  0  0  0
 12 17  1  0  0  0  0
 13 18  1  0  0  0  0
 13 17  2  0  0  0  0
 14 11  2  0  0  0  0
 15 27  1  0  0  0  0
 16 13  1  0  0  0  0
 17  8  1  0  0  0  0
 18  1  1  0  0  0  0
 19 10  1  0  0  0  0
 20 22  1  6  0  0  0
 20 19  1  0  0  0  0
 21 22  1  0  0  0  0
 23 20  1  0  0  0  0
 23 24  1  0  0  0  0
 24 25  2  0  0  0  0
 26 25  1  0  0  0  0
 27 28  1  0  0  0  0
 28 29  1  0  0  0  0
M  END
>  <MODEL>
9

>  <REMARK>
 VINA RESULT:      -7.1      2.895      8.055
  Name = 
  7 active torsions:
  status: ('A' for Active; 'I' for Inactive)
    1  A    between atoms: C_1  and  C_15
    2  A    between atoms: N_5  and  C_17
    3  A    between atoms: N_5  and  CA_23
    4  A    between atoms: C_9  and  N_13
    5  A    between atoms: N_13  and  C_25
    6  A    between atoms: C_15  and  CA_23
    7  A    between atoms: CA_23  and  C_27
                            x       y       z     vdW  Elec       q    Type
                         _______ _______ _______ _____ _____    ______ ____

>  <TORSDO>
F 7

$$$$
