=
 OpenBabel11042421273D

 53 60  0  0  1  0  0  0  0  0999 V2000
  161.5940  206.8750  148.7420 C   0  0  0  0  0  0  0  0  0  0  0  0
  161.6990  208.0850  148.2650 N   0  0  0  0  0  0  0  0  0  0  0  0
  162.1030  210.0460  151.2400 C   0  0  0  0  0  3  0  0  0  0  0  0
  161.6130  208.8800  151.6840 C   0  0  0  0  0  0  0  0  0  0  0  0
  161.3770  206.8350  150.2150 C   0  0  0  0  0  3  0  0  0  0  0  0
  161.4480  208.8940  149.3960 C   0  0  0  0  0  0  0  0  0  0  0  0
  161.2070  208.1060  150.5280 C   0  0  0  0  0  0  0  0  0  0  0  0
  162.0270  210.0280  149.7610 C   0  0  0  0  0  0  0  0  0  0  0  0
  161.8190  203.6430  147.2240 O   0  0  0  0  0  0  0  0  0  0  0  0
  162.3780  204.3450  146.2810 N   0  0  0  0  0  0  0  0  0  0  0  0
  161.7950  205.6820  147.9150 C   0  0  0  0  0  0  0  0  0  0  0  0
  161.4440  204.3890  148.2380 C   0  0  0  0  0  3  0  0  0  0  0  0
  162.3880  205.6320  146.6710 C   0  0  0  0  0  3  0  0  0  0  0  0
  161.5500  208.4380  153.1060 C   0  0  0  0  0  2  0  0  0  0  0  0
  161.5550  209.8640  154.2500 S   0  0  0  0  0  0  0  0  0  0  0  0
  160.1020  209.3690  155.2500 C   0  0  1  0  0  3  0  0  0  0  0  0
  159.9950  207.1160  155.9380 O   0  0  0  0  0  0  0  0  0  0  0  0
  160.4240  208.2340  156.1650 C   0  0  0  0  0  3  0  0  0  0  0  0
  159.5710  210.4940  156.0040 N   0  0  0  0  0  2  0  0  0  0  0  0
  160.3280  212.6900  156.0540 O   0  0  0  0  0  1  0  0  0  0  0  0
  159.8200  211.6940  155.2190 C   0  0  2  0  0  3  0  0  0  0  0  0
  158.5290  212.1780  154.5660 C   0  0  2  0  0  3  0  0  0  0  0  0
  158.7820  213.3240  153.8090 O   0  0  0  0  0  1  0  0  0  0  0  0
  157.5460  212.4880  155.5930 N   0  0  0  0  0  2  0  0  0  0  0  0
  155.8650  210.7620  155.3500 C   0  0  0  0  0  2  0  0  0  0  0  0
  155.2710  211.8890  156.1650 C   0  0  0  0  0  2  0  0  0  0  0  0
  156.2350  212.1980  155.0370 C   0  0  0  0  0  3  0  0  0  0  0  0
  162.7300  210.9740  148.8460 C   0  0  0  0  0  2  0  0  0  0  0  0
  161.7230  212.9730  145.5560 C   0  0  2  0  0  3  0  0  0  0  0  0
  161.7960  212.0910  148.4110 C   0  0  1  0  0  3  0  0  0  0  0  0
  162.6040  213.2400  147.8630 C   0  0  0  0  0  2  0  0  0  0  0  0
  160.6460  212.7780  146.6060 C   0  0  2  0  0  3  0  0  0  0  0  0
  161.7170  213.8310  146.8080 C   0  0  2  0  0  3  0  0  0  0  0  0
  160.9460  211.6460  147.3860 O   0  0  0  0  0  0  0  0  0  0  0  0
  160.6840  213.0940  143.2640 C   0  0  0  0  0  0  0  0  0  0  0  0
  160.0960  213.8900  142.2350 N   0  0  0  0  0  2  0  0  0  0  0  0
  160.7630  211.8420  143.1360 O   0  0  0  0  0  0  0  0  0  0  0  0
  161.1770  213.7300  144.4430 N   0  0  0  0  0  2  0  0  0  0  0  0
  159.1000  214.1410  138.7740 C   0  0  1  0  0  3  0  0  0  0  0  0
  157.8790  214.4530  139.6170 C   0  0  0  0  0  2  0  0  0  0  0  0
  159.5210  213.3130  141.0290 C   0  0  2  0  0  3  0  0  0  0  0  0
  160.1930  213.9110  139.8060 C   0  0  1  0  0  3  0  0  0  0  0  0
  158.0490  213.6870  140.9190 C   0  0  0  0  0  2  0  0  0  0  0  0
  161.3700  213.1210  139.3110 C   0  0  0  0  0  0  0  0  0  0  0  0
  163.5720  211.6140  138.4570 C   0  0  0  0  0  3  0  0  0  0  0  0
  162.2450  213.6360  138.3430 C   0  0  0  0  0  3  0  0  0  0  0  0
  163.3430  212.8830  137.9170 C   0  0  0  0  0  3  0  0  0  0  0  0
  162.7050  211.0990  139.4260 C   0  0  0  0  0  3  0  0  0  0  0  0
  161.6080  211.8530  139.8540 C   0  0  0  0  0  3  0  0  0  0  0  0
  158.8610  212.9570  138.0170 O   0  0  0  0  0  0  0  0  0  0  0  0
  157.9670  210.7910  138.8560 C   0  0  0  0  0  1  0  0  0  0  0  0
  156.5950  212.4990  137.9370 O   0  0  0  0  0  0  0  0  0  0  0  0
  157.7590  212.1290  138.2440 C   0  0  0  0  0  0  0  0  0  0  0  0
  1  5  1  0  0  0  0
  2  1  2  0  0  0  0
  2  6  1  0  0  0  0
  3  4  2  0  0  0  0
  4 14  1  0  0  0  0
  5  7  2  0  0  0  0
  6  8  2  0  0  0  0
  6  7  1  0  0  0  0
  7  4  1  0  0  0  0
  8  3  1  0  0  0  0
  9 12  1  0  0  0  0
 10 13  2  0  0  0  0
 10  9  1  0  0  0  0
 11 12  2  0  0  0  0
 11  1  1  0  0  0  0
 13 11  1  0  0  0  0
 14 15  1  0  0  0  0
 15 16  1  0  0  0  0
 16 19  1  0  0  0  0
 16 18  1  1  0  0  0
 17 18  2  0  0  0  0
 21 19  1  0  0  0  0
 21 20  1  1  0  0  0
 22 23  1  1  0  0  0
 22 21  1  0  0  0  0
 22 24  1  0  0  0  0
 25 26  1  0  0  0  0
 27 25  1  0  0  0  0
 27 24  1  0  0  0  0
 27 26  1  0  0  0  0
 28  8  1  0  0  0  0
 29 38  1  6  0  0  0
 29 32  1  0  0  0  0
 29 33  1  0  0  0  0
 30 28  1  6  0  0  0
 31 30  1  0  0  0  0
 32 33  1  0  0  0  0
 32 34  1  1  0  0  0
 33 31  1  1  0  0  0
 34 30  1  0  0  0  0
 35 38  1  0  0  0  0
 36 35  1  0  0  0  0
 37 35  2  0  0  0  0
 39 50  1  1  0  0  0
 39 40  1  0  0  0  0
 39 42  1  0  0  0  0
 40 43  1  0  0  0  0
 41 36  1  1  0  0  0
 42 44  1  6  0  0  0
 42 41  1  0  0  0  0
 43 41  1  0  0  0  0
 44 49  1  0  0  0  0
 45 48  1  0  0  0  0
 46 44  2  0  0  0  0
 47 46  1  0  0  0  0
 47 45  2  0  0  0  0
 48 49  2  0  0  0  0
 50 53  1  0  0  0  0
 52 53  2  0  0  0  0
 53 51  1  0  0  0  0
M  END
>  <MODEL>
1

>  <REMARK>
 VINA RESULT:      -6.3      0.000      0.000
  Name = 
  17 active torsions:
  status: ('A' for Active; 'I' for Inactive)
    1  A    between atoms: C_1  and  N_37
    2  A    between atoms: C_5  and  C_7
    3  A    between atoms: O_6  and  C_9
    4  A    between atoms: O_6  and  C_51
    5  A    between atoms: C_7  and  N_43
    6  A    between atoms: C_7  and  S_44
    7  A    between atoms: C_8  and  C_36
    8  A    between atoms: C_10  and  C_17
    9  A    between atoms: C_12  and  C_42
   10  A    between atoms: N_15  and  C_38
   11  A    between atoms: N_15  and  C_45
   12  A    between atoms: C_23  and  C_29
   13  A    between atoms: N_25  and  C_39
   14  A    between atoms: C_29  and  S_44
   15  A    between atoms: C_30  and  N_43
   16  A    between atoms: C_30  and  C_45
   17  A    between atoms: C_36  and  C_49
                            x       y       z     vdW  Elec       q    Type
                         _______ _______ _______ _____ _____    ______ ____

>  <TORSDO>
F 17

$$$$
=
 OpenBabel11042421273D

 53 60  0  0  1  0  0  0  0  0999 V2000
  161.5850  207.0980  148.6260 C   0  0  0  0  0  0  0  0  0  0  0  0
  161.6380  208.3530  148.2730 N   0  0  0  0  0  0  0  0  0  0  0  0
  162.0110  210.0180  151.4270 C   0  0  0  0  0  3  0  0  0  0  0  0
  161.5720  208.7950  151.7550 C   0  0  0  0  0  0  0  0  0  0  0  0
  161.3920  206.9010  150.0890 C   0  0  0  0  0  3  0  0  0  0  0  0
  161.3740  209.0330  149.4830 C   0  0  0  0  0  0  0  0  0  0  0  0
  161.1780  208.1260  150.5320 C   0  0  0  0  0  0  0  0  0  0  0  0
  161.9140  210.1460  149.9550 C   0  0  0  0  0  0  0  0  0  0  0  0
  161.8690  204.0540  146.7670 O   0  0  0  0  0  0  0  0  0  0  0  0
  162.4670  204.8530  145.9320 N   0  0  0  0  0  0  0  0  0  0  0  0
  161.8190  206.0030  147.6800 C   0  0  0  0  0  0  0  0  0  0  0  0
  161.4540  204.6850  147.8410 C   0  0  0  0  0  3  0  0  0  0  0  0
  162.4630  206.0890  146.4630 C   0  0  0  0  0  3  0  0  0  0  0  0
  161.5460  208.2100  153.1260 C   0  0  0  0  0  2  0  0  0  0  0  0
  161.4710  209.5110  154.4080 S   0  0  0  0  0  0  0  0  0  0  0  0
  160.1240  208.7780  155.4090 C   0  0  1  0  0  3  0  0  0  0  0  0
  160.0470  207.2250  157.1820 O   0  0  0  0  0  0  0  0  0  0  0  0
  160.5810  207.5570  156.1370 C   0  0  0  0  0  3  0  0  0  0  0  0
  159.5710  209.7470  156.3430 N   0  0  0  0  0  2  0  0  0  0  0  0
  160.6620  211.6440  157.1240 O   0  0  0  0  0  1  0  0  0  0  0  0
  160.1190  211.0480  155.9860 C   0  0  2  0  0  3  0  0  0  0  0  0
  159.0270  211.9420  155.4070 C   0  0  2  0  0  3  0  0  0  0  0  0
  159.6000  213.0760  154.8290 O   0  0  0  0  0  1  0  0  0  0  0  0
  158.1160  212.3510  156.4650 N   0  0  0  0  0  2  0  0  0  0  0  0
  155.7660  211.8780  156.1160 C   0  0  0  0  0  2  0  0  0  0  0  0
  155.8780  213.1720  156.8920 C   0  0  0  0  0  2  0  0  0  0  0  0
  156.9030  212.8380  155.8270 C   0  0  0  0  0  3  0  0  0  0  0  0
  162.5680  211.2070  149.1330 C   0  0  0  0  0  2  0  0  0  0  0  0
  161.9640  213.3760  145.8530 C   0  0  2  0  0  3  0  0  0  0  0  0
  161.5270  212.1410  148.5390 C   0  0  1  0  0  3  0  0  0  0  0  0
  162.1350  213.5040  148.3280 C   0  0  0  0  0  2  0  0  0  0  0  0
  160.7390  212.8040  146.5410 C   0  0  2  0  0  3  0  0  0  0  0  0
  161.4260  214.0280  147.1140 C   0  0  2  0  0  3  0  0  0  0  0  0
  161.1040  211.6680  147.2870 O   0  0  0  0  0  0  0  0  0  0  0  0
  161.7740  213.6840  143.3600 C   0  0  0  0  0  0  0  0  0  0  0  0
  161.2780  214.4500  142.2620 N   0  0  0  0  0  2  0  0  0  0  0  0
  162.4010  212.6080  143.1550 O   0  0  0  0  0  0  0  0  0  0  0  0
  161.5470  214.1430  144.6920 N   0  0  0  0  0  2  0  0  0  0  0  0
  161.6440  211.8580  139.7750 C   0  0  1  0  0  3  0  0  0  0  0  0
  163.0360  212.3480  140.1230 C   0  0  0  0  0  2  0  0  0  0  0  0
  161.4190  214.0220  140.8780 C   0  0  2  0  0  3  0  0  0  0  0  0
  160.7440  212.6760  140.6890 C   0  0  1  0  0  3  0  0  0  0  0  0
  162.8880  213.8010  140.5440 C   0  0  0  0  0  2  0  0  0  0  0  0
  159.3140  212.7690  140.2430 C   0  0  0  0  0  0  0  0  0  0  0  0
  156.6510  212.8760  139.3760 C   0  0  0  0  0  3  0  0  0  0  0  0
  158.7220  214.0020  139.9260 C   0  0  0  0  0  3  0  0  0  0  0  0
  157.3930  214.0550  139.4960 C   0  0  0  0  0  3  0  0  0  0  0  0
  157.2380  211.6450  139.6840 C   0  0  0  0  0  3  0  0  0  0  0  0
  158.5670  211.5920  140.1140 C   0  0  0  0  0  3  0  0  0  0  0  0
  161.3710  212.1450  138.4060 O   0  0  0  0  0  0  0  0  0  0  0  0
  162.1290  210.2280  137.0120 C   0  0  0  0  0  1  0  0  0  0  0  0
  159.8910  211.0260  137.0250 O   0  0  0  0  0  0  0  0  0  0  0  0
  161.0610  211.1510  137.4760 C   0  0  0  0  0  0  0  0  0  0  0  0
  1  5  1  0  0  0  0
  2  1  2  0  0  0  0
  2  6  1  0  0  0  0
  3  4  2  0  0  0  0
  4 14  1  0  0  0  0
  5  7  2  0  0  0  0
  6  8  2  0  0  0  0
  6  7  1  0  0  0  0
  7  4  1  0  0  0  0
  8  3  1  0  0  0  0
  9 12  1  0  0  0  0
 10 13  2  0  0  0  0
 10  9  1  0  0  0  0
 11 12  2  0  0  0  0
 11  1  1  0  0  0  0
 13 11  1  0  0  0  0
 14 15  1  0  0  0  0
 15 16  1  0  0  0  0
 16 18  1  1  0  0  0
 16 19  1  0  0  0  0
 18 17  2  0  0  0  0
 21 19  1  0  0  0  0
 21 20  1  1  0  0  0
 22 23  1  1  0  0  0
 22 21  1  0  0  0  0
 22 24  1  0  0  0  0
 25 26  1  0  0  0  0
 27 25  1  0  0  0  0
 27 24  1  0  0  0  0
 27 26  1  0  0  0  0
 28  8  1  0  0  0  0
 29 38  1  6  0  0  0
 29 32  1  0  0  0  0
 29 33  1  0  0  0  0
 30 28  1  6  0  0  0
 31 30  1  0  0  0  0
 32 33  1  0  0  0  0
 32 34  1  1  0  0  0
 33 31  1  1  0  0  0
 34 30  1  0  0  0  0
 35 38  1  0  0  0  0
 36 35  1  0  0  0  0
 37 35  2  0  0  0  0
 39 50  1  6  0  0  0
 39 40  1  0  0  0  0
 39 42  1  0  0  0  0
 40 43  1  0  0  0  0
 41 36  1  1  0  0  0
 42 44  1  6  0  0  0
 42 41  1  0  0  0  0
 43 41  1  0  0  0  0
 45 47  2  0  0  0  0
 45 48  1  0  0  0  0
 46 44  2  0  0  0  0
 47 46  1  0  0  0  0
 48 49  2  0  0  0  0
 49 44  1  0  0  0  0
 51 53  1  0  0  0  0
 52 53  2  0  0  0  0
 53 50  1  0  0  0  0
M  END
>  <MODEL>
2

>  <REMARK>
 VINA RESULT:      -5.9      1.168      2.398
  Name = 
  17 active torsions:
  status: ('A' for Active; 'I' for Inactive)
    1  A    between atoms: C_1  and  N_37
    2  A    between atoms: C_5  and  C_7
    3  A    between atoms: O_6  and  C_9
    4  A    between atoms: O_6  and  C_51
    5  A    between atoms: C_7  and  N_43
    6  A    between atoms: C_7  and  S_44
    7  A    between atoms: C_8  and  C_36
    8  A    between atoms: C_10  and  C_17
    9  A    between atoms: C_12  and  C_42
   10  A    between atoms: N_15  and  C_38
   11  A    between atoms: N_15  and  C_45
   12  A    between atoms: C_23  and  C_29
   13  A    between atoms: N_25  and  C_39
   14  A    between atoms: C_29  and  S_44
   15  A    between atoms: C_30  and  N_43
   16  A    between atoms: C_30  and  C_45
   17  A    between atoms: C_36  and  C_49
                            x       y       z     vdW  Elec       q    Type
                         _______ _______ _______ _____ _____    ______ ____

>  <TORSDO>
F 17

$$$$
=
 OpenBabel11042421273D

 53 60  0  0  1  0  0  0  0  0999 V2000
  157.1530  212.6270  154.1650 C   0  0  0  0  0  0  0  0  0  0  0  0
  157.6850  211.5340  154.6380 N   0  0  0  0  0  0  0  0  0  0  0  0
  160.7390  211.3030  152.7710 C   0  0  0  0  0  3  0  0  0  0  0  0
  159.9930  212.1670  152.0680 C   0  0  0  0  0  0  0  0  0  0  0  0
  157.8110  213.1190  152.9240 C   0  0  0  0  0  3  0  0  0  0  0  0
  158.6520  211.2050  153.6610 C   0  0  0  0  0  0  0  0  0  0  0  0
  158.6560  212.1480  152.6260 C   0  0  0  0  0  0  0  0  0  0  0  0
  159.8730  210.7170  153.8200 C   0  0  0  0  0  0  0  0  0  0  0  0
  154.9120  214.2770  156.4140 O   0  0  0  0  0  0  0  0  0  0  0  0
  154.2490  214.4520  155.3080 N   0  0  0  0  0  0  0  0  0  0  0  0
  156.0910  213.3540  154.8680 C   0  0  0  0  0  0  0  0  0  0  0  0
  156.0330  213.6220  156.2180 C   0  0  0  0  0  3  0  0  0  0  0  0
  154.9490  213.8870  154.3090 C   0  0  0  0  0  3  0  0  0  0  0  0
  160.4670  213.0310  150.9500 C   0  0  0  0  0  2  0  0  0  0  0  0
  159.1510  213.3040  149.7110 S   0  0  0  0  0  0  0  0  0  0  0  0
  160.2030  213.1790  148.2170 C   0  0  1  0  0  3  0  0  0  0  0  0
  162.4950  212.8010  148.6250 O   0  0  0  0  0  0  0  0  0  0  0  0
  161.3930  212.3080  148.4540 C   0  0  0  0  0  3  0  0  0  0  0  0
  159.4430  212.6990  147.0740 N   0  0  0  0  0  2  0  0  0  0  0  0
  161.2430  213.7490  146.0460 O   0  0  0  0  0  1  0  0  0  0  0  0
  160.3470  212.6850  145.9320 C   0  0  2  0  0  3  0  0  0  0  0  0
  159.5590  212.8110  144.6320 C   0  0  2  0  0  3  0  0  0  0  0  0
  158.1990  212.6200  144.8820 O   0  0  0  0  0  1  0  0  0  0  0  0
  160.0180  211.8110  143.6810 N   0  0  0  0  0  2  0  0  0  0  0  0
  161.1650  212.9220  141.8600 C   0  0  0  0  0  2  0  0  0  0  0  0
  160.6780  211.5780  141.3630 C   0  0  0  0  0  2  0  0  0  0  0  0
  159.8410  212.3670  142.3490 C   0  0  0  0  0  3  0  0  0  0  0  0
  160.3510  209.9490  155.0070 C   0  0  0  0  0  2  0  0  0  0  0  0
  160.6220  206.8310  152.5510 C   0  0  2  0  0  3  0  0  0  0  0  0
  161.3560  208.8890  154.5890 C   0  0  1  0  0  3  0  0  0  0  0  0
  160.8180  207.5220  154.9280 C   0  0  0  0  0  2  0  0  0  0  0  0
  161.8910  207.6180  152.8150 C   0  0  2  0  0  3  0  0  0  0  0  0
  161.3780  206.6400  153.8530 C   0  0  2  0  0  3  0  0  0  0  0  0
  161.5620  208.9300  153.2010 O   0  0  0  0  0  0  0  0  0  0  0  0
  160.7440  205.8420  150.2370 C   0  0  0  0  0  0  0  0  0  0  0  0
  161.1190  204.7490  149.3980 N   0  0  0  0  0  2  0  0  0  0  0  0
  160.2690  206.8970  149.7340 O   0  0  0  0  0  0  0  0  0  0  0  0
  160.9180  205.7310  151.6490 N   0  0  0  0  0  2  0  0  0  0  0  0
  162.6340  204.6190  146.1230 C   0  0  1  0  0  3  0  0  0  0  0  0
  162.5550  206.0790  146.5250 C   0  0  0  0  0  2  0  0  0  0  0  0
  161.0250  204.8040  147.9470 C   0  0  2  0  0  3  0  0  0  0  0  0
  162.0690  203.8890  147.3320 C   0  0  1  0  0  3  0  0  0  0  0  0
  161.3570  206.2060  147.4530 C   0  0  0  0  0  2  0  0  0  0  0  0
  161.5720  202.5010  147.0520 C   0  0  0  0  0  0  0  0  0  0  0  0
  160.7020  199.8810  146.5710 C   0  0  0  0  0  3  0  0  0  0  0  0
  160.9340  202.1780  145.8440 C   0  0  0  0  0  3  0  0  0  0  0  0
  160.5000  200.8710  145.6060 C   0  0  0  0  0  3  0  0  0  0  0  0
  161.3420  200.1960  147.7740 C   0  0  0  0  0  3  0  0  0  0  0  0
  161.7780  201.5030  148.0120 C   0  0  0  0  0  3  0  0  0  0  0  0
  161.8210  204.4020  144.9730 O   0  0  0  0  0  0  0  0  0  0  0  0
  159.9360  206.0220  144.8290 C   0  0  0  0  0  1  0  0  0  0  0  0
  161.6780  205.9010  143.2180 O   0  0  0  0  0  0  0  0  0  0  0  0
  161.1930  205.4450  144.2880 C   0  0  0  0  0  0  0  0  0  0  0  0
  1  2  1  0  0  0  0
  1 11  1  0  0  0  0
  3  8  2  0  0  0  0
  4  7  2  0  0  0  0
  4  3  1  0  0  0  0
  5  1  2  0  0  0  0
  6  8  1  0  0  0  0
  6  2  2  0  0  0  0
  7  5  1  0  0  0  0
  7  6  1  0  0  0  0
  8 28  1  0  0  0  0
 10  9  1  0  0  0  0
 11 12  2  0  0  0  0
 12  9  1  0  0  0  0
 13 11  1  0  0  0  0
 13 10  2  0  0  0  0
 14  4  1  0  0  0  0
 15 14  1  0  0  0  0
 16 18  1  1  0  0  0
 16 15  1  0  0  0  0
 18 17  2  0  0  0  0
 19 16  1  0  0  0  0
 21 20  1  1  0  0  0
 21 19  1  0  0  0  0
 22 23  1  1  0  0  0
 22 21  1  0  0  0  0
 24 22  1  0  0  0  0
 25 27  1  0  0  0  0
 26 25  1  0  0  0  0
 26 27  1  0  0  0  0
 27 24  1  0  0  0  0
 29 38  1  6  0  0  0
 29 32  1  0  0  0  0
 29 33  1  0  0  0  0
 30 31  1  0  0  0  0
 30 28  1  6  0  0  0
 32 34  1  1  0  0  0
 32 33  1  0  0  0  0
 33 31  1  1  0  0  0
 34 30  1  0  0  0  0
 35 38  1  0  0  0  0
 36 35  1  0  0  0  0
 37 35  2  0  0  0  0
 39 50  1  6  0  0  0
 39 40  1  0  0  0  0
 39 42  1  0  0  0  0
 40 43  1  0  0  0  0
 41 36  1  1  0  0  0
 42 44  1  6  0  0  0
 42 41  1  0  0  0  0
 43 41  1  0  0  0  0
 44 49  1  0  0  0  0
 45 48  1  0  0  0  0
 46 44  2  0  0  0  0
 47 46  1  0  0  0  0
 47 45  2  0  0  0  0
 48 49  2  0  0  0  0
 52 53  2  0  0  0  0
 53 51  1  0  0  0  0
 53 50  1  0  0  0  0
M  END
>  <MODEL>
3

>  <REMARK>
 VINA RESULT:      -4.7      3.018     10.607
  Name = 
  17 active torsions:
  status: ('A' for Active; 'I' for Inactive)
    1  A    between atoms: C_1  and  N_37
    2  A    between atoms: C_5  and  C_7
    3  A    between atoms: O_6  and  C_9
    4  A    between atoms: O_6  and  C_51
    5  A    between atoms: C_7  and  N_43
    6  A    between atoms: C_7  and  S_44
    7  A    between atoms: C_8  and  C_36
    8  A    between atoms: C_10  and  C_17
    9  A    between atoms: C_12  and  C_42
   10  A    between atoms: N_15  and  C_38
   11  A    between atoms: N_15  and  C_45
   12  A    between atoms: C_23  and  C_29
   13  A    between atoms: N_25  and  C_39
   14  A    between atoms: C_29  and  S_44
   15  A    between atoms: C_30  and  N_43
   16  A    between atoms: C_30  and  C_45
   17  A    between atoms: C_36  and  C_49
                            x       y       z     vdW  Elec       q    Type
                         _______ _______ _______ _____ _____    ______ ____

>  <TORSDO>
F 17

$$$$
=
 OpenBabel11042421273D

 53 60  0  0  1  0  0  0  0  0999 V2000
  161.7680  210.6540  139.5390 C   0  0  0  0  0  0  0  0  0  0  0  0
  162.4280  211.2770  140.4760 N   0  0  0  0  0  0  0  0  0  0  0  0
  160.7670  214.4530  140.5960 C   0  0  0  0  0  3  0  0  0  0  0  0
  160.3930  213.9350  139.4180 C   0  0  0  0  0  0  0  0  0  0  0  0
  160.8810  211.5470  138.7430 C   0  0  0  0  0  3  0  0  0  0  0  0
  162.0780  212.6290  140.2630 C   0  0  0  0  0  0  0  0  0  0  0  0
  161.1950  212.7520  139.1830 C   0  0  0  0  0  0  0  0  0  0  0  0
  161.8280  213.5810  141.1490 C   0  0  0  0  0  0  0  0  0  0  0  0
  161.7790  207.2250  138.5180 O   0  0  0  0  0  0  0  0  0  0  0  0
  161.9380  207.0520  139.7970 N   0  0  0  0  0  0  0  0  0  0  0  0
  161.8140  209.1970  139.3790 C   0  0  0  0  0  0  0  0  0  0  0  0
  161.6970  208.4960  138.1990 C   0  0  0  0  0  3  0  0  0  0  0  0
  161.9630  208.2630  140.3810 C   0  0  0  0  0  3  0  0  0  0  0  0
  159.3090  214.4530  138.5350 C   0  0  0  0  0  2  0  0  0  0  0  0
  158.2710  213.0960  137.8840 S   0  0  0  0  0  0  0  0  0  0  0  0
  157.3530  212.7400  139.4280 C   0  0  1  0  0  3  0  0  0  0  0  0
  155.2520  213.2390  140.3770 O   0  0  0  0  0  0  0  0  0  0  0  0
  155.9940  213.3590  139.4160 C   0  0  0  0  0  3  0  0  0  0  0  0
  157.2560  211.3080  139.6680 N   0  0  0  0  0  2  0  0  0  0  0  0
  156.3210  211.4590  137.5460 O   0  0  0  0  0  1  0  0  0  0  0  0
  157.1180  210.6640  138.3690 C   0  0  2  0  0  3  0  0  0  0  0  0
  156.4830  209.2860  138.5270 C   0  0  2  0  0  3  0  0  0  0  0  0
  155.8460  208.9200  137.3390 O   0  0  0  0  0  1  0  0  0  0  0  0
  155.5070  209.3150  139.6060 N   0  0  0  0  0  2  0  0  0  0  0  0
  153.1950  208.8440  140.1470 C   0  0  0  0  0  2  0  0  0  0  0  0
  153.2310  210.0590  139.2470 C   0  0  0  0  0  2  0  0  0  0  0  0
  154.2240  208.9340  139.0380 C   0  0  0  0  0  3  0  0  0  0  0  0
  162.3160  213.6000  142.5600 C   0  0  0  0  0  2  0  0  0  0  0  0
  161.6760  212.5310  146.3380 C   0  0  2  0  0  3  0  0  0  0  0  0
  161.1610  213.4070  143.5280 C   0  0  1  0  0  3  0  0  0  0  0  0
  161.1190  211.9700  143.9840 C   0  0  0  0  0  2  0  0  0  0  0  0
  160.7100  213.5270  145.7270 C   0  0  2  0  0  3  0  0  0  0  0  0
  160.5940  212.0550  145.3860 C   0  0  2  0  0  3  0  0  0  0  0  0
  161.3390  214.2070  144.6680 O   0  0  0  0  0  0  0  0  0  0  0  0
  161.7880  211.1390  148.4350 C   0  0  0  0  0  0  0  0  0  0  0  0
  161.4110  210.9610  149.8010 N   0  0  0  0  0  2  0  0  0  0  0  0
  162.5720  210.3210  147.8790 O   0  0  0  0  0  0  0  0  0  0  0  0
  161.2760  212.2550  147.7080 N   0  0  0  0  0  2  0  0  0  0  0  0
  160.9200  208.1640  152.0300 C   0  0  1  0  0  3  0  0  0  0  0  0
  161.1490  209.3910  152.8910 C   0  0  0  0  0  2  0  0  0  0  0  0
  161.9330  209.8820  150.6260 C   0  0  2  0  0  3  0  0  0  0  0  0
  160.9620  208.7140  150.6130 C   0  0  1  0  0  3  0  0  0  0  0  0
  162.0260  210.3290  152.0780 C   0  0  0  0  0  2  0  0  0  0  0  0
  161.2510  207.6940  149.5510 C   0  0  0  0  0  0  0  0  0  0  0  0
  161.8410  205.8380  147.5350 C   0  0  0  0  0  3  0  0  0  0  0  0
  160.2680  206.7970  149.1060 C   0  0  0  0  0  3  0  0  0  0  0  0
  160.5630  205.8710  148.1020 C   0  0  0  0  0  3  0  0  0  0  0  0
  162.8220  206.7330  147.9710 C   0  0  0  0  0  3  0  0  0  0  0  0
  162.5260  207.6610  148.9750 C   0  0  0  0  0  3  0  0  0  0  0  0
  161.9780  207.2340  152.2450 O   0  0  0  0  0  0  0  0  0  0  0  0
  161.7230  204.7710  151.9900 C   0  0  0  0  0  1  0  0  0  0  0  0
  161.6340  205.8810  154.0890 O   0  0  0  0  0  0  0  0  0  0  0  0
  161.7750  205.9870  152.8410 C   0  0  0  0  0  0  0  0  0  0  0  0
  1  2  1  0  0  0  0
  3  8  2  0  0  0  0
  4  3  1  0  0  0  0
  5  7  1  0  0  0  0
  5  1  2  0  0  0  0
  6  2  2  0  0  0  0
  6  8  1  0  0  0  0
  7  4  2  0  0  0  0
  7  6  1  0  0  0  0
  8 28  1  0  0  0  0
  9 10  1  0  0  0  0
 10 13  2  0  0  0  0
 11  1  1  0  0  0  0
 11 13  1  0  0  0  0
 12  9  1  0  0  0  0
 12 11  2  0  0  0  0
 14  4  1  0  0  0  0
 15 14  1  0  0  0  0
 15 16  1  0  0  0  0
 16 18  1  6  0  0  0
 16 19  1  0  0  0  0
 18 17  2  0  0  0  0
 21 20  1  6  0  0  0
 21 22  1  0  0  0  0
 21 19  1  0  0  0  0
 22 23  1  6  0  0  0
 22 24  1  0  0  0  0
 26 25  1  0  0  0  0
 27 26  1  0  0  0  0
 27 24  1  0  0  0  0
 27 25  1  0  0  0  0
 29 38  1  1  0  0  0
 30 28  1  6  0  0  0
 30 31  1  0  0  0  0
 30 34  1  0  0  0  0
 32 34  1  6  0  0  0
 32 29  1  0  0  0  0
 33 31  1  6  0  0  0
 33 32  1  0  0  0  0
 33 29  1  0  0  0  0
 35 36  1  0  0  0  0
 37 35  2  0  0  0  0
 38 35  1  0  0  0  0
 39 50  1  6  0  0  0
 39 40  1  0  0  0  0
 41 36  1  6  0  0  0
 41 43  1  0  0  0  0
 42 44  1  6  0  0  0
 42 41  1  0  0  0  0
 42 39  1  0  0  0  0
 43 40  1  0  0  0  0
 45 48  2  0  0  0  0
 45 47  1  0  0  0  0
 46 44  1  0  0  0  0
 47 46  2  0  0  0  0
 48 49  1  0  0  0  0
 49 44  2  0  0  0  0
 50 53  1  0  0  0  0
 51 53  1  0  0  0  0
 53 52  2  0  0  0  0
M  END
>  <MODEL>
4

>  <REMARK>
 VINA RESULT:      -4.5      4.030     12.511
  Name = 
  17 active torsions:
  status: ('A' for Active; 'I' for Inactive)
    1  A    between atoms: C_1  and  N_37
    2  A    between atoms: C_5  and  C_7
    3  A    between atoms: O_6  and  C_9
    4  A    between atoms: O_6  and  C_51
    5  A    between atoms: C_7  and  N_43
    6  A    between atoms: C_7  and  S_44
    7  A    between atoms: C_8  and  C_36
    8  A    between atoms: C_10  and  C_17
    9  A    between atoms: C_12  and  C_42
   10  A    between atoms: N_15  and  C_38
   11  A    between atoms: N_15  and  C_45
   12  A    between atoms: C_23  and  C_29
   13  A    between atoms: N_25  and  C_39
   14  A    between atoms: C_29  and  S_44
   15  A    between atoms: C_30  and  N_43
   16  A    between atoms: C_30  and  C_45
   17  A    between atoms: C_36  and  C_49
                            x       y       z     vdW  Elec       q    Type
                         _______ _______ _______ _____ _____    ______ ____

>  <TORSDO>
F 17

$$$$
=
 OpenBabel11042421273D

 53 60  0  0  1  0  0  0  0  0999 V2000
  162.2830  209.9050  139.7560 C   0  0  0  0  0  0  0  0  0  0  0  0
  162.7190  210.4940  140.8360 N   0  0  0  0  0  0  0  0  0  0  0  0
  161.3150  213.7800  140.5320 C   0  0  0  0  0  3  0  0  0  0  0  0
  161.2250  213.2730  139.2950 C   0  0  0  0  0  0  0  0  0  0  0  0
  161.7000  210.8460  138.7610 C   0  0  0  0  0  3  0  0  0  0  0  0
  162.5340  211.8640  140.5450 C   0  0  0  0  0  0  0  0  0  0  0  0
  161.9740  212.0330  139.2720 C   0  0  0  0  0  0  0  0  0  0  0  0
  162.1300  212.8440  141.3390 C   0  0  0  0  0  0  0  0  0  0  0  0
  161.8780  206.4640  138.8640 O   0  0  0  0  0  0  0  0  0  0  0  0
  162.5680  206.3060  139.9550 N   0  0  0  0  0  0  0  0  0  0  0  0
  162.2640  208.4470  139.6070 C   0  0  0  0  0  0  0  0  0  0  0  0
  161.6600  207.7310  138.5970 C   0  0  0  0  0  3  0  0  0  0  0  0
  162.8330  207.5250  140.4600 C   0  0  0  0  0  3  0  0  0  0  0  0
  160.4490  213.8520  138.1620 C   0  0  0  0  0  2  0  0  0  0  0  0
  158.8840  212.9470  137.8910 S   0  0  0  0  0  0  0  0  0  0  0  0
  158.3280  212.9090  139.6360 C   0  0  1  0  0  3  0  0  0  0  0  0
  157.3960  214.4510  141.1590 O   0  0  0  0  0  0  0  0  0  0  0  0
  157.5460  214.1320  139.9910 C   0  0  0  0  0  3  0  0  0  0  0  0
  157.5520  211.7120  139.9190 N   0  0  0  0  0  2  0  0  0  0  0  0
  155.4760  212.4750  139.2060 O   0  0  0  0  0  1  0  0  0  0  0  0
  156.5260  211.6120  138.8900 C   0  0  2  0  0  3  0  0  0  0  0  0
  156.0070  210.1810  138.7980 C   0  0  2  0  0  3  0  0  0  0  0  0
  155.8580  209.8170  137.4580 O   0  0  0  0  0  1  0  0  0  0  0  0
  154.7200  210.0810  139.4680 N   0  0  0  0  0  2  0  0  0  0  0  0
  152.3320  210.2100  139.0820 C   0  0  0  0  0  2  0  0  0  0  0  0
  152.8740  211.6200  139.1730 C   0  0  0  0  0  2  0  0  0  0  0  0
  153.7060  210.5300  138.5280 C   0  0  0  0  0  3  0  0  0  0  0  0
  162.2340  212.8490  142.8280 C   0  0  0  0  0  2  0  0  0  0  0  0
  160.3110  212.7090  146.3080 C   0  0  2  0  0  3  0  0  0  0  0  0
  160.9360  213.3310  143.4530 C   0  0  1  0  0  3  0  0  0  0  0  0
  160.1180  212.1450  143.8970 C   0  0  0  0  0  2  0  0  0  0  0  0
  160.0990  213.9400  145.4490 C   0  0  2  0  0  3  0  0  0  0  0  0
  159.3860  212.6470  145.1060 C   0  0  2  0  0  3  0  0  0  0  0  0
  161.2000  214.1120  144.5900 O   0  0  0  0  0  0  0  0  0  0  0  0
  160.1260  212.8610  148.8160 C   0  0  0  0  0  0  0  0  0  0  0  0
  159.3030  213.0540  149.9670 N   0  0  0  0  0  2  0  0  0  0  0  0
  161.3740  212.7260  148.9410 O   0  0  0  0  0  0  0  0  0  0  0  0
  159.5230  212.8310  147.5230 N   0  0  0  0  0  2  0  0  0  0  0  0
  159.0050  212.6120  153.5380 C   0  0  1  0  0  3  0  0  0  0  0  0
  158.6070  214.0410  153.2270 C   0  0  0  0  0  2  0  0  0  0  0  0
  159.8460  213.1520  151.3140 C   0  0  2  0  0  3  0  0  0  0  0  0
  159.3010  212.0220  152.1680 C   0  0  1  0  0  3  0  0  0  0  0  0
  159.3750  214.4390  151.9770 C   0  0  0  0  0  2  0  0  0  0  0  0
  160.1710  210.7980  152.1860 C   0  0  0  0  0  0  0  0  0  0  0  0
  161.7790  208.5050  152.2920 C   0  0  0  0  0  3  0  0  0  0  0  0
  161.3140  210.6980  151.3770 C   0  0  0  0  0  3  0  0  0  0  0  0
  162.1140  209.5530  151.4300 C   0  0  0  0  0  3  0  0  0  0  0  0
  160.6440  208.6030  153.1040 C   0  0  0  0  0  3  0  0  0  0  0  0
  159.8440  209.7490  153.0520 C   0  0  0  0  0  3  0  0  0  0  0  0
  160.1740  212.6140  154.3530 O   0  0  0  0  0  0  0  0  0  0  0  0
  161.4130  211.3940  156.1330 C   0  0  0  0  0  1  0  0  0  0  0  0
  159.1870  212.1810  156.4000 O   0  0  0  0  0  0  0  0  0  0  0  0
  160.1910  212.0840  155.6450 C   0  0  0  0  0  0  0  0  0  0  0  0
  1  2  1  0  0  0  0
  3  8  2  0  0  0  0
  4  3  1  0  0  0  0
  5  7  1  0  0  0  0
  5  1  2  0  0  0  0
  6  2  2  0  0  0  0
  6  8  1  0  0  0  0
  7  4  2  0  0  0  0
  7  6  1  0  0  0  0
  8 28  1  0  0  0  0
  9 10  1  0  0  0  0
 10 13  2  0  0  0  0
 11  1  1  0  0  0  0
 11 13  1  0  0  0  0
 12  9  1  0  0  0  0
 12 11  2  0  0  0  0
 14  4  1  0  0  0  0
 15 14  1  0  0  0  0
 15 16  1  0  0  0  0
 16 19  1  0  0  0  0
 16 18  1  6  0  0  0
 18 17  2  0  0  0  0
 21 20  1  1  0  0  0
 21 19  1  0  0  0  0
 22 23  1  6  0  0  0
 22 21  1  0  0  0  0
 22 24  1  0  0  0  0
 25 26  1  0  0  0  0
 27 25  1  0  0  0  0
 27 26  1  0  0  0  0
 27 24  1  0  0  0  0
 29 38  1  1  0  0  0
 30 28  1  1  0  0  0
 30 31  1  0  0  0  0
 30 34  1  0  0  0  0
 32 34  1  6  0  0  0
 32 29  1  0  0  0  0
 33 31  1  6  0  0  0
 33 32  1  0  0  0  0
 33 29  1  0  0  0  0
 35 37  2  0  0  0  0
 35 36  1  0  0  0  0
 38 35  1  0  0  0  0
 39 50  1  1  0  0  0
 40 39  1  0  0  0  0
 41 36  1  6  0  0  0
 41 43  1  0  0  0  0
 41 42  1  0  0  0  0
 42 44  1  1  0  0  0
 42 39  1  0  0  0  0
 43 40  1  0  0  0  0
 44 49  1  0  0  0  0
 45 48  1  0  0  0  0
 46 47  1  0  0  0  0
 46 44  2  0  0  0  0
 47 45  2  0  0  0  0
 49 48  2  0  0  0  0
 50 53  1  0  0  0  0
 53 51  1  0  0  0  0
 53 52  2  0  0  0  0
M  END
>  <MODEL>
5

>  <REMARK>
 VINA RESULT:      -4.4      4.004     12.725
  Name = 
  17 active torsions:
  status: ('A' for Active; 'I' for Inactive)
    1  A    between atoms: C_1  and  N_37
    2  A    between atoms: C_5  and  C_7
    3  A    between atoms: O_6  and  C_9
    4  A    between atoms: O_6  and  C_51
    5  A    between atoms: C_7  and  N_43
    6  A    between atoms: C_7  and  S_44
    7  A    between atoms: C_8  and  C_36
    8  A    between atoms: C_10  and  C_17
    9  A    between atoms: C_12  and  C_42
   10  A    between atoms: N_15  and  C_38
   11  A    between atoms: N_15  and  C_45
   12  A    between atoms: C_23  and  C_29
   13  A    between atoms: N_25  and  C_39
   14  A    between atoms: C_29  and  S_44
   15  A    between atoms: C_30  and  N_43
   16  A    between atoms: C_30  and  C_45
   17  A    between atoms: C_36  and  C_49
                            x       y       z     vdW  Elec       q    Type
                         _______ _______ _______ _____ _____    ______ ____

>  <TORSDO>
F 17

$$$$
=
 OpenBabel11042421273D

 53 60  0  0  1  0  0  0  0  0999 V2000
  160.7620  210.6260  153.0660 C   0  0  0  0  0  0  0  0  0  0  0  0
  161.2110  210.4320  154.2750 N   0  0  0  0  0  0  0  0  0  0  0  0
  158.2310  210.7240  156.2490 C   0  0  0  0  0  3  0  0  0  0  0  0
  157.9010  211.2860  155.0780 C   0  0  0  0  0  0  0  0  0  0  0  0
  159.3750  211.1640  153.0260 C   0  0  0  0  0  3  0  0  0  0  0  0
  160.1680  210.9380  155.0830 C   0  0  0  0  0  0  0  0  0  0  0  0
  159.1140  211.4160  154.2960 C   0  0  0  0  0  0  0  0  0  0  0  0
  159.6900  210.4700  156.2260 C   0  0  0  0  0  0  0  0  0  0  0  0
  162.0550  209.7940  149.8350 O   0  0  0  0  0  0  0  0  0  0  0  0
  163.1060  209.5120  150.5480 N   0  0  0  0  0  0  0  0  0  0  0  0
  161.5180  210.2310  151.8720 C   0  0  0  0  0  0  0  0  0  0  0  0
  161.0610  210.2330  150.5730 C   0  0  0  0  0  3  0  0  0  0  0  0
  162.8160  209.7680  151.8360 C   0  0  0  0  0  3  0  0  0  0  0  0
  156.5260  211.6590  154.6390 C   0  0  0  0  0  2  0  0  0  0  0  0
  156.3070  213.4730  154.5960 S   0  0  0  0  0  0  0  0  0  0  0  0
  156.2880  213.6660  152.7750 C   0  0  1  0  0  3  0  0  0  0  0  0
  153.9600  213.7080  152.4020 O   0  0  0  0  0  0  0  0  0  0  0  0
  155.0220  214.2990  152.3010 C   0  0  0  0  0  3  0  0  0  0  0  0
  157.4390  214.4260  152.3120 N   0  0  0  0  0  2  0  0  0  0  0  0
  159.4050  213.9310  151.1780 O   0  0  0  0  0  1  0  0  0  0  0  0
  158.0340  213.6780  151.2140 C   0  0  2  0  0  3  0  0  0  0  0  0
  157.4000  214.0900  149.8890 C   0  0  2  0  0  3  0  0  0  0  0  0
  156.0930  213.6010  149.8180 O   0  0  0  0  0  1  0  0  0  0  0  0
  158.1750  213.5480  148.7840 N   0  0  0  0  0  2  0  0  0  0  0  0
  158.2310  214.2670  146.4720 C   0  0  0  0  0  2  0  0  0  0  0  0
  157.9250  212.7860  146.4990 C   0  0  0  0  0  2  0  0  0  0  0  0
  157.3720  213.6920  147.5810 C   0  0  0  0  0  3  0  0  0  0  0  0
  160.4310  209.5930  157.1800 C   0  0  0  0  0  2  0  0  0  0  0  0
  161.4160  207.3350  154.0550 C   0  0  2  0  0  3  0  0  0  0  0  0
  160.3650  208.1420  156.7340 C   0  0  1  0  0  3  0  0  0  0  0  0
  159.5150  208.0330  155.4930 C   0  0  0  0  0  2  0  0  0  0  0  0
  161.4660  206.6840  155.4230 C   0  0  2  0  0  3  0  0  0  0  0  0
  160.1330  206.8960  154.7350 C   0  0  2  0  0  3  0  0  0  0  0  0
  161.6480  207.6710  156.4100 O   0  0  0  0  0  0  0  0  0  0  0  0
  161.1590  206.3100  151.7680 C   0  0  0  0  0  0  0  0  0  0  0  0
  161.6220  205.3740  150.7940 N   0  0  0  0  0  2  0  0  0  0  0  0
  160.2050  207.0900  151.4990 O   0  0  0  0  0  0  0  0  0  0  0  0
  161.7920  206.3600  153.0460 N   0  0  0  0  0  2  0  0  0  0  0  0
  161.9960  204.8370  147.2440 C   0  0  1  0  0  3  0  0  0  0  0  0
  162.0990  206.3300  147.4860 C   0  0  0  0  0  2  0  0  0  0  0  0
  161.0670  205.2990  149.4510 C   0  0  2  0  0  3  0  0  0  0  0  0
  161.8260  204.2630  148.6420 C   0  0  1  0  0  3  0  0  0  0  0  0
  161.2690  206.6220  148.7250 C   0  0  0  0  0  2  0  0  0  0  0  0
  161.2200  202.8900  148.6890 C   0  0  0  0  0  0  0  0  0  0  0  0
  160.0930  200.3300  148.8530 C   0  0  0  0  0  3  0  0  0  0  0  0
  161.4520  201.9490  147.6740 C   0  0  0  0  0  3  0  0  0  0  0  0
  160.8880  200.6730  147.7560 C   0  0  0  0  0  3  0  0  0  0  0  0
  159.8630  201.2620  149.8690 C   0  0  0  0  0  3  0  0  0  0  0  0
  160.4280  202.5390  149.7880 C   0  0  0  0  0  3  0  0  0  0  0  0
  160.8490  204.5670  146.4420 O   0  0  0  0  0  0  0  0  0  0  0  0
  161.1010  204.6250  143.9670 C   0  0  0  0  0  1  0  0  0  0  0  0
  159.9720  206.3110  145.2010 O   0  0  0  0  0  0  0  0  0  0  0  0
  160.6050  205.2220  145.2330 C   0  0  0  0  0  0  0  0  0  0  0  0
  1  2  1  0  0  0  0
  2  6  2  0  0  0  0
  4  3  1  0  0  0  0
  5  1  2  0  0  0  0
  5  7  1  0  0  0  0
  6  8  1  0  0  0  0
  7  4  2  0  0  0  0
  7  6  1  0  0  0  0
  8  3  2  0  0  0  0
  8 28  1  0  0  0  0
  9 10  1  0  0  0  0
  9 12  1  0  0  0  0
 10 13  2  0  0  0  0
 11  1  1  0  0  0  0
 12 11  2  0  0  0  0
 13 11  1  0  0  0  0
 14  4  1  0  0  0  0
 15 14  1  0  0  0  0
 16 18  1  1  0  0  0
 16 15  1  0  0  0  0
 18 17  2  0  0  0  0
 19 16  1  0  0  0  0
 21 20  1  6  0  0  0
 21 19  1  0  0  0  0
 22 23  1  1  0  0  0
 22 21  1  0  0  0  0
 24 22  1  0  0  0  0
 25 26  1  0  0  0  0
 25 27  1  0  0  0  0
 26 27  1  0  0  0  0
 27 24  1  0  0  0  0
 29 38  1  6  0  0  0
 29 33  1  0  0  0  0
 29 32  1  0  0  0  0
 30 28  1  6  0  0  0
 31 30  1  0  0  0  0
 32 34  1  1  0  0  0
 33 32  1  0  0  0  0
 33 31  1  1  0  0  0
 34 30  1  0  0  0  0
 35 38  1  0  0  0  0
 36 35  1  0  0  0  0
 37 35  2  0  0  0  0
 39 50  1  6  0  0  0
 39 40  1  0  0  0  0
 39 42  1  0  0  0  0
 40 43  1  0  0  0  0
 41 36  1  1  0  0  0
 42 44  1  6  0  0  0
 42 41  1  0  0  0  0
 43 41  1  0  0  0  0
 44 49  1  0  0  0  0
 45 48  1  0  0  0  0
 46 47  1  0  0  0  0
 46 44  2  0  0  0  0
 47 45  2  0  0  0  0
 49 48  2  0  0  0  0
 51 53  1  0  0  0  0
 52 53  2  0  0  0  0
 53 50  1  0  0  0  0
M  END
>  <MODEL>
6

>  <REMARK>
 VINA RESULT:      -3.4      5.089      9.613
  Name = 
  17 active torsions:
  status: ('A' for Active; 'I' for Inactive)
    1  A    between atoms: C_1  and  N_37
    2  A    between atoms: C_5  and  C_7
    3  A    between atoms: O_6  and  C_9
    4  A    between atoms: O_6  and  C_51
    5  A    between atoms: C_7  and  N_43
    6  A    between atoms: C_7  and  S_44
    7  A    between atoms: C_8  and  C_36
    8  A    between atoms: C_10  and  C_17
    9  A    between atoms: C_12  and  C_42
   10  A    between atoms: N_15  and  C_38
   11  A    between atoms: N_15  and  C_45
   12  A    between atoms: C_23  and  C_29
   13  A    between atoms: N_25  and  C_39
   14  A    between atoms: C_29  and  S_44
   15  A    between atoms: C_30  and  N_43
   16  A    between atoms: C_30  and  C_45
   17  A    between atoms: C_36  and  C_49
                            x       y       z     vdW  Elec       q    Type
                         _______ _______ _______ _____ _____    ______ ____

>  <TORSDO>
F 17

$$$$
