=
 OpenBabel11052410493D

 28 33  0  0  1  0  0  0  0  0999 V2000
  162.3590  204.3460  151.3530 O   0  0  0  0  0  1  0  0  0  0  0  0
  158.9140  211.9420  154.4910 C   0  0  0  0  0  2  0  0  0  0  0  0
  161.7470  207.9100  151.7380 C   0  0  0  0  0  0  0  0  0  0  0  0
  162.9740  211.1300  156.1730 C   0  0  0  0  0  0  0  0  0  0  0  0
  161.9070  205.5610  151.8500 C   0  0  0  0  0  0  0  0  0  0  0  0
  160.9120  209.3510  152.7770 C   0  0  1  0  0  0  0  0  0  0  0  0
  160.8720  210.5610  155.0830 C   0  0  0  0  0  0  0  0  0  0  0  0
  158.4790  211.7820  153.0340 C   0  0  2  0  0  3  0  0  0  0  0  0
  162.2440  206.7570  151.1640 C   0  0  0  0  0  3  0  0  0  0  0  0
  163.6790  210.6100  155.0910 C   0  0  0  0  0  3  0  0  0  0  0  0
  162.9930  210.0680  154.0080 C   0  0  0  0  0  3  0  0  0  0  0  0
  160.6210  206.7810  153.6040 C   0  0  0  0  0  3  0  0  0  0  0  0
  159.5590  211.1160  152.1940 C   0  0  0  0  0  2  0  0  0  0  0  0
  163.6680  211.6700  157.2490 O   0  0  0  0  0  1  0  0  0  0  0  0
  161.5880  210.0410  153.9700 C   0  0  0  0  0  0  0  0  0  0  0  0
  160.8860  211.6390  157.2610 O   0  0  0  0  0  1  0  0  0  0  0  0
  159.3730  210.6250  155.1070 C   0  0  0  0  0  2  0  0  0  0  0  0
  161.5750  211.1090  156.1730 C   0  0  0  0  0  0  0  0  0  0  0  0
  161.1140  205.5770  153.0420 C   0  0  0  0  0  3  0  0  0  0  0  0
  161.7070  209.3660  151.5940 N   0  0  0  0  0  2  0  0  0  0  0  0
  160.9700  207.9230  152.9090 C   0  0  0  0  0  0  0  0  0  0  0  0
  159.5820  209.7460  152.5010 O   0  0  0  0  0  0  0  0  0  0  0  0
  158.1560  213.1410  152.4410 C   0  0  0  0  0  2  0  0  0  0  0  0
  157.1830  213.9730  150.4770 C   0  0  1  0  0  3  0  0  0  0  0  0
  158.2330  213.0820  150.9910 N   0  0  0  0  0  0  0  0  0  0  0  0
  158.6450  214.4510  149.0180 C   0  0  0  0  0  2  0  0  0  0  0  0
  158.5680  214.4380  150.5300 C   0  0  1  0  0  3  0  0  0  0  0  0
  157.2170  213.9720  148.9630 C   0  0  0  0  0  2  0  0  0  0  0  0
  1  5  1  0  0  0  0
  2 17  1  0  0  0  0
  3 21  1  0  0  0  0
  4 14  1  0  0  0  0
  5 19  2  0  0  0  0
  6 20  1  6  0  0  0
  6 21  1  0  0  0  0
  6 15  1  0  0  0  0
  7 17  1  0  0  0  0
  7 18  2  0  0  0  0
  8 23  1  6  0  0  0
  8  2  1  0  0  0  0
  9  3  2  0  0  0  0
  9  5  1  0  0  0  0
 10  4  2  0  0  0  0
 11 10  1  0  0  0  0
 13 22  1  0  0  0  0
 13  8  1  0  0  0  0
 15 11  2  0  0  0  0
 15  7  1  0  0  0  0
 18  4  1  0  0  0  0
 18 16  1  0  0  0  0
 19 12  1  0  0  0  0
 20  3  1  0  0  0  0
 21 12  2  0  0  0  0
 22  6  1  0  0  0  0
 24 28  1  6  0  0  0
 24 27  1  0  0  0  0
 24 25  1  0  0  0  0
 25 23  1  0  0  0  0
 27 26  1  6  0  0  0
 27 25  1  0  0  0  0
 28 26  1  0  0  0  0
M  END
>  <MODEL>
1

>  <REMARK>
 VINA RESULT:      -4.3      0.000      0.000
  Name = 
  2 active torsions:
  status: ('A' for Active; 'I' for Inactive)
    1  A    between atoms: N_3  and  C_10
    2  A    between atoms: C_10  and  C_12
                            x       y       z     vdW  Elec       q    Type
                         _______ _______ _______ _____ _____    ______ ____

>  <TORSDO>
F 2

$$$$
=
 OpenBabel11052410493D

 28 33  0  0  1  0  0  0  0  0999 V2000
  158.4270  213.5380  146.2460 O   0  0  0  0  0  1  0  0  0  0  0  0
  161.9440  211.5870  138.2930 C   0  0  0  0  0  2  0  0  0  0  0  0
  159.2010  213.8000  142.7010 C   0  0  0  0  0  0  0  0  0  0  0  0
  157.6840  210.2730  138.6020 C   0  0  0  0  0  0  0  0  0  0  0  0
  158.8920  213.2430  144.9710 C   0  0  0  0  0  0  0  0  0  0  0  0
  159.9990  212.9770  141.1080 C   0  0  1  0  0  0  0  0  0  0  0  0
  159.8560  210.9690  139.4550 C   0  0  0  0  0  0  0  0  0  0  0  0
  162.5260  212.9200  138.7630 C   0  0  2  0  0  3  0  0  0  0  0  0
  158.7030  214.1880  143.9300 C   0  0  0  0  0  3  0  0  0  0  0  0
  157.0720  211.3060  139.3070 C   0  0  0  0  0  3  0  0  0  0  0  0
  157.8410  212.1700  140.0830 C   0  0  0  0  0  3  0  0  0  0  0  0
  160.0460  211.6260  143.4640 C   0  0  0  0  0  3  0  0  0  0  0  0
  161.5080  213.7330  139.5480 C   0  0  0  0  0  2  0  0  0  0  0  0
  156.9080  209.4170  137.8300 O   0  0  0  0  0  1  0  0  0  0  0  0
  159.2380  212.0340  140.1660 C   0  0  0  0  0  0  0  0  0  0  0  0
  159.6660  209.0670  137.9550 O   0  0  0  0  0  1  0  0  0  0  0  0
  161.3450  210.7800  139.4400 C   0  0  0  0  0  2  0  0  0  0  0  0
  159.0700  210.1020  138.6710 C   0  0  0  0  0  0  0  0  0  0  0  0
  159.5490  211.9920  144.7400 C   0  0  0  0  0  3  0  0  0  0  0  0
  159.3400  214.2250  141.3080 N   0  0  0  0  0  2  0  0  0  0  0  0
  159.8440  212.5710  142.4770 C   0  0  0  0  0  0  0  0  0  0  0  0
  161.3720  213.1640  140.8250 O   0  0  0  0  0  0  0  0  0  0  0  0
  162.9920  213.7290  137.5660 C   0  0  0  0  0  2  0  0  0  0  0  0
  165.0440  213.5340  138.6840 C   0  0  1  0  0  3  0  0  0  0  0  0
  164.2080  214.4530  137.8970 N   0  0  0  0  0  0  0  0  0  0  0  0
  166.6240  214.4230  137.5840 C   0  0  0  0  0  2  0  0  0  0  0  0
  165.3180  213.7290  137.2600 C   0  0  1  0  0  3  0  0  0  0  0  0
  166.3410  214.2220  139.0510 C   0  0  0  0  0  2  0  0  0  0  0  0
  2  8  1  0  0  0  0
  2 17  1  0  0  0  0
  3  9  1  0  0  0  0
  4 18  2  0  0  0  0
  4 10  1  0  0  0  0
  5  1  1  0  0  0  0
  6 15  1  6  0  0  0
  6 20  1  0  0  0  0
  6 21  1  0  0  0  0
  7 15  2  0  0  0  0
  8 23  1  6  0  0  0
  8 13  1  0  0  0  0
  9  5  2  0  0  0  0
 10 11  2  0  0  0  0
 11 15  1  0  0  0  0
 12 19  2  0  0  0  0
 13 22  1  0  0  0  0
 14  4  1  0  0  0  0
 16 18  1  0  0  0  0
 17  7  1  0  0  0  0
 18  7  1  0  0  0  0
 19  5  1  0  0  0  0
 20  3  1  0  0  0  0
 21  3  2  0  0  0  0
 21 12  1  0  0  0  0
 22  6  1  0  0  0  0
 23 25  1  0  0  0  0
 24 28  1  1  0  0  0
 25 24  1  0  0  0  0
 26 28  1  0  0  0  0
 27 26  1  1  0  0  0
 27 25  1  0  0  0  0
 27 24  1  0  0  0  0
M  END
>  <MODEL>
2

>  <REMARK>
 VINA RESULT:      -4.2     10.571     14.493
  Name = 
  2 active torsions:
  status: ('A' for Active; 'I' for Inactive)
    1  A    between atoms: N_3  and  C_10
    2  A    between atoms: C_10  and  C_12
                            x       y       z     vdW  Elec       q    Type
                         _______ _______ _______ _____ _____    ______ ____

>  <TORSDO>
F 2

$$$$
=
 OpenBabel11052410493D

 28 33  0  0  1  0  0  0  0  0999 V2000
  155.6340  214.4040  155.1360 O   0  0  0  0  0  1  0  0  0  0  0  0
  162.1910  208.8030  152.8930 C   0  0  0  0  0  2  0  0  0  0  0  0
  157.7510  211.4470  155.1610 C   0  0  0  0  0  0  0  0  0  0  0  0
  163.1790  211.1400  156.5720 C   0  0  0  0  0  0  0  0  0  0  0  0
  156.6770  213.5260  154.8750 C   0  0  0  0  0  0  0  0  0  0  0  0
  159.3830  210.5650  154.5190 C   0  0  1  0  0  0  0  0  0  0  0  0
  161.9860  210.6620  154.5030 C   0  0  0  0  0  0  0  0  0  0  0  0
  160.8560  208.1360  152.5640 C   0  0  2  0  0  3  0  0  0  0  0  0
  156.6710  212.2450  155.4850 C   0  0  0  0  0  3  0  0  0  0  0  0
  161.9700  211.1940  157.2600 C   0  0  0  0  0  3  0  0  0  0  0  0
  160.7720  210.9830  156.5820 C   0  0  0  0  0  3  0  0  0  0  0  0
  158.8260  213.0900  153.6890 C   0  0  0  0  0  3  0  0  0  0  0  0
  159.7780  208.5090  153.5710 C   0  0  0  0  0  2  0  0  0  0  0  0
  164.3690  211.3510  157.2570 O   0  0  0  0  0  1  0  0  0  0  0  0
  160.7500  210.7020  155.2050 C   0  0  0  0  0  0  0  0  0  0  0  0
  164.4100  210.8180  154.5270 O   0  0  0  0  0  1  0  0  0  0  0  0
  162.0630  210.3140  153.0450 C   0  0  0  0  0  2  0  0  0  0  0  0
  163.1920  210.8740  155.1980 C   0  0  0  0  0  0  0  0  0  0  0  0
  157.7320  213.9350  153.9980 C   0  0  0  0  0  3  0  0  0  0  0  0
  158.3510  210.1340  155.4040 N   0  0  0  0  0  2  0  0  0  0  0  0
  158.7860  211.8520  154.3010 C   0  0  0  0  0  0  0  0  0  0  0  0
  159.3630  209.8250  153.3140 O   0  0  0  0  0  0  0  0  0  0  0  0
  161.0230  206.6280  152.5490 C   0  0  0  0  0  2  0  0  0  0  0  0
  161.6620  206.2820  150.3200 C   0  0  1  0  0  3  0  0  0  0  0  0
  160.5650  206.0890  151.2800 N   0  0  0  0  0  0  0  0  0  0  0  0
  161.0510  204.3770  149.6150 C   0  0  0  0  0  2  0  0  0  0  0  0
  161.4630  204.9740  150.9450 C   0  0  1  0  0  3  0  0  0  0  0  0
  161.2560  205.7250  148.9720 C   0  0  0  0  0  2  0  0  0  0  0  0
  2 17  1  0  0  0  0
  3 20  1  0  0  0  0
  3  9  1  0  0  0  0
  4 14  1  0  0  0  0
  4 10  1  0  0  0  0
  5  1  1  0  0  0  0
  5  9  2  0  0  0  0
  6 22  1  6  0  0  0
  6 15  1  0  0  0  0
  6 20  1  0  0  0  0
  7 18  1  0  0  0  0
  7 15  2  0  0  0  0
  8 23  1  1  0  0  0
  8  2  1  0  0  0  0
  8 13  1  0  0  0  0
 11 10  2  0  0  0  0
 12 19  2  0  0  0  0
 12 21  1  0  0  0  0
 15 11  1  0  0  0  0
 16 18  1  0  0  0  0
 17  7  1  0  0  0  0
 18  4  2  0  0  0  0
 19  5  1  0  0  0  0
 21  6  1  0  0  0  0
 21  3  2  0  0  0  0
 22 13  1  0  0  0  0
 24 28  1  6  0  0  0
 24 27  1  0  0  0  0
 24 25  1  0  0  0  0
 25 23  1  0  0  0  0
 27 26  1  6  0  0  0
 27 25  1  0  0  0  0
 28 26  1  0  0  0  0
M  END
>  <MODEL>
3

>  <REMARK>
 VINA RESULT:      -3.1      2.623      6.405
  Name = 
  2 active torsions:
  status: ('A' for Active; 'I' for Inactive)
    1  A    between atoms: N_3  and  C_10
    2  A    between atoms: C_10  and  C_12
                            x       y       z     vdW  Elec       q    Type
                         _______ _______ _______ _____ _____    ______ ____

>  <TORSDO>
F 2

$$$$
=
 OpenBabel11052410493D

 28 33  0  0  1  0  0  0  0  0999 V2000
  161.1730  213.6180  141.2190 O   0  0  0  0  0  1  0  0  0  0  0  0
  161.1810  212.2840  150.0300 C   0  0  0  0  0  2  0  0  0  0  0  0
  160.6320  211.9800  144.4210 C   0  0  0  0  0  0  0  0  0  0  0  0
  157.1740  213.5900  148.5430 C   0  0  0  0  0  0  0  0  0  0  0  0
  161.0860  213.3870  142.5850 C   0  0  0  0  0  0  0  0  0  0  0  0
  160.6500  212.1100  146.3790 C   0  0  1  0  0  0  0  0  0  0  0  0
  159.5900  213.3000  148.4400 C   0  0  0  0  0  0  0  0  0  0  0  0
  162.1020  211.2470  149.3850 C   0  0  2  0  0  3  0  0  0  0  0  0
  160.6860  212.1070  143.0470 C   0  0  0  0  0  3  0  0  0  0  0  0
  157.0380  212.9170  147.3330 C   0  0  0  0  0  3  0  0  0  0  0  0
  158.1660  212.4340  146.6730 C   0  0  0  0  0  3  0  0  0  0  0  0
  161.3330  214.2820  144.8990 C   0  0  0  0  0  3  0  0  0  0  0  0
  161.5870  210.8060  148.0230 C   0  0  0  0  0  2  0  0  0  0  0  0
  156.0430  214.0670  149.1940 O   0  0  0  0  0  1  0  0  0  0  0  0
  159.4550  212.6000  147.2100 C   0  0  0  0  0  0  0  0  0  0  0  0
  158.5610  214.4520  150.3150 O   0  0  0  0  0  1  0  0  0  0  0  0
  160.9190  213.4750  149.1150 C   0  0  0  0  0  2  0  0  0  0  0  0
  158.4430  213.7820  149.1000 C   0  0  0  0  0  0  0  0  0  0  0  0
  161.4010  214.4480  143.4940 C   0  0  0  0  0  3  0  0  0  0  0  0
  160.3210  211.0390  145.4980 N   0  0  0  0  0  2  0  0  0  0  0  0
  160.9400  213.0230  145.3100 C   0  0  0  0  0  0  0  0  0  0  0  0
  161.8350  211.8330  147.0980 O   0  0  0  0  0  0  0  0  0  0  0  0
  162.2240  210.0340  150.2880 C   0  0  0  0  0  2  0  0  0  0  0  0
  162.3300  207.8530  149.4340 C   0  0  1  0  0  3  0  0  0  0  0  0
  161.4080  208.9470  149.7730 N   0  0  0  0  0  0  0  0  0  0  0  0
  160.7740  206.6340  150.2000 C   0  0  0  0  0  2  0  0  0  0  0  0
  161.5860  207.8130  150.6920 C   0  0  1  0  0  3  0  0  0  0  0  0
  161.5410  206.6760  148.9030 C   0  0  0  0  0  2  0  0  0  0  0  0
  1  5  1  0  0  0  0
  3 21  1  0  0  0  0
  3 20  1  0  0  0  0
  4 18  1  0  0  0  0
  4 14  1  0  0  0  0
  5  9  1  0  0  0  0
  5 19  2  0  0  0  0
  6 21  1  6  0  0  0
  6 22  1  0  0  0  0
  6 15  1  0  0  0  0
  7 18  2  0  0  0  0
  7 17  1  0  0  0  0
  8  2  1  0  0  0  0
  8 23  1  1  0  0  0
  9  3  2  0  0  0  0
 10  4  2  0  0  0  0
 11 15  2  0  0  0  0
 11 10  1  0  0  0  0
 12 21  2  0  0  0  0
 13  8  1  0  0  0  0
 15  7  1  0  0  0  0
 17  2  1  0  0  0  0
 18 16  1  0  0  0  0
 19 12  1  0  0  0  0
 20  6  1  0  0  0  0
 22 13  1  0  0  0  0
 24 28  1  6  0  0  0
 24 25  1  0  0  0  0
 24 27  1  0  0  0  0
 25 23  1  0  0  0  0
 25 27  1  0  0  0  0
 27 26  1  6  0  0  0
 28 26  1  0  0  0  0
M  END
>  <MODEL>
4

>  <REMARK>
 VINA RESULT:      -3.0      4.688      8.692
  Name = 
  2 active torsions:
  status: ('A' for Active; 'I' for Inactive)
    1  A    between atoms: N_3  and  C_10
    2  A    between atoms: C_10  and  C_12
                            x       y       z     vdW  Elec       q    Type
                         _______ _______ _______ _____ _____    ______ ____

>  <TORSDO>
F 2

$$$$
=
 OpenBabel11052410493D

 28 33  0  0  1  0  0  0  0  0999 V2000
  161.8580  210.4950  157.2610 O   0  0  0  0  0  1  0  0  0  0  0  0
  161.8520  211.1110  148.3710 C   0  0  0  0  0  2  0  0  0  0  0  0
  160.5980  210.6160  153.8510 C   0  0  0  0  0  0  0  0  0  0  0  0
  161.4650  206.8780  149.7510 C   0  0  0  0  0  0  0  0  0  0  0  0
  161.8040  210.5160  155.8740 C   0  0  0  0  0  0  0  0  0  0  0  0
  160.9980  210.6180  151.9300 C   0  0  1  0  0  0  0  0  0  0  0  0
  162.0210  209.2390  149.9700 C   0  0  0  0  0  0  0  0  0  0  0  0
  161.1210  212.3280  148.9380 C   0  0  2  0  0  3  0  0  0  0  0  0
  160.5430  210.6010  155.2310 C   0  0  0  0  0  3  0  0  0  0  0  0
  160.6250  206.9690  150.8570 C   0  0  0  0  0  3  0  0  0  0  0  0
  160.4770  208.1840  151.5210 C   0  0  0  0  0  3  0  0  0  0  0  0
  163.0430  210.4680  153.7100 C   0  0  0  0  0  3  0  0  0  0  0  0
  160.3440  211.9800  150.1980 C   0  0  0  0  0  2  0  0  0  0  0  0
  161.6050  205.6620  149.0940 O   0  0  0  0  0  1  0  0  0  0  0  0
  161.1520  209.3400  151.0920 C   0  0  0  0  0  0  0  0  0  0  0  0
  162.9930  207.8990  148.1930 O   0  0  0  0  0  1  0  0  0  0  0  0
  162.7380  210.4310  149.4090 C   0  0  0  0  0  2  0  0  0  0  0  0
  162.1620  208.0060  149.3040 C   0  0  0  0  0  0  0  0  0  0  0  0
  163.0250  210.4520  155.1270 C   0  0  0  0  0  3  0  0  0  0  0  0
  159.7670  210.6740  152.6470 N   0  0  0  0  0  2  0  0  0  0  0  0
  161.7960  210.5510  153.1210 C   0  0  0  0  0  0  0  0  0  0  0  0
  161.2530  211.8360  151.2590 O   0  0  0  0  0  0  0  0  0  0  0  0
  160.1640  212.8840  147.9000 C   0  0  0  0  0  2  0  0  0  0  0  0
  159.3630  212.6840  145.7060 C   0  0  1  0  0  3  0  0  0  0  0  0
  160.4940  212.3580  146.5860 N   0  0  0  0  0  0  0  0  0  0  0  0
  160.8920  213.0260  144.2770 C   0  0  0  0  0  2  0  0  0  0  0  0
  160.5700  213.5100  145.6760 C   0  0  1  0  0  3  0  0  0  0  0  0
  159.6490  212.1760  144.3090 C   0  0  0  0  0  2  0  0  0  0  0  0
  2  8  1  0  0  0  0
  2 17  1  0  0  0  0
  3  9  1  0  0  0  0
  4 10  1  0  0  0  0
  5  1  1  0  0  0  0
  6 15  1  6  0  0  0
  6 20  1  0  0  0  0
  6 21  1  0  0  0  0
  7 15  2  0  0  0  0
  8 23  1  6  0  0  0
  8 13  1  0  0  0  0
  9  5  2  0  0  0  0
 10 11  2  0  0  0  0
 12 19  2  0  0  0  0
 13 22  1  0  0  0  0
 14  4  1  0  0  0  0
 15 11  1  0  0  0  0
 16 18  1  0  0  0  0
 17  7  1  0  0  0  0
 18  4  2  0  0  0  0
 18  7  1  0  0  0  0
 19  5  1  0  0  0  0
 20  3  1  0  0  0  0
 21 12  1  0  0  0  0
 21  3  2  0  0  0  0
 22  6  1  0  0  0  0
 24 28  1  6  0  0  0
 24 25  1  0  0  0  0
 25 23  1  0  0  0  0
 26 28  1  0  0  0  0
 27 26  1  6  0  0  0
 27 24  1  0  0  0  0
 27 25  1  0  0  0  0
M  END
>  <MODEL>
5

>  <REMARK>
 VINA RESULT:      -2.7      2.939      5.813
  Name = 
  2 active torsions:
  status: ('A' for Active; 'I' for Inactive)
    1  A    between atoms: N_3  and  C_10
    2  A    between atoms: C_10  and  C_12
                            x       y       z     vdW  Elec       q    Type
                         _______ _______ _______ _____ _____    ______ ____

>  <TORSDO>
F 2

$$$$
=
 OpenBabel11052410493D

 28 33  0  0  1  0  0  0  0  0999 V2000
  155.1050  214.4520  156.2910 O   0  0  0  0  0  1  0  0  0  0  0  0
  162.3070  210.1100  153.3420 C   0  0  0  0  0  2  0  0  0  0  0  0
  157.1260  212.0680  154.4310 C   0  0  0  0  0  0  0  0  0  0  0  0
  160.1360  207.7960  156.4900 C   0  0  0  0  0  0  0  0  0  0  0  0
  156.1830  213.6970  155.8500 C   0  0  0  0  0  0  0  0  0  0  0  0
  158.8850  211.2450  154.1450 C   0  0  1  0  0  0  0  0  0  0  0  0
  160.7520  209.7890  155.2320 C   0  0  0  0  0  0  0  0  0  0  0  0
  161.6830  210.8620  152.1660 C   0  0  2  0  0  3  0  0  0  0  0  0
  155.9930  212.7680  154.7950 C   0  0  0  0  0  3  0  0  0  0  0  0
  158.7940  208.0220  156.1950 C   0  0  0  0  0  3  0  0  0  0  0  0
  158.4250  209.1210  155.4240 C   0  0  0  0  0  3  0  0  0  0  0  0
  158.6030  213.1380  156.0730 C   0  0  0  0  0  3  0  0  0  0  0  0
  160.1660  210.9050  152.2670 C   0  0  0  0  0  2  0  0  0  0  0  0
  160.4940  206.6960  157.2590 O   0  0  0  0  0  1  0  0  0  0  0  0
  159.3840  210.0150  154.9170 C   0  0  0  0  0  0  0  0  0  0  0  0
  162.4530  208.4300  156.3100 O   0  0  0  0  0  1  0  0  0  0  0  0
  161.8480  210.6580  154.6890 C   0  0  0  0  0  2  0  0  0  0  0  0
  161.1150  208.6730  156.0110 C   0  0  0  0  0  0  0  0  0  0  0  0
  157.4610  213.8750  156.4720 C   0  0  0  0  0  3  0  0  0  0  0  0
  157.6240  211.0400  153.5150 N   0  0  0  0  0  2  0  0  0  0  0  0
  158.3780  212.2440  155.0440 C   0  0  0  0  0  0  0  0  0  0  0  0
  159.8100  211.8380  153.2550 O   0  0  0  0  0  0  0  0  0  0  0  0
  162.0760  210.1940  150.8610 C   0  0  0  0  0  2  0  0  0  0  0  0
  161.0160  208.1270  151.1830 C   0  0  1  0  0  3  0  0  0  0  0  0
  162.3300  208.7800  151.0830 N   0  0  0  0  0  0  0  0  0  0  0  0
  161.9800  206.5750  150.1070 C   0  0  0  0  0  2  0  0  0  0  0  0
  161.7660  208.0640  149.9290 C   0  0  1  0  0  3  0  0  0  0  0  0
  161.2080  206.6410  151.4000 C   0  0  0  0  0  2  0  0  0  0  0  0
  2 17  1  0  0  0  0
  3  9  2  0  0  0  0
  3 21  1  0  0  0  0
  4 14  1  0  0  0  0
  5  1  1  0  0  0  0
  5 19  2  0  0  0  0
  6 22  1  6  0  0  0
  6 15  1  0  0  0  0
  6 21  1  0  0  0  0
  7 18  1  0  0  0  0
  8 23  1  6  0  0  0
  8 13  1  0  0  0  0
  8  2  1  0  0  0  0
  9  5  1  0  0  0  0
 10  4  1  0  0  0  0
 11 10  2  0  0  0  0
 12 19  1  0  0  0  0
 13 22  1  0  0  0  0
 15  7  2  0  0  0  0
 15 11  1  0  0  0  0
 17  7  1  0  0  0  0
 18 16  1  0  0  0  0
 18  4  2  0  0  0  0
 20  6  1  0  0  0  0
 20  3  1  0  0  0  0
 21 12  2  0  0  0  0
 23 25  1  0  0  0  0
 24 28  1  1  0  0  0
 25 24  1  0  0  0  0
 26 28  1  0  0  0  0
 27 26  1  1  0  0  0
 27 25  1  0  0  0  0
 27 24  1  0  0  0  0
M  END
>  <MODEL>
6

>  <REMARK>
 VINA RESULT:      -2.6      2.782      6.335
  Name = 
  2 active torsions:
  status: ('A' for Active; 'I' for Inactive)
    1  A    between atoms: N_3  and  C_10
    2  A    between atoms: C_10  and  C_12
                            x       y       z     vdW  Elec       q    Type
                         _______ _______ _______ _____ _____    ______ ____

>  <TORSDO>
F 2

$$$$
=
 OpenBabel11052410493D

 28 33  0  0  1  0  0  0  0  0999 V2000
  161.5380  205.7800  142.3110 O   0  0  0  0  0  1  0  0  0  0  0  0
  160.6470  206.3730  151.1570 C   0  0  0  0  0  2  0  0  0  0  0  0
  162.4340  205.7930  145.8350 C   0  0  0  0  0  0  0  0  0  0  0  0
  160.8430  202.1250  149.7800 C   0  0  0  0  0  0  0  0  0  0  0  0
  161.4450  205.7940  143.6960 C   0  0  0  0  0  0  0  0  0  0  0  0
  161.8330  205.8210  147.7040 C   0  0  1  0  0  0  0  0  0  0  0  0
  160.5020  204.5240  149.5290 C   0  0  0  0  0  0  0  0  0  0  0  0
  161.5270  207.5290  150.6840 C   0  0  2  0  0  3  0  0  0  0  0  0
  162.6340  205.7770  144.4690 C   0  0  0  0  0  3  0  0  0  0  0  0
  161.8010  202.1520  148.7710 C   0  0  0  0  0  3  0  0  0  0  0  0
  162.1140  203.3530  148.1390 C   0  0  0  0  0  3  0  0  0  0  0  0
  159.9830  205.8390  145.7150 C   0  0  0  0  0  3  0  0  0  0  0  0
  162.4050  207.1240  149.5090 C   0  0  0  0  0  2  0  0  0  0  0  0
  160.5390  200.9220  150.4050 O   0  0  0  0  0  1  0  0  0  0  0  0
  161.4900  204.5580  148.5060 C   0  0  0  0  0  0  0  0  0  0  0  0
  159.2440  203.2610  151.1790 O   0  0  0  0  0  1  0  0  0  0  0  0
  159.8250  205.7680  150.0240 C   0  0  0  0  0  2  0  0  0  0  0  0
  160.1940  203.3040  150.1630 C   0  0  0  0  0  0  0  0  0  0  0  0
  160.1510  205.8250  144.3090 C   0  0  0  0  0  3  0  0  0  0  0  0
  163.1340  205.7810  147.1210 N   0  0  0  0  0  2  0  0  0  0  0  0
  161.1630  205.8210  146.4340 C   0  0  0  0  0  0  0  0  0  0  0  0
  161.6050  207.0540  148.3570 O   0  0  0  0  0  0  0  0  0  0  0  0
  162.4100  208.0040  151.8230 C   0  0  0  0  0  2  0  0  0  0  0  0
  160.6820  209.5010  152.3440 C   0  0  1  0  0  3  0  0  0  0  0  0
  162.1310  209.4000  152.1200 N   0  0  0  0  0  0  0  0  0  0  0  0
  161.2600  210.8740  153.8530 C   0  0  0  0  0  2  0  0  0  0  0  0
  161.5930  209.4420  153.4870 C   0  0  1  0  0  3  0  0  0  0  0  0
  160.3220  210.9340  152.6760 C   0  0  0  0  0  2  0  0  0  0  0  0
  1  5  1  0  0  0  0
  3 21  1  0  0  0  0
  3 20  1  0  0  0  0
  4 18  1  0  0  0  0
  4 14  1  0  0  0  0
  5 19  2  0  0  0  0
  5  9  1  0  0  0  0
  6 21  1  6  0  0  0
  6 22  1  0  0  0  0
  6 15  1  0  0  0  0
  7 17  1  0  0  0  0
  7 18  2  0  0  0  0
  8  2  1  0  0  0  0
  8 23  1  1  0  0  0
  9  3  2  0  0  0  0
 10  4  2  0  0  0  0
 11 15  2  0  0  0  0
 11 10  1  0  0  0  0
 12 21  2  0  0  0  0
 13  8  1  0  0  0  0
 15  7  1  0  0  0  0
 17  2  1  0  0  0  0
 18 16  1  0  0  0  0
 19 12  1  0  0  0  0
 20  6  1  0  0  0  0
 22 13  1  0  0  0  0
 23 25  1  0  0  0  0
 24 28  1  6  0  0  0
 24 27  1  0  0  0  0
 25 24  1  0  0  0  0
 25 27  1  0  0  0  0
 27 26  1  6  0  0  0
 28 26  1  0  0  0  0
M  END
>  <MODEL>
7

>  <REMARK>
 VINA RESULT:      -2.5      4.342      7.894
  Name = 
  2 active torsions:
  status: ('A' for Active; 'I' for Inactive)
    1  A    between atoms: N_3  and  C_10
    2  A    between atoms: C_10  and  C_12
                            x       y       z     vdW  Elec       q    Type
                         _______ _______ _______ _____ _____    ______ ____

>  <TORSDO>
F 2

$$$$
=
 OpenBabel11052410493D

 28 33  0  0  1  0  0  0  0  0999 V2000
  162.3920  204.5280  151.2780 O   0  0  0  0  0  1  0  0  0  0  0  0
  159.3160  212.7960  152.5360 C   0  0  0  0  0  2  0  0  0  0  0  0
  162.3350  208.1620  151.4120 C   0  0  0  0  0  0  0  0  0  0  0  0
  161.8200  211.4070  155.9680 C   0  0  0  0  0  0  0  0  0  0  0  0
  161.9880  205.8330  151.5230 C   0  0  0  0  0  0  0  0  0  0  0  0
  161.3820  209.7910  151.9490 C   0  0  1  0  0  0  0  0  0  0  0  0
  160.4480  211.1390  153.9730 C   0  0  0  0  0  0  0  0  0  0  0  0
  159.6230  212.6190  151.0490 C   0  0  2  0  0  3  0  0  0  0  0  0
  162.8270  206.9050  151.1240 C   0  0  0  0  0  3  0  0  0  0  0  0
  162.8530  210.7020  155.3560 C   0  0  0  0  0  3  0  0  0  0  0  0
  162.6930  210.2170  154.0600 C   0  0  0  0  0  3  0  0  0  0  0  0
  160.2600  207.3700  152.4560 C   0  0  0  0  0  3  0  0  0  0  0  0
  160.8320  211.7210  150.8280 C   0  0  0  0  0  2  0  0  0  0  0  0
  161.9890  211.8880  157.2600 O   0  0  0  0  0  1  0  0  0  0  0  0
  161.5060  210.4310  153.3390 C   0  0  0  0  0  0  0  0  0  0  0  0
  159.6000  212.3400  155.9080 O   0  0  0  0  0  1  0  0  0  0  0  0
  159.1680  211.4630  153.2620 C   0  0  0  0  0  2  0  0  0  0  0  0
  160.6200  211.6280  155.2830 C   0  0  0  0  0  0  0  0  0  0  0  0
  160.7340  206.0650  152.1740 C   0  0  0  0  0  3  0  0  0  0  0  0
  162.6390  209.5900  151.3080 N   0  0  0  0  0  2  0  0  0  0  0  0
  161.1050  208.3860  152.0530 C   0  0  0  0  0  0  0  0  0  0  0  0
  160.4510  210.3910  151.0690 O   0  0  0  0  0  0  0  0  0  0  0  0
  159.8840  213.9700  150.4120 C   0  0  0  0  0  2  0  0  0  0  0  0
  159.8490  213.0010  148.2780 C   0  0  1  0  0  3  0  0  0  0  0  0
  160.6650  213.8060  149.1980 N   0  0  0  0  0  0  0  0  0  0  0  0
  160.6620  214.2990  146.8120 C   0  0  0  0  0  2  0  0  0  0  0  0
  159.9080  214.4530  148.1160 C   0  0  1  0  0  3  0  0  0  0  0  0
  160.6010  212.8030  146.9790 C   0  0  0  0  0  2  0  0  0  0  0  0
  1  5  1  0  0  0  0
  2 17  1  0  0  0  0
  3 21  1  0  0  0  0
  4 14  1  0  0  0  0
  5 19  2  0  0  0  0
  6 22  1  6  0  0  0
  6 21  1  0  0  0  0
  6 15  1  0  0  0  0
  7 18  1  0  0  0  0
  8 23  1  1  0  0  0
  8  2  1  0  0  0  0
  9  3  2  0  0  0  0
  9  5  1  0  0  0  0
 10  4  1  0  0  0  0
 11 10  2  0  0  0  0
 13  8  1  0  0  0  0
 13 22  1  0  0  0  0
 15  7  2  0  0  0  0
 15 11  1  0  0  0  0
 17  7  1  0  0  0  0
 18 16  1  0  0  0  0
 18  4  2  0  0  0  0
 19 12  1  0  0  0  0
 20  3  1  0  0  0  0
 20  6  1  0  0  0  0
 21 12  2  0  0  0  0
 24 28  1  6  0  0  0
 24 25  1  0  0  0  0
 25 23  1  0  0  0  0
 26 28  1  0  0  0  0
 27 26  1  6  0  0  0
 27 24  1  0  0  0  0
 27 25  1  0  0  0  0
M  END
>  <MODEL>
8

>  <REMARK>
 VINA RESULT:      -2.2      1.541      1.947
  Name = 
  2 active torsions:
  status: ('A' for Active; 'I' for Inactive)
    1  A    between atoms: N_3  and  C_10
    2  A    between atoms: C_10  and  C_12
                            x       y       z     vdW  Elec       q    Type
                         _______ _______ _______ _____ _____    ______ ____

>  <TORSDO>
F 2

$$$$
=
 OpenBabel11052410493D

 28 33  0  0  1  0  0  0  0  0999 V2000
  162.9250  214.4520  145.4110 O   0  0  0  0  0  1  0  0  0  0  0  0
  162.0170  208.2290  151.7240 C   0  0  0  0  0  2  0  0  0  0  0  0
  161.3870  211.8670  147.4550 C   0  0  0  0  0  0  0  0  0  0  0  0
  160.1670  212.1140  152.9320 C   0  0  0  0  0  0  0  0  0  0  0  0
  162.7050  213.5230  146.4190 C   0  0  0  0  0  0  0  0  0  0  0  0
  161.5040  210.7070  149.0340 C   0  0  1  0  0  0  0  0  0  0  0  0
  161.6350  210.6660  151.6360 C   0  0  0  0  0  0  0  0  0  0  0  0
  161.9080  207.5490  150.3590 C   0  0  2  0  0  3  0  0  0  0  0  0
  161.5090  212.7610  146.4100 C   0  0  0  0  0  3  0  0  0  0  0  0
  159.5820  212.5770  151.7570 C   0  0  0  0  0  3  0  0  0  0  0  0
  160.0140  212.0930  150.5250 C   0  0  0  0  0  3  0  0  0  0  0  0
  163.5330  212.4310  148.5020 C   0  0  0  0  0  3  0  0  0  0  0  0
  161.2250  208.4460  149.3370 C   0  0  0  0  0  2  0  0  0  0  0  0
  159.7280  212.6020  154.1560 O   0  0  0  0  0  1  0  0  0  0  0  0
  161.0300  211.1260  150.4340 C   0  0  0  0  0  0  0  0  0  0  0  0
  161.7590  210.7030  154.0620 O   0  0  0  0  0  1  0  0  0  0  0  0
  162.6870  209.5960  151.6390 C   0  0  0  0  0  2  0  0  0  0  0  0
  161.1890  211.1600  152.8770 C   0  0  0  0  0  0  0  0  0  0  0  0
  163.6930  213.3590  147.4430 C   0  0  0  0  0  3  0  0  0  0  0  0
  160.5000  210.8560  148.0340 N   0  0  0  0  0  2  0  0  0  0  0  0
  162.3570  211.7080  148.4590 C   0  0  0  0  0  0  0  0  0  0  0  0
  162.1310  209.4440  148.9420 O   0  0  0  0  0  0  0  0  0  0  0  0
  161.1240  206.2560  150.4890 C   0  0  0  0  0  2  0  0  0  0  0  0
  160.7870  204.0990  149.6350 C   0  0  1  0  0  3  0  0  0  0  0  0
  161.7410  205.2170  149.6820 N   0  0  0  0  0  0  0  0  0  0  0  0
  161.4570  203.9360  147.6290 C   0  0  0  0  0  2  0  0  0  0  0  0
  160.8780  205.0260  148.5070 C   0  0  1  0  0  3  0  0  0  0  0  0
  161.3620  202.9810  148.7920 C   0  0  0  0  0  2  0  0  0  0  0  0
  1  5  1  0  0  0  0
  3 20  1  0  0  0  0
  3 21  1  0  0  0  0
  4 14  1  0  0  0  0
  5 19  2  0  0  0  0
  6 20  1  6  0  0  0
  6 15  1  0  0  0  0
  7 17  1  0  0  0  0
  7 18  2  0  0  0  0
  8 23  1  1  0  0  0
  8  2  1  0  0  0  0
  9  5  1  0  0  0  0
  9  3  2  0  0  0  0
 10  4  2  0  0  0  0
 11 10  1  0  0  0  0
 13  8  1  0  0  0  0
 15 11  2  0  0  0  0
 15  7  1  0  0  0  0
 17  2  1  0  0  0  0
 18  4  1  0  0  0  0
 18 16  1  0  0  0  0
 19 12  1  0  0  0  0
 21 12  2  0  0  0  0
 21  6  1  0  0  0  0
 22  6  1  0  0  0  0
 22 13  1  0  0  0  0
 24 28  1  6  0  0  0
 24 25  1  0  0  0  0
 25 23  1  0  0  0  0
 26 28  1  0  0  0  0
 27 26  1  6  0  0  0
 27 24  1  0  0  0  0
 27 25  1  0  0  0  0
M  END
>  <MODEL>
9

>  <REMARK>
 VINA RESULT:      -2.1      3.784      7.178
  Name = 
  2 active torsions:
  status: ('A' for Active; 'I' for Inactive)
    1  A    between atoms: N_3  and  C_10
    2  A    between atoms: C_10  and  C_12
                            x       y       z     vdW  Elec       q    Type
                         _______ _______ _______ _____ _____    ______ ____

>  <TORSDO>
F 2

$$$$
