=
 OpenBabel11042420333D

 49 56  0  0  1  0  0  0  0  0999 V2000
  161.2070  209.2050  152.0030 C   0  0  2  0  0  3  0  0  0  0  0  0
  162.2960  210.7080  155.3090 C   0  0  0  0  0  2  0  0  0  0  0  0
  160.9460  211.4220  155.2340 C   0  0  0  0  0  2  0  0  0  0  0  0
  162.6200  210.0820  153.9580 C   0  0  0  0  0  2  0  0  0  0  0  0
  160.2540  209.1090  154.3640 C   0  0  0  0  0  2  0  0  0  0  0  0
  159.8020  210.5220  154.7440 C   0  0  1  0  0  3  0  0  0  0  0  0
  161.5240  209.0990  153.4990 C   0  0  1  0  0  3  0  0  0  0  0  0
  158.7060  210.4330  155.7960 C   0  0  0  0  0  2  0  0  0  0  0  0
  159.1130  211.1440  157.0790 C   0  0  0  0  0  2  0  0  0  0  0  0
  158.6680  212.5980  157.0600 C   0  0  0  0  0  2  0  0  0  0  0  0
  157.2700  212.6760  157.2060 O   0  0  0  0  0  0  0  0  0  0  0  0
  157.9140  213.5040  153.9190 N   0  0  0  0  0  2  0  0  0  0  0  0
  155.6500  214.3930  156.5910 C   0  0  0  0  0  2  0  0  0  0  0  0
  154.6170  214.4510  154.2620 C   0  0  0  0  0  2  0  0  0  0  0  0
  155.4420  213.2570  153.7740 C   0  0  2  0  0  3  0  0  0  0  0  0
  155.8300  212.0550  155.1080 S   0  0  0  0  0  0  0  0  0  0  0  0
  156.6810  213.3460  156.1040 C   0  0  2  0  0  0  0  0  0  0  0  0
  157.7450  214.0870  155.2450 C   0  0  0  0  0  2  0  0  0  0  0  0
  156.7210  213.7770  153.1170 C   0  0  0  0  0  2  0  0  0  0  0  0
  154.3580  214.4530  155.7710 C   0  0  0  0  0  2  0  0  0  0  0  0
  161.0030  207.8200  151.4120 C   0  0  0  0  0  2  0  0  0  0  0  0
  162.3210  207.2790  150.8810 C   0  0  0  0  0  2  0  0  0  0  0  0
  162.1280  206.1300  149.8800 C   0  0  1  0  0  3  0  0  0  0  0  0
  160.7940  205.3560  149.9200 C   0  0  2  0  0  3  0  0  0  0  0  0
  160.8270  204.2070  150.9220 C   0  0  0  0  0  0  0  0  0  0  0  0
  160.8550  204.0210  149.4020 C   0  0  0  0  0  2  0  0  0  0  0  0
  160.8420  203.7370  152.1620 C   0  0  0  0  0  2  0  0  0  0  0  0
  162.5380  206.5100  148.4610 C   0  0  1  0  0  3  0  0  0  0  0  0
  161.2920  206.7920  147.6410 C   0  0  1  0  0  3  0  0  0  0  0  0
  162.1300  207.9370  148.1660 C   0  0  0  0  0  2  0  0  0  0  0  0
  161.5910  206.5970  146.2320 N   0  0  0  0  0  2  0  0  0  0  0  0
  160.4850  205.8510  145.6710 C   0  0  0  0  0  2  0  0  0  0  0  0
  161.2180  203.5060  145.8760 C   0  0  0  0  0  2  0  0  0  0  0  0
  161.0180  204.6550  144.9100 C   0  0  0  0  0  3  0  0  0  0  0  0
  162.4040  204.3210  145.4150 C   0  0  0  0  0  2  0  0  0  0  0  0
  162.2960  209.9460  151.2260 C   0  0  0  0  0  2  0  0  0  0  0  0
  161.7330  211.1040  150.4740 C   0  0  0  0  0  0  0  0  0  0  0  0
  161.4840  212.5150  148.6630 C   0  0  0  0  0  0  0  0  0  0  0  0
  160.3620  213.0490  149.7860 S   0  0  0  0  0  0  0  0  0  0  0  0
  160.7070  211.9060  150.9750 C   0  0  0  0  0  3  0  0  0  0  0  0
  162.1710  211.4290  149.1840 C   0  0  0  0  0  3  0  0  0  0  0  0
  161.6940  213.1310  147.3850 N   0  0  0  0  0  2  0  0  0  0  0  0
  159.4720  212.5390  143.8230 C   0  0  0  0  0  3  0  0  0  0  0  0
  158.8090  212.5300  145.0580 C   0  0  0  0  0  3  0  0  0  0  0  0
  161.6790  212.7700  142.2320 Cl  0  0  0  0  0  0  0  0  0  0  0  0
  160.8530  212.7500  143.7750 C   0  0  0  0  0  0  0  0  0  0  0  0
  161.5740  212.9460  144.9560 C   0  0  0  0  0  3  0  0  0  0  0  0
  160.9220  212.9250  146.1950 C   0  0  0  0  0  0  0  0  0  0  0  0
  159.5300  212.7250  146.2380 C   0  0  0  0  0  3  0  0  0  0  0  0
  1 36  1  6  0  0  0
  3  2  1  0  0  0  0
  4  2  1  0  0  0  0
  5  6  1  0  0  0  0
  6  3  1  0  0  0  0
  6  8  1  1  0  0  0
  7  1  1  6  0  0  0
  7  4  1  0  0  0  0
  7  5  1  0  0  0  0
  8  9  1  0  0  0  0
 10  9  1  0  0  0  0
 10 11  1  0  0  0  0
 12 18  1  0  0  0  0
 14 20  1  0  0  0  0
 15 19  1  1  0  0  0
 15 14  1  0  0  0  0
 15 16  1  0  0  0  0
 16 17  1  0  0  0  0
 17 13  1  0  0  0  0
 17 11  1  1  0  0  0
 18 17  1  0  0  0  0
 19 12  1  0  0  0  0
 20 13  1  0  0  0  0
 21  1  1  0  0  0  0
 22 21  1  0  0  0  0
 23 22  1  1  0  0  0
 24 23  1  1  0  0  0
 24 25  1  0  0  0  0
 25 27  2  0  0  0  0
 26 24  1  0  0  0  0
 26 25  1  0  0  0  0
 28 23  1  1  0  0  0
 29 31  1  6  0  0  0
 29 30  1  0  0  0  0
 29 28  1  0  0  0  0
 30 28  1  0  0  0  0
 32 31  1  0  0  0  0
 34 35  1  0  0  0  0
 34 32  1  0  0  0  0
 34 33  1  0  0  0  0
 35 33  1  0  0  0  0
 37 40  2  0  0  0  0
 37 36  1  0  0  0  0
 38 41  2  0  0  0  0
 38 39  1  0  0  0  0
 39 40  1  0  0  0  0
 41 37  1  0  0  0  0
 42 38  1  0  0  0  0
 43 44  1  0  0  0  0
 44 49  2  0  0  0  0
 45 46  1  0  0  0  0
 46 43  2  0  0  0  0
 46 47  1  0  0  0  0
 47 48  2  0  0  0  0
 48 49  1  0  0  0  0
 48 42  1  0  0  0  0
M  END
>  <MODEL>
1

>  <REMARK>
 VINA RESULT:      -6.5      0.000      0.000
  Name = 
  18 active torsions:
  status: ('A' for Active; 'I' for Inactive)
    1  A    between atoms: C_1  and  C_2
    2  A    between atoms: C_2  and  C_43
    3  A    between atoms: N_3  and  C_21
    4  A    between atoms: N_3  and  C_41
    5  A    between atoms: C_5  and  N_45
    6  A    between atoms: C_9  and  C_25
    7  A    between atoms: C_9  and  C_44
    8  A    between atoms: O_12  and  C_24
    9  A    between atoms: O_12  and  C_28
   10  A    between atoms: C_14  and  C_31
   11  A    between atoms: C_17  and  C_31
   12  A    between atoms: C_17  and  C_39
   13  A    between atoms: C_21  and  C_22
   14  A    between atoms: C_24  and  C_25
   15  A    between atoms: C_29  and  C_31
   16  A    between atoms: C_32  and  N_45
   17  A    between atoms: C_39  and  C_43
   18  A    between atoms: C_43  and  C_47
                            x       y       z     vdW  Elec       q    Type
                         _______ _______ _______ _____ _____    ______ ____

>  <TORSDO>
F 18

$$$$
=
 OpenBabel11042420333D

 49 56  0  0  1  0  0  0  0  0999 V2000
  161.4160  210.4020  150.2300 C   0  0  2  0  0  3  0  0  0  0  0  0
  163.1370  212.6070  147.6700 C   0  0  0  0  0  2  0  0  0  0  0  0
  161.8470  212.3990  146.8770 C   0  0  0  0  0  2  0  0  0  0  0  0
  163.1890  211.6200  148.8300 C   0  0  0  0  0  2  0  0  0  0  0  0
  160.8580  212.6770  149.2280 C   0  0  0  0  0  2  0  0  0  0  0  0
  160.5770  212.4750  147.7370 C   0  0  1  0  0  3  0  0  0  0  0  0
  161.9650  211.7530  149.7590 C   0  0  1  0  0  3  0  0  0  0  0  0
  159.6650  213.5880  147.2430 C   0  0  0  0  0  2  0  0  0  0  0  0
  160.2580  214.2920  146.0310 C   0  0  0  0  0  2  0  0  0  0  0  0
  159.4860  213.9460  144.7680 C   0  0  0  0  0  2  0  0  0  0  0  0
  159.8730  212.6760  144.2990 O   0  0  0  0  0  0  0  0  0  0  0  0
  159.7050  211.9800  140.9240 N   0  0  0  0  0  2  0  0  0  0  0  0
  162.1540  212.8170  143.4460 C   0  0  0  0  0  2  0  0  0  0  0  0
  162.6350  213.7840  141.1360 C   0  0  0  0  0  2  0  0  0  0  0  0
  161.1510  214.0020  140.8260 C   0  0  2  0  0  3  0  0  0  0  0  0
  160.1480  214.3690  142.3200 S   0  0  0  0  0  0  0  0  0  0  0  0
  160.6420  212.7850  143.1130 C   0  0  2  0  0  0  0  0  0  0  0  0
  160.3900  211.5900  142.1500 C   0  0  0  0  0  2  0  0  0  0  0  0
  160.6140  212.7720  140.0950 C   0  0  0  0  0  2  0  0  0  0  0  0
  162.9700  213.8250  142.6300 C   0  0  0  0  0  2  0  0  0  0  0  0
  160.9420  210.5030  151.6710 C   0  0  0  0  0  2  0  0  0  0  0  0
  161.5120  209.3550  152.4900 C   0  0  0  0  0  2  0  0  0  0  0  0
  160.8950  209.2680  153.8940 C   0  0  1  0  0  3  0  0  0  0  0  0
  161.2460  208.0410  154.7600 C   0  0  2  0  0  3  0  0  0  0  0  0
  161.2550  206.7490  153.9500 C   0  0  0  0  0  0  0  0  0  0  0  0
  160.1690  207.1180  154.9660 C   0  0  0  0  0  2  0  0  0  0  0  0
  161.7870  205.9410  153.0430 C   0  0  0  0  0  2  0  0  0  0  0  0
  161.0070  210.5770  154.6680 C   0  0  1  0  0  3  0  0  0  0  0  0
  159.6370  210.9640  155.1950 C   0  0  1  0  0  3  0  0  0  0  0  0
  160.6630  210.3530  156.1240 C   0  0  0  0  0  2  0  0  0  0  0  0
  159.5950  212.4000  155.4170 N   0  0  0  0  0  2  0  0  0  0  0  0
  158.2010  212.7850  155.3920 C   0  0  0  0  0  2  0  0  0  0  0  0
  156.1100  211.6150  154.8100 C   0  0  0  0  0  2  0  0  0  0  0  0
  157.3380  211.5790  155.6960 C   0  0  0  0  0  3  0  0  0  0  0  0
  156.0120  212.0420  156.2560 C   0  0  0  0  0  2  0  0  0  0  0  0
  162.4420  209.2760  150.0980 C   0  0  0  0  0  2  0  0  0  0  0  0
  162.0340  208.2890  149.0580 C   0  0  0  0  0  0  0  0  0  0  0  0
  161.8990  206.2040  148.0730 C   0  0  0  0  0  0  0  0  0  0  0  0
  160.9760  207.2050  147.0980 S   0  0  0  0  0  0  0  0  0  0  0  0
  161.2040  208.6190  147.9850 C   0  0  0  0  0  3  0  0  0  0  0  0
  162.4240  206.9450  149.1210 C   0  0  0  0  0  3  0  0  0  0  0  0
  162.1170  204.8110  147.8140 N   0  0  0  0  0  2  0  0  0  0  0  0
  160.3530  201.5760  149.9110 C   0  0  0  0  0  3  0  0  0  0  0  0
  160.5630  201.4680  148.5300 C   0  0  0  0  0  3  0  0  0  0  0  0
  160.4750  202.8720  152.3110 Cl  0  0  0  0  0  0  0  0  0  0  0  0
  160.7310  202.7410  150.5850 C   0  0  0  0  0  0  0  0  0  0  0  0
  161.3140  203.8000  149.8830 C   0  0  0  0  0  3  0  0  0  0  0  0
  161.5160  203.7060  148.5000 C   0  0  0  0  0  0  0  0  0  0  0  0
  161.1450  202.5270  147.8280 C   0  0  0  0  0  3  0  0  0  0  0  0
  1 36  1  1  0  0  0
  1 21  1  0  0  0  0
  2  4  1  0  0  0  0
  3  2  1  0  0  0  0
  3  6  1  0  0  0  0
  4  7  1  0  0  0  0
  5  7  1  0  0  0  0
  6  8  1  6  0  0  0
  6  5  1  0  0  0  0
  7  1  1  6  0  0  0
  9  8  1  0  0  0  0
 10  9  1  0  0  0  0
 11 10  1  0  0  0  0
 12 18  1  0  0  0  0
 14 20  1  0  0  0  0
 15 19  1  1  0  0  0
 15 14  1  0  0  0  0
 15 16  1  0  0  0  0
 16 17  1  0  0  0  0
 17 13  1  0  0  0  0
 17 11  1  1  0  0  0
 18 17  1  0  0  0  0
 19 12  1  0  0  0  0
 20 13  1  0  0  0  0
 21 22  1  0  0  0  0
 23 22  1  6  0  0  0
 24 23  1  6  0  0  0
 24 26  1  0  0  0  0
 25 24  1  0  0  0  0
 25 26  1  0  0  0  0
 27 25  2  0  0  0  0
 28 23  1  6  0  0  0
 28 29  1  0  0  0  0
 28 30  1  0  0  0  0
 29 31  1  1  0  0  0
 29 30  1  0  0  0  0
 32 31  1  0  0  0  0
 32 34  1  0  0  0  0
 33 34  1  0  0  0  0
 33 35  1  0  0  0  0
 34 35  1  0  0  0  0
 37 41  1  0  0  0  0
 37 36  1  0  0  0  0
 38 41  2  0  0  0  0
 39 40  1  0  0  0  0
 39 38  1  0  0  0  0
 40 37  2  0  0  0  0
 42 38  1  0  0  0  0
 42 48  1  0  0  0  0
 43 46  1  0  0  0  0
 44 43  2  0  0  0  0
 46 45  1  0  0  0  0
 47 46  2  0  0  0  0
 48 47  1  0  0  0  0
 49 48  2  0  0  0  0
 49 44  1  0  0  0  0
M  END
>  <MODEL>
2

>  <REMARK>
 VINA RESULT:      -6.2      3.834     10.082
  Name = 
  18 active torsions:
  status: ('A' for Active; 'I' for Inactive)
    1  A    between atoms: C_1  and  C_2
    2  A    between atoms: C_2  and  C_43
    3  A    between atoms: N_3  and  C_21
    4  A    between atoms: N_3  and  C_41
    5  A    between atoms: C_5  and  N_45
    6  A    between atoms: C_9  and  C_25
    7  A    between atoms: C_9  and  C_44
    8  A    between atoms: O_12  and  C_24
    9  A    between atoms: O_12  and  C_28
   10  A    between atoms: C_14  and  C_31
   11  A    between atoms: C_17  and  C_31
   12  A    between atoms: C_17  and  C_39
   13  A    between atoms: C_21  and  C_22
   14  A    between atoms: C_24  and  C_25
   15  A    between atoms: C_29  and  C_31
   16  A    between atoms: C_32  and  N_45
   17  A    between atoms: C_39  and  C_43
   18  A    between atoms: C_43  and  C_47
                            x       y       z     vdW  Elec       q    Type
                         _______ _______ _______ _____ _____    ______ ____

>  <TORSDO>
F 18

$$$$
=
 OpenBabel11042420333D

 49 56  0  0  1  0  0  0  0  0999 V2000
  161.6250  207.1120  152.9130 C   0  0  2  0  0  3  0  0  0  0  0  0
  160.2380  207.7330  156.3870 C   0  0  0  0  0  2  0  0  0  0  0  0
  161.5380  208.5120  156.5800 C   0  0  0  0  0  2  0  0  0  0  0  0
  160.3280  206.8940  155.1170 C   0  0  0  0  0  2  0  0  0  0  0  0
  160.9700  209.2220  154.1810 C   0  0  0  0  0  2  0  0  0  0  0  0
  161.9270  209.3710  155.3670 C   0  0  1  0  0  3  0  0  0  0  0  0
  160.6210  207.7580  153.8740 C   0  0  1  0  0  3  0  0  0  0  0  0
  162.0150  210.8390  155.7600 C   0  0  0  0  0  2  0  0  0  0  0  0
  161.0460  211.1690  156.8850 C   0  0  0  0  0  2  0  0  0  0  0  0
  159.9680  212.1300  156.4100 C   0  0  0  0  0  2  0  0  0  0  0  0
  158.8400  211.4110  155.9680 O   0  0  0  0  0  0  0  0  0  0  0  0
  155.7210  212.5790  155.0690 N   0  0  0  0  0  2  0  0  0  0  0  0
  158.9420  211.8940  153.5800 C   0  0  0  0  0  2  0  0  0  0  0  0
  157.7220  213.9030  152.5940 C   0  0  0  0  0  2  0  0  0  0  0  0
  157.1160  214.3030  153.9420 C   0  0  2  0  0  3  0  0  0  0  0  0
  158.1870  213.8750  155.3710 S   0  0  0  0  0  0  0  0  0  0  0  0
  158.1820  212.0940  154.9150 C   0  0  2  0  0  0  0  0  0  0  0  0
  156.7270  211.5830  154.7170 C   0  0  0  0  0  2  0  0  0  0  0  0
  155.7390  213.6530  154.0760 C   0  0  0  0  0  2  0  0  0  0  0  0
  159.0500  213.1490  152.7090 C   0  0  0  0  0  2  0  0  0  0  0  0
  161.1160  207.2040  151.4830 C   0  0  0  0  0  2  0  0  0  0  0  0
  161.0500  208.6590  151.0450 C   0  0  0  0  0  2  0  0  0  0  0  0
  162.0920  209.0000  149.9700 C   0  0  1  0  0  3  0  0  0  0  0  0
  161.8350  208.5010  148.5330 C   0  0  2  0  0  3  0  0  0  0  0  0
  161.2060  207.1120  148.5110 C   0  0  0  0  0  0  0  0  0  0  0  0
  162.6580  207.4040  148.1170 C   0  0  0  0  0  2  0  0  0  0  0  0
  160.1880  206.2860  148.7070 C   0  0  0  0  0  2  0  0  0  0  0  0
  162.5220  210.4620  150.0100 C   0  0  1  0  0  3  0  0  0  0  0  0
  161.7460  211.2400  148.9620 C   0  0  1  0  0  3  0  0  0  0  0  0
  161.3570  211.3370  150.4210 C   0  0  0  0  0  2  0  0  0  0  0  0
  162.4950  212.4290  148.5930 N   0  0  0  0  0  2  0  0  0  0  0  0
  161.5380  213.3760  148.0620 C   0  0  0  0  0  2  0  0  0  0  0  0
  161.3090  214.1940  145.7470 C   0  0  0  0  0  2  0  0  0  0  0  0
  162.1960  214.2010  146.9750 C   0  0  0  0  0  3  0  0  0  0  0  0
  162.5300  213.3050  145.8030 C   0  0  0  0  0  2  0  0  0  0  0  0
  161.9170  205.6530  153.2670 C   0  0  0  0  0  2  0  0  0  0  0  0
  161.3190  204.7220  152.2680 C   0  0  0  0  0  0  0  0  0  0  0  0
  161.3440  203.2170  150.5170 C   0  0  0  0  0  0  0  0  0  0  0  0
  159.7410  203.3000  150.9940 S   0  0  0  0  0  0  0  0  0  0  0  0
  159.9590  204.4090  152.2440 C   0  0  0  0  0  3  0  0  0  0  0  0
  162.1030  204.0600  151.3140 C   0  0  0  0  0  3  0  0  0  0  0  0
  161.8150  202.4120  149.4270 N   0  0  0  0  0  2  0  0  0  0  0  0
  160.9210  202.9840  145.3230 C   0  0  0  0  0  3  0  0  0  0  0  0
  160.5320  201.7940  145.9530 C   0  0  0  0  0  3  0  0  0  0  0  0
  162.0680  205.4610  145.2650 Cl  0  0  0  0  0  0  0  0  0  0  0  0
  161.5900  203.9730  146.0510 C   0  0  0  0  0  0  0  0  0  0  0  0
  161.8770  203.7730  147.4040 C   0  0  0  0  0  3  0  0  0  0  0  0
  161.5040  202.5810  148.0380 C   0  0  0  0  0  0  0  0  0  0  0  0
  160.8200  201.5950  147.3050 C   0  0  0  0  0  3  0  0  0  0  0  0
  1 21  1  6  0  0  0
  1 36  1  0  0  0  0
  2  3  1  0  0  0  0
  4  2  1  0  0  0  0
  5  6  1  0  0  0  0
  6  8  1  1  0  0  0
  6  3  1  0  0  0  0
  7  1  1  1  0  0  0
  7  5  1  0  0  0  0
  7  4  1  0  0  0  0
  8  9  1  0  0  0  0
 10  9  1  0  0  0  0
 11 10  1  0  0  0  0
 13 17  1  0  0  0  0
 14 20  1  0  0  0  0
 15 14  1  6  0  0  0
 15 19  1  0  0  0  0
 15 16  1  0  0  0  0
 17 16  1  0  0  0  0
 17 11  1  1  0  0  0
 18 17  1  0  0  0  0
 18 12  1  0  0  0  0
 19 12  1  0  0  0  0
 20 13  1  0  0  0  0
 22 21  1  0  0  0  0
 23 22  1  1  0  0  0
 24 23  1  1  0  0  0
 25 24  1  0  0  0  0
 25 27  2  0  0  0  0
 26 25  1  0  0  0  0
 26 24  1  0  0  0  0
 28 23  1  6  0  0  0
 28 30  1  0  0  0  0
 29 31  1  1  0  0  0
 29 28  1  0  0  0  0
 29 30  1  0  0  0  0
 32 31  1  0  0  0  0
 33 35  1  0  0  0  0
 33 34  1  0  0  0  0
 34 32  1  0  0  0  0
 35 34  1  0  0  0  0
 37 36  1  0  0  0  0
 38 39  1  0  0  0  0
 38 41  2  0  0  0  0
 39 40  1  0  0  0  0
 40 37  2  0  0  0  0
 41 37  1  0  0  0  0
 42 38  1  0  0  0  0
 43 44  2  0  0  0  0
 43 46  1  0  0  0  0
 44 49  1  0  0  0  0
 45 46  1  0  0  0  0
 46 47  2  0  0  0  0
 47 48  1  0  0  0  0
 48 42  1  0  0  0  0
 49 48  2  0  0  0  0
M  END
>  <MODEL>
3

>  <REMARK>
 VINA RESULT:      -6.1      2.525      6.212
  Name = 
  18 active torsions:
  status: ('A' for Active; 'I' for Inactive)
    1  A    between atoms: C_1  and  C_2
    2  A    between atoms: C_2  and  C_43
    3  A    between atoms: N_3  and  C_21
    4  A    between atoms: N_3  and  C_41
    5  A    between atoms: C_5  and  N_45
    6  A    between atoms: C_9  and  C_25
    7  A    between atoms: C_9  and  C_44
    8  A    between atoms: O_12  and  C_24
    9  A    between atoms: O_12  and  C_28
   10  A    between atoms: C_14  and  C_31
   11  A    between atoms: C_17  and  C_31
   12  A    between atoms: C_17  and  C_39
   13  A    between atoms: C_21  and  C_22
   14  A    between atoms: C_24  and  C_25
   15  A    between atoms: C_29  and  C_31
   16  A    between atoms: C_32  and  N_45
   17  A    between atoms: C_39  and  C_43
   18  A    between atoms: C_43  and  C_47
                            x       y       z     vdW  Elec       q    Type
                         _______ _______ _______ _____ _____    ______ ____

>  <TORSDO>
F 18

$$$$
=
 OpenBabel11042420333D

 49 56  0  0  1  0  0  0  0  0999 V2000
  161.2710  213.0900  148.9970 C   0  0  2  0  0  3  0  0  0  0  0  0
  162.7640  214.2790  145.7200 C   0  0  0  0  0  2  0  0  0  0  0  0
  161.9970  213.0920  145.1380 C   0  0  0  0  0  2  0  0  0  0  0  0
  162.8000  214.1680  147.2400 C   0  0  0  0  0  2  0  0  0  0  0  0
  160.2550  213.9390  146.8200 C   0  0  0  0  0  2  0  0  0  0  0  0
  160.5860  212.9250  145.7220 C   0  0  1  0  0  3  0  0  0  0  0  0
  161.3850  214.0990  147.8490 C   0  0  1  0  0  3  0  0  0  0  0  0
  159.5400  213.0160  144.6210 C   0  0  0  0  0  2  0  0  0  0  0  0
  159.8220  212.0200  143.5060 C   0  0  0  0  0  2  0  0  0  0  0  0
  160.1190  212.7370  142.1990 C   0  0  0  0  0  2  0  0  0  0  0  0
  159.6880  211.9540  141.1100 O   0  0  0  0  0  0  0  0  0  0  0  0
  160.3830  213.2360  137.9840 N   0  0  0  0  0  2  0  0  0  0  0  0
  161.4780  210.5830  140.1800 C   0  0  0  0  0  2  0  0  0  0  0  0
  163.3270  211.6210  138.7650 C   0  0  0  0  0  2  0  0  0  0  0  0
  162.7110  213.0210  138.8360 C   0  0  2  0  0  3  0  0  0  0  0  0
  161.8000  213.3300  140.4000 S   0  0  0  0  0  0  0  0  0  0  0  0
  160.6770  211.9060  140.0960 C   0  0  2  0  0  0  0  0  0  0  0  0
  160.0510  211.9950  138.6760 C   0  0  0  0  0  2  0  0  0  0  0  0
  161.8010  213.2200  137.6240 C   0  0  0  0  0  2  0  0  0  0  0  0
  162.9870  210.7310  139.9640 C   0  0  0  0  0  2  0  0  0  0  0  0
  162.2010  211.9120  148.7540 C   0  0  0  0  0  2  0  0  0  0  0  0
  161.4130  210.6120  148.7760 C   0  0  0  0  0  2  0  0  0  0  0  0
  162.0610  209.5440  149.6710 C   0  0  1  0  0  3  0  0  0  0  0  0
  162.2500  209.8760  151.1660 C   0  0  2  0  0  3  0  0  0  0  0  0
  161.3200  209.0600  152.0580 C   0  0  0  0  0  0  0  0  0  0  0  0
  161.1470  210.5570  151.7780 C   0  0  0  0  0  2  0  0  0  0  0  0
  160.9430  207.9210  152.6220 C   0  0  0  0  0  2  0  0  0  0  0  0
  161.4680  208.1560  149.4550 C   0  0  1  0  0  3  0  0  0  0  0  0
  162.0080  207.5790  148.1590 C   0  0  1  0  0  3  0  0  0  0  0  0
  162.5620  207.1110  149.4870 C   0  0  0  0  0  2  0  0  0  0  0  0
  161.0820  206.5780  147.6560 N   0  0  0  0  0  2  0  0  0  0  0  0
  161.7380  205.9240  146.5440 C   0  0  0  0  0  2  0  0  0  0  0  0
  161.2280  204.3460  144.7200 C   0  0  0  0  0  2  0  0  0  0  0  0
  160.7040  205.5260  145.5120 C   0  0  0  0  0  3  0  0  0  0  0  0
  161.2760  205.7350  144.1270 C   0  0  0  0  0  2  0  0  0  0  0  0
  159.8390  212.5890  149.1940 C   0  0  0  0  0  2  0  0  0  0  0  0
  159.2300  213.1610  150.4290 C   0  0  0  0  0  0  0  0  0  0  0  0
  157.5100  213.6800  151.8800 C   0  0  0  0  0  0  0  0  0  0  0  0
  158.9030  214.1920  152.6580 S   0  0  0  0  0  0  0  0  0  0  0  0
  159.9880  213.7180  151.4600 C   0  0  0  0  0  3  0  0  0  0  0  0
  157.8480  213.1290  150.6530 C   0  0  0  0  0  3  0  0  0  0  0  0
  156.1900  213.8350  152.4170 N   0  0  0  0  0  2  0  0  0  0  0  0
  155.1470  213.7370  156.5250 C   0  0  0  0  0  3  0  0  0  0  0  0
  154.3180  214.4140  155.6200 C   0  0  0  0  0  3  0  0  0  0  0  0
  157.3330  212.2450  157.1970 Cl  0  0  0  0  0  0  0  0  0  0  0  0
  156.3020  213.0970  156.0680 C   0  0  0  0  0  0  0  0  0  0  0  0
  156.6340  213.1340  154.7100 C   0  0  0  0  0  3  0  0  0  0  0  0
  155.8180  213.8190  153.8010 C   0  0  0  0  0  0  0  0  0  0  0  0
  154.6500  214.4520  154.2640 C   0  0  0  0  0  3  0  0  0  0  0  0
  1 21  1  6  0  0  0
  1 36  1  0  0  0  0
  2  4  1  0  0  0  0
  3  2  1  0  0  0  0
  3  6  1  0  0  0  0
  4  7  1  0  0  0  0
  5  7  1  0  0  0  0
  6  8  1  6  0  0  0
  6  5  1  0  0  0  0
  7  1  1  1  0  0  0
  9  8  1  0  0  0  0
 10  9  1  0  0  0  0
 11 10  1  0  0  0  0
 12 18  1  0  0  0  0
 14 15  1  0  0  0  0
 14 20  1  0  0  0  0
 15 19  1  6  0  0  0
 15 16  1  0  0  0  0
 17 13  1  0  0  0  0
 17 16  1  0  0  0  0
 17 11  1  1  0  0  0
 18 17  1  0  0  0  0
 19 12  1  0  0  0  0
 20 13  1  0  0  0  0
 21 22  1  0  0  0  0
 23 22  1  1  0  0  0
 24 23  1  6  0  0  0
 24 26  1  0  0  0  0
 24 25  1  0  0  0  0
 25 27  2  0  0  0  0
 26 25  1  0  0  0  0
 28 30  1  0  0  0  0
 28 23  1  6  0  0  0
 29 31  1  1  0  0  0
 29 28  1  0  0  0  0
 29 30  1  0  0  0  0
 32 31  1  0  0  0  0
 33 34  1  0  0  0  0
 34 32  1  0  0  0  0
 35 33  1  0  0  0  0
 35 34  1  0  0  0  0
 36 37  1  0  0  0  0
 37 41  1  0  0  0  0
 37 40  2  0  0  0  0
 38 42  1  0  0  0  0
 38 39  1  0  0  0  0
 40 39  1  0  0  0  0
 41 38  2  0  0  0  0
 42 48  1  0  0  0  0
 44 43  2  0  0  0  0
 46 43  1  0  0  0  0
 46 45  1  0  0  0  0
 47 46  2  0  0  0  0
 48 49  2  0  0  0  0
 48 47  1  0  0  0  0
 49 44  1  0  0  0  0
M  END
>  <MODEL>
4

>  <REMARK>
 VINA RESULT:      -5.4      4.405     10.391
  Name = 
  18 active torsions:
  status: ('A' for Active; 'I' for Inactive)
    1  A    between atoms: C_1  and  C_2
    2  A    between atoms: C_2  and  C_43
    3  A    between atoms: N_3  and  C_21
    4  A    between atoms: N_3  and  C_41
    5  A    between atoms: C_5  and  N_45
    6  A    between atoms: C_9  and  C_25
    7  A    between atoms: C_9  and  C_44
    8  A    between atoms: O_12  and  C_24
    9  A    between atoms: O_12  and  C_28
   10  A    between atoms: C_14  and  C_31
   11  A    between atoms: C_17  and  C_31
   12  A    between atoms: C_17  and  C_39
   13  A    between atoms: C_21  and  C_22
   14  A    between atoms: C_24  and  C_25
   15  A    between atoms: C_29  and  C_31
   16  A    between atoms: C_32  and  N_45
   17  A    between atoms: C_39  and  C_43
   18  A    between atoms: C_43  and  C_47
                            x       y       z     vdW  Elec       q    Type
                         _______ _______ _______ _____ _____    ______ ____

>  <TORSDO>
F 18

$$$$
=
 OpenBabel11042420333D

 49 56  0  0  1  0  0  0  0  0999 V2000
  161.6320  208.6010  152.4340 C   0  0  2  0  0  3  0  0  0  0  0  0
  159.9860  211.8920  151.5180 C   0  0  0  0  0  2  0  0  0  0  0  0
  161.3660  212.2270  150.9500 C   0  0  0  0  0  2  0  0  0  0  0  0
  160.0810  210.6460  152.3900 C   0  0  0  0  0  2  0  0  0  0  0  0
  161.1880  209.7740  150.2170 C   0  0  0  0  0  2  0  0  0  0  0  0
  162.0190  211.0600  150.1940 C   0  0  1  0  0  3  0  0  0  0  0  0
  160.6440  209.4390  151.6140 C   0  0  1  0  0  3  0  0  0  0  0  0
  162.2980  211.4520  148.7500 C   0  0  0  0  0  2  0  0  0  0  0  0
  162.4220  212.9610  148.6000 C   0  0  0  0  0  2  0  0  0  0  0  0
  161.5990  213.4610  147.4240 C   0  0  0  0  0  2  0  0  0  0  0  0
  161.3190  212.3980  146.5440 O   0  0  0  0  0  0  0  0  0  0  0  0
  158.1950  213.8540  146.6980 N   0  0  0  0  0  2  0  0  0  0  0  0
  160.1420  211.7320  144.5150 C   0  0  0  0  0  2  0  0  0  0  0  0
  158.5830  213.3500  143.3100 C   0  0  0  0  0  2  0  0  0  0  0  0
  158.7810  214.4510  144.3550 C   0  0  2  0  0  3  0  0  0  0  0  0
  160.4470  214.4210  145.1290 S   0  0  0  0  0  0  0  0  0  0  0  0
  160.2030  212.6980  145.7230 C   0  0  2  0  0  0  0  0  0  0  0  0
  158.8640  212.5720  146.5030 C   0  0  0  0  0  2  0  0  0  0  0  0
  157.6840  214.3300  145.4130 C   0  0  0  0  0  2  0  0  0  0  0  0
  159.7720  212.3930  143.1830 C   0  0  0  0  0  2  0  0  0  0  0  0
  162.5310  207.7970  151.5100 C   0  0  0  0  0  2  0  0  0  0  0  0
  162.2360  206.3120  151.6560 C   0  0  0  0  0  2  0  0  0  0  0  0
  161.3130  205.7810  150.5490 C   0  0  1  0  0  3  0  0  0  0  0  0
  161.9230  205.5540  149.1500 C   0  0  2  0  0  3  0  0  0  0  0  0
  161.7270  206.7580  148.2350 C   0  0  0  0  0  0  0  0  0  0  0  0
  160.9690  205.4350  148.0870 C   0  0  0  0  0  2  0  0  0  0  0  0
  161.9950  208.0040  147.8690 C   0  0  0  0  0  2  0  0  0  0  0  0
  160.4580  204.6050  151.0090 C   0  0  1  0  0  3  0  0  0  0  0  0
  161.3270  203.3630  151.1040 C   0  0  1  0  0  3  0  0  0  0  0  0
  160.9330  204.1120  152.3580 C   0  0  0  0  0  2  0  0  0  0  0  0
  160.4910  202.1810  150.9780 N   0  0  0  0  0  2  0  0  0  0  0  0
  161.2120  201.2480  150.1390 C   0  0  0  0  0  2  0  0  0  0  0  0
  161.3320  200.5950  147.7650 C   0  0  0  0  0  2  0  0  0  0  0  0
  160.3940  200.9470  148.9010 C   0  0  0  0  0  3  0  0  0  0  0  0
  160.7120  201.9710  147.8340 C   0  0  0  0  0  2  0  0  0  0  0  0
  160.9280  207.6660  153.4180 C   0  0  0  0  0  2  0  0  0  0  0  0
  160.9710  208.2070  154.8070 C   0  0  0  0  0  0  0  0  0  0  0  0
  160.4550  209.6820  156.5070 C   0  0  0  0  0  0  0  0  0  0  0  0
  161.3790  208.4900  157.2340 S   0  0  0  0  0  0  0  0  0  0  0  0
  161.6220  207.5530  155.8550 C   0  0  0  0  0  3  0  0  0  0  0  0
  160.3120  209.3920  155.1580 C   0  0  0  0  0  3  0  0  0  0  0  0
  159.9370  210.8270  157.1970 N   0  0  0  0  0  2  0  0  0  0  0  0
  157.2790  213.7280  155.6170 C   0  0  0  0  0  3  0  0  0  0  0  0
  158.6210  214.0690  155.8320 C   0  0  0  0  0  3  0  0  0  0  0  0
  155.1570  212.0110  155.6390 Cl  0  0  0  0  0  0  0  0  0  0  0  0
  156.8300  212.4380  155.9160 C   0  0  0  0  0  0  0  0  0  0  0  0
  157.7180  211.4900  156.4340 C   0  0  0  0  0  3  0  0  0  0  0  0
  159.0570  211.8260  156.6650 C   0  0  0  0  0  0  0  0  0  0  0  0
  159.5070  213.1210  156.3510 C   0  0  0  0  0  3  0  0  0  0  0  0
  1 21  1  6  0  0  0
  1 36  1  0  0  0  0
  2  4  1  0  0  0  0
  3  2  1  0  0  0  0
  5  7  1  0  0  0  0
  6  8  1  6  0  0  0
  6  5  1  0  0  0  0
  6  3  1  0  0  0  0
  7  4  1  0  0  0  0
  7  1  1  1  0  0  0
  9  8  1  0  0  0  0
 10  9  1  0  0  0  0
 11 10  1  0  0  0  0
 13 17  1  0  0  0  0
 15 14  1  6  0  0  0
 15 16  1  0  0  0  0
 15 19  1  0  0  0  0
 16 17  1  0  0  0  0
 17 18  1  0  0  0  0
 17 11  1  1  0  0  0
 18 12  1  0  0  0  0
 19 12  1  0  0  0  0
 20 14  1  0  0  0  0
 20 13  1  0  0  0  0
 21 22  1  0  0  0  0
 23 22  1  1  0  0  0
 24 23  1  1  0  0  0
 25 24  1  0  0  0  0
 26 25  1  0  0  0  0
 26 24  1  0  0  0  0
 27 25  2  0  0  0  0
 28 23  1  6  0  0  0
 28 29  1  0  0  0  0
 28 30  1  0  0  0  0
 29 31  1  1  0  0  0
 29 30  1  0  0  0  0
 32 31  1  0  0  0  0
 33 35  1  0  0  0  0
 33 34  1  0  0  0  0
 34 32  1  0  0  0  0
 35 34  1  0  0  0  0
 36 37  1  0  0  0  0
 37 41  1  0  0  0  0
 37 40  2  0  0  0  0
 38 42  1  0  0  0  0
 38 39  1  0  0  0  0
 40 39  1  0  0  0  0
 41 38  2  0  0  0  0
 43 44  2  0  0  0  0
 43 46  1  0  0  0  0
 44 49  1  0  0  0  0
 45 46  1  0  0  0  0
 46 47  2  0  0  0  0
 47 48  1  0  0  0  0
 48 42  1  0  0  0  0
 49 48  2  0  0  0  0
M  END
>  <MODEL>
5

>  <REMARK>
 VINA RESULT:      -5.1      3.558      8.076
  Name = 
  18 active torsions:
  status: ('A' for Active; 'I' for Inactive)
    1  A    between atoms: C_1  and  C_2
    2  A    between atoms: C_2  and  C_43
    3  A    between atoms: N_3  and  C_21
    4  A    between atoms: N_3  and  C_41
    5  A    between atoms: C_5  and  N_45
    6  A    between atoms: C_9  and  C_25
    7  A    between atoms: C_9  and  C_44
    8  A    between atoms: O_12  and  C_24
    9  A    between atoms: O_12  and  C_28
   10  A    between atoms: C_14  and  C_31
   11  A    between atoms: C_17  and  C_31
   12  A    between atoms: C_17  and  C_39
   13  A    between atoms: C_21  and  C_22
   14  A    between atoms: C_24  and  C_25
   15  A    between atoms: C_29  and  C_31
   16  A    between atoms: C_32  and  N_45
   17  A    between atoms: C_39  and  C_43
   18  A    between atoms: C_43  and  C_47
                            x       y       z     vdW  Elec       q    Type
                         _______ _______ _______ _____ _____    ______ ____

>  <TORSDO>
F 18

$$$$
=
 OpenBabel11042420333D

 49 56  0  0  1  0  0  0  0  0999 V2000
  161.3240  208.8450  150.2030 C   0  0  2  0  0  3  0  0  0  0  0  0
  162.9460  210.3350  153.2890 C   0  0  0  0  0  2  0  0  0  0  0  0
  161.5140  210.3550  153.8230 C   0  0  0  0  0  2  0  0  0  0  0  0
  162.9300  210.0680  151.7880 C   0  0  0  0  0  2  0  0  0  0  0  0
  161.4910  208.0840  152.6290 C   0  0  0  0  0  2  0  0  0  0  0  0
  160.7160  209.0870  153.4880 C   0  0  1  0  0  3  0  0  0  0  0  0
  162.2150  208.7450  151.4460 C   0  0  1  0  0  3  0  0  0  0  0  0
  160.2480  208.4000  154.7630 C   0  0  0  0  0  2  0  0  0  0  0  0
  160.0850  209.3970  155.9000 C   0  0  0  0  0  2  0  0  0  0  0  0
  158.8080  210.2060  155.7360 C   0  0  0  0  0  2  0  0  0  0  0  0
  159.0730  211.3830  155.0100 O   0  0  0  0  0  0  0  0  0  0  0  0
  157.2130  213.6910  153.2440 N   0  0  0  0  0  2  0  0  0  0  0  0
  158.0060  212.8260  156.6620 C   0  0  0  0  0  2  0  0  0  0  0  0
  155.6370  213.6970  156.3100 C   0  0  0  0  0  2  0  0  0  0  0  0
  155.5080  213.0370  154.9340 C   0  0  2  0  0  3  0  0  0  0  0  0
  156.4650  211.4760  154.7900 S   0  0  0  0  0  0  0  0  0  0  0  0
  158.0400  212.3360  155.1930 C   0  0  2  0  0  0  0  0  0  0  0  0
  158.2340  213.5800  154.2800 C   0  0  0  0  0  2  0  0  0  0  0  0
  155.9350  214.0420  153.8640 C   0  0  0  0  0  2  0  0  0  0  0  0
  156.6030  212.9780  157.2560 C   0  0  0  0  0  2  0  0  0  0  0  0
  160.8640  207.4620  149.7740 C   0  0  0  0  0  2  0  0  0  0  0  0
  161.5750  207.0480  148.4960 C   0  0  0  0  0  2  0  0  0  0  0  0
  161.8500  205.5370  148.4350 C   0  0  1  0  0  3  0  0  0  0  0  0
  160.7690  204.5850  148.9870 C   0  0  2  0  0  3  0  0  0  0  0  0
  161.0360  204.1900  150.4350 C   0  0  0  0  0  0  0  0  0  0  0  0
  161.2160  203.2470  149.2410 C   0  0  0  0  0  2  0  0  0  0  0  0
  161.0920  204.4660  151.7310 C   0  0  0  0  0  2  0  0  0  0  0  0
  162.3810  205.0900  147.0780 C   0  0  1  0  0  3  0  0  0  0  0  0
  161.2120  204.7460  146.1720 C   0  0  1  0  0  3  0  0  0  0  0  0
  161.9430  206.0600  146.0010 C   0  0  0  0  0  2  0  0  0  0  0  0
  161.6570  203.8220  145.1440 N   0  0  0  0  0  2  0  0  0  0  0  0
  160.5150  203.0010  144.7990 C   0  0  0  0  0  2  0  0  0  0  0  0
  160.0400  200.5830  144.8700 C   0  0  0  0  0  2  0  0  0  0  0  0
  160.4870  201.7770  145.6890 C   0  0  0  0  0  3  0  0  0  0  0  0
  159.0660  201.2720  145.7970 C   0  0  0  0  0  2  0  0  0  0  0  0
  162.0240  209.5440  149.0370 C   0  0  0  0  0  2  0  0  0  0  0  0
  161.5760  210.9600  148.9050 C   0  0  0  0  0  0  0  0  0  0  0  0
  160.9890  212.8850  147.7710 C   0  0  0  0  0  0  0  0  0  0  0  0
  160.7310  213.2390  149.3880 S   0  0  0  0  0  0  0  0  0  0  0  0
  161.1990  211.7410  149.9990 C   0  0  0  0  0  3  0  0  0  0  0  0
  161.4580  211.5850  147.6570 C   0  0  0  0  0  3  0  0  0  0  0  0
  160.7790  213.8180  146.7030 N   0  0  0  0  0  2  0  0  0  0  0  0
  159.8920  212.8840  142.6640 C   0  0  0  0  0  3  0  0  0  0  0  0
  158.8800  213.3870  143.4920 C   0  0  0  0  0  3  0  0  0  0  0  0
  162.4470  212.0810  142.1330 Cl  0  0  0  0  0  0  0  0  0  0  0  0
  161.1820  212.7010  143.1700 C   0  0  0  0  0  0  0  0  0  0  0  0
  161.4620  213.0150  144.5030 C   0  0  0  0  0  3  0  0  0  0  0  0
  160.4540  213.5060  145.3420 C   0  0  0  0  0  0  0  0  0  0  0  0
  159.1600  213.7000  144.8250 C   0  0  0  0  0  3  0  0  0  0  0  0
  1 36  1  6  0  0  0
  2  3  1  0  0  0  0
  4  2  1  0  0  0  0
  5  6  1  0  0  0  0
  6  3  1  0  0  0  0
  6  8  1  1  0  0  0
  7  1  1  6  0  0  0
  7  4  1  0  0  0  0
  7  5  1  0  0  0  0
  8  9  1  0  0  0  0
 10  9  1  0  0  0  0
 11 10  1  0  0  0  0
 12 19  1  0  0  0  0
 12 18  1  0  0  0  0
 13 20  1  0  0  0  0
 14 20  1  0  0  0  0
 15 19  1  6  0  0  0
 15 14  1  0  0  0  0
 16 15  1  0  0  0  0
 16 17  1  0  0  0  0
 17 11  1  6  0  0  0
 17 13  1  0  0  0  0
 18 17  1  0  0  0  0
 21  1  1  0  0  0  0
 22 21  1  0  0  0  0
 23 22  1  6  0  0  0
 24 23  1  6  0  0  0
 24 26  1  0  0  0  0
 24 25  1  0  0  0  0
 25 27  2  0  0  0  0
 26 25  1  0  0  0  0
 28 23  1  1  0  0  0
 29 31  1  6  0  0  0
 29 28  1  0  0  0  0
 30 29  1  0  0  0  0
 30 28  1  0  0  0  0
 32 31  1  0  0  0  0
 32 34  1  0  0  0  0
 33 34  1  0  0  0  0
 33 35  1  0  0  0  0
 34 35  1  0  0  0  0
 37 36  1  0  0  0  0
 37 40  2  0  0  0  0
 38 39  1  0  0  0  0
 39 40  1  0  0  0  0
 41 38  2  0  0  0  0
 41 37  1  0  0  0  0
 42 38  1  0  0  0  0
 43 46  2  0  0  0  0
 43 44  1  0  0  0  0
 44 49  2  0  0  0  0
 45 46  1  0  0  0  0
 46 47  1  0  0  0  0
 47 48  2  0  0  0  0
 48 42  1  0  0  0  0
 49 48  1  0  0  0  0
M  END
>  <MODEL>
6

>  <REMARK>
 VINA RESULT:      -4.9      1.433      2.080
  Name = 
  18 active torsions:
  status: ('A' for Active; 'I' for Inactive)
    1  A    between atoms: C_1  and  C_2
    2  A    between atoms: C_2  and  C_43
    3  A    between atoms: N_3  and  C_21
    4  A    between atoms: N_3  and  C_41
    5  A    between atoms: C_5  and  N_45
    6  A    between atoms: C_9  and  C_25
    7  A    between atoms: C_9  and  C_44
    8  A    between atoms: O_12  and  C_24
    9  A    between atoms: O_12  and  C_28
   10  A    between atoms: C_14  and  C_31
   11  A    between atoms: C_17  and  C_31
   12  A    between atoms: C_17  and  C_39
   13  A    between atoms: C_21  and  C_22
   14  A    between atoms: C_24  and  C_25
   15  A    between atoms: C_29  and  C_31
   16  A    between atoms: C_32  and  N_45
   17  A    between atoms: C_39  and  C_43
   18  A    between atoms: C_43  and  C_47
                            x       y       z     vdW  Elec       q    Type
                         _______ _______ _______ _____ _____    ______ ____

>  <TORSDO>
F 18

$$$$
=
 OpenBabel11042420333D

 49 56  0  0  1  0  0  0  0  0999 V2000
  161.2350  210.8400  150.8130 C   0  0  2  0  0  3  0  0  0  0  0  0
  162.8440  212.5950  147.8610 C   0  0  0  0  0  2  0  0  0  0  0  0
  161.5110  212.2950  147.1760 C   0  0  0  0  0  2  0  0  0  0  0  0
  162.9460  211.7940  149.1540 C   0  0  0  0  0  2  0  0  0  0  0  0
  160.6540  212.9480  149.5040 C   0  0  0  0  0  2  0  0  0  0  0  0
  160.2900  212.5270  148.0780 C   0  0  1  0  0  3  0  0  0  0  0  0
  161.7760  212.0920  150.1120 C   0  0  1  0  0  3  0  0  0  0  0  0
  159.3670  213.5710  147.4660 C   0  0  0  0  0  2  0  0  0  0  0  0
  159.9240  214.1000  146.1520 C   0  0  0  0  0  2  0  0  0  0  0  0
  159.2700  213.4090  144.9670 C   0  0  0  0  0  2  0  0  0  0  0  0
  160.2330  212.6840  144.2390 O   0  0  0  0  0  0  0  0  0  0  0  0
  162.5530  213.3930  141.7850 N   0  0  0  0  0  2  0  0  0  0  0  0
  159.0730  214.0020  142.5470 C   0  0  0  0  0  2  0  0  0  0  0  0
  159.5800  213.6940  140.0670 C   0  0  0  0  0  2  0  0  0  0  0  0
  160.6730  212.6550  140.3330 C   0  0  2  0  0  3  0  0  0  0  0  0
  160.3600  211.6480  141.8370 S   0  0  0  0  0  0  0  0  0  0  0  0
  160.3150  213.1470  142.9020 C   0  0  2  0  0  0  0  0  0  0  0  0
  161.5790  214.0220  142.6700 C   0  0  0  0  0  2  0  0  0  0  0  0
  162.0210  213.3700  140.4230 C   0  0  0  0  0  2  0  0  0  0  0  0
  158.4980  213.7490  141.1500 C   0  0  0  0  0  2  0  0  0  0  0  0
  160.4170  211.2340  152.0310 C   0  0  0  0  0  2  0  0  0  0  0  0
  161.1450  210.8270  153.3030 C   0  0  0  0  0  2  0  0  0  0  0  0
  160.2570  210.9300  154.5510 C   0  0  1  0  0  3  0  0  0  0  0  0
  160.4880  209.9120  155.6870 C   0  0  2  0  0  3  0  0  0  0  0  0
  160.4520  208.4730  155.1840 C   0  0  0  0  0  0  0  0  0  0  0  0
  159.3460  209.1160  156.0270 C   0  0  0  0  0  2  0  0  0  0  0  0
  160.9730  207.4560  154.5110 C   0  0  0  0  0  2  0  0  0  0  0  0
  160.1320  212.3590  155.0690 C   0  0  1  0  0  3  0  0  0  0  0  0
  158.8900  212.4710  155.9340 C   0  0  1  0  0  3  0  0  0  0  0  0
  160.2560  212.3810  156.5770 C   0  0  0  0  0  2  0  0  0  0  0  0
  158.4470  213.8550  155.9610 N   0  0  0  0  0  2  0  0  0  0  0  0
  157.1990  213.8790  156.6940 C   0  0  0  0  0  2  0  0  0  0  0  0
  156.0030  214.0890  154.5490 C   0  0  0  0  0  2  0  0  0  0  0  0
  156.0980  213.2940  155.8350 C   0  0  0  0  0  3  0  0  0  0  0  0
  155.0040  214.3240  155.6590 C   0  0  0  0  0  2  0  0  0  0  0  0
  162.3480  209.8750  151.2230 C   0  0  0  0  0  2  0  0  0  0  0  0
  161.9970  208.4660  150.8810 C   0  0  0  0  0  0  0  0  0  0  0  0
  161.1670  206.7680  149.5550 C   0  0  0  0  0  0  0  0  0  0  0  0
  161.7780  205.9990  150.9130 S   0  0  0  0  0  0  0  0  0  0  0  0
  162.3190  207.3850  151.7030 C   0  0  0  0  0  3  0  0  0  0  0  0
  161.3600  208.1350  149.6790 C   0  0  0  0  0  3  0  0  0  0  0  0
  160.5240  206.0860  148.4710 N   0  0  0  0  0  2  0  0  0  0  0  0
  162.3830  203.9340  145.3270 C   0  0  0  0  0  3  0  0  0  0  0  0
  162.7120  205.2810  145.5270 C   0  0  0  0  0  3  0  0  0  0  0  0
  161.0500  201.6250  145.9200 Cl  0  0  0  0  0  0  0  0  0  0  0  0
  161.4540  203.3100  146.1650 C   0  0  0  0  0  0  0  0  0  0  0  0
  160.8500  204.0300  147.2000 C   0  0  0  0  0  3  0  0  0  0  0  0
  161.1630  205.3810  147.3990 C   0  0  0  0  0  0  0  0  0  0  0  0
  162.1070  206.0000  146.5610 C   0  0  0  0  0  3  0  0  0  0  0  0
  1 36  1  1  0  0  0
  1 21  1  0  0  0  0
  2  4  1  0  0  0  0
  3  2  1  0  0  0  0
  3  6  1  0  0  0  0
  4  7  1  0  0  0  0
  5  7  1  0  0  0  0
  6  8  1  6  0  0  0
  6  5  1  0  0  0  0
  7  1  1  6  0  0  0
  9  8  1  0  0  0  0
 10  9  1  0  0  0  0
 11 10  1  0  0  0  0
 12 18  1  0  0  0  0
 13 17  1  0  0  0  0
 14 20  1  0  0  0  0
 15 14  1  1  0  0  0
 15 19  1  0  0  0  0
 15 16  1  0  0  0  0
 16 17  1  0  0  0  0
 17 11  1  1  0  0  0
 18 17  1  0  0  0  0
 19 12  1  0  0  0  0
 20 13  1  0  0  0  0
 21 22  1  0  0  0  0
 23 22  1  6  0  0  0
 24 23  1  6  0  0  0
 24 26  1  0  0  0  0
 25 24  1  0  0  0  0
 25 26  1  0  0  0  0
 27 25  2  0  0  0  0
 28 23  1  1  0  0  0
 28 29  1  0  0  0  0
 28 30  1  0  0  0  0
 29 31  1  6  0  0  0
 29 30  1  0  0  0  0
 31 32  1  0  0  0  0
 33 35  1  0  0  0  0
 33 34  1  0  0  0  0
 34 32  1  0  0  0  0
 35 34  1  0  0  0  0
 37 36  1  0  0  0  0
 37 40  2  0  0  0  0
 38 41  2  0  0  0  0
 38 39  1  0  0  0  0
 39 40  1  0  0  0  0
 41 37  1  0  0  0  0
 42 38  1  0  0  0  0
 43 44  2  0  0  0  0
 43 46  1  0  0  0  0
 44 49  1  0  0  0  0
 45 46  1  0  0  0  0
 46 47  2  0  0  0  0
 47 48  1  0  0  0  0
 48 42  1  0  0  0  0
 49 48  2  0  0  0  0
M  END
>  <MODEL>
7

>  <REMARK>
 VINA RESULT:      -4.8      3.502     10.044
  Name = 
  18 active torsions:
  status: ('A' for Active; 'I' for Inactive)
    1  A    between atoms: C_1  and  C_2
    2  A    between atoms: C_2  and  C_43
    3  A    between atoms: N_3  and  C_21
    4  A    between atoms: N_3  and  C_41
    5  A    between atoms: C_5  and  N_45
    6  A    between atoms: C_9  and  C_25
    7  A    between atoms: C_9  and  C_44
    8  A    between atoms: O_12  and  C_24
    9  A    between atoms: O_12  and  C_28
   10  A    between atoms: C_14  and  C_31
   11  A    between atoms: C_17  and  C_31
   12  A    between atoms: C_17  and  C_39
   13  A    between atoms: C_21  and  C_22
   14  A    between atoms: C_24  and  C_25
   15  A    between atoms: C_29  and  C_31
   16  A    between atoms: C_32  and  N_45
   17  A    between atoms: C_39  and  C_43
   18  A    between atoms: C_43  and  C_47
                            x       y       z     vdW  Elec       q    Type
                         _______ _______ _______ _____ _____    ______ ____

>  <TORSDO>
F 18

$$$$
=
 OpenBabel11042420333D

 49 56  0  0  1  0  0  0  0  0999 V2000
  161.6920  209.1180  151.5280 C   0  0  2  0  0  3  0  0  0  0  0  0
  162.2720  206.8700  148.5300 C   0  0  0  0  0  2  0  0  0  0  0  0
  162.4000  205.7770  149.5900 C   0  0  0  0  0  2  0  0  0  0  0  0
  162.3160  208.2400  149.1980 C   0  0  0  0  0  2  0  0  0  0  0  0
  160.4440  207.1070  150.5850 C   0  0  0  0  0  2  0  0  0  0  0  0
  161.3590  205.8860  150.7150 C   0  0  1  0  0  3  0  0  0  0  0  0
  161.2120  208.3980  150.2630 C   0  0  1  0  0  3  0  0  0  0  0  0
  160.5090  204.6250  150.7770 C   0  0  0  0  0  2  0  0  0  0  0  0
  161.2230  203.5140  151.5330 C   0  0  0  0  0  2  0  0  0  0  0  0
  161.4710  202.3160  150.6310 C   0  0  0  0  0  2  0  0  0  0  0  0
  160.3860  202.1410  149.7510 O   0  0  0  0  0  0  0  0  0  0  0  0
  161.3160  199.7280  147.4670 N   0  0  0  0  0  2  0  0  0  0  0  0
  161.5360  203.3040  147.9410 C   0  0  0  0  0  2  0  0  0  0  0  0
  161.2490  202.5700  145.5170 C   0  0  0  0  0  2  0  0  0  0  0  0
  160.3460  201.3920  145.8920 C   0  0  2  0  0  3  0  0  0  0  0  0
  159.3340  201.7080  147.3920 S   0  0  0  0  0  0  0  0  0  0  0  0
  160.8340  202.0070  148.4120 C   0  0  2  0  0  0  0  0  0  0  0  0
  161.8440  200.8340  148.2580 C   0  0  0  0  0  2  0  0  0  0  0  0
  161.2110  200.1440  146.0680 C   0  0  0  0  0  2  0  0  0  0  0  0
  161.1970  203.7340  146.5110 C   0  0  0  0  0  2  0  0  0  0  0  0
  160.5030  209.5420  152.3740 C   0  0  0  0  0  2  0  0  0  0  0  0
  160.7120  209.1170  153.8190 C   0  0  0  0  0  2  0  0  0  0  0  0
  159.9210  209.9850  154.8100 C   0  0  1  0  0  3  0  0  0  0  0  0
  159.7980  209.4870  156.2650 C   0  0  2  0  0  3  0  0  0  0  0  0
  161.0650  208.7830  156.7390 C   0  0  0  0  0  0  0  0  0  0  0  0
  159.7530  208.0620  156.4140 C   0  0  0  0  0  2  0  0  0  0  0  0
  162.3360  208.7920  157.1190 C   0  0  0  0  0  2  0  0  0  0  0  0
  160.2970  211.4600  154.7300 C   0  0  1  0  0  3  0  0  0  0  0  0
  159.1180  212.3020  155.1840 C   0  0  1  0  0  3  0  0  0  0  0  0
  160.2910  212.0760  156.1120 C   0  0  0  0  0  2  0  0  0  0  0  0
  159.2240  213.6300  154.6050 N   0  0  0  0  0  2  0  0  0  0  0  0
  157.8820  214.0400  154.2520 C   0  0  0  0  0  2  0  0  0  0  0  0
  155.5820  213.2260  153.8920 C   0  0  0  0  0  2  0  0  0  0  0  0
  156.9200  212.9040  154.5280 C   0  0  0  0  0  3  0  0  0  0  0  0
  155.7780  213.4130  155.3790 C   0  0  0  0  0  2  0  0  0  0  0  0
  162.5650  210.3340  151.2120 C   0  0  0  0  0  2  0  0  0  0  0  0
  161.7780  211.4050  150.5370 C   0  0  0  0  0  0  0  0  0  0  0  0
  161.2200  212.8350  148.8110 C   0  0  0  0  0  0  0  0  0  0  0  0
  160.0570  213.1000  149.9870 S   0  0  0  0  0  0  0  0  0  0  0  0
  160.6400  211.9820  151.1040 C   0  0  0  0  0  3  0  0  0  0  0  0
  162.1090  211.8680  149.2570 C   0  0  0  0  0  3  0  0  0  0  0  0
  161.2740  213.5420  147.5650 N   0  0  0  0  0  2  0  0  0  0  0  0
  159.7440  212.2810  143.8180 C   0  0  0  0  0  3  0  0  0  0  0  0
  158.8740  212.4090  144.9090 C   0  0  0  0  0  3  0  0  0  0  0  0
  162.1860  212.4240  142.6050 Cl  0  0  0  0  0  0  0  0  0  0  0  0
  161.1020  212.5760  143.9700 C   0  0  0  0  0  0  0  0  0  0  0  0
  161.5940  212.9930  145.2100 C   0  0  0  0  0  3  0  0  0  0  0  0
  160.7340  213.1110  146.3090 C   0  0  0  0  0  0  0  0  0  0  0  0
  159.3660  212.8250  146.1480 C   0  0  0  0  0  3  0  0  0  0  0  0
  1 36  1  6  0  0  0
  1 21  1  0  0  0  0
  2  4  1  0  0  0  0
  2  3  1  0  0  0  0
  3  6  1  0  0  0  0
  4  7  1  0  0  0  0
  5  6  1  0  0  0  0
  6  8  1  6  0  0  0
  7  5  1  0  0  0  0
  7  1  1  1  0  0  0
  8  9  1  0  0  0  0
 10  9  1  0  0  0  0
 11 10  1  0  0  0  0
 12 18  1  0  0  0  0
 13 17  1  0  0  0  0
 14 20  1  0  0  0  0
 15 14  1  1  0  0  0
 15 19  1  0  0  0  0
 15 16  1  0  0  0  0
 16 17  1  0  0  0  0
 17 11  1  1  0  0  0
 18 17  1  0  0  0  0
 19 12  1  0  0  0  0
 20 13  1  0  0  0  0
 21 22  1  0  0  0  0
 23 22  1  6  0  0  0
 24 23  1  6  0  0  0
 24 26  1  0  0  0  0
 24 25  1  0  0  0  0
 25 27  2  0  0  0  0
 26 25  1  0  0  0  0
 28 23  1  1  0  0  0
 28 29  1  0  0  0  0
 28 30  1  0  0  0  0
 29 31  1  6  0  0  0
 29 30  1  0  0  0  0
 32 34  1  0  0  0  0
 32 31  1  0  0  0  0
 33 34  1  0  0  0  0
 33 35  1  0  0  0  0
 34 35  1  0  0  0  0
 37 40  2  0  0  0  0
 37 36  1  0  0  0  0
 38 41  2  0  0  0  0
 38 39  1  0  0  0  0
 39 40  1  0  0  0  0
 41 37  1  0  0  0  0
 42 38  1  0  0  0  0
 43 46  2  0  0  0  0
 43 44  1  0  0  0  0
 44 49  2  0  0  0  0
 45 46  1  0  0  0  0
 46 47  1  0  0  0  0
 47 48  2  0  0  0  0
 48 42  1  0  0  0  0
 49 48  1  0  0  0  0
M  END
>  <MODEL>
8

>  <REMARK>
 VINA RESULT:      -4.6      3.027      9.269
  Name = 
  18 active torsions:
  status: ('A' for Active; 'I' for Inactive)
    1  A    between atoms: C_1  and  C_2
    2  A    between atoms: C_2  and  C_43
    3  A    between atoms: N_3  and  C_21
    4  A    between atoms: N_3  and  C_41
    5  A    between atoms: C_5  and  N_45
    6  A    between atoms: C_9  and  C_25
    7  A    between atoms: C_9  and  C_44
    8  A    between atoms: O_12  and  C_24
    9  A    between atoms: O_12  and  C_28
   10  A    between atoms: C_14  and  C_31
   11  A    between atoms: C_17  and  C_31
   12  A    between atoms: C_17  and  C_39
   13  A    between atoms: C_21  and  C_22
   14  A    between atoms: C_24  and  C_25
   15  A    between atoms: C_29  and  C_31
   16  A    between atoms: C_32  and  N_45
   17  A    between atoms: C_39  and  C_43
   18  A    between atoms: C_43  and  C_47
                            x       y       z     vdW  Elec       q    Type
                         _______ _______ _______ _____ _____    ______ ____

>  <TORSDO>
F 18

$$$$
=
 OpenBabel11042420333D

 49 56  0  0  1  0  0  0  0  0999 V2000
  160.6080  209.1100  152.0490 C   0  0  2  0  0  3  0  0  0  0  0  0
  163.1760  206.5850  150.8590 C   0  0  0  0  0  2  0  0  0  0  0  0
  162.3610  205.6120  151.7110 C   0  0  0  0  0  2  0  0  0  0  0  0
  162.7630  208.0170  151.1820 C   0  0  0  0  0  2  0  0  0  0  0  0
  160.4480  206.9710  150.6730 C   0  0  0  0  0  2  0  0  0  0  0  0
  160.8420  205.8020  151.5790 C   0  0  1  0  0  3  0  0  0  0  0  0
  161.2550  208.2470  150.9580 C   0  0  1  0  0  3  0  0  0  0  0  0
  160.1890  204.5260  151.0660 C   0  0  0  0  0  2  0  0  0  0  0  0
  161.1950  203.6410  150.3450 C   0  0  0  0  0  2  0  0  0  0  0  0
  160.8170  203.4650  148.8830 C   0  0  0  0  0  2  0  0  0  0  0  0
  161.9730  203.2440  148.1090 O   0  0  0  0  0  0  0  0  0  0  0  0
  160.0550  203.0260  145.2500 N   0  0  0  0  0  2  0  0  0  0  0  0
  163.1910  204.4350  146.3640 C   0  0  0  0  0  2  0  0  0  0  0  0
  161.9590  205.8300  144.6210 C   0  0  0  0  0  2  0  0  0  0  0  0
  160.5810  205.4570  145.1740 C   0  0  2  0  0  3  0  0  0  0  0  0
  160.5860  205.1600  146.9860 S   0  0  0  0  0  0  0  0  0  0  0  0
  161.8420  203.8280  146.8240 C   0  0  2  0  0  0  0  0  0  0  0  0
  161.4000  202.7850  145.7590 C   0  0  0  0  0  2  0  0  0  0  0  0
  160.0640  204.2320  144.4200 C   0  0  0  0  0  2  0  0  0  0  0  0
  163.0780  205.7940  145.6670 C   0  0  0  0  0  2  0  0  0  0  0  0
  161.1870  210.5140  152.0180 C   0  0  0  0  0  2  0  0  0  0  0  0
  161.1350  211.0700  150.6040 C   0  0  0  0  0  2  0  0  0  0  0  0
  160.3950  212.4140  150.5240 C   0  0  1  0  0  3  0  0  0  0  0  0
  160.0770  213.1410  151.8470 C   0  0  2  0  0  3  0  0  0  0  0  0
  158.5910  213.0960  152.1850 C   0  0  0  0  0  0  0  0  0  0  0  0
  159.3240  214.3530  151.7050 C   0  0  0  0  0  2  0  0  0  0  0  0
  157.4990  212.4510  152.5730 C   0  0  0  0  0  2  0  0  0  0  0  0
  160.9850  213.3500  149.4750 C   0  0  1  0  0  3  0  0  0  0  0  0
  160.4960  212.9310  148.1000 C   0  0  1  0  0  3  0  0  0  0  0  0
  159.8820  214.1290  148.7910 C   0  0  0  0  0  2  0  0  0  0  0  0
  161.4340  213.3960  147.0930 N   0  0  0  0  0  2  0  0  0  0  0  0
  160.6720  213.6160  145.8830 C   0  0  0  0  0  2  0  0  0  0  0  0
  159.7010  212.4030  143.9680 C   0  0  0  0  0  2  0  0  0  0  0  0
  160.0370  212.3140  145.4430 C   0  0  0  0  0  3  0  0  0  0  0  0
  158.6140  212.5770  145.0030 C   0  0  0  0  0  2  0  0  0  0  0  0
  160.7770  208.5090  153.4450 C   0  0  0  0  0  2  0  0  0  0  0  0
  160.9440  209.5720  154.4770 C   0  0  0  0  0  0  0  0  0  0  0  0
  160.4030  211.5140  155.6020 C   0  0  0  0  0  0  0  0  0  0  0  0
  161.7190  210.8870  156.4270 S   0  0  0  0  0  0  0  0  0  0  0  0
  161.9250  209.5180  155.4680 C   0  0  0  0  0  3  0  0  0  0  0  0
  160.0860  210.6770  154.5440 C   0  0  0  0  0  3  0  0  0  0  0  0
  159.7540  212.7450  155.9470 N   0  0  0  0  0  2  0  0  0  0  0  0
  155.5660  213.3650  156.1650 C   0  0  0  0  0  3  0  0  0  0  0  0
  156.4100  214.4530  155.9070 C   0  0  0  0  0  3  0  0  0  0  0  0
  155.0510  210.7290  156.6540 Cl  0  0  0  0  0  0  0  0  0  0  0  0
  156.1070  212.0880  156.3400 C   0  0  0  0  0  0  0  0  0  0  0  0
  157.4890  211.8970  156.2640 C   0  0  0  0  0  3  0  0  0  0  0  0
  158.3420  212.9800  156.0190 C   0  0  0  0  0  0  0  0  0  0  0  0
  157.7920  214.2610  155.8310 C   0  0  0  0  0  3  0  0  0  0  0  0
  1 21  1  1  0  0  0
  1 36  1  0  0  0  0
  2  4  1  0  0  0  0
  2  3  1  0  0  0  0
  5  7  1  0  0  0  0
  5  6  1  0  0  0  0
  6  8  1  6  0  0  0
  6  3  1  0  0  0  0
  7  4  1  0  0  0  0
  7  1  1  1  0  0  0
  9  8  1  0  0  0  0
 10  9  1  0  0  0  0
 11 10  1  0  0  0  0
 12 18  1  0  0  0  0
 13 17  1  0  0  0  0
 14 15  1  0  0  0  0
 14 20  1  0  0  0  0
 15 19  1  6  0  0  0
 15 16  1  0  0  0  0
 17 16  1  0  0  0  0
 17 11  1  1  0  0  0
 18 17  1  0  0  0  0
 19 12  1  0  0  0  0
 20 13  1  0  0  0  0
 22 21  1  0  0  0  0
 23 22  1  1  0  0  0
 24 23  1  6  0  0  0
 24 25  1  0  0  0  0
 25 27  2  0  0  0  0
 26 24  1  0  0  0  0
 26 25  1  0  0  0  0
 28 23  1  1  0  0  0
 29 31  1  6  0  0  0
 29 30  1  0  0  0  0
 29 28  1  0  0  0  0
 30 28  1  0  0  0  0
 32 31  1  0  0  0  0
 33 35  1  0  0  0  0
 33 34  1  0  0  0  0
 34 32  1  0  0  0  0
 35 34  1  0  0  0  0
 36 37  1  0  0  0  0
 37 41  1  0  0  0  0
 37 40  2  0  0  0  0
 38 42  1  0  0  0  0
 38 39  1  0  0  0  0
 40 39  1  0  0  0  0
 41 38  2  0  0  0  0
 42 48  1  0  0  0  0
 43 46  1  0  0  0  0
 44 43  2  0  0  0  0
 46 45  1  0  0  0  0
 47 46  2  0  0  0  0
 48 47  1  0  0  0  0
 49 44  1  0  0  0  0
 49 48  2  0  0  0  0
M  END
>  <MODEL>
9

>  <REMARK>
 VINA RESULT:      -4.6      3.639      9.833
  Name = 
  18 active torsions:
  status: ('A' for Active; 'I' for Inactive)
    1  A    between atoms: C_1  and  C_2
    2  A    between atoms: C_2  and  C_43
    3  A    between atoms: N_3  and  C_21
    4  A    between atoms: N_3  and  C_41
    5  A    between atoms: C_5  and  N_45
    6  A    between atoms: C_9  and  C_25
    7  A    between atoms: C_9  and  C_44
    8  A    between atoms: O_12  and  C_24
    9  A    between atoms: O_12  and  C_28
   10  A    between atoms: C_14  and  C_31
   11  A    between atoms: C_17  and  C_31
   12  A    between atoms: C_17  and  C_39
   13  A    between atoms: C_21  and  C_22
   14  A    between atoms: C_24  and  C_25
   15  A    between atoms: C_29  and  C_31
   16  A    between atoms: C_32  and  N_45
   17  A    between atoms: C_39  and  C_43
   18  A    between atoms: C_43  and  C_47
                            x       y       z     vdW  Elec       q    Type
                         _______ _______ _______ _____ _____    ______ ____

>  <TORSDO>
F 18

$$$$
