=
 OpenBabel11052412033D

 40 43  0  0  1  0  0  0  0  0999 V2000
  162.1290  207.5720  147.9010 C   0  0  0  0  0  3  0  0  0  0  0  0
  161.2230  207.5590  150.1540 C   0  0  0  0  0  0  0  0  0  0  0  0
  160.8820  206.2070  149.9920 C   0  0  0  0  0  3  0  0  0  0  0  0
  161.8520  208.2450  149.1020 C   0  0  0  0  0  0  0  0  0  0  0  0
  161.7770  206.2290  147.7440 C   0  0  0  0  0  0  0  0  0  0  0  0
  161.1580  205.5440  148.7940 C   0  0  0  0  0  3  0  0  0  0  0  0
  161.7310  206.6750  152.9190 O   0  0  0  0  0  0  0  0  0  0  0  0
  160.9520  208.2600  151.3770 N   0  0  0  0  0  2  0  0  0  0  0  0
  161.2150  207.8070  152.7130 C   0  0  0  0  0  0  0  0  0  0  0  0
  160.8760  208.6730  153.8560 C   0  0  0  0  0  0  0  0  0  0  0  0
  160.4030  209.9760  153.6530 C   0  0  0  0  0  3  0  0  0  0  0  0
  160.0940  210.7680  154.7160 N   0  0  0  0  0  0  0  0  0  0  0  0
  160.2300  210.3280  155.9950 C   0  0  0  0  0  0  0  0  0  0  0  0
  161.0210  208.2090  155.1690 C   0  0  0  0  0  3  0  0  0  0  0  0
  160.6970  209.0360  156.2450 C   0  0  0  0  0  3  0  0  0  0  0  0
  159.8960  211.1850  157.0800 N   0  0  0  0  0  1  0  0  0  0  0  0
  162.1930  209.5890  149.2730 O   0  0  0  0  0  0  0  0  0  0  0  0
  161.7290  210.6240  148.4070 C   0  0  0  0  0  2  0  0  0  0  0  0
  162.2950  211.9220  148.7750 N   0  0  0  0  0  0  0  0  0  0  0  0
  163.4650  212.2160  147.9490 C   0  0  0  0  0  1  0  0  0  0  0  0
  161.2690  212.9780  148.7060 C   0  0  2  0  0  3  0  0  0  0  0  0
  160.4230  213.1020  149.9720 C   0  0  0  0  0  1  0  0  0  0  0  0
  160.3640  212.7690  147.5010 C   0  0  0  0  0  2  0  0  0  0  0  0
  160.5920  213.8200  146.5230 N   0  0  0  0  0  2  0  0  0  0  0  0
  162.1530  214.3440  144.2840 S   0  0  0  0  0  0  0  0  0  0  0  0
  161.2350  211.6890  140.8690 C   0  0  0  0  0  3  0  0  0  0  0  0
  160.3790  212.5390  144.3960 C   0  0  0  0  0  0  0  0  0  0  0  0
  160.9600  213.5330  145.1750 C   0  0  0  0  0  0  0  0  0  0  0  0
  160.5630  211.5940  142.0980 C   0  0  0  0  0  3  0  0  0  0  0  0
  160.9280  212.4780  143.1130 C   0  0  0  0  0  0  0  0  0  0  0  0
  162.2150  212.6240  140.6820 N   0  0  0  0  0  0  0  0  0  0  0  0
  162.5790  213.4930  141.6680 C   0  0  0  0  0  0  0  0  0  0  0  0
  159.3900  211.7200  144.8350 F   0  0  0  0  0  0  0  0  0  0  0  0
  161.9250  213.4170  142.8960 C   0  0  0  0  0  0  0  0  0  0  0  0
  163.6030  214.4530  141.4380 N   0  0  0  0  0  1  0  0  0  0  0  0
  162.0950  205.5170  146.4770 C   0  0  0  0  0  2  0  0  0  0  0  0
  162.1470  204.0860  146.7180 N   0  0  0  0  0  2  0  0  0  0  0  0
  161.3360  203.4590  145.6870 C   0  0  0  0  0  2  0  0  0  0  0  0
  160.9050  202.0750  146.1340 C   0  0  0  0  0  2  0  0  0  0  0  0
  160.9230  201.9810  147.6470 C   0  0  0  0  0  1  0  0  0  0  0  0
  1  4  1  0  0  0  0
  2  8  1  0  0  0  0
  3  2  1  0  0  0  0
  4 17  1  0  0  0  0
  4  2  2  0  0  0  0
  5  1  2  0  0  0  0
  5  6  1  0  0  0  0
  6  3  2  0  0  0  0
  8  9  1  0  0  0  0
  9  7  2  0  0  0  0
  9 10  1  0  0  0  0
 10 14  1  0  0  0  0
 11 10  2  0  0  0  0
 11 12  1  0  0  0  0
 12 13  2  0  0  0  0
 13 15  1  0  0  0  0
 13 16  1  0  0  0  0
 14 15  2  0  0  0  0
 18 19  1  0  0  0  0
 18 17  1  0  0  0  0
 20 19  1  0  0  0  0
 21 19  1  0  0  0  0
 21 22  1  1  0  0  0
 23 21  1  0  0  0  0
 24 23  1  0  0  0  0
 25 28  1  0  0  0  0
 26 29  1  0  0  0  0
 27 33  1  0  0  0  0
 27 28  2  0  0  0  0
 28 24  1  0  0  0  0
 29 30  2  0  0  0  0
 30 27  1  0  0  0  0
 31 26  2  0  0  0  0
 31 32  1  0  0  0  0
 32 34  2  0  0  0  0
 34 30  1  0  0  0  0
 34 25  1  0  0  0  0
 35 32  1  0  0  0  0
 36 37  1  0  0  0  0
 36  5  1  0  0  0  0
 38 39  1  0  0  0  0
 38 37  1  0  0  0  0
 39 40  1  0  0  0  0
M  END
>  <MODEL>
1

>  <REMARK>
 VINA RESULT:      -7.7      0.000      0.000
  Name = 
  13 active torsions:
  status: ('A' for Active; 'I' for Inactive)
    1  A    between atoms: C_2  and  N_7
    2  A    between atoms: C_8  and  C_29
    3  A    between atoms: C_9  and  N_17
    4  A    between atoms: C_11  and  O_24
    5  A    between atoms: N_12  and  C_20
    6  A    between atoms: N_12  and  C_26
    7  A    between atoms: C_15  and  C_38
    8  A    between atoms: N_17  and  C_25
    9  A    between atoms: C_20  and  C_25
   10  A    between atoms: O_24  and  C_26
   11  A    between atoms: N_32  and  C_34
   12  A    between atoms: N_32  and  C_38
   13  A    between atoms: C_34  and  C_35
                            x       y       z     vdW  Elec       q    Type
                         _______ _______ _______ _____ _____    ______ ____

>  <TORSDO>
F 13

$$$$
=
 OpenBabel11052412033D

 40 43  0  0  1  0  0  0  0  0999 V2000
  159.2310  212.0830  153.8330 C   0  0  0  0  0  3  0  0  0  0  0  0
  159.6760  213.1930  151.7190 C   0  0  0  0  0  0  0  0  0  0  0  0
  159.0610  214.3520  152.2170 C   0  0  0  0  0  3  0  0  0  0  0  0
  159.7620  212.0510  152.5330 C   0  0  0  0  0  0  0  0  0  0  0  0
  158.6130  213.2380  154.3170 C   0  0  0  0  0  0  0  0  0  0  0  0
  158.5330  214.3760  153.5090 C   0  0  0  0  0  3  0  0  0  0  0  0
  158.3400  213.7840  149.1600 O   0  0  0  0  0  0  0  0  0  0  0  0
  160.2280  213.1450  150.3940 N   0  0  0  0  0  2  0  0  0  0  0  0
  159.5550  213.4430  149.1630 C   0  0  0  0  0  0  0  0  0  0  0  0
  160.2900  213.3490  147.8900 C   0  0  0  0  0  0  0  0  0  0  0  0
  161.6660  213.6040  147.8350 C   0  0  0  0  0  3  0  0  0  0  0  0
  162.3350  213.5150  146.6540 N   0  0  0  0  0  0  0  0  0  0  0  0
  161.7000  213.1780  145.5000 C   0  0  0  0  0  0  0  0  0  0  0  0
  159.6250  213.0020  146.7070 C   0  0  0  0  0  3  0  0  0  0  0  0
  160.3290  212.9150  145.5060 C   0  0  0  0  0  3  0  0  0  0  0  0
  162.4340  213.0940  144.2840 N   0  0  0  0  0  1  0  0  0  0  0  0
  160.3800  210.9020  152.0320 O   0  0  0  0  0  0  0  0  0  0  0  0
  160.5280  209.7050  152.7930 C   0  0  0  0  0  2  0  0  0  0  0  0
  160.9090  208.5750  151.9450 N   0  0  0  0  0  0  0  0  0  0  0  0
  162.2210  208.8140  151.3450 C   0  0  0  0  0  1  0  0  0  0  0  0
  160.8490  207.3120  152.7000 C   0  0  2  0  0  3  0  0  0  0  0  0
  161.0650  207.4790  154.2040 C   0  0  0  0  0  1  0  0  0  0  0  0
  161.8470  206.3060  152.1470 C   0  0  0  0  0  2  0  0  0  0  0  0
  161.1480  205.1180  151.6860 N   0  0  0  0  0  2  0  0  0  0  0  0
  161.5780  205.6620  148.9940 S   0  0  0  0  0  0  0  0  0  0  0  0
  161.0820  202.1100  146.4070 C   0  0  0  0  0  3  0  0  0  0  0  0
  160.9660  203.3790  149.9090 C   0  0  0  0  0  0  0  0  0  0  0  0
  161.2090  204.6830  150.3280 C   0  0  0  0  0  0  0  0  0  0  0  0
  160.9110  202.0570  147.7990 C   0  0  0  0  0  3  0  0  0  0  0  0
  161.0910  203.2330  148.5260 C   0  0  0  0  0  0  0  0  0  0  0  0
  161.4130  203.2850  145.7900 N   0  0  0  0  0  0  0  0  0  0  0  0
  161.5920  204.4410  146.4930 C   0  0  0  0  0  0  0  0  0  0  0  0
  160.6440  202.3660  150.7510 F   0  0  0  0  0  0  0  0  0  0  0  0
  161.4270  204.4110  147.8750 C   0  0  0  0  0  0  0  0  0  0  0  0
  161.9360  205.6450  145.8180 N   0  0  0  0  0  1  0  0  0  0  0  0
  158.0730  213.2700  155.7030 C   0  0  0  0  0  2  0  0  0  0  0  0
  156.6320  213.0870  155.6730 N   0  0  0  0  0  2  0  0  0  0  0  0
  156.3000  212.2090  156.7830 C   0  0  0  0  0  2  0  0  0  0  0  0
  155.2250  211.2240  156.3620 C   0  0  0  0  0  2  0  0  0  0  0  0
  155.6550  210.4760  155.1150 C   0  0  0  0  0  1  0  0  0  0  0  0
  1  5  1  0  0  0  0
  2  3  2  0  0  0  0
  2  4  1  0  0  0  0
  3  6  1  0  0  0  0
  4  1  2  0  0  0  0
  5 36  1  0  0  0  0
  6  5  2  0  0  0  0
  7  9  2  0  0  0  0
  8  2  1  0  0  0  0
  9  8  1  0  0  0  0
 10  9  1  0  0  0  0
 11 10  1  0  0  0  0
 12 11  2  0  0  0  0
 13 15  2  0  0  0  0
 13 12  1  0  0  0  0
 14 10  2  0  0  0  0
 15 14  1  0  0  0  0
 16 13  1  0  0  0  0
 17  4  1  0  0  0  0
 17 18  1  0  0  0  0
 19 21  1  0  0  0  0
 19 18  1  0  0  0  0
 20 19  1  0  0  0  0
 21 22  1  1  0  0  0
 23 21  1  0  0  0  0
 24 23  1  0  0  0  0
 25 28  1  0  0  0  0
 26 29  1  0  0  0  0
 27 28  2  0  0  0  0
 27 33  1  0  0  0  0
 28 24  1  0  0  0  0
 29 30  2  0  0  0  0
 30 27  1  0  0  0  0
 31 26  2  0  0  0  0
 31 32  1  0  0  0  0
 32 34  2  0  0  0  0
 34 30  1  0  0  0  0
 34 25  1  0  0  0  0
 35 32  1  0  0  0  0
 37 36  1  0  0  0  0
 37 38  1  0  0  0  0
 39 38  1  0  0  0  0
 40 39  1  0  0  0  0
M  END
>  <MODEL>
2

>  <REMARK>
 VINA RESULT:      -7.4      3.486      9.747
  Name = 
  13 active torsions:
  status: ('A' for Active; 'I' for Inactive)
    1  A    between atoms: C_2  and  N_7
    2  A    between atoms: C_8  and  C_29
    3  A    between atoms: C_9  and  N_17
    4  A    between atoms: C_11  and  O_24
    5  A    between atoms: N_12  and  C_20
    6  A    between atoms: N_12  and  C_26
    7  A    between atoms: C_15  and  C_38
    8  A    between atoms: N_17  and  C_25
    9  A    between atoms: C_20  and  C_25
   10  A    between atoms: O_24  and  C_26
   11  A    between atoms: N_32  and  C_34
   12  A    between atoms: N_32  and  C_38
   13  A    between atoms: C_34  and  C_35
                            x       y       z     vdW  Elec       q    Type
                         _______ _______ _______ _____ _____    ______ ____

>  <TORSDO>
F 13

$$$$
=
 OpenBabel11052412033D

 40 43  0  0  1  0  0  0  0  0999 V2000
  161.2080  209.1820  153.3800 C   0  0  0  0  0  3  0  0  0  0  0  0
  161.1060  207.0290  152.2590 C   0  0  0  0  0  0  0  0  0  0  0  0
  160.9260  206.4080  153.5050 C   0  0  0  0  0  3  0  0  0  0  0  0
  161.2470  208.4260  152.1970 C   0  0  0  0  0  0  0  0  0  0  0  0
  161.0380  208.5540  154.6160 C   0  0  0  0  0  0  0  0  0  0  0  0
  160.8910  207.1660  154.6770 C   0  0  0  0  0  3  0  0  0  0  0  0
  160.8410  204.1160  151.9100 O   0  0  0  0  0  0  0  0  0  0  0  0
  161.1420  206.2720  151.0400 N   0  0  0  0  0  2  0  0  0  0  0  0
  161.0060  204.8510  150.8980 C   0  0  0  0  0  0  0  0  0  0  0  0
  161.0590  204.2450  149.5560 C   0  0  0  0  0  0  0  0  0  0  0  0
  161.3160  205.0290  148.4250 C   0  0  0  0  0  3  0  0  0  0  0  0
  161.3630  204.4590  147.1900 N   0  0  0  0  0  0  0  0  0  0  0  0
  161.1660  203.1250  147.0140 C   0  0  0  0  0  0  0  0  0  0  0  0
  160.8550  202.8690  149.3880 C   0  0  0  0  0  3  0  0  0  0  0  0
  160.9080  202.3040  148.1130 C   0  0  0  0  0  3  0  0  0  0  0  0
  161.2240  202.5650  145.7070 N   0  0  0  0  0  1  0  0  0  0  0  0
  161.4210  209.0380  150.9520 O   0  0  0  0  0  0  0  0  0  0  0  0
  161.8360  210.3950  150.8060 C   0  0  0  0  0  2  0  0  0  0  0  0
  162.4090  210.6390  149.4820 N   0  0  0  0  0  0  0  0  0  0  0  0
  161.8440  209.7070  148.5070 C   0  0  0  0  0  1  0  0  0  0  0  0
  162.2360  212.0490  149.0900 C   0  0  2  0  0  3  0  0  0  0  0  0
  160.7810  212.5160  149.0860 C   0  0  0  0  0  1  0  0  0  0  0  0
  162.8640  212.3100  147.7300 C   0  0  0  0  0  2  0  0  0  0  0  0
  162.0540  213.2590  146.9850 N   0  0  0  0  0  2  0  0  0  0  0  0
  162.9130  213.7680  144.3900 S   0  0  0  0  0  0  0  0  0  0  0  0
  160.1660  212.1790  141.3110 C   0  0  0  0  0  3  0  0  0  0  0  0
  160.7820  212.5240  144.9700 C   0  0  0  0  0  0  0  0  0  0  0  0
  161.8660  213.1520  145.5740 C   0  0  0  0  0  0  0  0  0  0  0  0
  159.9210  212.0320  142.6860 C   0  0  0  0  0  3  0  0  0  0  0  0
  160.8500  212.5680  143.5760 C   0  0  0  0  0  0  0  0  0  0  0  0
  161.2830  212.8320  140.8680 N   0  0  0  0  0  0  0  0  0  0  0  0
  162.1970  213.3600  141.7320 C   0  0  0  0  0  0  0  0  0  0  0  0
  159.7740  211.9340  145.6610 F   0  0  0  0  0  0  0  0  0  0  0  0
  161.9750  213.2250  143.1000 C   0  0  0  0  0  0  0  0  0  0  0  0
  163.3480  214.0330  141.2350 N   0  0  0  0  0  1  0  0  0  0  0  0
  160.9750  209.3650  155.8620 C   0  0  0  0  0  2  0  0  0  0  0  0
  159.8020  210.2210  155.8330 N   0  0  0  0  0  2  0  0  0  0  0  0
  160.2620  211.5700  156.1160 C   0  0  0  0  0  2  0  0  0  0  0  0
  159.6920  212.5380  155.0960 C   0  0  0  0  0  2  0  0  0  0  0  0
  158.7020  211.8290  154.1930 C   0  0  0  0  0  1  0  0  0  0  0  0
  1  5  1  0  0  0  0
  2  3  2  0  0  0  0
  3  6  1  0  0  0  0
  4  2  1  0  0  0  0
  4  1  2  0  0  0  0
  5  6  2  0  0  0  0
  5 36  1  0  0  0  0
  8  2  1  0  0  0  0
  9  8  1  0  0  0  0
  9  7  2  0  0  0  0
 10  9  1  0  0  0  0
 11 10  2  0  0  0  0
 12 11  1  0  0  0  0
 13 12  2  0  0  0  0
 13 15  1  0  0  0  0
 14 10  1  0  0  0  0
 15 14  2  0  0  0  0
 16 13  1  0  0  0  0
 17  4  1  0  0  0  0
 18 17  1  0  0  0  0
 19 18  1  0  0  0  0
 20 19  1  0  0  0  0
 21 22  1  6  0  0  0
 21 19  1  0  0  0  0
 23 21  1  0  0  0  0
 24 23  1  0  0  0  0
 25 28  1  0  0  0  0
 26 29  1  0  0  0  0
 27 28  2  0  0  0  0
 27 33  1  0  0  0  0
 28 24  1  0  0  0  0
 29 30  2  0  0  0  0
 30 27  1  0  0  0  0
 31 26  2  0  0  0  0
 31 32  1  0  0  0  0
 32 34  2  0  0  0  0
 34 30  1  0  0  0  0
 34 25  1  0  0  0  0
 35 32  1  0  0  0  0
 37 36  1  0  0  0  0
 37 38  1  0  0  0  0
 39 38  1  0  0  0  0
 40 39  1  0  0  0  0
M  END
>  <MODEL>
3

>  <REMARK>
 VINA RESULT:      -7.3      1.387      6.442
  Name = 
  13 active torsions:
  status: ('A' for Active; 'I' for Inactive)
    1  A    between atoms: C_2  and  N_7
    2  A    between atoms: C_8  and  C_29
    3  A    between atoms: C_9  and  N_17
    4  A    between atoms: C_11  and  O_24
    5  A    between atoms: N_12  and  C_20
    6  A    between atoms: N_12  and  C_26
    7  A    between atoms: C_15  and  C_38
    8  A    between atoms: N_17  and  C_25
    9  A    between atoms: C_20  and  C_25
   10  A    between atoms: O_24  and  C_26
   11  A    between atoms: N_32  and  C_34
   12  A    between atoms: N_32  and  C_38
   13  A    between atoms: C_34  and  C_35
                            x       y       z     vdW  Elec       q    Type
                         _______ _______ _______ _____ _____    ______ ____

>  <TORSDO>
F 13

$$$$
=
 OpenBabel11052412033D

 40 43  0  0  1  0  0  0  0  0999 V2000
  160.8120  208.9060  154.2120 C   0  0  0  0  0  3  0  0  0  0  0  0
  161.0820  207.2590  152.4480 C   0  0  0  0  0  0  0  0  0  0  0  0
  161.1950  206.2560  153.4230 C   0  0  0  0  0  3  0  0  0  0  0  0
  160.8880  208.5920  152.8450 C   0  0  0  0  0  0  0  0  0  0  0  0
  160.9350  207.9030  155.1770 C   0  0  0  0  0  0  0  0  0  0  0  0
  161.1210  206.5750  154.7810 C   0  0  0  0  0  3  0  0  0  0  0  0
  160.7820  204.6410  151.1290 O   0  0  0  0  0  0  0  0  0  0  0  0
  161.1520  206.9550  151.0460 N   0  0  0  0  0  2  0  0  0  0  0  0
  160.9970  205.6680  150.4290 C   0  0  0  0  0  0  0  0  0  0  0  0
  161.0910  205.5480  148.9640 C   0  0  0  0  0  0  0  0  0  0  0  0
  160.8400  206.6480  148.1360 C   0  0  0  0  0  3  0  0  0  0  0  0
  160.9290  206.5250  146.7830 N   0  0  0  0  0  0  0  0  0  0  0  0
  161.2640  205.3450  146.1960 C   0  0  0  0  0  0  0  0  0  0  0  0
  161.4370  204.3270  148.3710 C   0  0  0  0  0  3  0  0  0  0  0  0
  161.5240  204.2220  146.9830 C   0  0  0  0  0  3  0  0  0  0  0  0
  161.3480  205.2560  144.7790 N   0  0  0  0  0  1  0  0  0  0  0  0
  160.7710  209.5840  151.8680 O   0  0  0  0  0  0  0  0  0  0  0  0
  160.8550  210.9780  152.1620 C   0  0  0  0  0  2  0  0  0  0  0  0
  159.6000  211.6650  151.8540 N   0  0  0  0  0  0  0  0  0  0  0  0
  158.6450  211.4880  152.9470 C   0  0  0  0  0  1  0  0  0  0  0  0
  159.8470  213.0830  151.5370 C   0  0  2  0  0  3  0  0  0  0  0  0
  158.9940  214.0560  152.3500 C   0  0  0  0  0  1  0  0  0  0  0  0
  159.6500  213.3440  150.0520 C   0  0  0  0  0  2  0  0  0  0  0  0
  160.8690  213.0290  149.3280 N   0  0  0  0  0  2  0  0  0  0  0  0
  162.2860  213.2230  146.9440 S   0  0  0  0  0  0  0  0  0  0  0  0
  159.7770  212.5160  143.3730 C   0  0  0  0  0  3  0  0  0  0  0  0
  159.8120  212.6950  147.0950 C   0  0  0  0  0  0  0  0  0  0  0  0
  160.9110  212.9690  147.9030 C   0  0  0  0  0  0  0  0  0  0  0  0
  159.2600  212.4650  144.6770 C   0  0  0  0  0  3  0  0  0  0  0  0
  160.1360  212.7020  145.7370 C   0  0  0  0  0  0  0  0  0  0  0  0
  161.0980  212.7920  143.1570 N   0  0  0  0  0  0  0  0  0  0  0  0
  161.9620  213.0250  144.1870 C   0  0  0  0  0  0  0  0  0  0  0  0
  158.5680  212.4490  147.5760 F   0  0  0  0  0  0  0  0  0  0  0  0
  161.4720  212.9790  145.4900 C   0  0  0  0  0  0  0  0  0  0  0  0
  163.3310  213.3090  143.9250 N   0  0  0  0  0  1  0  0  0  0  0  0
  160.8300  208.2400  156.6220 C   0  0  0  0  0  2  0  0  0  0  0  0
  160.0480  209.4530  156.7870 N   0  0  0  0  0  2  0  0  0  0  0  0
  160.9700  210.4880  157.2260 C   0  0  0  0  0  2  0  0  0  0  0  0
  160.3840  211.8590  156.9460 C   0  0  0  0  0  2  0  0  0  0  0  0
  158.8990  211.7480  156.6600 C   0  0  0  0  0  1  0  0  0  0  0  0
  1  5  1  0  0  0  0
  2  4  1  0  0  0  0
  2  3  2  0  0  0  0
  3  6  1  0  0  0  0
  4  1  2  0  0  0  0
  5 36  1  0  0  0  0
  6  5  2  0  0  0  0
  8  2  1  0  0  0  0
  9  8  1  0  0  0  0
  9  7  2  0  0  0  0
 10  9  1  0  0  0  0
 11 10  2  0  0  0  0
 12 11  1  0  0  0  0
 13 12  2  0  0  0  0
 13 15  1  0  0  0  0
 14 10  1  0  0  0  0
 15 14  2  0  0  0  0
 16 13  1  0  0  0  0
 17 18  1  0  0  0  0
 17  4  1  0  0  0  0
 19 18  1  0  0  0  0
 19 20  1  0  0  0  0
 21 19  1  0  0  0  0
 21 22  1  1  0  0  0
 23 21  1  0  0  0  0
 24 23  1  0  0  0  0
 25 28  1  0  0  0  0
 26 29  1  0  0  0  0
 27 33  1  0  0  0  0
 27 28  2  0  0  0  0
 28 24  1  0  0  0  0
 29 30  2  0  0  0  0
 30 27  1  0  0  0  0
 31 26  2  0  0  0  0
 31 32  1  0  0  0  0
 32 34  2  0  0  0  0
 34 30  1  0  0  0  0
 34 25  1  0  0  0  0
 35 32  1  0  0  0  0
 36 37  1  0  0  0  0
 37 38  1  0  0  0  0
 39 38  1  0  0  0  0
 40 39  1  0  0  0  0
M  END
>  <MODEL>
4

>  <REMARK>
 VINA RESULT:      -7.3      1.937      6.826
  Name = 
  13 active torsions:
  status: ('A' for Active; 'I' for Inactive)
    1  A    between atoms: C_2  and  N_7
    2  A    between atoms: C_8  and  C_29
    3  A    between atoms: C_9  and  N_17
    4  A    between atoms: C_11  and  O_24
    5  A    between atoms: N_12  and  C_20
    6  A    between atoms: N_12  and  C_26
    7  A    between atoms: C_15  and  C_38
    8  A    between atoms: N_17  and  C_25
    9  A    between atoms: C_20  and  C_25
   10  A    between atoms: O_24  and  C_26
   11  A    between atoms: N_32  and  C_34
   12  A    between atoms: N_32  and  C_38
   13  A    between atoms: C_34  and  C_35
                            x       y       z     vdW  Elec       q    Type
                         _______ _______ _______ _____ _____    ______ ____

>  <TORSDO>
F 13

$$$$
=
 OpenBabel11052412033D

 40 43  0  0  1  0  0  0  0  0999 V2000
  161.6230  210.2810  152.2600 C   0  0  0  0  0  3  0  0  0  0  0  0
  161.3000  208.0210  151.4290 C   0  0  0  0  0  0  0  0  0  0  0  0
  160.9910  207.6040  152.7330 C   0  0  0  0  0  3  0  0  0  0  0  0
  161.6160  209.3690  151.1910 C   0  0  0  0  0  0  0  0  0  0  0  0
  161.3240  209.8540  153.5560 C   0  0  0  0  0  0  0  0  0  0  0  0
  161.0020  208.5150  153.7910 C   0  0  0  0  0  3  0  0  0  0  0  0
  161.2590  205.0760  151.5000 O   0  0  0  0  0  0  0  0  0  0  0  0
  161.2920  207.1040  150.3240 N   0  0  0  0  0  2  0  0  0  0  0  0
  161.2680  205.6710  150.3880 C   0  0  0  0  0  0  0  0  0  0  0  0
  161.2530  204.8870  149.1410 C   0  0  0  0  0  0  0  0  0  0  0  0
  160.9810  203.5130  149.1600 C   0  0  0  0  0  3  0  0  0  0  0  0
  160.9710  202.7990  148.0020 N   0  0  0  0  0  0  0  0  0  0  0  0
  161.2190  203.3860  146.8010 C   0  0  0  0  0  0  0  0  0  0  0  0
  161.5110  205.5030  147.9090 C   0  0  0  0  0  3  0  0  0  0  0  0
  161.4940  204.7530  146.7330 C   0  0  0  0  0  3  0  0  0  0  0  0
  161.1980  202.6060  145.6120 N   0  0  0  0  0  1  0  0  0  0  0  0
  161.9180  209.7790  149.8890 O   0  0  0  0  0  0  0  0  0  0  0  0
  162.3090  211.1120  149.5660 C   0  0  0  0  0  2  0  0  0  0  0  0
  161.2510  211.8180  148.8420 N   0  0  0  0  0  0  0  0  0  0  0  0
  160.7620  212.9450  149.6340 C   0  0  0  0  0  1  0  0  0  0  0  0
  161.7150  212.2220  147.5030 C   0  0  2  0  0  3  0  0  0  0  0  0
  162.6690  213.4150  147.5120 C   0  0  0  0  0  1  0  0  0  0  0  0
  160.5340  212.5160  146.5910 C   0  0  0  0  0  2  0  0  0  0  0  0
  160.9440  213.4150  145.5250 N   0  0  0  0  0  2  0  0  0  0  0  0
  159.4120  213.0200  143.2390 S   0  0  0  0  0  0  0  0  0  0  0  0
  161.7980  211.6950  139.7600 C   0  0  0  0  0  3  0  0  0  0  0  0
  161.9190  212.6690  143.3550 C   0  0  0  0  0  0  0  0  0  0  0  0
  160.8430  213.0530  144.1480 C   0  0  0  0  0  0  0  0  0  0  0  0
  162.3750  211.9520  141.0140 C   0  0  0  0  0  3  0  0  0  0  0  0
  161.5350  212.3670  142.0470 C   0  0  0  0  0  0  0  0  0  0  0  0
  160.4530  211.8470  139.5680 N   0  0  0  0  0  0  0  0  0  0  0  0
  159.6240  212.2520  140.5720 C   0  0  0  0  0  0  0  0  0  0  0  0
  163.1970  212.5970  143.8050 F   0  0  0  0  0  0  0  0  0  0  0  0
  160.1750  212.5140  141.8240 C   0  0  0  0  0  0  0  0  0  0  0  0
  158.2290  212.4000  140.3350 N   0  0  0  0  0  1  0  0  0  0  0  0
  161.3110  210.8300  154.6780 C   0  0  0  0  0  2  0  0  0  0  0  0
  160.3090  211.8520  154.4290 N   0  0  0  0  0  2  0  0  0  0  0  0
  159.0330  211.2970  154.8490 C   0  0  0  0  0  2  0  0  0  0  0  0
  157.9420  211.7080  153.8770 C   0  0  0  0  0  2  0  0  0  0  0  0
  158.5490  212.1320  152.5540 C   0  0  0  0  0  1  0  0  0  0  0  0
  1  5  1  0  0  0  0
  2  3  2  0  0  0  0
  3  6  1  0  0  0  0
  4  2  1  0  0  0  0
  4  1  2  0  0  0  0
  5  6  2  0  0  0  0
  5 36  1  0  0  0  0
  8  9  1  0  0  0  0
  8  2  1  0  0  0  0
  9  7  2  0  0  0  0
 10 11  1  0  0  0  0
 10  9  1  0  0  0  0
 12 11  2  0  0  0  0
 13 12  1  0  0  0  0
 14 10  2  0  0  0  0
 15 13  2  0  0  0  0
 15 14  1  0  0  0  0
 16 13  1  0  0  0  0
 17  4  1  0  0  0  0
 18 17  1  0  0  0  0
 19 18  1  0  0  0  0
 19 20  1  0  0  0  0
 21 22  1  1  0  0  0
 21 19  1  0  0  0  0
 23 21  1  0  0  0  0
 24 23  1  0  0  0  0
 25 28  1  0  0  0  0
 26 29  1  0  0  0  0
 27 33  1  0  0  0  0
 27 28  2  0  0  0  0
 28 24  1  0  0  0  0
 29 30  2  0  0  0  0
 30 27  1  0  0  0  0
 31 26  2  0  0  0  0
 31 32  1  0  0  0  0
 32 34  2  0  0  0  0
 34 30  1  0  0  0  0
 34 25  1  0  0  0  0
 35 32  1  0  0  0  0
 37 36  1  0  0  0  0
 37 38  1  0  0  0  0
 39 38  1  0  0  0  0
 40 39  1  0  0  0  0
M  END
>  <MODEL>
5

>  <REMARK>
 VINA RESULT:      -7.3      1.798      6.421
  Name = 
  13 active torsions:
  status: ('A' for Active; 'I' for Inactive)
    1  A    between atoms: C_2  and  N_7
    2  A    between atoms: C_8  and  C_29
    3  A    between atoms: C_9  and  N_17
    4  A    between atoms: C_11  and  O_24
    5  A    between atoms: N_12  and  C_20
    6  A    between atoms: N_12  and  C_26
    7  A    between atoms: C_15  and  C_38
    8  A    between atoms: N_17  and  C_25
    9  A    between atoms: C_20  and  C_25
   10  A    between atoms: O_24  and  C_26
   11  A    between atoms: N_32  and  C_34
   12  A    between atoms: N_32  and  C_38
   13  A    between atoms: C_34  and  C_35
                            x       y       z     vdW  Elec       q    Type
                         _______ _______ _______ _____ _____    ______ ____

>  <TORSDO>
F 13

$$$$
=
 OpenBabel11052412033D

 40 43  0  0  1  0  0  0  0  0999 V2000
  160.3530  212.9180  150.3260 C   0  0  0  0  0  3  0  0  0  0  0  0
  160.2140  213.4390  147.9580 C   0  0  0  0  0  0  0  0  0  0  0  0
  159.1200  214.2770  148.2230 C   0  0  0  0  0  3  0  0  0  0  0  0
  160.8350  212.7560  149.0170 C   0  0  0  0  0  0  0  0  0  0  0  0
  159.2580  213.7480  150.5800 C   0  0  0  0  0  0  0  0  0  0  0  0
  158.6450  214.4320  149.5270 C   0  0  0  0  0  3  0  0  0  0  0  0
  158.8810  212.2030  145.6390 O   0  0  0  0  0  0  0  0  0  0  0  0
  160.7230  213.2660  146.6270 N   0  0  0  0  0  2  0  0  0  0  0  0
  160.0480  212.6630  145.5120 C   0  0  0  0  0  0  0  0  0  0  0  0
  160.7280  212.5810  144.2080 C   0  0  0  0  0  0  0  0  0  0  0  0
  162.0710  212.9530  144.0740 C   0  0  0  0  0  3  0  0  0  0  0  0
  162.6890  212.8730  142.8640 N   0  0  0  0  0  0  0  0  0  0  0  0
  162.0330  212.4330  141.7570 C   0  0  0  0  0  0  0  0  0  0  0  0
  160.0410  212.1260  143.0750 C   0  0  0  0  0  3  0  0  0  0  0  0
  160.6930  212.0510  141.8440 C   0  0  0  0  0  3  0  0  0  0  0  0
  162.7130  212.3630  140.5100 N   0  0  0  0  0  1  0  0  0  0  0  0
  161.9270  211.9260  148.7450 O   0  0  0  0  0  0  0  0  0  0  0  0
  162.4180  210.9610  149.6740 C   0  0  0  0  0  2  0  0  0  0  0  0
  161.5940  209.7510  149.6730 N   0  0  0  0  0  0  0  0  0  0  0  0
  162.0310  208.8430  148.6150 C   0  0  0  0  0  1  0  0  0  0  0  0
  161.5960  209.1180  151.0040 C   0  0  2  0  0  3  0  0  0  0  0  0
  162.2960  209.9450  152.0820 C   0  0  0  0  0  1  0  0  0  0  0  0
  162.2140  207.7310  150.9390 C   0  0  0  0  0  2  0  0  0  0  0  0
  161.2010  206.7240  151.2090 N   0  0  0  0  0  2  0  0  0  0  0  0
  161.2510  205.3280  148.8060 S   0  0  0  0  0  0  0  0  0  0  0  0
  160.8230  200.9580  149.3310 C   0  0  0  0  0  3  0  0  0  0  0  0
  160.9900  204.2440  151.0820 C   0  0  0  0  0  0  0  0  0  0  0  0
  161.1450  205.4930  150.4910 C   0  0  0  0  0  0  0  0  0  0  0  0
  160.8240  201.8500  150.4160 C   0  0  0  0  0  3  0  0  0  0  0  0
  160.9660  203.2100  150.1430 C   0  0  0  0  0  0  0  0  0  0  0  0
  160.9560  201.4190  148.0500 N   0  0  0  0  0  0  0  0  0  0  0  0
  161.0960  202.7470  147.7750 C   0  0  0  0  0  0  0  0  0  0  0  0
  160.8760  204.0540  152.4210 F   0  0  0  0  0  0  0  0  0  0  0  0
  161.1000  203.6500  148.8350 C   0  0  0  0  0  0  0  0  0  0  0  0
  161.2330  203.1910  146.4300 N   0  0  0  0  0  1  0  0  0  0  0  0
  158.7680  213.9310  151.9720 C   0  0  0  0  0  2  0  0  0  0  0  0
  157.8440  212.8640  152.3130 N   0  0  0  0  0  2  0  0  0  0  0  0
  157.8400  212.7600  153.7620 C   0  0  0  0  0  2  0  0  0  0  0  0
  159.2410  212.4670  154.2660 C   0  0  0  0  0  2  0  0  0  0  0  0
  159.4940  213.1970  155.5710 C   0  0  0  0  0  1  0  0  0  0  0  0
  1  5  1  0  0  0  0
  2  3  2  0  0  0  0
  2  4  1  0  0  0  0
  3  6  1  0  0  0  0
  4  1  2  0  0  0  0
  5 36  1  0  0  0  0
  6  5  2  0  0  0  0
  8  2  1  0  0  0  0
  9  7  2  0  0  0  0
  9  8  1  0  0  0  0
 10  9  1  0  0  0  0
 11 10  1  0  0  0  0
 12 11  2  0  0  0  0
 13 15  2  0  0  0  0
 13 12  1  0  0  0  0
 14 10  2  0  0  0  0
 15 14  1  0  0  0  0
 16 13  1  0  0  0  0
 17  4  1  0  0  0  0
 17 18  1  0  0  0  0
 19 18  1  0  0  0  0
 19 21  1  0  0  0  0
 20 19  1  0  0  0  0
 21 22  1  1  0  0  0
 23 21  1  0  0  0  0
 23 24  1  0  0  0  0
 25 34  1  0  0  0  0
 25 28  1  0  0  0  0
 26 29  1  0  0  0  0
 27 33  1  0  0  0  0
 28 27  2  0  0  0  0
 28 24  1  0  0  0  0
 30 29  2  0  0  0  0
 30 27  1  0  0  0  0
 31 26  2  0  0  0  0
 32 31  1  0  0  0  0
 32 34  2  0  0  0  0
 34 30  1  0  0  0  0
 35 32  1  0  0  0  0
 36 37  1  0  0  0  0
 37 38  1  0  0  0  0
 38 39  1  0  0  0  0
 39 40  1  0  0  0  0
M  END
>  <MODEL>
6

>  <REMARK>
 VINA RESULT:      -7.1      3.323     10.332
  Name = 
  13 active torsions:
  status: ('A' for Active; 'I' for Inactive)
    1  A    between atoms: C_2  and  N_7
    2  A    between atoms: C_8  and  C_29
    3  A    between atoms: C_9  and  N_17
    4  A    between atoms: C_11  and  O_24
    5  A    between atoms: N_12  and  C_20
    6  A    between atoms: N_12  and  C_26
    7  A    between atoms: C_15  and  C_38
    8  A    between atoms: N_17  and  C_25
    9  A    between atoms: C_20  and  C_25
   10  A    between atoms: O_24  and  C_26
   11  A    between atoms: N_32  and  C_34
   12  A    between atoms: N_32  and  C_38
   13  A    between atoms: C_34  and  C_35
                            x       y       z     vdW  Elec       q    Type
                         _______ _______ _______ _____ _____    ______ ____

>  <TORSDO>
F 13

$$$$
=
 OpenBabel11052412033D

 40 43  0  0  1  0  0  0  0  0999 V2000
  161.3740  212.8270  147.3070 C   0  0  0  0  0  3  0  0  0  0  0  0
  160.0950  213.4920  149.2620 C   0  0  0  0  0  0  0  0  0  0  0  0
  159.3370  214.3520  148.4520 C   0  0  0  0  0  3  0  0  0  0  0  0
  161.1200  212.7240  148.6850 C   0  0  0  0  0  0  0  0  0  0  0  0
  160.6200  213.6920  146.5110 C   0  0  0  0  0  0  0  0  0  0  0  0
  159.5960  214.4510  147.0840 C   0  0  0  0  0  3  0  0  0  0  0  0
  157.5010  213.3910  150.6550 O   0  0  0  0  0  0  0  0  0  0  0  0
  159.8460  213.3710  150.6710 N   0  0  0  0  0  2  0  0  0  0  0  0
  158.5690  213.3200  151.3230 C   0  0  0  0  0  0  0  0  0  0  0  0
  158.5050  213.1820  152.7890 C   0  0  0  0  0  0  0  0  0  0  0  0
  159.5890  212.6640  153.5090 C   0  0  0  0  0  3  0  0  0  0  0  0
  159.5190  212.5410  154.8620 N   0  0  0  0  0  0  0  0  0  0  0  0
  158.4100  212.9140  155.5550 C   0  0  0  0  0  0  0  0  0  0  0  0
  157.3570  213.5700  153.4910 C   0  0  0  0  0  3  0  0  0  0  0  0
  157.3060  213.4370  154.8790 C   0  0  0  0  0  3  0  0  0  0  0  0
  158.3750  212.7710  156.9690 N   0  0  0  0  0  1  0  0  0  0  0  0
  161.8680  211.8670  149.4970 O   0  0  0  0  0  0  0  0  0  0  0  0
  162.0770  210.4900  149.1860 C   0  0  0  0  0  2  0  0  0  0  0  0
  162.3380  209.7040  150.3930 N   0  0  0  0  0  0  0  0  0  0  0  0
  161.3950  210.0700  151.4480 C   0  0  0  0  0  1  0  0  0  0  0  0
  162.3220  208.2620  150.0900 C   0  0  2  0  0  3  0  0  0  0  0  0
  162.6720  207.9310  148.6400 C   0  0  0  0  0  1  0  0  0  0  0  0
  160.9750  207.6520  150.4450 C   0  0  0  0  0  2  0  0  0  0  0  0
  161.1690  206.3640  151.0900 N   0  0  0  0  0  2  0  0  0  0  0  0
  161.1940  204.9930  148.6720 S   0  0  0  0  0  0  0  0  0  0  0  0
  160.9070  200.6080  149.1620 C   0  0  0  0  0  3  0  0  0  0  0  0
  161.0270  203.8800  150.9420 C   0  0  0  0  0  0  0  0  0  0  0  0
  161.1300  205.1380  150.3600 C   0  0  0  0  0  0  0  0  0  0  0  0
  160.9120  201.4880  150.2560 C   0  0  0  0  0  3  0  0  0  0  0  0
  161.0070  202.8550  149.9940 C   0  0  0  0  0  0  0  0  0  0  0  0
  160.9920  201.0850  147.8830 N   0  0  0  0  0  0  0  0  0  0  0  0
  161.0860  202.4190  147.6180 C   0  0  0  0  0  0  0  0  0  0  0  0
  160.9550  203.6740  152.2820 F   0  0  0  0  0  0  0  0  0  0  0  0
  161.0930  203.3110  148.6870 C   0  0  0  0  0  0  0  0  0  0  0  0
  161.1730  202.8790  146.2740 N   0  0  0  0  0  1  0  0  0  0  0  0
  160.8810  213.7770  145.0490 C   0  0  0  0  0  2  0  0  0  0  0  0
  159.7590  213.2160  144.3160 N   0  0  0  0  0  2  0  0  0  0  0  0
  160.3130  212.2670  143.3660 C   0  0  0  0  0  2  0  0  0  0  0  0
  161.7280  212.6700  142.9930 C   0  0  0  0  0  2  0  0  0  0  0  0
  162.1880  211.9020  141.7690 C   0  0  0  0  0  1  0  0  0  0  0  0
  1  4  1  0  0  0  0
  2  8  1  0  0  0  0
  3  2  1  0  0  0  0
  4  2  2  0  0  0  0
  4 17  1  0  0  0  0
  5  6  1  0  0  0  0
  5  1  2  0  0  0  0
  6  3  2  0  0  0  0
  7  9  2  0  0  0  0
  8  9  1  0  0  0  0
  9 10  1  0  0  0  0
 10 14  2  0  0  0  0
 10 11  1  0  0  0  0
 11 12  2  0  0  0  0
 12 13  1  0  0  0  0
 13 16  1  0  0  0  0
 14 15  1  0  0  0  0
 15 13  2  0  0  0  0
 18 17  1  0  0  0  0
 18 19  1  0  0  0  0
 19 20  1  0  0  0  0
 21 22  1  6  0  0  0
 21 19  1  0  0  0  0
 21 23  1  0  0  0  0
 23 24  1  0  0  0  0
 25 34  1  0  0  0  0
 25 28  1  0  0  0  0
 26 29  1  0  0  0  0
 27 33  1  0  0  0  0
 28 27  2  0  0  0  0
 28 24  1  0  0  0  0
 30 29  2  0  0  0  0
 30 27  1  0  0  0  0
 31 26  2  0  0  0  0
 32 31  1  0  0  0  0
 32 34  2  0  0  0  0
 34 30  1  0  0  0  0
 35 32  1  0  0  0  0
 36  5  1  0  0  0  0
 37 36  1  0  0  0  0
 38 37  1  0  0  0  0
 39 38  1  0  0  0  0
 40 39  1  0  0  0  0
M  END
>  <MODEL>
7

>  <REMARK>
 VINA RESULT:      -6.7      3.390      8.476
  Name = 
  13 active torsions:
  status: ('A' for Active; 'I' for Inactive)
    1  A    between atoms: C_2  and  N_7
    2  A    between atoms: C_8  and  C_29
    3  A    between atoms: C_9  and  N_17
    4  A    between atoms: C_11  and  O_24
    5  A    between atoms: N_12  and  C_20
    6  A    between atoms: N_12  and  C_26
    7  A    between atoms: C_15  and  C_38
    8  A    between atoms: N_17  and  C_25
    9  A    between atoms: C_20  and  C_25
   10  A    between atoms: O_24  and  C_26
   11  A    between atoms: N_32  and  C_34
   12  A    between atoms: N_32  and  C_38
   13  A    between atoms: C_34  and  C_35
                            x       y       z     vdW  Elec       q    Type
                         _______ _______ _______ _____ _____    ______ ____

>  <TORSDO>
F 13

$$$$
=
 OpenBabel11052412033D

 40 43  0  0  1  0  0  0  0  0999 V2000
  161.7760  209.0330  153.3930 C   0  0  0  0  0  3  0  0  0  0  0  0
  161.2390  207.0040  152.1700 C   0  0  0  0  0  0  0  0  0  0  0  0
  160.7770  206.4270  153.3630 C   0  0  0  0  0  3  0  0  0  0  0  0
  161.7400  208.3160  152.1850 C   0  0  0  0  0  0  0  0  0  0  0  0
  161.3220  208.4470  154.5770 C   0  0  0  0  0  0  0  0  0  0  0  0
  160.8170  207.1440  154.5600 C   0  0  0  0  0  3  0  0  0  0  0  0
  161.6100  204.1170  151.7140 O   0  0  0  0  0  0  0  0  0  0  0  0
  161.2050  206.2880  150.9260 N   0  0  0  0  0  2  0  0  0  0  0  0
  161.3850  204.8770  150.7330 C   0  0  0  0  0  0  0  0  0  0  0  0
  161.3060  204.3130  149.3750 C   0  0  0  0  0  0  0  0  0  0  0  0
  160.9160  202.9830  149.1720 C   0  0  0  0  0  3  0  0  0  0  0  0
  160.8470  202.4710  147.9130 N   0  0  0  0  0  0  0  0  0  0  0  0
  161.1480  203.2240  146.8210 C   0  0  0  0  0  0  0  0  0  0  0  0
  161.6190  205.0980  148.2580 C   0  0  0  0  0  3  0  0  0  0  0  0
  161.5420  204.5550  146.9750 C   0  0  0  0  0  3  0  0  0  0  0  0
  161.0640  202.6540  145.5210 N   0  0  0  0  0  1  0  0  0  0  0  0
  162.1940  208.8860  150.9920 O   0  0  0  0  0  0  0  0  0  0  0  0
  161.8850  210.2240  150.6050 C   0  0  0  0  0  2  0  0  0  0  0  0
  162.1040  210.4290  149.1720 N   0  0  0  0  0  0  0  0  0  0  0  0
  162.0610  209.1500  148.4660 C   0  0  0  0  0  1  0  0  0  0  0  0
  161.1440  211.4100  148.6330 C   0  0  2  0  0  3  0  0  0  0  0  0
  161.3150  211.6850  147.1400 C   0  0  0  0  0  1  0  0  0  0  0  0
  161.2180  212.7160  149.4090 C   0  0  0  0  0  2  0  0  0  0  0  0
  160.1170  213.5820  149.0240 N   0  0  0  0  0  2  0  0  0  0  0  0
  159.0160  213.8890  151.5580 S   0  0  0  0  0  0  0  0  0  0  0  0
  154.6310  214.4480  151.4890 C   0  0  0  0  0  3  0  0  0  0  0  0
  157.6770  213.9230  149.4070 C   0  0  0  0  0  0  0  0  0  0  0  0
  158.9820  213.7860  149.8660 C   0  0  0  0  0  0  0  0  0  0  0  0
  155.3860  214.2760  150.3180 C   0  0  0  0  0  3  0  0  0  0  0  0
  156.7640  214.1080  150.4480 C   0  0  0  0  0  0  0  0  0  0  0  0
  155.2370  214.4490  152.7150 N   0  0  0  0  0  0  0  0  0  0  0  0
  156.5840  214.2860  152.8510 C   0  0  0  0  0  0  0  0  0  0  0  0
  157.3320  213.8820  148.0960 F   0  0  0  0  0  0  0  0  0  0  0  0
  157.3530  214.1130  151.7030 C   0  0  0  0  0  0  0  0  0  0  0  0
  157.1800  214.2920  154.1430 N   0  0  0  0  0  1  0  0  0  0  0  0
  161.3420  209.2210  155.8470 C   0  0  0  0  0  2  0  0  0  0  0  0
  161.8900  210.5450  155.6070 N   0  0  0  0  0  2  0  0  0  0  0  0
  160.9920  211.4910  156.2490 C   0  0  0  0  0  2  0  0  0  0  0  0
  159.6580  210.8290  156.5390 C   0  0  0  0  0  2  0  0  0  0  0  0
  158.5940  211.3530  155.5940 C   0  0  0  0  0  1  0  0  0  0  0  0
  1  5  1  0  0  0  0
  2  4  1  0  0  0  0
  2  3  2  0  0  0  0
  3  6  1  0  0  0  0
  4  1  2  0  0  0  0
  5 36  1  0  0  0  0
  6  5  2  0  0  0  0
  8  2  1  0  0  0  0
  9  8  1  0  0  0  0
  9  7  2  0  0  0  0
 10  9  1  0  0  0  0
 11 10  1  0  0  0  0
 12 11  2  0  0  0  0
 13 15  2  0  0  0  0
 13 12  1  0  0  0  0
 14 10  2  0  0  0  0
 15 14  1  0  0  0  0
 16 13  1  0  0  0  0
 17  4  1  0  0  0  0
 18 17  1  0  0  0  0
 19 18  1  0  0  0  0
 20 19  1  0  0  0  0
 21 22  1  6  0  0  0
 21 19  1  0  0  0  0
 21 23  1  0  0  0  0
 24 23  1  0  0  0  0
 24 28  1  0  0  0  0
 25 34  1  0  0  0  0
 26 31  1  0  0  0  0
 27 28  2  0  0  0  0
 27 30  1  0  0  0  0
 28 25  1  0  0  0  0
 29 30  1  0  0  0  0
 29 26  2  0  0  0  0
 30 34  2  0  0  0  0
 31 32  2  0  0  0  0
 32 35  1  0  0  0  0
 33 27  1  0  0  0  0
 34 32  1  0  0  0  0
 37 36  1  0  0  0  0
 37 38  1  0  0  0  0
 38 39  1  0  0  0  0
 40 39  1  0  0  0  0
M  END
>  <MODEL>
8

>  <REMARK>
 VINA RESULT:      -6.6      3.391      8.416
  Name = 
  13 active torsions:
  status: ('A' for Active; 'I' for Inactive)
    1  A    between atoms: C_2  and  N_7
    2  A    between atoms: C_8  and  C_29
    3  A    between atoms: C_9  and  N_17
    4  A    between atoms: C_11  and  O_24
    5  A    between atoms: N_12  and  C_20
    6  A    between atoms: N_12  and  C_26
    7  A    between atoms: C_15  and  C_38
    8  A    between atoms: N_17  and  C_25
    9  A    between atoms: C_20  and  C_25
   10  A    between atoms: O_24  and  C_26
   11  A    between atoms: N_32  and  C_34
   12  A    between atoms: N_32  and  C_38
   13  A    between atoms: C_34  and  C_35
                            x       y       z     vdW  Elec       q    Type
                         _______ _______ _______ _____ _____    ______ ____

>  <TORSDO>
F 13

$$$$
=
 OpenBabel11052412033D

 40 43  0  0  1  0  0  0  0  0999 V2000
  161.5680  208.6910  153.2200 C   0  0  0  0  0  3  0  0  0  0  0  0
  161.3550  207.0450  151.4470 C   0  0  0  0  0  0  0  0  0  0  0  0
  161.0450  206.0720  152.4100 C   0  0  0  0  0  3  0  0  0  0  0  0
  161.6170  208.3630  151.8550 C   0  0  0  0  0  0  0  0  0  0  0  0
  161.2660  207.7140  154.1720 C   0  0  0  0  0  0  0  0  0  0  0  0
  160.9990  206.4040  153.7650 C   0  0  0  0  0  3  0  0  0  0  0  0
  160.5000  204.5660  150.1030 O   0  0  0  0  0  0  0  0  0  0  0  0
  161.4050  206.7280  150.0470 N   0  0  0  0  0  2  0  0  0  0  0  0
  160.9770  205.5110  149.4180 C   0  0  0  0  0  0  0  0  0  0  0  0
  161.0950  205.3670  147.9570 C   0  0  0  0  0  0  0  0  0  0  0  0
  160.6450  206.3760  147.0970 C   0  0  0  0  0  3  0  0  0  0  0  0
  160.7590  206.2320  145.7480 N   0  0  0  0  0  0  0  0  0  0  0  0
  161.3090  205.1180  145.1960 C   0  0  0  0  0  0  0  0  0  0  0  0
  161.6640  204.2140  147.3990 C   0  0  0  0  0  3  0  0  0  0  0  0
  161.7720  204.0860  146.0140 C   0  0  0  0  0  3  0  0  0  0  0  0
  161.4120  205.0040  143.7820 N   0  0  0  0  0  1  0  0  0  0  0  0
  161.9210  209.3270  150.8900 O   0  0  0  0  0  0  0  0  0  0  0  0
  161.3450  210.6330  150.8890 C   0  0  0  0  0  2  0  0  0  0  0  0
  161.8140  211.4220  149.7490 N   0  0  0  0  0  0  0  0  0  0  0  0
  162.1250  210.5470  148.6210 C   0  0  0  0  0  1  0  0  0  0  0  0
  160.8380  212.4720  149.4050 C   0  0  2  0  0  3  0  0  0  0  0  0
  161.3400  213.4620  148.3560 C   0  0  0  0  0  1  0  0  0  0  0  0
  160.3950  213.2230  150.6510 C   0  0  0  0  0  2  0  0  0  0  0  0
  159.0170  213.6600  150.5010 N   0  0  0  0  0  2  0  0  0  0  0  0
  158.6510  213.9490  153.2420 S   0  0  0  0  0  0  0  0  0  0  0  0
  154.4080  214.4430  154.3820 C   0  0  0  0  0  3  0  0  0  0  0  0
  156.7720  213.9640  151.5420 C   0  0  0  0  0  0  0  0  0  0  0  0
  158.1550  213.8460  151.6230 C   0  0  0  0  0  0  0  0  0  0  0  0
  154.8150  214.2820  153.0480 C   0  0  0  0  0  3  0  0  0  0  0  0
  156.1780  214.1350  152.7940 C   0  0  0  0  0  0  0  0  0  0  0  0
  155.3270  214.4520  155.3940 N   0  0  0  0  0  0  0  0  0  0  0  0
  156.6620  214.3090  155.1550 C   0  0  0  0  0  0  0  0  0  0  0  0
  156.0810  213.9190  150.3750 F   0  0  0  0  0  0  0  0  0  0  0  0
  157.0890  214.1480  153.8390 C   0  0  0  0  0  0  0  0  0  0  0  0
  157.5910  214.3230  156.2330 N   0  0  0  0  0  1  0  0  0  0  0  0
  161.1930  208.0750  155.6140 C   0  0  0  0  0  2  0  0  0  0  0  0
  159.8120  208.3190  155.9890 N   0  0  0  0  0  2  0  0  0  0  0  0
  159.6180  209.7590  155.9580 C   0  0  0  0  0  2  0  0  0  0  0  0
  160.7360  210.4510  156.7150 C   0  0  0  0  0  2  0  0  0  0  0  0
  160.7640  211.9290  156.3760 C   0  0  0  0  0  1  0  0  0  0  0  0
  1  5  1  0  0  0  0
  2  4  1  0  0  0  0
  2  3  2  0  0  0  0
  3  6  1  0  0  0  0
  4  1  2  0  0  0  0
  5 36  1  0  0  0  0
  6  5  2  0  0  0  0
  8  2  1  0  0  0  0
  9  8  1  0  0  0  0
  9  7  2  0  0  0  0
 10  9  1  0  0  0  0
 11 10  2  0  0  0  0
 12 11  1  0  0  0  0
 13 12  2  0  0  0  0
 13 15  1  0  0  0  0
 14 10  1  0  0  0  0
 15 14  2  0  0  0  0
 16 13  1  0  0  0  0
 17  4  1  0  0  0  0
 18 17  1  0  0  0  0
 19 18  1  0  0  0  0
 20 19  1  0  0  0  0
 21 22  1  6  0  0  0
 21 19  1  0  0  0  0
 21 23  1  0  0  0  0
 24 23  1  0  0  0  0
 24 28  1  0  0  0  0
 25 34  1  0  0  0  0
 26 31  1  0  0  0  0
 27 28  2  0  0  0  0
 27 30  1  0  0  0  0
 28 25  1  0  0  0  0
 29 26  2  0  0  0  0
 30 29  1  0  0  0  0
 30 34  2  0  0  0  0
 32 31  2  0  0  0  0
 32 35  1  0  0  0  0
 33 27  1  0  0  0  0
 34 32  1  0  0  0  0
 36 37  1  0  0  0  0
 38 37  1  0  0  0  0
 38 39  1  0  0  0  0
 40 39  1  0  0  0  0
M  END
>  <MODEL>
9

>  <REMARK>
 VINA RESULT:      -6.5      3.968      9.124
  Name = 
  13 active torsions:
  status: ('A' for Active; 'I' for Inactive)
    1  A    between atoms: C_2  and  N_7
    2  A    between atoms: C_8  and  C_29
    3  A    between atoms: C_9  and  N_17
    4  A    between atoms: C_11  and  O_24
    5  A    between atoms: N_12  and  C_20
    6  A    between atoms: N_12  and  C_26
    7  A    between atoms: C_15  and  C_38
    8  A    between atoms: N_17  and  C_25
    9  A    between atoms: C_20  and  C_25
   10  A    between atoms: O_24  and  C_26
   11  A    between atoms: N_32  and  C_34
   12  A    between atoms: N_32  and  C_38
   13  A    between atoms: C_34  and  C_35
                            x       y       z     vdW  Elec       q    Type
                         _______ _______ _______ _____ _____    ______ ____

>  <TORSDO>
F 13

$$$$
