=
 OpenBabel11042421233D

 33 37  0  0  1  0  0  0  0  0999 V2000
  161.9660  209.4510  150.6550 C   0  0  2  0  0  3  0  0  0  0  0  0
  161.2920  206.4090  153.0570 C   0  0  0  0  0  3  0  0  0  0  0  0
  160.6030  204.2110  150.1790 N   0  0  0  0  0  0  0  0  0  0  0  0
  161.5710  206.3160  150.7040 C   0  0  0  0  0  0  0  0  0  0  0  0
  160.8810  204.4130  148.8600 C   0  0  0  0  0  3  0  0  0  0  0  0
  161.6790  208.9750  149.2330 C   0  0  0  0  0  2  0  0  0  0  0  0
  160.7270  205.0810  152.5360 C   0  0  0  0  0  3  0  0  0  0  0  0
  161.2290  208.5910  151.7150 C   0  0  1  0  0  3  0  0  0  0  0  0
  160.9490  205.1610  151.0830 C   0  0  0  0  0  0  0  0  0  0  0  0
  161.8780  207.1980  151.8620 C   0  0  1  0  0  3  0  0  0  0  0  0
  161.8600  206.5200  149.3540 C   0  0  0  0  0  0  0  0  0  0  0  0
  162.5270  207.7650  148.8840 C   0  0  0  0  0  2  0  0  0  0  0  0
  161.5030  205.5590  148.4570 N   0  0  0  0  0  0  0  0  0  0  0  0
  161.7610  208.4190  154.1860 C   0  0  0  0  0  2  0  0  0  0  0  0
  159.6320  211.5520  154.9270 C   0  0  2  0  0  0  0  0  0  0  0  0
  162.0660  211.0900  155.3960 O   0  0  0  0  0  0  0  0  0  0  0  0
  160.3450  212.8330  155.3570 C   0  0  0  0  0  2  0  0  0  0  0  0
  161.1490  209.2890  153.0880 C   0  0  2  0  0  3  0  0  0  0  0  0
  160.5550  211.3510  157.2610 O   0  0  0  0  0  1  0  0  0  0  0  0
  160.8080  211.4890  155.8910 C   0  0  1  0  0  0  0  0  0  0  0  0
  159.8870  211.0750  153.4910 C   0  0  1  0  0  3  0  0  0  0  0  0
  159.8400  209.6790  153.4070 O   0  0  0  0  0  0  0  0  0  0  0  0
  161.3690  208.8700  155.4510 O   0  0  0  0  0  0  0  0  0  0  0  0
  162.3450  209.7900  155.8700 C   0  0  0  0  0  2  0  0  0  0  0  0
  159.3260  213.2540  151.7490 S   0  0  0  0  0  1  0  0  0  0  0  0
  158.9300  211.6860  152.5130 C   0  0  0  0  0  0  0  0  0  0  0  0
  157.8930  211.1130  152.2160 O   0  0  0  0  0  0  0  0  0  0  0  0
  158.4010  211.2690  155.5410 O   0  0  0  0  0  0  0  0  0  0  0  0
  158.3990  209.9700  155.7720 O   0  0  0  0  0  1  0  0  0  0  0  0
  161.5960  210.7960  150.7500 O   0  0  0  0  0  0  0  0  0  0  0  0
  162.2020  211.4160  149.6530 C   0  0  0  0  0  2  0  0  0  0  0  0
  161.1950  212.2380  147.5310 C   0  0  0  0  0  1  0  0  0  0  0  0
  161.2520  212.4240  149.0340 C   0  0  0  0  0  2  0  0  0  0  0  0
  1 30  1  6  0  0  0
  1  8  1  0  0  0  0
  3  9  1  0  0  0  0
  4  9  2  0  0  0  0
  4 10  1  0  0  0  0
  5  3  2  0  0  0  0
  6  1  1  0  0  0  0
  7  2  2  0  0  0  0
  8 10  1  0  0  0  0
  8 18  1  1  0  0  0
  9  7  1  0  0  0  0
 10  2  1  1  0  0  0
 11  4  1  0  0  0  0
 12  6  1  0  0  0  0
 12 11  1  0  0  0  0
 13  5  1  0  0  0  0
 13 11  2  0  0  0  0
 14 23  1  0  0  0  0
 15 17  1  0  0  0  0
 15 28  1  1  0  0  0
 15 20  1  0  0  0  0
 16 24  1  0  0  0  0
 16 20  1  0  0  0  0
 17 20  1  0  0  0  0
 18 22  1  0  0  0  0
 18 14  1  1  0  0  0
 20 19  1  1  0  0  0
 21 26  1  6  0  0  0
 21 15  1  0  0  0  0
 22 21  1  0  0  0  0
 23 24  1  0  0  0  0
 25 26  1  0  0  0  0
 27 26  2  0  0  0  0
 28 29  1  0  0  0  0
 31 30  1  0  0  0  0
 32 33  1  0  0  0  0
 33 31  1  0  0  0  0
M  END
>  <MODEL>
1

>  <REMARK>
 VINA RESULT:      -5.6      0.000      0.000
  Name = 
  6 active torsions:
  status: ('A' for Active; 'I' for Inactive)
    1  A    between atoms: C_2  and  O_6
    2  A    between atoms: C_3  and  O_12
    3  A    between atoms: O_12  and  C_27
    4  A    between atoms: C_13  and  C_19
    5  A    between atoms: C_18  and  C_28
    6  A    between atoms: C_27  and  C_29
                            x       y       z     vdW  Elec       q    Type
                         _______ _______ _______ _____ _____    ______ ____

>  <TORSDO>
F 6

$$$$
=
 OpenBabel11042421233D

 33 37  0  0  1  0  0  0  0  0999 V2000
  160.8930  212.0590  151.0010 C   0  0  2  0  0  3  0  0  0  0  0  0
  160.7660  208.5010  152.6730 C   0  0  0  0  0  3  0  0  0  0  0  0
  161.6760  206.9010  149.4790 N   0  0  0  0  0  0  0  0  0  0  0  0
  161.6530  209.0270  150.5380 C   0  0  0  0  0  0  0  0  0  0  0  0
  162.1910  207.4680  148.3520 C   0  0  0  0  0  3  0  0  0  0  0  0
  161.1720  211.8500  149.5140 C   0  0  0  0  0  2  0  0  0  0  0  0
  160.8700  207.2160  151.8410 C   0  0  0  0  0  3  0  0  0  0  0  0
  160.2690  210.8010  151.6580 C   0  0  1  0  0  3  0  0  0  0  0  0
  161.4130  207.6830  150.5550 C   0  0  0  0  0  0  0  0  0  0  0  0
  161.3150  209.6780  151.8310 C   0  0  1  0  0  3  0  0  0  0  0  0
  162.1850  209.6070  149.3850 C   0  0  0  0  0  0  0  0  0  0  0  0
  162.4570  211.0690  149.3070 C   0  0  0  0  0  2  0  0  0  0  0  0
  162.4410  208.8100  148.3100 N   0  0  0  0  0  0  0  0  0  0  0  0
  158.2510  211.8130  152.8070 C   0  0  0  0  0  2  0  0  0  0  0  0
  160.0170  211.5990  156.2320 C   0  0  2  0  0  0  0  0  0  0  0  0
  157.8280  210.6100  155.4660 O   0  0  0  0  0  0  0  0  0  0  0  0
  159.4960  210.5970  157.2610 C   0  0  0  0  0  2  0  0  0  0  0  0
  159.5950  211.1140  153.0090 C   0  0  2  0  0  3  0  0  0  0  0  0
  157.7940  212.3180  157.1710 O   0  0  0  0  0  1  0  0  0  0  0  0
  158.5200  211.3930  156.4120 C   0  0  1  0  0  0  0  0  0  0  0  0
  160.6500  211.0130  154.9640 C   0  0  1  0  0  3  0  0  0  0  0  0
  160.4360  211.8460  153.8600 O   0  0  0  0  0  0  0  0  0  0  0  0
  157.8220  212.4140  153.9960 O   0  0  0  0  0  0  0  0  0  0  0  0
  157.0370  211.4630  154.6670 C   0  0  0  0  0  2  0  0  0  0  0  0
  162.7580  210.3430  156.7540 S   0  0  0  0  0  1  0  0  0  0  0  0
  162.1150  210.7440  155.1350 C   0  0  0  0  0  0  0  0  0  0  0  0
  162.8690  210.7750  154.1750 O   0  0  0  0  0  0  0  0  0  0  0  0
  160.4640  212.8390  156.7190 O   0  0  0  0  0  0  0  0  0  0  0  0
  159.9560  213.7510  155.9130 O   0  0  0  0  0  1  0  0  0  0  0  0
  160.0540  213.1690  151.1370 O   0  0  0  0  0  0  0  0  0  0  0  0
  160.0530  213.7790  149.8790 C   0  0  0  0  0  2  0  0  0  0  0  0
  157.9390  213.3860  148.6260 C   0  0  0  0  0  1  0  0  0  0  0  0
  158.6730  214.3240  149.5640 C   0  0  0  0  0  2  0  0  0  0  0  0
  1 30  1  6  0  0  0
  1  8  1  0  0  0  0
  3  9  1  0  0  0  0
  4  9  2  0  0  0  0
  4 10  1  0  0  0  0
  5  3  2  0  0  0  0
  6  1  1  0  0  0  0
  7  2  2  0  0  0  0
  8 10  1  0  0  0  0
  8 18  1  1  0  0  0
  9  7  1  0  0  0  0
 10  2  1  1  0  0  0
 11  4  1  0  0  0  0
 12 11  1  0  0  0  0
 12  6  1  0  0  0  0
 13  5  1  0  0  0  0
 13 11  2  0  0  0  0
 14 23  1  0  0  0  0
 15 20  1  0  0  0  0
 15 28  1  1  0  0  0
 15 17  1  0  0  0  0
 16 20  1  0  0  0  0
 18 14  1  6  0  0  0
 18 22  1  0  0  0  0
 20 19  1  1  0  0  0
 20 17  1  0  0  0  0
 21 26  1  1  0  0  0
 21 15  1  0  0  0  0
 22 21  1  0  0  0  0
 23 24  1  0  0  0  0
 24 16  1  0  0  0  0
 26 25  1  0  0  0  0
 27 26  2  0  0  0  0
 29 28  1  0  0  0  0
 31 30  1  0  0  0  0
 32 33  1  0  0  0  0
 33 31  1  0  0  0  0
M  END
>  <MODEL>
2

>  <REMARK>
 VINA RESULT:      -5.2      2.166      3.511
  Name = 
  6 active torsions:
  status: ('A' for Active; 'I' for Inactive)
    1  A    between atoms: C_2  and  O_6
    2  A    between atoms: C_3  and  O_12
    3  A    between atoms: O_12  and  C_27
    4  A    between atoms: C_13  and  C_19
    5  A    between atoms: C_18  and  C_28
    6  A    between atoms: C_27  and  C_29
                            x       y       z     vdW  Elec       q    Type
                         _______ _______ _______ _____ _____    ______ ____

>  <TORSDO>
F 6

$$$$
=
 OpenBabel11042421233D

 33 37  0  0  1  0  0  0  0  0999 V2000
  161.1600  209.6860  151.5270 C   0  0  2  0  0  3  0  0  0  0  0  0
  159.8030  213.3580  151.1330 C   0  0  0  0  0  3  0  0  0  0  0  0
  162.1790  214.0060  148.3910 N   0  0  0  0  0  0  0  0  0  0  0  0
  161.2370  212.2130  149.6310 C   0  0  0  0  0  0  0  0  0  0  0  0
  162.9100  213.1180  147.6610 C   0  0  0  0  0  3  0  0  0  0  0  0
  162.3290  209.5310  150.5580 C   0  0  0  0  0  2  0  0  0  0  0  0
  160.4970  214.3800  150.2240 C   0  0  0  0  0  3  0  0  0  0  0  0
  160.9020  211.1710  151.8930 C   0  0  1  0  0  3  0  0  0  0  0  0
  161.3550  213.5470  149.3650 C   0  0  0  0  0  0  0  0  0  0  0  0
  160.2590  211.9390  150.7170 C   0  0  1  0  0  3  0  0  0  0  0  0
  161.9810  211.3030  148.8800 C   0  0  0  0  0  0  0  0  0  0  0  0
  161.9000  209.8380  149.1340 C   0  0  0  0  0  2  0  0  0  0  0  0
  162.8090  211.7790  147.9080 N   0  0  0  0  0  0  0  0  0  0  0  0
  158.7360  212.0590  152.8600 C   0  0  0  0  0  2  0  0  0  0  0  0
  159.9960  211.4040  156.4490 C   0  0  2  0  0  0  0  0  0  0  0  0
  157.9440  210.5440  155.2630 O   0  0  0  0  0  0  0  0  0  0  0  0
  159.3390  210.2890  157.2610 C   0  0  0  0  0  2  0  0  0  0  0  0
  160.0410  211.3240  153.1630 C   0  0  2  0  0  3  0  0  0  0  0  0
  157.6590  212.0290  157.1430 O   0  0  0  0  0  1  0  0  0  0  0  0
  158.4900  211.1960  156.3870 C   0  0  1  0  0  0  0  0  0  0  0  0
  160.8070  210.9700  155.2210 C   0  0  1  0  0  3  0  0  0  0  0  0
  160.7480  211.9350  154.2090 O   0  0  0  0  0  0  0  0  0  0  0  0
  158.1390  212.5150  154.0410 O   0  0  0  0  0  0  0  0  0  0  0  0
  157.2710  211.4980  154.4710 C   0  0  0  0  0  2  0  0  0  0  0  0
  162.6420  210.0590  157.1960 S   0  0  0  0  0  1  0  0  0  0  0  0
  162.2330  210.6640  155.5630 C   0  0  0  0  0  0  0  0  0  0  0  0
  163.1170  210.8020  154.7310 O   0  0  0  0  0  0  0  0  0  0  0  0
  160.3630  212.5690  157.1430 O   0  0  0  0  0  0  0  0  0  0  0  0
  160.0810  213.5760  156.3390 O   0  0  0  0  0  1  0  0  0  0  0  0
  161.4330  208.9240  152.6680 O   0  0  0  0  0  0  0  0  0  0  0  0
  161.0000  207.6330  152.3520 C   0  0  0  0  0  2  0  0  0  0  0  0
  160.6550  207.1910  154.7770 C   0  0  0  0  0  1  0  0  0  0  0  0
  161.3000  206.6880  153.5010 C   0  0  0  0  0  2  0  0  0  0  0  0
  1  8  1  0  0  0  0
  1 30  1  1  0  0  0
  3  9  1  0  0  0  0
  4 10  1  0  0  0  0
  5 13  1  0  0  0  0
  5  3  2  0  0  0  0
  6  1  1  0  0  0  0
  7  2  2  0  0  0  0
  8 18  1  1  0  0  0
  9  4  2  0  0  0  0
  9  7  1  0  0  0  0
 10  2  1  1  0  0  0
 10  8  1  0  0  0  0
 11 12  1  0  0  0  0
 11  4  1  0  0  0  0
 12  6  1  0  0  0  0
 13 11  2  0  0  0  0
 14 23  1  0  0  0  0
 15 28  1  1  0  0  0
 15 17  1  0  0  0  0
 16 20  1  0  0  0  0
 18 14  1  6  0  0  0
 18 22  1  0  0  0  0
 20 15  1  0  0  0  0
 20 19  1  1  0  0  0
 20 17  1  0  0  0  0
 21 26  1  1  0  0  0
 21 15  1  0  0  0  0
 22 21  1  0  0  0  0
 23 24  1  0  0  0  0
 24 16  1  0  0  0  0
 26 25  1  0  0  0  0
 27 26  2  0  0  0  0
 29 28  1  0  0  0  0
 31 30  1  0  0  0  0
 31 33  1  0  0  0  0
 33 32  1  0  0  0  0
M  END
>  <MODEL>
3

>  <REMARK>
 VINA RESULT:      -5.1      2.820      5.442
  Name = 
  6 active torsions:
  status: ('A' for Active; 'I' for Inactive)
    1  A    between atoms: C_2  and  O_6
    2  A    between atoms: C_3  and  O_12
    3  A    between atoms: O_12  and  C_27
    4  A    between atoms: C_13  and  C_19
    5  A    between atoms: C_18  and  C_28
    6  A    between atoms: C_27  and  C_29
                            x       y       z     vdW  Elec       q    Type
                         _______ _______ _______ _____ _____    ______ ____

>  <TORSDO>
F 6

$$$$
=
 OpenBabel11042421233D

 33 37  0  0  1  0  0  0  0  0999 V2000
  161.4510  209.9710  151.4790 C   0  0  2  0  0  3  0  0  0  0  0  0
  160.2430  207.9180  154.6090 C   0  0  0  0  0  3  0  0  0  0  0  0
  161.1360  204.7490  152.9520 N   0  0  0  0  0  0  0  0  0  0  0  0
  161.4980  207.0900  152.7770 C   0  0  0  0  0  0  0  0  0  0  0  0
  161.9150  204.5460  151.8520 C   0  0  0  0  0  3  0  0  0  0  0  0
  161.8580  208.9620  150.4080 C   0  0  0  0  0  2  0  0  0  0  0  0
  160.1340  206.3880  154.5770 C   0  0  0  0  0  3  0  0  0  0  0  0
  160.4580  209.3610  152.5030 C   0  0  1  0  0  3  0  0  0  0  0  0
  160.9360  206.0130  153.4000 C   0  0  0  0  0  0  0  0  0  0  0  0
  161.1660  208.3710  153.4540 C   0  0  1  0  0  3  0  0  0  0  0  0
  162.3000  206.8810  151.6530 C   0  0  0  0  0  0  0  0  0  0  0  0
  162.9280  208.0200  150.9280 C   0  0  0  0  0  2  0  0  0  0  0  0
  162.4890  205.6070  151.2120 N   0  0  0  0  0  0  0  0  0  0  0  0
  158.8080  211.2820  152.4170 C   0  0  0  0  0  2  0  0  0  0  0  0
  159.6670  212.2640  156.0490 C   0  0  2  0  0  0  0  0  0  0  0  0
  157.4550  211.6380  155.0130 O   0  0  0  0  0  0  0  0  0  0  0  0
  158.6130  212.0420  157.1330 C   0  0  0  0  0  2  0  0  0  0  0  0
  159.7130  210.4400  153.3160 C   0  0  2  0  0  3  0  0  0  0  0  0
  157.7590  213.8910  155.8220 O   0  0  0  0  0  1  0  0  0  0  0  0
  158.2020  212.5650  155.7680 C   0  0  1  0  0  0  0  0  0  0  0  0
  160.2540  211.0050  155.3970 C   0  0  1  0  0  3  0  0  0  0  0  0
  160.5920  211.2400  154.0600 O   0  0  0  0  0  0  0  0  0  0  0  0
  158.4270  212.4620  153.0650 O   0  0  0  0  0  0  0  0  0  0  0  0
  157.2230  212.1830  153.7320 C   0  0  0  0  0  2  0  0  0  0  0  0
  163.0820  210.7090  155.4810 S   0  0  0  0  0  1  0  0  0  0  0  0
  161.4390  210.4790  156.1480 C   0  0  0  0  0  0  0  0  0  0  0  0
  161.2960  209.9140  157.2210 O   0  0  0  0  0  0  0  0  0  0  0  0
  160.4570  213.4210  156.1530 O   0  0  0  0  0  0  0  0  0  0  0  0
  161.1710  213.2770  157.2530 O   0  0  0  0  0  1  0  0  0  0  0  0
  160.8980  211.0860  150.8420 O   0  0  0  0  0  0  0  0  0  0  0  0
  161.8300  211.4430  149.8630 C   0  0  0  0  0  2  0  0  0  0  0  0
  161.2250  212.1560  147.5570 C   0  0  0  0  0  1  0  0  0  0  0  0
  161.2850  212.5750  149.0120 C   0  0  0  0  0  2  0  0  0  0  0  0
  1 30  1  6  0  0  0
  1  8  1  0  0  0  0
  3  9  1  0  0  0  0
  4  9  2  0  0  0  0
  4 10  1  0  0  0  0
  5  3  2  0  0  0  0
  6 12  1  0  0  0  0
  6  1  1  0  0  0  0
  7  2  2  0  0  0  0
  8 18  1  1  0  0  0
  8 10  1  0  0  0  0
  9  7  1  0  0  0  0
 10  2  1  1  0  0  0
 11  4  1  0  0  0  0
 12 11  1  0  0  0  0
 13 11  2  0  0  0  0
 13  5  1  0  0  0  0
 14 23  1  0  0  0  0
 15 28  1  1  0  0  0
 15 17  1  0  0  0  0
 16 20  1  0  0  0  0
 18 14  1  6  0  0  0
 18 22  1  0  0  0  0
 20 19  1  6  0  0  0
 20 15  1  0  0  0  0
 20 17  1  0  0  0  0
 21 15  1  0  0  0  0
 21 26  1  1  0  0  0
 22 21  1  0  0  0  0
 23 24  1  0  0  0  0
 24 16  1  0  0  0  0
 25 26  1  0  0  0  0
 26 27  2  0  0  0  0
 28 29  1  0  0  0  0
 31 30  1  0  0  0  0
 32 33  1  0  0  0  0
 33 31  1  0  0  0  0
M  END
>  <MODEL>
4

>  <REMARK>
 VINA RESULT:      -4.2      1.838      3.220
  Name = 
  6 active torsions:
  status: ('A' for Active; 'I' for Inactive)
    1  A    between atoms: C_2  and  O_6
    2  A    between atoms: C_3  and  O_12
    3  A    between atoms: O_12  and  C_27
    4  A    between atoms: C_13  and  C_19
    5  A    between atoms: C_18  and  C_28
    6  A    between atoms: C_27  and  C_29
                            x       y       z     vdW  Elec       q    Type
                         _______ _______ _______ _____ _____    ______ ____

>  <TORSDO>
F 6

$$$$
=
 OpenBabel11042421233D

 33 37  0  0  1  0  0  0  0  0999 V2000
  161.2050  211.2870  155.6880 C   0  0  2  0  0  3  0  0  0  0  0  0
  158.5020  212.0010  152.9210 C   0  0  0  0  0  3  0  0  0  0  0  0
  156.1420  213.2480  155.4630 N   0  0  0  0  0  0  0  0  0  0  0  0
  158.4430  212.7330  155.1760 C   0  0  0  0  0  0  0  0  0  0  0  0
  156.3850  213.6120  156.7530 C   0  0  0  0  0  3  0  0  0  0  0  0
  160.5640  211.6010  157.0380 C   0  0  0  0  0  2  0  0  0  0  0  0
  157.0650  212.3990  153.2820 C   0  0  0  0  0  3  0  0  0  0  0  0
  160.1450  210.9760  154.6000 C   0  0  1  0  0  3  0  0  0  0  0  0
  157.1690  212.8130  154.6910 C   0  0  0  0  0  0  0  0  0  0  0  0
  159.4080  212.2560  154.1490 C   0  0  1  0  0  3  0  0  0  0  0  0
  158.6920  213.1100  156.4960 C   0  0  0  0  0  0  0  0  0  0  0  0
  160.0600  213.0330  157.0790 C   0  0  0  0  0  2  0  0  0  0  0  0
  157.6500  213.5410  157.2610 N   0  0  0  0  0  0  0  0  0  0  0  0
  160.7730  211.1640  152.1520 C   0  0  0  0  0  2  0  0  0  0  0  0
  161.4130  207.3630  151.9600 C   0  0  2  0  0  0  0  0  0  0  0  0
  162.9510  209.2980  151.4670 O   0  0  0  0  0  0  0  0  0  0  0  0
  162.8500  206.8730  151.7930 C   0  0  0  0  0  2  0  0  0  0  0  0
  160.7490  210.2530  153.3790 C   0  0  2  0  0  3  0  0  0  0  0  0
  162.2870  207.8540  149.6510 O   0  0  0  0  0  1  0  0  0  0  0  0
  162.3680  208.0920  151.0280 C   0  0  1  0  0  0  0  0  0  0  0  0
  161.0760  208.0550  153.2880 C   0  0  1  0  0  3  0  0  0  0  0  0
  160.0980  209.0400  153.1100 O   0  0  0  0  0  0  0  0  0  0  0  0
  160.9690  210.4180  150.9850 O   0  0  0  0  0  0  0  0  0  0  0  0
  162.3550  210.3690  150.7670 C   0  0  0  0  0  2  0  0  0  0  0  0
  159.9200  207.6820  155.8610 S   0  0  0  0  0  1  0  0  0  0  0  0
  160.6440  207.0800  154.3410 C   0  0  0  0  0  0  0  0  0  0  0  0
  160.7610  205.8780  154.1620 O   0  0  0  0  0  0  0  0  0  0  0  0
  160.4120  206.6520  151.2770 O   0  0  0  0  0  0  0  0  0  0  0  0
  160.8840  205.4330  151.1060 O   0  0  0  0  0  1  0  0  0  0  0  0
  162.0830  210.2110  155.8610 O   0  0  0  0  0  0  0  0  0  0  0  0
  163.3600  210.7790  155.8410 C   0  0  0  0  0  2  0  0  0  0  0  0
  165.1780  211.7470  157.2370 C   0  0  0  0  0  1  0  0  0  0  0  0
  163.8300  211.0550  157.2570 C   0  0  0  0  0  2  0  0  0  0  0  0
  1 30  1  1  0  0  0
  1  6  1  0  0  0  0
  2  7  2  0  0  0  0
  3  5  1  0  0  0  0
  4 11  2  0  0  0  0
  5 13  2  0  0  0  0
  6 12  1  0  0  0  0
  7  9  1  0  0  0  0
  8 18  1  6  0  0  0
  8  1  1  0  0  0  0
  9  4  1  0  0  0  0
  9  3  2  0  0  0  0
 10  2  1  6  0  0  0
 10  8  1  0  0  0  0
 10  4  1  0  0  0  0
 11 12  1  0  0  0  0
 11 13  1  0  0  0  0
 15 28  1  6  0  0  0
 15 21  1  0  0  0  0
 17 15  1  0  0  0  0
 18 14  1  6  0  0  0
 20 19  1  6  0  0  0
 20 16  1  0  0  0  0
 20 17  1  0  0  0  0
 20 15  1  0  0  0  0
 21 26  1  1  0  0  0
 22 21  1  0  0  0  0
 22 18  1  0  0  0  0
 23 14  1  0  0  0  0
 24 23  1  0  0  0  0
 24 16  1  0  0  0  0
 26 25  1  0  0  0  0
 27 26  2  0  0  0  0
 29 28  1  0  0  0  0
 31 30  1  0  0  0  0
 31 33  1  0  0  0  0
 32 33  1  0  0  0  0
M  END
>  <MODEL>
5

>  <REMARK>
 VINA RESULT:      -3.9      3.765      7.427
  Name = 
  6 active torsions:
  status: ('A' for Active; 'I' for Inactive)
    1  A    between atoms: C_2  and  O_6
    2  A    between atoms: C_3  and  O_12
    3  A    between atoms: O_12  and  C_27
    4  A    between atoms: C_13  and  C_19
    5  A    between atoms: C_18  and  C_28
    6  A    between atoms: C_27  and  C_29
                            x       y       z     vdW  Elec       q    Type
                         _______ _______ _______ _____ _____    ______ ____

>  <TORSDO>
F 6

$$$$
=
 OpenBabel11042421233D

 33 37  0  0  1  0  0  0  0  0999 V2000
  161.2920  207.8380  151.7140 C   0  0  2  0  0  3  0  0  0  0  0  0
  161.3550  211.0830  153.9370 C   0  0  0  0  0  3  0  0  0  0  0  0
  160.3200  209.1470  156.8980 N   0  0  0  0  0  0  0  0  0  0  0  0
  161.1850  208.8470  154.7060 C   0  0  0  0  0  0  0  0  0  0  0  0
  160.3210  207.7970  157.0840 C   0  0  0  0  0  3  0  0  0  0  0  0
  160.7800  206.6990  152.5920 C   0  0  0  0  0  2  0  0  0  0  0  0
  160.8160  211.0860  155.3740 C   0  0  0  0  0  3  0  0  0  0  0  0
  160.8480  209.2260  152.2450 C   0  0  1  0  0  3  0  0  0  0  0  0
  160.7480  209.6560  155.7160 C   0  0  0  0  0  0  0  0  0  0  0  0
  161.6310  209.6200  153.5170 C   0  0  1  0  0  3  0  0  0  0  0  0
  161.1910  207.4650  154.8990 C   0  0  0  0  0  0  0  0  0  0  0  0
  161.6460  206.5350  153.8280 C   0  0  0  0  0  2  0  0  0  0  0  0
  160.7530  206.9680  156.0890 N   0  0  0  0  0  0  0  0  0  0  0  0
  162.3280  210.2720  150.4750 C   0  0  0  0  0  2  0  0  0  0  0  0
  159.9200  213.2700  150.1430 C   0  0  2  0  0  0  0  0  0  0  0  0
  160.7190  211.6250  148.4080 O   0  0  0  0  0  0  0  0  0  0  0  0
  159.1060  213.4130  148.8580 C   0  0  0  0  0  2  0  0  0  0  0  0
  160.9730  210.3330  151.1790 C   0  0  2  0  0  3  0  0  0  0  0  0
  161.3780  213.9380  148.2030 O   0  0  0  0  0  1  0  0  0  0  0  0
  160.5580  212.9710  148.7940 C   0  0  1  0  0  0  0  0  0  0  0  0
  159.5870  212.0660  151.0350 C   0  0  1  0  0  3  0  0  0  0  0  0
  160.7230  211.6070  151.7100 O   0  0  0  0  0  0  0  0  0  0  0  0
  162.5840  211.4650  149.7900 O   0  0  0  0  0  0  0  0  0  0  0  0
  162.0890  211.2940  148.4870 C   0  0  0  0  0  2  0  0  0  0  0  0
  157.3600  213.7160  151.6800 S   0  0  0  0  0  1  0  0  0  0  0  0
  158.4910  212.3710  152.0110 C   0  0  0  0  0  0  0  0  0  0  0  0
  158.3490  211.6950  153.0180 O   0  0  0  0  0  0  0  0  0  0  0  0
  160.4010  214.4520  150.7300 O   0  0  0  0  0  0  0  0  0  0  0  0
  161.7060  214.4520  150.5330 O   0  0  0  0  0  1  0  0  0  0  0  0
  160.8320  207.6260  150.4100 O   0  0  0  0  0  0  0  0  0  0  0  0
  161.6150  206.5790  149.9160 C   0  0  0  0  0  2  0  0  0  0  0  0
  161.1940  204.1670  149.4670 C   0  0  0  0  0  1  0  0  0  0  0  0
  160.7450  205.5840  149.1710 C   0  0  0  0  0  2  0  0  0  0  0  0
  1 30  1  6  0  0  0
  1  8  1  0  0  0  0
  1  6  1  0  0  0  0
  2  7  2  0  0  0  0
  3  5  1  0  0  0  0
  4 11  2  0  0  0  0
  4  9  1  0  0  0  0
  6 12  1  0  0  0  0
  7  9  1  0  0  0  0
  8 18  1  6  0  0  0
  8 10  1  0  0  0  0
  9  3  2  0  0  0  0
 10  2  1  1  0  0  0
 10  4  1  0  0  0  0
 11 13  1  0  0  0  0
 12 11  1  0  0  0  0
 13  5  2  0  0  0  0
 15 28  1  1  0  0  0
 15 21  1  0  0  0  0
 16 24  1  0  0  0  0
 16 20  1  0  0  0  0
 17 15  1  0  0  0  0
 18 14  1  1  0  0  0
 18 22  1  0  0  0  0
 20 19  1  6  0  0  0
 20 17  1  0  0  0  0
 20 15  1  0  0  0  0
 21 22  1  0  0  0  0
 21 26  1  1  0  0  0
 23 14  1  0  0  0  0
 24 23  1  0  0  0  0
 25 26  1  0  0  0  0
 26 27  2  0  0  0  0
 29 28  1  0  0  0  0
 31 30  1  0  0  0  0
 33 32  1  0  0  0  0
 33 31  1  0  0  0  0
M  END
>  <MODEL>
6

>  <REMARK>
 VINA RESULT:      -3.8      2.641      5.720
  Name = 
  6 active torsions:
  status: ('A' for Active; 'I' for Inactive)
    1  A    between atoms: C_2  and  O_6
    2  A    between atoms: C_3  and  O_12
    3  A    between atoms: O_12  and  C_27
    4  A    between atoms: C_13  and  C_19
    5  A    between atoms: C_18  and  C_28
    6  A    between atoms: C_27  and  C_29
                            x       y       z     vdW  Elec       q    Type
                         _______ _______ _______ _____ _____    ______ ____

>  <TORSDO>
F 6

$$$$
=
 OpenBabel11042421233D

 33 37  0  0  1  0  0  0  0  0999 V2000
  161.2110  207.6760  152.6800 C   0  0  2  0  0  3  0  0  0  0  0  0
  162.4560  207.3400  148.9630 C   0  0  0  0  0  3  0  0  0  0  0  0
  161.9680  210.9510  148.4090 N   0  0  0  0  0  0  0  0  0  0  0  0
  162.1210  209.3570  150.1630 C   0  0  0  0  0  0  0  0  0  0  0  0
  161.7860  211.9420  149.3260 C   0  0  0  0  0  3  0  0  0  0  0  0
  160.7750  209.1250  152.8800 C   0  0  0  0  0  2  0  0  0  0  0  0
  162.3500  208.5030  147.9700 C   0  0  0  0  0  3  0  0  0  0  0  0
  161.1820  207.2620  151.1850 C   0  0  1  0  0  3  0  0  0  0  0  0
  162.1320  209.6740  148.8350 C   0  0  0  0  0  0  0  0  0  0  0  0
  162.3450  207.9060  150.3990 C   0  0  1  0  0  3  0  0  0  0  0  0
  161.9400  210.3740  151.1020 C   0  0  0  0  0  0  0  0  0  0  0  0
  161.9090  210.0830  152.5620 C   0  0  0  0  0  2  0  0  0  0  0  0
  161.7720  211.6510  150.6590 N   0  0  0  0  0  0  0  0  0  0  0  0
  161.8860  205.0370  152.1710 C   0  0  0  0  0  2  0  0  0  0  0  0
  161.0250  203.2310  148.8700 C   0  0  2  0  0  0  0  0  0  0  0  0
  160.1560  202.8520  151.2060 O   0  0  0  0  0  0  0  0  0  0  0  0
  159.8200  202.2920  148.8460 C   0  0  0  0  0  2  0  0  0  0  0  0
  161.1960  205.7310  150.9970 C   0  0  2  0  0  3  0  0  0  0  0  0
  161.4790  201.1220  150.1670 O   0  0  0  0  0  1  0  0  0  0  0  0
  160.7470  202.3090  150.0480 C   0  0  1  0  0  0  0  0  0  0  0  0
  160.7250  204.7230  149.0720 C   0  0  1  0  0  3  0  0  0  0  0  0
  161.7600  205.3560  149.7700 O   0  0  0  0  0  0  0  0  0  0  0  0
  162.2200  203.7190  151.8390 O   0  0  0  0  0  0  0  0  0  0  0  0
  161.1330  202.9190  152.2230 C   0  0  0  0  0  2  0  0  0  0  0  0
  161.4080  204.9840  146.3220 S   0  0  0  0  0  1  0  0  0  0  0  0
  160.4660  205.4290  147.7760 C   0  0  0  0  0  0  0  0  0  0  0  0
  159.6020  206.2880  147.6970 O   0  0  0  0  0  0  0  0  0  0  0  0
  162.1510  202.8470  148.1230 O   0  0  0  0  0  0  0  0  0  0  0  0
  161.6960  202.0890  147.1440 O   0  0  0  0  0  1  0  0  0  0  0  0
  160.3760  206.8580  153.4470 O   0  0  0  0  0  0  0  0  0  0  0  0
  160.8330  207.0050  154.7600 C   0  0  0  0  0  2  0  0  0  0  0  0
  160.1270  207.1150  157.1440 C   0  0  0  0  0  1  0  0  0  0  0  0
  159.6580  207.1780  155.7040 C   0  0  0  0  0  2  0  0  0  0  0  0
  1  6  1  0  0  0  0
  1 30  1  1  0  0  0
  3  9  2  0  0  0  0
  3  5  1  0  0  0  0
  4 10  1  0  0  0  0
  4 11  2  0  0  0  0
  5 13  2  0  0  0  0
  7  9  1  0  0  0  0
  7  2  2  0  0  0  0
  8 18  1  1  0  0  0
  8  1  1  0  0  0  0
  9  4  1  0  0  0  0
 10  2  1  6  0  0  0
 10  8  1  0  0  0  0
 11 12  1  0  0  0  0
 12  6  1  0  0  0  0
 13 11  1  0  0  0  0
 15 28  1  6  0  0  0
 15 21  1  0  0  0  0
 15 20  1  0  0  0  0
 16 24  1  0  0  0  0
 17 15  1  0  0  0  0
 17 20  1  0  0  0  0
 18 14  1  1  0  0  0
 20 19  1  1  0  0  0
 20 16  1  0  0  0  0
 21 26  1  6  0  0  0
 21 22  1  0  0  0  0
 22 18  1  0  0  0  0
 23 14  1  0  0  0  0
 23 24  1  0  0  0  0
 25 26  1  0  0  0  0
 27 26  2  0  0  0  0
 29 28  1  0  0  0  0
 30 31  1  0  0  0  0
 31 33  1  0  0  0  0
 33 32  1  0  0  0  0
M  END
>  <MODEL>
7

>  <REMARK>
 VINA RESULT:      -3.7      4.407      7.642
  Name = 
  6 active torsions:
  status: ('A' for Active; 'I' for Inactive)
    1  A    between atoms: C_2  and  O_6
    2  A    between atoms: C_3  and  O_12
    3  A    between atoms: O_12  and  C_27
    4  A    between atoms: C_13  and  C_19
    5  A    between atoms: C_18  and  C_28
    6  A    between atoms: C_27  and  C_29
                            x       y       z     vdW  Elec       q    Type
                         _______ _______ _______ _____ _____    ______ ____

>  <TORSDO>
F 6

$$$$
=
 OpenBabel11042421233D

 33 37  0  0  1  0  0  0  0  0999 V2000
  161.9480  208.1260  150.6570 C   0  0  2  0  0  3  0  0  0  0  0  0
  161.1460  205.0780  153.0120 C   0  0  0  0  0  3  0  0  0  0  0  0
  160.3440  202.9630  150.1020 N   0  0  0  0  0  0  0  0  0  0  0  0
  161.4100  205.0120  150.6560 C   0  0  0  0  0  0  0  0  0  0  0  0
  160.6240  203.1740  148.7850 C   0  0  0  0  0  3  0  0  0  0  0  0
  161.6330  207.6880  149.2290 C   0  0  0  0  0  2  0  0  0  0  0  0
  160.5180  203.7870  152.4720 C   0  0  0  0  0  3  0  0  0  0  0  0
  161.1770  207.2840  151.7060 C   0  0  1  0  0  3  0  0  0  0  0  0
  160.7370  203.8810  151.0200 C   0  0  0  0  0  0  0  0  0  0  0  0
  161.7620  205.8590  151.8270 C   0  0  1  0  0  3  0  0  0  0  0  0
  161.7010  205.2250  149.3080 C   0  0  0  0  0  0  0  0  0  0  0  0
  162.4230  206.4460  148.8550 C   0  0  0  0  0  2  0  0  0  0  0  0
  161.2970  204.2970  148.3970 N   0  0  0  0  0  0  0  0  0  0  0  0
  161.3560  206.9440  154.2100 C   0  0  0  0  0  2  0  0  0  0  0  0
  160.0990  210.5360  154.8510 C   0  0  2  0  0  0  0  0  0  0  0  0
  162.2430  209.4130  155.5570 O   0  0  0  0  0  0  0  0  0  0  0  0
  161.0820  211.5650  155.4070 C   0  0  0  0  0  2  0  0  0  0  0  0
  161.1360  207.9610  153.0910 C   0  0  2  0  0  3  0  0  0  0  0  0
  160.6590  210.0620  157.2590 O   0  0  0  0  0  1  0  0  0  0  0  0
  161.0940  210.1400  155.9320 C   0  0  1  0  0  0  0  0  0  0  0  0
  160.3750  210.0220  153.4320 C   0  0  1  0  0  3  0  0  0  0  0  0
  159.9570  208.6950  153.2850 O   0  0  0  0  0  0  0  0  0  0  0  0
  160.9630  207.4730  155.4450 O   0  0  0  0  0  0  0  0  0  0  0  0
  162.0980  208.0810  156.0030 C   0  0  0  0  0  2  0  0  0  0  0  0
  160.3840  212.5260  152.0800 S   0  0  0  0  0  1  0  0  0  0  0  0
  159.7400  210.8850  152.3840 C   0  0  0  0  0  0  0  0  0  0  0  0
  158.8030  210.4710  151.7200 O   0  0  0  0  0  0  0  0  0  0  0  0
  158.7750  210.5990  155.3180 O   0  0  0  0  0  0  0  0  0  0  0  0
  158.0440  210.9750  154.2870 O   0  0  0  0  0  1  0  0  0  0  0  0
  161.6410  209.4850  150.7760 O   0  0  0  0  0  0  0  0  0  0  0  0
  162.4700  210.1260  149.8500 C   0  0  0  0  0  2  0  0  0  0  0  0
  162.5720  212.0090  148.2270 C   0  0  0  0  0  1  0  0  0  0  0  0
  161.8770  211.4670  149.4600 C   0  0  0  0  0  2  0  0  0  0  0  0
  1 30  1  6  0  0  0
  1  8  1  0  0  0  0
  3  9  1  0  0  0  0
  4  9  2  0  0  0  0
  4 10  1  0  0  0  0
  5  3  2  0  0  0  0
  6  1  1  0  0  0  0
  7  2  2  0  0  0  0
  8 10  1  0  0  0  0
  8 18  1  1  0  0  0
  9  7  1  0  0  0  0
 10  2  1  1  0  0  0
 11  4  1  0  0  0  0
 12  6  1  0  0  0  0
 12 11  1  0  0  0  0
 13  5  1  0  0  0  0
 13 11  2  0  0  0  0
 14 23  1  0  0  0  0
 15 28  1  1  0  0  0
 15 17  1  0  0  0  0
 15 20  1  0  0  0  0
 16 20  1  0  0  0  0
 16 24  1  0  0  0  0
 17 20  1  0  0  0  0
 18 22  1  0  0  0  0
 18 14  1  1  0  0  0
 20 19  1  1  0  0  0
 21 26  1  6  0  0  0
 21 15  1  0  0  0  0
 22 21  1  0  0  0  0
 23 24  1  0  0  0  0
 25 26  1  0  0  0  0
 27 26  2  0  0  0  0
 29 28  1  0  0  0  0
 31 30  1  0  0  0  0
 32 33  1  0  0  0  0
 33 31  1  0  0  0  0
M  END
>  <MODEL>
8

>  <REMARK>
 VINA RESULT:      -2.8      1.171      1.344
  Name = 
  6 active torsions:
  status: ('A' for Active; 'I' for Inactive)
    1  A    between atoms: C_2  and  O_6
    2  A    between atoms: C_3  and  O_12
    3  A    between atoms: O_12  and  C_27
    4  A    between atoms: C_13  and  C_19
    5  A    between atoms: C_18  and  C_28
    6  A    between atoms: C_27  and  C_29
                            x       y       z     vdW  Elec       q    Type
                         _______ _______ _______ _____ _____    ______ ____

>  <TORSDO>
F 6

$$$$
=
 OpenBabel11042421233D

 33 37  0  0  1  0  0  0  0  0999 V2000
  161.7710  207.9300  150.6160 C   0  0  2  0  0  3  0  0  0  0  0  0
  160.5870  206.1540  153.9200 C   0  0  0  0  0  3  0  0  0  0  0  0
  161.4070  209.1540  155.8980 N   0  0  0  0  0  0  0  0  0  0  0  0
  161.0720  208.4590  153.6520 C   0  0  0  0  0  0  0  0  0  0  0  0
  161.6550  210.4230  155.4690 C   0  0  0  0  0  3  0  0  0  0  0  0
  162.3290  209.2950  151.0120 C   0  0  0  0  0  2  0  0  0  0  0  0
  160.8200  206.7820  155.3000 C   0  0  0  0  0  3  0  0  0  0  0  0
  161.7980  206.9260  151.7980 C   0  0  1  0  0  3  0  0  0  0  0  0
  161.1210  208.1890  154.9900 C   0  0  0  0  0  0  0  0  0  0  0  0
  160.7150  207.2610  152.8470 C   0  0  1  0  0  3  0  0  0  0  0  0
  161.3210  209.7610  153.2130 C   0  0  0  0  0  0  0  0  0  0  0  0
  161.2930  210.1090  151.7650 C   0  0  0  0  0  2  0  0  0  0  0  0
  161.6120  210.7180  154.1370 N   0  0  0  0  0  0  0  0  0  0  0  0
  162.4310  204.5140  152.2410 C   0  0  0  0  0  2  0  0  0  0  0  0
  160.9790  203.4400  148.8300 C   0  0  2  0  0  0  0  0  0  0  0  0
  160.4030  202.6660  151.1600 O   0  0  0  0  0  0  0  0  0  0  0  0
  159.7050  202.5970  148.8130 C   0  0  0  0  0  2  0  0  0  0  0  0
  161.6520  205.4640  151.3310 C   0  0  2  0  0  3  0  0  0  0  0  0
  161.4180  201.0950  149.6340 O   0  0  0  0  0  1  0  0  0  0  0  0
  160.7830  202.3240  149.8460 C   0  0  1  0  0  0  0  0  0  0  0  0
  160.8400  204.8790  149.3450 C   0  0  1  0  0  3  0  0  0  0  0  0
  162.0110  205.3010  149.9850 O   0  0  0  0  0  0  0  0  0  0  0  0
  162.6020  203.2690  151.6260 O   0  0  0  0  0  0  0  0  0  0  0  0
  161.5110  202.4750  152.0140 C   0  0  0  0  0  2  0  0  0  0  0  0
  161.4310  205.8750  146.7470 S   0  0  0  0  0  1  0  0  0  0  0  0
  160.4710  205.8380  148.2550 C   0  0  0  0  0  0  0  0  0  0  0  0
  159.5070  206.5780  148.3760 O   0  0  0  0  0  0  0  0  0  0  0  0
  161.9550  203.1420  147.8650 O   0  0  0  0  0  0  0  0  0  0  0  0
  161.3030  202.6660  146.8220 O   0  0  0  0  0  1  0  0  0  0  0  0
  162.5120  207.4530  149.5300 O   0  0  0  0  0  0  0  0  0  0  0  0
  162.9200  208.5970  148.8390 C   0  0  0  0  0  2  0  0  0  0  0  0
  161.9560  210.8090  148.2290 C   0  0  0  0  0  1  0  0  0  0  0  0
  161.7150  209.3130  148.2580 C   0  0  0  0  0  2  0  0  0  0  0  0
  1 30  1  6  0  0  0
  1  6  1  0  0  0  0
  1  8  1  0  0  0  0
  2  7  2  0  0  0  0
  4  9  1  0  0  0  0
  5  3  1  0  0  0  0
  6 12  1  0  0  0  0
  8 18  1  6  0  0  0
  8 10  1  0  0  0  0
  9  7  1  0  0  0  0
  9  3  2  0  0  0  0
 10  4  1  0  0  0  0
 10  2  1  1  0  0  0
 11  4  2  0  0  0  0
 11 13  1  0  0  0  0
 12 11  1  0  0  0  0
 13  5  2  0  0  0  0
 15 28  1  6  0  0  0
 15 21  1  0  0  0  0
 15 20  1  0  0  0  0
 16 24  1  0  0  0  0
 17 15  1  0  0  0  0
 17 20  1  0  0  0  0
 18 14  1  1  0  0  0
 20 19  1  6  0  0  0
 20 16  1  0  0  0  0
 21 26  1  6  0  0  0
 21 22  1  0  0  0  0
 22 18  1  0  0  0  0
 23 24  1  0  0  0  0
 23 14  1  0  0  0  0
 25 26  1  0  0  0  0
 26 27  2  0  0  0  0
 29 28  1  0  0  0  0
 31 30  1  0  0  0  0
 32 33  1  0  0  0  0
 33 31  1  0  0  0  0
M  END
>  <MODEL>
9

>  <REMARK>
 VINA RESULT:      -2.7      4.468      7.107
  Name = 
  6 active torsions:
  status: ('A' for Active; 'I' for Inactive)
    1  A    between atoms: C_2  and  O_6
    2  A    between atoms: C_3  and  O_12
    3  A    between atoms: O_12  and  C_27
    4  A    between atoms: C_13  and  C_19
    5  A    between atoms: C_18  and  C_28
    6  A    between atoms: C_27  and  C_29
                            x       y       z     vdW  Elec       q    Type
                         _______ _______ _______ _____ _____    ______ ____

>  <TORSDO>
F 6

$$$$
