=
 OpenBabel11042423073D

 48 54  0  0  1  0  0  0  0  0999 V2000
  161.7370  209.5540  151.9940 C   0  0  0  0  0  3  0  0  0  0  0  0
  161.3200  207.2450  152.6840 C   0  0  0  0  0  0  0  0  0  0  0  0
  161.1100  204.1230  150.6780 C   0  0  0  0  0  0  0  0  0  0  0  0
  161.1650  205.8890  152.3380 C   0  0  0  0  0  0  0  0  0  0  0  0
  161.5830  208.1980  151.6750 C   0  0  0  0  0  0  0  0  0  0  0  0
  160.6840  201.8530  151.4490 C   0  0  0  0  0  3  0  0  0  0  0  0
  162.0000  210.4930  151.0010 C   0  0  0  0  0  3  0  0  0  0  0  0
  160.6160  200.0690  149.8700 F   0  0  0  0  0  0  0  0  0  0  0  0
  161.2700  205.4830  150.9920 C   0  0  0  0  0  0  0  0  0  0  0  0
  160.8490  203.2130  151.7240 C   0  0  0  0  0  0  0  0  0  0  0  0
  161.6910  207.7910  150.3210 C   0  0  0  0  0  0  0  0  0  0  0  0
  161.9560  208.7420  149.3080 C   0  0  0  0  0  0  0  0  0  0  0  0
  162.1190  210.1040  149.6640 C   0  0  0  0  0  0  0  0  0  0  0  0
  160.7760  201.3880  150.1350 C   0  0  0  0  0  0  0  0  0  0  0  0
  160.7590  203.6630  153.0010 N   0  0  0  0  0  0  0  0  0  0  0  0
  160.9110  204.9550  153.2970 N   0  0  0  0  0  0  0  0  0  0  0  0
  161.2010  203.6440  149.3610 C   0  0  0  0  0  3  0  0  0  0  0  0
  161.5320  206.4360  150.0020 C   0  0  0  0  0  3  0  0  0  0  0  0
  161.0350  202.2820  149.0910 C   0  0  0  0  0  3  0  0  0  0  0  0
  161.0950  206.9440  146.3980 N   0  0  0  0  0  2  0  0  0  0  0  0
  162.0390  208.2810  147.8700 C   0  0  1  0  0  3  0  0  0  0  0  0
  163.0550  207.1890  147.6800 C   0  0  0  0  0  2  0  0  0  0  0  0
  162.3340  206.2670  146.7500 C   0  0  0  0  0  2  0  0  0  0  0  0
  160.8020  207.8130  147.4070 O   0  0  0  0  0  0  0  0  0  0  0  0
  161.1150  207.9680  155.1790 N   0  0  0  0  0  0  0  0  0  0  0  0
  161.2070  207.6480  154.0710 C   0  0  0  0  0  0  0  0  0  0  0  0
  162.3980  211.1660  148.6410 C   0  0  0  0  0  2  0  0  0  0  0  0
  159.6330  213.6730  149.3160 C   0  0  0  0  0  0  0  0  0  0  0  0
  159.4520  212.9190  147.0210 C   0  0  0  0  0  0  0  0  0  0  0  0
  159.1800  214.4380  150.3380 F   0  0  0  0  0  0  0  0  0  0  0  0
  160.5680  212.0950  147.2060 C   0  0  0  0  0  3  0  0  0  0  0  0
  160.7470  212.8480  149.5000 C   0  0  0  0  0  3  0  0  0  0  0  0
  161.2180  212.0590  148.4450 C   0  0  0  0  0  0  0  0  0  0  0  0
  158.9870  213.7100  148.0770 C   0  0  0  0  0  3  0  0  0  0  0  0
  158.7690  212.9690  145.6960 C   0  0  0  0  0  2  0  0  0  0  0  0
  159.5100  213.0750  143.2720 C   0  0  0  0  0  0  0  0  0  0  0  0
  158.4580  213.6890  142.9460 O   0  0  0  0  0  0  0  0  0  0  0  0
  161.7970  212.8820  140.3830 C   0  0  0  0  0  0  0  0  0  0  0  0
  162.5590  212.3120  141.3150 C   0  0  0  0  0  3  0  0  0  0  0  0
  161.8010  212.2040  142.5960 C   0  0  0  0  0  2  0  0  0  0  0  0
  159.7080  212.6600  144.6270 N   0  0  0  0  0  2  0  0  0  0  0  0
  160.5070  212.7890  142.2850 N   0  0  0  0  0  0  0  0  0  0  0  0
  160.4350  213.2120  140.8940 C   0  0  2  0  0  3  0  0  0  0  0  0
  159.4380  211.0400  140.1340 O   0  0  0  0  0  1  0  0  0  0  0  0
  158.4710  213.0340  139.5500 O   0  0  0  0  0  0  0  0  0  0  0  0
  159.3910  212.4290  140.1600 C   0  0  0  0  0  0  0  0  0  0  0  0
  162.5600  211.8300  138.2770 C   0  0  0  0  0  1  0  0  0  0  0  0
  162.2520  213.1370  138.9810 C   0  0  0  0  0  2  0  0  0  0  0  0
  2 26  1  0  0  0  0
  3  9  1  0  0  0  0
  3 10  1  0  0  0  0
  4  2  1  0  0  0  0
  4 16  1  0  0  0  0
  5  1  1  0  0  0  0
  5  2  2  0  0  0  0
  6 10  2  0  0  0  0
  7  1  2  0  0  0  0
  8 14  1  0  0  0  0
  9  4  2  0  0  0  0
 10 15  1  0  0  0  0
 11  5  1  0  0  0  0
 12 13  2  0  0  0  0
 12 11  1  0  0  0  0
 13  7  1  0  0  0  0
 14  6  1  0  0  0  0
 15 16  2  0  0  0  0
 17  3  2  0  0  0  0
 18 11  2  0  0  0  0
 18  9  1  0  0  0  0
 19 17  1  0  0  0  0
 19 14  2  0  0  0  0
 20 23  1  0  0  0  0
 20 24  1  0  0  0  0
 21 12  1  1  0  0  0
 22 21  1  0  0  0  0
 23 22  1  0  0  0  0
 24 21  1  0  0  0  0
 26 25  3  0  0  0  0
 27 13  1  0  0  0  0
 28 32  1  0  0  0  0
 28 30  1  0  0  0  0
 29 31  2  0  0  0  0
 29 34  1  0  0  0  0
 31 33  1  0  0  0  0
 33 27  1  0  0  0  0
 33 32  2  0  0  0  0
 34 28  2  0  0  0  0
 35 29  1  0  0  0  0
 36 41  1  0  0  0  0
 37 36  2  0  0  0  0
 38 43  1  0  0  0  0
 38 39  2  0  0  0  0
 39 40  1  0  0  0  0
 41 35  1  0  0  0  0
 42 40  1  0  0  0  0
 42 36  1  0  0  0  0
 43 46  1  6  0  0  0
 43 42  1  0  0  0  0
 44 46  1  0  0  0  0
 45 46  2  0  0  0  0
 47 48  1  0  0  0  0
 48 38  1  0  0  0  0
M  END
>  <MODEL>
1

>  <REMARK>
 VINA RESULT:      -7.9      0.000      0.000
  Name = 
  8 active torsions:
  status: ('A' for Active; 'I' for Inactive)
    1  A    between atoms: C_4  and  C_27
    2  A    between atoms: C_5  and  C_43
    3  A    between atoms: C_9  and  C_11
    4  A    between atoms: C_9  and  N_42
    5  A    between atoms: C_26  and  C_37
    6  A    between atoms: C_28  and  C_48
    7  A    between atoms: C_30  and  C_37
    8  A    between atoms: C_36  and  C_47
                            x       y       z     vdW  Elec       q    Type
                         _______ _______ _______ _____ _____    ______ ____

>  <TORSDO>
F 8

$$$$
=
 OpenBabel11042423073D

 48 54  0  0  1  0  0  0  0  0999 V2000
  161.5690  208.4470  147.4230 C   0  0  0  0  0  3  0  0  0  0  0  0
  161.2160  206.0480  147.1130 C   0  0  0  0  0  0  0  0  0  0  0  0
  161.1730  203.2700  149.5820 C   0  0  0  0  0  0  0  0  0  0  0  0
  161.1190  204.7580  147.6680 C   0  0  0  0  0  0  0  0  0  0  0  0
  161.4650  207.1550  147.9530 C   0  0  0  0  0  0  0  0  0  0  0  0
  160.8160  200.8950  149.1850 C   0  0  0  0  0  3  0  0  0  0  0  0
  161.8110  209.5380  148.2510 C   0  0  0  0  0  3  0  0  0  0  0  0
  160.8560  199.3770  151.0220 F   0  0  0  0  0  0  0  0  0  0  0  0
  161.2730  204.5690  149.0580 C   0  0  0  0  0  0  0  0  0  0  0  0
  160.9220  202.2000  148.6980 C   0  0  0  0  0  0  0  0  0  0  0  0
  161.6180  206.9670  149.3510 C   0  0  0  0  0  0  0  0  0  0  0  0
  161.8670  208.0740  150.1960 C   0  0  0  0  0  0  0  0  0  0  0  0
  161.9540  209.3700  149.6310 C   0  0  0  0  0  0  0  0  0  0  0  0
  160.9590  200.6440  150.5520 C   0  0  0  0  0  0  0  0  0  0  0  0
  160.7830  202.4430  147.3700 N   0  0  0  0  0  0  0  0  0  0  0  0
  160.8780  203.6770  146.8740 N   0  0  0  0  0  0  0  0  0  0  0  0
  161.3150  203.0050  150.9550 C   0  0  0  0  0  3  0  0  0  0  0  0
  161.5190  205.6740  149.8800 C   0  0  0  0  0  3  0  0  0  0  0  0
  161.2080  201.6980  151.4370 C   0  0  0  0  0  3  0  0  0  0  0  0
  162.1360  206.2580  153.2080 N   0  0  0  0  0  2  0  0  0  0  0  0
  162.0520  207.8380  151.6790 C   0  0  1  0  0  3  0  0  0  0  0  0
  160.7740  208.0220  152.4490 C   0  0  0  0  0  2  0  0  0  0  0  0
  160.8340  206.8770  153.4080 C   0  0  0  0  0  2  0  0  0  0  0  0
  162.5390  206.5500  151.9390 O   0  0  0  0  0  0  0  0  0  0  0  0
  160.9310  206.3640  144.5410 N   0  0  0  0  0  0  0  0  0  0  0  0
  161.0570  206.2240  145.6830 C   0  0  0  0  0  0  0  0  0  0  0  0
  162.2190  210.5870  150.4680 C   0  0  0  0  0  2  0  0  0  0  0  0
  160.1620  213.6810  149.7060 C   0  0  0  0  0  0  0  0  0  0  0  0
  161.8600  213.4360  147.9940 C   0  0  0  0  0  0  0  0  0  0  0  0
  159.1120  214.3580  150.2270 F   0  0  0  0  0  0  0  0  0  0  0  0
  162.3320  212.2830  148.6290 C   0  0  0  0  0  3  0  0  0  0  0  0
  160.6350  212.5270  150.3390 C   0  0  0  0  0  3  0  0  0  0  0  0
  161.7220  211.8270  149.8030 C   0  0  0  0  0  0  0  0  0  0  0  0
  160.7760  214.1360  148.5350 C   0  0  0  0  0  3  0  0  0  0  0  0
  162.5200  213.9310  146.7510 C   0  0  0  0  0  2  0  0  0  0  0  0
  162.4760  213.2940  144.2960 C   0  0  0  0  0  0  0  0  0  0  0  0
  163.6580  213.7050  144.1370 O   0  0  0  0  0  0  0  0  0  0  0  0
  161.2890  211.6660  141.2050 C   0  0  0  0  0  0  0  0  0  0  0  0
  160.2380  211.4490  141.9940 C   0  0  0  0  0  3  0  0  0  0  0  0
  160.4550  212.0990  143.3200 C   0  0  0  0  0  2  0  0  0  0  0  0
  161.8410  213.4100  145.5730 N   0  0  0  0  0  2  0  0  0  0  0  0
  161.7670  212.7140  143.1950 N   0  0  0  0  0  0  0  0  0  0  0  0
  162.3320  212.4960  141.8720 C   0  0  2  0  0  3  0  0  0  0  0  0
  163.7790  214.3000  140.9010 O   0  0  0  0  0  1  0  0  0  0  0  0
  161.4950  214.4530  140.7930 O   0  0  0  0  0  0  0  0  0  0  0  0
  162.5080  213.8000  141.1560 C   0  0  0  0  0  0  0  0  0  0  0  0
  161.8950  209.7210  139.7990 C   0  0  0  0  0  1  0  0  0  0  0  0
  161.3940  211.1530  139.8040 C   0  0  0  0  0  2  0  0  0  0  0  0
  1  5  2  0  0  0  0
  1  7  1  0  0  0  0
  2  4  2  0  0  0  0
  2  5  1  0  0  0  0
  3 17  1  0  0  0  0
  4  9  1  0  0  0  0
  5 11  1  0  0  0  0
  6 14  2  0  0  0  0
  7 13  2  0  0  0  0
  9  3  1  0  0  0  0
  9 18  2  0  0  0  0
 10  6  1  0  0  0  0
 10  3  2  0  0  0  0
 11 18  1  0  0  0  0
 11 12  2  0  0  0  0
 13 12  1  0  0  0  0
 13 27  1  0  0  0  0
 14  8  1  0  0  0  0
 14 19  1  0  0  0  0
 15 10  1  0  0  0  0
 16 15  2  0  0  0  0
 16  4  1  0  0  0  0
 17 19  2  0  0  0  0
 20 23  1  0  0  0  0
 21 12  1  6  0  0  0
 21 24  1  0  0  0  0
 21 22  1  0  0  0  0
 22 23  1  0  0  0  0
 24 20  1  0  0  0  0
 25 26  3  0  0  0  0
 26  2  1  0  0  0  0
 28 30  1  0  0  0  0
 28 32  1  0  0  0  0
 29 34  1  0  0  0  0
 29 31  2  0  0  0  0
 31 33  1  0  0  0  0
 33 32  2  0  0  0  0
 33 27  1  0  0  0  0
 34 28  2  0  0  0  0
 35 29  1  0  0  0  0
 36 41  1  0  0  0  0
 37 36  2  0  0  0  0
 38 43  1  0  0  0  0
 38 39  2  0  0  0  0
 39 40  1  0  0  0  0
 41 35  1  0  0  0  0
 42 40  1  0  0  0  0
 42 36  1  0  0  0  0
 43 46  1  6  0  0  0
 43 42  1  0  0  0  0
 44 46  1  0  0  0  0
 45 46  2  0  0  0  0
 47 48  1  0  0  0  0
 48 38  1  0  0  0  0
M  END
>  <MODEL>
2

>  <REMARK>
 VINA RESULT:      -6.9      2.084      3.919
  Name = 
  8 active torsions:
  status: ('A' for Active; 'I' for Inactive)
    1  A    between atoms: C_4  and  C_27
    2  A    between atoms: C_5  and  C_43
    3  A    between atoms: C_9  and  C_11
    4  A    between atoms: C_9  and  N_42
    5  A    between atoms: C_26  and  C_37
    6  A    between atoms: C_28  and  C_48
    7  A    between atoms: C_30  and  C_37
    8  A    between atoms: C_36  and  C_47
                            x       y       z     vdW  Elec       q    Type
                         _______ _______ _______ _____ _____    ______ ____

>  <TORSDO>
F 8

$$$$
=
 OpenBabel11042423073D

 48 54  0  0  1  0  0  0  0  0999 V2000
  161.6070  208.5290  147.8030 C   0  0  0  0  0  3  0  0  0  0  0  0
  161.2110  206.1510  147.3970 C   0  0  0  0  0  0  0  0  0  0  0  0
  161.1630  203.2720  149.7470 C   0  0  0  0  0  0  0  0  0  0  0  0
  161.1020  204.8410  147.8990 C   0  0  0  0  0  0  0  0  0  0  0  0
  161.4910  207.2170  148.2800 C   0  0  0  0  0  0  0  0  0  0  0  0
  160.7610  200.9210  149.2550 C   0  0  0  0  0  3  0  0  0  0  0  0
  161.8800  209.5810  148.6730 C   0  0  0  0  0  3  0  0  0  0  0  0
  160.8060  199.3270  151.0260 F   0  0  0  0  0  0  0  0  0  0  0  0
  161.2750  204.5910  149.2770 C   0  0  0  0  0  0  0  0  0  0  0  0
  160.8800  202.2450  148.8220 C   0  0  0  0  0  0  0  0  0  0  0  0
  161.6630  206.9680  149.6650 C   0  0  0  0  0  0  0  0  0  0  0  0
  161.9430  208.0340  150.5530 C   0  0  0  0  0  0  0  0  0  0  0  0
  162.0420  209.3510  150.0420 C   0  0  0  0  0  0  0  0  0  0  0  0
  160.9220  200.6100  150.6080 C   0  0  0  0  0  0  0  0  0  0  0  0
  160.7240  202.5460  147.5090 N   0  0  0  0  0  0  0  0  0  0  0  0
  160.8320  203.7980  147.0640 N   0  0  0  0  0  0  0  0  0  0  0  0
  161.3220  202.9470  151.1050 C   0  0  0  0  0  3  0  0  0  0  0  0
  161.5520  205.6550  150.1410 C   0  0  0  0  0  3  0  0  0  0  0  0
  161.2010  201.6210  151.5320 C   0  0  0  0  0  3  0  0  0  0  0  0
  162.2950  206.0830  153.4710 N   0  0  0  0  0  2  0  0  0  0  0  0
  162.1470  207.7330  152.0210 C   0  0  1  0  0  3  0  0  0  0  0  0
  160.8700  207.8360  152.8070 C   0  0  0  0  0  2  0  0  0  0  0  0
  160.9750  206.6480  153.7080 C   0  0  0  0  0  2  0  0  0  0  0  0
  162.6780  206.4500  152.2150 O   0  0  0  0  0  0  0  0  0  0  0  0
  160.8920  206.5810  144.8460 N   0  0  0  0  0  0  0  0  0  0  0  0
  161.0330  206.3910  145.9790 C   0  0  0  0  0  0  0  0  0  0  0  0
  162.3400  210.5270  150.9260 C   0  0  0  0  0  2  0  0  0  0  0  0
  159.1990  212.4040  151.9280 C   0  0  0  0  0  0  0  0  0  0  0  0
  160.0540  213.3630  149.8730 C   0  0  0  0  0  0  0  0  0  0  0  0
  158.2730  212.3830  152.9160 F   0  0  0  0  0  0  0  0  0  0  0  0
  161.1120  212.4480  149.8890 C   0  0  0  0  0  3  0  0  0  0  0  0
  160.2570  211.4900  151.9410 C   0  0  0  0  0  3  0  0  0  0  0  0
  161.2170  211.5110  150.9230 C   0  0  0  0  0  0  0  0  0  0  0  0
  159.0990  213.3410  150.8960 C   0  0  0  0  0  3  0  0  0  0  0  0
  159.9510  214.3710  148.7790 C   0  0  0  0  0  2  0  0  0  0  0  0
  160.2710  214.0520  146.2830 C   0  0  0  0  0  0  0  0  0  0  0  0
  159.0990  214.4530  146.0500 O   0  0  0  0  0  0  0  0  0  0  0  0
  162.0710  213.5280  143.1050 C   0  0  0  0  0  0  0  0  0  0  0  0
  163.0500  213.2620  143.9680 C   0  0  0  0  0  3  0  0  0  0  0  0
  162.5330  213.3370  145.3650 C   0  0  0  0  0  2  0  0  0  0  0  0
  160.7440  213.9580  147.6300 N   0  0  0  0  0  2  0  0  0  0  0  0
  161.1300  213.6850  145.1980 N   0  0  0  0  0  0  0  0  0  0  0  0
  160.7740  213.7940  143.7910 C   0  0  2  0  0  3  0  0  0  0  0  0
  159.7690  211.5100  144.0420 O   0  0  0  0  0  1  0  0  0  0  0  0
  158.9010  213.0060  142.5390 O   0  0  0  0  0  0  0  0  0  0  0  0
  159.7600  212.7550  143.4240 C   0  0  0  0  0  0  0  0  0  0  0  0
  162.6310  212.1510  141.1260 C   0  0  0  0  0  1  0  0  0  0  0  0
  162.2530  213.5340  141.6200 C   0  0  0  0  0  2  0  0  0  0  0  0
  1  5  2  0  0  0  0
  1  7  1  0  0  0  0
  2  4  2  0  0  0  0
  2  5  1  0  0  0  0
  3 17  1  0  0  0  0
  4  9  1  0  0  0  0
  5 11  1  0  0  0  0
  6 14  2  0  0  0  0
  7 13  2  0  0  0  0
  9  3  1  0  0  0  0
  9 18  2  0  0  0  0
 10  6  1  0  0  0  0
 10  3  2  0  0  0  0
 11 18  1  0  0  0  0
 11 12  2  0  0  0  0
 13 12  1  0  0  0  0
 13 27  1  0  0  0  0
 14  8  1  0  0  0  0
 14 19  1  0  0  0  0
 15 10  1  0  0  0  0
 16 15  2  0  0  0  0
 16  4  1  0  0  0  0
 17 19  2  0  0  0  0
 20 23  1  0  0  0  0
 21 12  1  6  0  0  0
 21 24  1  0  0  0  0
 21 22  1  0  0  0  0
 22 23  1  0  0  0  0
 24 20  1  0  0  0  0
 25 26  3  0  0  0  0
 26  2  1  0  0  0  0
 28 32  1  0  0  0  0
 28 30  1  0  0  0  0
 29 31  2  0  0  0  0
 29 34  1  0  0  0  0
 31 33  1  0  0  0  0
 33 27  1  0  0  0  0
 33 32  2  0  0  0  0
 34 28  2  0  0  0  0
 35 29  1  0  0  0  0
 36 41  1  0  0  0  0
 37 36  2  0  0  0  0
 38 43  1  0  0  0  0
 38 39  2  0  0  0  0
 39 40  1  0  0  0  0
 41 35  1  0  0  0  0
 42 40  1  0  0  0  0
 42 36  1  0  0  0  0
 43 46  1  6  0  0  0
 43 42  1  0  0  0  0
 45 46  2  0  0  0  0
 46 44  1  0  0  0  0
 47 48  1  0  0  0  0
 48 38  1  0  0  0  0
M  END
>  <MODEL>
3

>  <REMARK>
 VINA RESULT:      -6.6      1.907      3.975
  Name = 
  8 active torsions:
  status: ('A' for Active; 'I' for Inactive)
    1  A    between atoms: C_4  and  C_27
    2  A    between atoms: C_5  and  C_43
    3  A    between atoms: C_9  and  C_11
    4  A    between atoms: C_9  and  N_42
    5  A    between atoms: C_26  and  C_37
    6  A    between atoms: C_28  and  C_48
    7  A    between atoms: C_30  and  C_37
    8  A    between atoms: C_36  and  C_47
                            x       y       z     vdW  Elec       q    Type
                         _______ _______ _______ _____ _____    ______ ____

>  <TORSDO>
F 8

$$$$
=
 OpenBabel11042423073D

 48 54  0  0  1  0  0  0  0  0999 V2000
  161.5600  208.3510  147.4040 C   0  0  0  0  0  3  0  0  0  0  0  0
  161.1800  205.9560  147.0980 C   0  0  0  0  0  0  0  0  0  0  0  0
  161.1490  203.1770  149.5670 C   0  0  0  0  0  0  0  0  0  0  0  0
  161.0790  204.6670  147.6550 C   0  0  0  0  0  0  0  0  0  0  0  0
  161.4520  207.0600  147.9360 C   0  0  0  0  0  0  0  0  0  0  0  0
  160.7630  200.8060  149.1750 C   0  0  0  0  0  3  0  0  0  0  0  0
  161.8260  209.4400  148.2290 C   0  0  0  0  0  3  0  0  0  0  0  0
  160.8170  199.2870  151.0100 F   0  0  0  0  0  0  0  0  0  0  0  0
  161.2530  204.4760  149.0420 C   0  0  0  0  0  0  0  0  0  0  0  0
  160.8740  202.1110  148.6860 C   0  0  0  0  0  0  0  0  0  0  0  0
  161.6250  206.8700  149.3300 C   0  0  0  0  0  0  0  0  0  0  0  0
  161.8970  207.9740  150.1730 C   0  0  0  0  0  0  0  0  0  0  0  0
  161.9880  209.2700  149.6070 C   0  0  0  0  0  0  0  0  0  0  0  0
  160.9250  200.5530  150.5390 C   0  0  0  0  0  0  0  0  0  0  0  0
  160.7170  202.3550  147.3610 N   0  0  0  0  0  0  0  0  0  0  0  0
  160.8160  203.5890  146.8640 N   0  0  0  0  0  0  0  0  0  0  0  0
  161.3090  202.9110  150.9380 C   0  0  0  0  0  3  0  0  0  0  0  0
  161.5220  205.5770  149.8610 C   0  0  0  0  0  3  0  0  0  0  0  0
  161.1970  201.6040  151.4200 C   0  0  0  0  0  3  0  0  0  0  0  0
  162.2240  206.1510  153.1750 N   0  0  0  0  0  2  0  0  0  0  0  0
  162.1020  207.7360  151.6520 C   0  0  1  0  0  3  0  0  0  0  0  0
  160.8310  207.9000  152.4380 C   0  0  0  0  0  2  0  0  0  0  0  0
  160.9170  206.7530  153.3920 C   0  0  0  0  0  2  0  0  0  0  0  0
  162.6080  206.4530  151.9030 O   0  0  0  0  0  0  0  0  0  0  0  0
  160.8580  206.2760  144.5320 N   0  0  0  0  0  0  0  0  0  0  0  0
  161.0010  206.1350  145.6720 C   0  0  0  0  0  0  0  0  0  0  0  0
  162.2770  210.4830  150.4410 C   0  0  0  0  0  2  0  0  0  0  0  0
  162.1010  213.3560  147.9700 C   0  0  0  0  0  0  0  0  0  0  0  0
  160.3750  213.6650  149.6430 C   0  0  0  0  0  0  0  0  0  0  0  0
  162.7410  213.7790  146.8550 F   0  0  0  0  0  0  0  0  0  0  0  0
  160.7780  212.4830  150.2740 C   0  0  0  0  0  3  0  0  0  0  0  0
  162.5030  212.1760  148.6030 C   0  0  0  0  0  3  0  0  0  0  0  0
  161.8410  211.7350  149.7540 C   0  0  0  0  0  0  0  0  0  0  0  0
  161.0360  214.0990  148.4900 C   0  0  0  0  0  3  0  0  0  0  0  0
  159.2330  214.4530  150.1890 C   0  0  0  0  0  2  0  0  0  0  0  0
  157.7230  213.5870  152.0340 C   0  0  0  0  0  0  0  0  0  0  0  0
  156.7510  213.4920  151.2370 O   0  0  0  0  0  0  0  0  0  0  0  0
  156.7960  212.1720  155.3140 C   0  0  0  0  0  0  0  0  0  0  0  0
  158.0730  212.4720  155.5480 C   0  0  0  0  0  3  0  0  0  0  0  0
  158.6650  213.1460  154.3550 C   0  0  0  0  0  2  0  0  0  0  0  0
  158.9810  214.0910  151.5760 N   0  0  0  0  0  2  0  0  0  0  0  0
  157.5670  213.1930  153.4020 N   0  0  0  0  0  0  0  0  0  0  0  0
  156.3530  212.6150  153.9610 C   0  0  2  0  0  3  0  0  0  0  0  0
  154.3840  213.8560  153.0270 O   0  0  0  0  0  0  0  0  0  0  0  0
  155.1980  214.3580  155.1100 O   0  0  0  0  0  1  0  0  0  0  0  0
  155.2800  213.6540  154.0700 C   0  0  0  0  0  0  0  0  0  0  0  0
  155.2410  210.2810  155.6800 C   0  0  0  0  0  1  0  0  0  0  0  0
  155.9090  211.4910  156.3060 C   0  0  0  0  0  2  0  0  0  0  0  0
  1  5  2  0  0  0  0
  1  7  1  0  0  0  0
  2  4  2  0  0  0  0
  2  5  1  0  0  0  0
  3 17  1  0  0  0  0
  4  9  1  0  0  0  0
  5 11  1  0  0  0  0
  6 14  2  0  0  0  0
  7 13  2  0  0  0  0
  9  3  1  0  0  0  0
  9 18  2  0  0  0  0
 10  6  1  0  0  0  0
 10  3  2  0  0  0  0
 11 18  1  0  0  0  0
 11 12  2  0  0  0  0
 13 12  1  0  0  0  0
 13 27  1  0  0  0  0
 14  8  1  0  0  0  0
 14 19  1  0  0  0  0
 15 10  1  0  0  0  0
 16 15  2  0  0  0  0
 16  4  1  0  0  0  0
 17 19  2  0  0  0  0
 20 23  1  0  0  0  0
 21 12  1  6  0  0  0
 21 24  1  0  0  0  0
 21 22  1  0  0  0  0
 22 23  1  0  0  0  0
 24 20  1  0  0  0  0
 25 26  3  0  0  0  0
 26  2  1  0  0  0  0
 28 34  2  0  0  0  0
 28 32  1  0  0  0  0
 29 35  1  0  0  0  0
 29 31  2  0  0  0  0
 30 28  1  0  0  0  0
 32 33  2  0  0  0  0
 33 31  1  0  0  0  0
 33 27  1  0  0  0  0
 34 29  1  0  0  0  0
 35 41  1  0  0  0  0
 36 42  1  0  0  0  0
 37 36  2  0  0  0  0
 38 39  2  0  0  0  0
 38 48  1  0  0  0  0
 40 39  1  0  0  0  0
 41 36  1  0  0  0  0
 42 43  1  0  0  0  0
 42 40  1  0  0  0  0
 43 46  1  1  0  0  0
 43 38  1  0  0  0  0
 44 46  2  0  0  0  0
 46 45  1  0  0  0  0
 47 48  1  0  0  0  0
M  END
>  <MODEL>
4

>  <REMARK>
 VINA RESULT:      -5.9      4.617      8.128
  Name = 
  8 active torsions:
  status: ('A' for Active; 'I' for Inactive)
    1  A    between atoms: C_4  and  C_27
    2  A    between atoms: C_5  and  C_43
    3  A    between atoms: C_9  and  C_11
    4  A    between atoms: C_9  and  N_42
    5  A    between atoms: C_26  and  C_37
    6  A    between atoms: C_28  and  C_48
    7  A    between atoms: C_30  and  C_37
    8  A    between atoms: C_36  and  C_47
                            x       y       z     vdW  Elec       q    Type
                         _______ _______ _______ _____ _____    ______ ____

>  <TORSDO>
F 8

$$$$
=
 OpenBabel11042423073D

 48 54  0  0  1  0  0  0  0  0999 V2000
  161.6490  209.0860  151.1410 C   0  0  0  0  0  3  0  0  0  0  0  0
  161.4010  206.8440  152.0830 C   0  0  0  0  0  0  0  0  0  0  0  0
  161.0340  203.5450  150.4100 C   0  0  0  0  0  0  0  0  0  0  0  0
  161.2480  205.4590  151.8840 C   0  0  0  0  0  0  0  0  0  0  0  0
  161.4990  207.7040  150.9670 C   0  0  0  0  0  0  0  0  0  0  0  0
  160.7870  201.3480  151.4300 C   0  0  0  0  0  3  0  0  0  0  0  0
  161.7500  209.9340  150.0420 C   0  0  0  0  0  3  0  0  0  0  0  0
  160.5720  199.4240  150.0400 F   0  0  0  0  0  0  0  0  0  0  0  0
  161.1890  204.9310  150.5770 C   0  0  0  0  0  0  0  0  0  0  0  0
  160.9420  202.7310  151.5590 C   0  0  0  0  0  0  0  0  0  0  0  0
  161.4440  207.1750  149.6530 C   0  0  0  0  0  0  0  0  0  0  0  0
  161.5430  208.0340  148.5320 C   0  0  0  0  0  0  0  0  0  0  0  0
  161.7060  209.4250  148.7410 C   0  0  0  0  0  0  0  0  0  0  0  0
  160.7220  200.7650  150.1620 C   0  0  0  0  0  0  0  0  0  0  0  0
  161.0040  203.2960  152.7910 N   0  0  0  0  0  0  0  0  0  0  0  0
  161.1510  204.6120  152.9470 N   0  0  0  0  0  0  0  0  0  0  0  0
  160.9680  202.9470  149.1400 C   0  0  0  0  0  3  0  0  0  0  0  0
  161.2890  205.7930  149.4800 C   0  0  0  0  0  3  0  0  0  0  0  0
  160.8130  201.5640  149.0180 C   0  0  0  0  0  3  0  0  0  0  0  0
  160.5370  205.8090  145.9860 N   0  0  0  0  0  2  0  0  0  0  0  0
  161.4530  207.4420  147.1440 C   0  0  1  0  0  3  0  0  0  0  0  0
  162.6100  206.5330  146.8350 C   0  0  0  0  0  2  0  0  0  0  0  0
  161.9270  205.4040  146.1350 C   0  0  0  0  0  2  0  0  0  0  0  0
  160.2680  206.7150  146.9680 O   0  0  0  0  0  0  0  0  0  0  0  0
  161.5010  207.7930  154.5080 N   0  0  0  0  0  0  0  0  0  0  0  0
  161.4570  207.3710  153.4310 C   0  0  0  0  0  0  0  0  0  0  0  0
  161.8150  210.3930  147.5990 C   0  0  0  0  0  2  0  0  0  0  0  0
  163.3180  213.7910  148.3610 C   0  0  0  0  0  0  0  0  0  0  0  0
  161.0540  213.7340  149.2210 C   0  0  0  0  0  0  0  0  0  0  0  0
  164.4850  214.4530  148.1720 F   0  0  0  0  0  0  0  0  0  0  0  0
  160.9100  212.4240  148.7510 C   0  0  0  0  0  3  0  0  0  0  0  0
  163.1730  212.4810  147.8920 C   0  0  0  0  0  3  0  0  0  0  0  0
  161.9680  211.7970  148.0840 C   0  0  0  0  0  0  0  0  0  0  0  0
  162.2590  214.4180  149.0230 C   0  0  0  0  0  3  0  0  0  0  0  0
  159.9210  214.4090  149.9170 C   0  0  0  0  0  2  0  0  0  0  0  0
  158.3950  213.5450  151.7500 C   0  0  0  0  0  0  0  0  0  0  0  0
  157.3700  213.8830  151.0990 O   0  0  0  0  0  0  0  0  0  0  0  0
  157.3990  211.6880  154.7800 C   0  0  0  0  0  0  0  0  0  0  0  0
  158.7240  211.5980  154.8820 C   0  0  0  0  0  3  0  0  0  0  0  0
  159.3740  212.3590  153.7760 C   0  0  0  0  0  2  0  0  0  0  0  0
  159.6990  213.8110  151.2260 N   0  0  0  0  0  2  0  0  0  0  0  0
  158.2540  212.8980  153.0200 N   0  0  0  0  0  0  0  0  0  0  0  0
  156.9810  212.5290  153.6210 C   0  0  2  0  0  3  0  0  0  0  0  0
  155.1700  214.2460  153.3680 O   0  0  0  0  0  0  0  0  0  0  0  0
  156.6230  214.3360  155.1380 O   0  0  0  0  0  1  0  0  0  0  0  0
  156.2490  213.7480  154.0890 C   0  0  0  0  0  0  0  0  0  0  0  0
  155.5560  210.0520  155.0050 C   0  0  0  0  0  1  0  0  0  0  0  0
  156.4470  211.0400  155.7340 C   0  0  0  0  0  2  0  0  0  0  0  0
  2 26  1  0  0  0  0
  3  9  1  0  0  0  0
  3 10  1  0  0  0  0
  4  2  1  0  0  0  0
  4 16  1  0  0  0  0
  5  1  1  0  0  0  0
  5  2  2  0  0  0  0
  6 10  2  0  0  0  0
  7  1  2  0  0  0  0
  8 14  1  0  0  0  0
  9  4  2  0  0  0  0
 10 15  1  0  0  0  0
 11  5  1  0  0  0  0
 12 13  2  0  0  0  0
 12 11  1  0  0  0  0
 13  7  1  0  0  0  0
 14  6  1  0  0  0  0
 15 16  2  0  0  0  0
 17  3  2  0  0  0  0
 18 11  2  0  0  0  0
 18  9  1  0  0  0  0
 19 17  1  0  0  0  0
 19 14  2  0  0  0  0
 20 23  1  0  0  0  0
 20 24  1  0  0  0  0
 21 12  1  1  0  0  0
 22 21  1  0  0  0  0
 23 22  1  0  0  0  0
 24 21  1  0  0  0  0
 26 25  3  0  0  0  0
 27 33  1  0  0  0  0
 27 13  1  0  0  0  0
 28 34  1  0  0  0  0
 29 35  1  0  0  0  0
 30 28  1  0  0  0  0
 31 29  1  0  0  0  0
 32 33  1  0  0  0  0
 32 28  2  0  0  0  0
 33 31  2  0  0  0  0
 34 29  2  0  0  0  0
 35 41  1  0  0  0  0
 36 42  1  0  0  0  0
 37 36  2  0  0  0  0
 38 39  2  0  0  0  0
 38 48  1  0  0  0  0
 40 39  1  0  0  0  0
 41 36  1  0  0  0  0
 42 43  1  0  0  0  0
 42 40  1  0  0  0  0
 43 46  1  1  0  0  0
 43 38  1  0  0  0  0
 44 46  2  0  0  0  0
 46 45  1  0  0  0  0
 47 48  1  0  0  0  0
M  END
>  <MODEL>
5

>  <REMARK>
 VINA RESULT:      -5.5      4.258      7.175
  Name = 
  8 active torsions:
  status: ('A' for Active; 'I' for Inactive)
    1  A    between atoms: C_4  and  C_27
    2  A    between atoms: C_5  and  C_43
    3  A    between atoms: C_9  and  C_11
    4  A    between atoms: C_9  and  N_42
    5  A    between atoms: C_26  and  C_37
    6  A    between atoms: C_28  and  C_48
    7  A    between atoms: C_30  and  C_37
    8  A    between atoms: C_36  and  C_47
                            x       y       z     vdW  Elec       q    Type
                         _______ _______ _______ _____ _____    ______ ____

>  <TORSDO>
F 8

$$$$
=
 OpenBabel11042423073D

 48 54  0  0  1  0  0  0  0  0999 V2000
  161.2540  212.8120  150.1340 C   0  0  0  0  0  3  0  0  0  0  0  0
  161.5240  212.7950  147.7040 C   0  0  0  0  0  0  0  0  0  0  0  0
  159.1580  213.7510  145.0010 C   0  0  0  0  0  0  0  0  0  0  0  0
  160.9850  213.0350  146.4260 C   0  0  0  0  0  0  0  0  0  0  0  0
  160.7410  213.0470  148.8520 C   0  0  0  0  0  0  0  0  0  0  0  0
  159.5080  213.6990  142.5920 C   0  0  0  0  0  3  0  0  0  0  0  0
  160.4840  213.0630  151.2660 C   0  0  0  0  0  3  0  0  0  0  0  0
  157.7540  214.3890  141.1350 F   0  0  0  0  0  0  0  0  0  0  0  0
  159.6680  213.5230  146.2900 C   0  0  0  0  0  0  0  0  0  0  0  0
  159.9830  213.4830  143.8890 C   0  0  0  0  0  0  0  0  0  0  0  0
  159.4180  213.5390  148.7170 C   0  0  0  0  0  0  0  0  0  0  0  0
  158.6300  213.7940  149.8650 C   0  0  0  0  0  0  0  0  0  0  0  0
  159.1820  213.5580  151.1480 C   0  0  0  0  0  0  0  0  0  0  0  0
  158.2120  214.1800  142.3930 C   0  0  0  0  0  0  0  0  0  0  0  0
  161.2420  213.0150  144.0820 N   0  0  0  0  0  0  0  0  0  0  0  0
  161.7250  212.7990  145.3060 N   0  0  0  0  0  0  0  0  0  0  0  0
  157.8560  214.2350  144.7880 C   0  0  0  0  0  3  0  0  0  0  0  0
  158.9030  213.7690  147.4340 C   0  0  0  0  0  3  0  0  0  0  0  0
  157.3870  214.4490  143.4890 C   0  0  0  0  0  3  0  0  0  0  0  0
  155.2260  214.3080  150.6330 N   0  0  0  0  0  2  0  0  0  0  0  0
  157.2140  214.2930  149.6880 C   0  0  1  0  0  3  0  0  0  0  0  0
  156.3950  213.3900  148.8080 C   0  0  0  0  0  2  0  0  0  0  0  0
  155.0920  213.3590  149.5380 C   0  0  0  0  0  2  0  0  0  0  0  0
  156.5540  214.4200  150.9180 O   0  0  0  0  0  0  0  0  0  0  0  0
  163.9570  211.8890  147.9240 N   0  0  0  0  0  0  0  0  0  0  0  0
  162.8770  212.2920  147.8270 C   0  0  0  0  0  0  0  0  0  0  0  0
  158.4020  213.8030  152.4070 C   0  0  0  0  0  2  0  0  0  0  0  0
  157.5910  211.2430  155.0860 C   0  0  0  0  0  0  0  0  0  0  0  0
  159.8790  210.9080  154.3600 C   0  0  0  0  0  0  0  0  0  0  0  0
  156.5490  210.8930  155.8750 F   0  0  0  0  0  0  0  0  0  0  0  0
  159.7450  211.9670  153.4550 C   0  0  0  0  0  3  0  0  0  0  0  0
  157.4590  212.3020  154.1820 C   0  0  0  0  0  3  0  0  0  0  0  0
  158.5350  212.6640  153.3630 C   0  0  0  0  0  0  0  0  0  0  0  0
  158.8000  210.5460  155.1730 C   0  0  0  0  0  3  0  0  0  0  0  0
  161.1630  210.1550  154.4470 C   0  0  0  0  0  2  0  0  0  0  0  0
  161.0450  208.3020  152.7190 C   0  0  0  0  0  0  0  0  0  0  0  0
  160.3530  207.5850  153.4910 O   0  0  0  0  0  0  0  0  0  0  0  0
  161.3170  206.6830  149.4140 C   0  0  0  0  0  0  0  0  0  0  0  0
  161.9620  207.8220  149.1640 C   0  0  0  0  0  3  0  0  0  0  0  0
  162.0510  208.6410  150.4080 C   0  0  0  0  0  2  0  0  0  0  0  0
  161.5070  209.5850  153.1520 N   0  0  0  0  0  2  0  0  0  0  0  0
  161.3720  207.8300  151.4070 N   0  0  0  0  0  0  0  0  0  0  0  0
  160.9090  206.5710  150.8440 C   0  0  2  0  0  3  0  0  0  0  0  0
  160.9230  204.2250  151.7330 O   0  0  0  0  0  0  0  0  0  0  0  0
  162.8020  205.5310  151.8590 O   0  0  0  0  0  1  0  0  0  0  0  0
  161.6010  205.4170  151.5010 C   0  0  0  0  0  0  0  0  0  0  0  0
  161.0160  206.2500  146.9960 C   0  0  0  0  0  1  0  0  0  0  0  0
  161.0570  205.6330  148.3810 C   0  0  0  0  0  2  0  0  0  0  0  0
  1  7  1  0  0  0  0
  2 26  1  0  0  0  0
  2  5  1  0  0  0  0
  3  9  1  0  0  0  0
  4  2  2  0  0  0  0
  5  1  2  0  0  0  0
  6 10  1  0  0  0  0
  8 14  1  0  0  0  0
  9  4  1  0  0  0  0
  9 18  2  0  0  0  0
 10 15  1  0  0  0  0
 10  3  2  0  0  0  0
 11  5  1  0  0  0  0
 11 12  2  0  0  0  0
 12 13  1  0  0  0  0
 13  7  2  0  0  0  0
 13 27  1  0  0  0  0
 14  6  2  0  0  0  0
 14 19  1  0  0  0  0
 15 16  2  0  0  0  0
 16  4  1  0  0  0  0
 17  3  1  0  0  0  0
 18 11  1  0  0  0  0
 19 17  2  0  0  0  0
 20 24  1  0  0  0  0
 21 12  1  1  0  0  0
 21 24  1  0  0  0  0
 22 23  1  0  0  0  0
 22 21  1  0  0  0  0
 23 20  1  0  0  0  0
 26 25  3  0  0  0  0
 27 33  1  0  0  0  0
 28 34  1  0  0  0  0
 28 30  1  0  0  0  0
 29 35  1  0  0  0  0
 29 34  2  0  0  0  0
 31 29  1  0  0  0  0
 32 28  2  0  0  0  0
 33 31  2  0  0  0  0
 33 32  1  0  0  0  0
 36 41  1  0  0  0  0
 36 37  2  0  0  0  0
 38 43  1  0  0  0  0
 39 38  2  0  0  0  0
 39 40  1  0  0  0  0
 40 42  1  0  0  0  0
 41 35  1  0  0  0  0
 42 36  1  0  0  0  0
 43 42  1  0  0  0  0
 43 46  1  1  0  0  0
 46 44  2  0  0  0  0
 46 45  1  0  0  0  0
 47 48  1  0  0  0  0
 48 38  1  0  0  0  0
M  END
>  <MODEL>
6

>  <REMARK>
 VINA RESULT:      -5.4      4.195     10.072
  Name = 
  8 active torsions:
  status: ('A' for Active; 'I' for Inactive)
    1  A    between atoms: C_4  and  C_27
    2  A    between atoms: C_5  and  C_43
    3  A    between atoms: C_9  and  C_11
    4  A    between atoms: C_9  and  N_42
    5  A    between atoms: C_26  and  C_37
    6  A    between atoms: C_28  and  C_48
    7  A    between atoms: C_30  and  C_37
    8  A    between atoms: C_36  and  C_47
                            x       y       z     vdW  Elec       q    Type
                         _______ _______ _______ _____ _____    ______ ____

>  <TORSDO>
F 8

$$$$
=
 OpenBabel11042423073D

 48 54  0  0  1  0  0  0  0  0999 V2000
  157.5370  212.8280  153.8600 C   0  0  0  0  0  3  0  0  0  0  0  0
  156.5780  213.5670  151.7360 C   0  0  0  0  0  0  0  0  0  0  0  0
  157.9220  213.3700  148.2760 C   0  0  0  0  0  0  0  0  0  0  0  0
  156.6890  213.6950  150.3380 C   0  0  0  0  0  0  0  0  0  0  0  0
  157.6240  212.9640  152.4680 C   0  0  0  0  0  0  0  0  0  0  0  0
  156.8970  214.1380  146.2060 C   0  0  0  0  0  3  0  0  0  0  0  0
  158.5660  212.2310  154.5820 C   0  0  0  0  0  3  0  0  0  0  0  0
  158.0550  213.8490  144.1430 F   0  0  0  0  0  0  0  0  0  0  0  0
  157.8400  213.2260  149.6710 C   0  0  0  0  0  0  0  0  0  0  0  0
  156.8490  213.9790  147.5940 C   0  0  0  0  0  0  0  0  0  0  0  0
  158.7810  212.4900  151.7980 C   0  0  0  0  0  0  0  0  0  0  0  0
  159.8300  211.8830  152.5290 C   0  0  0  0  0  0  0  0  0  0  0  0
  159.7070  211.7500  153.9340 C   0  0  0  0  0  0  0  0  0  0  0  0
  158.0100  213.6940  145.4880 C   0  0  0  0  0  0  0  0  0  0  0  0
  155.7670  214.4110  148.2900 N   0  0  0  0  0  0  0  0  0  0  0  0
  155.6910  214.2750  149.6140 N   0  0  0  0  0  0  0  0  0  0  0  0
  159.0370  212.9270  147.5440 C   0  0  0  0  0  3  0  0  0  0  0  0
  158.8690  212.6300  150.4070 C   0  0  0  0  0  3  0  0  0  0  0  0
  159.0790  213.0890  146.1560 C   0  0  0  0  0  3  0  0  0  0  0  0
  161.9480  211.2430  149.7810 N   0  0  0  0  0  2  0  0  0  0  0  0
  161.0620  211.4120  151.7890 C   0  0  1  0  0  3  0  0  0  0  0  0
  161.0290  209.9350  151.5090 C   0  0  0  0  0  2  0  0  0  0  0  0
  161.5500  209.8830  150.1100 C   0  0  0  0  0  2  0  0  0  0  0  0
  161.2210  212.0850  150.5700 O   0  0  0  0  0  0  0  0  0  0  0  0
  154.4430  214.4470  152.9440 N   0  0  0  0  0  0  0  0  0  0  0  0
  155.3910  214.0560  152.4070 C   0  0  0  0  0  0  0  0  0  0  0  0
  160.7830  211.1210  154.7700 C   0  0  0  0  0  2  0  0  0  0  0  0
  159.4700  207.6410  155.5190 C   0  0  0  0  0  0  0  0  0  0  0  0
  161.4980  207.4400  154.2090 C   0  0  0  0  0  0  0  0  0  0  0  0
  158.4340  207.0640  156.1730 F   0  0  0  0  0  0  0  0  0  0  0  0
  161.6090  208.8340  154.1690 C   0  0  0  0  0  3  0  0  0  0  0  0
  159.5830  209.0350  155.4790 C   0  0  0  0  0  3  0  0  0  0  0  0
  160.6510  209.6340  154.8020 C   0  0  0  0  0  0  0  0  0  0  0  0
  160.4270  206.8450  154.8830 C   0  0  0  0  0  3  0  0  0  0  0  0
  162.5110  206.5880  153.5210 C   0  0  0  0  0  2  0  0  0  0  0  0
  162.2030  205.6930  151.1670 C   0  0  0  0  0  0  0  0  0  0  0  0
  163.0530  206.5060  150.7140 O   0  0  0  0  0  0  0  0  0  0  0  0
  161.1410  203.3730  148.5010 C   0  0  0  0  0  0  0  0  0  0  0  0
  160.4630  202.8650  149.5290 C   0  0  0  0  0  3  0  0  0  0  0  0
  160.6780  203.7020  150.7460 C   0  0  0  0  0  2  0  0  0  0  0  0
  161.8650  205.7070  152.5580 N   0  0  0  0  0  2  0  0  0  0  0  0
  161.5690  204.7560  150.2880 N   0  0  0  0  0  0  0  0  0  0  0  0
  161.8760  204.6160  148.8730 C   0  0  2  0  0  3  0  0  0  0  0  0
  160.1060  206.3290  148.3990 O   0  0  0  0  0  1  0  0  0  0  0  0
  162.0410  206.2840  147.1730 O   0  0  0  0  0  0  0  0  0  0  0  0
  161.3520  205.7900  148.1040 C   0  0  0  0  0  0  0  0  0  0  0  0
  161.1520  201.2610  147.2110 C   0  0  0  0  0  1  0  0  0  0  0  0
  161.1400  202.7760  147.1300 C   0  0  0  0  0  2  0  0  0  0  0  0
  1  7  1  0  0  0  0
  2 26  1  0  0  0  0
  2  5  1  0  0  0  0
  3  9  1  0  0  0  0
  4  2  2  0  0  0  0
  5  1  2  0  0  0  0
  6 10  2  0  0  0  0
  8 14  1  0  0  0  0
  9  4  1  0  0  0  0
  9 18  2  0  0  0  0
 10  3  1  0  0  0  0
 10 15  1  0  0  0  0
 11  5  1  0  0  0  0
 11 12  2  0  0  0  0
 12 13  1  0  0  0  0
 13  7  2  0  0  0  0
 13 27  1  0  0  0  0
 14 19  2  0  0  0  0
 14  6  1  0  0  0  0
 15 16  2  0  0  0  0
 16  4  1  0  0  0  0
 17  3  2  0  0  0  0
 18 11  1  0  0  0  0
 19 17  1  0  0  0  0
 20 23  1  0  0  0  0
 20 24  1  0  0  0  0
 21 12  1  6  0  0  0
 22 21  1  0  0  0  0
 23 22  1  0  0  0  0
 24 21  1  0  0  0  0
 26 25  3  0  0  0  0
 27 33  1  0  0  0  0
 28 30  1  0  0  0  0
 29 34  1  0  0  0  0
 31 29  2  0  0  0  0
 31 33  1  0  0  0  0
 32 28  1  0  0  0  0
 33 32  2  0  0  0  0
 34 28  2  0  0  0  0
 35 29  1  0  0  0  0
 36 41  1  0  0  0  0
 37 36  2  0  0  0  0
 38 43  1  0  0  0  0
 38 39  2  0  0  0  0
 39 40  1  0  0  0  0
 41 35  1  0  0  0  0
 42 40  1  0  0  0  0
 42 36  1  0  0  0  0
 43 46  1  6  0  0  0
 43 42  1  0  0  0  0
 45 46  2  0  0  0  0
 46 44  1  0  0  0  0
 48 47  1  0  0  0  0
 48 38  1  0  0  0  0
M  END
>  <MODEL>
7

>  <REMARK>
 VINA RESULT:      -5.4      4.338      9.757
  Name = 
  8 active torsions:
  status: ('A' for Active; 'I' for Inactive)
    1  A    between atoms: C_4  and  C_27
    2  A    between atoms: C_5  and  C_43
    3  A    between atoms: C_9  and  C_11
    4  A    between atoms: C_9  and  N_42
    5  A    between atoms: C_26  and  C_37
    6  A    between atoms: C_28  and  C_48
    7  A    between atoms: C_30  and  C_37
    8  A    between atoms: C_36  and  C_47
                            x       y       z     vdW  Elec       q    Type
                         _______ _______ _______ _____ _____    ______ ____

>  <TORSDO>
F 8

$$$$
=
 OpenBabel11042423073D

 48 54  0  0  1  0  0  0  0  0999 V2000
  161.3880  206.8360  152.8410 C   0  0  0  0  0  3  0  0  0  0  0  0
  161.1720  205.1690  151.0660 C   0  0  0  0  0  0  0  0  0  0  0  0
  161.6170  205.4790  147.3890 C   0  0  0  0  0  0  0  0  0  0  0  0
  161.2340  204.8440  149.6980 C   0  0  0  0  0  0  0  0  0  0  0  0
  161.4460  206.4890  151.4860 C   0  0  0  0  0  0  0  0  0  0  0  0
  161.3780  203.7590  145.6830 C   0  0  0  0  0  3  0  0  0  0  0  0
  161.6610  208.1360  153.2550 C   0  0  0  0  0  3  0  0  0  0  0  0
  161.7400  204.3160  143.3940 F   0  0  0  0  0  0  0  0  0  0  0  0
  161.5650  205.8330  148.7480 C   0  0  0  0  0  0  0  0  0  0  0  0
  161.3350  204.1460  147.0250 C   0  0  0  0  0  0  0  0  0  0  0  0
  161.7820  207.4830  150.5320 C   0  0  0  0  0  0  0  0  0  0  0  0
  162.0590  208.8070  150.9480 C   0  0  0  0  0  0  0  0  0  0  0  0
  162.0040  209.1240  152.3280 C   0  0  0  0  0  0  0  0  0  0  0  0
  161.7000  204.6930  144.6950 C   0  0  0  0  0  0  0  0  0  0  0  0
  161.0210  203.2390  147.9840 N   0  0  0  0  0  0  0  0  0  0  0  0
  160.9720  203.5760  149.2730 N   0  0  0  0  0  0  0  0  0  0  0  0
  161.9400  206.4090  146.3870 C   0  0  0  0  0  3  0  0  0  0  0  0
  161.8360  207.1370  149.1750 C   0  0  0  0  0  3  0  0  0  0  0  0
  161.9810  206.0170  145.0460 C   0  0  0  0  0  3  0  0  0  0  0  0
  161.7580  211.8090  149.1200 N   0  0  0  0  0  2  0  0  0  0  0  0
  162.3890  209.8510  149.9050 C   0  0  1  0  0  3  0  0  0  0  0  0
  161.7990  209.5220  148.5620 C   0  0  0  0  0  2  0  0  0  0  0  0
  161.3060  210.8590  148.1140 C   0  0  0  0  0  2  0  0  0  0  0  0
  161.9310  211.1210  150.2840 O   0  0  0  0  0  0  0  0  0  0  0  0
  160.5540  203.3230  152.7990 N   0  0  0  0  0  0  0  0  0  0  0  0
  160.8270  204.1430  152.0290 C   0  0  0  0  0  0  0  0  0  0  0  0
  162.2820  210.5070  152.8380 C   0  0  0  0  0  2  0  0  0  0  0  0
  163.4720  210.9020  156.4180 C   0  0  0  0  0  0  0  0  0  0  0  0
  161.1360  210.2580  156.4440 C   0  0  0  0  0  0  0  0  0  0  0  0
  164.6060  211.2250  157.0840 F   0  0  0  0  0  0  0  0  0  0  0  0
  161.1290  210.2360  155.0450 C   0  0  0  0  0  3  0  0  0  0  0  0
  163.4630  210.8780  155.0200 C   0  0  0  0  0  3  0  0  0  0  0  0
  162.2910  210.5480  154.3310 C   0  0  0  0  0  0  0  0  0  0  0  0
  162.3080  210.5940  157.1290 C   0  0  0  0  0  3  0  0  0  0  0  0
  159.8930  209.9410  157.2040 C   0  0  0  0  0  2  0  0  0  0  0  0
  158.3170  211.3930  155.8470 C   0  0  0  0  0  0  0  0  0  0  0  0
  158.6420  210.8020  154.7810 O   0  0  0  0  0  0  0  0  0  0  0  0
  155.5650  213.7590  155.1800 C   0  0  0  0  0  0  0  0  0  0  0  0
  155.6750  213.9030  156.4990 C   0  0  0  0  0  3  0  0  0  0  0  0
  156.8080  213.0770  157.0100 C   0  0  0  0  0  2  0  0  0  0  0  0
  158.9330  211.0290  157.0860 N   0  0  0  0  0  2  0  0  0  0  0  0
  157.3340  212.4340  155.8160 N   0  0  0  0  0  0  0  0  0  0  0  0
  156.6060  212.8460  154.6250 C   0  0  2  0  0  3  0  0  0  0  0  0
  158.6090  214.2850  154.1690 O   0  0  0  0  0  1  0  0  0  0  0  0
  157.2640  213.5810  152.4520 O   0  0  0  0  0  0  0  0  0  0  0  0
  157.5100  213.5840  153.6870 C   0  0  0  0  0  0  0  0  0  0  0  0
  154.3950  213.7830  152.9980 C   0  0  0  0  0  1  0  0  0  0  0  0
  154.5300  214.4530  154.3520 C   0  0  0  0  0  2  0  0  0  0  0  0
  1  7  1  0  0  0  0
  2  5  1  0  0  0  0
  2 26  1  0  0  0  0
  3  9  1  0  0  0  0
  4  2  2  0  0  0  0
  5  1  2  0  0  0  0
  6 10  2  0  0  0  0
  8 14  1  0  0  0  0
  9 18  2  0  0  0  0
  9  4  1  0  0  0  0
 10  3  1  0  0  0  0
 10 15  1  0  0  0  0
 11 12  2  0  0  0  0
 11  5  1  0  0  0  0
 12 13  1  0  0  0  0
 13 27  1  0  0  0  0
 13  7  2  0  0  0  0
 14 19  2  0  0  0  0
 14  6  1  0  0  0  0
 15 16  2  0  0  0  0
 16  4  1  0  0  0  0
 17  3  2  0  0  0  0
 18 11  1  0  0  0  0
 19 17  1  0  0  0  0
 20 24  1  0  0  0  0
 21 24  1  0  0  0  0
 21 12  1  1  0  0  0
 22 21  1  0  0  0  0
 23 22  1  0  0  0  0
 23 20  1  0  0  0  0
 26 25  3  0  0  0  0
 27 33  1  0  0  0  0
 28 30  1  0  0  0  0
 28 34  1  0  0  0  0
 29 34  2  0  0  0  0
 29 35  1  0  0  0  0
 31 29  1  0  0  0  0
 32 28  2  0  0  0  0
 33 32  1  0  0  0  0
 33 31  2  0  0  0  0
 36 41  1  0  0  0  0
 37 36  2  0  0  0  0
 38 39  2  0  0  0  0
 39 40  1  0  0  0  0
 41 35  1  0  0  0  0
 42 36  1  0  0  0  0
 42 40  1  0  0  0  0
 43 46  1  6  0  0  0
 43 38  1  0  0  0  0
 43 42  1  0  0  0  0
 45 46  2  0  0  0  0
 46 44  1  0  0  0  0
 47 48  1  0  0  0  0
 48 38  1  0  0  0  0
M  END
>  <MODEL>
8

>  <REMARK>
 VINA RESULT:      -4.9      4.937      9.025
  Name = 
  8 active torsions:
  status: ('A' for Active; 'I' for Inactive)
    1  A    between atoms: C_4  and  C_27
    2  A    between atoms: C_5  and  C_43
    3  A    between atoms: C_9  and  C_11
    4  A    between atoms: C_9  and  N_42
    5  A    between atoms: C_26  and  C_37
    6  A    between atoms: C_28  and  C_48
    7  A    between atoms: C_30  and  C_37
    8  A    between atoms: C_36  and  C_47
                            x       y       z     vdW  Elec       q    Type
                         _______ _______ _______ _____ _____    ______ ____

>  <TORSDO>
F 8

$$$$
