=
 OpenBabel11052411523D

 32 35  0  0  1  0  0  0  0  0999 V2000
  161.3930  208.5230  152.6150 C   0  0  0  0  0  0  0  0  0  0  0  0
  161.5530  205.1330  148.0640 C   0  0  0  0  0  0  0  0  0  0  0  0
  161.8030  207.5320  149.5820 C   0  0  0  0  0  0  0  0  0  0  0  0
  160.7210  201.4260  150.0820 C   0  0  0  0  0  1  0  0  0  0  0  0
  160.7480  205.2030  149.3370 C   0  0  1  0  0  3  0  0  0  0  0  0
  160.8440  202.7140  149.3420 C   0  0  0  0  0  0  0  0  0  0  0  0
  161.5640  203.8760  147.3050 C   0  0  0  0  0  3  0  0  0  0  0  0
  161.9490  208.8690  150.1600 C   0  0  0  0  0  3  0  0  0  0  0  0
  160.7000  203.8570  150.0230 C   0  0  0  0  0  3  0  0  0  0  0  0
  161.7750  209.2780  151.4120 C   0  0  0  0  0  3  0  0  0  0  0  0
  160.7830  206.3050  151.5120 C   0  0  0  0  0  3  0  0  0  0  0  0
  162.1840  206.1710  147.6080 N   0  0  0  0  0  0  0  0  0  0  0  0
  162.2610  207.4050  148.3320 C   0  0  0  0  0  2  0  0  0  0  0  0
  161.1940  202.7300  147.8950 C   0  0  0  0  0  0  0  0  0  0  0  0
  160.9620  207.2590  152.6110 C   0  0  0  0  0  2  0  0  0  0  0  0
  161.1470  206.3640  150.2280 C   0  0  0  0  0  0  0  0  0  0  0  0
  161.5690  210.6490  154.0500 C   0  0  1  0  0  3  0  0  0  0  0  0
  161.6550  209.7170  156.1200 C   0  0  1  0  0  3  0  0  0  0  0  0
  161.9070  210.9040  155.3960 O   0  0  0  0  0  0  0  0  0  0  0  0
  161.5710  208.5630  155.1510 C   0  0  0  0  0  2  0  0  0  0  0  0
  161.4540  209.2130  153.8780 N   0  0  0  0  0  0  0  0  0  0  0  0
  162.7250  209.4800  157.0740 N   0  0  0  0  0  2  0  0  0  0  0  0
  163.4290  210.7380  157.2500 C   0  0  0  0  0  1  0  0  0  0  0  0
  160.2460  211.3230  153.7080 C   0  0  0  0  0  2  0  0  0  0  0  0
  159.8440  212.3030  154.7970 C   0  0  0  0  0  2  0  0  0  0  0  0
  158.4220  212.0280  155.2450 C   0  0  2  0  0  3  0  0  0  0  0  0
  158.2890  210.6730  155.5500 O   0  0  0  0  0  1  0  0  0  0  0  0
  157.4460  212.3950  154.1380 C   0  0  0  0  0  2  0  0  0  0  0  0
  155.9710  213.1910  154.8390 S   0  0  0  0  0  0  0  0  0  0  0  0
  155.7270  214.2180  153.3620 C   0  0  0  0  0  1  0  0  0  0  0  0
  160.6420  201.3850  146.0030 O   0  0  0  0  0  0  0  0  0  0  0  0
  161.2030  201.4750  147.1270 C   0  0  0  0  0  3  0  0  0  0  0  0
  1 21  1  0  0  0  0
  2  5  1  0  0  0  0
  3  8  2  0  0  0  0
  3 16  1  0  0  0  0
  5  9  1  1  0  0  0
  5 16  1  0  0  0  0
  6  9  2  0  0  0  0
  6  4  1  0  0  0  0
  7 14  2  0  0  0  0
  7  2  1  0  0  0  0
  8 10  1  0  0  0  0
 10  1  2  0  0  0  0
 11 15  1  0  0  0  0
 12  2  2  0  0  0  0
 12 13  1  0  0  0  0
 13  3  1  0  0  0  0
 14  6  1  0  0  0  0
 15  1  1  0  0  0  0
 16 11  2  0  0  0  0
 17 24  1  1  0  0  0
 17 19  1  0  0  0  0
 18 22  1  1  0  0  0
 19 18  1  0  0  0  0
 20 18  1  0  0  0  0
 21 17  1  0  0  0  0
 21 20  1  0  0  0  0
 22 23  1  0  0  0  0
 24 25  1  0  0  0  0
 25 26  1  0  0  0  0
 26 27  1  6  0  0  0
 28 29  1  0  0  0  0
 28 26  1  0  0  0  0
 30 29  1  0  0  0  0
 31 32  2  0  0  0  0
 32 14  1  0  0  0  0
M  END
>  <MODEL>
1

>  <REMARK>
 VINA RESULT:      -8.9      0.000      0.000
  Name = 
  8 active torsions:
  status: ('A' for Active; 'I' for Inactive)
    1  A    between atoms: C_1  and  N_25
    2  A    between atoms: C_5  and  C_31
    3  A    between atoms: S_7  and  C_17
    4  A    between atoms: C_9  and  N_27
    5  A    between atoms: C_14  and  C_28
    6  A    between atoms: C_16  and  C_17
    7  A    between atoms: C_16  and  C_20
    8  A    between atoms: C_20  and  C_31
                            x       y       z     vdW  Elec       q    Type
                         _______ _______ _______ _____ _____    ______ ____

>  <TORSDO>
F 8

$$$$
=
 OpenBabel11052411523D

 32 35  0  0  1  0  0  0  0  0999 V2000
  161.1730  207.8990  153.1210 C   0  0  0  0  0  0  0  0  0  0  0  0
  161.2540  203.6230  149.3880 C   0  0  0  0  0  0  0  0  0  0  0  0
  161.1580  204.9110  151.9280 C   0  0  0  0  0  0  0  0  0  0  0  0
  161.0340  205.9890  145.8030 C   0  0  0  0  0  1  0  0  0  0  0  0
  161.8120  205.0220  149.4470 C   0  0  1  0  0  3  0  0  0  0  0  0
  161.2780  205.1620  147.0180 C   0  0  0  0  0  0  0  0  0  0  0  0
  161.1610  202.9550  148.0830 C   0  0  0  0  0  3  0  0  0  0  0  0
  161.1470  205.3660  153.3200 C   0  0  0  0  0  3  0  0  0  0  0  0
  161.4940  205.7870  148.1820 C   0  0  0  0  0  3  0  0  0  0  0  0
  161.1580  206.6000  153.8120 C   0  0  0  0  0  2  0  0  0  0  0  0
  161.5740  207.0760  150.7410 C   0  0  0  0  0  3  0  0  0  0  0  0
  160.9110  202.9890  150.4660 N   0  0  0  0  0  0  0  0  0  0  0  0
  160.9220  203.6060  151.7600 C   0  0  0  0  0  2  0  0  0  0  0  0
  161.2070  203.6760  146.9530 C   0  0  0  0  0  0  0  0  0  0  0  0
  161.3680  208.0570  151.8100 C   0  0  0  0  0  3  0  0  0  0  0  0
  161.4680  205.7440  150.7360 C   0  0  0  0  0  0  0  0  0  0  0  0
  160.9480  210.4420  153.4300 C   0  0  1  0  0  3  0  0  0  0  0  0
  160.8750  210.5540  155.6980 C   0  0  1  0  0  3  0  0  0  0  0  0
  161.0890  211.3170  154.5280 O   0  0  0  0  0  0  0  0  0  0  0  0
  161.0310  209.0910  155.3630 C   0  0  0  0  0  2  0  0  0  0  0  0
  161.0050  209.0810  153.9290 N   0  0  0  0  0  0  0  0  0  0  0  0
  161.8380  210.9290  156.7190 N   0  0  0  0  0  2  0  0  0  0  0  0
  162.6010  209.7380  157.0480 C   0  0  0  0  0  1  0  0  0  0  0  0
  159.6140  210.6870  152.7360 C   0  0  0  0  0  2  0  0  0  0  0  0
  159.4480  212.1590  152.3940 C   0  0  0  0  0  2  0  0  0  0  0  0
  158.2740  212.7400  153.1570 C   0  0  2  0  0  3  0  0  0  0  0  0
  158.7280  213.7610  153.9930 O   0  0  0  0  0  1  0  0  0  0  0  0
  157.6090  211.6580  153.9940 C   0  0  0  0  0  2  0  0  0  0  0  0
  156.1770  212.3420  154.8800 S   0  0  0  0  0  0  0  0  0  0  0  0
  156.8670  211.8950  156.4990 C   0  0  0  0  0  1  0  0  0  0  0  0
  160.5050  201.9080  145.5130 O   0  0  0  0  0  0  0  0  0  0  0  0
  161.1180  203.0000  145.6500 C   0  0  0  0  0  3  0  0  0  0  0  0
  1 10  1  0  0  0  0
  1 21  1  0  0  0  0
  2  5  1  0  0  0  0
  2 12  2  0  0  0  0
  3  8  2  0  0  0  0
  4  6  1  0  0  0  0
  5  9  1  6  0  0  0
  5 16  1  0  0  0  0
  6  9  2  0  0  0  0
  7  2  1  0  0  0  0
  8 10  1  0  0  0  0
 11 15  1  0  0  0  0
 12 13  1  0  0  0  0
 13  3  1  0  0  0  0
 14  6  1  0  0  0  0
 14  7  2  0  0  0  0
 15  1  2  0  0  0  0
 16 11  2  0  0  0  0
 16  3  1  0  0  0  0
 17 24  1  1  0  0  0
 17 21  1  0  0  0  0
 17 19  1  0  0  0  0
 18 22  1  1  0  0  0
 19 18  1  0  0  0  0
 20 18  1  0  0  0  0
 21 20  1  0  0  0  0
 22 23  1  0  0  0  0
 25 24  1  0  0  0  0
 25 26  1  0  0  0  0
 26 27  1  1  0  0  0
 26 28  1  0  0  0  0
 28 29  1  0  0  0  0
 29 30  1  0  0  0  0
 31 32  2  0  0  0  0
 32 14  1  0  0  0  0
M  END
>  <MODEL>
2

>  <REMARK>
 VINA RESULT:      -8.8      1.622      2.658
  Name = 
  8 active torsions:
  status: ('A' for Active; 'I' for Inactive)
    1  A    between atoms: C_1  and  N_25
    2  A    between atoms: C_5  and  C_31
    3  A    between atoms: S_7  and  C_17
    4  A    between atoms: C_9  and  N_27
    5  A    between atoms: C_14  and  C_28
    6  A    between atoms: C_16  and  C_17
    7  A    between atoms: C_16  and  C_20
    8  A    between atoms: C_20  and  C_31
                            x       y       z     vdW  Elec       q    Type
                         _______ _______ _______ _____ _____    ______ ____

>  <TORSDO>
F 8

$$$$
=
 OpenBabel11052411523D

 32 35  0  0  1  0  0  0  0  0999 V2000
  161.0980  208.0270  153.1540 C   0  0  0  0  0  0  0  0  0  0  0  0
  161.2590  203.7180  149.4610 C   0  0  0  0  0  0  0  0  0  0  0  0
  161.1470  205.0290  151.9890 C   0  0  0  0  0  0  0  0  0  0  0  0
  160.9660  206.0450  145.8550 C   0  0  0  0  0  1  0  0  0  0  0  0
  161.7850  205.1310  149.5040 C   0  0  1  0  0  3  0  0  0  0  0  0
  161.2350  205.2350  147.0770 C   0  0  0  0  0  0  0  0  0  0  0  0
  161.1750  203.0360  148.1630 C   0  0  0  0  0  3  0  0  0  0  0  0
  161.1320  205.4960  153.3770 C   0  0  0  0  0  3  0  0  0  0  0  0
  161.4430  205.8760  148.2330 C   0  0  0  0  0  3  0  0  0  0  0  0
  161.1170  206.7340  153.8570 C   0  0  0  0  0  2  0  0  0  0  0  0
  161.5060  207.1910  150.7790 C   0  0  0  0  0  3  0  0  0  0  0  0
  160.9370  203.0870  150.5470 N   0  0  0  0  0  0  0  0  0  0  0  0
  160.9400  203.7170  151.8350 C   0  0  0  0  0  2  0  0  0  0  0  0
  161.1990  203.7470  147.0260 C   0  0  0  0  0  0  0  0  0  0  0  0
  161.2820  208.1770  151.8400 C   0  0  0  0  0  3  0  0  0  0  0  0
  161.4310  205.8570  150.7880 C   0  0  0  0  0  0  0  0  0  0  0  0
  160.9010  210.5740  153.4500 C   0  0  1  0  0  3  0  0  0  0  0  0
  160.7050  210.6890  155.7110 C   0  0  1  0  0  3  0  0  0  0  0  0
  160.9970  211.4470  154.5550 O   0  0  0  0  0  0  0  0  0  0  0  0
  160.8540  209.2230  155.3850 C   0  0  0  0  0  2  0  0  0  0  0  0
  160.9070  209.2120  153.9510 N   0  0  0  0  0  0  0  0  0  0  0  0
  161.6170  211.0480  156.7830 N   0  0  0  0  0  2  0  0  0  0  0  0
  162.5140  209.9230  156.9790 C   0  0  0  0  0  1  0  0  0  0  0  0
  159.6120  210.8420  152.6840 C   0  0  0  0  0  2  0  0  0  0  0  0
  159.5960  212.2600  152.1370 C   0  0  0  0  0  2  0  0  0  0  0  0
  158.4990  213.0620  152.8090 C   0  0  2  0  0  3  0  0  0  0  0  0
  157.7110  212.2100  153.5820 O   0  0  0  0  0  1  0  0  0  0  0  0
  157.6320  213.7400  151.7590 C   0  0  0  0  0  2  0  0  0  0  0  0
  158.4660  213.7180  150.1450 S   0  0  0  0  0  0  0  0  0  0  0  0
  156.9360  213.2780  149.2720 C   0  0  0  0  0  1  0  0  0  0  0  0
  160.7300  201.8620  145.6410 O   0  0  0  0  0  0  0  0  0  0  0  0
  161.1180  203.0570  145.7300 C   0  0  0  0  0  3  0  0  0  0  0  0
  1 10  1  0  0  0  0
  1 21  1  0  0  0  0
  2  5  1  0  0  0  0
  2 12  2  0  0  0  0
  3  8  2  0  0  0  0
  4  6  1  0  0  0  0
  5  9  1  6  0  0  0
  5 16  1  0  0  0  0
  6  9  2  0  0  0  0
  7  2  1  0  0  0  0
  8 10  1  0  0  0  0
 11 16  2  0  0  0  0
 11 15  1  0  0  0  0
 12 13  1  0  0  0  0
 13  3  1  0  0  0  0
 14  6  1  0  0  0  0
 14  7  2  0  0  0  0
 15  1  2  0  0  0  0
 16  3  1  0  0  0  0
 17 24  1  1  0  0  0
 17 21  1  0  0  0  0
 17 19  1  0  0  0  0
 18 22  1  1  0  0  0
 19 18  1  0  0  0  0
 20 18  1  0  0  0  0
 21 20  1  0  0  0  0
 22 23  1  0  0  0  0
 25 24  1  0  0  0  0
 25 26  1  0  0  0  0
 26 27  1  6  0  0  0
 28 26  1  0  0  0  0
 29 28  1  0  0  0  0
 30 29  1  0  0  0  0
 31 32  2  0  0  0  0
 32 14  1  0  0  0  0
M  END
>  <MODEL>
3

>  <REMARK>
 VINA RESULT:      -8.8      2.000      2.854
  Name = 
  8 active torsions:
  status: ('A' for Active; 'I' for Inactive)
    1  A    between atoms: C_1  and  N_25
    2  A    between atoms: C_5  and  C_31
    3  A    between atoms: S_7  and  C_17
    4  A    between atoms: C_9  and  N_27
    5  A    between atoms: C_14  and  C_28
    6  A    between atoms: C_16  and  C_17
    7  A    between atoms: C_16  and  C_20
    8  A    between atoms: C_20  and  C_31
                            x       y       z     vdW  Elec       q    Type
                         _______ _______ _______ _____ _____    ______ ____

>  <TORSDO>
F 8

$$$$
=
 OpenBabel11052411523D

 32 35  0  0  1  0  0  0  0  0999 V2000
  161.3070  207.2920  152.2980 C   0  0  0  0  0  0  0  0  0  0  0  0
  160.9670  202.6050  149.1110 C   0  0  0  0  0  0  0  0  0  0  0  0
  161.0050  204.1960  151.4760 C   0  0  0  0  0  0  0  0  0  0  0  0
  160.9550  204.5300  145.2640 C   0  0  0  0  0  1  0  0  0  0  0  0
  161.6550  203.9430  149.0040 C   0  0  1  0  0  3  0  0  0  0  0  0
  161.1250  203.8370  146.5730 C   0  0  0  0  0  0  0  0  0  0  0  0
  160.8050  201.7960  147.8970 C   0  0  0  0  0  3  0  0  0  0  0  0
  161.0430  204.8150  152.8030 C   0  0  0  0  0  3  0  0  0  0  0  0
  161.4050  204.5740  147.6530 C   0  0  0  0  0  3  0  0  0  0  0  0
  161.1730  206.0930  153.1410 C   0  0  0  0  0  2  0  0  0  0  0  0
  161.6180  206.1520  150.0380 C   0  0  0  0  0  3  0  0  0  0  0  0
  160.5710  202.1420  150.2570 N   0  0  0  0  0  0  0  0  0  0  0  0
  160.6460  202.9080  151.4660 C   0  0  0  0  0  2  0  0  0  0  0  0
  160.9150  202.3670  146.6880 C   0  0  0  0  0  0  0  0  0  0  0  0
  161.5100  207.2710  150.9780 C   0  0  0  0  0  3  0  0  0  0  0  0
  161.3870  204.8450  150.1940 C   0  0  0  0  0  0  0  0  0  0  0  0
  161.9180  209.7810  152.5010 C   0  0  1  0  0  3  0  0  0  0  0  0
  160.9310  210.2640  154.4900 C   0  0  1  0  0  3  0  0  0  0  0  0
  161.8860  210.7210  153.5540 O   0  0  0  0  0  0  0  0  0  0  0  0
  160.6680  208.7980  154.2450 C   0  0  0  0  0  2  0  0  0  0  0  0
  161.2550  208.5730  152.9550 N   0  0  0  0  0  0  0  0  0  0  0  0
  161.4280  210.4540  155.8410 N   0  0  0  0  0  2  0  0  0  0  0  0
  162.8460  210.7540  155.7380 C   0  0  0  0  0  1  0  0  0  0  0  0
  161.2010  210.3420  151.2800 C   0  0  0  0  0  2  0  0  0  0  0  0
  162.1690  210.5210  150.1220 C   0  0  0  0  0  2  0  0  0  0  0  0
  161.9110  211.8450  149.4300 C   0  0  2  0  0  3  0  0  0  0  0  0
  160.8050  212.4630  150.0140 O   0  0  0  0  0  1  0  0  0  0  0  0
  161.6420  211.6170  147.9510 C   0  0  0  0  0  2  0  0  0  0  0  0
  162.2620  213.0200  146.9760 S   0  0  0  0  0  0  0  0  0  0  0  0
  160.5850  213.6270  146.6370 C   0  0  0  0  0  1  0  0  0  0  0  0
  159.6460  201.4510  144.8870 O   0  0  0  0  0  0  0  0  0  0  0  0
  160.7560  201.5500  145.4760 C   0  0  0  0  0  3  0  0  0  0  0  0
  1 21  1  0  0  0  0
  1 10  1  0  0  0  0
  2 12  2  0  0  0  0
  3  8  2  0  0  0  0
  4  6  1  0  0  0  0
  5  9  1  6  0  0  0
  5  2  1  0  0  0  0
  5 16  1  0  0  0  0
  6 14  1  0  0  0  0
  6  9  2  0  0  0  0
  7  2  1  0  0  0  0
  8 10  1  0  0  0  0
 11 16  2  0  0  0  0
 11 15  1  0  0  0  0
 12 13  1  0  0  0  0
 13  3  1  0  0  0  0
 14  7  2  0  0  0  0
 15  1  2  0  0  0  0
 16  3  1  0  0  0  0
 17 24  1  6  0  0  0
 17 21  1  0  0  0  0
 17 19  1  0  0  0  0
 18 22  1  1  0  0  0
 19 18  1  0  0  0  0
 20 18  1  0  0  0  0
 21 20  1  0  0  0  0
 23 22  1  0  0  0  0
 25 24  1  0  0  0  0
 26 27  1  1  0  0  0
 26 25  1  0  0  0  0
 28 26  1  0  0  0  0
 29 28  1  0  0  0  0
 30 29  1  0  0  0  0
 31 32  2  0  0  0  0
 32 14  1  0  0  0  0
M  END
>  <MODEL>
4

>  <REMARK>
 VINA RESULT:      -8.0      2.894      4.198
  Name = 
  8 active torsions:
  status: ('A' for Active; 'I' for Inactive)
    1  A    between atoms: C_1  and  N_25
    2  A    between atoms: C_5  and  C_31
    3  A    between atoms: S_7  and  C_17
    4  A    between atoms: C_9  and  N_27
    5  A    between atoms: C_14  and  C_28
    6  A    between atoms: C_16  and  C_17
    7  A    between atoms: C_16  and  C_20
    8  A    between atoms: C_20  and  C_31
                            x       y       z     vdW  Elec       q    Type
                         _______ _______ _______ _____ _____    ______ ____

>  <TORSDO>
F 8

$$$$
=
 OpenBabel11052411523D

 32 35  0  0  1  0  0  0  0  0999 V2000
  161.0460  207.6700  151.6990 C   0  0  0  0  0  0  0  0  0  0  0  0
  161.0110  202.6000  149.1450 C   0  0  0  0  0  0  0  0  0  0  0  0
  160.9500  204.4810  151.2850 C   0  0  0  0  0  0  0  0  0  0  0  0
  160.8600  204.0070  145.0830 C   0  0  0  0  0  1  0  0  0  0  0  0
  161.6080  203.9550  148.8580 C   0  0  1  0  0  3  0  0  0  0  0  0
  161.0800  203.5010  146.4670 C   0  0  0  0  0  0  0  0  0  0  0  0
  160.9010  201.6320  148.0460 C   0  0  0  0  0  3  0  0  0  0  0  0
  160.9500  205.2670  152.5200 C   0  0  0  0  0  3  0  0  0  0  0  0
  161.3120  204.3890  147.4410 C   0  0  0  0  0  3  0  0  0  0  0  0
  160.9950  206.5840  152.6900 C   0  0  0  0  0  2  0  0  0  0  0  0
  161.4260  206.2710  149.6000 C   0  0  0  0  0  3  0  0  0  0  0  0
  160.6510  202.2630  150.3440 N   0  0  0  0  0  0  0  0  0  0  0  0
  160.6780  203.1820  151.4440 C   0  0  0  0  0  2  0  0  0  0  0  0
  160.9680  202.0480  146.7730 C   0  0  0  0  0  0  0  0  0  0  0  0
  161.2460  207.4930  150.3900 C   0  0  0  0  0  3  0  0  0  0  0  0
  161.2830  204.9830  149.9260 C   0  0  0  0  0  0  0  0  0  0  0  0
  160.3380  209.4010  153.4630 C   0  0  1  0  0  3  0  0  0  0  0  0
  160.8260  211.3190  152.3470 C   0  0  1  0  0  3  0  0  0  0  0  0
  160.1010  210.7920  153.4390 O   0  0  0  0  0  0  0  0  0  0  0  0
  161.1770  210.1920  151.4050 C   0  0  0  0  0  2  0  0  0  0  0  0
  160.9100  209.0190  152.1860 N   0  0  0  0  0  0  0  0  0  0  0  0
  160.0240  212.3090  151.6490 N   0  0  0  0  0  2  0  0  0  0  0  0
  158.7250  212.3420  152.2970 C   0  0  0  0  0  1  0  0  0  0  0  0
  161.3030  209.0560  154.5910 C   0  0  0  0  0  2  0  0  0  0  0  0
  160.8480  209.6830  155.8980 C   0  0  0  0  0  2  0  0  0  0  0  0
  161.9170  210.6210  156.4230 C   0  0  2  0  0  3  0  0  0  0  0  0
  162.8060  209.9050  157.2250 O   0  0  0  0  0  1  0  0  0  0  0  0
  161.2790  211.7320  157.2430 C   0  0  0  0  0  2  0  0  0  0  0  0
  160.0980  212.6660  156.2250 S   0  0  0  0  0  0  0  0  0  0  0  0
  158.6690  211.9530  157.0880 C   0  0  0  0  0  1  0  0  0  0  0  0
  159.8890  201.0850  144.8750 O   0  0  0  0  0  0  0  0  0  0  0  0
  160.8610  201.0720  145.6770 C   0  0  0  0  0  3  0  0  0  0  0  0
  1 21  1  0  0  0  0
  1 10  1  0  0  0  0
  2 12  2  0  0  0  0
  3 13  1  0  0  0  0
  3  8  2  0  0  0  0
  4  6  1  0  0  0  0
  5  9  1  6  0  0  0
  5  2  1  0  0  0  0
  5 16  1  0  0  0  0
  6 14  1  0  0  0  0
  6  9  2  0  0  0  0
  7  2  1  0  0  0  0
  8 10  1  0  0  0  0
 11 16  2  0  0  0  0
 11 15  1  0  0  0  0
 12 13  1  0  0  0  0
 14  7  2  0  0  0  0
 15  1  2  0  0  0  0
 16  3  1  0  0  0  0
 17 24  1  1  0  0  0
 18 22  1  6  0  0  0
 18 19  1  0  0  0  0
 19 17  1  0  0  0  0
 20 21  1  0  0  0  0
 20 18  1  0  0  0  0
 21 17  1  0  0  0  0
 22 23  1  0  0  0  0
 24 25  1  0  0  0  0
 25 26  1  0  0  0  0
 26 27  1  1  0  0  0
 26 28  1  0  0  0  0
 29 30  1  0  0  0  0
 29 28  1  0  0  0  0
 31 32  2  0  0  0  0
 32 14  1  0  0  0  0
M  END
>  <MODEL>
5

>  <REMARK>
 VINA RESULT:      -7.6      2.153      3.748
  Name = 
  8 active torsions:
  status: ('A' for Active; 'I' for Inactive)
    1  A    between atoms: C_1  and  N_25
    2  A    between atoms: C_5  and  C_31
    3  A    between atoms: S_7  and  C_17
    4  A    between atoms: C_9  and  N_27
    5  A    between atoms: C_14  and  C_28
    6  A    between atoms: C_16  and  C_17
    7  A    between atoms: C_16  and  C_20
    8  A    between atoms: C_20  and  C_31
                            x       y       z     vdW  Elec       q    Type
                         _______ _______ _______ _____ _____    ______ ____

>  <TORSDO>
F 8

$$$$
=
 OpenBabel11052411523D

 32 35  0  0  1  0  0  0  0  0999 V2000
  161.1610  208.0570  150.6600 C   0  0  0  0  0  0  0  0  0  0  0  0
  161.7510  203.6230  147.1650 C   0  0  0  0  0  0  0  0  0  0  0  0
  161.8570  206.3350  148.0330 C   0  0  0  0  0  0  0  0  0  0  0  0
  160.7260  200.5360  149.9800 C   0  0  0  0  0  1  0  0  0  0  0  0
  160.8280  203.9970  148.2970 C   0  0  1  0  0  3  0  0  0  0  0  0
  160.9210  201.5950  148.9490 C   0  0  0  0  0  0  0  0  0  0  0  0
  161.8330  202.2140  146.7580 C   0  0  0  0  0  3  0  0  0  0  0  0
  161.9490  207.7790  148.2600 C   0  0  0  0  0  3  0  0  0  0  0  0
  160.7140  202.8700  149.2980 C   0  0  0  0  0  3  0  0  0  0  0  0
  161.6570  208.4890  149.3440 C   0  0  0  0  0  3  0  0  0  0  0  0
  160.6570  205.6180  150.1110 C   0  0  0  0  0  3  0  0  0  0  0  0
  162.4230  204.5240  146.5180 N   0  0  0  0  0  0  0  0  0  0  0  0
  162.4320  205.9040  146.9060 C   0  0  0  0  0  2  0  0  0  0  0  0
  161.4080  201.2480  147.5850 C   0  0  0  0  0  0  0  0  0  0  0  0
  160.7310  206.8240  150.9400 C   0  0  0  0  0  2  0  0  0  0  0  0
  161.1410  205.3560  148.8940 C   0  0  0  0  0  0  0  0  0  0  0  0
  160.5450  208.8470  153.0280 C   0  0  1  0  0  3  0  0  0  0  0  0
  161.1510  211.0320  152.8810 C   0  0  1  0  0  3  0  0  0  0  0  0
  160.3900  210.1110  153.6360 O   0  0  0  0  0  0  0  0  0  0  0  0
  161.4420  210.4310  151.5270 C   0  0  0  0  0  2  0  0  0  0  0  0
  161.1020  209.0490  151.7040 N   0  0  0  0  0  0  0  0  0  0  0  0
  160.4130  212.2720  152.7200 N   0  0  0  0  0  2  0  0  0  0  0  0
  159.0340  211.9180  152.4390 C   0  0  0  0  0  1  0  0  0  0  0  0
  161.4810  207.9790  153.8610 C   0  0  0  0  0  2  0  0  0  0  0  0
  160.6900  207.0690  154.7860 C   0  0  0  0  0  2  0  0  0  0  0  0
  160.9860  207.4150  156.2320 C   0  0  2  0  0  3  0  0  0  0  0  0
  160.0110  206.8460  157.0510 O   0  0  0  0  0  1  0  0  0  0  0  0
  160.9860  208.9240  156.4180 C   0  0  0  0  0  2  0  0  0  0  0  0
  162.5080  209.4550  157.2570 S   0  0  0  0  0  0  0  0  0  0  0  0
  162.8770  210.6880  155.9760 C   0  0  0  0  0  1  0  0  0  0  0  0
  161.2210  199.4830  145.9900 O   0  0  0  0  0  0  0  0  0  0  0  0
  161.4880  199.8400  147.1690 C   0  0  0  0  0  3  0  0  0  0  0  0
  1 15  1  0  0  0  0
  1 21  1  0  0  0  0
  2  5  1  0  0  0  0
  3  8  2  0  0  0  0
  3 16  1  0  0  0  0
  5 16  1  0  0  0  0
  5  9  1  1  0  0  0
  6  9  2  0  0  0  0
  6  4  1  0  0  0  0
  7  2  1  0  0  0  0
  7 14  2  0  0  0  0
  8 10  1  0  0  0  0
 10  1  2  0  0  0  0
 11 15  1  0  0  0  0
 12 13  1  0  0  0  0
 12  2  2  0  0  0  0
 13  3  1  0  0  0  0
 14  6  1  0  0  0  0
 16 11  2  0  0  0  0
 17 19  1  0  0  0  0
 17 24  1  1  0  0  0
 18 22  1  6  0  0  0
 18 19  1  0  0  0  0
 20 21  1  0  0  0  0
 20 18  1  0  0  0  0
 21 17  1  0  0  0  0
 23 22  1  0  0  0  0
 24 25  1  0  0  0  0
 25 26  1  0  0  0  0
 26 28  1  0  0  0  0
 26 27  1  1  0  0  0
 28 29  1  0  0  0  0
 30 29  1  0  0  0  0
 31 32  2  0  0  0  0
 32 14  1  0  0  0  0
M  END
>  <MODEL>
6

>  <REMARK>
 VINA RESULT:      -7.2      2.379      3.663
  Name = 
  8 active torsions:
  status: ('A' for Active; 'I' for Inactive)
    1  A    between atoms: C_1  and  N_25
    2  A    between atoms: C_5  and  C_31
    3  A    between atoms: S_7  and  C_17
    4  A    between atoms: C_9  and  N_27
    5  A    between atoms: C_14  and  C_28
    6  A    between atoms: C_16  and  C_17
    7  A    between atoms: C_16  and  C_20
    8  A    between atoms: C_20  and  C_31
                            x       y       z     vdW  Elec       q    Type
                         _______ _______ _______ _____ _____    ______ ____

>  <TORSDO>
F 8

$$$$
=
 OpenBabel11052411523D

 32 35  0  0  1  0  0  0  0  0999 V2000
  161.6140  206.4500  148.9810 C   0  0  0  0  0  0  0  0  0  0  0  0
  161.1910  209.9410  153.4380 C   0  0  0  0  0  0  0  0  0  0  0  0
  161.6410  209.1440  150.7400 C   0  0  0  0  0  0  0  0  0  0  0  0
  159.6980  207.0700  156.2730 C   0  0  0  0  0  1  0  0  0  0  0  0
  161.5650  208.4960  153.2230 C   0  0  1  0  0  3  0  0  0  0  0  0
  160.3680  208.0380  155.3590 C   0  0  0  0  0  0  0  0  0  0  0  0
  160.8240  210.3800  154.7910 C   0  0  0  0  0  3  0  0  0  0  0  0
  161.9580  208.9440  149.3240 C   0  0  0  0  0  3  0  0  0  0  0  0
  160.8180  207.5940  154.1800 C   0  0  0  0  0  3  0  0  0  0  0  0
  161.9520  207.8300  148.6000 C   0  0  0  0  0  3  0  0  0  0  0  0
  161.4410  206.7690  151.5060 C   0  0  0  0  0  3  0  0  0  0  0  0
  161.2400  210.8010  152.4680 N   0  0  0  0  0  0  0  0  0  0  0  0
  161.5310  210.4220  151.1170 C   0  0  0  0  0  2  0  0  0  0  0  0
  160.4670  209.4800  155.7180 C   0  0  0  0  0  0  0  0  0  0  0  0
  161.4180  206.0370  150.2360 C   0  0  0  0  0  2  0  0  0  0  0  0
  161.5040  208.0780  151.7660 C   0  0  0  0  0  0  0  0  0  0  0  0
  161.9480  204.0870  148.0250 C   0  0  1  0  0  3  0  0  0  0  0  0
  161.2940  204.4390  145.8780 C   0  0  1  0  0  3  0  0  0  0  0  0
  161.9980  203.5500  146.7210 O   0  0  0  0  0  0  0  0  0  0  0  0
  161.1690  205.7740  146.5710 C   0  0  0  0  0  2  0  0  0  0  0  0
  161.5310  205.4720  147.9260 N   0  0  0  0  0  0  0  0  0  0  0  0
  162.0060  204.6030  144.6220 N   0  0  0  0  0  2  0  0  0  0  0  0
  161.2090  205.4840  143.7880 C   0  0  0  0  0  1  0  0  0  0  0  0
  160.9550  203.3020  148.8740 C   0  0  0  0  0  2  0  0  0  0  0  0
  160.3010  202.2010  148.0560 C   0  0  0  0  0  2  0  0  0  0  0  0
  160.7220  200.8430  148.5830 C   0  0  2  0  0  3  0  0  0  0  0  0
  161.4490  201.0120  149.7620 O   0  0  0  0  0  1  0  0  0  0  0  0
  161.5850  200.1290  147.5540 C   0  0  0  0  0  2  0  0  0  0  0  0
  160.8290  200.2530  145.9060 S   0  0  0  0  0  0  0  0  0  0  0  0
  161.2550  198.5360  145.4970 C   0  0  0  0  0  1  0  0  0  0  0  0
  159.2680  210.8490  157.2610 O   0  0  0  0  0  0  0  0  0  0  0  0
  160.1060  209.9270  157.0720 C   0  0  0  0  0  3  0  0  0  0  0  0
  1 15  1  0  0  0  0
  2  7  1  0  0  0  0
  3 13  1  0  0  0  0
  3 16  1  0  0  0  0
  5  2  1  0  0  0  0
  5  9  1  1  0  0  0
  6 14  1  0  0  0  0
  6  4  1  0  0  0  0
  7 14  2  0  0  0  0
  8  3  2  0  0  0  0
  9  6  2  0  0  0  0
 10  1  2  0  0  0  0
 10  8  1  0  0  0  0
 11 16  2  0  0  0  0
 12  2  2  0  0  0  0
 13 12  1  0  0  0  0
 14 32  1  0  0  0  0
 15 11  1  0  0  0  0
 16  5  1  0  0  0  0
 17 24  1  1  0  0  0
 18 22  1  6  0  0  0
 18 20  1  0  0  0  0
 18 19  1  0  0  0  0
 19 17  1  0  0  0  0
 20 21  1  0  0  0  0
 21 17  1  0  0  0  0
 21  1  1  0  0  0  0
 23 22  1  0  0  0  0
 25 26  1  0  0  0  0
 25 24  1  0  0  0  0
 26 27  1  1  0  0  0
 28 26  1  0  0  0  0
 29 28  1  0  0  0  0
 30 29  1  0  0  0  0
 32 31  2  0  0  0  0
M  END
>  <MODEL>
7

>  <REMARK>
 VINA RESULT:      -7.2      3.669      9.976
  Name = 
  8 active torsions:
  status: ('A' for Active; 'I' for Inactive)
    1  A    between atoms: C_1  and  N_25
    2  A    between atoms: C_5  and  C_31
    3  A    between atoms: S_7  and  C_17
    4  A    between atoms: C_9  and  N_27
    5  A    between atoms: C_14  and  C_28
    6  A    between atoms: C_16  and  C_17
    7  A    between atoms: C_16  and  C_20
    8  A    between atoms: C_20  and  C_31
                            x       y       z     vdW  Elec       q    Type
                         _______ _______ _______ _____ _____    ______ ____

>  <TORSDO>
F 8

$$$$
=
 OpenBabel11052411523D

 32 35  0  0  1  0  0  0  0  0999 V2000
  161.0160  202.6290  148.8160 C   0  0  0  0  0  0  0  0  0  0  0  0
  161.1130  206.5710  152.9000 C   0  0  0  0  0  0  0  0  0  0  0  0
  160.9620  203.9730  151.7380 C   0  0  0  0  0  0  0  0  0  0  0  0
  161.9990  209.9600  150.4030 C   0  0  0  0  0  1  0  0  0  0  0  0
  160.6620  206.5090  151.4620 C   0  0  1  0  0  3  0  0  0  0  0  0
  161.5300  208.8350  151.2600 C   0  0  0  0  0  0  0  0  0  0  0  0
  161.3310  207.8870  153.5140 C   0  0  0  0  0  3  0  0  0  0  0  0
  160.8190  202.5690  151.3490 C   0  0  0  0  0  3  0  0  0  0  0  0
  161.2060  207.6770  150.6720 C   0  0  0  0  0  3  0  0  0  0  0  0
  160.8370  202.0150  150.1410 C   0  0  0  0  0  2  0  0  0  0  0  0
  160.8800  205.0840  149.4960 C   0  0  0  0  0  3  0  0  0  0  0  0
  161.2560  205.4940  153.6080 N   0  0  0  0  0  0  0  0  0  0  0  0
  161.1170  204.1810  153.0500 C   0  0  0  0  0  2  0  0  0  0  0  0
  161.4930  208.9720  152.7430 C   0  0  0  0  0  0  0  0  0  0  0  0
  161.0140  203.9440  148.5840 C   0  0  0  0  0  3  0  0  0  0  0  0
  160.8820  205.1480  150.8300 C   0  0  0  0  0  0  0  0  0  0  0  0
  160.6460  201.9800  146.3560 C   0  0  1  0  0  3  0  0  0  0  0  0
  161.5810  199.9090  146.3540 C   0  0  1  0  0  3  0  0  0  0  0  0
  160.7210  200.7700  145.6340 O   0  0  0  0  0  0  0  0  0  0  0  0
  161.7070  200.4170  147.7690 C   0  0  0  0  0  2  0  0  0  0  0  0
  161.1640  201.7420  147.6900 N   0  0  0  0  0  0  0  0  0  0  0  0
  161.0400  198.5610  146.3630 N   0  0  0  0  0  2  0  0  0  0  0  0
  161.2050  198.0230  145.0240 C   0  0  0  0  0  1  0  0  0  0  0  0
  161.4730  203.0540  145.6590 C   0  0  0  0  0  2  0  0  0  0  0  0
  160.5910  203.9320  144.7880 C   0  0  0  0  0  2  0  0  0  0  0  0
  161.2280  205.2970  144.6140 C   0  0  2  0  0  3  0  0  0  0  0  0
  161.5660  205.4810  143.2730 O   0  0  0  0  0  1  0  0  0  0  0  0
  162.4790  205.4020  145.4710 C   0  0  0  0  0  2  0  0  0  0  0  0
  162.2130  206.5760  146.8320 S   0  0  0  0  0  0  0  0  0  0  0  0
  160.4570  206.7790  146.4170 C   0  0  0  0  0  1  0  0  0  0  0  0
  161.9800  210.4020  154.5890 O   0  0  0  0  0  0  0  0  0  0  0  0
  161.7070  210.2870  153.3650 C   0  0  0  0  0  3  0  0  0  0  0  0
  1 10  1  0  0  0  0
  2  7  1  0  0  0  0
  2 12  2  0  0  0  0
  3 13  1  0  0  0  0
  4  6  1  0  0  0  0
  5  9  1  6  0  0  0
  5  2  1  0  0  0  0
  6 14  1  0  0  0  0
  8  3  2  0  0  0  0
  9  6  2  0  0  0  0
 10  8  1  0  0  0  0
 11 16  2  0  0  0  0
 13 12  1  0  0  0  0
 14 32  1  0  0  0  0
 14  7  2  0  0  0  0
 15  1  2  0  0  0  0
 15 11  1  0  0  0  0
 16  5  1  0  0  0  0
 16  3  1  0  0  0  0
 17 24  1  6  0  0  0
 17 21  1  0  0  0  0
 18 22  1  1  0  0  0
 18 20  1  0  0  0  0
 19 18  1  0  0  0  0
 19 17  1  0  0  0  0
 21 20  1  0  0  0  0
 21  1  1  0  0  0  0
 23 22  1  0  0  0  0
 25 24  1  0  0  0  0
 26 27  1  6  0  0  0
 26 25  1  0  0  0  0
 26 28  1  0  0  0  0
 28 29  1  0  0  0  0
 30 29  1  0  0  0  0
 32 31  2  0  0  0  0
M  END
>  <MODEL>
8

>  <REMARK>
 VINA RESULT:      -7.0      3.460     10.002
  Name = 
  8 active torsions:
  status: ('A' for Active; 'I' for Inactive)
    1  A    between atoms: C_1  and  N_25
    2  A    between atoms: C_5  and  C_31
    3  A    between atoms: S_7  and  C_17
    4  A    between atoms: C_9  and  N_27
    5  A    between atoms: C_14  and  C_28
    6  A    between atoms: C_16  and  C_17
    7  A    between atoms: C_16  and  C_20
    8  A    between atoms: C_20  and  C_31
                            x       y       z     vdW  Elec       q    Type
                         _______ _______ _______ _____ _____    ______ ____

>  <TORSDO>
F 8

$$$$
=
 OpenBabel11052411523D

 32 35  0  0  1  0  0  0  0  0999 V2000
  161.3900  207.9650  150.6570 C   0  0  0  0  0  0  0  0  0  0  0  0
  161.5810  203.6090  147.0210 C   0  0  0  0  0  0  0  0  0  0  0  0
  161.7970  206.3000  147.9340 C   0  0  0  0  0  0  0  0  0  0  0  0
  160.8310  200.4630  149.8570 C   0  0  0  0  0  1  0  0  0  0  0  0
  160.7830  203.9620  148.2510 C   0  0  1  0  0  3  0  0  0  0  0  0
  160.9250  201.5450  148.8360 C   0  0  0  0  0  0  0  0  0  0  0  0
  161.6100  202.2100  146.5760 C   0  0  0  0  0  3  0  0  0  0  0  0
  161.9220  207.7380  148.1820 C   0  0  0  0  0  3  0  0  0  0  0  0
  160.7650  202.8130  149.2330 C   0  0  0  0  0  3  0  0  0  0  0  0
  161.7490  208.4250  149.3060 C   0  0  0  0  0  3  0  0  0  0  0  0
  160.8130  205.5420  150.1080 C   0  0  0  0  0  3  0  0  0  0  0  0
  162.1890  204.5220  146.3280 N   0  0  0  0  0  0  0  0  0  0  0  0
  162.2480  205.8930  146.7430 C   0  0  0  0  0  2  0  0  0  0  0  0
  161.2650  201.2270  147.4210 C   0  0  0  0  0  0  0  0  0  0  0  0
  160.9810  206.7280  150.9520 C   0  0  0  0  0  2  0  0  0  0  0  0
  161.1660  205.3050  148.8420 C   0  0  0  0  0  0  0  0  0  0  0  0
  162.1940  210.1750  151.6950 C   0  0  1  0  0  3  0  0  0  0  0  0
  161.2740  209.9910  153.7650 C   0  0  1  0  0  3  0  0  0  0  0  0
  162.2490  210.6830  153.0110 O   0  0  0  0  0  0  0  0  0  0  0  0
  160.8960  208.7270  153.0320 C   0  0  0  0  0  2  0  0  0  0  0  0
  161.4460  208.9330  151.7230 N   0  0  0  0  0  0  0  0  0  0  0  0
  161.8030  209.6580  155.0760 N   0  0  0  0  0  2  0  0  0  0  0  0
  160.6790  209.6090  155.9930 C   0  0  0  0  0  1  0  0  0  0  0  0
  161.5050  211.1790  150.7780 C   0  0  0  0  0  2  0  0  0  0  0  0
  162.3310  211.4170  149.5250 C   0  0  0  0  0  2  0  0  0  0  0  0
  161.5290  212.2190  148.5190 C   0  0  2  0  0  3  0  0  0  0  0  0
  162.3840  212.7060  147.5310 O   0  0  0  0  0  1  0  0  0  0  0  0
  160.8390  213.3840  149.2120 C   0  0  0  0  0  2  0  0  0  0  0  0
  159.2200  213.6990  148.4490 S   0  0  0  0  0  0  0  0  0  0  0  0
  158.3800  213.7250  150.0590 C   0  0  0  0  0  1  0  0  0  0  0  0
  161.2070  199.5290  145.7470 O   0  0  0  0  0  0  0  0  0  0  0  0
  161.2920  199.8290  146.9680 C   0  0  0  0  0  3  0  0  0  0  0  0
  1 15  1  0  0  0  0
  1 21  1  0  0  0  0
  2  5  1  0  0  0  0
  3  8  2  0  0  0  0
  3 16  1  0  0  0  0
  5 16  1  0  0  0  0
  5  9  1  1  0  0  0
  6  9  2  0  0  0  0
  6  4  1  0  0  0  0
  7  2  1  0  0  0  0
  7 14  2  0  0  0  0
  8 10  1  0  0  0  0
 10  1  2  0  0  0  0
 11 15  1  0  0  0  0
 12 13  1  0  0  0  0
 12  2  2  0  0  0  0
 13  3  1  0  0  0  0
 14  6  1  0  0  0  0
 16 11  2  0  0  0  0
 17 24  1  6  0  0  0
 17 21  1  0  0  0  0
 17 19  1  0  0  0  0
 18 22  1  1  0  0  0
 19 18  1  0  0  0  0
 20 18  1  0  0  0  0
 21 20  1  0  0  0  0
 22 23  1  0  0  0  0
 25 24  1  0  0  0  0
 26 27  1  6  0  0  0
 26 28  1  0  0  0  0
 26 25  1  0  0  0  0
 29 28  1  0  0  0  0
 29 30  1  0  0  0  0
 31 32  2  0  0  0  0
 32 14  1  0  0  0  0
M  END
>  <MODEL>
9

>  <REMARK>
 VINA RESULT:      -6.8      2.641      3.508
  Name = 
  8 active torsions:
  status: ('A' for Active; 'I' for Inactive)
    1  A    between atoms: C_1  and  N_25
    2  A    between atoms: C_5  and  C_31
    3  A    between atoms: S_7  and  C_17
    4  A    between atoms: C_9  and  N_27
    5  A    between atoms: C_14  and  C_28
    6  A    between atoms: C_16  and  C_17
    7  A    between atoms: C_16  and  C_20
    8  A    between atoms: C_20  and  C_31
                            x       y       z     vdW  Elec       q    Type
                         _______ _______ _______ _____ _____    ______ ____

>  <TORSDO>
F 8

$$$$
