=
 OpenBabel11052409263D

 35 38  0  0  1  0  0  0  0  0999 V2000
  161.5700  207.4130  151.0300 N   0  0  0  0  0  0  0  0  0  0  0  0
  161.4250  207.5900  152.4050 N   0  0  0  0  0  0  0  0  0  0  0  0
  161.8070  208.5030  150.3880 C   0  0  0  0  0  0  0  0  0  0  0  0
  161.8890  209.9860  151.3940 S   0  0  0  0  0  0  0  0  0  0  0  0
  161.5760  208.9580  152.8780 C   0  0  1  0  0  3  0  0  0  0  0  0
  160.5620  210.1510  154.8390 C   0  0  2  0  0  0  0  0  0  0  0  0
  160.2950  209.4200  153.5700 C   0  0  1  0  0  3  0  0  0  0  0  0
  160.2710  210.8300  153.6450 O   0  0  0  0  0  0  0  0  0  0  0  0
  161.9500  210.5380  155.3290 C   0  0  0  0  0  2  0  0  0  0  0  0
  161.9650  210.6220  156.7170 O   0  0  0  0  0  1  0  0  0  0  0  0
  159.4490  210.2840  155.7710 N   0  0  0  0  0  2  0  0  0  0  0  0
  156.3030  212.2410  155.3650 C   0  0  0  0  0  3  0  0  0  0  0  0
  157.2130  211.1790  155.3740 C   0  0  0  0  0  3  0  0  0  0  0  0
  156.7140  213.5160  155.7710 C   0  0  0  0  0  3  0  0  0  0  0  0
  158.5350  211.3830  155.7820 C   0  0  0  0  0  0  0  0  0  0  0  0
  158.9370  212.6600  156.1980 C   0  0  0  0  0  3  0  0  0  0  0  0
  158.0290  213.7220  156.1900 C   0  0  0  0  0  3  0  0  0  0  0  0
  161.9080  209.5810  148.2860 O   0  0  0  0  0  0  0  0  0  0  0  0
  162.0290  208.5080  148.9350 C   0  0  0  0  0  0  0  0  0  0  0  0
  162.3290  207.2330  148.2150 C   0  0  0  0  0  2  0  0  0  0  0  0
  161.1470  206.7490  147.5220 N   0  0  0  0  0  2  0  0  0  0  0  0
  162.5470  205.1460  146.3640 C   0  0  0  0  0  1  0  0  0  0  0  0
  160.4780  205.8920  145.4640 O   0  0  0  0  0  1  0  0  0  0  0  0
  161.5840  206.3050  146.2080 C   0  0  1  0  0  3  0  0  0  0  0  0
  161.2600  206.4590  153.3040 C   0  0  0  0  0  2  0  0  0  0  0  0
  161.8770  205.2180  152.6830 C   0  0  0  0  0  2  0  0  0  0  0  0
  160.8230  204.1400  152.5410 C   0  0  0  0  0  2  0  0  0  0  0  0
  161.2040  203.1610  151.4420 C   0  0  0  0  0  2  0  0  0  0  0  0
  161.8990  204.3570  149.4770 F   0  0  0  0  0  0  0  0  0  0  0  0
  159.8050  204.5890  150.2120 F   0  0  0  0  0  0  0  0  0  0  0  0
  160.8290  203.6770  150.0490 C   0  0  0  0  0  0  0  0  0  0  0  0
  160.3460  202.6280  149.2340 O   0  0  0  0  0  0  0  0  0  0  0  0
  161.2970  200.6880  148.2310 C   0  0  0  0  0  2  0  0  0  0  0  0
  161.3550  202.1940  148.3580 C   0  0  0  0  0  3  0  0  0  0  0  0
  160.7110  201.5600  147.1450 C   0  0  0  0  0  2  0  0  0  0  0  0
  1  2  1  0  0  0  0
  2  5  1  0  0  0  0
  2 25  1  0  0  0  0
  3  1  2  0  0  0  0
  3  4  1  0  0  0  0
  5  4  1  6  0  0  0
  5  7  1  0  0  0  0
  6  9  1  1  0  0  0
  6 11  1  0  0  0  0
  7  8  1  6  0  0  0
  7  6  1  0  0  0  0
  8  6  1  0  0  0  0
  9 10  1  0  0  0  0
 11 15  1  0  0  0  0
 12 13  2  0  0  0  0
 12 14  1  0  0  0  0
 13 15  1  0  0  0  0
 14 17  2  0  0  0  0
 15 16  2  0  0  0  0
 17 16  1  0  0  0  0
 18 19  2  0  0  0  0
 19  3  1  0  0  0  0
 20 19  1  0  0  0  0
 21 20  1  0  0  0  0
 23 24  1  0  0  0  0
 24 22  1  1  0  0  0
 24 21  1  0  0  0  0
 26 25  1  0  0  0  0
 27 26  1  0  0  0  0
 28 27  1  0  0  0  0
 29 31  1  0  0  0  0
 31 30  1  0  0  0  0
 31 28  1  0  0  0  0
 32 31  1  0  0  0  0
 33 34  1  0  0  0  0
 34 32  1  0  0  0  0
 35 33  1  0  0  0  0
 35 34  1  0  0  0  0
M  END
>  <MODEL>
1

>  <REMARK>
 VINA RESULT:      -6.9      0.000      0.000
  Name = 
  15 active torsions:
  status: ('A' for Active; 'I' for Inactive)
    1  A    between atoms: C_4  and  C_22
    2  A    between atoms: C_4  and  N_28
    3  A    between atoms: C_5  and  C_11
    4  A    between atoms: C_5  and  C_23
    5  A    between atoms: N_9  and  C_23
    6  A    between atoms: C_10  and  C_14
    7  A    between atoms: C_10  and  N_20
    8  A    between atoms: C_11  and  C_19
    9  A    between atoms: C_13  and  C_19
   10  A    between atoms: C_13  and  O_29
   11  A    between atoms: C_14  and  C_25
   12  A    between atoms: C_15  and  O_29
   13  A    between atoms: C_17  and  C_35
   14  A    between atoms: N_20  and  C_31
   15  A    between atoms: C_24  and  N_28
                            x       y       z     vdW  Elec       q    Type
                         _______ _______ _______ _____ _____    ______ ____

>  <TORSDO>
F 15

$$$$
=
 OpenBabel11052409263D

 35 38  0  0  1  0  0  0  0  0999 V2000
  161.9800  209.9750  148.4010 N   0  0  0  0  0  0  0  0  0  0  0  0
  162.1070  208.6760  148.8900 N   0  0  0  0  0  0  0  0  0  0  0  0
  161.8510  210.8670  149.3200 C   0  0  0  0  0  0  0  0  0  0  0  0
  161.8560  210.2430  151.0020 S   0  0  0  0  0  0  0  0  0  0  0  0
  162.0840  208.5500  150.3400 C   0  0  1  0  0  3  0  0  0  0  0  0
  161.3700  206.4380  151.4920 C   0  0  2  0  0  0  0  0  0  0  0  0
  160.9200  207.6610  150.7720 C   0  0  1  0  0  3  0  0  0  0  0  0
  160.8880  207.5620  152.1810 O   0  0  0  0  0  0  0  0  0  0  0  0
  162.8120  206.1640  151.8950 C   0  0  0  0  0  2  0  0  0  0  0  0
  162.8920  205.9210  153.2620 O   0  0  0  0  0  1  0  0  0  0  0  0
  160.4140  205.3430  151.5950 N   0  0  0  0  0  2  0  0  0  0  0  0
  161.2280  201.7100  151.4070 C   0  0  0  0  0  3  0  0  0  0  0  0
  161.0030  202.9950  151.9120 C   0  0  0  0  0  3  0  0  0  0  0  0
  161.0690  201.4600  150.0390 C   0  0  0  0  0  3  0  0  0  0  0  0
  160.6250  204.0360  151.0570 C   0  0  0  0  0  0  0  0  0  0  0  0
  160.4560  203.7750  149.6900 C   0  0  0  0  0  3  0  0  0  0  0  0
  160.6800  202.4920  149.1840 C   0  0  0  0  0  3  0  0  0  0  0  0
  160.8460  212.9960  149.5350 O   0  0  0  0  0  0  0  0  0  0  0  0
  161.7450  212.2960  148.9970 C   0  0  0  0  0  0  0  0  0  0  0  0
  162.6530  212.9080  147.9800 C   0  0  0  0  0  2  0  0  0  0  0  0
  162.3230  214.3070  147.7760 N   0  0  0  0  0  2  0  0  0  0  0  0
  162.5790  213.4130  145.5390 C   0  0  0  0  0  1  0  0  0  0  0  0
  160.4910  214.2140  146.3430 O   0  0  0  0  0  1  0  0  0  0  0  0
  161.8670  214.4360  146.4010 C   0  0  1  0  0  3  0  0  0  0  0  0
  162.3680  207.5530  148.0050 C   0  0  0  0  0  2  0  0  0  0  0  0
  161.0830  206.7800  147.7650 C   0  0  0  0  0  2  0  0  0  0  0  0
  160.9370  206.4790  146.2870 C   0  0  0  0  0  2  0  0  0  0  0  0
  162.2000  205.8280  145.7460 C   0  0  0  0  0  2  0  0  0  0  0  0
  162.9030  204.1450  147.3100 F   0  0  0  0  0  0  0  0  0  0  0  0
  163.0650  203.7370  145.1220 F   0  0  0  0  0  0  0  0  0  0  0  0
  162.2750  204.3360  146.0840 C   0  0  0  0  0  0  0  0  0  0  0  0
  160.9960  203.7390  146.0240 O   0  0  0  0  0  0  0  0  0  0  0  0
  160.7150  201.3730  145.9700 C   0  0  0  0  0  2  0  0  0  0  0  0
  161.0250  202.6210  145.1730 C   0  0  0  0  0  3  0  0  0  0  0  0
  159.6430  202.0100  145.1180 C   0  0  0  0  0  2  0  0  0  0  0  0
  1  2  1  0  0  0  0
  1  3  2  0  0  0  0
  2  5  1  0  0  0  0
  3  4  1  0  0  0  0
  5  7  1  0  0  0  0
  5  4  1  1  0  0  0
  6 11  1  0  0  0  0
  6  9  1  1  0  0  0
  6  8  1  0  0  0  0
  7  6  1  0  0  0  0
  7  8  1  1  0  0  0
  9 10  1  0  0  0  0
 12 13  1  0  0  0  0
 14 12  2  0  0  0  0
 15 11  1  0  0  0  0
 15 13  2  0  0  0  0
 16 15  1  0  0  0  0
 17 16  2  0  0  0  0
 17 14  1  0  0  0  0
 19  3  1  0  0  0  0
 19 18  2  0  0  0  0
 20 19  1  0  0  0  0
 21 20  1  0  0  0  0
 23 24  1  0  0  0  0
 24 22  1  6  0  0  0
 24 21  1  0  0  0  0
 25  2  1  0  0  0  0
 26 25  1  0  0  0  0
 27 26  1  0  0  0  0
 28 31  1  0  0  0  0
 28 27  1  0  0  0  0
 30 31  1  0  0  0  0
 31 29  1  0  0  0  0
 32 31  1  0  0  0  0
 34 33  1  0  0  0  0
 34 32  1  0  0  0  0
 35 34  1  0  0  0  0
 35 33  1  0  0  0  0
M  END
>  <MODEL>
2

>  <REMARK>
 VINA RESULT:      -6.7      4.152      6.744
  Name = 
  15 active torsions:
  status: ('A' for Active; 'I' for Inactive)
    1  A    between atoms: C_4  and  C_22
    2  A    between atoms: C_4  and  N_28
    3  A    between atoms: C_5  and  C_11
    4  A    between atoms: C_5  and  C_23
    5  A    between atoms: N_9  and  C_23
    6  A    between atoms: C_10  and  C_14
    7  A    between atoms: C_10  and  N_20
    8  A    between atoms: C_11  and  C_19
    9  A    between atoms: C_13  and  C_19
   10  A    between atoms: C_13  and  O_29
   11  A    between atoms: C_14  and  C_25
   12  A    between atoms: C_15  and  O_29
   13  A    between atoms: C_17  and  C_35
   14  A    between atoms: N_20  and  C_31
   15  A    between atoms: C_24  and  N_28
                            x       y       z     vdW  Elec       q    Type
                         _______ _______ _______ _____ _____    ______ ____

>  <TORSDO>
F 15

$$$$
=
 OpenBabel11052409263D

 35 38  0  0  1  0  0  0  0  0999 V2000
  161.2510  206.4250  153.9840 N   0  0  0  0  0  0  0  0  0  0  0  0
  161.0930  205.8100  152.7430 N   0  0  0  0  0  0  0  0  0  0  0  0
  161.3250  207.7090  153.9230 C   0  0  0  0  0  0  0  0  0  0  0  0
  161.2160  208.4070  152.2740 S   0  0  0  0  0  0  0  0  0  0  0  0
  161.0270  206.7120  151.6030 C   0  0  1  0  0  3  0  0  0  0  0  0
  162.1010  207.2510  149.4000 C   0  0  2  0  0  0  0  0  0  0  0  0
  162.1610  206.4090  150.6260 C   0  0  1  0  0  3  0  0  0  0  0  0
  162.9700  207.5540  150.4590 O   0  0  0  0  0  0  0  0  0  0  0  0
  161.1180  208.3950  149.1940 C   0  0  0  0  0  2  0  0  0  0  0  0
  161.7460  209.4610  148.5610 O   0  0  0  0  0  1  0  0  0  0  0  0
  162.8630  206.7920  148.2460 N   0  0  0  0  0  2  0  0  0  0  0  0
  162.4740  204.5940  145.2610 C   0  0  0  0  0  3  0  0  0  0  0  0
  163.0130  205.2020  146.4000 C   0  0  0  0  0  3  0  0  0  0  0  0
  161.1980  204.9550  144.8140 C   0  0  0  0  0  3  0  0  0  0  0  0
  162.2860  206.1760  147.0930 C   0  0  0  0  0  0  0  0  0  0  0  0
  161.0040  206.5250  146.6460 C   0  0  0  0  0  3  0  0  0  0  0  0
  160.4640  205.9180  145.5090 C   0  0  0  0  0  3  0  0  0  0  0  0
  161.7500  207.9890  156.2310 O   0  0  0  0  0  0  0  0  0  0  0  0
  161.4530  208.5310  155.1340 C   0  0  0  0  0  0  0  0  0  0  0  0
  161.1630  209.9970  155.0830 C   0  0  0  0  0  2  0  0  0  0  0  0
  159.7350  210.2390  155.1940 N   0  0  0  0  0  2  0  0  0  0  0  0
  159.1040  212.5760  155.2870 C   0  0  0  0  0  1  0  0  0  0  0  0
  160.5600  211.7320  153.6100 O   0  0  0  0  0  1  0  0  0  0  0  0
  159.4440  211.4090  154.3820 C   0  0  1  0  0  3  0  0  0  0  0  0
  160.8840  204.3770  152.6270 C   0  0  0  0  0  2  0  0  0  0  0  0
  160.3830  204.0430  151.2320 C   0  0  0  0  0  2  0  0  0  0  0  0
  161.0010  202.7420  150.7650 C   0  0  0  0  0  2  0  0  0  0  0  0
  160.1380  202.0950  149.6940 C   0  0  0  0  0  2  0  0  0  0  0  0
  161.7760  200.6550  148.6840 F   0  0  0  0  0  0  0  0  0  0  0  0
  161.7490  202.8210  148.1490 F   0  0  0  0  0  0  0  0  0  0  0  0
  160.9400  201.7390  148.4380 C   0  0  0  0  0  0  0  0  0  0  0  0
  160.0850  201.5340  147.3330 O   0  0  0  0  0  0  0  0  0  0  0  0
  160.5810  200.2810  145.3680 C   0  0  0  0  0  2  0  0  0  0  0  0
  160.8240  201.5590  146.1380 C   0  0  0  0  0  3  0  0  0  0  0  0
  159.8670  201.5500  144.9680 C   0  0  0  0  0  2  0  0  0  0  0  0
  2  1  1  0  0  0  0
  3  1  2  0  0  0  0
  3 19  1  0  0  0  0
  4  3  1  0  0  0  0
  5  4  1  1  0  0  0
  5  2  1  0  0  0  0
  6  9  1  6  0  0  0
  6  8  1  0  0  0  0
  6  7  1  0  0  0  0
  7  8  1  1  0  0  0
  7  5  1  0  0  0  0
 10  9  1  0  0  0  0
 11  6  1  0  0  0  0
 12 13  1  0  0  0  0
 13 15  2  0  0  0  0
 14 12  2  0  0  0  0
 14 17  1  0  0  0  0
 15 11  1  0  0  0  0
 16 15  1  0  0  0  0
 17 16  2  0  0  0  0
 19 18  2  0  0  0  0
 20 19  1  0  0  0  0
 20 21  1  0  0  0  0
 23 24  1  0  0  0  0
 24 21  1  0  0  0  0
 24 22  1  1  0  0  0
 25  2  1  0  0  0  0
 26 25  1  0  0  0  0
 27 26  1  0  0  0  0
 28 27  1  0  0  0  0
 30 31  1  0  0  0  0
 31 29  1  0  0  0  0
 31 28  1  0  0  0  0
 32 31  1  0  0  0  0
 33 34  1  0  0  0  0
 34 32  1  0  0  0  0
 35 33  1  0  0  0  0
 35 34  1  0  0  0  0
M  END
>  <MODEL>
3

>  <REMARK>
 VINA RESULT:      -6.2      1.815      7.497
  Name = 
  15 active torsions:
  status: ('A' for Active; 'I' for Inactive)
    1  A    between atoms: C_4  and  C_22
    2  A    between atoms: C_4  and  N_28
    3  A    between atoms: C_5  and  C_11
    4  A    between atoms: C_5  and  C_23
    5  A    between atoms: N_9  and  C_23
    6  A    between atoms: C_10  and  C_14
    7  A    between atoms: C_10  and  N_20
    8  A    between atoms: C_11  and  C_19
    9  A    between atoms: C_13  and  C_19
   10  A    between atoms: C_13  and  O_29
   11  A    between atoms: C_14  and  C_25
   12  A    between atoms: C_15  and  O_29
   13  A    between atoms: C_17  and  C_35
   14  A    between atoms: N_20  and  C_31
   15  A    between atoms: C_24  and  N_28
                            x       y       z     vdW  Elec       q    Type
                         _______ _______ _______ _____ _____    ______ ____

>  <TORSDO>
F 15

$$$$
=
 OpenBabel11052409263D

 35 38  0  0  1  0  0  0  0  0999 V2000
  161.5730  207.5360  150.7710 N   0  0  0  0  0  0  0  0  0  0  0  0
  161.4210  207.4600  152.1550 N   0  0  0  0  0  0  0  0  0  0  0  0
  161.8500  208.7170  150.3420 C   0  0  0  0  0  0  0  0  0  0  0  0
  161.9700  209.9850  151.6050 S   0  0  0  0  0  0  0  0  0  0  0  0
  161.6110  208.7110  152.8730 C   0  0  1  0  0  3  0  0  0  0  0  0
  160.6240  209.7240  154.9460 C   0  0  2  0  0  0  0  0  0  0  0  0
  160.3400  209.0800  153.6350 C   0  0  1  0  0  3  0  0  0  0  0  0
  160.2760  210.4790  153.8150 O   0  0  0  0  0  0  0  0  0  0  0  0
  162.0150  210.1190  155.4220 C   0  0  0  0  0  2  0  0  0  0  0  0
  162.1380  209.8930  156.7890 O   0  0  0  0  0  1  0  0  0  0  0  0
  159.5380  209.7520  155.9180 N   0  0  0  0  0  2  0  0  0  0  0  0
  158.2840  213.0010  157.2450 C   0  0  0  0  0  3  0  0  0  0  0  0
  159.1060  211.8960  157.0020 C   0  0  0  0  0  3  0  0  0  0  0  0
  157.0360  213.0950  156.6180 C   0  0  0  0  0  3  0  0  0  0  0  0
  158.6850  210.8770  156.1400 C   0  0  0  0  0  0  0  0  0  0  0  0
  157.4390  210.9830  155.5070 C   0  0  0  0  0  3  0  0  0  0  0  0
  156.6170  212.0870  155.7480 C   0  0  0  0  0  3  0  0  0  0  0  0
  162.7410  208.1590  148.2240 O   0  0  0  0  0  0  0  0  0  0  0  0
  162.0850  208.9830  148.9160 C   0  0  0  0  0  0  0  0  0  0  0  0
  161.6100  210.2580  148.2990 C   0  0  0  0  0  2  0  0  0  0  0  0
  162.5930  211.3120  148.4840 N   0  0  0  0  0  2  0  0  0  0  0  0
  161.0120  213.0350  149.1170 C   0  0  0  0  0  1  0  0  0  0  0  0
  162.9510  213.5170  147.8310 O   0  0  0  0  0  1  0  0  0  0  0  0
  161.9690  212.5500  148.0470 C   0  0  1  0  0  3  0  0  0  0  0  0
  161.2120  206.1890  152.8280 C   0  0  0  0  0  2  0  0  0  0  0  0
  161.7310  205.0570  151.9580 C   0  0  0  0  0  2  0  0  0  0  0  0
  160.6260  204.0490  151.7190 C   0  0  0  0  0  2  0  0  0  0  0  0
  161.2080  202.6710  151.4500 C   0  0  0  0  0  2  0  0  0  0  0  0
  159.5960  202.3230  149.7030 F   0  0  0  0  0  0  0  0  0  0  0  0
  161.2540  200.8520  149.9680 F   0  0  0  0  0  0  0  0  0  0  0  0
  160.9450  202.1980  150.0180 C   0  0  0  0  0  0  0  0  0  0  0  0
  161.7870  202.8670  149.1010 O   0  0  0  0  0  0  0  0  0  0  0  0
  161.1930  204.9910  148.2010 C   0  0  0  0  0  2  0  0  0  0  0  0
  161.0180  203.4920  148.1060 C   0  0  0  0  0  3  0  0  0  0  0  0
  161.9430  204.2090  147.1480 C   0  0  0  0  0  2  0  0  0  0  0  0
  1  2  1  0  0  0  0
  2 25  1  0  0  0  0
  2  5  1  0  0  0  0
  3  1  2  0  0  0  0
  3  4  1  0  0  0  0
  5  4  1  6  0  0  0
  5  7  1  0  0  0  0
  6  9  1  1  0  0  0
  6 11  1  0  0  0  0
  7  8  1  6  0  0  0
  7  6  1  0  0  0  0
  8  6  1  0  0  0  0
  9 10  1  0  0  0  0
 11 15  1  0  0  0  0
 13 12  1  0  0  0  0
 14 12  2  0  0  0  0
 15 13  2  0  0  0  0
 16 17  2  0  0  0  0
 16 15  1  0  0  0  0
 17 14  1  0  0  0  0
 18 19  2  0  0  0  0
 19  3  1  0  0  0  0
 20 21  1  0  0  0  0
 20 19  1  0  0  0  0
 23 24  1  0  0  0  0
 24 21  1  0  0  0  0
 24 22  1  1  0  0  0
 26 25  1  0  0  0  0
 27 26  1  0  0  0  0
 28 27  1  0  0  0  0
 29 31  1  0  0  0  0
 30 31  1  0  0  0  0
 31 28  1  0  0  0  0
 32 31  1  0  0  0  0
 34 33  1  0  0  0  0
 34 32  1  0  0  0  0
 35 34  1  0  0  0  0
 35 33  1  0  0  0  0
M  END
>  <MODEL>
4

>  <REMARK>
 VINA RESULT:      -6.1      1.889      2.977
  Name = 
  15 active torsions:
  status: ('A' for Active; 'I' for Inactive)
    1  A    between atoms: C_4  and  C_22
    2  A    between atoms: C_4  and  N_28
    3  A    between atoms: C_5  and  C_11
    4  A    between atoms: C_5  and  C_23
    5  A    between atoms: N_9  and  C_23
    6  A    between atoms: C_10  and  C_14
    7  A    between atoms: C_10  and  N_20
    8  A    between atoms: C_11  and  C_19
    9  A    between atoms: C_13  and  C_19
   10  A    between atoms: C_13  and  O_29
   11  A    between atoms: C_14  and  C_25
   12  A    between atoms: C_15  and  O_29
   13  A    between atoms: C_17  and  C_35
   14  A    between atoms: N_20  and  C_31
   15  A    between atoms: C_24  and  N_28
                            x       y       z     vdW  Elec       q    Type
                         _______ _______ _______ _____ _____    ______ ____

>  <TORSDO>
F 15

$$$$
=
 OpenBabel11052409263D

 35 38  0  0  1  0  0  0  0  0999 V2000
  161.3730  208.8650  152.7050 N   0  0  0  0  0  0  0  0  0  0  0  0
  161.8110  208.0790  151.6400 N   0  0  0  0  0  0  0  0  0  0  0  0
  160.9810  208.1860  153.7260 C   0  0  0  0  0  0  0  0  0  0  0  0
  161.0800  206.4050  153.5480 S   0  0  0  0  0  0  0  0  0  0  0  0
  161.7640  206.6420  151.8650 C   0  0  1  0  0  3  0  0  0  0  0  0
  161.1750  204.5410  150.6260 C   0  0  2  0  0  0  0  0  0  0  0  0
  160.8520  205.9790  150.8340 C   0  0  1  0  0  3  0  0  0  0  0  0
  160.1090  204.9450  151.4450 O   0  0  0  0  0  0  0  0  0  0  0  0
  162.1930  203.7640  151.4490 C   0  0  0  0  0  2  0  0  0  0  0  0
  161.6720  202.5280  151.8170 O   0  0  0  0  0  1  0  0  0  0  0  0
  160.6620  203.9180  149.4120 N   0  0  0  0  0  2  0  0  0  0  0  0
  162.3560  205.5540  146.5230 C   0  0  0  0  0  3  0  0  0  0  0  0
  161.8140  205.3370  147.7940 C   0  0  0  0  0  3  0  0  0  0  0  0
  162.3110  204.5380  145.5620 C   0  0  0  0  0  3  0  0  0  0  0  0
  161.2200  204.1100  148.1110 C   0  0  0  0  0  0  0  0  0  0  0  0
  161.1890  203.0930  147.1470 C   0  0  0  0  0  3  0  0  0  0  0  0
  161.7310  203.3080  145.8770 C   0  0  0  0  0  3  0  0  0  0  0  0
  160.1540  208.1480  155.9410 O   0  0  0  0  0  0  0  0  0  0  0  0
  160.5230  208.8440  154.9580 C   0  0  0  0  0  0  0  0  0  0  0  0
  160.4250  210.3340  155.0240 C   0  0  0  0  0  2  0  0  0  0  0  0
  159.0350  210.7550  155.0220 N   0  0  0  0  0  2  0  0  0  0  0  0
  160.0090  212.1330  153.2840 C   0  0  0  0  0  1  0  0  0  0  0  0
  157.7200  212.3110  153.8960 O   0  0  0  0  0  1  0  0  0  0  0  0
  158.9960  212.0720  154.4090 C   0  0  1  0  0  3  0  0  0  0  0  0
  162.3890  208.6720  150.4460 C   0  0  0  0  0  2  0  0  0  0  0  0
  162.0380  210.1480  150.3850 C   0  0  0  0  0  2  0  0  0  0  0  0
  162.0620  210.6200  148.9450 C   0  0  0  0  0  2  0  0  0  0  0  0
  161.8570  212.1240  148.8720 C   0  0  0  0  0  2  0  0  0  0  0  0
  163.9690  212.1910  147.7280 F   0  0  0  0  0  0  0  0  0  0  0  0
  162.8830  214.0990  148.1270 F   0  0  0  0  0  0  0  0  0  0  0  0
  162.7070  212.7740  147.7770 C   0  0  0  0  0  0  0  0  0  0  0  0
  162.0390  212.7430  146.5320 O   0  0  0  0  0  0  0  0  0  0  0  0
  162.9960  213.2530  144.4110 C   0  0  0  0  0  2  0  0  0  0  0  0
  162.4790  213.8030  145.7210 C   0  0  0  0  0  3  0  0  0  0  0  0
  161.6160  213.8620  144.4810 C   0  0  0  0  0  2  0  0  0  0  0  0
  1  3  2  0  0  0  0
  2  5  1  0  0  0  0
  2  1  1  0  0  0  0
  3 19  1  0  0  0  0
  4  3  1  0  0  0  0
  5  4  1  1  0  0  0
  6  7  1  0  0  0  0
  6  8  1  0  0  0  0
  6  9  1  1  0  0  0
  7  8  1  1  0  0  0
  7  5  1  0  0  0  0
  9 10  1  0  0  0  0
 11  6  1  0  0  0  0
 12 13  1  0  0  0  0
 13 15  2  0  0  0  0
 14 17  1  0  0  0  0
 14 12  2  0  0  0  0
 15 11  1  0  0  0  0
 16 15  1  0  0  0  0
 17 16  2  0  0  0  0
 19 20  1  0  0  0  0
 19 18  2  0  0  0  0
 21 20  1  0  0  0  0
 23 24  1  0  0  0  0
 24 22  1  6  0  0  0
 24 21  1  0  0  0  0
 25  2  1  0  0  0  0
 26 25  1  0  0  0  0
 27 26  1  0  0  0  0
 28 27  1  0  0  0  0
 29 31  1  0  0  0  0
 31 30  1  0  0  0  0
 31 28  1  0  0  0  0
 32 31  1  0  0  0  0
 33 35  1  0  0  0  0
 33 34  1  0  0  0  0
 34 32  1  0  0  0  0
 35 34  1  0  0  0  0
M  END
>  <MODEL>
5

>  <REMARK>
 VINA RESULT:      -5.8      3.623      9.274
  Name = 
  15 active torsions:
  status: ('A' for Active; 'I' for Inactive)
    1  A    between atoms: C_4  and  C_22
    2  A    between atoms: C_4  and  N_28
    3  A    between atoms: C_5  and  C_11
    4  A    between atoms: C_5  and  C_23
    5  A    between atoms: N_9  and  C_23
    6  A    between atoms: C_10  and  C_14
    7  A    between atoms: C_10  and  N_20
    8  A    between atoms: C_11  and  C_19
    9  A    between atoms: C_13  and  C_19
   10  A    between atoms: C_13  and  O_29
   11  A    between atoms: C_14  and  C_25
   12  A    between atoms: C_15  and  O_29
   13  A    between atoms: C_17  and  C_35
   14  A    between atoms: N_20  and  C_31
   15  A    between atoms: C_24  and  N_28
                            x       y       z     vdW  Elec       q    Type
                         _______ _______ _______ _____ _____    ______ ____

>  <TORSDO>
F 15

$$$$
=
 OpenBabel11052409263D

 35 38  0  0  1  0  0  0  0  0999 V2000
  161.0130  210.7660  153.8750 N   0  0  0  0  0  0  0  0  0  0  0  0
  160.6900  210.9420  152.5310 N   0  0  0  0  0  0  0  0  0  0  0  0
  160.3170  211.4940  154.6770 C   0  0  0  0  0  0  0  0  0  0  0  0
  159.1080  212.5620  153.8930 S   0  0  0  0  0  0  0  0  0  0  0  0
  159.6240  211.8980  152.2650 C   0  0  1  0  0  3  0  0  0  0  0  0
  159.0770  213.6240  150.5280 C   0  0  2  0  0  0  0  0  0  0  0  0
  160.1430  213.0310  151.3810 C   0  0  1  0  0  3  0  0  0  0  0  0
  159.4930  214.2390  151.7190 O   0  0  0  0  0  0  0  0  0  0  0  0
  157.6020  213.2590  150.6220 C   0  0  0  0  0  2  0  0  0  0  0  0
  157.0980  212.9610  149.3610 O   0  0  0  0  0  1  0  0  0  0  0  0
  159.5120  214.4130  149.3820 N   0  0  0  0  0  2  0  0  0  0  0  0
  160.8230  212.5020  146.4620 C   0  0  0  0  0  3  0  0  0  0  0  0
  159.9610  212.9890  147.4510 C   0  0  0  0  0  3  0  0  0  0  0  0
  162.1380  212.9750  146.3880 C   0  0  0  0  0  3  0  0  0  0  0  0
  160.4080  213.9410  148.3730 C   0  0  0  0  0  0  0  0  0  0  0  0
  161.7230  214.4180  148.2870 C   0  0  0  0  0  3  0  0  0  0  0  0
  162.5850  213.9340  147.2990 C   0  0  0  0  0  3  0  0  0  0  0  0
  160.9450  212.4060  156.7670 O   0  0  0  0  0  0  0  0  0  0  0  0
  160.4900  211.4150  156.1350 C   0  0  0  0  0  0  0  0  0  0  0  0
  160.1960  210.1430  156.8600 C   0  0  0  0  0  2  0  0  0  0  0  0
  159.7830  209.1080  155.9280 N   0  0  0  0  0  2  0  0  0  0  0  0
  160.5270  206.9750  155.0530 C   0  0  0  0  0  1  0  0  0  0  0  0
  161.9040  208.3090  156.4560 O   0  0  0  0  0  1  0  0  0  0  0  0
  160.5810  207.9300  156.2280 C   0  0  1  0  0  3  0  0  0  0  0  0
  161.2960  210.1280  151.4910 C   0  0  0  0  0  2  0  0  0  0  0  0
  161.1380  208.6570  151.8340 C   0  0  0  0  0  2  0  0  0  0  0  0
  162.1160  207.8350  151.0200 C   0  0  0  0  0  2  0  0  0  0  0  0
  161.9010  208.0660  149.5340 C   0  0  0  0  0  2  0  0  0  0  0  0
  160.1260  206.7630  148.5700 F   0  0  0  0  0  0  0  0  0  0  0  0
  161.7890  205.7230  149.6350 F   0  0  0  0  0  0  0  0  0  0  0  0
  161.4980  206.7840  148.7990 C   0  0  0  0  0  0  0  0  0  0  0  0
  162.2540  206.6190  147.6170 O   0  0  0  0  0  0  0  0  0  0  0  0
  162.2170  205.5830  145.4720 C   0  0  0  0  0  2  0  0  0  0  0  0
  161.8330  205.4670  146.9300 C   0  0  0  0  0  3  0  0  0  0  0  0
  163.0500  204.7370  146.4060 C   0  0  0  0  0  2  0  0  0  0  0  0
  1  3  2  0  0  0  0
  2  1  1  0  0  0  0
  3 19  1  0  0  0  0
  4  3  1  0  0  0  0
  5  2  1  0  0  0  0
  5  4  1  1  0  0  0
  6  9  1  6  0  0  0
  6  7  1  0  0  0  0
  6  8  1  0  0  0  0
  7  8  1  1  0  0  0
  7  5  1  0  0  0  0
 10  9  1  0  0  0  0
 11  6  1  0  0  0  0
 12 13  1  0  0  0  0
 13 15  2  0  0  0  0
 14 12  2  0  0  0  0
 14 17  1  0  0  0  0
 15 11  1  0  0  0  0
 16 15  1  0  0  0  0
 17 16  2  0  0  0  0
 19 18  2  0  0  0  0
 19 20  1  0  0  0  0
 21 24  1  0  0  0  0
 21 20  1  0  0  0  0
 24 22  1  6  0  0  0
 24 23  1  0  0  0  0
 25 26  1  0  0  0  0
 25  2  1  0  0  0  0
 27 26  1  0  0  0  0
 28 27  1  0  0  0  0
 29 31  1  0  0  0  0
 31 28  1  0  0  0  0
 31 30  1  0  0  0  0
 32 31  1  0  0  0  0
 33 35  1  0  0  0  0
 33 34  1  0  0  0  0
 34 32  1  0  0  0  0
 35 34  1  0  0  0  0
M  END
>  <MODEL>
6

>  <REMARK>
 VINA RESULT:      -5.5      3.622      6.952
  Name = 
  15 active torsions:
  status: ('A' for Active; 'I' for Inactive)
    1  A    between atoms: C_4  and  C_22
    2  A    between atoms: C_4  and  N_28
    3  A    between atoms: C_5  and  C_11
    4  A    between atoms: C_5  and  C_23
    5  A    between atoms: N_9  and  C_23
    6  A    between atoms: C_10  and  C_14
    7  A    between atoms: C_10  and  N_20
    8  A    between atoms: C_11  and  C_19
    9  A    between atoms: C_13  and  C_19
   10  A    between atoms: C_13  and  O_29
   11  A    between atoms: C_14  and  C_25
   12  A    between atoms: C_15  and  O_29
   13  A    between atoms: C_17  and  C_35
   14  A    between atoms: N_20  and  C_31
   15  A    between atoms: C_24  and  N_28
                            x       y       z     vdW  Elec       q    Type
                         _______ _______ _______ _____ _____    ______ ____

>  <TORSDO>
F 15

$$$$
=
 OpenBabel11052409263D

 35 38  0  0  1  0  0  0  0  0999 V2000
  162.3320  210.2700  150.1610 N   0  0  0  0  0  0  0  0  0  0  0  0
  161.9770  208.9390  150.3700 N   0  0  0  0  0  0  0  0  0  0  0  0
  162.1400  210.6760  148.9540 C   0  0  0  0  0  0  0  0  0  0  0  0
  161.4730  209.4500  147.8280 S   0  0  0  0  0  0  0  0  0  0  0  0
  161.4430  208.2440  149.2080 C   0  0  1  0  0  3  0  0  0  0  0  0
  161.6560  206.0980  147.9250 C   0  0  2  0  0  0  0  0  0  0  0  0
  162.3200  207.0410  148.8670 C   0  0  1  0  0  3  0  0  0  0  0  0
  162.6060  207.0320  147.4840 O   0  0  0  0  0  0  0  0  0  0  0  0
  160.3180  206.3630  147.2490 C   0  0  0  0  0  2  0  0  0  0  0  0
  160.4320  206.1970  145.8730 O   0  0  0  0  0  1  0  0  0  0  0  0
  162.2060  204.7510  147.8420 N   0  0  0  0  0  2  0  0  0  0  0  0
  160.5850  202.4500  150.2860 C   0  0  0  0  0  3  0  0  0  0  0  0
  161.1940  203.5800  149.7300 C   0  0  0  0  0  3  0  0  0  0  0  0
  160.3480  201.3220  149.4920 C   0  0  0  0  0  3  0  0  0  0  0  0
  161.5740  203.5890  148.3840 C   0  0  0  0  0  0  0  0  0  0  0  0
  161.3240  202.4590  147.5910 C   0  0  0  0  0  3  0  0  0  0  0  0
  160.7150  201.3300  148.1450 C   0  0  0  0  0  3  0  0  0  0  0  0
  163.5740  212.3820  148.1650 O   0  0  0  0  0  0  0  0  0  0  0  0
  162.4190  212.0620  148.5540 C   0  0  0  0  0  0  0  0  0  0  0  0
  161.3590  213.1090  148.6740 C   0  0  0  0  0  2  0  0  0  0  0  0
  161.4840  214.0860  147.6070 N   0  0  0  0  0  2  0  0  0  0  0  0
  161.2970  213.1170  145.3940 C   0  0  0  0  0  1  0  0  0  0  0  0
  159.6590  212.7420  147.0750 O   0  0  0  0  0  1  0  0  0  0  0  0
  160.5400  213.7000  146.5700 C   0  0  1  0  0  3  0  0  0  0  0  0
  162.0240  208.3390  151.6940 C   0  0  0  0  0  2  0  0  0  0  0  0
  160.6570  208.4360  152.3490 C   0  0  0  0  0  2  0  0  0  0  0  0
  160.4390  209.8410  152.8700 C   0  0  0  0  0  2  0  0  0  0  0  0
  160.9730  209.9750  154.2870 C   0  0  0  0  0  2  0  0  0  0  0  0
  158.7090  210.7100  154.6130 F   0  0  0  0  0  0  0  0  0  0  0  0
  160.3230  211.5390  155.9110 F   0  0  0  0  0  0  0  0  0  0  0  0
  159.8860  210.3900  155.2820 C   0  0  0  0  0  0  0  0  0  0  0  0
  159.7020  209.4000  156.2730 O   0  0  0  0  0  0  0  0  0  0  0  0
  160.6060  207.4280  157.2570 C   0  0  0  0  0  2  0  0  0  0  0  0
  160.5520  208.3080  156.0290 C   0  0  0  0  0  3  0  0  0  0  0  0
  159.7400  207.0330  156.0840 C   0  0  0  0  0  2  0  0  0  0  0  0
  1  2  1  0  0  0  0
  2 25  1  0  0  0  0
  3  1  2  0  0  0  0
  4  3  1  0  0  0  0
  5  4  1  6  0  0  0
  5  2  1  0  0  0  0
  6  9  1  6  0  0  0
  6  7  1  0  0  0  0
  7  8  1  6  0  0  0
  7  5  1  0  0  0  0
  8  6  1  0  0  0  0
 10  9  1  0  0  0  0
 11  6  1  0  0  0  0
 11 15  1  0  0  0  0
 13 12  1  0  0  0  0
 14 12  2  0  0  0  0
 15 13  2  0  0  0  0
 16 17  2  0  0  0  0
 16 15  1  0  0  0  0
 17 14  1  0  0  0  0
 18 19  2  0  0  0  0
 19 20  1  0  0  0  0
 19  3  1  0  0  0  0
 21 20  1  0  0  0  0
 24 22  1  6  0  0  0
 24 23  1  0  0  0  0
 24 21  1  0  0  0  0
 25 26  1  0  0  0  0
 26 27  1  0  0  0  0
 27 28  1  0  0  0  0
 28 31  1  0  0  0  0
 29 31  1  0  0  0  0
 31 30  1  0  0  0  0
 31 32  1  0  0  0  0
 34 35  1  0  0  0  0
 34 32  1  0  0  0  0
 34 33  1  0  0  0  0
 35 33  1  0  0  0  0
M  END
>  <MODEL>
7

>  <REMARK>
 VINA RESULT:      -5.4      3.469      8.561
  Name = 
  15 active torsions:
  status: ('A' for Active; 'I' for Inactive)
    1  A    between atoms: C_4  and  C_22
    2  A    between atoms: C_4  and  N_28
    3  A    between atoms: C_5  and  C_11
    4  A    between atoms: C_5  and  C_23
    5  A    between atoms: N_9  and  C_23
    6  A    between atoms: C_10  and  C_14
    7  A    between atoms: C_10  and  N_20
    8  A    between atoms: C_11  and  C_19
    9  A    between atoms: C_13  and  C_19
   10  A    between atoms: C_13  and  O_29
   11  A    between atoms: C_14  and  C_25
   12  A    between atoms: C_15  and  O_29
   13  A    between atoms: C_17  and  C_35
   14  A    between atoms: N_20  and  C_31
   15  A    between atoms: C_24  and  N_28
                            x       y       z     vdW  Elec       q    Type
                         _______ _______ _______ _____ _____    ______ ____

>  <TORSDO>
F 15

$$$$
=
 OpenBabel11052409263D

 35 38  0  0  1  0  0  0  0  0999 V2000
  161.7060  210.1120  153.3970 N   0  0  0  0  0  0  0  0  0  0  0  0
  161.1430  210.5420  152.1970 N   0  0  0  0  0  0  0  0  0  0  0  0
  161.1950  210.6670  154.4400 C   0  0  0  0  0  0  0  0  0  0  0  0
  159.8940  211.8580  154.1170 S   0  0  0  0  0  0  0  0  0  0  0  0
  160.0760  211.5230  152.3240 C   0  0  1  0  0  3  0  0  0  0  0  0
  159.3610  213.3110  150.7150 C   0  0  2  0  0  0  0  0  0  0  0  0
  160.4540  212.8090  151.5910 C   0  0  1  0  0  3  0  0  0  0  0  0
  159.5960  213.8580  151.9860 O   0  0  0  0  0  0  0  0  0  0  0  0
  157.9630  212.7120  150.6620 C   0  0  0  0  0  2  0  0  0  0  0  0
  157.0920  213.5770  150.0090 O   0  0  0  0  0  1  0  0  0  0  0  0
  159.7290  214.2720  149.6830 N   0  0  0  0  0  2  0  0  0  0  0  0
  160.3690  212.7050  146.3630 C   0  0  0  0  0  3  0  0  0  0  0  0
  159.7450  213.0660  147.5620 C   0  0  0  0  0  3  0  0  0  0  0  0
  161.6360  213.2130  146.0540 C   0  0  0  0  0  3  0  0  0  0  0  0
  160.3820  213.9290  148.4590 C   0  0  0  0  0  0  0  0  0  0  0  0
  161.6460  214.4430  148.1390 C   0  0  0  0  0  3  0  0  0  0  0  0
  162.2710  214.0840  146.9410 C   0  0  0  0  0  3  0  0  0  0  0  0
  162.7530  210.7090  156.2180 O   0  0  0  0  0  0  0  0  0  0  0  0
  161.6350  210.3100  155.7960 C   0  0  0  0  0  0  0  0  0  0  0  0
  160.7930  209.4190  156.6510 C   0  0  0  0  0  2  0  0  0  0  0  0
  159.7120  208.8390  155.8730 N   0  0  0  0  0  2  0  0  0  0  0  0
  160.5860  206.9390  154.6500 C   0  0  0  0  0  1  0  0  0  0  0  0
  160.6700  207.0550  157.0220 O   0  0  0  0  0  1  0  0  0  0  0  0
  159.8910  207.3960  155.9160 C   0  0  1  0  0  3  0  0  0  0  0  0
  161.5190  209.9470  150.9250 C   0  0  0  0  0  2  0  0  0  0  0  0
  162.1900  208.6060  151.1650 C   0  0  0  0  0  2  0  0  0  0  0  0
  161.1540  207.5020  151.1270 C   0  0  0  0  0  2  0  0  0  0  0  0
  161.5780  206.4040  150.1640 C   0  0  0  0  0  2  0  0  0  0  0  0
  160.1390  204.9630  151.4390 F   0  0  0  0  0  0  0  0  0  0  0  0
  162.3520  204.7540  151.6430 F   0  0  0  0  0  0  0  0  0  0  0  0
  161.3390  205.0040  150.7370 C   0  0  0  0  0  0  0  0  0  0  0  0
  161.4170  204.0230  149.7240 O   0  0  0  0  0  0  0  0  0  0  0  0
  160.4480  202.0630  148.7760 C   0  0  0  0  0  2  0  0  0  0  0  0
  160.4540  203.0230  149.9450 C   0  0  0  0  0  3  0  0  0  0  0  0
  161.1530  201.6860  150.0580 C   0  0  0  0  0  2  0  0  0  0  0  0
  1  3  2  0  0  0  0
  2  5  1  0  0  0  0
  2  1  1  0  0  0  0
  3 19  1  0  0  0  0
  4  3  1  0  0  0  0
  5  4  1  1  0  0  0
  6  9  1  6  0  0  0
  6  7  1  0  0  0  0
  6  8  1  0  0  0  0
  7  8  1  1  0  0  0
  7  5  1  0  0  0  0
 10  9  1  0  0  0  0
 11  6  1  0  0  0  0
 12 13  1  0  0  0  0
 13 15  2  0  0  0  0
 14 12  2  0  0  0  0
 14 17  1  0  0  0  0
 15 11  1  0  0  0  0
 16 15  1  0  0  0  0
 17 16  2  0  0  0  0
 19 18  2  0  0  0  0
 19 20  1  0  0  0  0
 21 24  1  0  0  0  0
 21 20  1  0  0  0  0
 24 22  1  6  0  0  0
 24 23  1  0  0  0  0
 25 26  1  0  0  0  0
 25  2  1  0  0  0  0
 27 26  1  0  0  0  0
 28 31  1  0  0  0  0
 28 27  1  0  0  0  0
 31 29  1  0  0  0  0
 31 30  1  0  0  0  0
 32 34  1  0  0  0  0
 32 31  1  0  0  0  0
 33 34  1  0  0  0  0
 33 35  1  0  0  0  0
 34 35  1  0  0  0  0
M  END
>  <MODEL>
8

>  <REMARK>
 VINA RESULT:      -5.4      3.575      6.547
  Name = 
  15 active torsions:
  status: ('A' for Active; 'I' for Inactive)
    1  A    between atoms: C_4  and  C_22
    2  A    between atoms: C_4  and  N_28
    3  A    between atoms: C_5  and  C_11
    4  A    between atoms: C_5  and  C_23
    5  A    between atoms: N_9  and  C_23
    6  A    between atoms: C_10  and  C_14
    7  A    between atoms: C_10  and  N_20
    8  A    between atoms: C_11  and  C_19
    9  A    between atoms: C_13  and  C_19
   10  A    between atoms: C_13  and  O_29
   11  A    between atoms: C_14  and  C_25
   12  A    between atoms: C_15  and  O_29
   13  A    between atoms: C_17  and  C_35
   14  A    between atoms: N_20  and  C_31
   15  A    between atoms: C_24  and  N_28
                            x       y       z     vdW  Elec       q    Type
                         _______ _______ _______ _____ _____    ______ ____

>  <TORSDO>
F 15

$$$$
=
 OpenBabel11052409263D

 35 38  0  0  1  0  0  0  0  0999 V2000
  162.3330  210.0690  150.0450 N   0  0  0  0  0  0  0  0  0  0  0  0
  161.9660  208.7400  150.2500 N   0  0  0  0  0  0  0  0  0  0  0  0
  162.0880  210.4980  148.8560 C   0  0  0  0  0  0  0  0  0  0  0  0
  161.3480  209.3020  147.7440 S   0  0  0  0  0  0  0  0  0  0  0  0
  161.3660  208.0730  149.1040 C   0  0  1  0  0  3  0  0  0  0  0  0
  161.4690  205.9300  147.8030 C   0  0  2  0  0  0  0  0  0  0  0  0
  162.2050  206.8630  148.7000 C   0  0  1  0  0  3  0  0  0  0  0  0
  162.3970  206.8560  147.3010 O   0  0  0  0  0  0  0  0  0  0  0  0
  160.0910  206.2110  147.2200 C   0  0  0  0  0  2  0  0  0  0  0  0
  160.1520  206.2340  145.8310 O   0  0  0  0  0  1  0  0  0  0  0  0
  161.9980  204.5780  147.6790 N   0  0  0  0  0  2  0  0  0  0  0  0
  160.8920  201.1080  148.4730 C   0  0  0  0  0  3  0  0  0  0  0  0
  161.3730  202.2200  147.7740 C   0  0  0  0  0  3  0  0  0  0  0  0
  160.5570  201.2260  149.8270 C   0  0  0  0  0  3  0  0  0  0  0  0
  161.5170  203.4530  148.4190 C   0  0  0  0  0  0  0  0  0  0  0  0
  161.1900  203.5620  149.7780 C   0  0  0  0  0  3  0  0  0  0  0  0
  160.7100  202.4510  150.4780 C   0  0  0  0  0  3  0  0  0  0  0  0
  163.5570  212.2480  148.2480 O   0  0  0  0  0  0  0  0  0  0  0  0
  162.3700  211.8870  148.4660 C   0  0  0  0  0  0  0  0  0  0  0  0
  161.2640  212.8890  148.3970 C   0  0  0  0  0  2  0  0  0  0  0  0
  161.6120  213.9700  147.4910 N   0  0  0  0  0  2  0  0  0  0  0  0
  161.7840  213.2850  145.1740 C   0  0  0  0  0  1  0  0  0  0  0  0
  159.8720  212.7880  146.4940 O   0  0  0  0  0  1  0  0  0  0  0  0
  160.8510  213.7570  146.2710 C   0  0  1  0  0  3  0  0  0  0  0  0
  162.0680  208.1170  151.5590 C   0  0  0  0  0  2  0  0  0  0  0  0
  160.8320  207.2740  151.8230 C   0  0  0  0  0  2  0  0  0  0  0  0
  160.8870  206.7130  153.2290 C   0  0  0  0  0  2  0  0  0  0  0  0
  161.5130  207.7180  154.1820 C   0  0  0  0  0  2  0  0  0  0  0  0
  161.4140  207.9200  156.5740 F   0  0  0  0  0  0  0  0  0  0  0  0
  159.7310  206.9320  155.4920 F   0  0  0  0  0  0  0  0  0  0  0  0
  160.6430  207.9680  155.4180 C   0  0  0  0  0  0  0  0  0  0  0  0
  159.9160  209.1730  155.2900 O   0  0  0  0  0  0  0  0  0  0  0  0
  159.6370  211.0310  153.8260 C   0  0  0  0  0  2  0  0  0  0  0  0
  160.6150  210.0730  154.4680 C   0  0  0  0  0  3  0  0  0  0  0  0
  160.4490  211.4710  155.0210 C   0  0  0  0  0  2  0  0  0  0  0  0
  1  2  1  0  0  0  0
  2 25  1  0  0  0  0
  3  1  2  0  0  0  0
  4  3  1  0  0  0  0
  5  4  1  6  0  0  0
  5  2  1  0  0  0  0
  6  9  1  6  0  0  0
  6  7  1  0  0  0  0
  7  8  1  6  0  0  0
  7  5  1  0  0  0  0
  8  6  1  0  0  0  0
 10  9  1  0  0  0  0
 11  6  1  0  0  0  0
 11 15  1  0  0  0  0
 12 14  1  0  0  0  0
 13 15  1  0  0  0  0
 13 12  2  0  0  0  0
 14 17  2  0  0  0  0
 15 16  2  0  0  0  0
 16 17  1  0  0  0  0
 18 19  2  0  0  0  0
 19  3  1  0  0  0  0
 20 19  1  0  0  0  0
 21 20  1  0  0  0  0
 24 22  1  6  0  0  0
 24 23  1  0  0  0  0
 24 21  1  0  0  0  0
 25 26  1  0  0  0  0
 26 27  1  0  0  0  0
 27 28  1  0  0  0  0
 28 31  1  0  0  0  0
 31 30  1  0  0  0  0
 31 29  1  0  0  0  0
 32 31  1  0  0  0  0
 33 34  1  0  0  0  0
 33 35  1  0  0  0  0
 34 35  1  0  0  0  0
 34 32  1  0  0  0  0
M  END
>  <MODEL>
9

>  <REMARK>
 VINA RESULT:      -5.4      3.173      8.402
  Name = 
  15 active torsions:
  status: ('A' for Active; 'I' for Inactive)
    1  A    between atoms: C_4  and  C_22
    2  A    between atoms: C_4  and  N_28
    3  A    between atoms: C_5  and  C_11
    4  A    between atoms: C_5  and  C_23
    5  A    between atoms: N_9  and  C_23
    6  A    between atoms: C_10  and  C_14
    7  A    between atoms: C_10  and  N_20
    8  A    between atoms: C_11  and  C_19
    9  A    between atoms: C_13  and  C_19
   10  A    between atoms: C_13  and  O_29
   11  A    between atoms: C_14  and  C_25
   12  A    between atoms: C_15  and  O_29
   13  A    between atoms: C_17  and  C_35
   14  A    between atoms: N_20  and  C_31
   15  A    between atoms: C_24  and  N_28
                            x       y       z     vdW  Elec       q    Type
                         _______ _______ _______ _____ _____    ______ ____

>  <TORSDO>
F 15

$$$$
