=
 OpenBabel11052409553D

 29 33  0  0  1  0  0  0  0  0999 V2000
  160.7090  203.7550  149.5790 C   0  0  0  0  0  0  0  0  0  0  0  0
  161.0840  203.6780  150.9490 C   0  0  0  0  0  0  0  0  0  0  0  0
  162.0940  208.8610  149.6320 C   0  0  0  0  0  3  0  0  0  0  0  0
  160.9420  207.0600  152.4430 O   0  0  0  0  0  0  0  0  0  0  0  0
  161.5510  201.3250  150.6500 C   0  0  0  0  0  3  0  0  0  0  0  0
  161.5420  207.9980  150.4820 C   0  0  0  0  0  0  0  0  0  0  0  0
  160.4780  206.1660  149.2240 C   0  0  0  0  0  3  0  0  0  0  0  0
  160.1640  204.9340  148.9600 N   0  0  0  0  0  0  0  0  0  0  0  0
  161.9190  211.0640  150.8330 C   0  0  0  0  0  3  0  0  0  0  0  0
  161.0990  210.7040  151.9950 C   0  0  0  0  0  3  0  0  0  0  0  0
  162.3320  210.2910  149.8330 C   0  0  0  0  0  3  0  0  0  0  0  0
  161.5360  206.5250  150.2080 C   0  0  2  0  0  3  0  0  0  0  0  0
  160.9730  204.7790  151.8640 N   0  0  0  0  0  0  0  0  0  0  0  0
  160.7100  209.5040  152.4220 C   0  0  0  0  0  0  0  0  0  0  0  0
  161.1420  208.2690  151.8270 N   0  0  0  0  0  0  0  0  0  0  0  0
  160.7630  202.5900  148.8070 C   0  0  0  0  0  3  0  0  0  0  0  0
  161.4940  202.4480  151.4720 C   0  0  0  0  0  3  0  0  0  0  0  0
  161.1380  206.0240  151.5500 C   0  0  0  0  0  0  0  0  0  0  0  0
  161.1880  201.4170  149.3450 N   0  0  0  0  0  0  0  0  0  0  0  0
  159.8990  209.4780  153.6020 N   0  0  0  0  0  2  0  0  0  0  0  0
  158.9190  212.4950  155.4000 N   0  0  0  0  0  0  0  0  0  0  0  0
  158.7020  211.5870  154.4980 C   0  0  0  0  0  3  0  0  0  0  0  0
  160.6590  212.7790  156.9770 O   0  0  0  0  0  0  0  0  0  0  0  0
  160.1310  212.1230  156.0410 C   0  0  0  0  0  0  0  0  0  0  0  0
  159.7670  210.5700  154.5190 C   0  0  0  0  0  0  0  0  0  0  0  0
  160.6500  210.9050  155.4520 C   0  0  0  0  0  0  0  0  0  0  0  0
  163.0580  210.7630  155.4090 O   0  0  0  0  0  1  0  0  0  0  0  0
  161.8910  209.0130  156.5860 C   0  0  0  0  0  1  0  0  0  0  0  0
  161.8740  210.2360  155.7990 N   0  0  0  0  0  0  0  0  0  0  0  0
  1  2  1  0  0  0  0
  2 17  2  0  0  0  0
  2 13  1  0  0  0  0
  3 11  1  0  0  0  0
  3  6  2  0  0  0  0
  5 17  1  0  0  0  0
  6 15  1  0  0  0  0
  8  7  2  0  0  0  0
  8  1  1  0  0  0  0
  9 10  1  0  0  0  0
 10 14  2  0  0  0  0
 11  9  2  0  0  0  0
 12  7  1  6  0  0  0
 12  6  1  0  0  0  0
 12 18  1  0  0  0  0
 14 20  1  0  0  0  0
 15 14  1  0  0  0  0
 15  4  1  0  0  0  0
 16 19  1  0  0  0  0
 16  1  2  0  0  0  0
 18 13  2  0  0  0  0
 18  4  1  0  0  0  0
 19  5  2  0  0  0  0
 20 25  1  0  0  0  0
 21 24  1  0  0  0  0
 22 25  1  0  0  0  0
 22 21  2  0  0  0  0
 24 23  2  0  0  0  0
 25 26  2  0  0  0  0
 26 29  1  0  0  0  0
 26 24  1  0  0  0  0
 27 29  1  0  0  0  0
 29 28  1  0  0  0  0
M  END
>  <MODEL>
1

>  <REMARK>
 VINA RESULT:      -6.6      0.000      0.000
  Name = 
  3 active torsions:
  status: ('A' for Active; 'I' for Inactive)
    1  A    between atoms: N_8  and  C_29
    2  A    between atoms: N_13  and  C_22
    3  A    between atoms: N_13  and  C_23
                            x       y       z     vdW  Elec       q    Type
                         _______ _______ _______ _____ _____    ______ ____

>  <TORSDO>
F 3

$$$$
=
 OpenBabel11052409553D

 29 33  0  0  1  0  0  0  0  0999 V2000
  161.3250  212.3970  149.5630 C   0  0  0  0  0  0  0  0  0  0  0  0
  162.1370  211.6790  148.6430 C   0  0  0  0  0  0  0  0  0  0  0  0
  161.6870  208.2860  152.8740 C   0  0  0  0  0  3  0  0  0  0  0  0
  161.8760  208.0570  149.3550 O   0  0  0  0  0  0  0  0  0  0  0  0
  162.9040  213.7840  147.7360 C   0  0  0  0  0  3  0  0  0  0  0  0
  161.6140  208.4660  151.5580 C   0  0  0  0  0  0  0  0  0  0  0  0
  160.5510  210.6370  151.0780 C   0  0  0  0  0  3  0  0  0  0  0  0
  160.4000  211.7760  150.4740 N   0  0  0  0  0  0  0  0  0  0  0  0
  161.5160  205.7910  153.1380 C   0  0  0  0  0  3  0  0  0  0  0  0
  161.2050  205.3690  151.7680 C   0  0  0  0  0  3  0  0  0  0  0  0
  161.7100  207.0200  153.6080 C   0  0  0  0  0  3  0  0  0  0  0  0
  161.7890  209.8210  150.9420 C   0  0  2  0  0  3  0  0  0  0  0  0
  162.1340  210.2470  148.5330 N   0  0  0  0  0  0  0  0  0  0  0  0
  161.2060  206.0750  150.6390 C   0  0  0  0  0  0  0  0  0  0  0  0
  161.6360  207.4440  150.5580 N   0  0  0  0  0  0  0  0  0  0  0  0
  161.3350  213.7950  149.5120 C   0  0  0  0  0  3  0  0  0  0  0  0
  162.9150  212.3910  147.7260 C   0  0  0  0  0  3  0  0  0  0  0  0
  161.9540  209.4270  149.5180 C   0  0  0  0  0  0  0  0  0  0  0  0
  162.1220  214.4530  148.6200 N   0  0  0  0  0  0  0  0  0  0  0  0
  160.8480  205.3720  149.4450 N   0  0  0  0  0  2  0  0  0  0  0  0
  160.6420  201.7710  149.9820 N   0  0  0  0  0  0  0  0  0  0  0  0
  160.4690  202.9930  150.3840 C   0  0  0  0  0  3  0  0  0  0  0  0
  161.4130  200.8700  147.9350 O   0  0  0  0  0  0  0  0  0  0  0  0
  161.1270  201.8670  148.6500 C   0  0  0  0  0  0  0  0  0  0  0  0
  160.8270  203.9460  149.3200 C   0  0  0  0  0  0  0  0  0  0  0  0
  161.2450  203.2580  148.2640 C   0  0  0  0  0  0  0  0  0  0  0  0
  162.7320  204.6800  147.0040 O   0  0  0  0  0  1  0  0  0  0  0  0
  161.2170  203.3010  145.7330 C   0  0  0  0  0  1  0  0  0  0  0  0
  161.7360  203.7630  147.0110 N   0  0  0  0  0  0  0  0  0  0  0  0
  1  8  1  0  0  0  0
  2  1  2  0  0  0  0
  3 11  1  0  0  0  0
  4 18  1  0  0  0  0
  4 15  1  0  0  0  0
  5 19  1  0  0  0  0
  6  3  2  0  0  0  0
  8  7  2  0  0  0  0
  9 11  2  0  0  0  0
 10  9  1  0  0  0  0
 12  7  1  6  0  0  0
 12  6  1  0  0  0  0
 13  2  1  0  0  0  0
 13 18  2  0  0  0  0
 14 10  2  0  0  0  0
 15 14  1  0  0  0  0
 15  6  1  0  0  0  0
 16  1  1  0  0  0  0
 17  5  2  0  0  0  0
 17  2  1  0  0  0  0
 18 12  1  0  0  0  0
 19 16  2  0  0  0  0
 20 14  1  0  0  0  0
 21 22  2  0  0  0  0
 23 24  2  0  0  0  0
 24 21  1  0  0  0  0
 25 20  1  0  0  0  0
 25 22  1  0  0  0  0
 26 24  1  0  0  0  0
 26 25  2  0  0  0  0
 27 29  1  0  0  0  0
 28 29  1  0  0  0  0
 29 26  1  0  0  0  0
M  END
>  <MODEL>
2

>  <REMARK>
 VINA RESULT:      -6.6      3.355      8.743
  Name = 
  3 active torsions:
  status: ('A' for Active; 'I' for Inactive)
    1  A    between atoms: N_8  and  C_29
    2  A    between atoms: N_13  and  C_22
    3  A    between atoms: N_13  and  C_23
                            x       y       z     vdW  Elec       q    Type
                         _______ _______ _______ _____ _____    ______ ____

>  <TORSDO>
F 3

$$$$
=
 OpenBabel11052409553D

 29 33  0  0  1  0  0  0  0  0999 V2000
  160.9720  213.4060  145.0360 C   0  0  0  0  0  0  0  0  0  0  0  0
  162.3260  213.1790  145.4040 C   0  0  0  0  0  0  0  0  0  0  0  0
  159.7320  213.4510  150.1790 C   0  0  0  0  0  3  0  0  0  0  0  0
  162.4370  211.6660  148.7780 O   0  0  0  0  0  0  0  0  0  0  0  0
  163.0230  214.2470  143.3490 C   0  0  0  0  0  3  0  0  0  0  0  0
  160.5910  212.8040  149.3960 C   0  0  0  0  0  0  0  0  0  0  0  0
  159.7580  212.8090  147.0760 C   0  0  0  0  0  3  0  0  0  0  0  0
  159.8430  212.9210  145.7860 N   0  0  0  0  0  0  0  0  0  0  0  0
  159.9760  212.2970  152.4000 C   0  0  0  0  0  3  0  0  0  0  0  0
  160.8490  211.1710  152.0540 C   0  0  0  0  0  3  0  0  0  0  0  0
  159.4970  213.2530  151.6100 C   0  0  0  0  0  3  0  0  0  0  0  0
  160.8520  213.2460  147.9880 C   0  0  2  0  0  3  0  0  0  0  0  0
  162.7180  212.4500  146.5770 N   0  0  0  0  0  0  0  0  0  0  0  0
  161.5060  210.9190  150.9230 C   0  0  0  0  0  0  0  0  0  0  0  0
  161.5480  211.8270  149.8100 N   0  0  0  0  0  0  0  0  0  0  0  0
  160.7080  214.0400  143.8170 C   0  0  0  0  0  3  0  0  0  0  0  0
  163.3430  213.5980  144.5400 C   0  0  0  0  0  3  0  0  0  0  0  0
  162.0710  212.4460  147.6980 C   0  0  0  0  0  0  0  0  0  0  0  0
  161.7240  214.4530  143.0140 N   0  0  0  0  0  0  0  0  0  0  0  0
  162.2840  209.7180  150.8900 N   0  0  0  0  0  2  0  0  0  0  0  0
  161.3210  207.1610  148.4750 N   0  0  0  0  0  0  0  0  0  0  0  0
  161.8010  208.3320  148.7610 C   0  0  0  0  0  3  0  0  0  0  0  0
  160.5890  205.3720  149.8380 O   0  0  0  0  0  0  0  0  0  0  0  0
  161.0660  206.5320  149.7230 C   0  0  0  0  0  0  0  0  0  0  0  0
  161.8900  208.5160  150.2190 C   0  0  0  0  0  0  0  0  0  0  0  0
  161.4260  207.4200  150.8090 C   0  0  0  0  0  0  0  0  0  0  0  0
  160.4560  207.9420  152.9550 O   0  0  0  0  0  1  0  0  0  0  0  0
  161.9640  206.0630  152.8770 C   0  0  0  0  0  1  0  0  0  0  0  0
  161.2780  207.1620  152.2150 N   0  0  0  0  0  0  0  0  0  0  0  0
  1  2  1  0  0  0  0
  1  8  1  0  0  0  0
  2 13  1  0  0  0  0
  3 11  1  0  0  0  0
  4 15  1  0  0  0  0
  5 17  1  0  0  0  0
  6 15  1  0  0  0  0
  6  3  2  0  0  0  0
  8  7  2  0  0  0  0
 10  9  1  0  0  0  0
 11  9  2  0  0  0  0
 12  7  1  6  0  0  0
 12  6  1  0  0  0  0
 13 18  2  0  0  0  0
 14 10  2  0  0  0  0
 15 14  1  0  0  0  0
 16  1  2  0  0  0  0
 17  2  2  0  0  0  0
 18 12  1  0  0  0  0
 18  4  1  0  0  0  0
 19  5  2  0  0  0  0
 19 16  1  0  0  0  0
 20 14  1  0  0  0  0
 21 22  2  0  0  0  0
 21 24  1  0  0  0  0
 22 25  1  0  0  0  0
 24 23  2  0  0  0  0
 24 26  1  0  0  0  0
 25 26  2  0  0  0  0
 25 20  1  0  0  0  0
 26 29  1  0  0  0  0
 29 28  1  0  0  0  0
 29 27  1  0  0  0  0
M  END
>  <MODEL>
3

>  <REMARK>
 VINA RESULT:      -6.6      4.527      8.124
  Name = 
  3 active torsions:
  status: ('A' for Active; 'I' for Inactive)
    1  A    between atoms: N_8  and  C_29
    2  A    between atoms: N_13  and  C_22
    3  A    between atoms: N_13  and  C_23
                            x       y       z     vdW  Elec       q    Type
                         _______ _______ _______ _____ _____    ______ ____

>  <TORSDO>
F 3

$$$$
=
 OpenBabel11052409553D

 29 33  0  0  1  0  0  0  0  0999 V2000
  160.6870  203.7270  149.5190 C   0  0  0  0  0  0  0  0  0  0  0  0
  161.1280  203.7550  150.8710 C   0  0  0  0  0  0  0  0  0  0  0  0
  162.1180  208.8030  149.0970 C   0  0  0  0  0  3  0  0  0  0  0  0
  161.0870  207.2470  152.0950 O   0  0  0  0  0  0  0  0  0  0  0  0
  161.5600  201.3800  150.7400 C   0  0  0  0  0  3  0  0  0  0  0  0
  161.6000  208.0180  150.0380 C   0  0  0  0  0  0  0  0  0  0  0  0
  160.4600  206.1040  148.9830 C   0  0  0  0  0  3  0  0  0  0  0  0
  160.1240  204.8600  148.8340 N   0  0  0  0  0  0  0  0  0  0  0  0
  162.0200  211.0960  150.1240 C   0  0  0  0  0  3  0  0  0  0  0  0
  161.2540  210.8400  151.3480 C   0  0  0  0  0  3  0  0  0  0  0  0
  162.3770  210.2420  149.1700 C   0  0  0  0  0  3  0  0  0  0  0  0
  161.5680  206.5270  149.8840 C   0  0  2  0  0  3  0  0  0  0  0  0
  161.0710  204.9270  151.6990 N   0  0  0  0  0  0  0  0  0  0  0  0
  160.8760  209.6840  151.8890 C   0  0  0  0  0  0  0  0  0  0  0  0
  161.2670  208.4000  151.3750 N   0  0  0  0  0  0  0  0  0  0  0  0
  160.6940  202.5030  148.8410 C   0  0  0  0  0  3  0  0  0  0  0  0
  161.5510  202.5660  151.4710 C   0  0  0  0  0  3  0  0  0  0  0  0
  161.2310  206.1410  151.2790 C   0  0  0  0  0  0  0  0  0  0  0  0
  161.1350  201.3720  149.4510 N   0  0  0  0  0  0  0  0  0  0  0  0
  160.1230  209.7620  153.1040 N   0  0  0  0  0  2  0  0  0  0  0  0
  161.3360  211.5680  156.0300 N   0  0  0  0  0  0  0  0  0  0  0  0
  161.4370  210.6070  155.1640 C   0  0  0  0  0  3  0  0  0  0  0  0
  159.7940  213.3470  156.2510 O   0  0  0  0  0  0  0  0  0  0  0  0
  160.2020  212.3280  155.6350 C   0  0  0  0  0  0  0  0  0  0  0  0
  160.3720  210.7050  154.1520 C   0  0  0  0  0  0  0  0  0  0  0  0
  159.6060  211.7490  154.4490 C   0  0  0  0  0  0  0  0  0  0  0  0
  157.2100  211.7550  154.1660 O   0  0  0  0  0  1  0  0  0  0  0  0
  158.4800  213.1660  152.6800 C   0  0  0  0  0  1  0  0  0  0  0  0
  158.4240  212.2050  153.7710 N   0  0  0  0  0  0  0  0  0  0  0  0
  1  2  1  0  0  0  0
  2 17  2  0  0  0  0
  2 13  1  0  0  0  0
  3 11  1  0  0  0  0
  3  6  2  0  0  0  0
  5 17  1  0  0  0  0
  6 15  1  0  0  0  0
  8  7  2  0  0  0  0
  8  1  1  0  0  0  0
  9 10  1  0  0  0  0
 10 14  2  0  0  0  0
 11  9  2  0  0  0  0
 12  7  1  6  0  0  0
 12  6  1  0  0  0  0
 12 18  1  0  0  0  0
 14 20  1  0  0  0  0
 15 14  1  0  0  0  0
 15  4  1  0  0  0  0
 16 19  1  0  0  0  0
 16  1  2  0  0  0  0
 18 13  2  0  0  0  0
 18  4  1  0  0  0  0
 19  5  2  0  0  0  0
 20 25  1  0  0  0  0
 22 21  2  0  0  0  0
 24 21  1  0  0  0  0
 24 23  2  0  0  0  0
 25 26  2  0  0  0  0
 25 22  1  0  0  0  0
 26 24  1  0  0  0  0
 28 29  1  0  0  0  0
 29 27  1  0  0  0  0
 29 26  1  0  0  0  0
M  END
>  <MODEL>
4

>  <REMARK>
 VINA RESULT:      -6.5      1.163      2.079
  Name = 
  3 active torsions:
  status: ('A' for Active; 'I' for Inactive)
    1  A    between atoms: N_8  and  C_29
    2  A    between atoms: N_13  and  C_22
    3  A    between atoms: N_13  and  C_23
                            x       y       z     vdW  Elec       q    Type
                         _______ _______ _______ _____ _____    ______ ____

>  <TORSDO>
F 3

$$$$
=
 OpenBabel11052409553D

 29 33  0  0  1  0  0  0  0  0999 V2000
  161.5600  204.6900  146.7470 C   0  0  0  0  0  0  0  0  0  0  0  0
  160.8230  205.9040  146.6740 C   0  0  0  0  0  0  0  0  0  0  0  0
  160.9170  204.7820  151.9980 C   0  0  0  0  0  3  0  0  0  0  0  0
  161.0140  207.6450  149.9330 O   0  0  0  0  0  0  0  0  0  0  0  0
  160.1380  205.3090  144.4330 C   0  0  0  0  0  3  0  0  0  0  0  0
  161.0980  205.6760  151.0290 C   0  0  0  0  0  0  0  0  0  0  0  0
  162.2030  204.5980  149.1070 C   0  0  0  0  0  3  0  0  0  0  0  0
  162.4060  204.3290  147.8540 N   0  0  0  0  0  0  0  0  0  0  0  0
  161.0590  206.1570  154.0990 C   0  0  0  0  0  3  0  0  0  0  0  0
  161.4790  207.4600  153.5730 C   0  0  0  0  0  3  0  0  0  0  0  0
  160.8310  205.0250  153.4390 C   0  0  0  0  0  3  0  0  0  0  0  0
  160.9770  205.2980  149.5830 C   0  0  2  0  0  3  0  0  0  0  0  0
  160.8310  206.9000  147.7080 N   0  0  0  0  0  0  0  0  0  0  0  0
  161.5730  207.8780  152.3120 C   0  0  0  0  0  0  0  0  0  0  0  0
  161.1540  207.0960  151.1820 N   0  0  0  0  0  0  0  0  0  0  0  0
  161.5580  203.8410  145.6360 C   0  0  0  0  0  3  0  0  0  0  0  0
  160.1240  206.2040  145.5010 C   0  0  0  0  0  3  0  0  0  0  0  0
  160.9270  206.6540  148.9760 C   0  0  0  0  0  0  0  0  0  0  0  0
  160.8490  204.1560  144.5200 N   0  0  0  0  0  0  0  0  0  0  0  0
  162.0240  209.2230  152.1170 N   0  0  0  0  0  2  0  0  0  0  0  0
  160.0830  212.2610  151.5730 N   0  0  0  0  0  0  0  0  0  0  0  0
  160.7420  211.2370  151.1250 C   0  0  0  0  0  3  0  0  0  0  0  0
  159.5280  212.9530  153.7650 O   0  0  0  0  0  0  0  0  0  0  0  0
  160.0800  212.1310  152.9870 C   0  0  0  0  0  0  0  0  0  0  0  0
  161.1930  210.3820  152.2360 C   0  0  0  0  0  0  0  0  0  0  0  0
  160.8020  210.9370  153.3780 C   0  0  0  0  0  0  0  0  0  0  0  0
  160.0860  209.8150  155.3900 O   0  0  0  0  0  1  0  0  0  0  0  0
  162.3310  210.6940  155.3800 C   0  0  0  0  0  1  0  0  0  0  0  0
  161.0520  210.4830  154.7180 N   0  0  0  0  0  0  0  0  0  0  0  0
  1  8  1  0  0  0  0
  2  1  1  0  0  0  0
  2 13  1  0  0  0  0
  3 11  1  0  0  0  0
  4 15  1  0  0  0  0
  5 19  2  0  0  0  0
  5 17  1  0  0  0  0
  6 15  1  0  0  0  0
  6  3  2  0  0  0  0
  8  7  2  0  0  0  0
 10  9  1  0  0  0  0
 11  9  2  0  0  0  0
 12  7  1  6  0  0  0
 12  6  1  0  0  0  0
 13 18  2  0  0  0  0
 14 10  2  0  0  0  0
 15 14  1  0  0  0  0
 16  1  2  0  0  0  0
 17  2  2  0  0  0  0
 18 12  1  0  0  0  0
 18  4  1  0  0  0  0
 19 16  1  0  0  0  0
 20 25  1  0  0  0  0
 20 14  1  0  0  0  0
 21 24  1  0  0  0  0
 22 21  2  0  0  0  0
 22 25  1  0  0  0  0
 24 26  1  0  0  0  0
 24 23  2  0  0  0  0
 25 26  2  0  0  0  0
 26 29  1  0  0  0  0
 29 28  1  0  0  0  0
 29 27  1  0  0  0  0
M  END
>  <MODEL>
5

>  <REMARK>
 VINA RESULT:      -6.5      2.509      3.928
  Name = 
  3 active torsions:
  status: ('A' for Active; 'I' for Inactive)
    1  A    between atoms: N_8  and  C_29
    2  A    between atoms: N_13  and  C_22
    3  A    between atoms: N_13  and  C_23
                            x       y       z     vdW  Elec       q    Type
                         _______ _______ _______ _____ _____    ______ ____

>  <TORSDO>
F 3

$$$$
=
 OpenBabel11052409553D

 29 33  0  0  1  0  0  0  0  0999 V2000
  161.5070  204.5530  146.7110 C   0  0  0  0  0  0  0  0  0  0  0  0
  160.8290  205.7790  146.4670 C   0  0  0  0  0  0  0  0  0  0  0  0
  160.8860  205.4050  151.8950 C   0  0  0  0  0  3  0  0  0  0  0  0
  161.1150  207.9450  149.4530 O   0  0  0  0  0  0  0  0  0  0  0  0
  160.1100  204.9110  144.3280 C   0  0  0  0  0  3  0  0  0  0  0  0
  161.1060  206.1450  150.8120 C   0  0  0  0  0  0  0  0  0  0  0  0
  162.1520  204.7600  149.0630 C   0  0  0  0  0  3  0  0  0  0  0  0
  162.3380  204.3090  147.8600 N   0  0  0  0  0  0  0  0  0  0  0  0
  161.1010  207.0500  153.7860 C   0  0  0  0  0  3  0  0  0  0  0  0
  161.5810  208.2460  153.0850 C   0  0  0  0  0  3  0  0  0  0  0  0
  160.8160  205.8510  153.2880 C   0  0  0  0  0  3  0  0  0  0  0  0
  160.9630  205.5760  149.4330 C   0  0  2  0  0  3  0  0  0  0  0  0
  160.8890  206.9080  147.3530 N   0  0  0  0  0  0  0  0  0  0  0  0
  161.6910  208.4800  151.7780 C   0  0  0  0  0  0  0  0  0  0  0  0
  161.2320  207.5690  150.7660 N   0  0  0  0  0  0  0  0  0  0  0  0
  161.4610  203.5580  145.7280 C   0  0  0  0  0  3  0  0  0  0  0  0
  160.1430  205.9460  145.2610 C   0  0  0  0  0  3  0  0  0  0  0  0
  160.9770  206.8350  148.6420 C   0  0  0  0  0  0  0  0  0  0  0  0
  160.7640  203.7490  144.5770 N   0  0  0  0  0  0  0  0  0  0  0  0
  162.2060  209.7610  151.4000 N   0  0  0  0  0  2  0  0  0  0  0  0
  159.8280  212.5010  151.7580 N   0  0  0  0  0  0  0  0  0  0  0  0
  160.4620  211.4750  152.2370 C   0  0  0  0  0  3  0  0  0  0  0  0
  159.9300  213.5890  149.6600 O   0  0  0  0  0  0  0  0  0  0  0  0
  160.3220  212.6790  150.4380 C   0  0  0  0  0  0  0  0  0  0  0  0
  161.4110  210.9410  151.2460 C   0  0  0  0  0  0  0  0  0  0  0  0
  161.3150  211.6680  150.1390 C   0  0  0  0  0  0  0  0  0  0  0  0
  161.9560  210.2960  148.2610 O   0  0  0  0  0  1  0  0  0  0  0  0
  162.7670  212.5670  148.2710 C   0  0  0  0  0  1  0  0  0  0  0  0
  162.0140  211.4900  148.8950 N   0  0  0  0  0  0  0  0  0  0  0  0
  1  8  1  0  0  0  0
  2  1  1  0  0  0  0
  2 13  1  0  0  0  0
  3 11  1  0  0  0  0
  4 15  1  0  0  0  0
  5 19  2  0  0  0  0
  5 17  1  0  0  0  0
  6  3  2  0  0  0  0
  8  7  2  0  0  0  0
 10  9  1  0  0  0  0
 11  9  2  0  0  0  0
 12  7  1  6  0  0  0
 12  6  1  0  0  0  0
 13 18  2  0  0  0  0
 14 10  2  0  0  0  0
 15  6  1  0  0  0  0
 15 14  1  0  0  0  0
 16  1  2  0  0  0  0
 17  2  2  0  0  0  0
 18 12  1  0  0  0  0
 18  4  1  0  0  0  0
 19 16  1  0  0  0  0
 20 14  1  0  0  0  0
 21 22  2  0  0  0  0
 23 24  2  0  0  0  0
 24 21  1  0  0  0  0
 25 20  1  0  0  0  0
 25 22  1  0  0  0  0
 26 24  1  0  0  0  0
 26 25  2  0  0  0  0
 27 29  1  0  0  0  0
 28 29  1  0  0  0  0
 29 26  1  0  0  0  0
M  END
>  <MODEL>
6

>  <REMARK>
 VINA RESULT:      -6.4      3.166      4.832
  Name = 
  3 active torsions:
  status: ('A' for Active; 'I' for Inactive)
    1  A    between atoms: N_8  and  C_29
    2  A    between atoms: N_13  and  C_22
    3  A    between atoms: N_13  and  C_23
                            x       y       z     vdW  Elec       q    Type
                         _______ _______ _______ _____ _____    ______ ____

>  <TORSDO>
F 3

$$$$
=
 OpenBabel11052409553D

 29 33  0  0  1  0  0  0  0  0999 V2000
  160.6720  203.8060  149.6100 C   0  0  0  0  0  0  0  0  0  0  0  0
  161.1140  203.8700  150.9610 C   0  0  0  0  0  0  0  0  0  0  0  0
  162.1130  208.8650  149.0490 C   0  0  0  0  0  3  0  0  0  0  0  0
  161.0810  207.3940  152.0880 O   0  0  0  0  0  0  0  0  0  0  0  0
  161.5410  201.4910  150.8940 C   0  0  0  0  0  3  0  0  0  0  0  0
  161.5950  208.1070  150.0110 C   0  0  0  0  0  0  0  0  0  0  0  0
  160.4500  206.1680  149.0100 C   0  0  0  0  0  3  0  0  0  0  0  0
  160.1110  204.9210  148.8940 N   0  0  0  0  0  0  0  0  0  0  0  0
  162.0210  211.1860  150.0130 C   0  0  0  0  0  3  0  0  0  0  0  0
  161.2560  210.9650  151.2450 C   0  0  0  0  0  3  0  0  0  0  0  0
  162.3760  210.3050  149.0830 C   0  0  0  0  0  3  0  0  0  0  0  0
  161.5590  206.6130  149.8980 C   0  0  2  0  0  3  0  0  0  0  0  0
  161.0600  205.0640  151.7560 N   0  0  0  0  0  0  0  0  0  0  0  0
  160.8750  209.8240  151.8170 C   0  0  0  0  0  0  0  0  0  0  0  0
  161.2640  208.5270  151.3370 N   0  0  0  0  0  0  0  0  0  0  0  0
  160.6760  202.5640  148.9650 C   0  0  0  0  0  3  0  0  0  0  0  0
  161.5350  202.6960  151.5920 C   0  0  0  0  0  3  0  0  0  0  0  0
  161.2220  206.2660  151.3040 C   0  0  0  0  0  0  0  0  0  0  0  0
  161.1150  201.4490  149.6060 N   0  0  0  0  0  0  0  0  0  0  0  0
  160.1230  209.9380  153.0300 N   0  0  0  0  0  2  0  0  0  0  0  0
  158.3080  213.0850  153.3350 N   0  0  0  0  0  0  0  0  0  0  0  0
  158.6550  212.0340  152.6590 C   0  0  0  0  0  3  0  0  0  0  0  0
  158.7810  213.7740  155.5480 O   0  0  0  0  0  0  0  0  0  0  0  0
  158.9010  212.9350  154.6170 C   0  0  0  0  0  0  0  0  0  0  0  0
  159.4880  211.1390  153.4800 C   0  0  0  0  0  0  0  0  0  0  0  0
  159.6520  211.6970  154.6740 C   0  0  0  0  0  0  0  0  0  0  0  0
  161.7760  211.2590  155.7310 O   0  0  0  0  0  1  0  0  0  0  0  0
  159.8010  210.6870  156.9900 C   0  0  0  0  0  1  0  0  0  0  0  0
  160.4240  211.2110  155.7840 N   0  0  0  0  0  0  0  0  0  0  0  0
  1  2  1  0  0  0  0
  2 17  2  0  0  0  0
  2 13  1  0  0  0  0
  3 11  1  0  0  0  0
  3  6  2  0  0  0  0
  5 17  1  0  0  0  0
  6 15  1  0  0  0  0
  8  7  2  0  0  0  0
  8  1  1  0  0  0  0
  9 10  1  0  0  0  0
 10 14  2  0  0  0  0
 11  9  2  0  0  0  0
 12  7  1  6  0  0  0
 12  6  1  0  0  0  0
 12 18  1  0  0  0  0
 14 20  1  0  0  0  0
 15 14  1  0  0  0  0
 15  4  1  0  0  0  0
 16 19  1  0  0  0  0
 16  1  2  0  0  0  0
 18 13  2  0  0  0  0
 18  4  1  0  0  0  0
 19  5  2  0  0  0  0
 20 25  1  0  0  0  0
 21 24  1  0  0  0  0
 22 21  2  0  0  0  0
 22 25  1  0  0  0  0
 24 26  1  0  0  0  0
 24 23  2  0  0  0  0
 25 26  2  0  0  0  0
 26 29  1  0  0  0  0
 27 29  1  0  0  0  0
 29 28  1  0  0  0  0
M  END
>  <MODEL>
7

>  <REMARK>
 VINA RESULT:      -6.0      1.068      1.178
  Name = 
  3 active torsions:
  status: ('A' for Active; 'I' for Inactive)
    1  A    between atoms: N_8  and  C_29
    2  A    between atoms: N_13  and  C_22
    3  A    between atoms: N_13  and  C_23
                            x       y       z     vdW  Elec       q    Type
                         _______ _______ _______ _____ _____    ______ ____

>  <TORSDO>
F 3

$$$$
=
 OpenBabel11052409553D

 29 33  0  0  1  0  0  0  0  0999 V2000
  161.8060  205.2890  150.3880 C   0  0  0  0  0  0  0  0  0  0  0  0
  161.0080  206.3640  149.9090 C   0  0  0  0  0  0  0  0  0  0  0  0
  160.4560  206.6710  155.3140 C   0  0  0  0  0  3  0  0  0  0  0  0
  160.6440  208.8980  152.5800 O   0  0  0  0  0  0  0  0  0  0  0  0
  160.6720  205.1450  147.8480 C   0  0  0  0  0  3  0  0  0  0  0  0
  160.7070  207.2970  154.1670 C   0  0  0  0  0  0  0  0  0  0  0  0
  162.1290  205.8740  152.7430 C   0  0  0  0  0  3  0  0  0  0  0  0
  162.5170  205.3110  151.6390 N   0  0  0  0  0  0  0  0  0  0  0  0
  160.2240  208.5490  156.9700 C   0  0  0  0  0  3  0  0  0  0  0  0
  160.6250  209.7060  156.1640 C   0  0  0  0  0  3  0  0  0  0  0  0
  160.1610  207.2690  156.6170 C   0  0  0  0  0  3  0  0  0  0  0  0
  160.8080  206.5480  152.8720 C   0  0  2  0  0  3  0  0  0  0  0  0
  160.8120  207.5890  150.6310 N   0  0  0  0  0  0  0  0  0  0  0  0
  160.8600  209.7920  154.8560 C   0  0  0  0  0  0  0  0  0  0  0  0
  160.6490  208.7060  153.9380 N   0  0  0  0  0  0  0  0  0  0  0  0
  162.0090  204.1850  149.5530 C   0  0  0  0  0  3  0  0  0  0  0  0
  160.4560  206.2800  148.6270 C   0  0  0  0  0  3  0  0  0  0  0  0
  160.7520  207.6890  151.9210 C   0  0  0  0  0  0  0  0  0  0  0  0
  161.4380  204.1300  148.3210 N   0  0  0  0  0  0  0  0  0  0  0  0
  161.2450  211.0780  154.3590 N   0  0  0  0  0  2  0  0  0  0  0  0
  159.5690  213.1110  151.8380 N   0  0  0  0  0  0  0  0  0  0  0  0
  160.4140  212.1860  152.1750 C   0  0  0  0  0  3  0  0  0  0  0  0
  158.0750  214.4320  153.1090 O   0  0  0  0  0  0  0  0  0  0  0  0
  158.9560  213.5350  153.0470 C   0  0  0  0  0  0  0  0  0  0  0  0
  160.3820  211.9570  153.6300 C   0  0  0  0  0  0  0  0  0  0  0  0
  159.5010  212.7930  154.1670 C   0  0  0  0  0  0  0  0  0  0  0  0
  159.9340  213.7560  156.3350 O   0  0  0  0  0  1  0  0  0  0  0  0
  158.0020  212.3250  156.1520 C   0  0  0  0  0  1  0  0  0  0  0  0
  159.1660  212.9620  155.5540 N   0  0  0  0  0  0  0  0  0  0  0  0
  1  8  1  0  0  0  0
  2  1  1  0  0  0  0
  2 13  1  0  0  0  0
  3 11  1  0  0  0  0
  4 15  1  0  0  0  0
  5 19  2  0  0  0  0
  5 17  1  0  0  0  0
  6  3  2  0  0  0  0
  8  7  2  0  0  0  0
 10  9  1  0  0  0  0
 11  9  2  0  0  0  0
 12  7  1  1  0  0  0
 12  6  1  0  0  0  0
 13 18  2  0  0  0  0
 14 10  2  0  0  0  0
 15  6  1  0  0  0  0
 15 14  1  0  0  0  0
 16  1  2  0  0  0  0
 17  2  2  0  0  0  0
 18  4  1  0  0  0  0
 18 12  1  0  0  0  0
 19 16  1  0  0  0  0
 20 14  1  0  0  0  0
 21 22  2  0  0  0  0
 21 24  1  0  0  0  0
 22 25  1  0  0  0  0
 24 23  2  0  0  0  0
 24 26  1  0  0  0  0
 25 26  2  0  0  0  0
 25 20  1  0  0  0  0
 26 29  1  0  0  0  0
 29 28  1  0  0  0  0
 29 27  1  0  0  0  0
M  END
>  <MODEL>
8

>  <REMARK>
 VINA RESULT:      -5.8      2.028      3.936
  Name = 
  3 active torsions:
  status: ('A' for Active; 'I' for Inactive)
    1  A    between atoms: N_8  and  C_29
    2  A    between atoms: N_13  and  C_22
    3  A    between atoms: N_13  and  C_23
                            x       y       z     vdW  Elec       q    Type
                         _______ _______ _______ _____ _____    ______ ____

>  <TORSDO>
F 3

$$$$
=
 OpenBabel11052409553D

 29 33  0  0  1  0  0  0  0  0999 V2000
  161.3720  212.4400  149.5830 C   0  0  0  0  0  0  0  0  0  0  0  0
  162.0850  211.6820  148.6140 C   0  0  0  0  0  0  0  0  0  0  0  0
  161.6570  208.2770  152.8370 C   0  0  0  0  0  3  0  0  0  0  0  0
  161.6350  208.0760  149.3110 O   0  0  0  0  0  0  0  0  0  0  0  0
  162.9320  213.7450  147.6810 C   0  0  0  0  0  3  0  0  0  0  0  0
  161.5220  208.4760  151.5280 C   0  0  0  0  0  0  0  0  0  0  0  0
  160.5740  210.7150  151.1260 C   0  0  0  0  0  3  0  0  0  0  0  0
  160.4620  211.8680  150.5400 N   0  0  0  0  0  0  0  0  0  0  0  0
  161.3420  205.7950  153.0910 C   0  0  0  0  0  3  0  0  0  0  0  0
  160.9300  205.4090  151.7370 C   0  0  0  0  0  3  0  0  0  0  0  0
  161.6400  207.0040  153.5580 C   0  0  0  0  0  3  0  0  0  0  0  0
  161.7480  209.8240  150.9140 C   0  0  2  0  0  3  0  0  0  0  0  0
  161.9850  210.2550  148.4920 N   0  0  0  0  0  0  0  0  0  0  0  0
  160.9120  206.1260  150.6160 C   0  0  0  0  0  0  0  0  0  0  0  0
  161.4240  207.4660  150.5210 N   0  0  0  0  0  0  0  0  0  0  0  0
  161.4680  213.8350  149.5420 C   0  0  0  0  0  3  0  0  0  0  0  0
  162.8540  212.3540  147.6590 C   0  0  0  0  0  3  0  0  0  0  0  0
  161.8090  209.4360  149.4800 C   0  0  0  0  0  0  0  0  0  0  0  0
  162.2440  214.4520  148.6130 N   0  0  0  0  0  0  0  0  0  0  0  0
  160.4450  205.4600  149.4380 N   0  0  0  0  0  2  0  0  0  0  0  0
  162.3010  205.8320  146.3220 N   0  0  0  0  0  0  0  0  0  0  0  0
  161.7100  206.3370  147.3600 C   0  0  0  0  0  3  0  0  0  0  0  0
  162.6920  203.5980  145.6500 O   0  0  0  0  0  0  0  0  0  0  0  0
  162.2210  204.4220  146.4780 C   0  0  0  0  0  0  0  0  0  0  0  0
  161.2230  205.2700  148.2510 C   0  0  0  0  0  0  0  0  0  0  0  0
  161.5220  204.0980  147.7050 C   0  0  0  0  0  0  0  0  0  0  0  0
  161.2050  202.5450  149.5230 O   0  0  0  0  0  1  0  0  0  0  0  0
  160.8550  201.6900  147.2970 C   0  0  0  0  0  1  0  0  0  0  0  0
  161.2060  202.7830  148.1910 N   0  0  0  0  0  0  0  0  0  0  0  0
  1  8  1  0  0  0  0
  2  1  2  0  0  0  0
  3 11  1  0  0  0  0
  4 18  1  0  0  0  0
  4 15  1  0  0  0  0
  5 19  1  0  0  0  0
  6  3  2  0  0  0  0
  8  7  2  0  0  0  0
  9 11  2  0  0  0  0
 10  9  1  0  0  0  0
 12  7  1  6  0  0  0
 12  6  1  0  0  0  0
 13  2  1  0  0  0  0
 13 18  2  0  0  0  0
 14 10  2  0  0  0  0
 15 14  1  0  0  0  0
 15  6  1  0  0  0  0
 16  1  1  0  0  0  0
 17  5  2  0  0  0  0
 17  2  1  0  0  0  0
 18 12  1  0  0  0  0
 19 16  2  0  0  0  0
 20 14  1  0  0  0  0
 21 24  1  0  0  0  0
 21 22  2  0  0  0  0
 22 25  1  0  0  0  0
 23 24  2  0  0  0  0
 24 26  1  0  0  0  0
 25 20  1  0  0  0  0
 26 29  1  0  0  0  0
 26 25  2  0  0  0  0
 28 29  1  0  0  0  0
 29 27  1  0  0  0  0
M  END
>  <MODEL>
9

>  <REMARK>
 VINA RESULT:      -5.8      3.482      8.642
  Name = 
  3 active torsions:
  status: ('A' for Active; 'I' for Inactive)
    1  A    between atoms: N_8  and  C_29
    2  A    between atoms: N_13  and  C_22
    3  A    between atoms: N_13  and  C_23
                            x       y       z     vdW  Elec       q    Type
                         _______ _______ _______ _____ _____    ______ ____

>  <TORSDO>
F 3

$$$$
