=
 OpenBabel11052411563D

 32 35  0  0  1  0  0  0  0  0999 V2000
  161.5580  207.1650  151.6260 C   0  0  0  0  0  0  0  0  0  0  0  0
  160.8640  206.4260  154.2540 C   0  0  0  0  0  3  0  0  0  0  0  0
  160.8390  207.7670  153.8740 C   0  0  0  0  0  3  0  0  0  0  0  0
  161.2420  205.4540  153.3340 C   0  0  0  0  0  3  0  0  0  0  0  0
  161.1850  208.1510  152.5720 C   0  0  0  0  0  0  0  0  0  0  0  0
  161.5860  205.8220  152.0330 C   0  0  0  0  0  3  0  0  0  0  0  0
  160.9390  207.4050  149.1980 N   0  0  0  0  0  2  0  0  0  0  0  0
  161.9320  207.4700  150.2260 C   0  0  0  0  0  0  0  0  0  0  0  0
  163.1110  207.7970  149.9250 O   0  0  0  0  0  0  0  0  0  0  0  0
  161.2660  207.4780  147.7800 C   0  0  0  0  0  2  0  0  0  0  0  0
  160.8440  206.2070  147.0650 C   0  0  0  0  0  2  0  0  0  0  0  0
  161.3140  203.4620  145.8390 C   0  0  0  0  0  2  0  0  0  0  0  0
  161.0920  202.2620  146.7650 C   0  0  0  0  0  2  0  0  0  0  0  0
  161.2740  202.6490  148.2350 C   0  0  1  0  0  3  0  0  0  0  0  0
  161.6900  205.0190  147.5010 C   0  0  1  0  0  3  0  0  0  0  0  0
  160.8980  204.1090  148.4600 C   0  0  0  0  0  2  0  0  0  0  0  0
  162.2650  204.3410  146.3930 O   0  0  0  0  0  0  0  0  0  0  0  0
  160.4350  201.7460  149.1150 C   0  0  0  0  0  3  0  0  0  0  0  0
  161.1630  201.3610  150.2220 O   0  0  0  0  0  0  0  0  0  0  0  0
  161.0260  200.5030  149.1970 O   0  0  0  0  0  0  0  0  0  0  0  0
  161.1250  209.9040  152.1970 S   0  0  0  0  0  0  0  0  0  0  0  0
  161.3010  210.3960  153.9350 C   0  0  0  0  0  2  0  0  0  0  0  0
  160.4760  211.6430  154.2110 C   0  0  0  0  0  2  0  0  0  0  0  0
  159.5860  211.4450  155.4360 C   0  0  0  0  0  0  0  0  0  0  0  0
  159.5540  210.0940  156.1220 C   0  0  0  0  0  2  0  0  0  0  0  0
  160.4040  211.2160  156.6910 C   0  0  0  0  0  2  0  0  0  0  0  0
  158.5280  212.3480  155.6870 O   0  0  0  0  0  0  0  0  0  0  0  0
  157.3960  212.0940  154.8690 C   0  0  0  0  0  0  0  0  0  0  0  0
  157.7380  211.3510  153.7360 O   0  0  0  0  0  1  0  0  0  0  0  0
  156.8820  213.3200  154.4420 O   0  0  0  0  0  1  0  0  0  0  0  0
  155.4740  210.6580  154.7610 O   0  0  0  0  0  1  0  0  0  0  0  0
  156.3050  211.3580  155.6390 C   0  0  0  0  0  2  0  0  0  0  0  0
  1  6  2  0  0  0  0
  1  5  1  0  0  0  0
  3  2  1  0  0  0  0
  4  2  2  0  0  0  0
  5  3  2  0  0  0  0
  6  4  1  0  0  0  0
  7  8  1  0  0  0  0
  8  1  1  0  0  0  0
  9  8  2  0  0  0  0
 10  7  1  0  0  0  0
 11 10  1  0  0  0  0
 12 17  1  0  0  0  0
 12 13  1  0  0  0  0
 13 14  1  0  0  0  0
 14 16  1  0  0  0  0
 14 18  1  1  0  0  0
 15 11  1  6  0  0  0
 15 16  1  0  0  0  0
 17 15  1  0  0  0  0
 18 20  1  0  0  0  0
 18 19  1  0  0  0  0
 20 19  1  0  0  0  0
 21  5  1  0  0  0  0
 21 22  1  0  0  0  0
 22 23  1  0  0  0  0
 23 24  1  0  0  0  0
 24 27  1  0  0  0  0
 24 25  1  0  0  0  0
 24 26  1  0  0  0  0
 25 26  1  0  0  0  0
 28 32  1  0  0  0  0
 28 27  1  0  0  0  0
 29 28  1  0  0  0  0
 30 28  1  0  0  0  0
 31 32  1  0  0  0  0
M  END
>  <MODEL>
1

>  <REMARK>
 VINA RESULT:      -7.1      0.000      0.000
  Name = 
  12 active torsions:
  status: ('A' for Active; 'I' for Inactive)
    1  A    between atoms: C_1  and  C_15
    2  A    between atoms: C_2  and  C_10
    3  A    between atoms: C_3  and  C_9
    4  A    between atoms: C_3  and  O_11
    5  A    between atoms: C_6  and  O_11
    6  A    between atoms: C_6  and  C_21
    7  A    between atoms: C_8  and  C_18
    8  A    between atoms: C_8  and  C_24
    9  A    between atoms: C_9  and  C_30
   10  A    between atoms: S_13  and  C_26
   11  A    between atoms: S_13  and  C_30
   12  A    between atoms: N_14  and  C_24
                            x       y       z     vdW  Elec       q    Type
                         _______ _______ _______ _____ _____    ______ ____

>  <TORSDO>
F 12

$$$$
=
 OpenBabel11052411563D

 32 35  0  0  1  0  0  0  0  0999 V2000
  161.0450  208.6830  153.3400 C   0  0  0  0  0  0  0  0  0  0  0  0
  161.2560  205.8760  153.2410 C   0  0  0  0  0  3  0  0  0  0  0  0
  161.6340  206.6460  152.1420 C   0  0  0  0  0  3  0  0  0  0  0  0
  160.7650  206.4980  154.3840 C   0  0  0  0  0  3  0  0  0  0  0  0
  161.5310  208.0420  152.1740 C   0  0  0  0  0  0  0  0  0  0  0  0
  160.6610  207.8890  154.4310 C   0  0  0  0  0  3  0  0  0  0  0  0
  159.7300  210.8000  152.9820 N   0  0  0  0  0  2  0  0  0  0  0  0
  160.9080  210.1520  153.4730 C   0  0  0  0  0  0  0  0  0  0  0  0
  161.8080  210.8410  154.0220 O   0  0  0  0  0  0  0  0  0  0  0  0
  159.6130  212.2490  152.8780 C   0  0  0  0  0  2  0  0  0  0  0  0
  158.7540  212.6360  151.6870 C   0  0  0  0  0  2  0  0  0  0  0  0
  158.2660  213.5030  148.8120 C   0  0  0  0  0  2  0  0  0  0  0  0
  159.4610  213.3910  147.8600 C   0  0  0  0  0  2  0  0  0  0  0  0
  160.7880  213.4550  148.6200 C   0  0  1  0  0  3  0  0  0  0  0  0
  159.4870  213.6030  150.7690 C   0  0  1  0  0  3  0  0  0  0  0  0
  160.6330  212.8880  150.0270 C   0  0  0  0  0  2  0  0  0  0  0  0
  158.5920  214.3090  149.9200 O   0  0  0  0  0  0  0  0  0  0  0  0
  161.8560  212.6960  147.8610 C   0  0  0  0  0  3  0  0  0  0  0  0
  162.9090  213.5380  147.5660 O   0  0  0  0  0  0  0  0  0  0  0  0
  162.0120  213.2500  146.6080 O   0  0  0  0  0  0  0  0  0  0  0  0
  162.0370  208.9300  150.7000 S   0  0  0  0  0  0  0  0  0  0  0  0
  162.5600  207.4210  149.8350 C   0  0  0  0  0  2  0  0  0  0  0  0
  162.1770  207.5020  148.3670 C   0  0  0  0  0  2  0  0  0  0  0  0
  161.3480  206.2870  147.9540 C   0  0  0  0  0  0  0  0  0  0  0  0
  161.2390  205.1070  148.8990 C   0  0  0  0  0  2  0  0  0  0  0  0
  160.1180  206.1280  148.8240 C   0  0  0  0  0  2  0  0  0  0  0  0
  161.0270  206.0870  146.5930 O   0  0  0  0  0  0  0  0  0  0  0  0
  161.9720  205.2580  145.9320 C   0  0  0  0  0  0  0  0  0  0  0  0
  163.1170  205.0640  146.7080 O   0  0  0  0  0  1  0  0  0  0  0  0
  162.3550  205.8900  144.7480 O   0  0  0  0  0  1  0  0  0  0  0  0
  160.5050  204.0190  144.4890 O   0  0  0  0  0  1  0  0  0  0  0  0
  161.3720  203.9010  145.5780 C   0  0  0  0  0  2  0  0  0  0  0  0
  1  8  1  0  0  0  0
  1  6  1  0  0  0  0
  2  4  1  0  0  0  0
  3  5  1  0  0  0  0
  3  2  2  0  0  0  0
  4  6  2  0  0  0  0
  5  1  2  0  0  0  0
  7  8  1  0  0  0  0
  8  9  2  0  0  0  0
 10  7  1  0  0  0  0
 11 10  1  0  0  0  0
 12 17  1  0  0  0  0
 13 14  1  0  0  0  0
 13 12  1  0  0  0  0
 14 18  1  6  0  0  0
 14 16  1  0  0  0  0
 15 11  1  6  0  0  0
 16 15  1  0  0  0  0
 17 15  1  0  0  0  0
 19 18  1  0  0  0  0
 20 19  1  0  0  0  0
 20 18  1  0  0  0  0
 21  5  1  0  0  0  0
 22 21  1  0  0  0  0
 23 22  1  0  0  0  0
 24 23  1  0  0  0  0
 24 26  1  0  0  0  0
 24 25  1  0  0  0  0
 26 25  1  0  0  0  0
 27 24  1  0  0  0  0
 28 27  1  0  0  0  0
 28 29  1  0  0  0  0
 30 28  1  0  0  0  0
 31 32  1  0  0  0  0
 32 28  1  0  0  0  0
M  END
>  <MODEL>
2

>  <REMARK>
 VINA RESULT:      -7.0      3.399      9.008
  Name = 
  12 active torsions:
  status: ('A' for Active; 'I' for Inactive)
    1  A    between atoms: C_1  and  C_15
    2  A    between atoms: C_2  and  C_10
    3  A    between atoms: C_3  and  C_9
    4  A    between atoms: C_3  and  O_11
    5  A    between atoms: C_6  and  O_11
    6  A    between atoms: C_6  and  C_21
    7  A    between atoms: C_8  and  C_18
    8  A    between atoms: C_8  and  C_24
    9  A    between atoms: C_9  and  C_30
   10  A    between atoms: S_13  and  C_26
   11  A    between atoms: S_13  and  C_30
   12  A    between atoms: N_14  and  C_24
                            x       y       z     vdW  Elec       q    Type
                         _______ _______ _______ _____ _____    ______ ____

>  <TORSDO>
F 12

$$$$
=
 OpenBabel11052411563D

 32 35  0  0  1  0  0  0  0  0999 V2000
  161.1630  207.0320  151.4430 C   0  0  0  0  0  0  0  0  0  0  0  0
  161.0930  206.2840  154.1570 C   0  0  0  0  0  3  0  0  0  0  0  0
  161.0270  207.6300  153.8000 C   0  0  0  0  0  3  0  0  0  0  0  0
  161.2030  205.3110  153.1700 C   0  0  0  0  0  3  0  0  0  0  0  0
  161.0640  208.0180  152.4550 C   0  0  0  0  0  0  0  0  0  0  0  0
  161.2380  205.6840  151.8250 C   0  0  0  0  0  3  0  0  0  0  0  0
  160.6240  206.4250  149.0600 N   0  0  0  0  0  2  0  0  0  0  0  0
  161.2010  207.3420  149.9950 C   0  0  0  0  0  0  0  0  0  0  0  0
  161.7240  208.4070  149.5730 O   0  0  0  0  0  0  0  0  0  0  0  0
  160.8080  206.5480  147.6200 C   0  0  0  0  0  2  0  0  0  0  0  0
  162.2790  206.4470  147.2550 C   0  0  0  0  0  2  0  0  0  0  0  0
  161.0460  205.4630  144.6530 C   0  0  0  0  0  2  0  0  0  0  0  0
  160.5510  204.0130  144.6460 C   0  0  0  0  0  2  0  0  0  0  0  0
  161.2900  203.1660  145.6840 C   0  0  1  0  0  3  0  0  0  0  0  0
  162.5500  205.2260  146.3880 C   0  0  1  0  0  3  0  0  0  0  0  0
  161.7220  204.0200  146.8710 C   0  0  0  0  0  2  0  0  0  0  0  0
  162.4100  205.5160  145.0040 O   0  0  0  0  0  0  0  0  0  0  0  0
  160.4050  202.0280  146.1480 C   0  0  0  0  0  3  0  0  0  0  0  0
  160.9990  200.8190  145.8490 O   0  0  0  0  0  0  0  0  0  0  0  0
  160.0130  201.2760  145.0610 O   0  0  0  0  0  0  0  0  0  0  0  0
  160.9810  209.7770  152.1130 S   0  0  0  0  0  0  0  0  0  0  0  0
  161.1710  210.2390  153.8580 C   0  0  0  0  0  2  0  0  0  0  0  0
  160.4620  211.5560  154.1290 C   0  0  0  0  0  2  0  0  0  0  0  0
  159.4280  211.3970  155.2420 C   0  0  0  0  0  0  0  0  0  0  0  0
  159.1320  210.0150  155.7890 C   0  0  0  0  0  2  0  0  0  0  0  0
  160.0680  210.9460  156.5390 C   0  0  0  0  0  2  0  0  0  0  0  0
  158.4900  212.4270  155.4800 O   0  0  0  0  0  0  0  0  0  0  0  0
  157.4300  212.4190  154.5350 C   0  0  0  0  0  0  0  0  0  0  0  0
  156.2390  211.9600  155.1020 O   0  0  0  0  0  1  0  0  0  0  0  0
  157.7760  211.5520  153.4970 O   0  0  0  0  0  1  0  0  0  0  0  0
  156.9030  213.7140  152.5820 O   0  0  0  0  0  1  0  0  0  0  0  0
  157.2000  213.8060  153.9430 C   0  0  0  0  0  2  0  0  0  0  0  0
  1  6  2  0  0  0  0
  1  5  1  0  0  0  0
  3  2  1  0  0  0  0
  4  2  2  0  0  0  0
  5  3  2  0  0  0  0
  6  4  1  0  0  0  0
  7  8  1  0  0  0  0
  8  1  1  0  0  0  0
  9  8  2  0  0  0  0
 10  7  1  0  0  0  0
 11 10  1  0  0  0  0
 12 17  1  0  0  0  0
 13 12  1  0  0  0  0
 13 14  1  0  0  0  0
 14 18  1  1  0  0  0
 14 16  1  0  0  0  0
 15 16  1  0  0  0  0
 15 11  1  1  0  0  0
 17 15  1  0  0  0  0
 19 18  1  0  0  0  0
 20 19  1  0  0  0  0
 20 18  1  0  0  0  0
 21  5  1  0  0  0  0
 21 22  1  0  0  0  0
 22 23  1  0  0  0  0
 23 24  1  0  0  0  0
 24 27  1  0  0  0  0
 24 25  1  0  0  0  0
 24 26  1  0  0  0  0
 25 26  1  0  0  0  0
 28 29  1  0  0  0  0
 28 27  1  0  0  0  0
 30 28  1  0  0  0  0
 31 32  1  0  0  0  0
 32 28  1  0  0  0  0
M  END
>  <MODEL>
3

>  <REMARK>
 VINA RESULT:      -6.7      1.464      1.935
  Name = 
  12 active torsions:
  status: ('A' for Active; 'I' for Inactive)
    1  A    between atoms: C_1  and  C_15
    2  A    between atoms: C_2  and  C_10
    3  A    between atoms: C_3  and  C_9
    4  A    between atoms: C_3  and  O_11
    5  A    between atoms: C_6  and  O_11
    6  A    between atoms: C_6  and  C_21
    7  A    between atoms: C_8  and  C_18
    8  A    between atoms: C_8  and  C_24
    9  A    between atoms: C_9  and  C_30
   10  A    between atoms: S_13  and  C_26
   11  A    between atoms: S_13  and  C_30
   12  A    between atoms: N_14  and  C_24
                            x       y       z     vdW  Elec       q    Type
                         _______ _______ _______ _____ _____    ______ ____

>  <TORSDO>
F 12

$$$$
=
 OpenBabel11052411563D

 32 35  0  0  1  0  0  0  0  0999 V2000
  160.7640  207.6390  154.0060 C   0  0  0  0  0  0  0  0  0  0  0  0
  160.1710  208.9860  156.4080 C   0  0  0  0  0  3  0  0  0  0  0  0
  160.6060  209.7010  155.2930 C   0  0  0  0  0  3  0  0  0  0  0  0
  160.0390  207.6040  156.3340 C   0  0  0  0  0  3  0  0  0  0  0  0
  160.9080  209.0460  154.0920 C   0  0  0  0  0  0  0  0  0  0  0  0
  160.3340  206.9380  155.1430 C   0  0  0  0  0  3  0  0  0  0  0  0
  161.4150  205.4790  152.8900 N   0  0  0  0  0  2  0  0  0  0  0  0
  161.0510  206.8580  152.7800 C   0  0  0  0  0  0  0  0  0  0  0  0
  160.9670  207.3860  151.6400 O   0  0  0  0  0  0  0  0  0  0  0  0
  161.9190  204.7060  151.7620 C   0  0  0  0  0  2  0  0  0  0  0  0
  161.1350  203.4150  151.6030 C   0  0  0  0  0  2  0  0  0  0  0  0
  161.0260  201.3320  149.3870 C   0  0  0  0  0  2  0  0  0  0  0  0
  161.3320  201.8340  147.9720 C   0  0  0  0  0  2  0  0  0  0  0  0
  161.0400  203.3300  147.8350 C   0  0  1  0  0  3  0  0  0  0  0  0
  160.4040  203.3730  150.2690 C   0  0  1  0  0  3  0  0  0  0  0  0
  161.2430  204.0450  149.1650 C   0  0  0  0  0  2  0  0  0  0  0  0
  159.9590  202.0620  149.9480 O   0  0  0  0  0  0  0  0  0  0  0  0
  161.9280  203.9360  146.7690 C   0  0  0  0  0  3  0  0  0  0  0  0
  161.1610  204.6310  145.8570 O   0  0  0  0  0  0  0  0  0  0  0  0
  161.6020  203.4030  145.5390 O   0  0  0  0  0  0  0  0  0  0  0  0
  161.4670  210.0650  152.7260 S   0  0  0  0  0  0  0  0  0  0  0  0
  160.4620  211.4900  153.2320 C   0  0  0  0  0  2  0  0  0  0  0  0
  159.0390  211.3330  152.7220 C   0  0  0  0  0  2  0  0  0  0  0  0
  158.2550  212.6330  152.8920 C   0  0  0  0  0  0  0  0  0  0  0  0
  158.9580  213.9590  152.6830 C   0  0  0  0  0  2  0  0  0  0  0  0
  158.0990  213.3690  151.5780 C   0  0  0  0  0  2  0  0  0  0  0  0
  157.0370  212.6270  153.6100 O   0  0  0  0  0  0  0  0  0  0  0  0
  157.2300  212.4110  155.0000 C   0  0  0  0  0  0  0  0  0  0  0  0
  158.3570  213.0870  155.4730 O   0  0  0  0  0  1  0  0  0  0  0  0
  157.4280  211.0450  155.2060 O   0  0  0  0  0  1  0  0  0  0  0  0
  155.2590  213.7810  155.0910 O   0  0  0  0  0  1  0  0  0  0  0  0
  156.0110  212.8460  155.8060 C   0  0  0  0  0  2  0  0  0  0  0  0
  1  5  2  0  0  0  0
  1  6  1  0  0  0  0
  3  2  2  0  0  0  0
  4  2  1  0  0  0  0
  5  3  1  0  0  0  0
  6  4  2  0  0  0  0
  8  7  1  0  0  0  0
  8  1  1  0  0  0  0
  9  8  2  0  0  0  0
 10  7  1  0  0  0  0
 11 10  1  0  0  0  0
 12 17  1  0  0  0  0
 13 12  1  0  0  0  0
 14 18  1  6  0  0  0
 14 13  1  0  0  0  0
 14 16  1  0  0  0  0
 15 11  1  1  0  0  0
 16 15  1  0  0  0  0
 17 15  1  0  0  0  0
 19 18  1  0  0  0  0
 20 19  1  0  0  0  0
 20 18  1  0  0  0  0
 21 22  1  0  0  0  0
 21  5  1  0  0  0  0
 23 24  1  0  0  0  0
 23 22  1  0  0  0  0
 24 27  1  0  0  0  0
 25 24  1  0  0  0  0
 26 25  1  0  0  0  0
 26 24  1  0  0  0  0
 27 28  1  0  0  0  0
 28 30  1  0  0  0  0
 28 29  1  0  0  0  0
 28 32  1  0  0  0  0
 31 32  1  0  0  0  0
M  END
>  <MODEL>
4

>  <REMARK>
 VINA RESULT:      -6.6      1.811      3.407
  Name = 
  12 active torsions:
  status: ('A' for Active; 'I' for Inactive)
    1  A    between atoms: C_1  and  C_15
    2  A    between atoms: C_2  and  C_10
    3  A    between atoms: C_3  and  C_9
    4  A    between atoms: C_3  and  O_11
    5  A    between atoms: C_6  and  O_11
    6  A    between atoms: C_6  and  C_21
    7  A    between atoms: C_8  and  C_18
    8  A    between atoms: C_8  and  C_24
    9  A    between atoms: C_9  and  C_30
   10  A    between atoms: S_13  and  C_26
   11  A    between atoms: S_13  and  C_30
   12  A    between atoms: N_14  and  C_24
                            x       y       z     vdW  Elec       q    Type
                         _______ _______ _______ _____ _____    ______ ____

>  <TORSDO>
F 12

$$$$
=
 OpenBabel11052411563D

 32 35  0  0  1  0  0  0  0  0999 V2000
  161.5490  207.8260  150.9630 C   0  0  0  0  0  0  0  0  0  0  0  0
  162.1510  209.8240  149.0720 C   0  0  0  0  0  3  0  0  0  0  0  0
  162.0580  210.1460  150.4250 C   0  0  0  0  0  3  0  0  0  0  0  0
  161.9360  208.5140  148.6560 C   0  0  0  0  0  3  0  0  0  0  0  0
  161.7560  209.1640  151.3770 C   0  0  0  0  0  0  0  0  0  0  0  0
  161.6370  207.5260  149.5950 C   0  0  0  0  0  3  0  0  0  0  0  0
  161.6010  205.3780  151.5500 N   0  0  0  0  0  2  0  0  0  0  0  0
  161.2330  206.7170  151.8940 C   0  0  0  0  0  0  0  0  0  0  0  0
  160.6550  206.9360  152.9910 O   0  0  0  0  0  0  0  0  0  0  0  0
  161.1400  204.2170  152.2990 C   0  0  0  0  0  2  0  0  0  0  0  0
  161.2510  202.9560  151.4610 C   0  0  0  0  0  2  0  0  0  0  0  0
  161.0240  201.1570  149.0180 C   0  0  0  0  0  2  0  0  0  0  0  0
  161.2960  201.8190  147.6630 C   0  0  0  0  0  2  0  0  0  0  0  0
  161.0320  203.3260  147.7160 C   0  0  1  0  0  3  0  0  0  0  0  0
  160.4760  203.0880  150.1580 C   0  0  1  0  0  3  0  0  0  0  0  0
  161.2950  203.8730  149.1140 C   0  0  0  0  0  2  0  0  0  0  0  0
  159.9930  201.8330  149.6980 O   0  0  0  0  0  0  0  0  0  0  0  0
  161.9000  204.0390  146.6990 C   0  0  0  0  0  3  0  0  0  0  0  0
  161.1150  204.5360  145.6780 O   0  0  0  0  0  0  0  0  0  0  0  0
  161.8040  203.3990  145.4820 O   0  0  0  0  0  0  0  0  0  0  0  0
  161.6540  209.6940  153.0880 S   0  0  0  0  0  0  0  0  0  0  0  0
  160.0440  210.5020  152.8580 C   0  0  0  0  0  2  0  0  0  0  0  0
  160.1500  211.9800  153.1960 C   0  0  0  0  0  2  0  0  0  0  0  0
  159.4400  212.2890  154.5120 C   0  0  0  0  0  0  0  0  0  0  0  0
  159.1850  211.1680  155.5000 C   0  0  0  0  0  2  0  0  0  0  0  0
  160.3610  212.1070  155.7010 C   0  0  0  0  0  2  0  0  0  0  0  0
  158.6860  213.4780  154.6400 O   0  0  0  0  0  0  0  0  0  0  0  0
  157.3650  213.3370  154.1390 C   0  0  0  0  0  0  0  0  0  0  0  0
  157.0400  211.9960  153.9180 O   0  0  0  0  0  1  0  0  0  0  0  0
  157.2890  214.0060  152.9160 O   0  0  0  0  0  1  0  0  0  0  0  0
  155.6720  212.9520  155.7980 O   0  0  0  0  0  1  0  0  0  0  0  0
  156.3400  213.9510  155.0860 C   0  0  0  0  0  2  0  0  0  0  0  0
  1  5  1  0  0  0  0
  1  8  1  0  0  0  0
  2  3  1  0  0  0  0
  3  5  2  0  0  0  0
  4  2  2  0  0  0  0
  4  6  1  0  0  0  0
  5 21  1  0  0  0  0
  6  1  2  0  0  0  0
  7  8  1  0  0  0  0
  7 10  1  0  0  0  0
  8  9  2  0  0  0  0
 11 10  1  0  0  0  0
 12 17  1  0  0  0  0
 13 14  1  0  0  0  0
 13 12  1  0  0  0  0
 14 18  1  6  0  0  0
 14 16  1  0  0  0  0
 15 11  1  1  0  0  0
 16 15  1  0  0  0  0
 17 15  1  0  0  0  0
 19 18  1  0  0  0  0
 20 19  1  0  0  0  0
 20 18  1  0  0  0  0
 22 21  1  0  0  0  0
 22 23  1  0  0  0  0
 23 24  1  0  0  0  0
 24 27  1  0  0  0  0
 24 25  1  0  0  0  0
 24 26  1  0  0  0  0
 25 26  1  0  0  0  0
 28 27  1  0  0  0  0
 28 32  1  0  0  0  0
 29 28  1  0  0  0  0
 30 28  1  0  0  0  0
 32 31  1  0  0  0  0
M  END
>  <MODEL>
5

>  <REMARK>
 VINA RESULT:      -6.4      1.723      3.288
  Name = 
  12 active torsions:
  status: ('A' for Active; 'I' for Inactive)
    1  A    between atoms: C_1  and  C_15
    2  A    between atoms: C_2  and  C_10
    3  A    between atoms: C_3  and  C_9
    4  A    between atoms: C_3  and  O_11
    5  A    between atoms: C_6  and  O_11
    6  A    between atoms: C_6  and  C_21
    7  A    between atoms: C_8  and  C_18
    8  A    between atoms: C_8  and  C_24
    9  A    between atoms: C_9  and  C_30
   10  A    between atoms: S_13  and  C_26
   11  A    between atoms: S_13  and  C_30
   12  A    between atoms: N_14  and  C_24
                            x       y       z     vdW  Elec       q    Type
                         _______ _______ _______ _____ _____    ______ ____

>  <TORSDO>
F 12

$$$$
=
 OpenBabel11052411563D

 32 35  0  0  1  0  0  0  0  0999 V2000
  161.3380  208.5920  155.3570 C   0  0  0  0  0  0  0  0  0  0  0  0
  162.2340  210.9970  156.5160 C   0  0  0  0  0  3  0  0  0  0  0  0
  161.7150  210.9940  155.2220 C   0  0  0  0  0  3  0  0  0  0  0  0
  162.3180  209.8070  157.2300 C   0  0  0  0  0  3  0  0  0  0  0  0
  161.2680  209.8060  154.6310 C   0  0  0  0  0  0  0  0  0  0  0  0
  161.8740  208.6150  156.6540 C   0  0  0  0  0  3  0  0  0  0  0  0
  161.6880  206.6000  153.8570 N   0  0  0  0  0  2  0  0  0  0  0  0
  160.8840  207.2870  154.8210 C   0  0  0  0  0  0  0  0  0  0  0  0
  159.8050  206.7660  155.2090 O   0  0  0  0  0  0  0  0  0  0  0  0
  161.2150  205.4310  153.1270 C   0  0  0  0  0  2  0  0  0  0  0  0
  161.8860  205.3380  151.7680 C   0  0  0  0  0  2  0  0  0  0  0  0
  161.2200  203.3640  149.5510 C   0  0  0  0  0  2  0  0  0  0  0  0
  161.1970  203.9290  148.1270 C   0  0  0  0  0  2  0  0  0  0  0  0
  160.9100  205.4320  148.1270 C   0  0  1  0  0  3  0  0  0  0  0  0
  160.8620  205.3660  150.6420 C   0  0  1  0  0  3  0  0  0  0  0  0
  161.4330  206.0820  149.4030 C   0  0  0  0  0  2  0  0  0  0  0  0
  160.3290  204.0760  150.3780 O   0  0  0  0  0  0  0  0  0  0  0  0
  161.5370  206.0790  146.9100 C   0  0  0  0  0  3  0  0  0  0  0  0
  160.5540  206.4280  146.0060 O   0  0  0  0  0  0  0  0  0  0  0  0
  161.2740  205.3130  145.7940 O   0  0  0  0  0  0  0  0  0  0  0  0
  160.6270  209.9190  152.9590 S   0  0  0  0  0  0  0  0  0  0  0  0
  160.1000  211.6450  153.1590 C   0  0  0  0  0  2  0  0  0  0  0  0
  158.6150  211.7750  152.8660 C   0  0  0  0  0  2  0  0  0  0  0  0
  157.9720  212.8230  153.7720 C   0  0  0  0  0  0  0  0  0  0  0  0
  158.6460  214.1700  153.9430 C   0  0  0  0  0  2  0  0  0  0  0  0
  157.4800  214.0190  152.9820 C   0  0  0  0  0  2  0  0  0  0  0  0
  157.0130  212.4280  154.7310 O   0  0  0  0  0  0  0  0  0  0  0  0
  157.6100  211.9040  155.9080 C   0  0  0  0  0  0  0  0  0  0  0  0
  158.7680  212.6050  156.2520 O   0  0  0  0  0  1  0  0  0  0  0  0
  157.9650  210.5770  155.6630 O   0  0  0  0  0  1  0  0  0  0  0  0
  155.3400  212.1830  156.6420 O   0  0  0  0  0  1  0  0  0  0  0  0
  156.6410  211.9310  157.0850 C   0  0  0  0  0  2  0  0  0  0  0  0
  1  6  1  0  0  0  0
  2  4  1  0  0  0  0
  3  2  2  0  0  0  0
  5  3  1  0  0  0  0
  5  1  2  0  0  0  0
  6  4  2  0  0  0  0
  7  8  1  0  0  0  0
  8  9  2  0  0  0  0
  8  1  1  0  0  0  0
 10  7  1  0  0  0  0
 11 10  1  0  0  0  0
 12 17  1  0  0  0  0
 13 14  1  0  0  0  0
 13 12  1  0  0  0  0
 14 18  1  6  0  0  0
 14 16  1  0  0  0  0
 15 11  1  1  0  0  0
 16 15  1  0  0  0  0
 17 15  1  0  0  0  0
 19 18  1  0  0  0  0
 20 19  1  0  0  0  0
 20 18  1  0  0  0  0
 21 22  1  0  0  0  0
 21  5  1  0  0  0  0
 23 22  1  0  0  0  0
 23 24  1  0  0  0  0
 24 25  1  0  0  0  0
 24 27  1  0  0  0  0
 26 24  1  0  0  0  0
 26 25  1  0  0  0  0
 27 28  1  0  0  0  0
 28 29  1  0  0  0  0
 28 32  1  0  0  0  0
 30 28  1  0  0  0  0
 31 32  1  0  0  0  0
M  END
>  <MODEL>
6

>  <REMARK>
 VINA RESULT:      -6.2      2.093      4.095
  Name = 
  12 active torsions:
  status: ('A' for Active; 'I' for Inactive)
    1  A    between atoms: C_1  and  C_15
    2  A    between atoms: C_2  and  C_10
    3  A    between atoms: C_3  and  C_9
    4  A    between atoms: C_3  and  O_11
    5  A    between atoms: C_6  and  O_11
    6  A    between atoms: C_6  and  C_21
    7  A    between atoms: C_8  and  C_18
    8  A    between atoms: C_8  and  C_24
    9  A    between atoms: C_9  and  C_30
   10  A    between atoms: S_13  and  C_26
   11  A    between atoms: S_13  and  C_30
   12  A    between atoms: N_14  and  C_24
                            x       y       z     vdW  Elec       q    Type
                         _______ _______ _______ _____ _____    ______ ____

>  <TORSDO>
F 12

$$$$
=
 OpenBabel11052411563D

 32 35  0  0  1  0  0  0  0  0999 V2000
  161.4730  206.8430  150.6940 C   0  0  0  0  0  0  0  0  0  0  0  0
  160.9560  205.9920  153.3290 C   0  0  0  0  0  3  0  0  0  0  0  0
  161.0790  207.3510  153.0430 C   0  0  0  0  0  3  0  0  0  0  0  0
  161.0980  205.0560  152.3100 C   0  0  0  0  0  3  0  0  0  0  0  0
  161.3400  207.7900  151.7390 C   0  0  0  0  0  0  0  0  0  0  0  0
  161.3540  205.4800  151.0050 C   0  0  0  0  0  3  0  0  0  0  0  0
  160.8680  206.7330  148.2530 N   0  0  0  0  0  2  0  0  0  0  0  0
  161.7400  207.2090  149.2840 C   0  0  0  0  0  0  0  0  0  0  0  0
  162.7160  207.9420  148.9770 O   0  0  0  0  0  0  0  0  0  0  0  0
  161.1790  206.8650  146.8360 C   0  0  0  0  0  2  0  0  0  0  0  0
  160.9550  205.5500  146.1110 C   0  0  0  0  0  2  0  0  0  0  0  0
  160.8470  202.5260  145.7940 C   0  0  0  0  0  2  0  0  0  0  0  0
  160.7130  201.7150  147.0870 C   0  0  0  0  0  2  0  0  0  0  0  0
  161.2600  202.4880  148.2890 C   0  0  1  0  0  3  0  0  0  0  0  0
  161.7480  204.4210  146.7550 C   0  0  1  0  0  3  0  0  0  0  0  0
  161.1000  203.9900  148.0850 C   0  0  0  0  0  2  0  0  0  0  0  0
  161.9850  203.3540  145.8470 O   0  0  0  0  0  0  0  0  0  0  0  0
  160.5500  202.0490  149.5530 C   0  0  0  0  0  3  0  0  0  0  0  0
  161.2100  200.9740  150.1130 O   0  0  0  0  0  0  0  0  0  0  0  0
  160.0930  200.7570  149.4000 O   0  0  0  0  0  0  0  0  0  0  0  0
  161.4870  209.5600  151.4900 S   0  0  0  0  0  0  0  0  0  0  0  0
  160.9700  209.9550  153.1850 C   0  0  0  0  0  2  0  0  0  0  0  0
  160.8320  211.4600  153.3510 C   0  0  0  0  0  2  0  0  0  0  0  0
  159.4530  211.8210  153.9000 C   0  0  0  0  0  0  0  0  0  0  0  0
  158.9250  213.2290  153.7120 C   0  0  0  0  0  2  0  0  0  0  0  0
  158.4680  212.1150  152.7870 C   0  0  0  0  0  2  0  0  0  0  0  0
  158.8590  211.0100  154.8930 O   0  0  0  0  0  0  0  0  0  0  0  0
  159.0850  211.5080  156.2030 C   0  0  0  0  0  0  0  0  0  0  0  0
  157.8910  211.6260  156.9200 O   0  0  0  0  0  1  0  0  0  0  0  0
  159.6510  212.7800  156.0950 O   0  0  0  0  0  1  0  0  0  0  0  0
  159.9410  209.2920  156.5560 O   0  0  0  0  0  1  0  0  0  0  0  0
  160.0490  210.6180  156.9800 C   0  0  0  0  0  2  0  0  0  0  0  0
  1  6  2  0  0  0  0
  1  5  1  0  0  0  0
  3  2  1  0  0  0  0
  4  2  2  0  0  0  0
  5  3  2  0  0  0  0
  6  4  1  0  0  0  0
  7  8  1  0  0  0  0
  8  1  1  0  0  0  0
  9  8  2  0  0  0  0
 10  7  1  0  0  0  0
 11 10  1  0  0  0  0
 12 17  1  0  0  0  0
 12 13  1  0  0  0  0
 13 14  1  0  0  0  0
 14 18  1  1  0  0  0
 15 11  1  6  0  0  0
 15 16  1  0  0  0  0
 16 14  1  0  0  0  0
 17 15  1  0  0  0  0
 18 19  1  0  0  0  0
 20 18  1  0  0  0  0
 20 19  1  0  0  0  0
 21  5  1  0  0  0  0
 21 22  1  0  0  0  0
 22 23  1  0  0  0  0
 23 24  1  0  0  0  0
 24 27  1  0  0  0  0
 25 24  1  0  0  0  0
 26 25  1  0  0  0  0
 26 24  1  0  0  0  0
 27 28  1  0  0  0  0
 28 29  1  0  0  0  0
 28 32  1  0  0  0  0
 30 28  1  0  0  0  0
 31 32  1  0  0  0  0
M  END
>  <MODEL>
7

>  <REMARK>
 VINA RESULT:      -6.2      1.354      2.004
  Name = 
  12 active torsions:
  status: ('A' for Active; 'I' for Inactive)
    1  A    between atoms: C_1  and  C_15
    2  A    between atoms: C_2  and  C_10
    3  A    between atoms: C_3  and  C_9
    4  A    between atoms: C_3  and  O_11
    5  A    between atoms: C_6  and  O_11
    6  A    between atoms: C_6  and  C_21
    7  A    between atoms: C_8  and  C_18
    8  A    between atoms: C_8  and  C_24
    9  A    between atoms: C_9  and  C_30
   10  A    between atoms: S_13  and  C_26
   11  A    between atoms: S_13  and  C_30
   12  A    between atoms: N_14  and  C_24
                            x       y       z     vdW  Elec       q    Type
                         _______ _______ _______ _____ _____    ______ ____

>  <TORSDO>
F 12

$$$$
=
 OpenBabel11052411563D

 32 35  0  0  1  0  0  0  0  0999 V2000
  161.2280  207.6900  151.9880 C   0  0  0  0  0  0  0  0  0  0  0  0
  161.2400  204.9640  152.6970 C   0  0  0  0  0  3  0  0  0  0  0  0
  161.2640  205.3390  151.3540 C   0  0  0  0  0  3  0  0  0  0  0  0
  161.2010  205.9410  153.6860 C   0  0  0  0  0  3  0  0  0  0  0  0
  161.2550  206.6900  150.9860 C   0  0  0  0  0  0  0  0  0  0  0  0
  161.1940  207.2910  153.3330 C   0  0  0  0  0  3  0  0  0  0  0  0
  162.0540  209.6570  150.6530 N   0  0  0  0  0  2  0  0  0  0  0  0
  161.2250  209.1430  151.6990 C   0  0  0  0  0  0  0  0  0  0  0  0
  160.4940  209.9330  152.3530 O   0  0  0  0  0  0  0  0  0  0  0  0
  162.2710  211.0840  150.4490 C   0  0  0  0  0  2  0  0  0  0  0  0
  161.2880  211.6380  149.4330 C   0  0  0  0  0  2  0  0  0  0  0  0
  162.5820  214.0540  148.1130 C   0  0  0  0  0  2  0  0  0  0  0  0
  162.0790  214.4090  146.7100 C   0  0  0  0  0  2  0  0  0  0  0  0
  161.4940  213.1850  146.0010 C   0  0  1  0  0  3  0  0  0  0  0  0
  161.9480  211.8360  148.0750 C   0  0  1  0  0  3  0  0  0  0  0  0
  160.8990  212.2090  147.0090 C   0  0  0  0  0  2  0  0  0  0  0  0
  163.0520  212.7270  148.1460 O   0  0  0  0  0  0  0  0  0  0  0  0
  160.4410  213.6180  145.0020 C   0  0  0  0  0  3  0  0  0  0  0  0
  160.5720  212.8910  143.8370 O   0  0  0  0  0  0  0  0  0  0  0  0
  161.0550  214.1440  143.8850 O   0  0  0  0  0  0  0  0  0  0  0  0
  161.2790  207.0550  149.2300 S   0  0  0  0  0  0  0  0  0  0  0  0
  161.0070  205.3240  148.7520 C   0  0  0  0  0  2  0  0  0  0  0  0
  160.8670  205.2150  147.2430 C   0  0  0  0  0  2  0  0  0  0  0  0
  161.5870  203.9740  146.7190 C   0  0  0  0  0  0  0  0  0  0  0  0
  161.5390  203.6580  145.2380 C   0  0  0  0  0  2  0  0  0  0  0  0
  162.7590  204.3400  145.8310 C   0  0  0  0  0  2  0  0  0  0  0  0
  161.9410  202.9390  147.6140 O   0  0  0  0  0  0  0  0  0  0  0  0
  160.9580  201.9160  147.6720 C   0  0  0  0  0  0  0  0  0  0  0  0
  160.2700  201.7950  146.4620 O   0  0  0  0  0  1  0  0  0  0  0  0
  160.0340  202.2550  148.6620 O   0  0  0  0  0  1  0  0  0  0  0  0
  161.6120  199.7320  146.9170 O   0  0  0  0  0  1  0  0  0  0  0  0
  161.5760  200.5690  148.0340 C   0  0  0  0  0  2  0  0  0  0  0  0
  1  6  1  0  0  0  0
  2  4  1  0  0  0  0
  3  2  2  0  0  0  0
  5  3  1  0  0  0  0
  5  1  2  0  0  0  0
  6  4  2  0  0  0  0
  7  8  1  0  0  0  0
  8  1  1  0  0  0  0
  8  9  2  0  0  0  0
 10  7  1  0  0  0  0
 11 10  1  0  0  0  0
 12 17  1  0  0  0  0
 13 12  1  0  0  0  0
 14 18  1  6  0  0  0
 14 13  1  0  0  0  0
 14 16  1  0  0  0  0
 15 17  1  0  0  0  0
 15 11  1  1  0  0  0
 16 15  1  0  0  0  0
 19 20  1  0  0  0  0
 19 18  1  0  0  0  0
 20 18  1  0  0  0  0
 21  5  1  0  0  0  0
 22 21  1  0  0  0  0
 23 22  1  0  0  0  0
 24 23  1  0  0  0  0
 24 27  1  0  0  0  0
 25 26  1  0  0  0  0
 25 24  1  0  0  0  0
 26 24  1  0  0  0  0
 27 28  1  0  0  0  0
 28 32  1  0  0  0  0
 28 30  1  0  0  0  0
 29 28  1  0  0  0  0
 31 32  1  0  0  0  0
M  END
>  <MODEL>
8

>  <REMARK>
 VINA RESULT:      -6.1      3.979      9.574
  Name = 
  12 active torsions:
  status: ('A' for Active; 'I' for Inactive)
    1  A    between atoms: C_1  and  C_15
    2  A    between atoms: C_2  and  C_10
    3  A    between atoms: C_3  and  C_9
    4  A    between atoms: C_3  and  O_11
    5  A    between atoms: C_6  and  O_11
    6  A    between atoms: C_6  and  C_21
    7  A    between atoms: C_8  and  C_18
    8  A    between atoms: C_8  and  C_24
    9  A    between atoms: C_9  and  C_30
   10  A    between atoms: S_13  and  C_26
   11  A    between atoms: S_13  and  C_30
   12  A    between atoms: N_14  and  C_24
                            x       y       z     vdW  Elec       q    Type
                         _______ _______ _______ _____ _____    ______ ____

>  <TORSDO>
F 12

$$$$
=
 OpenBabel11052411563D

 32 35  0  0  1  0  0  0  0  0999 V2000
  161.4130  206.5750  151.4740 C   0  0  0  0  0  0  0  0  0  0  0  0
  160.7960  203.8500  151.1160 C   0  0  0  0  0  3  0  0  0  0  0  0
  160.8880  204.6980  150.0130 C   0  0  0  0  0  3  0  0  0  0  0  0
  161.0010  204.3550  152.3950 C   0  0  0  0  0  3  0  0  0  0  0  0
  161.1910  206.0560  150.1750 C   0  0  0  0  0  0  0  0  0  0  0  0
  161.3060  205.7060  152.5710 C   0  0  0  0  0  3  0  0  0  0  0  0
  160.9860  208.7240  152.7130 N   0  0  0  0  0  2  0  0  0  0  0  0
  161.7460  207.9930  151.7460 C   0  0  0  0  0  0  0  0  0  0  0  0
  162.6970  208.5620  151.1480 O   0  0  0  0  0  0  0  0  0  0  0  0
  161.1060  210.1670  152.8810 C   0  0  0  0  0  2  0  0  0  0  0  0
  161.5830  210.5070  154.2820 C   0  0  0  0  0  2  0  0  0  0  0  0
  158.9480  210.2910  155.7860 C   0  0  0  0  0  2  0  0  0  0  0  0
  157.8130  211.1970  155.2960 C   0  0  0  0  0  2  0  0  0  0  0  0
  158.3580  212.4360  154.5810 C   0  0  1  0  0  3  0  0  0  0  0  0
  160.6850  211.5490  154.9340 C   0  0  1  0  0  3  0  0  0  0  0  0
  159.6920  212.1300  153.9100 C   0  0  0  0  0  2  0  0  0  0  0  0
  160.0800  211.0580  156.1220 O   0  0  0  0  0  0  0  0  0  0  0  0
  157.3530  212.9270  153.5590 C   0  0  0  0  0  3  0  0  0  0  0  0
  156.9030  214.1830  153.9100 O   0  0  0  0  0  0  0  0  0  0  0  0
  156.1310  213.1150  154.1680 O   0  0  0  0  0  0  0  0  0  0  0  0
  161.2750  207.0550  148.6870 S   0  0  0  0  0  0  0  0  0  0  0  0
  160.7370  205.6960  147.6100 C   0  0  0  0  0  2  0  0  0  0  0  0
  161.8740  204.7080  147.4080 C   0  0  0  0  0  2  0  0  0  0  0  0
  161.6870  203.9220  146.1130 C   0  0  0  0  0  0  0  0  0  0  0  0
  160.8260  204.5030  145.0090 C   0  0  0  0  0  2  0  0  0  0  0  0
  162.3380  204.6200  144.9360 C   0  0  0  0  0  2  0  0  0  0  0  0
  161.9630  202.5360  146.0870 O   0  0  0  0  0  0  0  0  0  0  0  0
  160.8320  201.7540  146.4410 C   0  0  0  0  0  0  0  0  0  0  0  0
  160.2200  202.2310  147.6030 O   0  0  0  0  0  1  0  0  0  0  0  0
  161.2640  200.4490  146.6850 O   0  0  0  0  0  1  0  0  0  0  0  0
  159.9970  200.5860  144.5160 O   0  0  0  0  0  1  0  0  0  0  0  0
  159.8050  201.7160  145.3140 C   0  0  0  0  0  2  0  0  0  0  0  0
  1  8  1  0  0  0  0
  1  6  1  0  0  0  0
  2  4  1  0  0  0  0
  3  5  1  0  0  0  0
  3  2  2  0  0  0  0
  4  6  2  0  0  0  0
  5  1  2  0  0  0  0
  7 10  1  0  0  0  0
  8  7  1  0  0  0  0
  9  8  2  0  0  0  0
 10 11  1  0  0  0  0
 12 17  1  0  0  0  0
 13 12  1  0  0  0  0
 14 18  1  6  0  0  0
 14 13  1  0  0  0  0
 15 11  1  6  0  0  0
 15 17  1  0  0  0  0
 16 14  1  0  0  0  0
 16 15  1  0  0  0  0
 18 19  1  0  0  0  0
 18 20  1  0  0  0  0
 19 20  1  0  0  0  0
 21  5  1  0  0  0  0
 22 21  1  0  0  0  0
 23 22  1  0  0  0  0
 24 23  1  0  0  0  0
 25 24  1  0  0  0  0
 26 25  1  0  0  0  0
 26 24  1  0  0  0  0
 27 24  1  0  0  0  0
 27 28  1  0  0  0  0
 28 30  1  0  0  0  0
 28 29  1  0  0  0  0
 31 32  1  0  0  0  0
 32 28  1  0  0  0  0
M  END
>  <MODEL>
9

>  <REMARK>
 VINA RESULT:      -6.0      1.897     10.312
  Name = 
  12 active torsions:
  status: ('A' for Active; 'I' for Inactive)
    1  A    between atoms: C_1  and  C_15
    2  A    between atoms: C_2  and  C_10
    3  A    between atoms: C_3  and  C_9
    4  A    between atoms: C_3  and  O_11
    5  A    between atoms: C_6  and  O_11
    6  A    between atoms: C_6  and  C_21
    7  A    between atoms: C_8  and  C_18
    8  A    between atoms: C_8  and  C_24
    9  A    between atoms: C_9  and  C_30
   10  A    between atoms: S_13  and  C_26
   11  A    between atoms: S_13  and  C_30
   12  A    between atoms: N_14  and  C_24
                            x       y       z     vdW  Elec       q    Type
                         _______ _______ _______ _____ _____    ______ ____

>  <TORSDO>
F 12

$$$$
