=
 OpenBabel11052411543D

 32 34  0  0  1  0  0  0  0  0999 V2000
  161.7820  207.9330  152.2030 C   0  0  0  0  0  0  0  0  0  0  0  0
  159.7600  210.4310  154.2170 C   0  0  0  0  0  1  0  0  0  0  0  0
  161.0260  208.4720  153.2110 C   0  0  0  0  0  0  0  0  0  0  0  0
  161.7250  210.0110  150.9980 C   0  0  0  0  0  0  0  0  0  0  0  0
  162.1160  210.8400  149.8290 C   0  0  0  0  0  1  0  0  0  0  0  0
  162.1640  206.5340  152.5330 C   0  0  1  0  0  3  0  0  0  0  0  0
  160.8230  207.5360  154.2610 N   0  0  0  0  0  0  0  0  0  0  0  0
  160.9350  210.5680  152.0190 C   0  0  0  0  0  3  0  0  0  0  0  0
  160.5760  209.8020  153.1410 C   0  0  0  0  0  0  0  0  0  0  0  0
  162.1590  208.6820  151.0870 C   0  0  0  0  0  3  0  0  0  0  0  0
  161.4740  206.2790  153.8870 C   0  0  0  0  0  2  0  0  0  0  0  0
  162.0170  204.2580  151.7030 C   0  0  0  0  0  2  0  0  0  0  0  0
  161.7420  205.5370  151.4840 C   0  0  0  0  0  0  0  0  0  0  0  0
  161.4980  206.5200  148.0940 C   0  0  0  0  0  0  0  0  0  0  0  0
  161.6150  204.8360  146.3650 C   0  0  0  0  0  0  0  0  0  0  0  0
  161.0040  204.2370  148.5970 N   0  0  0  0  0  0  0  0  0  0  0  0
  161.8850  204.4730  144.9470 C   0  0  0  0  0  1  0  0  0  0  0  0
  161.2270  203.8690  147.3030 C   0  0  0  0  0  0  0  0  0  0  0  0
  161.6260  207.8450  148.4920 O   0  0  0  0  0  1  0  0  0  0  0  0
  161.7420  206.1660  146.7660 C   0  0  0  0  0  3  0  0  0  0  0  0
  160.8890  205.8690  150.3760 N   0  0  0  0  0  2  0  0  0  0  0  0
  161.1410  205.5270  149.0130 C   0  0  0  0  0  0  0  0  0  0  0  0
  161.0630  202.5390  146.9010 O   0  0  0  0  0  0  0  0  0  0  0  0
  161.0780  201.5010  147.7940 C   0  0  0  0  0  0  0  0  0  0  0  0
  161.1000  200.5840  148.5760 C   0  0  0  0  0  3  0  0  0  0  0  0
  159.6970  207.5810  155.1830 C   0  0  0  0  0  2  0  0  0  0  0  0
  160.2290  207.1490  156.8660 S   0  0  0  0  0  0  0  0  0  0  0  0
  160.5710  208.8900  157.2570 C   0  0  0  0  0  2  0  0  0  0  0  0
  162.0670  209.1560  157.2190 C   0  0  0  0  0  2  0  0  0  0  0  0
  162.3330  210.4780  156.6730 N   0  0  0  0  0  0  0  0  0  0  0  0
  161.4070  211.3160  157.2010 O   0  0  0  0  0  1  0  0  0  0  0  0
  163.6200  210.8960  157.1970 C   0  0  0  0  0  1  0  0  0  0  0  0
  1  6  1  0  0  0  0
  1  3  1  0  0  0  0
  3  7  1  0  0  0  0
  4 10  1  0  0  0  0
  4  8  2  0  0  0  0
  5  4  1  0  0  0  0
  6 13  1  6  0  0  0
  6 11  1  0  0  0  0
  7 26  1  0  0  0  0
  8  9  1  0  0  0  0
  9  3  2  0  0  0  0
  9  2  1  0  0  0  0
 10  1  2  0  0  0  0
 11  7  1  0  0  0  0
 13 12  2  0  0  0  0
 14 19  1  0  0  0  0
 14 22  2  0  0  0  0
 15 20  2  0  0  0  0
 15 18  1  0  0  0  0
 16 22  1  0  0  0  0
 17 15  1  0  0  0  0
 18 16  2  0  0  0  0
 20 14  1  0  0  0  0
 21 13  1  0  0  0  0
 22 21  1  0  0  0  0
 23 18  1  0  0  0  0
 23 24  1  0  0  0  0
 24 25  3  0  0  0  0
 26 27  1  0  0  0  0
 27 28  1  0  0  0  0
 29 28  1  0  0  0  0
 30 32  1  0  0  0  0
 30 31  1  0  0  0  0
 30 29  1  0  0  0  0
M  END
>  <MODEL>
1

>  <REMARK>
 VINA RESULT:      -7.8      0.000      0.000
  Name = 
  9 active torsions:
  status: ('A' for Active; 'I' for Inactive)
    1  A    between atoms: C_1  and  O_3
    2  A    between atoms: O_3  and  C_17
    3  A    between atoms: N_6  and  C_15
    4  A    between atoms: C_7  and  S_16
    5  A    between atoms: C_7  and  N_23
    6  A    between atoms: C_15  and  C_30
    7  A    between atoms: S_16  and  C_30
    8  A    between atoms: C_18  and  C_21
    9  A    between atoms: C_18  and  N_27
                            x       y       z     vdW  Elec       q    Type
                         _______ _______ _______ _____ _____    ______ ____

>  <TORSDO>
F 9

$$$$
=
 OpenBabel11052411543D

 32 34  0  0  1  0  0  0  0  0999 V2000
  161.8360  206.8610  151.6350 C   0  0  0  0  0  0  0  0  0  0  0  0
  160.6510  210.2790  152.7780 C   0  0  0  0  0  1  0  0  0  0  0  0
  161.3560  207.8620  152.4400 C   0  0  0  0  0  0  0  0  0  0  0  0
  161.9910  208.3790  149.7790 C   0  0  0  0  0  0  0  0  0  0  0  0
  162.3500  208.6620  148.3660 C   0  0  0  0  0  1  0  0  0  0  0  0
  161.9920  205.6020  152.4110 C   0  0  1  0  0  3  0  0  0  0  0  0
  161.1420  207.3990  153.7670 N   0  0  0  0  0  0  0  0  0  0  0  0
  161.4840  209.4080  150.5920 C   0  0  0  0  0  3  0  0  0  0  0  0
  161.1610  209.1600  151.9360 C   0  0  0  0  0  0  0  0  0  0  0  0
  162.1730  207.0920  150.3010 C   0  0  0  0  0  3  0  0  0  0  0  0
  161.4790  205.9750  153.8150 C   0  0  0  0  0  2  0  0  0  0  0  0
  159.9090  204.4840  151.8590 C   0  0  0  0  0  2  0  0  0  0  0  0
  161.2340  204.4400  151.8200 C   0  0  0  0  0  0  0  0  0  0  0  0
  160.8480  201.8570  149.4330 C   0  0  0  0  0  0  0  0  0  0  0  0
  160.8640  202.4110  147.0810 C   0  0  0  0  0  0  0  0  0  0  0  0
  161.8560  203.8870  148.6780 N   0  0  0  0  0  0  0  0  0  0  0  0
  160.5000  202.0630  145.6810 C   0  0  0  0  0  1  0  0  0  0  0  0
  161.5540  203.5940  147.3800 C   0  0  0  0  0  0  0  0  0  0  0  0
  160.5040  200.9890  150.4610 O   0  0  0  0  0  1  0  0  0  0  0  0
  160.5190  201.5400  148.1150 C   0  0  0  0  0  3  0  0  0  0  0  0
  161.8570  203.4030  151.0450 N   0  0  0  0  0  2  0  0  0  0  0  0
  161.5130  203.0600  149.7030 C   0  0  0  0  0  0  0  0  0  0  0  0
  161.9350  204.4560  146.3460 O   0  0  0  0  0  0  0  0  0  0  0  0
  161.0860  205.4010  145.8360 C   0  0  0  0  0  0  0  0  0  0  0  0
  160.3430  206.2320  145.3770 C   0  0  0  0  0  3  0  0  0  0  0  0
  160.1970  208.0040  154.6960 C   0  0  0  0  0  2  0  0  0  0  0  0
  160.2050  207.1200  156.2830 S   0  0  0  0  0  0  0  0  0  0  0  0
  160.7600  208.6080  157.1650 C   0  0  0  0  0  2  0  0  0  0  0  0
  162.0860  209.0910  156.6020 C   0  0  0  0  0  2  0  0  0  0  0  0
  162.3120  210.4820  156.9640 N   0  0  0  0  0  0  0  0  0  0  0  0
  163.4810  210.8550  156.3870 O   0  0  0  0  0  1  0  0  0  0  0  0
  161.2660  211.2570  156.3230 C   0  0  0  0  0  1  0  0  0  0  0  0
  1  6  1  0  0  0  0
  1  3  1  0  0  0  0
  3  7  1  0  0  0  0
  4 10  1  0  0  0  0
  4  8  2  0  0  0  0
  5  4  1  0  0  0  0
  6 13  1  6  0  0  0
  6 11  1  0  0  0  0
  7 11  1  0  0  0  0
  7 26  1  0  0  0  0
  8  9  1  0  0  0  0
  9  3  2  0  0  0  0
  9  2  1  0  0  0  0
 10  1  2  0  0  0  0
 13 12  2  0  0  0  0
 14 22  2  0  0  0  0
 14 19  1  0  0  0  0
 15 18  1  0  0  0  0
 15 20  2  0  0  0  0
 16 22  1  0  0  0  0
 17 15  1  0  0  0  0
 18 16  2  0  0  0  0
 20 14  1  0  0  0  0
 21 13  1  0  0  0  0
 22 21  1  0  0  0  0
 23 18  1  0  0  0  0
 24 23  1  0  0  0  0
 25 24  3  0  0  0  0
 26 27  1  0  0  0  0
 27 28  1  0  0  0  0
 29 30  1  0  0  0  0
 29 28  1  0  0  0  0
 31 30  1  0  0  0  0
 32 30  1  0  0  0  0
M  END
>  <MODEL>
2

>  <REMARK>
 VINA RESULT:      -7.7      1.602      2.762
  Name = 
  9 active torsions:
  status: ('A' for Active; 'I' for Inactive)
    1  A    between atoms: C_1  and  O_3
    2  A    between atoms: O_3  and  C_17
    3  A    between atoms: N_6  and  C_15
    4  A    between atoms: C_7  and  S_16
    5  A    between atoms: C_7  and  N_23
    6  A    between atoms: C_15  and  C_30
    7  A    between atoms: S_16  and  C_30
    8  A    between atoms: C_18  and  C_21
    9  A    between atoms: C_18  and  N_27
                            x       y       z     vdW  Elec       q    Type
                         _______ _______ _______ _____ _____    ______ ____

>  <TORSDO>
F 9

$$$$
=
 OpenBabel11052411543D

 32 34  0  0  1  0  0  0  0  0999 V2000
  161.0030  209.2010  153.2690 C   0  0  0  0  0  0  0  0  0  0  0  0
  161.3100  205.5490  152.2910 C   0  0  0  0  0  1  0  0  0  0  0  0
  161.2110  208.0770  152.5110 C   0  0  0  0  0  0  0  0  0  0  0  0
  160.5580  207.8540  155.2090 C   0  0  0  0  0  0  0  0  0  0  0  0
  160.2320  207.7350  156.6530 C   0  0  0  0  0  1  0  0  0  0  0  0
  161.2380  210.4240  152.4570 C   0  0  1  0  0  3  0  0  0  0  0  0
  161.5770  208.4130  151.1800 N   0  0  0  0  0  0  0  0  0  0  0  0
  160.7540  206.6960  154.4360 C   0  0  0  0  0  3  0  0  0  0  0  0
  161.0840  206.7950  153.0750 C   0  0  0  0  0  0  0  0  0  0  0  0
  160.6860  209.1220  154.6250 C   0  0  0  0  0  3  0  0  0  0  0  0
  161.5730  209.8720  151.0580 C   0  0  0  0  0  2  0  0  0  0  0  0
  158.9860  211.0200  153.1390 C   0  0  0  0  0  2  0  0  0  0  0  0
  160.0550  211.3580  152.4300 C   0  0  0  0  0  0  0  0  0  0  0  0
  159.8790  213.3420  149.5060 C   0  0  0  0  0  0  0  0  0  0  0  0
  157.7140  213.9970  148.6520 C   0  0  0  0  0  0  0  0  0  0  0  0
  157.9680  213.3570  150.9410 N   0  0  0  0  0  0  0  0  0  0  0  0
  156.8710  214.4530  147.5130 C   0  0  0  0  0  1  0  0  0  0  0  0
  157.1670  213.7920  149.9260 C   0  0  0  0  0  0  0  0  0  0  0  0
  161.2350  213.1230  149.3010 O   0  0  0  0  0  1  0  0  0  0  0  0
  159.0770  213.7760  148.4490 C   0  0  0  0  0  3  0  0  0  0  0  0
  160.0990  212.6730  151.8530 N   0  0  0  0  0  2  0  0  0  0  0  0
  159.2970  213.1190  150.7600 C   0  0  0  0  0  0  0  0  0  0  0  0
  155.8090  214.0440  150.1470 O   0  0  0  0  0  0  0  0  0  0  0  0
  155.3040  214.2670  151.4000 C   0  0  0  0  0  0  0  0  0  0  0  0
  154.8610  214.4530  152.5060 C   0  0  0  0  0  3  0  0  0  0  0  0
  161.3660  207.5390  150.0340 C   0  0  0  0  0  2  0  0  0  0  0  0
  162.1430  208.2350  148.5460 S   0  0  0  0  0  0  0  0  0  0  0  0
  161.7010  206.7690  147.5690 C   0  0  0  0  0  2  0  0  0  0  0  0
  160.9930  205.7470  148.4420 C   0  0  0  0  0  2  0  0  0  0  0  0
  161.1110  204.4170  147.8620 N   0  0  0  0  0  0  0  0  0  0  0  0
  162.3450  204.3360  147.3080 O   0  0  0  0  0  1  0  0  0  0  0  0
  161.0860  203.4750  148.9660 C   0  0  0  0  0  1  0  0  0  0  0  0
  1 10  1  0  0  0  0
  2  9  1  0  0  0  0
  3  9  1  0  0  0  0
  3  1  2  0  0  0  0
  4  5  1  0  0  0  0
  6 13  1  6  0  0  0
  6  1  1  0  0  0  0
  7  3  1  0  0  0  0
  8  4  1  0  0  0  0
  9  8  2  0  0  0  0
 10  4  2  0  0  0  0
 11  7  1  0  0  0  0
 11  6  1  0  0  0  0
 13 12  2  0  0  0  0
 14 22  2  0  0  0  0
 15 18  1  0  0  0  0
 17 15  1  0  0  0  0
 18 23  1  0  0  0  0
 18 16  2  0  0  0  0
 19 14  1  0  0  0  0
 20 15  2  0  0  0  0
 20 14  1  0  0  0  0
 21 13  1  0  0  0  0
 22 16  1  0  0  0  0
 22 21  1  0  0  0  0
 23 24  1  0  0  0  0
 24 25  3  0  0  0  0
 26  7  1  0  0  0  0
 27 26  1  0  0  0  0
 28 29  1  0  0  0  0
 28 27  1  0  0  0  0
 30 29  1  0  0  0  0
 30 32  1  0  0  0  0
 31 30  1  0  0  0  0
M  END
>  <MODEL>
3

>  <REMARK>
 VINA RESULT:      -7.4      4.069      8.539
  Name = 
  9 active torsions:
  status: ('A' for Active; 'I' for Inactive)
    1  A    between atoms: C_1  and  O_3
    2  A    between atoms: O_3  and  C_17
    3  A    between atoms: N_6  and  C_15
    4  A    between atoms: C_7  and  S_16
    5  A    between atoms: C_7  and  N_23
    6  A    between atoms: C_15  and  C_30
    7  A    between atoms: S_16  and  C_30
    8  A    between atoms: C_18  and  C_21
    9  A    between atoms: C_18  and  N_27
                            x       y       z     vdW  Elec       q    Type
                         _______ _______ _______ _____ _____    ______ ____

>  <TORSDO>
F 9

$$$$
=
 OpenBabel11052411543D

 32 34  0  0  1  0  0  0  0  0999 V2000
  160.7470  210.2270  154.1350 C   0  0  0  0  0  0  0  0  0  0  0  0
  159.6560  213.2880  156.0920 C   0  0  0  0  0  1  0  0  0  0  0  0
  160.0950  211.3870  154.4660 C   0  0  0  0  0  0  0  0  0  0  0  0
  161.9260  210.2500  156.2290 C   0  0  0  0  0  0  0  0  0  0  0  0
  162.8850  209.6320  157.1800 C   0  0  0  0  0  1  0  0  0  0  0  0
  160.2750  209.7250  152.8170 C   0  0  1  0  0  3  0  0  0  0  0  0
  159.1750  211.7680  153.4520 N   0  0  0  0  0  0  0  0  0  0  0  0
  161.2750  211.4480  156.5690 C   0  0  0  0  0  3  0  0  0  0  0  0
  160.3490  212.0310  155.6890 C   0  0  0  0  0  0  0  0  0  0  0  0
  161.6600  209.6260  155.0020 C   0  0  0  0  0  3  0  0  0  0  0  0
  159.2630  210.7940  152.3630 C   0  0  0  0  0  2  0  0  0  0  0  0
  161.7420  210.5810  151.0840 C   0  0  0  0  0  2  0  0  0  0  0  0
  161.3880  209.5350  151.8180 C   0  0  0  0  0  0  0  0  0  0  0  0
  161.6210  206.0350  152.2760 C   0  0  0  0  0  0  0  0  0  0  0  0
  160.9240  204.5610  150.4910 C   0  0  0  0  0  0  0  0  0  0  0  0
  161.5240  206.8270  150.0240 N   0  0  0  0  0  0  0  0  0  0  0  0
  160.4570  203.2200  150.0470 C   0  0  0  0  0  1  0  0  0  0  0  0
  161.1110  205.6070  149.5770 C   0  0  0  0  0  0  0  0  0  0  0  0
  161.8830  206.2500  153.6230 O   0  0  0  0  0  1  0  0  0  0  0  0
  161.1880  204.7800  151.8440 C   0  0  0  0  0  3  0  0  0  0  0  0
  162.2100  208.3580  151.7650 N   0  0  0  0  0  2  0  0  0  0  0  0
  161.7700  207.0670  151.3420 C   0  0  0  0  0  0  0  0  0  0  0  0
  160.8810  205.3870  148.2140 O   0  0  0  0  0  0  0  0  0  0  0  0
  161.8980  205.1180  147.3390 C   0  0  0  0  0  0  0  0  0  0  0  0
  162.7900  204.8710  146.5650 C   0  0  0  0  0  3  0  0  0  0  0  0
  158.7300  213.1380  153.2320 C   0  0  0  0  0  2  0  0  0  0  0  0
  158.2970  213.3980  151.4870 S   0  0  0  0  0  0  0  0  0  0  0  0
  159.9460  214.0690  151.1260 C   0  0  0  0  0  2  0  0  0  0  0  0
  160.0720  214.3930  149.6470 C   0  0  0  0  0  2  0  0  0  0  0  0
  161.0970  213.5640  149.0330 N   0  0  0  0  0  0  0  0  0  0  0  0
  160.4720  212.7640  148.1340 O   0  0  0  0  0  1  0  0  0  0  0  0
  161.9560  214.4530  148.2730 C   0  0  0  0  0  1  0  0  0  0  0  0
  1  3  2  0  0  0  0
  1 10  1  0  0  0  0
  3  9  1  0  0  0  0
  4  8  1  0  0  0  0
  4  5  1  0  0  0  0
  6 13  1  6  0  0  0
  6  1  1  0  0  0  0
  7  3  1  0  0  0  0
  9  2  1  0  0  0  0
  9  8  2  0  0  0  0
 10  4  2  0  0  0  0
 11  6  1  0  0  0  0
 11  7  1  0  0  0  0
 12 13  2  0  0  0  0
 14 19  1  0  0  0  0
 15 20  2  0  0  0  0
 16 22  1  0  0  0  0
 17 15  1  0  0  0  0
 18 16  2  0  0  0  0
 18 15  1  0  0  0  0
 20 14  1  0  0  0  0
 21 13  1  0  0  0  0
 22 21  1  0  0  0  0
 22 14  2  0  0  0  0
 23 18  1  0  0  0  0
 24 23  1  0  0  0  0
 25 24  3  0  0  0  0
 26  7  1  0  0  0  0
 27 26  1  0  0  0  0
 28 27  1  0  0  0  0
 29 28  1  0  0  0  0
 30 29  1  0  0  0  0
 31 30  1  0  0  0  0
 32 30  1  0  0  0  0
M  END
>  <MODEL>
4

>  <REMARK>
 VINA RESULT:      -7.4      3.228      5.596
  Name = 
  9 active torsions:
  status: ('A' for Active; 'I' for Inactive)
    1  A    between atoms: C_1  and  O_3
    2  A    between atoms: O_3  and  C_17
    3  A    between atoms: N_6  and  C_15
    4  A    between atoms: C_7  and  S_16
    5  A    between atoms: C_7  and  N_23
    6  A    between atoms: C_15  and  C_30
    7  A    between atoms: S_16  and  C_30
    8  A    between atoms: C_18  and  C_21
    9  A    between atoms: C_18  and  N_27
                            x       y       z     vdW  Elec       q    Type
                         _______ _______ _______ _____ _____    ______ ____

>  <TORSDO>
F 9

$$$$
=
 OpenBabel11052411543D

 32 34  0  0  1  0  0  0  0  0999 V2000
  160.6730  209.8320  154.0010 C   0  0  0  0  0  0  0  0  0  0  0  0
  159.7760  212.7390  156.2670 C   0  0  0  0  0  1  0  0  0  0  0  0
  160.1520  211.0260  154.4300 C   0  0  0  0  0  0  0  0  0  0  0  0
  161.5600  209.3910  156.1910 C   0  0  0  0  0  0  0  0  0  0  0  0
  162.2900  208.5090  157.1360 C   0  0  0  0  0  1  0  0  0  0  0  0
  160.3110  209.5910  152.5790 C   0  0  1  0  0  3  0  0  0  0  0  0
  159.4350  211.6790  153.3920 N   0  0  0  0  0  0  0  0  0  0  0  0
  161.0440  210.6210  156.6350 C   0  0  0  0  0  3  0  0  0  0  0  0
  160.3320  211.4550  155.7570 C   0  0  0  0  0  0  0  0  0  0  0  0
  161.3720  208.9860  154.8620 C   0  0  0  0  0  3  0  0  0  0  0  0
  159.5270  210.8570  152.1840 C   0  0  0  0  0  2  0  0  0  0  0  0
  161.9850  210.4030  151.0210 C   0  0  0  0  0  2  0  0  0  0  0  0
  161.5070  209.3630  151.6900 C   0  0  0  0  0  0  0  0  0  0  0  0
  161.5480  205.8660  152.2250 C   0  0  0  0  0  0  0  0  0  0  0  0
  160.8400  204.3910  150.4450 C   0  0  0  0  0  0  0  0  0  0  0  0
  161.5690  206.6140  149.9560 N   0  0  0  0  0  0  0  0  0  0  0  0
  160.3220  203.0650  150.0110 C   0  0  0  0  0  1  0  0  0  0  0  0
  161.1100  205.4060  149.5180 C   0  0  0  0  0  0  0  0  0  0  0  0
  161.7740  206.0970  153.5760 O   0  0  0  0  0  1  0  0  0  0  0  0
  161.0680  204.6250  151.8020 C   0  0  0  0  0  3  0  0  0  0  0  0
  162.2700  208.1450  151.6890 N   0  0  0  0  0  2  0  0  0  0  0  0
  161.7810  206.8690  151.2760 C   0  0  0  0  0  0  0  0  0  0  0  0
  160.9170  205.1690  148.1520 O   0  0  0  0  0  0  0  0  0  0  0  0
  161.9650  205.0390  147.2800 C   0  0  0  0  0  0  0  0  0  0  0  0
  162.8800  204.9230  146.5040 C   0  0  0  0  0  3  0  0  0  0  0  0
  159.2190  213.1190  153.3340 C   0  0  0  0  0  2  0  0  0  0  0  0
  157.7330  213.5050  152.3620 S   0  0  0  0  0  0  0  0  0  0  0  0
  156.8900  214.1760  153.8250 C   0  0  0  0  0  2  0  0  0  0  0  0
  155.7880  213.2320  154.2780 C   0  0  0  0  0  2  0  0  0  0  0  0
  156.2850  212.3290  155.3040 N   0  0  0  0  0  0  0  0  0  0  0  0
  155.6110  212.6170  156.4440 O   0  0  0  0  0  1  0  0  0  0  0  0
  155.8880  210.9900  154.9110 C   0  0  0  0  0  1  0  0  0  0  0  0
  1  3  2  0  0  0  0
  1 10  1  0  0  0  0
  3  9  1  0  0  0  0
  4  8  1  0  0  0  0
  4  5  1  0  0  0  0
  6 13  1  6  0  0  0
  6  1  1  0  0  0  0
  7  3  1  0  0  0  0
  9  2  1  0  0  0  0
  9  8  2  0  0  0  0
 10  4  2  0  0  0  0
 11  6  1  0  0  0  0
 11  7  1  0  0  0  0
 12 13  2  0  0  0  0
 14 19  1  0  0  0  0
 15 20  2  0  0  0  0
 16 22  1  0  0  0  0
 17 15  1  0  0  0  0
 18 16  2  0  0  0  0
 18 15  1  0  0  0  0
 20 14  1  0  0  0  0
 21 13  1  0  0  0  0
 22 21  1  0  0  0  0
 22 14  2  0  0  0  0
 23 18  1  0  0  0  0
 24 23  1  0  0  0  0
 25 24  3  0  0  0  0
 26  7  1  0  0  0  0
 27 26  1  0  0  0  0
 27 28  1  0  0  0  0
 28 29  1  0  0  0  0
 29 30  1  0  0  0  0
 30 31  1  0  0  0  0
 32 30  1  0  0  0  0
M  END
>  <MODEL>
5

>  <REMARK>
 VINA RESULT:      -7.3      3.185      5.110
  Name = 
  9 active torsions:
  status: ('A' for Active; 'I' for Inactive)
    1  A    between atoms: C_1  and  O_3
    2  A    between atoms: O_3  and  C_17
    3  A    between atoms: N_6  and  C_15
    4  A    between atoms: C_7  and  S_16
    5  A    between atoms: C_7  and  N_23
    6  A    between atoms: C_15  and  C_30
    7  A    between atoms: S_16  and  C_30
    8  A    between atoms: C_18  and  C_21
    9  A    between atoms: C_18  and  N_27
                            x       y       z     vdW  Elec       q    Type
                         _______ _______ _______ _____ _____    ______ ____

>  <TORSDO>
F 9

$$$$
=
 OpenBabel11052411543D

 32 34  0  0  1  0  0  0  0  0999 V2000
  161.8470  208.0910  151.5720 C   0  0  0  0  0  0  0  0  0  0  0  0
  161.2130  207.1220  147.9600 C   0  0  0  0  0  1  0  0  0  0  0  0
  161.7330  208.1810  150.2090 C   0  0  0  0  0  0  0  0  0  0  0  0
  161.2210  205.7710  151.5060 C   0  0  0  0  0  0  0  0  0  0  0  0
  160.9700  204.4790  152.1940 C   0  0  0  0  0  1  0  0  0  0  0  0
  162.3130  209.3830  152.1400 C   0  0  1  0  0  3  0  0  0  0  0  0
  162.0820  209.4800  149.7470 N   0  0  0  0  0  0  0  0  0  0  0  0
  161.0850  205.8590  150.1090 C   0  0  0  0  0  3  0  0  0  0  0  0
  161.3410  207.0690  149.4430 C   0  0  0  0  0  0  0  0  0  0  0  0
  161.6090  206.8940  152.2490 C   0  0  0  0  0  3  0  0  0  0  0  0
  162.4170  210.3040  150.9100 C   0  0  0  0  0  2  0  0  0  0  0  0
  161.9230  210.6750  154.1570 C   0  0  0  0  0  2  0  0  0  0  0  0
  161.3870  209.9410  153.1910 C   0  0  0  0  0  0  0  0  0  0  0  0
  158.2750  211.2780  154.2140 C   0  0  0  0  0  0  0  0  0  0  0  0
  157.4120  213.2430  153.1030 C   0  0  0  0  0  0  0  0  0  0  0  0
  159.0370  211.8600  152.0250 N   0  0  0  0  0  0  0  0  0  0  0  0
  156.5200  214.4340  153.1180 C   0  0  0  0  0  1  0  0  0  0  0  0
  158.2200  212.9520  151.9950 C   0  0  0  0  0  0  0  0  0  0  0  0
  158.3010  210.4350  155.3180 O   0  0  0  0  0  1  0  0  0  0  0  0
  157.4390  212.3950  154.2110 C   0  0  0  0  0  3  0  0  0  0  0  0
  159.9550  209.8930  153.0880 N   0  0  0  0  0  2  0  0  0  0  0  0
  159.0910  211.0300  153.1030 C   0  0  0  0  0  0  0  0  0  0  0  0
  158.1740  213.7780  150.8660 O   0  0  0  0  0  0  0  0  0  0  0  0
  157.5710  213.3860  149.7020 C   0  0  0  0  0  0  0  0  0  0  0  0
  157.0480  213.0330  148.6740 C   0  0  0  0  0  3  0  0  0  0  0  0
  161.5950  210.0580  148.5020 C   0  0  0  0  0  2  0  0  0  0  0  0
  162.1740  211.7710  148.3220 S   0  0  0  0  0  0  0  0  0  0  0  0
  160.6310  212.2570  147.4930 C   0  0  0  0  0  2  0  0  0  0  0  0
  160.8070  213.5930  146.7930 C   0  0  0  0  0  2  0  0  0  0  0  0
  160.4000  213.4920  145.3990 N   0  0  0  0  0  0  0  0  0  0  0  0
  161.4440  212.9530  144.7210 O   0  0  0  0  0  1  0  0  0  0  0  0
  159.3230  212.5210  145.3470 C   0  0  0  0  0  1  0  0  0  0  0  0
  1  6  1  0  0  0  0
  1 10  1  0  0  0  0
  2  9  1  0  0  0  0
  3  1  2  0  0  0  0
  4  5  1  0  0  0  0
  4 10  2  0  0  0  0
  6 13  1  1  0  0  0
  7  3  1  0  0  0  0
  7 11  1  0  0  0  0
  8  4  1  0  0  0  0
  9  8  2  0  0  0  0
  9  3  1  0  0  0  0
 11  6  1  0  0  0  0
 13 12  2  0  0  0  0
 14 19  1  0  0  0  0
 15 17  1  0  0  0  0
 15 20  2  0  0  0  0
 16 22  1  0  0  0  0
 18 16  2  0  0  0  0
 18 15  1  0  0  0  0
 20 14  1  0  0  0  0
 21 22  1  0  0  0  0
 21 13  1  0  0  0  0
 22 14  2  0  0  0  0
 23 18  1  0  0  0  0
 24 23  1  0  0  0  0
 25 24  3  0  0  0  0
 26  7  1  0  0  0  0
 27 26  1  0  0  0  0
 28 27  1  0  0  0  0
 29 28  1  0  0  0  0
 30 29  1  0  0  0  0
 31 30  1  0  0  0  0
 32 30  1  0  0  0  0
M  END
>  <MODEL>
6

>  <REMARK>
 VINA RESULT:      -7.2      4.107      8.799
  Name = 
  9 active torsions:
  status: ('A' for Active; 'I' for Inactive)
    1  A    between atoms: C_1  and  O_3
    2  A    between atoms: O_3  and  C_17
    3  A    between atoms: N_6  and  C_15
    4  A    between atoms: C_7  and  S_16
    5  A    between atoms: C_7  and  N_23
    6  A    between atoms: C_15  and  C_30
    7  A    between atoms: S_16  and  C_30
    8  A    between atoms: C_18  and  C_21
    9  A    between atoms: C_18  and  N_27
                            x       y       z     vdW  Elec       q    Type
                         _______ _______ _______ _____ _____    ______ ____

>  <TORSDO>
F 9

$$$$
=
 OpenBabel11052411543D

 32 34  0  0  1  0  0  0  0  0999 V2000
  161.8180  210.7760  150.3330 C   0  0  0  0  0  0  0  0  0  0  0  0
  159.4420  213.5110  151.4560 C   0  0  0  0  0  1  0  0  0  0  0  0
  160.9350  211.4870  151.1030 C   0  0  0  0  0  0  0  0  0  0  0  0
  161.7210  212.4520  148.6130 C   0  0  0  0  0  0  0  0  0  0  0  0
  162.1560  212.9790  147.2940 C   0  0  0  0  0  1  0  0  0  0  0  0
  162.2690  209.5560  151.0530 C   0  0  1  0  0  3  0  0  0  0  0  0
  160.7050  210.8440  152.3500 N   0  0  0  0  0  0  0  0  0  0  0  0
  160.8010  213.1790  149.3890 C   0  0  0  0  0  3  0  0  0  0  0  0
  160.3970  212.7030  150.6470 C   0  0  0  0  0  0  0  0  0  0  0  0
  162.2400  211.2400  149.0860 C   0  0  0  0  0  3  0  0  0  0  0  0
  161.4780  209.6000  152.3740 C   0  0  0  0  0  2  0  0  0  0  0  0
  161.4900  208.3900  149.0720 C   0  0  0  0  0  2  0  0  0  0  0  0
  162.0200  208.2840  150.2830 C   0  0  0  0  0  0  0  0  0  0  0  0
  161.2450  205.0250  151.4220 C   0  0  0  0  0  0  0  0  0  0  0  0
  160.6900  203.3120  149.8100 C   0  0  0  0  0  0  0  0  0  0  0  0
  161.9360  205.2400  149.1450 N   0  0  0  0  0  0  0  0  0  0  0  0
  160.0350  202.0130  149.4960 C   0  0  0  0  0  1  0  0  0  0  0  0
  161.3620  204.0450  148.8230 C   0  0  0  0  0  0  0  0  0  0  0  0
  161.1940  205.5150  152.7210 O   0  0  0  0  0  1  0  0  0  0  0  0
  160.6410  203.8050  151.1140 C   0  0  0  0  0  3  0  0  0  0  0  0
  162.5070  206.9980  150.7020 N   0  0  0  0  0  2  0  0  0  0  0  0
  161.8840  205.7480  150.4070 C   0  0  0  0  0  0  0  0  0  0  0  0
  161.4470  203.5420  147.5200 O   0  0  0  0  0  0  0  0  0  0  0  0
  161.8910  204.3020  146.4720 C   0  0  0  0  0  0  0  0  0  0  0  0
  162.2720  204.9760  145.5480 C   0  0  0  0  0  3  0  0  0  0  0  0
  159.4980  211.0210  153.1460 C   0  0  0  0  0  2  0  0  0  0  0  0
  159.9070  211.6660  154.7950 S   0  0  0  0  0  0  0  0  0  0  0  0
  159.0940  210.2550  155.6020 C   0  0  0  0  0  2  0  0  0  0  0  0
  160.0710  209.5360  156.5170 C   0  0  0  0  0  2  0  0  0  0  0  0
  160.7480  208.4690  155.7970 N   0  0  0  0  0  0  0  0  0  0  0  0
  161.9210  208.2410  156.4370 O   0  0  0  0  0  1  0  0  0  0  0  0
  159.9420  207.2730  155.9650 C   0  0  0  0  0  1  0  0  0  0  0  0
  1  6  1  0  0  0  0
  1  3  1  0  0  0  0
  3  7  1  0  0  0  0
  4 10  1  0  0  0  0
  4  8  2  0  0  0  0
  5  4  1  0  0  0  0
  6 13  1  6  0  0  0
  6 11  1  0  0  0  0
  7 11  1  0  0  0  0
  7 26  1  0  0  0  0
  8  9  1  0  0  0  0
  9  3  2  0  0  0  0
  9  2  1  0  0  0  0
 10  1  2  0  0  0  0
 12 13  2  0  0  0  0
 13 21  1  0  0  0  0
 14 19  1  0  0  0  0
 15 20  2  0  0  0  0
 16 22  1  0  0  0  0
 17 15  1  0  0  0  0
 18 16  2  0  0  0  0
 18 15  1  0  0  0  0
 20 14  1  0  0  0  0
 22 21  1  0  0  0  0
 22 14  2  0  0  0  0
 23 18  1  0  0  0  0
 24 23  1  0  0  0  0
 25 24  3  0  0  0  0
 26 27  1  0  0  0  0
 27 28  1  0  0  0  0
 28 29  1  0  0  0  0
 30 32  1  0  0  0  0
 30 31  1  0  0  0  0
 30 29  1  0  0  0  0
M  END
>  <MODEL>
7

>  <REMARK>
 VINA RESULT:      -7.1      2.222      3.687
  Name = 
  9 active torsions:
  status: ('A' for Active; 'I' for Inactive)
    1  A    between atoms: C_1  and  O_3
    2  A    between atoms: O_3  and  C_17
    3  A    between atoms: N_6  and  C_15
    4  A    between atoms: C_7  and  S_16
    5  A    between atoms: C_7  and  N_23
    6  A    between atoms: C_15  and  C_30
    7  A    between atoms: S_16  and  C_30
    8  A    between atoms: C_18  and  C_21
    9  A    between atoms: C_18  and  N_27
                            x       y       z     vdW  Elec       q    Type
                         _______ _______ _______ _____ _____    ______ ____

>  <TORSDO>
F 9

$$$$
=
 OpenBabel11052411543D

 32 34  0  0  1  0  0  0  0  0999 V2000
  161.7170  207.7120  151.3730 C   0  0  0  0  0  0  0  0  0  0  0  0
  161.2080  206.9590  147.6900 C   0  0  0  0  0  1  0  0  0  0  0  0
  161.6510  207.8830  150.0140 C   0  0  0  0  0  0  0  0  0  0  0  0
  161.0850  205.4040  151.1490 C   0  0  0  0  0  0  0  0  0  0  0  0
  160.8060  204.0760  151.7510 C   0  0  0  0  0  1  0  0  0  0  0  0
  162.1680  208.9670  152.0310 C   0  0  1  0  0  3  0  0  0  0  0  0
  162.0210  209.2040  149.6410 N   0  0  0  0  0  0  0  0  0  0  0  0
  160.9990  205.5740  149.7560 C   0  0  0  0  0  3  0  0  0  0  0  0
  161.2830  206.8190  149.1710 C   0  0  0  0  0  0  0  0  0  0  0  0
  161.4510  206.4800  151.9700 C   0  0  0  0  0  3  0  0  0  0  0  0
  162.3180  209.9570  150.8610 C   0  0  0  0  0  2  0  0  0  0  0  0
  160.6180  208.5680  153.8560 C   0  0  0  0  0  2  0  0  0  0  0  0
  161.2070  209.4680  153.0800 C   0  0  0  0  0  0  0  0  0  0  0  0
  159.5380  212.5230  152.4520 C   0  0  0  0  0  0  0  0  0  0  0  0
  157.4050  212.9420  153.5070 C   0  0  0  0  0  0  0  0  0  0  0  0
  158.9170  211.3370  154.4310 N   0  0  0  0  0  0  0  0  0  0  0  0
  156.1090  213.6730  153.5300 C   0  0  0  0  0  1  0  0  0  0  0  0
  157.7260  211.9990  154.4940 C   0  0  0  0  0  0  0  0  0  0  0  0
  160.4490  212.7870  151.4370 O   0  0  0  0  0  1  0  0  0  0  0  0
  158.3210  213.2060  152.4890 C   0  0  0  0  0  3  0  0  0  0  0  0
  161.0560  210.8570  153.4140 N   0  0  0  0  0  2  0  0  0  0  0  0
  159.8170  211.5670  153.4360 C   0  0  0  0  0  0  0  0  0  0  0  0
  156.8280  211.7540  155.5380 O   0  0  0  0  0  0  0  0  0  0  0  0
  155.8560  210.7930  155.4530 C   0  0  0  0  0  0  0  0  0  0  0  0
  154.9940  209.9530  155.3820 C   0  0  0  0  0  3  0  0  0  0  0  0
  161.5810  209.8560  148.4160 C   0  0  0  0  0  2  0  0  0  0  0  0
  162.2620  211.5370  148.3050 S   0  0  0  0  0  0  0  0  0  0  0  0
  160.8490  212.0970  147.3090 C   0  0  0  0  0  2  0  0  0  0  0  0
  160.4250  213.4930  147.7310 C   0  0  0  0  0  2  0  0  0  0  0  0
  159.0050  213.6880  147.4830 N   0  0  0  0  0  0  0  0  0  0  0  0
  158.5580  212.5770  146.8480 O   0  0  0  0  0  1  0  0  0  0  0  0
  158.3540  213.7170  148.7800 C   0  0  0  0  0  1  0  0  0  0  0  0
  1 10  1  0  0  0  0
  1  6  1  0  0  0  0
  2  9  1  0  0  0  0
  3  1  2  0  0  0  0
  4  5  1  0  0  0  0
  4 10  2  0  0  0  0
  6 13  1  1  0  0  0
  7  3  1  0  0  0  0
  7 11  1  0  0  0  0
  8  4  1  0  0  0  0
  9  8  2  0  0  0  0
  9  3  1  0  0  0  0
 11  6  1  0  0  0  0
 13 21  1  0  0  0  0
 13 12  2  0  0  0  0
 14 20  1  0  0  0  0
 14 22  2  0  0  0  0
 15 17  1  0  0  0  0
 15 18  1  0  0  0  0
 16 18  2  0  0  0  0
 18 23  1  0  0  0  0
 19 14  1  0  0  0  0
 20 15  2  0  0  0  0
 21 22  1  0  0  0  0
 22 16  1  0  0  0  0
 24 23  1  0  0  0  0
 25 24  3  0  0  0  0
 26  7  1  0  0  0  0
 27 26  1  0  0  0  0
 28 29  1  0  0  0  0
 28 27  1  0  0  0  0
 30 29  1  0  0  0  0
 30 32  1  0  0  0  0
 31 30  1  0  0  0  0
M  END
>  <MODEL>
8

>  <REMARK>
 VINA RESULT:      -6.9      3.837      8.566
  Name = 
  9 active torsions:
  status: ('A' for Active; 'I' for Inactive)
    1  A    between atoms: C_1  and  O_3
    2  A    between atoms: O_3  and  C_17
    3  A    between atoms: N_6  and  C_15
    4  A    between atoms: C_7  and  S_16
    5  A    between atoms: C_7  and  N_23
    6  A    between atoms: C_15  and  C_30
    7  A    between atoms: S_16  and  C_30
    8  A    between atoms: C_18  and  C_21
    9  A    between atoms: C_18  and  N_27
                            x       y       z     vdW  Elec       q    Type
                         _______ _______ _______ _____ _____    ______ ____

>  <TORSDO>
F 9

$$$$
=
 OpenBabel11052411543D

 32 34  0  0  1  0  0  0  0  0999 V2000
  161.0990  206.7720  149.7260 C   0  0  0  0  0  0  0  0  0  0  0  0
  161.4440  203.9720  152.2620 C   0  0  0  0  0  1  0  0  0  0  0  0
  161.2060  206.1190  150.9280 C   0  0  0  0  0  0  0  0  0  0  0  0
  161.2090  204.6830  148.5420 C   0  0  0  0  0  0  0  0  0  0  0  0
  161.1880  203.9140  147.2720 C   0  0  0  0  0  1  0  0  0  0  0  0
  160.9320  208.2330  149.9430 C   0  0  1  0  0  3  0  0  0  0  0  0
  161.1370  207.0300  152.0170 N   0  0  0  0  0  0  0  0  0  0  0  0
  161.3350  204.0080  149.7690 C   0  0  0  0  0  3  0  0  0  0  0  0
  161.3350  204.7210  150.9790 C   0  0  0  0  0  0  0  0  0  0  0  0
  161.0860  206.0790  148.5150 C   0  0  0  0  0  3  0  0  0  0  0  0
  161.0080  208.3840  151.4740 C   0  0  0  0  0  2  0  0  0  0  0  0
  162.7030  208.4720  148.3000 C   0  0  0  0  0  2  0  0  0  0  0  0
  161.9760  209.0630  149.2390 C   0  0  0  0  0  0  0  0  0  0  0  0
  162.9420  212.1450  147.7950 C   0  0  0  0  0  0  0  0  0  0  0  0
  161.4080  213.2900  146.3190 C   0  0  0  0  0  0  0  0  0  0  0  0
  160.6000  211.6830  147.8930 N   0  0  0  0  0  0  0  0  0  0  0  0
  161.1760  214.2730  145.2260 C   0  0  0  0  0  1  0  0  0  0  0  0
  160.3460  212.5880  146.9040 C   0  0  0  0  0  0  0  0  0  0  0  0
  164.2370  211.9260  148.2480 O   0  0  0  0  0  1  0  0  0  0  0  0
  162.7080  213.0690  146.7750 C   0  0  0  0  0  3  0  0  0  0  0  0
  162.0810  210.4890  149.3830 N   0  0  0  0  0  2  0  0  0  0  0  0
  161.8630  211.4390  148.3400 C   0  0  0  0  0  0  0  0  0  0  0  0
  159.0350  212.8290  146.4770 O   0  0  0  0  0  0  0  0  0  0  0  0
  158.0030  213.0050  147.3580 C   0  0  0  0  0  0  0  0  0  0  0  0
  157.1000  213.1580  148.1430 C   0  0  0  0  0  3  0  0  0  0  0  0
  161.7140  206.7730  153.3290 C   0  0  0  0  0  2  0  0  0  0  0  0
  160.4560  206.9530  154.6280 S   0  0  0  0  0  0  0  0  0  0  0  0
  161.2450  208.4670  155.2510 C   0  0  0  0  0  2  0  0  0  0  0  0
  160.2930  209.6450  155.1300 C   0  0  0  0  0  2  0  0  0  0  0  0
  161.0260  210.8560  154.7920 N   0  0  0  0  0  0  0  0  0  0  0  0
  162.0130  210.4940  153.9350 O   0  0  0  0  0  1  0  0  0  0  0  0
  160.1150  211.7030  154.0450 C   0  0  0  0  0  1  0  0  0  0  0  0
  1  6  1  0  0  0  0
  1  3  1  0  0  0  0
  3  9  2  0  0  0  0
  3  7  1  0  0  0  0
  4  8  2  0  0  0  0
  5  4  1  0  0  0  0
  6 13  1  6  0  0  0
  6 11  1  0  0  0  0
  7 26  1  0  0  0  0
  8  9  1  0  0  0  0
  9  2  1  0  0  0  0
 10  4  1  0  0  0  0
 10  1  2  0  0  0  0
 11  7  1  0  0  0  0
 12 13  2  0  0  0  0
 13 21  1  0  0  0  0
 14 19  1  0  0  0  0
 14 22  2  0  0  0  0
 15 20  2  0  0  0  0
 15 18  1  0  0  0  0
 16 22  1  0  0  0  0
 17 15  1  0  0  0  0
 18 16  2  0  0  0  0
 20 14  1  0  0  0  0
 22 21  1  0  0  0  0
 23 18  1  0  0  0  0
 23 24  1  0  0  0  0
 24 25  3  0  0  0  0
 26 27  1  0  0  0  0
 27 28  1  0  0  0  0
 29 28  1  0  0  0  0
 30 29  1  0  0  0  0
 31 30  1  0  0  0  0
 32 30  1  0  0  0  0
M  END
>  <MODEL>
9

>  <REMARK>
 VINA RESULT:      -6.9      3.218      6.335
  Name = 
  9 active torsions:
  status: ('A' for Active; 'I' for Inactive)
    1  A    between atoms: C_1  and  O_3
    2  A    between atoms: O_3  and  C_17
    3  A    between atoms: N_6  and  C_15
    4  A    between atoms: C_7  and  S_16
    5  A    between atoms: C_7  and  N_23
    6  A    between atoms: C_15  and  C_30
    7  A    between atoms: S_16  and  C_30
    8  A    between atoms: C_18  and  C_21
    9  A    between atoms: C_18  and  N_27
                            x       y       z     vdW  Elec       q    Type
                         _______ _______ _______ _____ _____    ______ ____

>  <TORSDO>
F 9

$$$$
