=
 OpenBabel11042423093D

 37 40  0  0  1  0  0  0  0  0999 V2000
  161.7860  205.5650  151.3310 C   0  0  0  0  0  0  0  0  0  0  0  0
  162.1550  208.3360  148.9350 C   0  0  0  0  0  0  0  0  0  0  0  0
  161.4450  206.2330  149.0310 C   0  0  0  0  0  0  0  0  0  0  0  0
  162.1020  209.7270  148.6140 N   0  0  0  0  0  0  0  0  0  0  0  0
  161.5980  207.3970  148.1750 C   0  0  0  0  0  3  0  0  0  0  0  0
  160.9090  204.9910  148.7020 C   0  0  0  0  0  3  0  0  0  0  0  0
  161.7590  208.8480  151.2950 C   0  0  0  0  0  3  0  0  0  0  0  0
  161.8710  210.5920  149.5620 C   0  0  0  0  0  0  0  0  0  0  0  0
  161.2600  204.3020  151.0160 C   0  0  0  0  0  3  0  0  0  0  0  0
  160.8160  204.0160  149.7110 C   0  0  0  0  0  0  0  0  0  0  0  0
  161.8520  206.5270  150.3150 C   0  0  0  0  0  0  0  0  0  0  0  0
  161.8020  211.9780  149.2380 N   0  0  0  0  0  1  0  0  0  0  0  0
  161.5620  210.1300  150.9490 C   0  0  0  0  0  0  0  0  0  0  0  0
  162.4330  207.8970  150.3430 C   0  0  1  0  0  3  0  0  0  0  0  0
  160.9860  211.0710  151.9530 C   0  0  0  0  0  2  0  0  0  0  0  0
  159.7920  210.4330  152.6380 C   0  0  0  0  0  1  0  0  0  0  0  0
  160.1490  202.4120  149.3480 S   0  0  2  0  0  0  0  0  0  0  0  0
  160.5380  201.5410  150.5350 O   0  0  0  0  0  0  0  0  0  0  0  0
  161.3470  200.5980  147.8940 O   0  0  0  0  0  0  0  0  0  0  0  0
  161.1090  201.7910  147.9850 C   0  0  0  0  0  0  0  0  0  0  0  0
  161.5950  202.7290  146.9300 C   0  0  0  0  0  2  0  0  0  0  0  0
  160.8050  202.5500  145.6780 C   0  0  0  0  0  0  0  0  0  0  0  0
  160.3160  201.4250  145.3980 O   0  0  0  0  0  1  0  0  0  0  0  0
  160.6320  203.6180  144.8070 O   0  0  0  0  0  0  0  0  0  0  0  0
  162.3010  205.8420  152.7030 C   0  0  0  0  0  2  0  0  0  0  0  0
  161.1620  205.7840  153.7020 C   0  0  0  0  0  2  0  0  0  0  0  0
  160.7300  207.1960  154.0640 C   0  0  0  0  0  2  0  0  0  0  0  0
  161.0360  207.5230  155.5200 C   0  0  2  0  0  3  0  0  0  0  0  0
  159.9620  207.1580  156.3360 O   0  0  0  0  0  1  0  0  0  0  0  0
  161.3220  208.9410  155.6730 N   0  0  0  0  0  2  0  0  0  0  0  0
  160.4690  209.4390  156.7390 C   0  0  0  0  0  2  0  0  0  0  0  0
  159.7240  212.9860  155.4920 C   0  0  0  0  0  3  0  0  0  0  0  0
  157.6390  211.6420  155.4700 C   0  0  0  0  0  2  0  0  0  0  0  0
  158.4630  210.5240  155.9470 N   0  0  0  0  0  0  0  0  0  0  0  0
  159.7180  210.6330  156.2630 C   0  0  0  0  0  0  0  0  0  0  0  0
  160.4040  211.8730  156.0720 N   0  0  0  0  0  2  0  0  0  0  0  0
  158.4320  212.8910  155.1830 C   0  0  0  0  0  3  0  0  0  0  0  0
  1 25  1  0  0  0  0
  2 14  1  0  0  0  0
  3 11  1  0  0  0  0
  4  2  1  0  0  0  0
  4  8  2  0  0  0  0
  5  2  2  0  0  0  0
  5  3  1  0  0  0  0
  6  3  2  0  0  0  0
  6 10  1  0  0  0  0
  8 13  1  0  0  0  0
  9  1  1  0  0  0  0
 10  9  2  0  0  0  0
 11 14  1  0  0  0  0
 11  1  2  0  0  0  0
 12  8  1  0  0  0  0
 13  7  2  0  0  0  0
 13 15  1  0  0  0  0
 14  7  1  1  0  0  0
 15 16  1  0  0  0  0
 17 10  1  0  0  0  0
 17 18  2  1  0  0  0
 19 20  2  0  0  0  0
 20 17  1  0  0  0  0
 21 20  1  0  0  0  0
 22 21  1  0  0  0  0
 23 22  1  0  0  0  0
 24 22  2  0  0  0  0
 25 26  1  0  0  0  0
 26 27  1  0  0  0  0
 27 28  1  0  0  0  0
 28 30  1  0  0  0  0
 28 29  1  1  0  0  0
 30 31  1  0  0  0  0
 32 36  1  0  0  0  0
 33 34  1  0  0  0  0
 34 35  2  0  0  0  0
 35 31  1  0  0  0  0
 36 35  1  0  0  0  0
 37 33  1  0  0  0  0
 37 32  2  0  0  0  0
M  END
>  <MODEL>
1

>  <REMARK>
 VINA RESULT:      -8.2      0.000      0.000
  Name = 
  12 active torsions:
  status: ('A' for Active; 'I' for Inactive)
    1  A    between atoms: C_1  and  C_13
    2  A    between atoms: C_3  and  C_34
    3  A    between atoms: C_9  and  C_13
    4  A    between atoms: C_9  and  C_16
    5  A    between atoms: C_12  and  C_16
    6  A    between atoms: C_12  and  N_33
    7  A    between atoms: C_18  and  C_31
    8  A    between atoms: S_19  and  C_21
    9  A    between atoms: S_19  and  C_28
   10  A    between atoms: C_21  and  C_34
   11  A    between atoms: C_23  and  C_24
   12  A    between atoms: C_24  and  N_33
                            x       y       z     vdW  Elec       q    Type
                         _______ _______ _______ _____ _____    ______ ____

>  <TORSDO>
F 12

$$$$
=
 OpenBabel11042423093D

 37 40  0  0  1  0  0  0  0  0999 V2000
  161.9470  209.2720  152.3210 C   0  0  0  0  0  0  0  0  0  0  0  0
  161.5760  205.6180  152.0610 C   0  0  0  0  0  0  0  0  0  0  0  0
  161.1470  207.2920  153.4570 C   0  0  0  0  0  0  0  0  0  0  0  0
  161.3040  204.4400  151.3010 N   0  0  0  0  0  0  0  0  0  0  0  0
  161.0140  205.8610  153.2430 C   0  0  0  0  0  3  0  0  0  0  0  0
  160.7150  208.0390  154.5510 C   0  0  0  0  0  3  0  0  0  0  0  0
  161.5250  206.9680  150.0210 C   0  0  0  0  0  3  0  0  0  0  0  0
  161.1350  204.5370  150.0120 C   0  0  0  0  0  0  0  0  0  0  0  0
  161.5290  210.0410  153.4190 C   0  0  0  0  0  3  0  0  0  0  0  0
  160.9090  209.4310  154.5270 C   0  0  0  0  0  0  0  0  0  0  0  0
  161.7260  207.8890  152.3590 C   0  0  0  0  0  0  0  0  0  0  0  0
  160.8490  203.3630  149.2570 N   0  0  0  0  0  1  0  0  0  0  0  0
  161.1210  205.8770  149.3500 C   0  0  0  0  0  0  0  0  0  0  0  0
  162.1370  206.8370  151.3900 C   0  0  1  0  0  3  0  0  0  0  0  0
  160.6140  206.0300  147.9550 C   0  0  0  0  0  2  0  0  0  0  0  0
  161.7700  206.2870  147.0080 C   0  0  0  0  0  1  0  0  0  0  0  0
  160.3860  210.4330  155.8940 S   0  0  2  0  0  0  0  0  0  0  0  0
  159.9170  209.4460  156.9560 O   0  0  0  0  0  0  0  0  0  0  0  0
  157.8100  210.7930  155.6160 O   0  0  0  0  0  0  0  0  0  0  0  0
  158.9060  211.2560  155.3460 C   0  0  0  0  0  0  0  0  0  0  0  0
  159.0070  212.5360  154.5850 C   0  0  0  0  0  2  0  0  0  0  0  0
  158.2400  212.4410  153.3110 C   0  0  0  0  0  0  0  0  0  0  0  0
  158.5800  211.6060  152.4330 O   0  0  0  0  0  0  0  0  0  0  0  0
  157.1670  213.2920  153.0800 O   0  0  0  0  0  1  0  0  0  0  0  0
  162.6480  209.9200  151.1760 C   0  0  0  0  0  2  0  0  0  0  0  0
  161.6430  210.6380  150.2960 C   0  0  0  0  0  2  0  0  0  0  0  0
  162.0530  210.4990  148.8380 C   0  0  0  0  0  2  0  0  0  0  0  0
  162.1120  211.8510  148.1390 C   0  0  2  0  0  3  0  0  0  0  0  0
  163.4400  212.2290  147.9220 O   0  0  0  0  0  1  0  0  0  0  0  0
  161.4270  212.8620  148.9290 N   0  0  0  0  0  2  0  0  0  0  0  0
  160.9070  213.8540  148.0030 C   0  0  0  0  0  2  0  0  0  0  0  0
  157.2680  212.7770  147.4730 C   0  0  0  0  0  3  0  0  0  0  0  0
  158.5050  212.6090  145.3290 C   0  0  0  0  0  2  0  0  0  0  0  0
  159.6680  213.1220  146.0650 N   0  0  0  0  0  0  0  0  0  0  0  0
  159.6780  213.3320  147.3480 C   0  0  0  0  0  0  0  0  0  0  0  0
  158.4870  213.1500  148.1170 N   0  0  0  0  0  2  0  0  0  0  0  0
  157.2510  212.5400  146.1630 C   0  0  0  0  0  3  0  0  0  0  0  0
  1 11  2  0  0  0  0
  1  9  1  0  0  0  0
  2  5  2  0  0  0  0
  3  6  2  0  0  0  0
  4  2  1  0  0  0  0
  5  3  1  0  0  0  0
  8  4  2  0  0  0  0
  9 10  2  0  0  0  0
 10  6  1  0  0  0  0
 10 17  1  0  0  0  0
 11  3  1  0  0  0  0
 12  8  1  0  0  0  0
 13  8  1  0  0  0  0
 13  7  2  0  0  0  0
 14  7  1  6  0  0  0
 14  2  1  0  0  0  0
 14 11  1  0  0  0  0
 15 13  1  0  0  0  0
 16 15  1  0  0  0  0
 17 18  2  1  0  0  0
 20 19  2  0  0  0  0
 20 17  1  0  0  0  0
 21 20  1  0  0  0  0
 22 21  1  0  0  0  0
 23 22  2  0  0  0  0
 24 22  1  0  0  0  0
 25  1  1  0  0  0  0
 26 25  1  0  0  0  0
 27 26  1  0  0  0  0
 28 29  1  1  0  0  0
 28 27  1  0  0  0  0
 28 30  1  0  0  0  0
 31 30  1  0  0  0  0
 32 36  1  0  0  0  0
 33 34  1  0  0  0  0
 33 37  1  0  0  0  0
 34 35  2  0  0  0  0
 35 31  1  0  0  0  0
 35 36  1  0  0  0  0
 37 32  2  0  0  0  0
M  END
>  <MODEL>
2

>  <REMARK>
 VINA RESULT:      -8.0      4.723      8.442
  Name = 
  12 active torsions:
  status: ('A' for Active; 'I' for Inactive)
    1  A    between atoms: C_1  and  C_13
    2  A    between atoms: C_3  and  C_34
    3  A    between atoms: C_9  and  C_13
    4  A    between atoms: C_9  and  C_16
    5  A    between atoms: C_12  and  C_16
    6  A    between atoms: C_12  and  N_33
    7  A    between atoms: C_18  and  C_31
    8  A    between atoms: S_19  and  C_21
    9  A    between atoms: S_19  and  C_28
   10  A    between atoms: C_21  and  C_34
   11  A    between atoms: C_23  and  C_24
   12  A    between atoms: C_24  and  N_33
                            x       y       z     vdW  Elec       q    Type
                         _______ _______ _______ _____ _____    ______ ____

>  <TORSDO>
F 12

$$$$
=
 OpenBabel11042423093D

 37 40  0  0  1  0  0  0  0  0999 V2000
  161.9100  209.1990  152.3030 C   0  0  0  0  0  0  0  0  0  0  0  0
  161.5930  205.5510  151.9270 C   0  0  0  0  0  0  0  0  0  0  0  0
  161.1600  207.1700  153.3860 C   0  0  0  0  0  0  0  0  0  0  0  0
  161.3280  204.3940  151.1320 N   0  0  0  0  0  0  0  0  0  0  0  0
  161.0470  205.7450  153.1250 C   0  0  0  0  0  3  0  0  0  0  0  0
  160.7340  207.8730  154.5100 C   0  0  0  0  0  3  0  0  0  0  0  0
  161.4870  206.9660  149.9340 C   0  0  0  0  0  3  0  0  0  0  0  0
  161.1360  204.5310  149.8500 C   0  0  0  0  0  0  0  0  0  0  0  0
  161.4980  209.9240  153.4330 C   0  0  0  0  0  3  0  0  0  0  0  0
  160.9060  209.2680  154.5290 C   0  0  0  0  0  0  0  0  0  0  0  0
  161.7120  207.8130  152.2990 C   0  0  0  0  0  0  0  0  0  0  0  0
  160.8570  203.3790  149.0610 N   0  0  0  0  0  1  0  0  0  0  0  0
  161.0900  205.8920  149.2340 C   0  0  0  0  0  0  0  0  0  0  0  0
  162.1240  206.8010  151.2880 C   0  0  1  0  0  3  0  0  0  0  0  0
  160.5580  206.0830  147.8530 C   0  0  0  0  0  2  0  0  0  0  0  0
  161.7040  206.2070  146.8670 C   0  0  0  0  0  1  0  0  0  0  0  0
  160.3890  210.2150  155.9380 S   0  0  2  0  0  0  0  0  0  0  0  0
  159.8300  209.1950  156.9210 O   0  0  0  0  0  0  0  0  0  0  0  0
  157.8490  210.7870  155.6820 O   0  0  0  0  0  0  0  0  0  0  0  0
  158.9770  211.1520  155.3930 C   0  0  0  0  0  0  0  0  0  0  0  0
  159.1760  212.4080  154.6110 C   0  0  0  0  0  2  0  0  0  0  0  0
  158.3110  212.4020  153.3970 C   0  0  0  0  0  0  0  0  0  0  0  0
  158.6820  211.7900  152.3630 O   0  0  0  0  0  0  0  0  0  0  0  0
  157.1070  213.0950  153.3990 O   0  0  0  0  0  1  0  0  0  0  0  0
  162.5820  209.8960  151.1690 C   0  0  0  0  0  2  0  0  0  0  0  0
  161.5690  210.7160  150.3950 C   0  0  0  0  0  2  0  0  0  0  0  0
  162.0760  210.9480  148.9810 C   0  0  0  0  0  2  0  0  0  0  0  0
  162.0450  212.4240  148.6060 C   0  0  2  0  0  3  0  0  0  0  0  0
  160.7380  212.9160  148.6740 O   0  0  0  0  0  1  0  0  0  0  0  0
  162.5840  212.6190  147.2690 N   0  0  0  0  0  2  0  0  0  0  0  0
  161.6990  213.5440  146.5790 C   0  0  0  0  0  2  0  0  0  0  0  0
  162.4390  212.6200  142.9340 C   0  0  0  0  0  3  0  0  0  0  0  0
  160.0750  212.0840  143.4650 C   0  0  0  0  0  2  0  0  0  0  0  0
  160.3680  212.5580  144.8240 N   0  0  0  0  0  0  0  0  0  0  0  0
  161.4990  213.0940  145.1760 C   0  0  0  0  0  0  0  0  0  0  0  0
  162.5800  213.1710  144.2440 N   0  0  0  0  0  2  0  0  0  0  0  0
  161.2780  212.0870  142.5570 C   0  0  0  0  0  3  0  0  0  0  0  0
  1  9  1  0  0  0  0
  2  5  2  0  0  0  0
  3  6  2  0  0  0  0
  4  2  1  0  0  0  0
  5  3  1  0  0  0  0
  6 10  1  0  0  0  0
  8  4  2  0  0  0  0
  9 10  2  0  0  0  0
 10 17  1  0  0  0  0
 11  1  2  0  0  0  0
 11  3  1  0  0  0  0
 12  8  1  0  0  0  0
 13  8  1  0  0  0  0
 13  7  2  0  0  0  0
 14  7  1  6  0  0  0
 14  2  1  0  0  0  0
 14 11  1  0  0  0  0
 15 13  1  0  0  0  0
 16 15  1  0  0  0  0
 17 18  2  1  0  0  0
 20 19  2  0  0  0  0
 20 17  1  0  0  0  0
 21 20  1  0  0  0  0
 22 24  1  0  0  0  0
 22 21  1  0  0  0  0
 23 22  2  0  0  0  0
 25  1  1  0  0  0  0
 26 25  1  0  0  0  0
 27 26  1  0  0  0  0
 28 29  1  6  0  0  0
 28 27  1  0  0  0  0
 30 28  1  0  0  0  0
 31 30  1  0  0  0  0
 32 36  1  0  0  0  0
 33 34  1  0  0  0  0
 34 35  2  0  0  0  0
 35 31  1  0  0  0  0
 36 35  1  0  0  0  0
 37 32  2  0  0  0  0
 37 33  1  0  0  0  0
M  END
>  <MODEL>
3

>  <REMARK>
 VINA RESULT:      -7.9      4.895      9.055
  Name = 
  12 active torsions:
  status: ('A' for Active; 'I' for Inactive)
    1  A    between atoms: C_1  and  C_13
    2  A    between atoms: C_3  and  C_34
    3  A    between atoms: C_9  and  C_13
    4  A    between atoms: C_9  and  C_16
    5  A    between atoms: C_12  and  C_16
    6  A    between atoms: C_12  and  N_33
    7  A    between atoms: C_18  and  C_31
    8  A    between atoms: S_19  and  C_21
    9  A    between atoms: S_19  and  C_28
   10  A    between atoms: C_21  and  C_34
   11  A    between atoms: C_23  and  C_24
   12  A    between atoms: C_24  and  N_33
                            x       y       z     vdW  Elec       q    Type
                         _______ _______ _______ _____ _____    ______ ____

>  <TORSDO>
F 12

$$$$
=
 OpenBabel11042423093D

 37 40  0  0  1  0  0  0  0  0999 V2000
  161.7470  209.5430  152.1320 C   0  0  0  0  0  0  0  0  0  0  0  0
  161.4900  205.9940  153.0760 C   0  0  0  0  0  0  0  0  0  0  0  0
  160.9790  208.0150  153.8430 C   0  0  0  0  0  0  0  0  0  0  0  0
  161.2710  204.6230  152.7390 N   0  0  0  0  0  0  0  0  0  0  0  0
  160.8930  206.5890  154.1060 C   0  0  0  0  0  3  0  0  0  0  0  0
  160.4990  209.0620  154.6260 C   0  0  0  0  0  3  0  0  0  0  0  0
  161.4470  206.6010  150.7060 C   0  0  0  0  0  3  0  0  0  0  0  0
  161.1290  204.2880  151.4870 C   0  0  0  0  0  0  0  0  0  0  0  0
  161.2810  210.6130  152.9130 C   0  0  0  0  0  3  0  0  0  0  0  0
  160.6530  210.3760  154.1510 C   0  0  0  0  0  0  0  0  0  0  0  0
  161.5660  208.2420  152.6170 C   0  0  0  0  0  0  0  0  0  0  0  0
  160.8960  202.9230  151.1530 N   0  0  0  0  0  1  0  0  0  0  0  0
  161.0920  205.3380  150.4230 C   0  0  0  0  0  0  0  0  0  0  0  0
  162.0310  206.9460  152.0500 C   0  0  1  0  0  3  0  0  0  0  0  0
  160.6140  205.0100  149.0490 C   0  0  0  0  0  2  0  0  0  0  0  0
  160.5760  206.2650  148.1990 C   0  0  0  0  0  1  0  0  0  0  0  0
  160.0680  211.7500  155.1090 S   0  0  2  0  0  0  0  0  0  0  0  0
  159.3400  211.1290  156.2940 O   0  0  0  0  0  0  0  0  0  0  0  0
  158.8900  213.6730  153.7830 O   0  0  0  0  0  0  0  0  0  0  0  0
  158.7900  212.5070  154.1300 C   0  0  0  0  0  0  0  0  0  0  0  0
  157.6080  211.7020  153.7000 C   0  0  0  0  0  2  0  0  0  0  0  0
  156.5460  211.7470  154.7440 C   0  0  0  0  0  0  0  0  0  0  0  0
  155.9850  210.6850  155.1170 O   0  0  0  0  0  0  0  0  0  0  0  0
  156.1550  212.9650  155.2860 O   0  0  0  0  0  1  0  0  0  0  0  0
  162.4560  209.8060  150.8470 C   0  0  0  0  0  2  0  0  0  0  0  0
  161.8030  210.9700  150.1270 C   0  0  0  0  0  2  0  0  0  0  0  0
  161.9940  210.8120  148.6270 C   0  0  0  0  0  2  0  0  0  0  0  0
  162.3060  212.1440  147.9560 C   0  0  2  0  0  3  0  0  0  0  0  0
  163.6840  212.2830  147.7690 O   0  0  0  0  0  1  0  0  0  0  0  0
  161.7950  213.2470  148.7560 N   0  0  0  0  0  2  0  0  0  0  0  0
  160.8560  213.9810  147.9250 C   0  0  0  0  0  2  0  0  0  0  0  0
  157.0880  213.2830  147.9910 C   0  0  0  0  0  3  0  0  0  0  0  0
  157.9370  213.4850  150.3130 C   0  0  0  0  0  2  0  0  0  0  0  0
  159.2630  213.6830  149.7140 N   0  0  0  0  0  0  0  0  0  0  0  0
  159.4730  213.7810  148.4360 C   0  0  0  0  0  0  0  0  0  0  0  0
  158.3940  213.6080  147.5130 N   0  0  0  0  0  2  0  0  0  0  0  0
  156.8580  213.2000  149.3000 C   0  0  0  0  0  3  0  0  0  0  0  0
  1 11  2  0  0  0  0
  1  9  1  0  0  0  0
  2  5  2  0  0  0  0
  3  5  1  0  0  0  0
  3  6  2  0  0  0  0
  4  2  1  0  0  0  0
  8  4  2  0  0  0  0
  9 10  2  0  0  0  0
 10  6  1  0  0  0  0
 10 17  1  0  0  0  0
 11  3  1  0  0  0  0
 12  8  1  0  0  0  0
 13  7  2  0  0  0  0
 13  8  1  0  0  0  0
 14  7  1  6  0  0  0
 14 11  1  0  0  0  0
 14  2  1  0  0  0  0
 15 13  1  0  0  0  0
 16 15  1  0  0  0  0
 17 18  2  1  0  0  0
 19 20  2  0  0  0  0
 20 17  1  0  0  0  0
 21 20  1  0  0  0  0
 21 22  1  0  0  0  0
 22 23  2  0  0  0  0
 22 24  1  0  0  0  0
 25  1  1  0  0  0  0
 26 25  1  0  0  0  0
 27 26  1  0  0  0  0
 28 29  1  1  0  0  0
 28 27  1  0  0  0  0
 28 30  1  0  0  0  0
 31 35  1  0  0  0  0
 31 30  1  0  0  0  0
 32 37  2  0  0  0  0
 34 33  1  0  0  0  0
 35 34  2  0  0  0  0
 36 32  1  0  0  0  0
 36 35  1  0  0  0  0
 37 33  1  0  0  0  0
M  END
>  <MODEL>
4

>  <REMARK>
 VINA RESULT:      -7.9      4.795      8.558
  Name = 
  12 active torsions:
  status: ('A' for Active; 'I' for Inactive)
    1  A    between atoms: C_1  and  C_13
    2  A    between atoms: C_3  and  C_34
    3  A    between atoms: C_9  and  C_13
    4  A    between atoms: C_9  and  C_16
    5  A    between atoms: C_12  and  C_16
    6  A    between atoms: C_12  and  N_33
    7  A    between atoms: C_18  and  C_31
    8  A    between atoms: S_19  and  C_21
    9  A    between atoms: S_19  and  C_28
   10  A    between atoms: C_21  and  C_34
   11  A    between atoms: C_23  and  C_24
   12  A    between atoms: C_24  and  N_33
                            x       y       z     vdW  Elec       q    Type
                         _______ _______ _______ _____ _____    ______ ____

>  <TORSDO>
F 12

$$$$
=
 OpenBabel11042423093D

 37 40  0  0  1  0  0  0  0  0999 V2000
  161.0960  211.0130  151.8510 C   0  0  0  0  0  0  0  0  0  0  0  0
  160.0400  210.0930  155.2550 C   0  0  0  0  0  0  0  0  0  0  0  0
  159.4900  211.4700  153.6010 C   0  0  0  0  0  0  0  0  0  0  0  0
  159.8280  209.1190  156.2790 N   0  0  0  0  0  0  0  0  0  0  0  0
  159.1320  211.0110  154.9320 C   0  0  0  0  0  3  0  0  0  0  0  0
  158.8460  212.4290  152.8230 C   0  0  0  0  0  3  0  0  0  0  0  0
  161.0960  208.4010  153.8390 C   0  0  0  0  0  3  0  0  0  0  0  0
  160.2020  207.8870  156.0740 C   0  0  0  0  0  0  0  0  0  0  0  0
  160.4680  211.9850  151.0550 C   0  0  0  0  0  3  0  0  0  0  0  0
  159.3440  212.6860  151.5330 C   0  0  0  0  0  0  0  0  0  0  0  0
  160.5710  210.7610  153.1250 C   0  0  0  0  0  0  0  0  0  0  0  0
  159.9760  206.9130  157.0890 N   0  0  0  0  0  1  0  0  0  0  0  0
  160.7510  207.4740  154.7470 C   0  0  0  0  0  0  0  0  0  0  0  0
  161.0790  209.8620  154.1970 C   0  0  1  0  0  3  0  0  0  0  0  0
  160.8780  206.0300  154.3930 C   0  0  0  0  0  2  0  0  0  0  0  0
  161.2480  205.8850  152.9290 C   0  0  0  0  0  1  0  0  0  0  0  0
  158.5700  213.9020  150.5000 S   0  0  2  0  0  0  0  0  0  0  0  0
  157.2100  213.3150  150.1430 O   0  0  0  0  0  0  0  0  0  0  0  0
  160.5720  214.4520  148.9090 O   0  0  0  0  0  0  0  0  0  0  0  0
  159.4900  213.8920  148.9770 C   0  0  0  0  0  0  0  0  0  0  0  0
  158.9530  213.1650  147.7890 C   0  0  0  0  0  2  0  0  0  0  0  0
  160.0660  212.5410  147.0190 C   0  0  0  0  0  0  0  0  0  0  0  0
  160.1390  212.7050  145.7730 O   0  0  0  0  0  0  0  0  0  0  0  0
  161.0090  211.7570  147.6710 O   0  0  0  0  0  1  0  0  0  0  0  0
  162.3150  210.3130  151.3550 C   0  0  0  0  0  2  0  0  0  0  0  0
  161.9930  209.5550  150.0820 C   0  0  0  0  0  2  0  0  0  0  0  0
  162.1610  208.0630  150.3220 C   0  0  0  0  0  2  0  0  0  0  0  0
  161.9720  207.2620  149.0400 C   0  0  2  0  0  3  0  0  0  0  0  0
  161.4320  208.0710  148.0360 O   0  0  0  0  0  1  0  0  0  0  0  0
  161.1070  206.1180  149.2790 N   0  0  0  0  0  2  0  0  0  0  0  0
  161.4460  205.1070  148.2920 C   0  0  0  0  0  2  0  0  0  0  0  0
  161.0390  201.3040  148.5220 C   0  0  0  0  0  3  0  0  0  0  0  0
  160.8520  202.2980  150.7870 C   0  0  0  0  0  2  0  0  0  0  0  0
  161.1000  203.5930  150.1390 N   0  0  0  0  0  0  0  0  0  0  0  0
  161.1950  203.7530  148.8530 C   0  0  0  0  0  0  0  0  0  0  0  0
  161.1470  202.6210  147.9810 N   0  0  0  0  0  2  0  0  0  0  0  0
  160.9210  201.1300  149.8370 C   0  0  0  0  0  3  0  0  0  0  0  0
  1 11  1  0  0  0  0
  2  4  1  0  0  0  0
  3  5  1  0  0  0  0
  5  2  2  0  0  0  0
  6  3  1  0  0  0  0
  7 13  2  0  0  0  0
  8  4  2  0  0  0  0
  8 12  1  0  0  0  0
  9 10  1  0  0  0  0
  9  1  2  0  0  0  0
 10  6  2  0  0  0  0
 11  3  2  0  0  0  0
 11 14  1  0  0  0  0
 13  8  1  0  0  0  0
 14  7  1  6  0  0  0
 14  2  1  0  0  0  0
 15 13  1  0  0  0  0
 16 15  1  0  0  0  0
 17 18  2  6  0  0  0
 17 10  1  0  0  0  0
 19 20  2  0  0  0  0
 20 17  1  0  0  0  0
 21 20  1  0  0  0  0
 22 24  1  0  0  0  0
 22 21  1  0  0  0  0
 23 22  2  0  0  0  0
 25  1  1  0  0  0  0
 26 27  1  0  0  0  0
 26 25  1  0  0  0  0
 28 29  1  6  0  0  0
 28 30  1  0  0  0  0
 28 27  1  0  0  0  0
 31 35  1  0  0  0  0
 31 30  1  0  0  0  0
 32 37  2  0  0  0  0
 34 33  1  0  0  0  0
 35 34  2  0  0  0  0
 36 32  1  0  0  0  0
 36 35  1  0  0  0  0
 37 33  1  0  0  0  0
M  END
>  <MODEL>
5

>  <REMARK>
 VINA RESULT:      -7.3      4.427      8.924
  Name = 
  12 active torsions:
  status: ('A' for Active; 'I' for Inactive)
    1  A    between atoms: C_1  and  C_13
    2  A    between atoms: C_3  and  C_34
    3  A    between atoms: C_9  and  C_13
    4  A    between atoms: C_9  and  C_16
    5  A    between atoms: C_12  and  C_16
    6  A    between atoms: C_12  and  N_33
    7  A    between atoms: C_18  and  C_31
    8  A    between atoms: S_19  and  C_21
    9  A    between atoms: S_19  and  C_28
   10  A    between atoms: C_21  and  C_34
   11  A    between atoms: C_23  and  C_24
   12  A    between atoms: C_24  and  N_33
                            x       y       z     vdW  Elec       q    Type
                         _______ _______ _______ _____ _____    ______ ____

>  <TORSDO>
F 12

$$$$
=
 OpenBabel11042423093D

 37 40  0  0  1  0  0  0  0  0999 V2000
  161.8280  209.2280  150.4900 C   0  0  0  0  0  0  0  0  0  0  0  0
  161.7950  205.5490  150.3540 C   0  0  0  0  0  0  0  0  0  0  0  0
  161.3420  207.2200  151.7470 C   0  0  0  0  0  0  0  0  0  0  0  0
  161.5680  204.3260  149.6520 N   0  0  0  0  0  0  0  0  0  0  0  0
  161.3310  205.7760  151.5800 C   0  0  0  0  0  3  0  0  0  0  0  0
  160.9480  207.9580  152.8600 C   0  0  0  0  0  3  0  0  0  0  0  0
  161.4120  206.8190  148.2980 C   0  0  0  0  0  3  0  0  0  0  0  0
  161.2640  204.3640  148.3850 C   0  0  0  0  0  0  0  0  0  0  0  0
  161.4470  209.9890  151.6060 C   0  0  0  0  0  3  0  0  0  0  0  0
  161.0010  209.3600  152.7840 C   0  0  0  0  0  0  0  0  0  0  0  0
  161.7500  207.8330  150.5820 C   0  0  0  0  0  0  0  0  0  0  0  0
  161.0230  203.1430  147.6900 N   0  0  0  0  0  1  0  0  0  0  0  0
  161.0540  205.6730  147.6970 C   0  0  0  0  0  0  0  0  0  0  0  0
  162.1650  206.7940  149.6010 C   0  0  1  0  0  3  0  0  0  0  0  0
  160.4000  205.7310  146.3570 C   0  0  0  0  0  2  0  0  0  0  0  0
  161.4530  205.7940  145.2670 C   0  0  0  0  0  1  0  0  0  0  0  0
  160.5180  210.3520  154.1740 S   0  0  2  0  0  0  0  0  0  0  0  0
  159.7620  209.4040  155.0970 O   0  0  0  0  0  0  0  0  0  0  0  0
  158.4400  211.0840  152.7630 O   0  0  0  0  0  0  0  0  0  0  0  0
  159.2830  211.4740  153.5550 C   0  0  0  0  0  0  0  0  0  0  0  0
  159.2550  212.8870  154.0350 C   0  0  0  0  0  2  0  0  0  0  0  0
  159.0950  212.9260  155.5160 C   0  0  0  0  0  0  0  0  0  0  0  0
  158.0070  213.3070  156.0210 O   0  0  0  0  0  0  0  0  0  0  0  0
  160.1540  212.5670  156.3400 O   0  0  0  0  0  1  0  0  0  0  0  0
  162.3470  209.9020  149.2650 C   0  0  0  0  0  2  0  0  0  0  0  0
  162.1270  211.3980  149.3670 C   0  0  0  0  0  2  0  0  0  0  0  0
  162.7020  212.0830  148.1380 C   0  0  0  0  0  2  0  0  0  0  0  0
  162.0700  213.4490  147.9060 C   0  0  2  0  0  3  0  0  0  0  0  0
  160.7550  213.4630  148.3780 O   0  0  0  0  0  1  0  0  0  0  0  0
  162.0980  213.7880  146.4920 N   0  0  0  0  0  2  0  0  0  0  0  0
  160.8220  213.3800  145.9270 C   0  0  0  0  0  2  0  0  0  0  0  0
  162.5190  212.5730  142.5870 C   0  0  0  0  0  3  0  0  0  0  0  0
  160.1660  211.7910  142.5340 C   0  0  0  0  0  2  0  0  0  0  0  0
  160.0680  212.2790  143.9160 N   0  0  0  0  0  0  0  0  0  0  0  0
  161.0170  212.9250  144.5240 C   0  0  0  0  0  0  0  0  0  0  0  0
  162.2800  213.1230  143.8830 N   0  0  0  0  0  2  0  0  0  0  0  0
  161.5470  211.9260  141.9460 C   0  0  0  0  0  3  0  0  0  0  0  0
  1 11  2  0  0  0  0
  1  9  1  0  0  0  0
  2  5  2  0  0  0  0
  3  6  2  0  0  0  0
  4  2  1  0  0  0  0
  5  3  1  0  0  0  0
  8  4  2  0  0  0  0
  9 10  2  0  0  0  0
 10  6  1  0  0  0  0
 10 17  1  0  0  0  0
 11  3  1  0  0  0  0
 12  8  1  0  0  0  0
 13  7  2  0  0  0  0
 13  8  1  0  0  0  0
 14  7  1  6  0  0  0
 14  2  1  0  0  0  0
 14 11  1  0  0  0  0
 15 13  1  0  0  0  0
 16 15  1  0  0  0  0
 17 18  2  1  0  0  0
 19 20  2  0  0  0  0
 20 21  1  0  0  0  0
 20 17  1  0  0  0  0
 21 22  1  0  0  0  0
 22 23  2  0  0  0  0
 22 24  1  0  0  0  0
 25 26  1  0  0  0  0
 25  1  1  0  0  0  0
 27 26  1  0  0  0  0
 28 27  1  0  0  0  0
 28 29  1  6  0  0  0
 30 28  1  0  0  0  0
 31 30  1  0  0  0  0
 32 36  1  0  0  0  0
 33 34  1  0  0  0  0
 34 35  2  0  0  0  0
 35 31  1  0  0  0  0
 36 35  1  0  0  0  0
 37 33  1  0  0  0  0
 37 32  2  0  0  0  0
M  END
>  <MODEL>
6

>  <REMARK>
 VINA RESULT:      -6.7      5.002      9.480
  Name = 
  12 active torsions:
  status: ('A' for Active; 'I' for Inactive)
    1  A    between atoms: C_1  and  C_13
    2  A    between atoms: C_3  and  C_34
    3  A    between atoms: C_9  and  C_13
    4  A    between atoms: C_9  and  C_16
    5  A    between atoms: C_12  and  C_16
    6  A    between atoms: C_12  and  N_33
    7  A    between atoms: C_18  and  C_31
    8  A    between atoms: S_19  and  C_21
    9  A    between atoms: S_19  and  C_28
   10  A    between atoms: C_21  and  C_34
   11  A    between atoms: C_23  and  C_24
   12  A    between atoms: C_24  and  N_33
                            x       y       z     vdW  Elec       q    Type
                         _______ _______ _______ _____ _____    ______ ____

>  <TORSDO>
F 12

$$$$
=
 OpenBabel11042423093D

 37 40  0  0  1  0  0  0  0  0999 V2000
  161.1260  206.6460  150.8160 C   0  0  0  0  0  0  0  0  0  0  0  0
  160.7620  205.4010  147.3700 C   0  0  0  0  0  0  0  0  0  0  0  0
  161.4440  207.1990  148.4830 C   0  0  0  0  0  0  0  0  0  0  0  0
  160.8310  204.3480  146.4070 N   0  0  0  0  0  0  0  0  0  0  0  0
  161.2960  206.6030  147.1660 C   0  0  0  0  0  3  0  0  0  0  0  0
  161.9580  208.4540  148.8030 C   0  0  0  0  0  3  0  0  0  0  0  0
  161.1990  203.8050  149.1730 C   0  0  0  0  0  3  0  0  0  0  0  0
  161.0880  203.1340  146.8070 C   0  0  0  0  0  0  0  0  0  0  0  0
  161.6300  207.9110  151.1590 C   0  0  0  0  0  3  0  0  0  0  0  0
  162.0520  208.8100  150.1600 C   0  0  0  0  0  0  0  0  0  0  0  0
  161.0600  206.3060  149.4590 C   0  0  0  0  0  0  0  0  0  0  0  0
  161.1710  202.0870  145.8440 N   0  0  0  0  0  1  0  0  0  0  0  0
  161.4090  202.8610  148.2410 C   0  0  0  0  0  0  0  0  0  0  0  0
  160.4980  205.0880  148.8140 C   0  0  1  0  0  3  0  0  0  0  0  0
  162.0130  201.5600  148.6500 C   0  0  0  0  0  2  0  0  0  0  0  0
  161.2060  200.9450  149.7780 C   0  0  0  0  0  1  0  0  0  0  0  0
  162.6910  210.3970  150.6270 S   0  0  2  0  0  0  0  0  0  0  0  0
  162.0310  210.7160  151.9630 O   0  0  0  0  0  0  0  0  0  0  0  0
  160.9550  212.1490  149.7550 O   0  0  0  0  0  0  0  0  0  0  0  0
  161.9840  211.5560  149.4760 C   0  0  0  0  0  0  0  0  0  0  0  0
  162.6740  211.8310  148.1810 C   0  0  0  0  0  2  0  0  0  0  0  0
  162.2280  213.1400  147.6270 C   0  0  0  0  0  0  0  0  0  0  0  0
  162.7070  214.2120  148.0820 O   0  0  0  0  0  1  0  0  0  0  0  0
  161.2650  213.1810  146.6280 O   0  0  0  0  0  0  0  0  0  0  0  0
  160.6350  205.7220  151.8780 C   0  0  0  0  0  2  0  0  0  0  0  0
  161.4830  205.8740  153.1250 C   0  0  0  0  0  2  0  0  0  0  0  0
  160.6290  206.4240  154.2570 C   0  0  0  0  0  2  0  0  0  0  0  0
  161.2060  207.7160  154.8210 C   0  0  2  0  0  3  0  0  0  0  0  0
  161.1540  207.7030  156.2180 O   0  0  0  0  0  1  0  0  0  0  0  0
  160.4790  208.8650  154.3040 N   0  0  0  0  0  2  0  0  0  0  0  0
  160.7000  209.9650  155.2280 C   0  0  0  0  0  2  0  0  0  0  0  0
  158.8130  213.1110  154.1190 C   0  0  0  0  0  3  0  0  0  0  0  0
  157.2840  211.6310  155.3940 C   0  0  0  0  0  2  0  0  0  0  0  0
  158.4180  210.7020  155.4980 N   0  0  0  0  0  0  0  0  0  0  0  0
  159.6160  210.9730  155.0760 C   0  0  0  0  0  0  0  0  0  0  0  0
  159.8780  212.1980  154.3860 N   0  0  0  0  0  2  0  0  0  0  0  0
  157.5850  212.8530  154.5650 C   0  0  0  0  0  3  0  0  0  0  0  0
  1  9  1  0  0  0  0
  1 25  1  0  0  0  0
  2 14  1  0  0  0  0
  3  6  2  0  0  0  0
  3 11  1  0  0  0  0
  4  8  2  0  0  0  0
  4  2  1  0  0  0  0
  5  2  2  0  0  0  0
  5  3  1  0  0  0  0
  6 10  1  0  0  0  0
  8 13  1  0  0  0  0
 10 17  1  0  0  0  0
 10  9  2  0  0  0  0
 11  1  2  0  0  0  0
 12  8  1  0  0  0  0
 13 15  1  0  0  0  0
 13  7  2  0  0  0  0
 14  7  1  1  0  0  0
 14 11  1  0  0  0  0
 15 16  1  0  0  0  0
 17 18  2  1  0  0  0
 20 19  2  0  0  0  0
 20 17  1  0  0  0  0
 21 20  1  0  0  0  0
 22 23  1  0  0  0  0
 22 21  1  0  0  0  0
 24 22  2  0  0  0  0
 25 26  1  0  0  0  0
 26 27  1  0  0  0  0
 27 28  1  0  0  0  0
 28 29  1  1  0  0  0
 30 28  1  0  0  0  0
 30 31  1  0  0  0  0
 32 36  1  0  0  0  0
 32 37  2  0  0  0  0
 33 34  1  0  0  0  0
 35 31  1  0  0  0  0
 35 34  2  0  0  0  0
 36 35  1  0  0  0  0
 37 33  1  0  0  0  0
M  END
>  <MODEL>
7

>  <REMARK>
 VINA RESULT:      -6.6      4.036      6.321
  Name = 
  12 active torsions:
  status: ('A' for Active; 'I' for Inactive)
    1  A    between atoms: C_1  and  C_13
    2  A    between atoms: C_3  and  C_34
    3  A    between atoms: C_9  and  C_13
    4  A    between atoms: C_9  and  C_16
    5  A    between atoms: C_12  and  C_16
    6  A    between atoms: C_12  and  N_33
    7  A    between atoms: C_18  and  C_31
    8  A    between atoms: S_19  and  C_21
    9  A    between atoms: S_19  and  C_28
   10  A    between atoms: C_21  and  C_34
   11  A    between atoms: C_23  and  C_24
   12  A    between atoms: C_24  and  N_33
                            x       y       z     vdW  Elec       q    Type
                         _______ _______ _______ _____ _____    ______ ____

>  <TORSDO>
F 12

$$$$
=
 OpenBabel11042423093D

 37 40  0  0  1  0  0  0  0  0999 V2000
  160.6320  209.7960  153.1860 C   0  0  0  0  0  0  0  0  0  0  0  0
  158.9190  213.0150  153.6960 C   0  0  0  0  0  0  0  0  0  0  0  0
  160.1340  211.9370  152.1790 C   0  0  0  0  0  0  0  0  0  0  0  0
  157.8240  213.7830  154.1970 N   0  0  0  0  0  0  0  0  0  0  0  0
  159.3980  213.1580  152.4620 C   0  0  0  0  0  3  0  0  0  0  0  0
  160.8200  211.6010  151.0140 C   0  0  0  0  0  3  0  0  0  0  0  0
  158.0350  211.0100  154.7850 C   0  0  0  0  0  3  0  0  0  0  0  0
  156.9060  213.1940  154.9110 C   0  0  0  0  0  0  0  0  0  0  0  0
  161.3390  209.4430  152.0260 C   0  0  0  0  0  3  0  0  0  0  0  0
  161.4280  210.3350  150.9410 C   0  0  0  0  0  0  0  0  0  0  0  0
  160.0190  211.0540  153.2300 C   0  0  0  0  0  0  0  0  0  0  0  0
  155.8060  213.9590  155.3980 N   0  0  0  0  0  1  0  0  0  0  0  0
  156.9400  211.7140  155.1170 C   0  0  0  0  0  0  0  0  0  0  0  0
  159.2910  211.7150  154.3480 C   0  0  1  0  0  3  0  0  0  0  0  0
  155.7470  210.9930  155.6440 C   0  0  0  0  0  2  0  0  0  0  0  0
  155.2850  209.9500  154.6440 C   0  0  0  0  0  1  0  0  0  0  0  0
  162.3220  209.8540  149.4860 S   0  0  2  0  0  0  0  0  0  0  0  0
  161.6940  210.6510  148.3500 O   0  0  0  0  0  0  0  0  0  0  0  0
  160.8370  207.7080  149.6650 O   0  0  0  0  0  0  0  0  0  0  0  0
  161.8570  208.1650  149.1750 C   0  0  0  0  0  0  0  0  0  0  0  0
  162.6990  207.3150  148.2820 C   0  0  0  0  0  2  0  0  0  0  0  0
  161.8440  206.6070  147.2880 C   0  0  0  0  0  0  0  0  0  0  0  0
  160.5910  206.6340  147.4030 O   0  0  0  0  0  1  0  0  0  0  0  0
  162.4300  205.8950  146.2490 O   0  0  0  0  0  0  0  0  0  0  0  0
  160.5860  208.8640  154.3490 C   0  0  0  0  0  2  0  0  0  0  0  0
  161.5900  207.7440  154.1520 C   0  0  0  0  0  2  0  0  0  0  0  0
  160.8520  206.4380  153.9030 C   0  0  0  0  0  2  0  0  0  0  0  0
  161.6890  205.4670  153.0800 C   0  0  2  0  0  3  0  0  0  0  0  0
  162.4530  206.1620  152.1380 O   0  0  0  0  0  1  0  0  0  0  0  0
  160.8320  204.4990  152.4130 N   0  0  0  0  0  2  0  0  0  0  0  0
  160.8460  204.8160  150.9950 C   0  0  0  0  0  2  0  0  0  0  0  0
  161.2190  202.4170  148.0300 C   0  0  0  0  0  3  0  0  0  0  0  0
  160.8460  201.1170  150.1100 C   0  0  0  0  0  2  0  0  0  0  0  0
  160.8230  202.4100  150.8060 N   0  0  0  0  0  0  0  0  0  0  0  0
  160.8770  203.5580  150.2010 C   0  0  0  0  0  0  0  0  0  0  0  0
  161.0550  203.6190  148.7830 N   0  0  0  0  0  2  0  0  0  0  0  0
  161.1450  201.2330  148.6370 C   0  0  0  0  0  3  0  0  0  0  0  0
  1 11  1  0  0  0  0
  1 25  1  0  0  0  0
  2  4  1  0  0  0  0
  2 14  1  0  0  0  0
  3  5  1  0  0  0  0
  3 11  2  0  0  0  0
  4  8  2  0  0  0  0
  5  2  2  0  0  0  0
  6  3  1  0  0  0  0
  7 13  2  0  0  0  0
  8 13  1  0  0  0  0
  8 12  1  0  0  0  0
  9  1  2  0  0  0  0
 10  6  2  0  0  0  0
 10  9  1  0  0  0  0
 11 14  1  0  0  0  0
 13 15  1  0  0  0  0
 14  7  1  6  0  0  0
 16 15  1  0  0  0  0
 17 18  2  6  0  0  0
 17 10  1  0  0  0  0
 20 17  1  0  0  0  0
 20 19  2  0  0  0  0
 21 20  1  0  0  0  0
 22 23  1  0  0  0  0
 22 21  1  0  0  0  0
 24 22  2  0  0  0  0
 26 25  1  0  0  0  0
 27 26  1  0  0  0  0
 28 29  1  6  0  0  0
 28 27  1  0  0  0  0
 30 28  1  0  0  0  0
 31 30  1  0  0  0  0
 32 37  2  0  0  0  0
 32 36  1  0  0  0  0
 33 34  1  0  0  0  0
 35 34  2  0  0  0  0
 35 31  1  0  0  0  0
 36 35  1  0  0  0  0
 37 33  1  0  0  0  0
M  END
>  <MODEL>
8

>  <REMARK>
 VINA RESULT:      -6.4      3.394      7.345
  Name = 
  12 active torsions:
  status: ('A' for Active; 'I' for Inactive)
    1  A    between atoms: C_1  and  C_13
    2  A    between atoms: C_3  and  C_34
    3  A    between atoms: C_9  and  C_13
    4  A    between atoms: C_9  and  C_16
    5  A    between atoms: C_12  and  C_16
    6  A    between atoms: C_12  and  N_33
    7  A    between atoms: C_18  and  C_31
    8  A    between atoms: S_19  and  C_21
    9  A    between atoms: S_19  and  C_28
   10  A    between atoms: C_21  and  C_34
   11  A    between atoms: C_23  and  C_24
   12  A    between atoms: C_24  and  N_33
                            x       y       z     vdW  Elec       q    Type
                         _______ _______ _______ _____ _____    ______ ____

>  <TORSDO>
F 12

$$$$
=
 OpenBabel11042423093D

 37 40  0  0  1  0  0  0  0  0999 V2000
  161.7510  207.5930  151.6010 C   0  0  0  0  0  0  0  0  0  0  0  0
  161.9590  210.6640  149.5810 C   0  0  0  0  0  0  0  0  0  0  0  0
  161.8500  208.4580  149.3450 C   0  0  0  0  0  0  0  0  0  0  0  0
  161.6140  212.0290  149.3420 N   0  0  0  0  0  0  0  0  0  0  0  0
  161.8970  209.7270  148.6380 C   0  0  0  0  0  3  0  0  0  0  0  0
  161.7770  207.1770  148.8020 C   0  0  0  0  0  3  0  0  0  0  0  0
  160.8400  210.7440  151.7560 C   0  0  0  0  0  3  0  0  0  0  0  0
  160.9180  212.6770  150.2340 C   0  0  0  0  0  0  0  0  0  0  0  0
  161.6900  206.2930  151.0740 C   0  0  0  0  0  3  0  0  0  0  0  0
  161.6950  206.0830  149.6820 C   0  0  0  0  0  0  0  0  0  0  0  0
  161.8140  208.6680  150.7060 C   0  0  0  0  0  0  0  0  0  0  0  0
  160.5610  214.0340  149.9880 N   0  0  0  0  0  1  0  0  0  0  0  0
  160.3980  211.9730  151.4450 C   0  0  0  0  0  0  0  0  0  0  0  0
  161.9710  210.1220  150.9810 C   0  0  1  0  0  3  0  0  0  0  0  0
  159.3470  212.6010  152.2970 C   0  0  0  0  0  2  0  0  0  0  0  0
  158.3940  211.5400  152.8140 C   0  0  0  0  0  1  0  0  0  0  0  0
  161.6080  204.4290  149.0490 S   0  0  2  0  0  0  0  0  0  0  0  0
  160.5610  204.4780  147.9440 O   0  0  0  0  0  0  0  0  0  0  0  0
  160.0740  203.9710  151.1170 O   0  0  0  0  0  0  0  0  0  0  0  0
  160.8670  203.4590  150.3430 C   0  0  0  0  0  0  0  0  0  0  0  0
  161.1870  202.0050  150.4600 C   0  0  0  0  0  2  0  0  0  0  0  0
  160.6160  201.2570  149.3050 C   0  0  0  0  0  0  0  0  0  0  0  0
  161.3700  200.5800  148.5590 O   0  0  0  0  0  0  0  0  0  0  0  0
  159.2550  201.3290  149.0350 O   0  0  0  0  0  1  0  0  0  0  0  0
  161.7960  207.8020  153.0770 C   0  0  0  0  0  2  0  0  0  0  0  0
  160.9070  206.7870  153.7690 C   0  0  0  0  0  2  0  0  0  0  0  0
  160.3440  207.3900  155.0460 C   0  0  0  0  0  2  0  0  0  0  0  0
  161.3980  208.1880  155.8040 C   0  0  2  0  0  3  0  0  0  0  0  0
  161.5300  207.7020  157.1080 O   0  0  0  0  0  1  0  0  0  0  0  0
  161.0450  209.5990  155.8290 N   0  0  0  0  0  2  0  0  0  0  0  0
  159.6710  209.6910  156.2940 C   0  0  0  0  0  2  0  0  0  0  0  0
  157.3780  212.7590  156.4170 C   0  0  0  0  0  3  0  0  0  0  0  0
  159.7090  213.4800  155.9670 C   0  0  0  0  0  2  0  0  0  0  0  0
  160.0710  212.0600  156.0650 N   0  0  0  0  0  0  0  0  0  0  0  0
  159.2050  211.1010  156.2060 C   0  0  0  0  0  0  0  0  0  0  0  0
  157.8170  211.4010  156.3670 N   0  0  0  0  0  2  0  0  0  0  0  0
  158.2540  213.7490  156.2520 C   0  0  0  0  0  3  0  0  0  0  0  0
  1 25  1  0  0  0  0
  2 14  1  0  0  0  0
  3 11  1  0  0  0  0
  4  2  1  0  0  0  0
  4  8  2  0  0  0  0
  5  3  1  0  0  0  0
  5  2  2  0  0  0  0
  6  3  2  0  0  0  0
  6 10  1  0  0  0  0
  8 13  1  0  0  0  0
  9  1  1  0  0  0  0
 10  9  2  0  0  0  0
 11 14  1  0  0  0  0
 11  1  2  0  0  0  0
 12  8  1  0  0  0  0
 13  7  2  0  0  0  0
 13 15  1  0  0  0  0
 14  7  1  1  0  0  0
 15 16  1  0  0  0  0
 17 18  2  6  0  0  0
 17 10  1  0  0  0  0
 17 20  1  0  0  0  0
 20 21  1  0  0  0  0
 20 19  2  0  0  0  0
 22 21  1  0  0  0  0
 23 22  2  0  0  0  0
 24 22  1  0  0  0  0
 25 26  1  0  0  0  0
 26 27  1  0  0  0  0
 27 28  1  0  0  0  0
 28 30  1  0  0  0  0
 28 29  1  1  0  0  0
 30 31  1  0  0  0  0
 33 34  1  0  0  0  0
 33 37  1  0  0  0  0
 34 35  2  0  0  0  0
 35 31  1  0  0  0  0
 35 36  1  0  0  0  0
 36 32  1  0  0  0  0
 37 32  2  0  0  0  0
M  END
>  <MODEL>
9

>  <REMARK>
 VINA RESULT:      -6.3      1.584      2.552
  Name = 
  12 active torsions:
  status: ('A' for Active; 'I' for Inactive)
    1  A    between atoms: C_1  and  C_13
    2  A    between atoms: C_3  and  C_34
    3  A    between atoms: C_9  and  C_13
    4  A    between atoms: C_9  and  C_16
    5  A    between atoms: C_12  and  C_16
    6  A    between atoms: C_12  and  N_33
    7  A    between atoms: C_18  and  C_31
    8  A    between atoms: S_19  and  C_21
    9  A    between atoms: S_19  and  C_28
   10  A    between atoms: C_21  and  C_34
   11  A    between atoms: C_23  and  C_24
   12  A    between atoms: C_24  and  N_33
                            x       y       z     vdW  Elec       q    Type
                         _______ _______ _______ _____ _____    ______ ____

>  <TORSDO>
F 12

$$$$
