=
 OpenBabel11052410433D

 35 38  0  0  1  0  0  0  0  0999 V2000
  161.5320  206.3070  150.0970 C   0  0  0  0  0  0  0  0  0  0  0  0
  161.6130  207.5350  150.8030 C   0  0  0  0  0  0  0  0  0  0  0  0
  162.2330  211.0570  150.1860 O   0  0  0  0  0  0  0  0  0  0  0  0
  161.5530  208.7620  152.9390 C   0  0  0  0  0  3  0  0  0  0  0  0
  161.8030  207.5400  148.0250 C   0  0  0  0  0  3  0  0  0  0  0  0
  161.4870  210.0990  152.2490 C   0  0  1  0  0  3  0  0  0  0  0  0
  161.6270  206.3330  148.7000 C   0  0  0  0  0  3  0  0  0  0  0  0
  161.5770  207.6010  152.2790 C   0  0  0  0  0  3  0  0  0  0  0  0
  161.8750  210.0140  150.7960 C   0  0  0  0  0  0  0  0  0  0  0  0
  161.8800  208.7030  148.7220 N   0  0  0  0  0  0  0  0  0  0  0  0
  161.7850  208.7300  150.0780 C   0  0  0  0  0  0  0  0  0  0  0  0
  157.7690  211.6400  156.1280 O   0  0  0  0  0  0  0  0  0  0  0  0
  160.1340  210.6280  152.3670 N   0  0  0  0  0  2  0  0  0  0  0  0
  160.4850  211.6990  154.4580 N   0  0  0  0  0  0  0  0  0  0  0  0
  158.3920  212.5590  155.2720 C   0  0  2  0  0  3  0  0  0  0  0  0
  158.5940  211.5690  157.2590 C   0  0  0  0  0  2  0  0  0  0  0  0
  160.0240  211.7870  156.8210 C   0  0  0  0  0  2  0  0  0  0  0  0
  158.0650  212.1060  153.5370 S   0  0  0  0  0  0  0  0  0  0  0  0
  159.8940  212.5030  155.5100 C   0  0  1  0  0  3  0  0  0  0  0  0
  159.7160  211.4550  153.4550 C   0  0  0  0  0  0  0  0  0  0  0  0
  160.9200  203.8640  149.9750 N   0  0  0  0  0  2  0  0  0  0  0  0
  160.7120  202.5370  150.4720 C   0  0  0  0  0  0  0  0  0  0  0  0
  161.5710  204.8460  151.9880 O   0  0  0  0  0  0  0  0  0  0  0  0
  161.3530  204.9870  150.7560 C   0  0  0  0  0  0  0  0  0  0  0  0
  160.9110  202.2580  151.6850 O   0  0  0  0  0  0  0  0  0  0  0  0
  160.2210  201.4810  149.5480 C   0  0  0  0  0  2  0  0  0  0  0  0
  161.1570  201.3620  148.3630 C   0  0  0  0  0  2  0  0  0  0  0  0
  161.3240  202.7230  147.7090 C   0  0  0  0  0  2  0  0  0  0  0  0
  160.9170  202.7170  146.2300 C   0  0  1  0  0  3  0  0  0  0  0  0
  162.6940  204.3720  146.0810 O   0  0  0  0  0  1  0  0  0  0  0  0
  161.7240  203.6810  145.3490 C   0  0  2  0  0  3  0  0  0  0  0  0
  160.8390  204.6450  144.5660 C   0  0  0  0  0  2  0  0  0  0  0  0
  160.4180  205.7050  145.3720 O   0  0  0  0  0  1  0  0  0  0  0  0
  159.8150  201.3260  144.9050 C   0  0  0  0  0  1  0  0  0  0  0  0
  160.9540  201.4220  145.7060 O   0  0  0  0  0  0  0  0  0  0  0  0
  1 24  1  0  0  0  0
  1  2  1  0  0  0  0
  2  8  1  0  0  0  0
  3  9  2  0  0  0  0
  5  7  1  0  0  0  0
  5 10  2  0  0  0  0
  6 13  1  6  0  0  0
  6  4  1  0  0  0  0
  7  1  2  0  0  0  0
  8  4  2  0  0  0  0
  9  6  1  0  0  0  0
 10 11  1  0  0  0  0
 11  9  1  0  0  0  0
 11  2  2  0  0  0  0
 12 16  1  0  0  0  0
 13 20  1  0  0  0  0
 14 19  1  0  0  0  0
 15 18  1  6  0  0  0
 15 19  1  0  0  0  0
 15 12  1  0  0  0  0
 17 16  1  0  0  0  0
 19 17  1  1  0  0  0
 20 18  1  0  0  0  0
 20 14  2  0  0  0  0
 21 22  1  0  0  0  0
 21 24  1  0  0  0  0
 22 25  2  0  0  0  0
 24 23  2  0  0  0  0
 26 22  1  0  0  0  0
 27 26  1  0  0  0  0
 28 27  1  0  0  0  0
 29 28  1  1  0  0  0
 31 30  1  1  0  0  0
 31 29  1  0  0  0  0
 32 31  1  0  0  0  0
 32 33  1  0  0  0  0
 34 35  1  0  0  0  0
 35 29  1  0  0  0  0
M  END
>  <MODEL>
1

>  <REMARK>
 VINA RESULT:      -8.7      0.000      0.000
  Name = 
  9 active torsions:
  status: ('A' for Active; 'I' for Inactive)
    1  A    between atoms: C_1  and  C_24
    2  A    between atoms: C_6  and  C_10
    3  A    between atoms: C_6  and  C_12
    4  A    between atoms: N_8  and  C_17
    5  A    between atoms: C_10  and  C_19
    6  A    between atoms: C_11  and  C_12
    7  A    between atoms: C_11  and  C_32
    8  A    between atoms: C_11  and  O_35
    9  A    between atoms: C_13  and  C_32
                            x       y       z     vdW  Elec       q    Type
                         _______ _______ _______ _____ _____    ______ ____

>  <TORSDO>
F 9

$$$$
=
 OpenBabel11052410433D

 35 38  0  0  1  0  0  0  0  0999 V2000
  160.7460  209.4880  155.2130 C   0  0  0  0  0  0  0  0  0  0  0  0
  160.0510  210.4790  154.4740 C   0  0  0  0  0  0  0  0  0  0  0  0
  159.0860  213.9670  154.7340 O   0  0  0  0  0  0  0  0  0  0  0  0
  158.7410  211.1160  152.4860 C   0  0  0  0  0  3  0  0  0  0  0  0
  161.3120  211.1810  156.8550 C   0  0  0  0  0  3  0  0  0  0  0  0
  158.8600  212.5850  152.7930 C   0  0  1  0  0  3  0  0  0  0  0  0
  161.3760  209.8630  156.4060 C   0  0  0  0  0  3  0  0  0  0  0  0
  159.3120  210.1660  153.2330 C   0  0  0  0  0  3  0  0  0  0  0  0
  159.2980  212.8400  154.2110 C   0  0  0  0  0  0  0  0  0  0  0  0
  160.6390  212.1130  156.1330 N   0  0  0  0  0  0  0  0  0  0  0  0
  160.0190  211.7990  154.9650 C   0  0  0  0  0  0  0  0  0  0  0  0
  159.7190  213.2690  147.3120 O   0  0  0  0  0  0  0  0  0  0  0  0
  159.8090  213.1890  151.8670 N   0  0  0  0  0  2  0  0  0  0  0  0
  158.2370  213.5460  150.1230 N   0  0  0  0  0  0  0  0  0  0  0  0
  159.3890  214.3330  148.1640 C   0  0  2  0  0  3  0  0  0  0  0  0
  158.4930  212.7800  146.8390 C   0  0  0  0  0  2  0  0  0  0  0  0
  157.4530  212.9720  147.9180 C   0  0  0  0  0  2  0  0  0  0  0  0
  160.6170  214.4530  149.5040 S   0  0  0  0  0  0  0  0  0  0  0  0
  158.0270  214.0560  148.7810 C   0  0  1  0  0  3  0  0  0  0  0  0
  159.4300  213.6920  150.5850 C   0  0  0  0  0  0  0  0  0  0  0  0
  161.3940  207.7470  153.5070 N   0  0  0  0  0  2  0  0  0  0  0  0
  161.5560  206.4270  152.9750 C   0  0  0  0  0  0  0  0  0  0  0  0
  160.4480  207.1390  155.5510 O   0  0  0  0  0  0  0  0  0  0  0  0
  160.8450  208.0640  154.7940 C   0  0  0  0  0  0  0  0  0  0  0  0
  161.2150  205.4120  153.6400 O   0  0  0  0  0  0  0  0  0  0  0  0
  162.1050  206.2560  151.6040 C   0  0  0  0  0  2  0  0  0  0  0  0
  160.9800  205.9420  150.6390 C   0  0  0  0  0  2  0  0  0  0  0  0
  161.0710  204.4880  150.2090 C   0  0  0  0  0  2  0  0  0  0  0  0
  160.8050  204.3020  148.7100 C   0  0  1  0  0  3  0  0  0  0  0  0
  160.5910  206.4460  147.5800 O   0  0  0  0  0  1  0  0  0  0  0  0
  161.4520  205.3700  147.8170 C   0  0  2  0  0  3  0  0  0  0  0  0
  161.9890  204.7990  146.5090 C   0  0  0  0  0  2  0  0  0  0  0  0
  163.3860  204.7800  146.5070 O   0  0  0  0  0  1  0  0  0  0  0  0
  160.8430  202.1850  149.3580 C   0  0  0  0  0  1  0  0  0  0  0  0
  161.1730  203.0210  148.2910 O   0  0  0  0  0  0  0  0  0  0  0  0
  1  7  1  0  0  0  0
  2 11  1  0  0  0  0
  2  1  2  0  0  0  0
  4  6  1  0  0  0  0
  4  8  2  0  0  0  0
  6 13  1  6  0  0  0
  6  9  1  0  0  0  0
  7  5  2  0  0  0  0
  8  2  1  0  0  0  0
  9  3  2  0  0  0  0
  9 11  1  0  0  0  0
 10  5  1  0  0  0  0
 11 10  2  0  0  0  0
 14 20  2  0  0  0  0
 15 12  1  6  0  0  0
 15 19  1  0  0  0  0
 15 18  1  0  0  0  0
 16 12  1  0  0  0  0
 16 17  1  0  0  0  0
 18 20  1  0  0  0  0
 19 17  1  6  0  0  0
 19 14  1  0  0  0  0
 20 13  1  0  0  0  0
 21 24  1  0  0  0  0
 22 21  1  0  0  0  0
 22 25  2  0  0  0  0
 24  1  1  0  0  0  0
 24 23  2  0  0  0  0
 26 22  1  0  0  0  0
 27 26  1  0  0  0  0
 28 27  1  0  0  0  0
 29 28  1  1  0  0  0
 31 30  1  6  0  0  0
 31 29  1  0  0  0  0
 32 31  1  0  0  0  0
 33 32  1  0  0  0  0
 35 29  1  0  0  0  0
 35 34  1  0  0  0  0
M  END
>  <MODEL>
2

>  <REMARK>
 VINA RESULT:      -7.7      3.049      5.728
  Name = 
  9 active torsions:
  status: ('A' for Active; 'I' for Inactive)
    1  A    between atoms: C_1  and  C_24
    2  A    between atoms: C_6  and  C_10
    3  A    between atoms: C_6  and  C_12
    4  A    between atoms: N_8  and  C_17
    5  A    between atoms: C_10  and  C_19
    6  A    between atoms: C_11  and  C_12
    7  A    between atoms: C_11  and  C_32
    8  A    between atoms: C_11  and  O_35
    9  A    between atoms: C_13  and  C_32
                            x       y       z     vdW  Elec       q    Type
                         _______ _______ _______ _____ _____    ______ ____

>  <TORSDO>
F 9

$$$$
=
 OpenBabel11052410433D

 35 38  0  0  1  0  0  0  0  0999 V2000
  161.5650  206.9840  152.0430 C   0  0  0  0  0  0  0  0  0  0  0  0
  161.1800  207.8810  153.0720 C   0  0  0  0  0  0  0  0  0  0  0  0
  161.2490  211.4290  153.8320 O   0  0  0  0  0  0  0  0  0  0  0  0
  160.2250  208.2570  155.3130 C   0  0  0  0  0  3  0  0  0  0  0  0
  162.2090  208.8920  150.6920 C   0  0  0  0  0  3  0  0  0  0  0  0
  160.1110  209.7410  155.0910 C   0  0  1  0  0  3  0  0  0  0  0  0
  162.0780  207.5140  150.8530 C   0  0  0  0  0  3  0  0  0  0  0  0
  160.6800  207.4130  154.3830 C   0  0  0  0  0  3  0  0  0  0  0  0
  160.9350  210.2110  153.9220 C   0  0  0  0  0  0  0  0  0  0  0  0
  161.8370  209.7320  151.6910 N   0  0  0  0  0  0  0  0  0  0  0  0
  161.3270  209.2660  152.8620 C   0  0  0  0  0  0  0  0  0  0  0  0
  156.3090  213.5540  156.5930 O   0  0  0  0  0  0  0  0  0  0  0  0
  158.7110  210.0830  154.8760 N   0  0  0  0  0  2  0  0  0  0  0  0
  158.9760  212.4110  155.2700 N   0  0  0  0  0  0  0  0  0  0  0  0
  156.8150  213.4650  155.2880 C   0  0  2  0  0  3  0  0  0  0  0  0
  157.1550  214.4530  157.2580 C   0  0  0  0  0  2  0  0  0  0  0  0
  158.5460  214.3150  156.6830 C   0  0  0  0  0  2  0  0  0  0  0  0
  156.5120  211.7970  154.6220 S   0  0  0  0  0  0  0  0  0  0  0  0
  158.3170  213.7010  155.3340 C   0  0  1  0  0  3  0  0  0  0  0  0
  158.2220  211.4250  154.9260 C   0  0  0  0  0  0  0  0  0  0  0  0
  161.1610  204.7320  150.9840 N   0  0  0  0  0  2  0  0  0  0  0  0
  161.0350  203.3050  150.9400 C   0  0  0  0  0  0  0  0  0  0  0  0
  161.6160  204.9290  153.2630 O   0  0  0  0  0  0  0  0  0  0  0  0
  161.4570  205.5050  152.1550 C   0  0  0  0  0  0  0  0  0  0  0  0
  161.1880  202.6070  151.9780 O   0  0  0  0  0  0  0  0  0  0  0  0
  160.6840  202.6440  149.6560 C   0  0  0  0  0  2  0  0  0  0  0  0
  160.6690  203.6680  148.5400 C   0  0  0  0  0  2  0  0  0  0  0  0
  161.9550  203.5640  147.7380 C   0  0  0  0  0  2  0  0  0  0  0  0
  162.1550  204.7560  146.7940 C   0  0  1  0  0  3  0  0  0  0  0  0
  161.8050  205.5440  144.5200 O   0  0  0  0  0  1  0  0  0  0  0  0
  162.0300  204.4090  145.3040 C   0  0  2  0  0  3  0  0  0  0  0  0
  160.9780  203.3380  145.0340 C   0  0  0  0  0  2  0  0  0  0  0  0
  159.8520  203.8870  144.4170 O   0  0  0  0  0  1  0  0  0  0  0  0
  162.1420  206.8970  147.3630 C   0  0  0  0  0  1  0  0  0  0  0  0
  161.2990  205.8090  147.1280 O   0  0  0  0  0  0  0  0  0  0  0  0
  1 24  1  0  0  0  0
  1  2  1  0  0  0  0
  2  8  1  0  0  0  0
  3  9  2  0  0  0  0
  5  7  1  0  0  0  0
  5 10  2  0  0  0  0
  6 13  1  6  0  0  0
  6  4  1  0  0  0  0
  7  1  2  0  0  0  0
  8  4  2  0  0  0  0
  9  6  1  0  0  0  0
 10 11  1  0  0  0  0
 11  2  2  0  0  0  0
 11  9  1  0  0  0  0
 12 16  1  0  0  0  0
 13 20  1  0  0  0  0
 14 19  1  0  0  0  0
 15 18  1  1  0  0  0
 15 19  1  0  0  0  0
 15 12  1  0  0  0  0
 17 16  1  0  0  0  0
 18 20  1  0  0  0  0
 19 17  1  1  0  0  0
 20 14  2  0  0  0  0
 21 24  1  0  0  0  0
 22 21  1  0  0  0  0
 22 25  2  0  0  0  0
 24 23  2  0  0  0  0
 26 22  1  0  0  0  0
 27 26  1  0  0  0  0
 28 27  1  0  0  0  0
 29 35  1  0  0  0  0
 29 28  1  1  0  0  0
 31 30  1  6  0  0  0
 31 29  1  0  0  0  0
 32 31  1  0  0  0  0
 33 32  1  0  0  0  0
 35 34  1  0  0  0  0
M  END
>  <MODEL>
3

>  <REMARK>
 VINA RESULT:      -7.7      1.783      2.621
  Name = 
  9 active torsions:
  status: ('A' for Active; 'I' for Inactive)
    1  A    between atoms: C_1  and  C_24
    2  A    between atoms: C_6  and  C_10
    3  A    between atoms: C_6  and  C_12
    4  A    between atoms: N_8  and  C_17
    5  A    between atoms: C_10  and  C_19
    6  A    between atoms: C_11  and  C_12
    7  A    between atoms: C_11  and  C_32
    8  A    between atoms: C_11  and  O_35
    9  A    between atoms: C_13  and  C_32
                            x       y       z     vdW  Elec       q    Type
                         _______ _______ _______ _____ _____    ______ ____

>  <TORSDO>
F 9

$$$$
=
 OpenBabel11052410433D

 35 38  0  0  1  0  0  0  0  0999 V2000
  160.9530  209.2100  155.4570 C   0  0  0  0  0  0  0  0  0  0  0  0
  160.2210  210.2820  154.8830 C   0  0  0  0  0  0  0  0  0  0  0  0
  159.6030  213.8180  155.4130 O   0  0  0  0  0  0  0  0  0  0  0  0
  158.6360  211.0990  153.1820 C   0  0  0  0  0  3  0  0  0  0  0  0
  161.9360  210.7850  157.0180 C   0  0  0  0  0  3  0  0  0  0  0  0
  158.9260  212.5400  153.5050 C   0  0  1  0  0  3  0  0  0  0  0  0
  161.8120  209.4860  156.5280 C   0  0  0  0  0  3  0  0  0  0  0  0
  159.2510  210.0780  153.7860 C   0  0  0  0  0  3  0  0  0  0  0  0
  159.6270  212.7020  154.8280 C   0  0  0  0  0  0  0  0  0  0  0  0
  161.2240  211.7940  156.4560 N   0  0  0  0  0  0  0  0  0  0  0  0
  160.3830  211.5780  155.4090 C   0  0  0  0  0  0  0  0  0  0  0  0
  158.8500  213.4050  147.9830 O   0  0  0  0  0  0  0  0  0  0  0  0
  159.7420  213.1120  152.4420 N   0  0  0  0  0  2  0  0  0  0  0  0
  157.9200  213.6680  151.0230 N   0  0  0  0  0  0  0  0  0  0  0  0
  158.7670  214.4520  148.9130 C   0  0  2  0  0  3  0  0  0  0  0  0
  157.5230  213.0340  147.7250 C   0  0  0  0  0  2  0  0  0  0  0  0
  156.7110  213.2560  148.9800 C   0  0  0  0  0  2  0  0  0  0  0  0
  160.2200  214.4160  150.0120 S   0  0  0  0  0  0  0  0  0  0  0  0
  157.5180  214.2530  149.7580 C   0  0  1  0  0  3  0  0  0  0  0  0
  159.1840  213.7000  151.2650 C   0  0  0  0  0  0  0  0  0  0  0  0
  161.5730  207.4090  153.8040 N   0  0  0  0  0  2  0  0  0  0  0  0
  161.5830  206.0930  153.2390 C   0  0  0  0  0  0  0  0  0  0  0  0
  160.1620  206.9590  155.6070 O   0  0  0  0  0  0  0  0  0  0  0  0
  160.8610  207.8030  154.9850 C   0  0  0  0  0  0  0  0  0  0  0  0
  160.9380  205.1510  153.7750 O   0  0  0  0  0  0  0  0  0  0  0  0
  162.3380  205.8430  151.9840 C   0  0  0  0  0  2  0  0  0  0  0  0
  161.5340  206.3350  150.7980 C   0  0  0  0  0  2  0  0  0  0  0  0
  162.1380  207.6280  150.2760 C   0  0  0  0  0  2  0  0  0  0  0  0
  162.2300  207.6570  148.7460 C   0  0  1  0  0  3  0  0  0  0  0  0
  162.7200  205.9610  147.0730 O   0  0  0  0  0  1  0  0  0  0  0  0
  161.8130  206.3470  148.0630 C   0  0  2  0  0  3  0  0  0  0  0  0
  160.3910  206.3940  147.5150 C   0  0  0  0  0  2  0  0  0  0  0  0
  160.3890  206.3150  146.1200 O   0  0  0  0  0  1  0  0  0  0  0  0
  162.2070  209.8700  148.6460 C   0  0  0  0  0  1  0  0  0  0  0  0
  161.5130  208.7360  148.2200 O   0  0  0  0  0  0  0  0  0  0  0  0
  1  7  1  0  0  0  0
  2 11  1  0  0  0  0
  2  1  2  0  0  0  0
  4  6  1  0  0  0  0
  4  8  2  0  0  0  0
  6 13  1  6  0  0  0
  6  9  1  0  0  0  0
  7  5  2  0  0  0  0
  8  2  1  0  0  0  0
  9 11  1  0  0  0  0
  9  3  2  0  0  0  0
 10  5  1  0  0  0  0
 11 10  2  0  0  0  0
 14 20  2  0  0  0  0
 15 12  1  6  0  0  0
 15 19  1  0  0  0  0
 15 18  1  0  0  0  0
 16 12  1  0  0  0  0
 16 17  1  0  0  0  0
 18 20  1  0  0  0  0
 19 17  1  6  0  0  0
 19 14  1  0  0  0  0
 20 13  1  0  0  0  0
 21 24  1  0  0  0  0
 22 25  2  0  0  0  0
 22 21  1  0  0  0  0
 24  1  1  0  0  0  0
 24 23  2  0  0  0  0
 26 22  1  0  0  0  0
 27 26  1  0  0  0  0
 28 27  1  0  0  0  0
 29 28  1  1  0  0  0
 31 30  1  6  0  0  0
 31 29  1  0  0  0  0
 32 31  1  0  0  0  0
 33 32  1  0  0  0  0
 35 34  1  0  0  0  0
 35 29  1  0  0  0  0
M  END
>  <MODEL>
4

>  <REMARK>
 VINA RESULT:      -7.3      3.144      5.972
  Name = 
  9 active torsions:
  status: ('A' for Active; 'I' for Inactive)
    1  A    between atoms: C_1  and  C_24
    2  A    between atoms: C_6  and  C_10
    3  A    between atoms: C_6  and  C_12
    4  A    between atoms: N_8  and  C_17
    5  A    between atoms: C_10  and  C_19
    6  A    between atoms: C_11  and  C_12
    7  A    between atoms: C_11  and  C_32
    8  A    between atoms: C_11  and  O_35
    9  A    between atoms: C_13  and  C_32
                            x       y       z     vdW  Elec       q    Type
                         _______ _______ _______ _____ _____    ______ ____

>  <TORSDO>
F 9

$$$$
=
 OpenBabel11052410433D

 35 38  0  0  1  0  0  0  0  0999 V2000
  160.6320  209.2340  154.1230 C   0  0  0  0  0  0  0  0  0  0  0  0
  161.2570  208.7570  152.9420 C   0  0  0  0  0  0  0  0  0  0  0  0
  162.4340  205.6480  151.4860 O   0  0  0  0  0  0  0  0  0  0  0  0
  162.2800  209.2170  150.7480 C   0  0  0  0  0  3  0  0  0  0  0  0
  160.4130  206.9370  154.8730 C   0  0  0  0  0  3  0  0  0  0  0  0
  162.2880  207.7600  150.3690 C   0  0  1  0  0  3  0  0  0  0  0  0
  160.2120  208.3010  155.0790 C   0  0  0  0  0  3  0  0  0  0  0  0
  161.7810  209.6680  151.9020 C   0  0  0  0  0  3  0  0  0  0  0  0
  162.0850  206.8580  151.5570 C   0  0  0  0  0  0  0  0  0  0  0  0
  161.0160  206.5040  153.7370 N   0  0  0  0  0  0  0  0  0  0  0  0
  161.4340  207.3690  152.7750 C   0  0  0  0  0  0  0  0  0  0  0  0
  161.5800  205.6570  145.2380 O   0  0  0  0  0  0  0  0  0  0  0  0
  161.2420  207.5200  149.3830 N   0  0  0  0  0  2  0  0  0  0  0  0
  162.3240  205.6800  148.3400 N   0  0  0  0  0  0  0  0  0  0  0  0
  161.0790  205.0290  146.3880 C   0  0  2  0  0  3  0  0  0  0  0  0
  162.8590  205.1150  145.0490 C   0  0  0  0  0  2  0  0  0  0  0  0
  163.4460  204.7890  146.4030 C   0  0  0  0  0  2  0  0  0  0  0  0
  159.9760  206.1710  147.2820 S   0  0  0  0  0  0  0  0  0  0  0  0
  162.2470  204.6760  147.2960 C   0  0  1  0  0  3  0  0  0  0  0  0
  161.2930  206.4450  148.4430 C   0  0  0  0  0  0  0  0  0  0  0  0
  159.4940  211.4150  153.5730 N   0  0  0  0  0  2  0  0  0  0  0  0
  159.1650  212.8010  153.7310 C   0  0  0  0  0  0  0  0  0  0  0  0
  160.9790  211.2470  155.3640 O   0  0  0  0  0  0  0  0  0  0  0  0
  160.3950  210.6740  154.4070 C   0  0  0  0  0  0  0  0  0  0  0  0
  159.6690  213.4860  154.6610 O   0  0  0  0  0  0  0  0  0  0  0  0
  158.2420  213.4460  152.7610 C   0  0  0  0  0  2  0  0  0  0  0  0
  158.6910  213.1410  151.3470 C   0  0  0  0  0  2  0  0  0  0  0  0
  159.6480  214.2220  150.8730 C   0  0  0  0  0  2  0  0  0  0  0  0
  159.8870  214.1710  149.3590 C   0  0  1  0  0  3  0  0  0  0  0  0
  161.7710  214.4480  147.8470 O   0  0  0  0  0  1  0  0  0  0  0  0
  161.3040  213.7400  148.9580 C   0  0  2  0  0  3  0  0  0  0  0  0
  161.4230  212.2360  148.7380 C   0  0  0  0  0  2  0  0  0  0  0  0
  162.7130  211.8900  148.3260 O   0  0  0  0  0  1  0  0  0  0  0  0
  158.2050  214.2470  147.9200 C   0  0  0  0  0  1  0  0  0  0  0  0
  158.9310  213.3700  148.7270 O   0  0  0  0  0  0  0  0  0  0  0  0
  1 24  1  0  0  0  0
  1  7  1  0  0  0  0
  2  1  2  0  0  0  0
  3  9  2  0  0  0  0
  4  8  2  0  0  0  0
  5  7  2  0  0  0  0
  6 13  1  6  0  0  0
  6  4  1  0  0  0  0
  6  9  1  0  0  0  0
  8  2  1  0  0  0  0
  9 11  1  0  0  0  0
 10  5  1  0  0  0  0
 11  2  1  0  0  0  0
 11 10  2  0  0  0  0
 14 20  2  0  0  0  0
 15 12  1  6  0  0  0
 15 18  1  0  0  0  0
 15 19  1  0  0  0  0
 16 12  1  0  0  0  0
 16 17  1  0  0  0  0
 18 20  1  0  0  0  0
 19 17  1  6  0  0  0
 19 14  1  0  0  0  0
 20 13  1  0  0  0  0
 21 22  1  0  0  0  0
 21 24  1  0  0  0  0
 22 25  2  0  0  0  0
 24 23  2  0  0  0  0
 26 22  1  0  0  0  0
 27 26  1  0  0  0  0
 28 27  1  0  0  0  0
 29 28  1  1  0  0  0
 31 30  1  6  0  0  0
 31 29  1  0  0  0  0
 32 31  1  0  0  0  0
 33 32  1  0  0  0  0
 34 35  1  0  0  0  0
 35 29  1  0  0  0  0
M  END
>  <MODEL>
5

>  <REMARK>
 VINA RESULT:      -6.8      3.091      9.238
  Name = 
  9 active torsions:
  status: ('A' for Active; 'I' for Inactive)
    1  A    between atoms: C_1  and  C_24
    2  A    between atoms: C_6  and  C_10
    3  A    between atoms: C_6  and  C_12
    4  A    between atoms: N_8  and  C_17
    5  A    between atoms: C_10  and  C_19
    6  A    between atoms: C_11  and  C_12
    7  A    between atoms: C_11  and  C_32
    8  A    between atoms: C_11  and  O_35
    9  A    between atoms: C_13  and  C_32
                            x       y       z     vdW  Elec       q    Type
                         _______ _______ _______ _____ _____    ______ ____

>  <TORSDO>
F 9

$$$$
=
 OpenBabel11052410433D

 35 38  0  0  1  0  0  0  0  0999 V2000
  161.6680  208.5220  150.7810 C   0  0  0  0  0  0  0  0  0  0  0  0
  161.2200  209.6400  151.5320 C   0  0  0  0  0  0  0  0  0  0  0  0
  160.8470  213.2340  151.2060 O   0  0  0  0  0  0  0  0  0  0  0  0
  160.3450  210.5650  153.6420 C   0  0  0  0  0  3  0  0  0  0  0  0
  161.9720  209.9910  148.8750 C   0  0  0  0  0  3  0  0  0  0  0  0
  160.0180  211.8900  153.0050 C   0  0  1  0  0  3  0  0  0  0  0  0
  162.0380  208.7210  149.4450 C   0  0  0  0  0  3  0  0  0  0  0  0
  160.8600  209.5370  152.9620 C   0  0  0  0  0  3  0  0  0  0  0  0
  160.7070  212.0740  151.6790 C   0  0  0  0  0  0  0  0  0  0  0  0
  161.5440  211.0460  149.6130 N   0  0  0  0  0  0  0  0  0  0  0  0
  161.1650  210.9030  150.9110 C   0  0  0  0  0  0  0  0  0  0  0  0
  155.3160  212.3390  155.9950 O   0  0  0  0  0  0  0  0  0  0  0  0
  158.5750  211.9890  152.8290 N   0  0  0  0  0  2  0  0  0  0  0  0
  158.1740  213.1710  154.8500 N   0  0  0  0  0  0  0  0  0  0  0  0
  155.8030  213.3810  155.1920 C   0  0  2  0  0  3  0  0  0  0  0  0
  155.8830  212.5510  157.2590 C   0  0  0  0  0  2  0  0  0  0  0  0
  157.2450  213.1790  157.0730 C   0  0  0  0  0  2  0  0  0  0  0  0
  155.9750  212.8030  153.4720 S   0  0  0  0  0  0  0  0  0  0  0  0
  157.1760  213.7870  155.7040 C   0  0  1  0  0  3  0  0  0  0  0  0
  157.7260  212.6800  153.7480 C   0  0  0  0  0  0  0  0  0  0  0  0
  161.3050  206.0380  150.5450 N   0  0  0  0  0  2  0  0  0  0  0  0
  161.3450  204.6620  150.9420 C   0  0  0  0  0  0  0  0  0  0  0  0
  162.2490  206.9420  152.4780 O   0  0  0  0  0  0  0  0  0  0  0  0
  161.7680  207.1450  151.3320 C   0  0  0  0  0  0  0  0  0  0  0  0
  161.8180  204.3220  152.0600 O   0  0  0  0  0  0  0  0  0  0  0  0
  160.7880  203.6250  150.0350 C   0  0  0  0  0  2  0  0  0  0  0  0
  160.8290  204.1220  148.6050 C   0  0  0  0  0  2  0  0  0  0  0  0
  161.5820  203.1240  147.7420 C   0  0  0  0  0  2  0  0  0  0  0  0
  161.2070  203.2310  146.2580 C   0  0  1  0  0  3  0  0  0  0  0  0
  163.1710  204.6640  146.1880 O   0  0  0  0  0  1  0  0  0  0  0  0
  162.0590  204.2290  145.4620 C   0  0  2  0  0  3  0  0  0  0  0  0
  161.2490  205.4110  144.9400 C   0  0  0  0  0  2  0  0  0  0  0  0
  161.2720  205.4580  143.5440 O   0  0  0  0  0  1  0  0  0  0  0  0
  159.9180  201.7910  145.1770 C   0  0  0  0  0  1  0  0  0  0  0  0
  161.2190  201.9740  145.6460 O   0  0  0  0  0  0  0  0  0  0  0  0
  1 24  1  0  0  0  0
  1  2  1  0  0  0  0
  2  8  1  0  0  0  0
  3  9  2  0  0  0  0
  5  7  1  0  0  0  0
  5 10  2  0  0  0  0
  6 13  1  6  0  0  0
  6  4  1  0  0  0  0
  7  1  2  0  0  0  0
  8  4  2  0  0  0  0
  9  6  1  0  0  0  0
 10 11  1  0  0  0  0
 11  2  2  0  0  0  0
 11  9  1  0  0  0  0
 12 16  1  0  0  0  0
 13 20  1  0  0  0  0
 14 19  1  0  0  0  0
 15 18  1  6  0  0  0
 15 19  1  0  0  0  0
 15 12  1  0  0  0  0
 17 16  1  0  0  0  0
 18 20  1  0  0  0  0
 19 17  1  1  0  0  0
 20 14  2  0  0  0  0
 21 22  1  0  0  0  0
 21 24  1  0  0  0  0
 22 25  2  0  0  0  0
 24 23  2  0  0  0  0
 26 22  1  0  0  0  0
 27 26  1  0  0  0  0
 28 27  1  0  0  0  0
 29 28  1  1  0  0  0
 31 30  1  1  0  0  0
 31 29  1  0  0  0  0
 32 31  1  0  0  0  0
 33 32  1  0  0  0  0
 34 35  1  0  0  0  0
 35 29  1  0  0  0  0
M  END
>  <MODEL>
6

>  <REMARK>
 VINA RESULT:      -6.7      1.732      2.237
  Name = 
  9 active torsions:
  status: ('A' for Active; 'I' for Inactive)
    1  A    between atoms: C_1  and  C_24
    2  A    between atoms: C_6  and  C_10
    3  A    between atoms: C_6  and  C_12
    4  A    between atoms: N_8  and  C_17
    5  A    between atoms: C_10  and  C_19
    6  A    between atoms: C_11  and  C_12
    7  A    between atoms: C_11  and  C_32
    8  A    between atoms: C_11  and  O_35
    9  A    between atoms: C_13  and  C_32
                            x       y       z     vdW  Elec       q    Type
                         _______ _______ _______ _____ _____    ______ ____

>  <TORSDO>
F 9

$$$$
=
 OpenBabel11052410433D

 35 38  0  0  1  0  0  0  0  0999 V2000
  158.3730  212.5340  154.7070 C   0  0  0  0  0  0  0  0  0  0  0  0
  159.4630  211.7870  154.1900 C   0  0  0  0  0  0  0  0  0  0  0  0
  162.7360  210.5900  155.2020 O   0  0  0  0  0  0  0  0  0  0  0  0
  160.5110  210.5860  152.3100 C   0  0  0  0  0  3  0  0  0  0  0  0
  159.5020  212.5990  156.8520 C   0  0  0  0  0  3  0  0  0  0  0  0
  161.5770  209.9930  153.1940 C   0  0  1  0  0  3  0  0  0  0  0  0
  158.4120  212.9290  156.0490 C   0  0  0  0  0  3  0  0  0  0  0  0
  159.5350  211.3720  152.7730 C   0  0  0  0  0  3  0  0  0  0  0  0
  161.6820  210.7010  154.5190 C   0  0  0  0  0  0  0  0  0  0  0  0
  160.5350  211.8870  156.3360 N   0  0  0  0  0  0  0  0  0  0  0  0
  160.5400  211.4720  155.0410 C   0  0  0  0  0  0  0  0  0  0  0  0
  160.3920  205.3340  150.3410 O   0  0  0  0  0  0  0  0  0  0  0  0
  161.2850  208.5820  153.4100 N   0  0  0  0  0  2  0  0  0  0  0  0
  162.1010  207.8500  151.3020 N   0  0  0  0  0  0  0  0  0  0  0  0
  161.6030  205.5140  151.0250 C   0  0  2  0  0  3  0  0  0  0  0  0
  160.6270  205.8100  149.0430 C   0  0  0  0  0  2  0  0  0  0  0  0
  161.6270  206.9410  149.1220 C   0  0  0  0  0  2  0  0  0  0  0  0
  161.2710  205.8540  152.7850 S   0  0  0  0  0  0  0  0  0  0  0  0
  162.3240  206.7130  150.4300 C   0  0  1  0  0  3  0  0  0  0  0  0
  161.6160  207.5660  152.4610 C   0  0  0  0  0  0  0  0  0  0  0  0
  157.3740  213.4510  152.5810 N   0  0  0  0  0  2  0  0  0  0  0  0
  156.3270  213.8610  151.6930 C   0  0  0  0  0  0  0  0  0  0  0  0
  156.0210  212.8020  154.3680 O   0  0  0  0  0  0  0  0  0  0  0  0
  157.1850  212.9240  153.9020 C   0  0  0  0  0  0  0  0  0  0  0  0
  155.1160  213.7740  152.0310 O   0  0  0  0  0  0  0  0  0  0  0  0
  156.6780  214.4290  150.3650 C   0  0  0  0  0  2  0  0  0  0  0  0
  157.3620  213.3720  149.5220 C   0  0  0  0  0  2  0  0  0  0  0  0
  157.9340  214.0140  148.2690 C   0  0  0  0  0  2  0  0  0  0  0  0
  159.2810  213.4050  147.8610 C   0  0  1  0  0  3  0  0  0  0  0  0
  160.3750  214.2380  149.8680 O   0  0  0  0  0  1  0  0  0  0  0  0
  160.2290  213.1240  149.0350 C   0  0  2  0  0  3  0  0  0  0  0  0
  161.5860  212.5960  148.5840 C   0  0  0  0  0  2  0  0  0  0  0  0
  162.0030  211.5330  149.3890 O   0  0  0  0  0  1  0  0  0  0  0  0
  158.1340  212.6050  146.1430 C   0  0  0  0  0  1  0  0  0  0  0  0
  159.0970  212.2540  147.0900 O   0  0  0  0  0  0  0  0  0  0  0  0
  1  7  1  0  0  0  0
  2  1  2  0  0  0  0
  2 11  1  0  0  0  0
  4  8  2  0  0  0  0
  4  6  1  0  0  0  0
  6 13  1  1  0  0  0
  6  9  1  0  0  0  0
  7  5  2  0  0  0  0
  8  2  1  0  0  0  0
  9 11  1  0  0  0  0
  9  3  2  0  0  0  0
 10  5  1  0  0  0  0
 11 10  2  0  0  0  0
 14 20  2  0  0  0  0
 15 12  1  6  0  0  0
 15 18  1  0  0  0  0
 16 17  1  0  0  0  0
 16 12  1  0  0  0  0
 19 17  1  6  0  0  0
 19 15  1  0  0  0  0
 19 14  1  0  0  0  0
 20 18  1  0  0  0  0
 20 13  1  0  0  0  0
 21 24  1  0  0  0  0
 22 25  2  0  0  0  0
 22 21  1  0  0  0  0
 24 23  2  0  0  0  0
 24  1  1  0  0  0  0
 26 22  1  0  0  0  0
 27 26  1  0  0  0  0
 28 27  1  0  0  0  0
 29 28  1  1  0  0  0
 29 31  1  0  0  0  0
 31 30  1  6  0  0  0
 32 31  1  0  0  0  0
 32 33  1  0  0  0  0
 34 35  1  0  0  0  0
 35 29  1  0  0  0  0
M  END
>  <MODEL>
7

>  <REMARK>
 VINA RESULT:      -6.6      3.413      8.994
  Name = 
  9 active torsions:
  status: ('A' for Active; 'I' for Inactive)
    1  A    between atoms: C_1  and  C_24
    2  A    between atoms: C_6  and  C_10
    3  A    between atoms: C_6  and  C_12
    4  A    between atoms: N_8  and  C_17
    5  A    between atoms: C_10  and  C_19
    6  A    between atoms: C_11  and  C_12
    7  A    between atoms: C_11  and  C_32
    8  A    between atoms: C_11  and  O_35
    9  A    between atoms: C_13  and  C_32
                            x       y       z     vdW  Elec       q    Type
                         _______ _______ _______ _____ _____    ______ ____

>  <TORSDO>
F 9

$$$$
=
 OpenBabel11052410433D

 35 38  0  0  1  0  0  0  0  0999 V2000
  160.6600  209.1210  154.2890 C   0  0  0  0  0  0  0  0  0  0  0  0
  161.2670  208.6340  153.1030 C   0  0  0  0  0  0  0  0  0  0  0  0
  162.3250  205.5000  151.6120 O   0  0  0  0  0  0  0  0  0  0  0  0
  162.3050  209.0800  150.9130 C   0  0  0  0  0  3  0  0  0  0  0  0
  160.3560  206.8270  155.0150 C   0  0  0  0  0  3  0  0  0  0  0  0
  162.2580  207.6280  150.5180 C   0  0  1  0  0  3  0  0  0  0  0  0
  160.2070  208.1940  155.2360 C   0  0  0  0  0  3  0  0  0  0  0  0
  161.8240  209.5360  152.0720 C   0  0  0  0  0  3  0  0  0  0  0  0
  162.0230  206.7200  151.6960 C   0  0  0  0  0  0  0  0  0  0  0  0
  160.9420  206.3830  153.8740 N   0  0  0  0  0  0  0  0  0  0  0  0
  161.3910  207.2430  152.9210 C   0  0  0  0  0  0  0  0  0  0  0  0
  161.5100  205.8240  145.2800 O   0  0  0  0  0  0  0  0  0  0  0  0
  161.2030  207.4370  149.5300 N   0  0  0  0  0  2  0  0  0  0  0  0
  162.2880  205.6710  148.3700 N   0  0  0  0  0  0  0  0  0  0  0  0
  161.0270  205.1250  146.3960 C   0  0  2  0  0  3  0  0  0  0  0  0
  162.7910  205.3040  145.0460 C   0  0  0  0  0  2  0  0  0  0  0  0
  163.3950  204.9040  146.3720 C   0  0  0  0  0  2  0  0  0  0  0  0
  159.9250  206.2040  147.3670 S   0  0  0  0  0  0  0  0  0  0  0  0
  162.2070  204.7290  147.2700 C   0  0  1  0  0  3  0  0  0  0  0  0
  161.2520  206.4200  148.5280 C   0  0  0  0  0  0  0  0  0  0  0  0
  159.1670  211.1420  154.4990 N   0  0  0  0  0  2  0  0  0  0  0  0
  158.8410  212.5110  154.7650 C   0  0  0  0  0  0  0  0  0  0  0  0
  161.4580  211.2860  154.9140 O   0  0  0  0  0  0  0  0  0  0  0  0
  160.4770  210.5660  154.5890 C   0  0  0  0  0  0  0  0  0  0  0  0
  159.7290  213.3340  155.1160 O   0  0  0  0  0  0  0  0  0  0  0  0
  157.4400  212.9750  154.5890 C   0  0  0  0  0  2  0  0  0  0  0  0
  157.3680  213.9680  153.4480 C   0  0  0  0  0  2  0  0  0  0  0  0
  156.8960  213.2610  152.1890 C   0  0  0  0  0  2  0  0  0  0  0  0
  157.9080  213.3710  151.0410 C   0  0  1  0  0  3  0  0  0  0  0  0
  155.9990  214.1430  149.7450 O   0  0  0  0  0  1  0  0  0  0  0  0
  157.3950  214.1470  149.8190 C   0  0  2  0  0  3  0  0  0  0  0  0
  158.0140  213.6650  148.5120 C   0  0  0  0  0  2  0  0  0  0  0  0
  157.0910  212.9360  147.7590 O   0  0  0  0  0  1  0  0  0  0  0  0
  160.0440  212.8690  151.3430 C   0  0  0  0  0  1  0  0  0  0  0  0
  159.1190  213.9050  151.4900 O   0  0  0  0  0  0  0  0  0  0  0  0
  1 24  1  0  0  0  0
  1  7  1  0  0  0  0
  2  1  2  0  0  0  0
  3  9  2  0  0  0  0
  4  8  2  0  0  0  0
  5  7  2  0  0  0  0
  6 13  1  6  0  0  0
  6  4  1  0  0  0  0
  6  9  1  0  0  0  0
  8  2  1  0  0  0  0
  9 11  1  0  0  0  0
 10  5  1  0  0  0  0
 11  2  1  0  0  0  0
 11 10  2  0  0  0  0
 14 20  2  0  0  0  0
 15 12  1  6  0  0  0
 15 19  1  0  0  0  0
 15 18  1  0  0  0  0
 16 12  1  0  0  0  0
 16 17  1  0  0  0  0
 18 20  1  0  0  0  0
 19 17  1  6  0  0  0
 19 14  1  0  0  0  0
 20 13  1  0  0  0  0
 21 24  1  0  0  0  0
 21 22  1  0  0  0  0
 22 25  2  0  0  0  0
 24 23  2  0  0  0  0
 26 22  1  0  0  0  0
 27 26  1  0  0  0  0
 28 27  1  0  0  0  0
 29 35  1  0  0  0  0
 29 28  1  1  0  0  0
 31 30  1  6  0  0  0
 31 29  1  0  0  0  0
 32 31  1  0  0  0  0
 33 32  1  0  0  0  0
 34 35  1  0  0  0  0
M  END
>  <MODEL>
8

>  <REMARK>
 VINA RESULT:      -6.4      3.301      9.579
  Name = 
  9 active torsions:
  status: ('A' for Active; 'I' for Inactive)
    1  A    between atoms: C_1  and  C_24
    2  A    between atoms: C_6  and  C_10
    3  A    between atoms: C_6  and  C_12
    4  A    between atoms: N_8  and  C_17
    5  A    between atoms: C_10  and  C_19
    6  A    between atoms: C_11  and  C_12
    7  A    between atoms: C_11  and  C_32
    8  A    between atoms: C_11  and  O_35
    9  A    between atoms: C_13  and  C_32
                            x       y       z     vdW  Elec       q    Type
                         _______ _______ _______ _____ _____    ______ ____

>  <TORSDO>
F 9

$$$$
=
 OpenBabel11052410433D

 35 38  0  0  1  0  0  0  0  0999 V2000
  160.2450  209.5660  153.1420 C   0  0  0  0  0  0  0  0  0  0  0  0
  160.9780  208.7700  152.2250 C   0  0  0  0  0  0  0  0  0  0  0  0
  163.1480  205.8620  152.1900 O   0  0  0  0  0  0  0  0  0  0  0  0
  161.7380  208.3440  149.9190 C   0  0  0  0  0  3  0  0  0  0  0  0
  160.8580  208.0130  154.9010 C   0  0  0  0  0  3  0  0  0  0  0  0
  162.2510  206.9730  150.2690 C   0  0  1  0  0  3  0  0  0  0  0  0
  160.1950  209.1650  154.4830 C   0  0  0  0  0  3  0  0  0  0  0  0
  161.1320  209.1430  150.8020 C   0  0  0  0  0  3  0  0  0  0  0  0
  162.3980  206.7760  151.7540 C   0  0  0  0  0  0  0  0  0  0  0  0
  161.5570  207.2680  154.0070 N   0  0  0  0  0  0  0  0  0  0  0  0
  161.6280  207.6110  152.6930 C   0  0  0  0  0  0  0  0  0  0  0  0
  160.5350  204.8830  145.3760 O   0  0  0  0  0  0  0  0  0  0  0  0
  161.3410  205.9720  149.7270 N   0  0  0  0  0  2  0  0  0  0  0  0
  162.5680  205.5990  147.7270 N   0  0  0  0  0  0  0  0  0  0  0  0
  161.3100  204.1450  146.2830 C   0  0  2  0  0  3  0  0  0  0  0  0
  161.4580  205.5190  144.5340 C   0  0  0  0  0  2  0  0  0  0  0  0
  162.7050  205.8210  145.3320 C   0  0  0  0  0  2  0  0  0  0  0  0
  160.4560  204.0540  147.8900 S   0  0  0  0  0  0  0  0  0  0  0  0
  162.6380  204.8600  146.4810 C   0  0  1  0  0  3  0  0  0  0  0  0
  161.5790  205.2920  148.4930 C   0  0  0  0  0  0  0  0  0  0  0  0
  160.1910  211.7940  151.9620 N   0  0  0  0  0  2  0  0  0  0  0  0
  159.6190  213.0300  151.5170 C   0  0  0  0  0  0  0  0  0  0  0  0
  158.3350  211.0050  153.1360 O   0  0  0  0  0  0  0  0  0  0  0  0
  159.5220  210.8080  152.7610 C   0  0  0  0  0  0  0  0  0  0  0  0
  158.4330  213.3400  151.8090 O   0  0  0  0  0  0  0  0  0  0  0  0
  160.4510  213.9740  150.7260 C   0  0  0  0  0  2  0  0  0  0  0  0
  159.7360  214.3340  149.4410 C   0  0  0  0  0  2  0  0  0  0  0  0
  160.6410  214.0400  148.2560 C   0  0  0  0  0  2  0  0  0  0  0  0
  160.2580  212.7440  147.5330 C   0  0  1  0  0  3  0  0  0  0  0  0
  157.9920  212.5510  146.6720 O   0  0  0  0  0  1  0  0  0  0  0  0
  159.2960  212.9390  146.3530 C   0  0  2  0  0  3  0  0  0  0  0  0
  159.7770  212.2510  145.0800 C   0  0  0  0  0  2  0  0  0  0  0  0
  158.9620  212.5810  143.9940 O   0  0  0  0  0  1  0  0  0  0  0  0
  162.1290  211.8380  148.3000 C   0  0  0  0  0  1  0  0  0  0  0  0
  161.3970  212.0400  147.1290 O   0  0  0  0  0  0  0  0  0  0  0  0
  1  7  1  0  0  0  0
  2 11  1  0  0  0  0
  2  1  2  0  0  0  0
  4  6  1  0  0  0  0
  4  8  2  0  0  0  0
  6 13  1  1  0  0  0
  6  9  1  0  0  0  0
  7  5  2  0  0  0  0
  8  2  1  0  0  0  0
  9  3  2  0  0  0  0
  9 11  1  0  0  0  0
 10  5  1  0  0  0  0
 11 10  2  0  0  0  0
 14 20  2  0  0  0  0
 15 12  1  6  0  0  0
 15 19  1  0  0  0  0
 15 18  1  0  0  0  0
 16 17  1  0  0  0  0
 16 12  1  0  0  0  0
 18 20  1  0  0  0  0
 19 17  1  6  0  0  0
 19 14  1  0  0  0  0
 20 13  1  0  0  0  0
 21 24  1  0  0  0  0
 22 25  2  0  0  0  0
 22 21  1  0  0  0  0
 24 23  2  0  0  0  0
 24  1  1  0  0  0  0
 26 22  1  0  0  0  0
 27 26  1  0  0  0  0
 28 27  1  0  0  0  0
 29 28  1  6  0  0  0
 31 30  1  1  0  0  0
 31 29  1  0  0  0  0
 32 31  1  0  0  0  0
 33 32  1  0  0  0  0
 35 29  1  0  0  0  0
 35 34  1  0  0  0  0
M  END
>  <MODEL>
9

>  <REMARK>
 VINA RESULT:      -6.2      3.648      9.049
  Name = 
  9 active torsions:
  status: ('A' for Active; 'I' for Inactive)
    1  A    between atoms: C_1  and  C_24
    2  A    between atoms: C_6  and  C_10
    3  A    between atoms: C_6  and  C_12
    4  A    between atoms: N_8  and  C_17
    5  A    between atoms: C_10  and  C_19
    6  A    between atoms: C_11  and  C_12
    7  A    between atoms: C_11  and  C_32
    8  A    between atoms: C_11  and  O_35
    9  A    between atoms: C_13  and  C_32
                            x       y       z     vdW  Elec       q    Type
                         _______ _______ _______ _____ _____    ______ ____

>  <TORSDO>
F 9

$$$$
