=
 OpenBabel11042421153D

 32 34  0  0  1  0  0  0  0  0999 V2000
  160.0660  209.0590  155.0690 C   0  0  0  0  0  0  0  0  0  0  0  0
  159.8340  209.2430  153.5950 C   0  0  0  0  0  2  0  0  0  0  0  0
  160.7020  205.2830  150.2530 N   0  0  0  0  0  0  0  0  0  0  0  0
  160.8860  209.8310  155.7150 N   0  0  0  0  0  0  0  0  0  0  0  0
  162.7430  210.3470  152.9380 N   0  0  0  0  0  0  0  0  0  0  0  0
  161.5700  205.3610  151.4290 C   0  0  0  0  0  2  0  0  0  0  0  0
  162.8760  210.2750  154.3900 C   0  0  0  0  0  2  0  0  0  0  0  0
  160.9650  208.6870  152.7960 C   0  0  0  0  0  0  0  0  0  0  0  0
  161.8810  208.7490  149.9330 N   0  0  0  0  0  0  0  0  0  0  0  0
  161.6720  210.8870  155.0880 C   0  0  0  0  0  2  0  0  0  0  0  0
  160.9330  207.4410  152.4460 N   0  0  0  0  0  0  0  0  0  0  0  0
  161.9570  209.6050  152.2130 C   0  0  0  0  0  0  0  0  0  0  0  0
  161.9770  207.3060  150.1970 C   0  0  2  0  0  3  0  0  0  0  0  0
  161.9550  209.7600  150.7510 C   0  0  0  0  0  0  0  0  0  0  0  0
  160.8970  206.5210  149.4980 C   0  0  0  0  0  2  0  0  0  0  0  0
  161.9620  206.8080  151.6300 C   0  0  2  0  0  3  0  0  0  0  0  0
  160.0870  207.0870  156.5560 C   0  0  0  0  0  1  0  0  0  0  0  0
  159.4000  208.0530  155.7730 O   0  0  0  0  0  0  0  0  0  0  0  0
  161.2000  204.1900  149.4340 C   0  0  0  0  0  2  0  0  0  0  0  0
  161.4170  203.1020  146.0170 C   0  0  0  0  0  3  0  0  0  0  0  0
  161.5580  204.6940  148.0810 C   0  0  0  0  0  3  0  0  0  0  0  0
  161.4890  203.9000  147.0510 C   0  0  0  0  0  0  0  0  0  0  0  0
  159.9350  201.4090  144.9840 C   0  0  0  0  0  1  0  0  0  0  0  0
  160.7870  201.8170  146.0840 N   0  0  0  0  0  0  0  0  0  0  0  0
  161.4710  199.5220  146.5660 C   0  0  0  0  0  1  0  0  0  0  0  0
  161.0510  200.8590  147.1510 C   0  0  0  0  0  2  0  0  0  0  0  0
  161.9810  211.1400  150.1720 C   0  0  0  0  0  2  0  0  0  0  0  0
  161.9940  211.1010  148.6490 C   0  0  0  0  0  2  0  0  0  0  0  0
  163.6800  212.6060  147.9060 O   0  0  0  0  0  0  0  0  0  0  0  0
  162.4490  212.4090  148.0800 C   0  0  0  0  0  0  0  0  0  0  0  0
  161.5410  213.4060  147.7160 O   0  0  0  0  0  0  0  0  0  0  0  0
  160.1540  213.1510  147.5590 C   0  0  0  0  0  1  0  0  0  0  0  0
  1  4  2  0  0  0  0
  1 18  1  0  0  0  0
  2  1  1  0  0  0  0
  3  6  1  0  0  0  0
  5  7  1  0  0  0  0
  7 10  1  0  0  0  0
  8  2  1  0  0  0  0
  9 13  1  0  0  0  0
  9 14  2  0  0  0  0
 10  4  1  0  0  0  0
 11  8  2  0  0  0  0
 12  8  1  0  0  0  0
 12  5  2  0  0  0  0
 13 15  1  6  0  0  0
 13 16  1  0  0  0  0
 14 12  1  0  0  0  0
 15  3  1  0  0  0  0
 16  6  1  6  0  0  0
 16 11  1  0  0  0  0
 18 17  1  0  0  0  0
 19  3  1  0  0  0  0
 20 24  1  0  0  0  0
 20 22  2  0  0  0  0
 21 19  1  0  0  0  0
 22 21  2  0  0  0  0
 23 24  1  0  0  0  0
 24 26  1  0  0  0  0
 25 26  1  0  0  0  0
 27 14  1  0  0  0  0
 28 27  1  0  0  0  0
 29 30  2  0  0  0  0
 30 28  1  0  0  0  0
 31 30  1  0  0  0  0
 32 31  1  0  0  0  0
M  END
>  <MODEL>
1

>  <REMARK>
 VINA RESULT:      -6.6      0.000      0.000
  Name = 
  9 active torsions:
  status: ('A' for Active; 'I' for Inactive)
    1  A    between atoms: C_3  and  O_15
    2  A    between atoms: C_5  and  N_28
    3  A    between atoms: N_6  and  C_13
    4  A    between atoms: C_9  and  N_28
    5  A    between atoms: C_13  and  C_17
    6  A    between atoms: C_14  and  C_25
    7  A    between atoms: C_14  and  C_31
    8  A    between atoms: O_18  and  C_31
    9  A    between atoms: C_25  and  C_29
                            x       y       z     vdW  Elec       q    Type
                         _______ _______ _______ _____ _____    ______ ____

>  <TORSDO>
F 9

$$$$
=
 OpenBabel11042421153D

 32 34  0  0  1  0  0  0  0  0999 V2000
  161.2060  207.1660  147.3180 C   0  0  0  0  0  0  0  0  0  0  0  0
  160.3270  206.3120  148.1890 C   0  0  0  0  0  2  0  0  0  0  0  0
  160.9640  206.2980  153.4050 N   0  0  0  0  0  0  0  0  0  0  0  0
  161.9140  206.6380  146.3660 N   0  0  0  0  0  0  0  0  0  0  0  0
  162.1380  203.7020  148.0280 N   0  0  0  0  0  0  0  0  0  0  0  0
  162.1670  206.4780  152.5890 C   0  0  0  0  0  2  0  0  0  0  0  0
  162.8860  204.5280  147.0850 C   0  0  0  0  0  2  0  0  0  0  0  0
  161.1290  205.5780  149.2120 C   0  0  0  0  0  0  0  0  0  0  0  0
  160.6730  203.3700  151.2020 N   0  0  0  0  0  0  0  0  0  0  0  0
  161.9620  205.2080  146.0880 C   0  0  0  0  0  2  0  0  0  0  0  0
  161.3680  206.1480  150.3490 N   0  0  0  0  0  0  0  0  0  0  0  0
  161.4140  204.1480  149.0150 C   0  0  0  0  0  0  0  0  0  0  0  0
  161.3450  204.3530  152.0640 C   0  0  2  0  0  3  0  0  0  0  0  0
  160.7440  203.1960  149.9130 C   0  0  0  0  0  0  0  0  0  0  0  0
  160.3990  204.9970  153.0460 C   0  0  0  0  0  2  0  0  0  0  0  0
  162.1020  205.5050  151.4330 C   0  0  2  0  0  3  0  0  0  0  0  0
  162.0230  209.1300  148.5730 C   0  0  0  0  0  1  0  0  0  0  0  0
  161.2750  208.5470  147.5150 O   0  0  0  0  0  0  0  0  0  0  0  0
  161.4030  206.2180  154.7890 C   0  0  0  0  0  2  0  0  0  0  0  0
  160.0270  209.3930  155.7540 C   0  0  0  0  0  3  0  0  0  0  0  0
  160.3680  206.8060  155.6810 C   0  0  0  0  0  3  0  0  0  0  0  0
  160.1970  208.0970  155.7180 C   0  0  0  0  0  0  0  0  0  0  0  0
  162.0000  210.7050  155.0310 C   0  0  0  0  0  1  0  0  0  0  0  0
  160.6350  210.2720  154.7990 N   0  0  0  0  0  0  0  0  0  0  0  0
  160.4630  209.7790  152.4130 C   0  0  0  0  0  1  0  0  0  0  0  0
  159.9850  210.6600  153.5530 C   0  0  0  0  0  2  0  0  0  0  0  0
  160.0640  202.0030  149.3210 C   0  0  0  0  0  2  0  0  0  0  0  0
  161.0700  200.9230  148.9400 C   0  0  0  0  0  2  0  0  0  0  0  0
  161.6080  199.6610  146.9960 O   0  0  0  0  0  0  0  0  0  0  0  0
  161.1090  200.7210  147.4570 C   0  0  0  0  0  0  0  0  0  0  0  0
  160.5850  201.6680  146.5740 O   0  0  0  0  0  0  0  0  0  0  0  0
  160.1340  201.3260  145.2720 C   0  0  0  0  0  1  0  0  0  0  0  0
  1 18  1  0  0  0  0
  1  2  1  0  0  0  0
  2  8  1  0  0  0  0
  3 19  1  0  0  0  0
  4  1  2  0  0  0  0
  5 12  2  0  0  0  0
  6  3  1  0  0  0  0
  7  5  1  0  0  0  0
  8 11  2  0  0  0  0
  9 13  1  0  0  0  0
 10  4  1  0  0  0  0
 10  7  1  0  0  0  0
 11 16  1  0  0  0  0
 12  8  1  0  0  0  0
 12 14  1  0  0  0  0
 13 15  1  1  0  0  0
 14  9  2  0  0  0  0
 15  3  1  0  0  0  0
 16 13  1  0  0  0  0
 16  6  1  1  0  0  0
 18 17  1  0  0  0  0
 19 21  1  0  0  0  0
 21 22  2  0  0  0  0
 22 20  2  0  0  0  0
 24 23  1  0  0  0  0
 24 20  1  0  0  0  0
 25 26  1  0  0  0  0
 26 24  1  0  0  0  0
 27 14  1  0  0  0  0
 28 27  1  0  0  0  0
 29 30  2  0  0  0  0
 30 28  1  0  0  0  0
 31 30  1  0  0  0  0
 32 31  1  0  0  0  0
M  END
>  <MODEL>
2

>  <REMARK>
 VINA RESULT:      -6.0      3.468      8.905
  Name = 
  9 active torsions:
  status: ('A' for Active; 'I' for Inactive)
    1  A    between atoms: C_3  and  O_15
    2  A    between atoms: C_5  and  N_28
    3  A    between atoms: N_6  and  C_13
    4  A    between atoms: C_9  and  N_28
    5  A    between atoms: C_13  and  C_17
    6  A    between atoms: C_14  and  C_25
    7  A    between atoms: C_14  and  C_31
    8  A    between atoms: O_18  and  C_31
    9  A    between atoms: C_25  and  C_29
                            x       y       z     vdW  Elec       q    Type
                         _______ _______ _______ _____ _____    ______ ____

>  <TORSDO>
F 9

$$$$
=
 OpenBabel11042421153D

 32 34  0  0  1  0  0  0  0  0999 V2000
  162.0090  210.3380  150.4130 C   0  0  0  0  0  0  0  0  0  0  0  0
  162.5560  209.1780  151.1960 C   0  0  0  0  0  2  0  0  0  0  0  0
  161.3310  204.2480  149.8510 N   0  0  0  0  0  0  0  0  0  0  0  0
  161.3120  211.2660  150.9960 N   0  0  0  0  0  0  0  0  0  0  0  0
  160.2160  209.1000  153.3500 N   0  0  0  0  0  0  0  0  0  0  0  0
  160.3070  205.2710  149.6300 C   0  0  0  0  0  2  0  0  0  0  0  0
  159.7960  210.3030  152.6360 C   0  0  0  0  0  2  0  0  0  0  0  0
  161.4910  208.1740  151.4910 C   0  0  0  0  0  0  0  0  0  0  0  0
  161.1840  205.7280  153.2130 N   0  0  0  0  0  0  0  0  0  0  0  0
  160.9640  211.2510  152.4120 C   0  0  0  0  0  2  0  0  0  0  0  0
  161.2620  207.2330  150.6330 N   0  0  0  0  0  0  0  0  0  0  0  0
  160.9040  208.1190  152.8390 C   0  0  0  0  0  0  0  0  0  0  0  0
  160.6650  205.2080  151.9390 C   0  0  2  0  0  3  0  0  0  0  0  0
  161.2240  206.9480  153.6680 C   0  0  0  0  0  0  0  0  0  0  0  0
  161.6140  204.2350  151.2870 C   0  0  0  0  0  2  0  0  0  0  0  0
  160.2770  206.1780  150.8400 C   0  0  2  0  0  3  0  0  0  0  0  0
  162.2140  211.6850  148.3530 C   0  0  0  0  0  1  0  0  0  0  0  0
  162.2420  210.4410  149.0400 O   0  0  0  0  0  0  0  0  0  0  0  0
  160.7290  202.9690  149.5130 C   0  0  0  0  0  2  0  0  0  0  0  0
  161.7570  203.7490  146.1600 C   0  0  0  0  0  3  0  0  0  0  0  0
  161.4390  202.3680  148.3520 C   0  0  0  0  0  3  0  0  0  0  0  0
  161.5980  203.0560  147.2580 C   0  0  0  0  0  0  0  0  0  0  0  0
  162.2150  206.0430  146.9730 C   0  0  0  0  0  1  0  0  0  0  0  0
  161.4810  205.1540  146.0940 N   0  0  0  0  0  0  0  0  0  0  0  0
  161.2130  205.7020  143.7280 C   0  0  0  0  0  1  0  0  0  0  0  0
  160.5800  205.7380  145.1080 C   0  0  0  0  0  2  0  0  0  0  0  0
  161.6700  207.1630  155.0800 C   0  0  0  0  0  2  0  0  0  0  0  0
  160.4890  207.4600  155.9950 C   0  0  0  0  0  2  0  0  0  0  0  0
  161.9200  208.8780  157.2610 O   0  0  0  0  0  0  0  0  0  0  0  0
  160.7520  208.6660  156.8420 C   0  0  0  0  0  0  0  0  0  0  0  0
  159.7390  209.5750  157.1590 O   0  0  0  0  0  0  0  0  0  0  0  0
  159.7320  210.9070  156.6700 C   0  0  0  0  0  1  0  0  0  0  0  0
  1  4  2  0  0  0  0
  1  2  1  0  0  0  0
  2  8  1  0  0  0  0
  3 15  1  0  0  0  0
  4 10  1  0  0  0  0
  6  3  1  0  0  0  0
  7  5  1  0  0  0  0
  8 12  1  0  0  0  0
  9 14  2  0  0  0  0
 10  7  1  0  0  0  0
 11 16  1  0  0  0  0
 11  8  2  0  0  0  0
 12  5  2  0  0  0  0
 12 14  1  0  0  0  0
 13 15  1  6  0  0  0
 13  9  1  0  0  0  0
 14 27  1  0  0  0  0
 16  6  1  6  0  0  0
 16 13  1  0  0  0  0
 17 18  1  0  0  0  0
 18  1  1  0  0  0  0
 19  3  1  0  0  0  0
 20 22  2  0  0  0  0
 21 19  1  0  0  0  0
 22 21  2  0  0  0  0
 24 20  1  0  0  0  0
 24 23  1  0  0  0  0
 25 26  1  0  0  0  0
 26 24  1  0  0  0  0
 27 28  1  0  0  0  0
 28 30  1  0  0  0  0
 30 31  1  0  0  0  0
 30 29  2  0  0  0  0
 32 31  1  0  0  0  0
M  END
>  <MODEL>
3

>  <REMARK>
 VINA RESULT:      -5.9      2.002      5.445
  Name = 
  9 active torsions:
  status: ('A' for Active; 'I' for Inactive)
    1  A    between atoms: C_3  and  O_15
    2  A    between atoms: C_5  and  N_28
    3  A    between atoms: N_6  and  C_13
    4  A    between atoms: C_9  and  N_28
    5  A    between atoms: C_13  and  C_17
    6  A    between atoms: C_14  and  C_25
    7  A    between atoms: C_14  and  C_31
    8  A    between atoms: O_18  and  C_31
    9  A    between atoms: C_25  and  C_29
                            x       y       z     vdW  Elec       q    Type
                         _______ _______ _______ _____ _____    ______ ____

>  <TORSDO>
F 9

$$$$
=
 OpenBabel11042421153D

 32 34  0  0  1  0  0  0  0  0999 V2000
  156.3960  212.0640  155.6020 C   0  0  0  0  0  0  0  0  0  0  0  0
  156.8300  211.8090  154.1860 C   0  0  0  0  0  2  0  0  0  0  0  0
  160.6530  208.3550  153.1590 N   0  0  0  0  0  0  0  0  0  0  0  0
  156.4340  213.2610  156.1050 N   0  0  0  0  0  0  0  0  0  0  0  0
  158.9950  214.1370  154.0800 N   0  0  0  0  0  0  0  0  0  0  0  0
  160.7560  209.1070  154.4110 C   0  0  0  0  0  2  0  0  0  0  0  0
  158.4490  214.4280  155.4020 C   0  0  0  0  0  2  0  0  0  0  0  0
  158.3180  211.7960  154.0700 C   0  0  0  0  0  0  0  0  0  0  0  0
  160.3570  211.7810  151.8600 N   0  0  0  0  0  0  0  0  0  0  0  0
  156.9280  214.4290  155.3850 C   0  0  0  0  0  2  0  0  0  0  0  0
  158.9510  210.6830  154.2570 N   0  0  0  0  0  0  0  0  0  0  0  0
  159.0090  212.9670  153.5070 C   0  0  0  0  0  0  0  0  0  0  0  0
  160.8820  210.6910  152.6960 C   0  0  2  0  0  3  0  0  0  0  0  0
  159.6310  212.8130  152.1840 C   0  0  0  0  0  0  0  0  0  0  0  0
  160.6690  209.3350  152.0720 C   0  0  0  0  0  2  0  0  0  0  0  0
  160.3970  210.5480  154.1260 C   0  0  2  0  0  3  0  0  0  0  0  0
  154.8130  211.1460  157.2610 C   0  0  0  0  0  1  0  0  0  0  0  0
  155.9400  211.0160  156.4050 O   0  0  0  0  0  0  0  0  0  0  0  0
  161.8640  207.5590  153.0450 C   0  0  0  0  0  2  0  0  0  0  0  0
  160.8260  204.6890  151.1490 C   0  0  0  0  0  3  0  0  0  0  0  0
  161.5390  206.1170  153.2150 C   0  0  0  0  0  3  0  0  0  0  0  0
  161.1830  205.4040  152.1840 C   0  0  0  0  0  0  0  0  0  0  0  0
  160.9790  206.6040  149.5860 C   0  0  0  0  0  1  0  0  0  0  0  0
  160.9540  205.1710  149.8050 N   0  0  0  0  0  0  0  0  0  0  0  0
  160.8330  202.8560  149.0360 C   0  0  0  0  0  1  0  0  0  0  0  0
  161.1710  204.2890  148.6650 C   0  0  0  0  0  2  0  0  0  0  0  0
  159.3740  213.8540  151.1410 C   0  0  0  0  0  2  0  0  0  0  0  0
  160.4570  213.8430  150.0690 C   0  0  0  0  0  2  0  0  0  0  0  0
  158.6490  213.6230  148.5380 O   0  0  0  0  0  0  0  0  0  0  0  0
  159.8870  213.4980  148.7290 C   0  0  0  0  0  0  0  0  0  0  0  0
  160.6980  213.0620  147.6770 O   0  0  0  0  0  0  0  0  0  0  0  0
  161.6300  212.0020  147.8240 C   0  0  0  0  0  1  0  0  0  0  0  0
  1  4  2  0  0  0  0
  1 18  1  0  0  0  0
  2  1  1  0  0  0  0
  3  6  1  0  0  0  0
  5  7  1  0  0  0  0
  8  2  1  0  0  0  0
  8 11  2  0  0  0  0
  9 14  2  0  0  0  0
  9 13  1  0  0  0  0
 10  7  1  0  0  0  0
 10  4  1  0  0  0  0
 12  8  1  0  0  0  0
 12  5  2  0  0  0  0
 13 15  1  6  0  0  0
 13 16  1  0  0  0  0
 14 12  1  0  0  0  0
 15  3  1  0  0  0  0
 16 11  1  0  0  0  0
 16  6  1  6  0  0  0
 18 17  1  0  0  0  0
 19  3  1  0  0  0  0
 19 21  1  0  0  0  0
 20 22  2  0  0  0  0
 22 21  2  0  0  0  0
 23 24  1  0  0  0  0
 24 20  1  0  0  0  0
 26 25  1  0  0  0  0
 26 24  1  0  0  0  0
 27 14  1  0  0  0  0
 28 27  1  0  0  0  0
 29 30  2  0  0  0  0
 30 28  1  0  0  0  0
 31 32  1  0  0  0  0
 31 30  1  0  0  0  0
M  END
>  <MODEL>
4

>  <REMARK>
 VINA RESULT:      -5.9      3.131      4.710
  Name = 
  9 active torsions:
  status: ('A' for Active; 'I' for Inactive)
    1  A    between atoms: C_3  and  O_15
    2  A    between atoms: C_5  and  N_28
    3  A    between atoms: N_6  and  C_13
    4  A    between atoms: C_9  and  N_28
    5  A    between atoms: C_13  and  C_17
    6  A    between atoms: C_14  and  C_25
    7  A    between atoms: C_14  and  C_31
    8  A    between atoms: O_18  and  C_31
    9  A    between atoms: C_25  and  C_29
                            x       y       z     vdW  Elec       q    Type
                         _______ _______ _______ _____ _____    ______ ____

>  <TORSDO>
F 9

$$$$
=
 OpenBabel11042421153D

 32 34  0  0  1  0  0  0  0  0999 V2000
  160.8310  205.2470  149.2120 C   0  0  0  0  0  0  0  0  0  0  0  0
  160.1800  206.4270  149.8770 C   0  0  0  0  0  2  0  0  0  0  0  0
  161.6730  211.3180  148.6680 N   0  0  0  0  0  0  0  0  0  0  0  0
  161.4110  204.3220  149.9160 N   0  0  0  0  0  0  0  0  0  0  0  0
  162.1390  206.5190  152.3810 N   0  0  0  0  0  0  0  0  0  0  0  0
  162.7050  210.2800  148.6330 C   0  0  0  0  0  2  0  0  0  0  0  0
  162.6530  205.2990  151.7650 C   0  0  0  0  0  2  0  0  0  0  0  0
  161.1960  207.4250  150.3240 C   0  0  0  0  0  0  0  0  0  0  0  0
  161.2520  209.8990  152.0330 N   0  0  0  0  0  0  0  0  0  0  0  0
  161.5250  204.3600  151.3690 C   0  0  0  0  0  2  0  0  0  0  0  0
  161.5740  208.3470  149.5000 N   0  0  0  0  0  0  0  0  0  0  0  0
  161.5570  207.4980  151.7490 C   0  0  0  0  0  0  0  0  0  0  0  0
  161.9790  210.3900  150.8520 C   0  0  2  0  0  3  0  0  0  0  0  0
  161.1230  208.6880  152.4960 C   0  0  0  0  0  0  0  0  0  0  0  0
  161.1610  211.3600  150.0380 C   0  0  0  0  0  2  0  0  0  0  0  0
  162.5260  209.3960  149.8470 C   0  0  2  0  0  3  0  0  0  0  0  0
  161.8990  205.5670  147.0090 C   0  0  0  0  0  1  0  0  0  0  0  0
  160.8230  205.1210  147.8210 O   0  0  0  0  0  0  0  0  0  0  0  0
  162.3400  212.5840  148.4120 C   0  0  0  0  0  2  0  0  0  0  0  0
  159.8520  213.1510  145.8820 C   0  0  0  0  0  3  0  0  0  0  0  0
  162.2150  212.9380  146.9720 C   0  0  0  0  0  3  0  0  0  0  0  0
  161.0360  213.0440  146.4270 C   0  0  0  0  0  0  0  0  0  0  0  0
  157.4510  212.5810  146.0930 C   0  0  0  0  0  1  0  0  0  0  0  0
  158.6490  213.1690  146.6610 N   0  0  0  0  0  0  0  0  0  0  0  0
  157.3750  213.1060  148.7440 C   0  0  0  0  0  1  0  0  0  0  0  0
  158.6030  213.6500  148.0370 C   0  0  0  0  0  2  0  0  0  0  0  0
  160.4500  208.5040  153.8190 C   0  0  0  0  0  2  0  0  0  0  0  0
  160.5830  209.7490  154.6870 C   0  0  0  0  0  2  0  0  0  0  0  0
  161.9190  208.5640  156.2590 O   0  0  0  0  0  0  0  0  0  0  0  0
  161.7480  209.6350  155.6200 C   0  0  0  0  0  0  0  0  0  0  0  0
  162.6630  210.6790  155.7830 O   0  0  0  0  0  0  0  0  0  0  0  0
  163.4530  210.8230  156.9530 C   0  0  0  0  0  1  0  0  0  0  0  0
  1  2  1  0  0  0  0
  1  4  2  0  0  0  0
  2  8  1  0  0  0  0
  3 15  1  0  0  0  0
  4 10  1  0  0  0  0
  6  3  1  0  0  0  0
  7  5  1  0  0  0  0
  8 12  1  0  0  0  0
  9 14  2  0  0  0  0
 10  7  1  0  0  0  0
 11 16  1  0  0  0  0
 11  8  2  0  0  0  0
 12  5  2  0  0  0  0
 12 14  1  0  0  0  0
 13 15  1  6  0  0  0
 13  9  1  0  0  0  0
 14 27  1  0  0  0  0
 16  6  1  6  0  0  0
 16 13  1  0  0  0  0
 17 18  1  0  0  0  0
 18  1  1  0  0  0  0
 19  3  1  0  0  0  0
 20 22  2  0  0  0  0
 20 24  1  0  0  0  0
 21 19  1  0  0  0  0
 22 21  2  0  0  0  0
 23 24  1  0  0  0  0
 24 26  1  0  0  0  0
 26 25  1  0  0  0  0
 27 28  1  0  0  0  0
 28 30  1  0  0  0  0
 30 31  1  0  0  0  0
 30 29  2  0  0  0  0
 31 32  1  0  0  0  0
M  END
>  <MODEL>
5

>  <REMARK>
 VINA RESULT:      -5.5      3.099      7.762
  Name = 
  9 active torsions:
  status: ('A' for Active; 'I' for Inactive)
    1  A    between atoms: C_3  and  O_15
    2  A    between atoms: C_5  and  N_28
    3  A    between atoms: N_6  and  C_13
    4  A    between atoms: C_9  and  N_28
    5  A    between atoms: C_13  and  C_17
    6  A    between atoms: C_14  and  C_25
    7  A    between atoms: C_14  and  C_31
    8  A    between atoms: O_18  and  C_31
    9  A    between atoms: C_25  and  C_29
                            x       y       z     vdW  Elec       q    Type
                         _______ _______ _______ _____ _____    ______ ____

>  <TORSDO>
F 9

$$$$
=
 OpenBabel11042421153D

 32 34  0  0  1  0  0  0  0  0999 V2000
  160.8390  205.0560  149.2750 C   0  0  0  0  0  0  0  0  0  0  0  0
  160.1870  206.2420  149.9290 C   0  0  0  0  0  2  0  0  0  0  0  0
  161.6730  211.1210  148.6690 N   0  0  0  0  0  0  0  0  0  0  0  0
  161.4210  204.1390  149.9870 N   0  0  0  0  0  0  0  0  0  0  0  0
  162.1510  206.3610  152.4280 N   0  0  0  0  0  0  0  0  0  0  0  0
  162.7070  210.0850  148.6430 C   0  0  0  0  0  2  0  0  0  0  0  0
  162.6650  205.1350  151.8240 C   0  0  0  0  0  2  0  0  0  0  0  0
  161.2030  207.2450  150.3650 C   0  0  0  0  0  0  0  0  0  0  0  0
  161.2590  209.7360  152.0480 N   0  0  0  0  0  0  0  0  0  0  0  0
  161.5370  204.1910  151.4390 C   0  0  0  0  0  2  0  0  0  0  0  0
  161.5780  208.1600  149.5300 N   0  0  0  0  0  0  0  0  0  0  0  0
  161.5660  207.3320  151.7880 C   0  0  0  0  0  0  0  0  0  0  0  0
  161.9830  210.2160  150.8620 C   0  0  2  0  0  3  0  0  0  0  0  0
  161.1320  208.5290  152.5230 C   0  0  0  0  0  0  0  0  0  0  0  0
  161.1630  211.1770  150.0390 C   0  0  0  0  0  2  0  0  0  0  0  0
  162.5310  209.2120  149.8650 C   0  0  2  0  0  3  0  0  0  0  0  0
  161.9590  205.2180  147.0800 C   0  0  0  0  0  1  0  0  0  0  0  0
  160.8280  204.9160  147.8850 O   0  0  0  0  0  0  0  0  0  0  0  0
  162.3380  212.3860  148.3990 C   0  0  0  0  0  2  0  0  0  0  0  0
  160.5580  214.2530  145.8980 C   0  0  0  0  0  3  0  0  0  0  0  0
  161.3280  213.4700  148.2670 C   0  0  0  0  0  3  0  0  0  0  0  0
  160.9430  213.8610  147.0850 C   0  0  0  0  0  0  0  0  0  0  0  0
  159.8620  212.7240  144.0790 C   0  0  0  0  0  1  0  0  0  0  0  0
  160.8910  213.5290  144.7070 N   0  0  0  0  0  0  0  0  0  0  0  0
  162.3320  212.5780  142.9780 C   0  0  0  0  0  1  0  0  0  0  0  0
  162.1820  213.6530  144.0400 C   0  0  0  0  0  2  0  0  0  0  0  0
  160.4620  208.3570  153.8490 C   0  0  0  0  0  2  0  0  0  0  0  0
  160.4700  209.6560  154.6480 C   0  0  0  0  0  2  0  0  0  0  0  0
  161.7620  208.5130  156.2860 O   0  0  0  0  0  0  0  0  0  0  0  0
  161.4970  209.6130  155.7360 C   0  0  0  0  0  0  0  0  0  0  0  0
  162.1840  210.7600  156.1410 O   0  0  0  0  0  0  0  0  0  0  0  0
  163.4210  210.7010  156.8340 C   0  0  0  0  0  1  0  0  0  0  0  0
  1  2  1  0  0  0  0
  1  4  2  0  0  0  0
  2  8  1  0  0  0  0
  3 15  1  0  0  0  0
  4 10  1  0  0  0  0
  6  3  1  0  0  0  0
  7  5  1  0  0  0  0
  8 12  1  0  0  0  0
  9 14  2  0  0  0  0
 10  7  1  0  0  0  0
 11 16  1  0  0  0  0
 11  8  2  0  0  0  0
 12  5  2  0  0  0  0
 12 14  1  0  0  0  0
 13 15  1  6  0  0  0
 13  9  1  0  0  0  0
 14 27  1  0  0  0  0
 16  6  1  6  0  0  0
 16 13  1  0  0  0  0
 17 18  1  0  0  0  0
 18  1  1  0  0  0  0
 19  3  1  0  0  0  0
 20 22  2  0  0  0  0
 21 19  1  0  0  0  0
 22 21  2  0  0  0  0
 23 24  1  0  0  0  0
 24 20  1  0  0  0  0
 25 26  1  0  0  0  0
 26 24  1  0  0  0  0
 27 28  1  0  0  0  0
 28 30  1  0  0  0  0
 30 31  1  0  0  0  0
 30 29  2  0  0  0  0
 31 32  1  0  0  0  0
M  END
>  <MODEL>
6

>  <REMARK>
 VINA RESULT:      -5.1      3.069      7.828
  Name = 
  9 active torsions:
  status: ('A' for Active; 'I' for Inactive)
    1  A    between atoms: C_3  and  O_15
    2  A    between atoms: C_5  and  N_28
    3  A    between atoms: N_6  and  C_13
    4  A    between atoms: C_9  and  N_28
    5  A    between atoms: C_13  and  C_17
    6  A    between atoms: C_14  and  C_25
    7  A    between atoms: C_14  and  C_31
    8  A    between atoms: O_18  and  C_31
    9  A    between atoms: C_25  and  C_29
                            x       y       z     vdW  Elec       q    Type
                         _______ _______ _______ _____ _____    ______ ____

>  <TORSDO>
F 9

$$$$
=
 OpenBabel11042421153D

 32 34  0  0  1  0  0  0  0  0999 V2000
  161.9560  204.7950  150.9860 C   0  0  0  0  0  0  0  0  0  0  0  0
  162.6880  206.1030  151.1020 C   0  0  0  0  0  2  0  0  0  0  0  0
  161.3900  209.5520  154.8470 N   0  0  0  0  0  0  0  0  0  0  0  0
  161.3580  204.4630  149.8810 N   0  0  0  0  0  0  0  0  0  0  0  0
  160.8300  207.7030  149.0770 N   0  0  0  0  0  0  0  0  0  0  0  0
  160.3080  208.7390  154.2880 C   0  0  0  0  0  2  0  0  0  0  0  0
  160.2350  206.3830  148.8980 C   0  0  0  0  0  2  0  0  0  0  0  0
  161.7390  207.2390  151.2900 C   0  0  0  0  0  0  0  0  0  0  0  0
  161.8670  210.2440  151.2680 N   0  0  0  0  0  0  0  0  0  0  0  0
  161.3010  205.3160  148.7010 C   0  0  0  0  0  2  0  0  0  0  0  0
  161.3760  207.5610  152.4890 N   0  0  0  0  0  0  0  0  0  0  0  0
  161.4360  208.1210  150.1510 C   0  0  0  0  0  0  0  0  0  0  0  0
  161.1220  210.0310  152.5180 C   0  0  2  0  0  3  0  0  0  0  0  0
  161.9540  209.4960  150.2050 C   0  0  0  0  0  0  0  0  0  0  0  0
  161.9540  210.3250  153.7400 C   0  0  0  0  0  2  0  0  0  0  0  0
  160.4890  208.6800  152.7880 C   0  0  2  0  0  3  0  0  0  0  0  0
  161.1970  202.6800  152.0100 C   0  0  0  0  0  1  0  0  0  0  0  0
  161.9060  203.9100  152.0650 O   0  0  0  0  0  0  0  0  0  0  0  0
  160.7760  210.4940  155.7680 C   0  0  0  0  0  2  0  0  0  0  0  0
  157.4000  211.6610  155.3860 C   0  0  0  0  0  3  0  0  0  0  0  0
  159.3730  210.0860  156.0490 C   0  0  0  0  0  3  0  0  0  0  0  0
  158.3880  210.8710  155.7180 C   0  0  0  0  0  0  0  0  0  0  0  0
  156.5370  213.8110  154.5100 C   0  0  0  0  0  1  0  0  0  0  0  0
  157.5860  212.8110  154.5500 N   0  0  0  0  0  0  0  0  0  0  0  0
  158.6950  212.6330  152.3810 C   0  0  0  0  0  1  0  0  0  0  0  0
  158.8260  213.0730  153.8290 C   0  0  0  0  0  2  0  0  0  0  0  0
  162.6660  210.0450  149.0100 C   0  0  0  0  0  2  0  0  0  0  0  0
  161.7520  210.9430  148.1840 C   0  0  0  0  0  2  0  0  0  0  0  0
  162.9740  212.9620  147.8900 O   0  0  0  0  0  0  0  0  0  0  0  0
  162.0150  212.3890  148.4680 C   0  0  0  0  0  0  0  0  0  0  0  0
  161.2070  213.1230  149.3400 O   0  0  0  0  0  0  0  0  0  0  0  0
  160.0840  213.8660  148.8930 C   0  0  0  0  0  1  0  0  0  0  0  0
  1  2  1  0  0  0  0
  1 18  1  0  0  0  0
  2  8  1  0  0  0  0
  3 19  1  0  0  0  0
  4  1  2  0  0  0  0
  5 12  2  0  0  0  0
  6  3  1  0  0  0  0
  7  5  1  0  0  0  0
  8 11  2  0  0  0  0
  9 13  1  0  0  0  0
 10  7  1  0  0  0  0
 10  4  1  0  0  0  0
 11 16  1  0  0  0  0
 12 14  1  0  0  0  0
 12  8  1  0  0  0  0
 13 16  1  0  0  0  0
 13 15  1  1  0  0  0
 14  9  2  0  0  0  0
 15  3  1  0  0  0  0
 16  6  1  1  0  0  0
 17 18  1  0  0  0  0
 19 21  1  0  0  0  0
 20 22  2  0  0  0  0
 22 21  2  0  0  0  0
 23 24  1  0  0  0  0
 24 20  1  0  0  0  0
 25 26  1  0  0  0  0
 26 24  1  0  0  0  0
 27 14  1  0  0  0  0
 28 30  1  0  0  0  0
 28 27  1  0  0  0  0
 29 30  2  0  0  0  0
 30 31  1  0  0  0  0
 32 31  1  0  0  0  0
M  END
>  <MODEL>
7

>  <REMARK>
 VINA RESULT:      -5.1      2.526      7.611
  Name = 
  9 active torsions:
  status: ('A' for Active; 'I' for Inactive)
    1  A    between atoms: C_3  and  O_15
    2  A    between atoms: C_5  and  N_28
    3  A    between atoms: N_6  and  C_13
    4  A    between atoms: C_9  and  N_28
    5  A    between atoms: C_13  and  C_17
    6  A    between atoms: C_14  and  C_25
    7  A    between atoms: C_14  and  C_31
    8  A    between atoms: O_18  and  C_31
    9  A    between atoms: C_25  and  C_29
                            x       y       z     vdW  Elec       q    Type
                         _______ _______ _______ _____ _____    ______ ____

>  <TORSDO>
F 9

$$$$
=
 OpenBabel11042421153D

 32 34  0  0  1  0  0  0  0  0999 V2000
  161.3790  209.7490  156.5560 C   0  0  0  0  0  0  0  0  0  0  0  0
  162.1430  209.0070  155.4950 C   0  0  0  0  0  2  0  0  0  0  0  0
  162.1250  210.7080  150.5240 N   0  0  0  0  0  0  0  0  0  0  0  0
  160.4660  209.1500  157.2610 N   0  0  0  0  0  0  0  0  0  0  0  0
  159.7980  206.9940  154.7450 N   0  0  0  0  0  0  0  0  0  0  0  0
  160.9050  210.9240  151.3050 C   0  0  0  0  0  2  0  0  0  0  0  0
  159.1440  207.6560  155.8700 C   0  0  0  0  0  2  0  0  0  0  0  0
  161.3230  208.8310  154.2610 C   0  0  0  0  0  0  0  0  0  0  0  0
  161.5110  207.2770  151.6930 N   0  0  0  0  0  0  0  0  0  0  0  0
  160.0740  207.7600  157.0680 C   0  0  0  0  0  2  0  0  0  0  0  0
  161.3490  209.7550  153.3550 N   0  0  0  0  0  0  0  0  0  0  0  0
  160.7100  207.5230  153.9810 C   0  0  0  0  0  0  0  0  0  0  0  0
  161.1750  208.6060  151.1600 C   0  0  2  0  0  3  0  0  0  0  0  0
  161.2540  206.7490  152.8550 C   0  0  0  0  0  0  0  0  0  0  0  0
  162.3460  209.2620  150.4740 C   0  0  0  0  0  2  0  0  0  0  0  0
  160.6210  209.6650  152.0940 C   0  0  2  0  0  3  0  0  0  0  0  0
  160.6570  212.1100  156.6160 C   0  0  0  0  0  1  0  0  0  0  0  0
  161.6370  211.0990  156.8050 O   0  0  0  0  0  0  0  0  0  0  0  0
  161.8430  211.1540  149.1700 C   0  0  0  0  0  2  0  0  0  0  0  0
  160.8230  213.8130  146.9800 C   0  0  0  0  0  3  0  0  0  0  0  0
  161.2120  212.5010  149.2030 C   0  0  0  0  0  3  0  0  0  0  0  0
  161.0170  213.1560  148.0940 C   0  0  0  0  0  0  0  0  0  0  0  0
  162.2490  213.3470  145.0090 C   0  0  0  0  0  1  0  0  0  0  0  0
  160.9780  213.2010  145.6930 N   0  0  0  0  0  0  0  0  0  0  0  0
  159.0880  213.1550  144.1460 C   0  0  0  0  0  1  0  0  0  0  0  0
  159.9590  212.3480  145.0930 C   0  0  0  0  0  2  0  0  0  0  0  0
  161.5830  205.3050  153.0660 C   0  0  0  0  0  2  0  0  0  0  0  0
  162.0190  204.6410  151.7650 C   0  0  0  0  0  2  0  0  0  0  0  0
  160.7540  202.7650  152.5000 O   0  0  0  0  0  0  0  0  0  0  0  0
  161.2540  203.3780  151.5210 C   0  0  0  0  0  0  0  0  0  0  0  0
  161.0620  202.8740  150.2310 O   0  0  0  0  0  0  0  0  0  0  0  0
  160.9890  201.4830  149.9610 C   0  0  0  0  0  1  0  0  0  0  0  0
  1 18  1  0  0  0  0
  1  4  2  0  0  0  0
  2  1  1  0  0  0  0
  3  6  1  0  0  0  0
  5  7  1  0  0  0  0
  7 10  1  0  0  0  0
  8  2  1  0  0  0  0
  9 14  2  0  0  0  0
 10  4  1  0  0  0  0
 11  8  2  0  0  0  0
 12  8  1  0  0  0  0
 12  5  2  0  0  0  0
 13 15  1  1  0  0  0
 13  9  1  0  0  0  0
 13 16  1  0  0  0  0
 14 27  1  0  0  0  0
 14 12  1  0  0  0  0
 15  3  1  0  0  0  0
 16  6  1  6  0  0  0
 16 11  1  0  0  0  0
 17 18  1  0  0  0  0
 19 21  1  0  0  0  0
 19  3  1  0  0  0  0
 20 22  2  0  0  0  0
 22 21  2  0  0  0  0
 23 24  1  0  0  0  0
 24 20  1  0  0  0  0
 25 26  1  0  0  0  0
 26 24  1  0  0  0  0
 28 27  1  0  0  0  0
 30 28  1  0  0  0  0
 30 29  2  0  0  0  0
 31 30  1  0  0  0  0
 32 31  1  0  0  0  0
M  END
>  <MODEL>
8

>  <REMARK>
 VINA RESULT:      -4.9      3.555      7.387
  Name = 
  9 active torsions:
  status: ('A' for Active; 'I' for Inactive)
    1  A    between atoms: C_3  and  O_15
    2  A    between atoms: C_5  and  N_28
    3  A    between atoms: N_6  and  C_13
    4  A    between atoms: C_9  and  N_28
    5  A    between atoms: C_13  and  C_17
    6  A    between atoms: C_14  and  C_25
    7  A    between atoms: C_14  and  C_31
    8  A    between atoms: O_18  and  C_31
    9  A    between atoms: C_25  and  C_29
                            x       y       z     vdW  Elec       q    Type
                         _______ _______ _______ _____ _____    ______ ____

>  <TORSDO>
F 9

$$$$
=
 OpenBabel11042421153D

 32 34  0  0  1  0  0  0  0  0999 V2000
  161.9390  205.5630  152.8490 C   0  0  0  0  0  0  0  0  0  0  0  0
  162.7560  205.9670  151.6540 C   0  0  0  0  0  2  0  0  0  0  0  0
  162.3060  210.7970  149.6370 N   0  0  0  0  0  0  0  0  0  0  0  0
  161.1470  204.5350  152.7980 N   0  0  0  0  0  0  0  0  0  0  0  0
  160.6830  204.9350  149.4740 N   0  0  0  0  0  0  0  0  0  0  0  0
  161.0990  210.2060  150.2190 C   0  0  0  0  0  2  0  0  0  0  0  0
  159.9900  204.4450  150.6610 C   0  0  0  0  0  2  0  0  0  0  0  0
  161.9190  206.6790  150.6430 C   0  0  0  0  0  0  0  0  0  0  0  0
  162.2180  207.6140  147.8010 N   0  0  0  0  0  0  0  0  0  0  0  0
  160.9430  203.7260  151.6020 C   0  0  0  0  0  2  0  0  0  0  0  0
  161.7810  207.9620  150.7360 N   0  0  0  0  0  0  0  0  0  0  0  0
  161.4820  205.9620  149.4340 C   0  0  0  0  0  0  0  0  0  0  0  0
  161.6800  208.8370  148.4150 C   0  0  2  0  0  3  0  0  0  0  0  0
  162.0830  206.3680  148.1550 C   0  0  0  0  0  0  0  0  0  0  0  0
  162.7220  209.9210  148.5410 C   0  0  0  0  0  2  0  0  0  0  0  0
  161.0240  208.7610  149.7790 C   0  0  2  0  0  3  0  0  0  0  0  0
  161.0910  207.3080  154.3770 C   0  0  0  0  0  1  0  0  0  0  0  0
  162.0190  206.2860  154.0420 O   0  0  0  0  0  0  0  0  0  0  0  0
  161.9110  212.0690  149.0520 C   0  0  0  0  0  2  0  0  0  0  0  0
  162.5480  213.2550  145.7220 C   0  0  0  0  0  3  0  0  0  0  0  0
  163.0130  212.6000  148.2060 C   0  0  0  0  0  3  0  0  0  0  0  0
  162.7820  212.9270  146.9660 C   0  0  0  0  0  0  0  0  0  0  0  0
  160.1690  213.8620  146.0460 C   0  0  0  0  0  1  0  0  0  0  0  0
  161.2200  213.3470  145.1900 N   0  0  0  0  0  0  0  0  0  0  0  0
  162.1400  212.5570  143.0690 C   0  0  0  0  0  1  0  0  0  0  0  0
  160.9030  213.0510  143.7980 C   0  0  0  0  0  2  0  0  0  0  0  0
  162.6160  205.3100  147.2410 C   0  0  0  0  0  2  0  0  0  0  0  0
  162.4370  205.6990  145.7780 C   0  0  0  0  0  2  0  0  0  0  0  0
  160.1270  206.0920  145.3660 O   0  0  0  0  0  0  0  0  0  0  0  0
  161.0910  205.2870  145.2710 C   0  0  0  0  0  0  0  0  0  0  0  0
  160.8820  204.0420  144.6730 O   0  0  0  0  0  0  0  0  0  0  0  0
  160.8930  202.8310  145.4140 C   0  0  0  0  0  1  0  0  0  0  0  0
  1 18  1  0  0  0  0
  2  1  1  0  0  0  0
  3  6  1  0  0  0  0
  4  1  2  0  0  0  0
  5  7  1  0  0  0  0
  7 10  1  0  0  0  0
  8 11  2  0  0  0  0
  8  2  1  0  0  0  0
  9 14  2  0  0  0  0
  9 13  1  0  0  0  0
 10  4  1  0  0  0  0
 12  5  2  0  0  0  0
 12  8  1  0  0  0  0
 13 15  1  1  0  0  0
 13 16  1  0  0  0  0
 14 12  1  0  0  0  0
 15  3  1  0  0  0  0
 16  6  1  1  0  0  0
 16 11  1  0  0  0  0
 18 17  1  0  0  0  0
 19  3  1  0  0  0  0
 20 22  2  0  0  0  0
 21 19  1  0  0  0  0
 22 21  2  0  0  0  0
 24 20  1  0  0  0  0
 24 23  1  0  0  0  0
 25 26  1  0  0  0  0
 26 24  1  0  0  0  0
 27 14  1  0  0  0  0
 28 27  1  0  0  0  0
 30 29  2  0  0  0  0
 30 28  1  0  0  0  0
 31 30  1  0  0  0  0
 31 32  1  0  0  0  0
M  END
>  <MODEL>
9

>  <REMARK>
 VINA RESULT:      -4.9      3.183      7.439
  Name = 
  9 active torsions:
  status: ('A' for Active; 'I' for Inactive)
    1  A    between atoms: C_3  and  O_15
    2  A    between atoms: C_5  and  N_28
    3  A    between atoms: N_6  and  C_13
    4  A    between atoms: C_9  and  N_28
    5  A    between atoms: C_13  and  C_17
    6  A    between atoms: C_14  and  C_25
    7  A    between atoms: C_14  and  C_31
    8  A    between atoms: O_18  and  C_31
    9  A    between atoms: C_25  and  C_29
                            x       y       z     vdW  Elec       q    Type
                         _______ _______ _______ _____ _____    ______ ____

>  <TORSDO>
F 9

$$$$
