=
 OpenBabel11042420353D

 49 55  0  0  1  0  0  0  0  0999 V2000
  158.7720  210.5860  155.6590 S   0  0  0  0  0  0  0  0  0  0  0  0
  162.5570  210.0200  152.2990 O   0  0  0  0  0  0  0  0  0  0  0  0
  159.4390  212.2690  153.7620 N   0  0  0  0  0  0  0  0  0  0  0  0
  162.1610  212.6890  146.0550 C   0  0  0  0  0  3  0  0  0  0  0  0
  158.5930  214.4530  148.5560 C   0  0  0  0  0  2  0  0  0  0  0  0
  161.5330  209.9490  150.0980 C   0  0  1  0  0  3  0  0  0  0  0  0
  159.4300  210.8350  153.9930 C   0  0  1  0  0  3  0  0  0  0  0  0
  158.5190  212.3750  155.8490 C   0  0  2  0  0  3  0  0  0  0  0  0
  159.2410  212.8180  152.4560 C   0  0  0  0  0  0  0  0  0  0  0  0
  159.3440  213.0880  154.8870 N   0  0  0  0  0  2  0  0  0  0  0  0
  161.4530  207.6780  151.1170 C   0  0  0  0  0  3  0  0  0  0  0  0
  158.2830  212.2920  151.6340 N   0  0  0  0  0  0  0  0  0  0  0  0
  158.0480  212.8120  150.3950 C   0  0  0  0  0  3  0  0  0  0  0  0
  158.8050  213.8930  149.9280 C   0  0  0  0  0  0  0  0  0  0  0  0
  160.0040  213.9190  152.0330 C   0  0  0  0  0  3  0  0  0  0  0  0
  161.2260  209.6980  152.6310 C   0  0  1  0  0  0  0  0  0  0  0  0
  158.8790  212.7930  157.2610 C   0  0  0  0  0  1  0  0  0  0  0  0
  160.8610  210.3120  153.9700 C   0  0  0  0  0  2  0  0  0  0  0  0
  161.7240  208.4380  150.0560 C   0  0  0  0  0  0  0  0  0  0  0  0
  160.0940  212.8630  147.3140 C   0  0  0  0  0  0  0  0  0  0  0  0
  159.7870  214.4490  150.7590 C   0  0  0  0  0  3  0  0  0  0  0  0
  161.5460  210.5990  151.4960 C   0  0  1  0  0  3  0  0  0  0  0  0
  160.6440  212.0330  148.2960 C   0  0  0  0  0  3  0  0  0  0  0  0
  162.5640  210.6850  149.2420 C   0  0  0  0  0  2  0  0  0  0  0  0
  162.7000  211.8640  147.0450 C   0  0  0  0  0  3  0  0  0  0  0  0
  160.9150  208.2180  152.4040 C   0  0  0  0  0  2  0  0  0  0  0  0
  160.8550  213.1950  146.1810 C   0  0  0  0  0  0  0  0  0  0  0  0
  161.9410  211.5230  148.1650 C   0  0  0  0  0  0  0  0  0  0  0  0
  158.6930  213.3730  147.4780 C   0  0  0  0  0  2  0  0  0  0  0  0
  161.5470  206.5910  148.4960 N   0  0  0  0  0  0  0  0  0  0  0  0
  162.0910  207.7210  148.8260 C   0  0  0  0  0  3  0  0  0  0  0  0
  161.0810  202.1750  147.6830 C   0  0  0  0  0  2  0  0  0  0  0  0
  161.5440  204.4480  147.1700 N   0  0  0  0  0  0  0  0  0  0  0  0
  161.8560  205.8510  147.3070 C   0  0  0  0  0  0  0  0  0  0  0  0
  161.1680  202.3350  146.1690 C   0  0  0  0  0  2  0  0  0  0  0  0
  161.1750  203.5650  148.2690 C   0  0  0  0  0  2  0  0  0  0  0  0
  161.6320  203.7540  145.9000 C   0  0  0  0  0  2  0  0  0  0  0  0
  162.4640  206.4680  146.3450 N   0  0  0  0  0  2  0  0  0  0  0  0
  160.2990  214.0140  145.1930 O   0  0  0  0  0  0  0  0  0  0  0  0
  160.6290  213.8900  143.8140 C   0  0  0  0  0  2  0  0  0  0  0  0
  159.4510  214.3190  142.9570 C   0  0  0  0  0  2  0  0  0  0  0  0
  159.7800  214.1130  141.4890 C   0  0  0  0  0  2  0  0  0  0  0  0
  161.4940  212.3520  141.1130 C   0  0  0  0  0  3  0  0  0  0  0  0
  161.1940  213.6270  141.3600 C   0  0  0  0  0  3  0  0  0  0  0  0
  160.4450  211.2940  140.9360 C   0  0  0  0  0  2  0  0  0  0  0  0
  160.7530  210.4260  139.7300 C   0  0  0  0  0  2  0  0  0  0  0  0
  162.5650  211.3190  138.2070 N   0  0  0  0  0  1  0  0  0  0  0  0
  161.1850  211.2560  138.5690 C   0  0  0  0  0  0  0  0  0  0  0  0
  160.3320  211.8970  137.9060 O   0  0  0  0  0  0  0  0  0  0  0  0
  1  8  1  0  0  0  0
  2 16  1  0  0  0  0
  3  7  1  0  0  0  0
  3 10  1  0  0  0  0
  4 27  2  0  0  0  0
  4 25  1  0  0  0  0
  5 14  1  0  0  0  0
  6 24  1  6  0  0  0
  6 22  1  0  0  0  0
  7 18  1  1  0  0  0
  7  1  1  0  0  0  0
  8 17  1  1  0  0  0
  9  3  1  0  0  0  0
 10  8  1  0  0  0  0
 11 26  1  0  0  0  0
 12  9  2  0  0  0  0
 13 12  1  0  0  0  0
 14 13  2  0  0  0  0
 14 21  1  0  0  0  0
 15  9  1  0  0  0  0
 16 26  1  6  0  0  0
 16 18  1  0  0  0  0
 19  6  1  0  0  0  0
 19 11  2  0  0  0  0
 20 29  1  0  0  0  0
 20 23  2  0  0  0  0
 21 15  2  0  0  0  0
 22  2  1  1  0  0  0
 22 16  1  0  0  0  0
 25 28  2  0  0  0  0
 27 20  1  0  0  0  0
 28 23  1  0  0  0  0
 28 24  1  0  0  0  0
 29  5  1  0  0  0  0
 30 31  2  0  0  0  0
 31 19  1  0  0  0  0
 32 36  1  0  0  0  0
 33 34  1  0  0  0  0
 33 36  1  0  0  0  0
 34 30  1  0  0  0  0
 35 32  1  0  0  0  0
 37 35  1  0  0  0  0
 37 33  1  0  0  0  0
 38 34  2  0  0  0  0
 39 27  1  0  0  0  0
 40 39  1  0  0  0  0
 41 40  1  0  0  0  0
 42 41  1  0  0  0  0
 43 44  2  0  0  0  0
 44 42  1  0  0  0  0
 45 43  1  0  0  0  0
 46 45  1  0  0  0  0
 47 48  1  0  0  0  0
 48 46  1  0  0  0  0
 49 48  2  0  0  0  0
M  END
>  <MODEL>
1

>  <REMARK>
 VINA RESULT:      -5.9      0.000      0.000
  Name = 
  10 active torsions:
  status: ('A' for Active; 'I' for Inactive)
    1  A    between atoms: C_8  and  C_24
    2  A    between atoms: C_8  and  O_32
    3  A    between atoms: C_9  and  C_14
    4  A    between atoms: C_9  and  C_31
    5  A    between atoms: N_11  and  C_16
    6  A    between atoms: C_15  and  C_17
    7  A    between atoms: C_17  and  C_24
    8  A    between atoms: C_31  and  C_44
    9  A    between atoms: O_32  and  C_45
   10  A    between atoms: C_34  and  C_46
                            x       y       z     vdW  Elec       q    Type
                         _______ _______ _______ _____ _____    ______ ____

>  <TORSDO>
F 10

$$$$
