=
 OpenBabel11052411083D

 44 48  0  0  1  0  0  0  0  0999 V2000
  161.8020  212.1530  149.2800 C   0  0  2  0  0  3  0  0  0  0  0  0
  161.7130  212.1560  147.8250 N   0  0  0  0  0  2  0  0  0  0  0  0
  162.9770  214.0990  147.5650 O   0  0  0  0  0  0  0  0  0  0  0  0
  162.2870  213.1920  147.0230 C   0  0  0  0  0  0  0  0  0  0  0  0
  160.7260  211.2900  141.7600 C   0  0  0  0  0  1  0  0  0  0  0  0
  161.1970  212.2050  142.7880 N   0  0  0  0  0  0  0  0  0  0  0  0
  162.0780  213.1810  145.5630 C   0  0  0  0  0  0  0  0  0  0  0  0
  162.3560  212.9690  142.4650 C   0  0  0  0  0  3  0  0  0  0  0  0
  160.7360  213.0540  145.0870 N   0  0  0  0  0  2  0  0  0  0  0  0
  163.1620  213.4820  143.3410 N   0  0  0  0  0  0  0  0  0  0  0  0
  163.1330  213.4050  144.7710 C   0  0  0  0  0  3  0  0  0  0  0  0
  160.2850  212.6120  143.8090 C   0  0  0  0  0  0  0  0  0  0  0  0
  159.0440  212.5350  143.6040 O   0  0  0  0  0  0  0  0  0  0  0  0
  161.9900  210.7310  149.7980 C   0  0  0  0  0  2  0  0  0  0  0  0
  161.6220  209.7480  148.7870 N   0  0  0  0  0  2  0  0  0  0  0  0
  162.8200  208.9780  148.4970 C   0  0  0  0  0  2  0  0  0  0  0  0
  160.7620  206.4300  147.6750 C   0  0  0  0  0  2  0  0  0  0  0  0
  160.2840  205.9380  148.9820 C   0  0  2  0  0  3  0  0  0  0  0  0
  161.0160  207.3230  148.8960 C   0  0  1  0  0  0  0  0  0  0  0  0
  162.5180  207.4990  148.6230 C   0  0  2  0  0  3  0  0  0  0  0  0
  162.0890  207.1990  149.9970 C   0  0  0  0  0  2  0  0  0  0  0  0
  160.9480  202.9630  151.1260 C   0  0  0  0  0  0  0  0  0  0  0  0
  160.8430  203.5660  148.3670 C   0  0  0  0  0  3  0  0  0  0  0  0
  161.0400  202.2900  148.7350 C   0  0  0  0  0  3  0  0  0  0  0  0
  161.5050  201.9680  150.1340 C   0  0  2  0  0  3  0  0  0  0  0  0
  160.6420  202.5740  152.3910 F   0  0  0  0  0  0  0  0  0  0  0  0
  161.1260  200.6820  150.4730 F   0  0  0  0  0  0  0  0  0  0  0  0
  160.7410  204.2350  150.7520 C   0  0  0  0  0  3  0  0  0  0  0  0
  161.0940  204.6850  149.3540 C   0  0  2  0  0  3  0  0  0  0  0  0
  160.5580  212.7800  149.8950 C   0  0  0  0  0  2  0  0  0  0  0  0
  160.1920  212.0750  151.1140 N   0  0  0  0  0  2  0  0  0  0  0  0
  159.1560  212.8580  151.7660 C   0  0  0  0  0  2  0  0  0  0  0  0
  159.6060  212.5120  154.1050 N   0  0  0  0  0  0  0  0  0  0  0  0
  158.8510  212.2670  153.1000 C   0  0  0  0  0  3  0  0  0  0  0  0
  159.2420  211.8410  155.6410 S   0  0  0  0  0  0  0  0  0  0  0  0
  158.8420  212.9400  156.5870 O   0  0  0  0  0  0  0  0  0  0  0  0
  158.0900  210.8880  155.4930 O   0  0  0  0  0  0  0  0  0  0  0  0
  161.7380  210.7900  155.1960 C   0  0  0  0  0  2  0  0  0  0  0  0
  160.1330  208.5650  155.6950 C   0  0  2  0  0  3  0  0  0  0  0  0
  160.6600  210.9480  156.2720 C   0  0  2  0  0  3  0  0  0  0  0  0
  160.2540  209.5810  156.8280 C   0  0  0  0  0  2  0  0  0  0  0  0
  159.8700  207.1910  156.2740 C   0  0  0  0  0  1  0  0  0  0  0  0
  161.3320  208.5490  154.9630 O   0  0  0  0  0  0  0  0  0  0  0  0
  161.3610  209.7220  154.2680 N   0  0  0  0  0  2  0  0  0  0  0  0
  1 14  1  1  0  0  0
  1 30  1  0  0  0  0
  2  1  1  0  0  0  0
  4  3  2  0  0  0  0
  4  2  1  0  0  0  0
  5  6  1  0  0  0  0
  6 12  1  0  0  0  0
  7  4  1  0  0  0  0
  8  6  1  0  0  0  0
  8 10  2  0  0  0  0
  9  7  1  0  0  0  0
 10 11  1  0  0  0  0
 11  7  2  0  0  0  0
 12  9  1  0  0  0  0
 13 12  2  0  0  0  0
 15 14  1  0  0  0  0
 16 15  1  0  0  0  0
 18 17  1  6  0  0  0
 18 29  1  0  0  0  0
 19 17  1  1  0  0  0
 19 18  1  0  0  0  0
 19 21  1  0  0  0  0
 20 16  1  1  0  0  0
 20 19  1  0  0  0  0
 20 21  1  0  0  0  0
 22 26  1  0  0  0  0
 23 24  2  0  0  0  0
 24 25  1  0  0  0  0
 25 27  1  1  0  0  0
 25 22  1  0  0  0  0
 28 22  2  0  0  0  0
 29 23  1  6  0  0  0
 29 28  1  0  0  0  0
 30 31  1  0  0  0  0
 31 32  1  0  0  0  0
 32 34  1  0  0  0  0
 33 35  1  0  0  0  0
 34 33  2  0  0  0  0
 35 36  2  0  0  0  0
 37 35  2  0  0  0  0
 38 40  1  0  0  0  0
 39 42  1  1  0  0  0
 39 41  1  0  0  0  0
 40 35  1  6  0  0  0
 40 41  1  0  0  0  0
 43 39  1  0  0  0  0
 44 43  1  0  0  0  0
 44 38  1  0  0  0  0
M  END
>  <MODEL>
1

>  <REMARK>
 VINA RESULT:      -7.6      0.000      0.000
  Name = 
  13 active torsions:
  status: ('A' for Active; 'I' for Inactive)
    1  A    between atoms: C_1  and  N_17
    2  A    between atoms: C_1  and  C_34
    3  A    between atoms: N_2  and  C_29
    4  A    between atoms: C_8  and  C_33
    5  A    between atoms: C_11  and  S_21
    6  A    between atoms: C_14  and  C_43
    7  A    between atoms: N_17  and  C_42
    8  A    between atoms: N_18  and  C_22
    9  A    between atoms: N_18  and  C_25
   10  A    between atoms: S_21  and  N_26
   11  A    between atoms: C_22  and  C_23
   12  A    between atoms: C_25  and  C_29
   13  A    between atoms: C_29  and  C_42
                            x       y       z     vdW  Elec       q    Type
                         _______ _______ _______ _____ _____    ______ ____

>  <TORSDO>
F 13

$$$$
=
 OpenBabel11052411083D

 44 48  0  0  1  0  0  0  0  0999 V2000
  161.1150  209.3830  151.6460 C   0  0  2  0  0  3  0  0  0  0  0  0
  160.2620  210.0860  152.5980 N   0  0  0  0  0  2  0  0  0  0  0  0
  162.0330  210.8270  153.9220 O   0  0  0  0  0  0  0  0  0  0  0  0
  160.7850  210.7530  153.7490 C   0  0  0  0  0  0  0  0  0  0  0  0
  156.4970  214.0690  155.8400 C   0  0  0  0  0  1  0  0  0  0  0  0
  157.5500  213.0660  155.8200 N   0  0  0  0  0  0  0  0  0  0  0  0
  159.8570  211.3630  154.7200 C   0  0  0  0  0  0  0  0  0  0  0  0
  158.4730  213.1020  156.9060 C   0  0  0  0  0  3  0  0  0  0  0  0
  158.4580  211.1310  154.5360 N   0  0  0  0  0  2  0  0  0  0  0  0
  159.6760  212.6230  156.8610 N   0  0  0  0  0  0  0  0  0  0  0  0
  160.3750  211.9970  155.7790 C   0  0  0  0  0  3  0  0  0  0  0  0
  157.3590  211.8910  155.0310 C   0  0  0  0  0  0  0  0  0  0  0  0
  156.1930  211.5340  154.7160 O   0  0  0  0  0  0  0  0  0  0  0  0
  162.0110  208.3850  152.3700 C   0  0  0  0  0  2  0  0  0  0  0  0
  161.2300  207.4840  153.2060 N   0  0  0  0  0  2  0  0  0  0  0  0
  161.7920  206.1550  153.0270 C   0  0  0  0  0  2  0  0  0  0  0  0
  160.2160  206.0850  150.0400 C   0  0  0  0  0  2  0  0  0  0  0  0
  160.2840  204.6630  149.6490 C   0  0  2  0  0  3  0  0  0  0  0  0
  160.6200  205.0770  151.1240 C   0  0  1  0  0  0  0  0  0  0  0  0
  161.8860  205.8370  151.5480 C   0  0  2  0  0  3  0  0  0  0  0  0
  161.9760  204.3810  151.3630 C   0  0  0  0  0  2  0  0  0  0  0  0
  161.6740  203.4090  146.4260 C   0  0  0  0  0  0  0  0  0  0  0  0
  161.7340  205.7970  147.9370 C   0  0  0  0  0  3  0  0  0  0  0  0
  162.3230  205.7890  146.7310 C   0  0  0  0  0  3  0  0  0  0  0  0
  162.6790  204.4800  146.0700 C   0  0  2  0  0  3  0  0  0  0  0  0
  161.3600  202.4360  145.5310 F   0  0  0  0  0  0  0  0  0  0  0  0
  162.7440  204.6460  144.6990 F   0  0  0  0  0  0  0  0  0  0  0  0
  161.0770  203.4250  147.6280 C   0  0  0  0  0  3  0  0  0  0  0  0
  161.4310  204.4910  148.6390 C   0  0  2  0  0  3  0  0  0  0  0  0
  161.9570  210.3710  150.8500 C   0  0  0  0  0  2  0  0  0  0  0  0
  161.9350  210.0240  149.4380 N   0  0  0  0  0  2  0  0  0  0  0  0
  162.4630  211.1640  148.7080 C   0  0  0  0  0  2  0  0  0  0  0  0
  160.7160  212.1070  147.3470 N   0  0  0  0  0  0  0  0  0  0  0  0
  161.3680  212.1410  148.4500 C   0  0  0  0  0  3  0  0  0  0  0  0
  159.4470  213.2250  147.0620 S   0  0  0  0  0  0  0  0  0  0  0  0
  158.1270  212.5050  147.0980 O   0  0  0  0  0  0  0  0  0  0  0  0
  159.4610  214.2630  148.1480 O   0  0  0  0  0  0  0  0  0  0  0  0
  159.0350  213.2350  144.3480 C   0  0  0  0  0  2  0  0  0  0  0  0
  161.8000  212.9920  144.6250 C   0  0  2  0  0  3  0  0  0  0  0  0
  159.6850  214.0330  145.4820 C   0  0  2  0  0  3  0  0  0  0  0  0
  161.1700  214.2620  145.1920 C   0  0  0  0  0  2  0  0  0  0  0  0
  163.2280  213.2760  144.2130 C   0  0  0  0  0  1  0  0  0  0  0  0
  161.0590  212.5740  143.5070 O   0  0  0  0  0  0  0  0  0  0  0  0
  159.8810  212.0930  143.9970 N   0  0  0  0  0  2  0  0  0  0  0  0
  1 30  1  1  0  0  0
  1 14  1  0  0  0  0
  1  2  1  0  0  0  0
  2  4  1  0  0  0  0
  4  3  2  0  0  0  0
  4  7  1  0  0  0  0
  6  5  1  0  0  0  0
  6  8  1  0  0  0  0
  7 11  2  0  0  0  0
  9  7  1  0  0  0  0
  9 12  1  0  0  0  0
 10  8  2  0  0  0  0
 11 10  1  0  0  0  0
 12  6  1  0  0  0  0
 13 12  2  0  0  0  0
 14 15  1  0  0  0  0
 16 15  1  0  0  0  0
 18 17  1  6  0  0  0
 18 19  1  0  0  0  0
 19 17  1  1  0  0  0
 19 21  1  0  0  0  0
 19 20  1  0  0  0  0
 20 16  1  1  0  0  0
 21 20  1  0  0  0  0
 22 28  2  0  0  0  0
 23 29  1  0  0  0  0
 24 23  2  0  0  0  0
 25 27  1  6  0  0  0
 25 22  1  0  0  0  0
 25 24  1  0  0  0  0
 26 22  1  0  0  0  0
 29 28  1  6  0  0  0
 29 18  1  0  0  0  0
 31 30  1  0  0  0  0
 32 31  1  0  0  0  0
 33 34  2  0  0  0  0
 34 32  1  0  0  0  0
 35 36  2  0  0  0  0
 35 33  1  0  0  0  0
 35 37  2  0  0  0  0
 38 40  1  0  0  0  0
 39 42  1  6  0  0  0
 39 41  1  0  0  0  0
 40 35  1  1  0  0  0
 41 40  1  0  0  0  0
 43 44  1  0  0  0  0
 43 39  1  0  0  0  0
 44 38  1  0  0  0  0
M  END
>  <MODEL>
2

>  <REMARK>
 VINA RESULT:      -7.3      2.783      8.552
  Name = 
  13 active torsions:
  status: ('A' for Active; 'I' for Inactive)
    1  A    between atoms: C_1  and  N_17
    2  A    between atoms: C_1  and  C_34
    3  A    between atoms: N_2  and  C_29
    4  A    between atoms: C_8  and  C_33
    5  A    between atoms: C_11  and  S_21
    6  A    between atoms: C_14  and  C_43
    7  A    between atoms: N_17  and  C_42
    8  A    between atoms: N_18  and  C_22
    9  A    between atoms: N_18  and  C_25
   10  A    between atoms: S_21  and  N_26
   11  A    between atoms: C_22  and  C_23
   12  A    between atoms: C_25  and  C_29
   13  A    between atoms: C_29  and  C_42
                            x       y       z     vdW  Elec       q    Type
                         _______ _______ _______ _____ _____    ______ ____

>  <TORSDO>
F 13

$$$$
=
 OpenBabel11052411083D

 44 48  0  0  1  0  0  0  0  0999 V2000
  161.8500  207.2720  151.5590 C   0  0  2  0  0  3  0  0  0  0  0  0
  161.4660  206.6640  150.2910 N   0  0  0  0  0  2  0  0  0  0  0  0
  163.1670  207.6900  149.0690 O   0  0  0  0  0  0  0  0  0  0  0  0
  162.1420  206.9530  149.0650 C   0  0  0  0  0  0  0  0  0  0  0  0
  161.8780  205.5990  143.4210 C   0  0  0  0  0  1  0  0  0  0  0  0
  161.5300  205.6040  144.8330 N   0  0  0  0  0  0  0  0  0  0  0  0
  161.6410  206.3750  147.8040 C   0  0  0  0  0  0  0  0  0  0  0  0
  160.1460  205.7570  145.1390 C   0  0  0  0  0  3  0  0  0  0  0  0
  162.4710  205.4220  147.1350 N   0  0  0  0  0  2  0  0  0  0  0  0
  159.6900  206.2130  146.2630 N   0  0  0  0  0  0  0  0  0  0  0  0
  160.3970  206.6830  147.4170 C   0  0  0  0  0  3  0  0  0  0  0  0
  162.4490  205.0320  145.7650 C   0  0  0  0  0  0  0  0  0  0  0  0
  163.3020  204.1960  145.3650 O   0  0  0  0  0  0  0  0  0  0  0  0
  161.6300  206.2930  152.7070 C   0  0  0  0  0  2  0  0  0  0  0  0
  161.8900  204.9220  152.2880 N   0  0  0  0  0  2  0  0  0  0  0  0
  160.5960  204.3090  152.0370 C   0  0  0  0  0  2  0  0  0  0  0  0
  159.7520  201.4770  150.4020 C   0  0  0  0  0  2  0  0  0  0  0  0
  161.0540  200.9170  149.9880 C   0  0  2  0  0  3  0  0  0  0  0  0
  161.0080  202.0700  151.0510 C   0  0  1  0  0  0  0  0  0  0  0  0
  160.6450  203.5300  150.7380 C   0  0  2  0  0  3  0  0  0  0  0  0
  162.0230  203.0840  150.4840 C   0  0  0  0  0  2  0  0  0  0  0  0
  161.3220  199.9990  146.3860 C   0  0  0  0  0  0  0  0  0  0  0  0
  160.1030  202.0210  147.9400 C   0  0  0  0  0  3  0  0  0  0  0  0
  159.8730  202.0050  146.6170 C   0  0  0  0  0  3  0  0  0  0  0  0
  160.7870  201.2330  145.6980 C   0  0  2  0  0  3  0  0  0  0  0  0
  161.5710  198.8690  145.6750 F   0  0  0  0  0  0  0  0  0  0  0  0
  160.1120  200.8890  144.5410 F   0  0  0  0  0  0  0  0  0  0  0  0
  161.5420  200.0140  147.7100 C   0  0  0  0  0  3  0  0  0  0  0  0
  161.2860  201.2700  148.5100 C   0  0  2  0  0  3  0  0  0  0  0  0
  161.0650  208.5540  151.7990 C   0  0  0  0  0  2  0  0  0  0  0  0
  161.9610  209.7000  151.7950 N   0  0  0  0  0  2  0  0  0  0  0  0
  161.1570  210.8720  151.4960 C   0  0  0  0  0  2  0  0  0  0  0  0
  160.7110  211.5230  153.7700 N   0  0  0  0  0  0  0  0  0  0  0  0
  160.2410  211.1520  152.6380 C   0  0  0  0  0  3  0  0  0  0  0  0
  159.6510  211.8560  155.0770 S   0  0  0  0  0  0  0  0  0  0  0  0
  159.5540  213.3440  155.2770 O   0  0  0  0  0  0  0  0  0  0  0  0
  158.2860  211.3240  154.7420 O   0  0  0  0  0  0  0  0  0  0  0  0
  161.7690  211.0730  156.6360 C   0  0  0  0  0  2  0  0  0  0  0  0
  160.5810  208.6800  155.8340 C   0  0  2  0  0  3  0  0  0  0  0  0
  160.2400  211.0540  156.5650 C   0  0  2  0  0  3  0  0  0  0  0  0
  159.7150  209.6210  156.6690 C   0  0  0  0  0  2  0  0  0  0  0  0
  160.1370  207.2510  156.0590 C   0  0  0  0  0  1  0  0  0  0  0  0
  161.9230  208.8260  156.2230 O   0  0  0  0  0  0  0  0  0  0  0  0
  162.3190  210.0430  155.7520 N   0  0  0  0  0  2  0  0  0  0  0  0
  1 30  1  1  0  0  0
  1 14  1  0  0  0  0
  2  1  1  0  0  0  0
  4  3  2  0  0  0  0
  4  2  1  0  0  0  0
  5  6  1  0  0  0  0
  6  8  1  0  0  0  0
  6 12  1  0  0  0  0
  7  4  1  0  0  0  0
  8 10  2  0  0  0  0
  9  7  1  0  0  0  0
 10 11  1  0  0  0  0
 11  7  2  0  0  0  0
 12  9  1  0  0  0  0
 13 12  2  0  0  0  0
 15 14  1  0  0  0  0
 16 15  1  0  0  0  0
 18 17  1  6  0  0  0
 18 19  1  0  0  0  0
 19 17  1  1  0  0  0
 20 19  1  0  0  0  0
 20 16  1  1  0  0  0
 21 20  1  0  0  0  0
 21 19  1  0  0  0  0
 22 28  2  0  0  0  0
 23 29  1  0  0  0  0
 24 23  2  0  0  0  0
 25 27  1  6  0  0  0
 25 22  1  0  0  0  0
 25 24  1  0  0  0  0
 26 22  1  0  0  0  0
 29 28  1  6  0  0  0
 29 18  1  0  0  0  0
 31 30  1  0  0  0  0
 32 31  1  0  0  0  0
 32 34  1  0  0  0  0
 33 35  1  0  0  0  0
 34 33  2  0  0  0  0
 35 36  2  0  0  0  0
 37 35  2  0  0  0  0
 39 42  1  1  0  0  0
 39 43  1  0  0  0  0
 39 41  1  0  0  0  0
 40 35  1  6  0  0  0
 40 38  1  0  0  0  0
 40 41  1  0  0  0  0
 44 43  1  0  0  0  0
 44 38  1  0  0  0  0
M  END
>  <MODEL>
3

>  <REMARK>
 VINA RESULT:      -6.3      4.065      5.216
  Name = 
  13 active torsions:
  status: ('A' for Active; 'I' for Inactive)
    1  A    between atoms: C_1  and  N_17
    2  A    between atoms: C_1  and  C_34
    3  A    between atoms: N_2  and  C_29
    4  A    between atoms: C_8  and  C_33
    5  A    between atoms: C_11  and  S_21
    6  A    between atoms: C_14  and  C_43
    7  A    between atoms: N_17  and  C_42
    8  A    between atoms: N_18  and  C_22
    9  A    between atoms: N_18  and  C_25
   10  A    between atoms: S_21  and  N_26
   11  A    between atoms: C_22  and  C_23
   12  A    between atoms: C_25  and  C_29
   13  A    between atoms: C_29  and  C_42
                            x       y       z     vdW  Elec       q    Type
                         _______ _______ _______ _____ _____    ______ ____

>  <TORSDO>
F 13

$$$$
=
 OpenBabel11052411083D

 44 48  0  0  1  0  0  0  0  0999 V2000
  161.4550  210.9990  150.3680 C   0  0  2  0  0  3  0  0  0  0  0  0
  160.6330  211.8830  151.1860 N   0  0  0  0  0  2  0  0  0  0  0  0
  159.8250  210.1740  152.5520 O   0  0  0  0  0  0  0  0  0  0  0  0
  159.7990  211.3970  152.2410 C   0  0  0  0  0  0  0  0  0  0  0  0
  155.5580  213.3030  155.7250 C   0  0  0  0  0  1  0  0  0  0  0  0
  156.7230  213.3480  154.8550 N   0  0  0  0  0  0  0  0  0  0  0  0
  158.9230  212.3370  152.9660 C   0  0  0  0  0  0  0  0  0  0  0  0
  156.7130  214.3530  153.8450 C   0  0  0  0  0  3  0  0  0  0  0  0
  158.9290  212.2820  154.3940 N   0  0  0  0  0  2  0  0  0  0  0  0
  157.3950  214.2920  152.7440 N   0  0  0  0  0  0  0  0  0  0  0  0
  158.2620  213.2600  152.2580 C   0  0  0  0  0  3  0  0  0  0  0  0
  157.9350  212.7420  155.3060 C   0  0  0  0  0  0  0  0  0  0  0  0
  158.1210  212.5600  156.5390 O   0  0  0  0  0  0  0  0  0  0  0  0
  162.4770  210.2700  151.2350 C   0  0  0  0  0  2  0  0  0  0  0  0
  162.4170  208.8310  151.0240 N   0  0  0  0  0  2  0  0  0  0  0  0
  162.3530  208.6210  149.5870 C   0  0  0  0  0  2  0  0  0  0  0  0
  160.3860  206.2430  148.2150 C   0  0  0  0  0  2  0  0  0  0  0  0
  160.0730  205.3560  149.3530 C   0  0  2  0  0  3  0  0  0  0  0  0
  160.7040  206.7670  149.6200 C   0  0  1  0  0  0  0  0  0  0  0  0
  162.1570  207.1460  149.2960 C   0  0  2  0  0  3  0  0  0  0  0  0
  161.8880  206.4280  150.5500 C   0  0  0  0  0  2  0  0  0  0  0  0
  160.8350  201.7690  150.0140 C   0  0  0  0  0  0  0  0  0  0  0  0
  161.0610  203.5880  147.8630 C   0  0  0  0  0  3  0  0  0  0  0  0
  161.3850  202.3030  147.6500 C   0  0  0  0  0  3  0  0  0  0  0  0
  161.6750  201.3910  148.8160 C   0  0  2  0  0  3  0  0  0  0  0  0
  160.4020  200.8140  150.8780 F   0  0  0  0  0  0  0  0  0  0  0  0
  161.4430  200.0770  148.4550 F   0  0  0  0  0  0  0  0  0  0  0  0
  160.5030  203.0520  150.2190 C   0  0  0  0  0  3  0  0  0  0  0  0
  160.9920  204.1260  149.2760 C   0  0  2  0  0  3  0  0  0  0  0  0
  162.1580  211.7840  149.2690 C   0  0  0  0  0  2  0  0  0  0  0  0
  161.3200  211.8430  148.0820 N   0  0  0  0  0  2  0  0  0  0  0  0
  160.7340  213.1720  148.0370 C   0  0  0  0  0  2  0  0  0  0  0  0
  160.9060  212.8980  145.6520 N   0  0  0  0  0  0  0  0  0  0  0  0
  160.8030  213.7000  146.6450 C   0  0  0  0  0  3  0  0  0  0  0  0
  160.9710  213.5110  144.0510 S   0  0  0  0  0  0  0  0  0  0  0  0
  159.8160  214.4470  143.8260 O   0  0  0  0  0  0  0  0  0  0  0  0
  162.2530  214.2740  143.8750 O   0  0  0  0  0  0  0  0  0  0  0  0
  162.1990  212.1350  142.0180 C   0  0  0  0  0  2  0  0  0  0  0  0
  159.9100  213.2100  140.8400 C   0  0  2  0  0  3  0  0  0  0  0  0
  160.9310  212.1600  142.8760 C   0  0  2  0  0  3  0  0  0  0  0  0
  159.6850  212.2310  141.9900 C   0  0  0  0  0  2  0  0  0  0  0  0
  158.7270  213.1630  139.8970 C   0  0  0  0  0  1  0  0  0  0  0  0
  161.0800  212.8470  140.1510 O   0  0  0  0  0  0  0  0  0  0  0  0
  162.1150  213.1640  140.9790 N   0  0  0  0  0  2  0  0  0  0  0  0
  1 30  1  6  0  0  0
  1  2  1  0  0  0  0
  1 14  1  0  0  0  0
  2  4  1  0  0  0  0
  4  3  2  0  0  0  0
  4  7  1  0  0  0  0
  6 12  1  0  0  0  0
  6  5  1  0  0  0  0
  7  9  1  0  0  0  0
  8  6  1  0  0  0  0
  9 12  1  0  0  0  0
 10  8  2  0  0  0  0
 11 10  1  0  0  0  0
 11  7  2  0  0  0  0
 12 13  2  0  0  0  0
 15 14  1  0  0  0  0
 16 15  1  0  0  0  0
 18 17  1  6  0  0  0
 18 19  1  0  0  0  0
 19 17  1  1  0  0  0
 19 21  1  0  0  0  0
 20 16  1  1  0  0  0
 20 19  1  0  0  0  0
 20 21  1  0  0  0  0
 22 28  2  0  0  0  0
 22 26  1  0  0  0  0
 24 23  2  0  0  0  0
 24 25  1  0  0  0  0
 25 27  1  6  0  0  0
 25 22  1  0  0  0  0
 29 23  1  6  0  0  0
 29 18  1  0  0  0  0
 29 28  1  0  0  0  0
 31 30  1  0  0  0  0
 32 31  1  0  0  0  0
 33 34  2  0  0  0  0
 34 32  1  0  0  0  0
 35 33  1  0  0  0  0
 36 35  2  0  0  0  0
 37 35  2  0  0  0  0
 38 40  1  0  0  0  0
 39 42  1  6  0  0  0
 39 41  1  0  0  0  0
 40 35  1  1  0  0  0
 41 40  1  0  0  0  0
 43 39  1  0  0  0  0
 43 44  1  0  0  0  0
 44 38  1  0  0  0  0
M  END
>  <MODEL>
4

>  <REMARK>
 VINA RESULT:      -6.1      2.786      8.963
  Name = 
  13 active torsions:
  status: ('A' for Active; 'I' for Inactive)
    1  A    between atoms: C_1  and  N_17
    2  A    between atoms: C_1  and  C_34
    3  A    between atoms: N_2  and  C_29
    4  A    between atoms: C_8  and  C_33
    5  A    between atoms: C_11  and  S_21
    6  A    between atoms: C_14  and  C_43
    7  A    between atoms: N_17  and  C_42
    8  A    between atoms: N_18  and  C_22
    9  A    between atoms: N_18  and  C_25
   10  A    between atoms: S_21  and  N_26
   11  A    between atoms: C_22  and  C_23
   12  A    between atoms: C_25  and  C_29
   13  A    between atoms: C_29  and  C_42
                            x       y       z     vdW  Elec       q    Type
                         _______ _______ _______ _____ _____    ______ ____

>  <TORSDO>
F 13

$$$$
=
 OpenBabel11052411083D

 44 48  0  0  1  0  0  0  0  0999 V2000
  161.7990  209.0630  150.0970 C   0  0  2  0  0  3  0  0  0  0  0  0
  161.9580  210.0060  148.9960 N   0  0  0  0  0  2  0  0  0  0  0  0
  161.0850  211.8190  150.1750 O   0  0  0  0  0  0  0  0  0  0  0  0
  161.5340  211.3690  149.0850 C   0  0  0  0  0  0  0  0  0  0  0  0
  161.9300  212.9570  143.5110 C   0  0  0  0  0  1  0  0  0  0  0  0
  161.7860  213.0880  144.9520 N   0  0  0  0  0  0  0  0  0  0  0  0
  161.6400  212.2410  147.9000 C   0  0  0  0  0  0  0  0  0  0  0  0
  162.5860  214.0890  145.5750 C   0  0  0  0  0  3  0  0  0  0  0  0
  160.5820  212.1870  146.9410 N   0  0  0  0  0  2  0  0  0  0  0  0
  162.9330  214.0780  146.8240 N   0  0  0  0  0  0  0  0  0  0  0  0
  162.6540  213.1130  147.8450 C   0  0  0  0  0  3  0  0  0  0  0  0
  160.6060  212.5730  145.5690 C   0  0  0  0  0  0  0  0  0  0  0  0
  159.5640  212.4050  144.8800 O   0  0  0  0  0  0  0  0  0  0  0  0
  162.4980  209.5840  151.3480 C   0  0  0  0  0  2  0  0  0  0  0  0
  161.7030  209.3320  152.5420 N   0  0  0  0  0  2  0  0  0  0  0  0
  162.0740  210.3470  153.5140 C   0  0  0  0  0  2  0  0  0  0  0  0
  160.5570  211.9580  156.0650 C   0  0  0  0  0  2  0  0  0  0  0  0
  159.3560  211.1400  156.3240 C   0  0  2  0  0  3  0  0  0  0  0  0
  160.5050  210.5660  155.4240 C   0  0  1  0  0  0  0  0  0  0  0  0
  160.8300  211.0600  154.0050 C   0  0  2  0  0  3  0  0  0  0  0  0
  159.7390  210.0880  154.1730 C   0  0  0  0  0  2  0  0  0  0  0  0
  155.7970  212.2440  156.2930 C   0  0  0  0  0  0  0  0  0  0  0  0
  158.3230  213.3250  155.6340 C   0  0  0  0  0  3  0  0  0  0  0  0
  157.2460  214.1230  155.5530 C   0  0  0  0  0  3  0  0  0  0  0  0
  155.8630  213.5240  155.4920 C   0  0  2  0  0  3  0  0  0  0  0  0
  154.6520  211.8940  156.9350 F   0  0  0  0  0  0  0  0  0  0  0  0
  154.9330  214.4350  155.9580 F   0  0  0  0  0  0  0  0  0  0  0  0
  156.8780  211.4540  156.3800 C   0  0  0  0  0  3  0  0  0  0  0  0
  158.1510  211.8220  155.6560 C   0  0  2  0  0  3  0  0  0  0  0  0
  162.3460  207.6950  149.7160 C   0  0  0  0  0  2  0  0  0  0  0  0
  161.2530  206.7650  149.4790 N   0  0  0  0  0  2  0  0  0  0  0  0
  161.0210  206.0510  150.7230 C   0  0  0  0  0  2  0  0  0  0  0  0
  160.4540  203.9800  149.6360 N   0  0  0  0  0  0  0  0  0  0  0  0
  161.1850  204.5870  150.4950 C   0  0  0  0  0  3  0  0  0  0  0  0
  160.6560  202.2980  149.3670 S   0  0  0  0  0  0  0  0  0  0  0  0
  161.1490  201.6450  150.6290 O   0  0  0  0  0  0  0  0  0  0  0  0
  159.3260  201.7020  149.0020 O   0  0  0  0  0  0  0  0  0  0  0  0
  162.2490  203.3510  147.3950 C   0  0  0  0  0  2  0  0  0  0  0  0
  160.3100  201.8980  146.0130 C   0  0  2  0  0  3  0  0  0  0  0  0
  161.8060  202.0260  148.0220 C   0  0  2  0  0  3  0  0  0  0  0  0
  161.2090  201.1030  146.9580 C   0  0  0  0  0  2  0  0  0  0  0  0
  159.8420  201.0020  144.8870 C   0  0  0  0  0  1  0  0  0  0  0  0
  161.0400  202.9770  145.4870 O   0  0  0  0  0  0  0  0  0  0  0  0
  161.1950  203.8600  146.5150 N   0  0  0  0  0  2  0  0  0  0  0  0
  1 30  1  6  0  0  0
  1 14  1  0  0  0  0
  2  4  1  0  0  0  0
  2  1  1  0  0  0  0
  4  3  2  0  0  0  0
  5  6  1  0  0  0  0
  6 12  1  0  0  0  0
  6  8  1  0  0  0  0
  7  4  1  0  0  0  0
  8 10  2  0  0  0  0
  9  7  1  0  0  0  0
 10 11  1  0  0  0  0
 11  7  2  0  0  0  0
 12  9  1  0  0  0  0
 13 12  2  0  0  0  0
 14 15  1  0  0  0  0
 15 16  1  0  0  0  0
 18 17  1  1  0  0  0
 19 21  1  1  0  0  0
 19 17  1  0  0  0  0
 19 18  1  0  0  0  0
 20 16  1  6  0  0  0
 20 21  1  0  0  0  0
 20 19  1  0  0  0  0
 22 28  2  0  0  0  0
 22 26  1  0  0  0  0
 24 23  2  0  0  0  0
 25 24  1  0  0  0  0
 25 27  1  1  0  0  0
 25 22  1  0  0  0  0
 29 23  1  1  0  0  0
 29 18  1  0  0  0  0
 29 28  1  0  0  0  0
 31 30  1  0  0  0  0
 31 32  1  0  0  0  0
 33 34  2  0  0  0  0
 34 32  1  0  0  0  0
 35 33  1  0  0  0  0
 35 36  2  0  0  0  0
 37 35  2  0  0  0  0
 38 40  1  0  0  0  0
 39 42  1  6  0  0  0
 39 41  1  0  0  0  0
 40 35  1  1  0  0  0
 41 40  1  0  0  0  0
 43 39  1  0  0  0  0
 43 44  1  0  0  0  0
 44 38  1  0  0  0  0
M  END
>  <MODEL>
5

>  <REMARK>
 VINA RESULT:      -5.9      4.705      8.804
  Name = 
  13 active torsions:
  status: ('A' for Active; 'I' for Inactive)
    1  A    between atoms: C_1  and  N_17
    2  A    between atoms: C_1  and  C_34
    3  A    between atoms: N_2  and  C_29
    4  A    between atoms: C_8  and  C_33
    5  A    between atoms: C_11  and  S_21
    6  A    between atoms: C_14  and  C_43
    7  A    between atoms: N_17  and  C_42
    8  A    between atoms: N_18  and  C_22
    9  A    between atoms: N_18  and  C_25
   10  A    between atoms: S_21  and  N_26
   11  A    between atoms: C_22  and  C_23
   12  A    between atoms: C_25  and  C_29
   13  A    between atoms: C_29  and  C_42
                            x       y       z     vdW  Elec       q    Type
                         _______ _______ _______ _____ _____    ______ ____

>  <TORSDO>
F 13

$$$$
=
 OpenBabel11052411083D

 44 48  0  0  1  0  0  0  0  0999 V2000
  160.8720  207.1190  152.3550 C   0  0  2  0  0  3  0  0  0  0  0  0
  161.2950  208.2900  151.5960 N   0  0  0  0  0  2  0  0  0  0  0  0
  159.8040  209.7420  152.6490 O   0  0  0  0  0  0  0  0  0  0  0  0
  160.6830  209.5730  151.7590 C   0  0  0  0  0  0  0  0  0  0  0  0
  160.2690  214.0710  148.1060 C   0  0  0  0  0  1  0  0  0  0  0  0
  160.8790  213.1090  149.0100 N   0  0  0  0  0  0  0  0  0  0  0  0
  161.0970  210.6910  150.8920 C   0  0  0  0  0  0  0  0  0  0  0  0
  162.0940  212.5110  148.5650 C   0  0  0  0  0  3  0  0  0  0  0  0
  160.6310  212.0000  151.2300 N   0  0  0  0  0  2  0  0  0  0  0  0
  162.5440  211.3680  148.9800 N   0  0  0  0  0  0  0  0  0  0  0  0
  161.9730  210.4410  149.9110 C   0  0  0  0  0  3  0  0  0  0  0  0
  160.5190  213.1470  150.3910 C   0  0  0  0  0  0  0  0  0  0  0  0
  160.0410  214.2050  150.8820 O   0  0  0  0  0  0  0  0  0  0  0  0
  160.6180  207.4920  153.8110 C   0  0  0  0  0  2  0  0  0  0  0  0
  161.8400  207.4090  154.5990 N   0  0  0  0  0  2  0  0  0  0  0  0
  161.5980  208.1490  155.8260 C   0  0  0  0  0  2  0  0  0  0  0  0
  160.8970  211.4250  155.3980 C   0  0  0  0  0  2  0  0  0  0  0  0
  159.9720  211.7270  156.5080 C   0  0  2  0  0  3  0  0  0  0  0  0
  160.7900  210.3890  156.5230 C   0  0  1  0  0  0  0  0  0  0  0  0
  160.5320  209.1990  155.5860 C   0  0  2  0  0  3  0  0  0  0  0  0
  159.6950  209.3340  156.7870 C   0  0  0  0  0  2  0  0  0  0  0  0
  156.4740  213.0100  156.4180 C   0  0  0  0  0  0  0  0  0  0  0  0
  158.4880  212.3080  154.5640 C   0  0  0  0  0  3  0  0  0  0  0  0
  157.3440  212.8340  154.0960 C   0  0  0  0  0  3  0  0  0  0  0  0
  156.1080  212.8470  154.9610 C   0  0  2  0  0  3  0  0  0  0  0  0
  155.6530  213.6890  157.2610 F   0  0  0  0  0  0  0  0  0  0  0  0
  155.2620  213.8640  154.5570 F   0  0  0  0  0  0  0  0  0  0  0  0
  157.6230  212.4930  156.8800 C   0  0  0  0  0  3  0  0  0  0  0  0
  158.5360  211.7210  155.9570 C   0  0  2  0  0  3  0  0  0  0  0  0
  161.9190  206.0170  152.2660 C   0  0  0  0  0  2  0  0  0  0  0  0
  161.3030  204.7210  152.5030 N   0  0  0  0  0  2  0  0  0  0  0  0
  161.1060  204.0960  151.2060 C   0  0  0  0  0  2  0  0  0  0  0  0
  161.1940  204.7790  148.9000 N   0  0  0  0  0  0  0  0  0  0  0  0
  161.3840  205.0870  150.1280 C   0  0  0  0  0  3  0  0  0  0  0  0
  161.5020  205.9290  147.6650 S   0  0  0  0  0  0  0  0  0  0  0  0
  160.2080  206.5700  147.2420 O   0  0  0  0  0  0  0  0  0  0  0  0
  162.4140  206.9920  148.2090 O   0  0  0  0  0  0  0  0  0  0  0  0
  161.7610  205.6740  144.9440 C   0  0  0  0  0  2  0  0  0  0  0  0
  160.7830  203.1990  145.7780 C   0  0  2  0  0  3  0  0  0  0  0  0
  162.2990  205.1340  146.2720 C   0  0  2  0  0  3  0  0  0  0  0  0
  162.1430  203.6130  146.3350 C   0  0  0  0  0  2  0  0  0  0  0  0
  160.7000  201.6890  145.7170 C   0  0  0  0  0  1  0  0  0  0  0  0
  160.6340  203.7340  144.4880 O   0  0  0  0  0  0  0  0  0  0  0  0
  160.4560  205.0760  144.6580 N   0  0  0  0  0  2  0  0  0  0  0  0
  1 30  1  1  0  0  0
  1 14  1  0  0  0  0
  2  4  1  0  0  0  0
  2  1  1  0  0  0  0
  4  3  2  0  0  0  0
  5  6  1  0  0  0  0
  6 12  1  0  0  0  0
  7  9  1  0  0  0  0
  7  4  1  0  0  0  0
  8 10  2  0  0  0  0
  8  6  1  0  0  0  0
 10 11  1  0  0  0  0
 11  7  2  0  0  0  0
 12 13  2  0  0  0  0
 12  9  1  0  0  0  0
 14 15  1  0  0  0  0
 15 16  1  0  0  0  0
 18 17  1  6  0  0  0
 18 19  1  0  0  0  0
 19 17  1  1  0  0  0
 19 21  1  0  0  0  0
 20 16  1  1  0  0  0
 20 19  1  0  0  0  0
 20 21  1  0  0  0  0
 22 28  2  0  0  0  0
 22 26  1  0  0  0  0
 24 23  2  0  0  0  0
 24 25  1  0  0  0  0
 25 27  1  6  0  0  0
 25 22  1  0  0  0  0
 29 23  1  6  0  0  0
 29 18  1  0  0  0  0
 29 28  1  0  0  0  0
 30 31  1  0  0  0  0
 32 31  1  0  0  0  0
 33 34  2  0  0  0  0
 34 32  1  0  0  0  0
 35 37  2  0  0  0  0
 35 33  1  0  0  0  0
 36 35  2  0  0  0  0
 38 40  1  0  0  0  0
 39 42  1  6  0  0  0
 39 41  1  0  0  0  0
 40 41  1  0  0  0  0
 40 35  1  1  0  0  0
 43 44  1  0  0  0  0
 43 39  1  0  0  0  0
 44 38  1  0  0  0  0
M  END
>  <MODEL>
6

>  <REMARK>
 VINA RESULT:      -5.8      4.578      9.315
  Name = 
  13 active torsions:
  status: ('A' for Active; 'I' for Inactive)
    1  A    between atoms: C_1  and  N_17
    2  A    between atoms: C_1  and  C_34
    3  A    between atoms: N_2  and  C_29
    4  A    between atoms: C_8  and  C_33
    5  A    between atoms: C_11  and  S_21
    6  A    between atoms: C_14  and  C_43
    7  A    between atoms: N_17  and  C_42
    8  A    between atoms: N_18  and  C_22
    9  A    between atoms: N_18  and  C_25
   10  A    between atoms: S_21  and  N_26
   11  A    between atoms: C_22  and  C_23
   12  A    between atoms: C_25  and  C_29
   13  A    between atoms: C_29  and  C_42
                            x       y       z     vdW  Elec       q    Type
                         _______ _______ _______ _____ _____    ______ ____

>  <TORSDO>
F 13

$$$$
=
 OpenBabel11052411083D

 44 48  0  0  1  0  0  0  0  0999 V2000
  162.1930  210.4010  150.3520 C   0  0  2  0  0  3  0  0  0  0  0  0
  162.0090  210.8930  148.9920 N   0  0  0  0  0  2  0  0  0  0  0  0
  161.4970  213.0710  149.6480 O   0  0  0  0  0  0  0  0  0  0  0  0
  161.6130  212.2370  148.7080 C   0  0  0  0  0  0  0  0  0  0  0  0
  160.0770  211.8300  143.1200 C   0  0  0  0  0  1  0  0  0  0  0  0
  160.4840  212.4440  144.3740 N   0  0  0  0  0  0  0  0  0  0  0  0
  161.3540  212.6390  147.3120 C   0  0  0  0  0  0  0  0  0  0  0  0
  161.5440  213.3930  144.2930 C   0  0  0  0  0  3  0  0  0  0  0  0
  160.0170  212.5110  146.8220 N   0  0  0  0  0  2  0  0  0  0  0  0
  162.3220  213.7080  145.2810 N   0  0  0  0  0  0  0  0  0  0  0  0
  162.3510  213.2050  146.6220 C   0  0  0  0  0  3  0  0  0  0  0  0
  159.5710  212.4230  145.4720 C   0  0  0  0  0  0  0  0  0  0  0  0
  158.3390  212.2730  145.2550 O   0  0  0  0  0  0  0  0  0  0  0  0
  162.3230  208.8820  150.3560 C   0  0  0  0  0  2  0  0  0  0  0  0
  161.6290  208.2910  149.2200 N   0  0  0  0  0  2  0  0  0  0  0  0
  162.6410  207.9970  148.2190 C   0  0  0  0  0  2  0  0  0  0  0  0
  161.5060  205.8280  145.8920 C   0  0  0  0  0  2  0  0  0  0  0  0
  160.5880  204.9570  146.6530 C   0  0  2  0  0  3  0  0  0  0  0  0
  161.0880  206.3000  147.2900 C   0  0  1  0  0  0  0  0  0  0  0  0
  162.5220  206.5510  147.7820 C   0  0  2  0  0  3  0  0  0  0  0  0
  161.5930  205.8430  148.6740 C   0  0  0  0  0  2  0  0  0  0  0  0
  161.0210  201.8370  148.6450 C   0  0  0  0  0  0  0  0  0  0  0  0
  161.0770  202.6010  145.9250 C   0  0  0  0  0  3  0  0  0  0  0  0
  161.2030  201.2990  146.2250 C   0  0  0  0  0  3  0  0  0  0  0  0
  161.5840  200.8770  147.6230 C   0  0  2  0  0  3  0  0  0  0  0  0
  160.6380  201.3910  149.8690 F   0  0  0  0  0  0  0  0  0  0  0  0
  161.1360  199.5920  147.8670 F   0  0  0  0  0  0  0  0  0  0  0  0
  160.8870  203.1370  148.3380 C   0  0  0  0  0  3  0  0  0  0  0  0
  161.3250  203.6500  146.9870 C   0  0  2  0  0  3  0  0  0  0  0  0
  161.0350  210.8360  151.2410 C   0  0  0  0  0  2  0  0  0  0  0  0
  161.3830  210.6560  152.6410 N   0  0  0  0  0  2  0  0  0  0  0  0
  160.3010  209.9100  153.2600 C   0  0  0  0  0  2  0  0  0  0  0  0
  159.9190  212.0140  154.3650 N   0  0  0  0  0  0  0  0  0  0  0  0
  159.5420  210.8040  154.1800 C   0  0  0  0  0  3  0  0  0  0  0  0
  159.0340  213.0420  155.4150 S   0  0  0  0  0  0  0  0  0  0  0  0
  157.9520  212.2500  156.0980 O   0  0  0  0  0  0  0  0  0  0  0  0
  159.9660  213.5880  156.4590 O   0  0  0  0  0  0  0  0  0  0  0  0
  156.8090  214.4530  154.6440 C   0  0  0  0  0  2  0  0  0  0  0  0
  157.7950  213.3680  152.2700 C   0  0  2  0  0  3  0  0  0  0  0  0
  158.3320  214.4050  154.4900 C   0  0  2  0  0  3  0  0  0  0  0  0
  158.7190  214.3320  153.0110 C   0  0  0  0  0  2  0  0  0  0  0  0
  158.0990  213.4140  150.7880 C   0  0  0  0  0  1  0  0  0  0  0  0
  156.4610  213.7520  152.4920 O   0  0  0  0  0  0  0  0  0  0  0  0
  156.1920  213.4350  153.7910 N   0  0  0  0  0  2  0  0  0  0  0  0
  1 14  1  6  0  0  0
  1 30  1  0  0  0  0
  2  1  1  0  0  0  0
  4  2  1  0  0  0  0
  4  3  2  0  0  0  0
  5  6  1  0  0  0  0
  6 12  1  0  0  0  0
  7  4  1  0  0  0  0
  8  6  1  0  0  0  0
  8 10  2  0  0  0  0
  9  7  1  0  0  0  0
 10 11  1  0  0  0  0
 11  7  2  0  0  0  0
 12  9  1  0  0  0  0
 13 12  2  0  0  0  0
 15 14  1  0  0  0  0
 16 15  1  0  0  0  0
 18 17  1  6  0  0  0
 18 29  1  0  0  0  0
 18 19  1  0  0  0  0
 19 17  1  6  0  0  0
 19 20  1  0  0  0  0
 19 21  1  0  0  0  0
 20 16  1  1  0  0  0
 20 21  1  0  0  0  0
 22 26  1  0  0  0  0
 23 24  2  0  0  0  0
 24 25  1  0  0  0  0
 25 27  1  1  0  0  0
 25 22  1  0  0  0  0
 28 22  2  0  0  0  0
 29 23  1  6  0  0  0
 29 28  1  0  0  0  0
 30 31  1  0  0  0  0
 31 32  1  0  0  0  0
 32 34  1  0  0  0  0
 33 35  1  0  0  0  0
 34 33  2  0  0  0  0
 35 36  2  0  0  0  0
 35 37  2  0  0  0  0
 39 42  1  6  0  0  0
 39 43  1  0  0  0  0
 39 41  1  0  0  0  0
 40 38  1  0  0  0  0
 40 35  1  1  0  0  0
 41 40  1  0  0  0  0
 43 44  1  0  0  0  0
 44 38  1  0  0  0  0
M  END
>  <MODEL>
7

>  <REMARK>
 VINA RESULT:      -5.8      1.958      3.331
  Name = 
  13 active torsions:
  status: ('A' for Active; 'I' for Inactive)
    1  A    between atoms: C_1  and  N_17
    2  A    between atoms: C_1  and  C_34
    3  A    between atoms: N_2  and  C_29
    4  A    between atoms: C_8  and  C_33
    5  A    between atoms: C_11  and  S_21
    6  A    between atoms: C_14  and  C_43
    7  A    between atoms: N_17  and  C_42
    8  A    between atoms: N_18  and  C_22
    9  A    between atoms: N_18  and  C_25
   10  A    between atoms: S_21  and  N_26
   11  A    between atoms: C_22  and  C_23
   12  A    between atoms: C_25  and  C_29
   13  A    between atoms: C_29  and  C_42
                            x       y       z     vdW  Elec       q    Type
                         _______ _______ _______ _____ _____    ______ ____

>  <TORSDO>
F 13

$$$$
=
 OpenBabel11052411083D

 44 48  0  0  1  0  0  0  0  0999 V2000
  161.7660  207.5270  151.2590 C   0  0  2  0  0  3  0  0  0  0  0  0
  161.4230  206.8390  150.0200 N   0  0  0  0  0  2  0  0  0  0  0  0
  163.1080  207.8530  148.7690 O   0  0  0  0  0  0  0  0  0  0  0  0
  162.1080  207.0830  148.7900 C   0  0  0  0  0  0  0  0  0  0  0  0
  161.9530  205.4570  143.2150 C   0  0  0  0  0  1  0  0  0  0  0  0
  161.5960  205.5080  144.6240 N   0  0  0  0  0  0  0  0  0  0  0  0
  161.6470  206.4210  147.5560 C   0  0  0  0  0  0  0  0  0  0  0  0
  160.2040  205.6000  144.9160 C   0  0  0  0  0  3  0  0  0  0  0  0
  162.5310  205.4840  146.9350 N   0  0  0  0  0  2  0  0  0  0  0  0
  159.7170  206.0820  146.0170 N   0  0  0  0  0  0  0  0  0  0  0  0
  160.3910  206.6420  147.1500 C   0  0  0  0  0  3  0  0  0  0  0  0
  162.5390  205.0310  145.5840 C   0  0  0  0  0  0  0  0  0  0  0  0
  163.4380  204.2240  145.2270 O   0  0  0  0  0  0  0  0  0  0  0  0
  161.2710  206.7340  152.4630 C   0  0  0  0  0  2  0  0  0  0  0  0
  162.0200  205.4950  152.6230 N   0  0  0  0  0  2  0  0  0  0  0  0
  161.0450  204.4170  152.6510 C   0  0  0  0  0  2  0  0  0  0  0  0
  159.7680  201.9020  150.7940 C   0  0  0  0  0  2  0  0  0  0  0  0
  160.9540  201.0980  150.4410 C   0  0  2  0  0  3  0  0  0  0  0  0
  161.0620  202.1870  151.5650 C   0  0  1  0  0  0  0  0  0  0  0  0
  161.0370  203.7030  151.3150 C   0  0  2  0  0  3  0  0  0  0  0  0
  162.3090  202.9870  151.1320 C   0  0  0  0  0  2  0  0  0  0  0  0
  161.4270  200.2610  146.8410 C   0  0  0  0  0  0  0  0  0  0  0  0
  160.3730  202.3940  148.3670 C   0  0  0  0  0  3  0  0  0  0  0  0
  160.2690  202.4530  147.0300 C   0  0  0  0  0  3  0  0  0  0  0  0
  161.1440  201.5820  146.1630 C   0  0  2  0  0  3  0  0  0  0  0  0
  161.5740  199.1290  146.1040 F   0  0  0  0  0  0  0  0  0  0  0  0
  160.5390  201.3780  144.9360 F   0  0  0  0  0  0  0  0  0  0  0  0
  161.5190  200.2030  148.1780 C   0  0  0  0  0  3  0  0  0  0  0  0
  161.3750  201.4580  149.0070 C   0  0  2  0  0  3  0  0  0  0  0  0
  161.1780  208.9320  151.2720 C   0  0  0  0  0  2  0  0  0  0  0  0
  161.9700  209.7980  152.1320 N   0  0  0  0  0  2  0  0  0  0  0  0
  161.1620  210.9710  152.4190 C   0  0  0  0  0  2  0  0  0  0  0  0
  159.8090  211.4260  154.3570 N   0  0  0  0  0  0  0  0  0  0  0  0
  160.9520  211.0840  153.8900 C   0  0  0  0  0  3  0  0  0  0  0  0
  159.5700  211.5400  156.0510 S   0  0  0  0  0  0  0  0  0  0  0  0
  159.3190  210.1690  156.6160 O   0  0  0  0  0  0  0  0  0  0  0  0
  160.8130  212.1020  156.6810 O   0  0  0  0  0  0  0  0  0  0  0  0
  156.9270  211.8360  156.7320 C   0  0  0  0  0  2  0  0  0  0  0  0
  157.1030  212.9110  154.1640 C   0  0  2  0  0  3  0  0  0  0  0  0
  158.1940  212.6310  156.4040 C   0  0  2  0  0  3  0  0  0  0  0  0
  157.9370  213.5950  155.2440 C   0  0  0  0  0  2  0  0  0  0  0  0
  156.7390  213.9170  153.0930 C   0  0  0  0  0  1  0  0  0  0  0  0
  155.9330  212.3960  154.7470 O   0  0  0  0  0  0  0  0  0  0  0  0
  156.3280  211.3280  155.4960 N   0  0  0  0  0  2  0  0  0  0  0  0
  1 30  1  6  0  0  0
  1 14  1  0  0  0  0
  2  1  1  0  0  0  0
  3  4  2  0  0  0  0
  4  2  1  0  0  0  0
  5  6  1  0  0  0  0
  6  8  1  0  0  0  0
  6 12  1  0  0  0  0
  7  4  1  0  0  0  0
  8 10  2  0  0  0  0
  9  7  1  0  0  0  0
 10 11  1  0  0  0  0
 11  7  2  0  0  0  0
 12  9  1  0  0  0  0
 13 12  2  0  0  0  0
 14 15  1  0  0  0  0
 15 16  1  0  0  0  0
 18 17  1  6  0  0  0
 18 19  1  0  0  0  0
 19 17  1  1  0  0  0
 20 19  1  0  0  0  0
 20 16  1  1  0  0  0
 21 20  1  0  0  0  0
 21 19  1  0  0  0  0
 22 28  2  0  0  0  0
 23 29  1  0  0  0  0
 24 23  2  0  0  0  0
 25 27  1  6  0  0  0
 25 22  1  0  0  0  0
 25 24  1  0  0  0  0
 26 22  1  0  0  0  0
 29 28  1  6  0  0  0
 29 18  1  0  0  0  0
 30 31  1  0  0  0  0
 31 32  1  0  0  0  0
 32 34  1  0  0  0  0
 33 35  1  0  0  0  0
 34 33  2  0  0  0  0
 35 36  2  0  0  0  0
 35 37  2  0  0  0  0
 39 42  1  6  0  0  0
 39 43  1  0  0  0  0
 39 41  1  0  0  0  0
 40 35  1  6  0  0  0
 40 38  1  0  0  0  0
 41 40  1  0  0  0  0
 43 44  1  0  0  0  0
 44 38  1  0  0  0  0
M  END
>  <MODEL>
8

>  <REMARK>
 VINA RESULT:      -5.8      4.273      5.599
  Name = 
  13 active torsions:
  status: ('A' for Active; 'I' for Inactive)
    1  A    between atoms: C_1  and  N_17
    2  A    between atoms: C_1  and  C_34
    3  A    between atoms: N_2  and  C_29
    4  A    between atoms: C_8  and  C_33
    5  A    between atoms: C_11  and  S_21
    6  A    between atoms: C_14  and  C_43
    7  A    between atoms: N_17  and  C_42
    8  A    between atoms: N_18  and  C_22
    9  A    between atoms: N_18  and  C_25
   10  A    between atoms: S_21  and  N_26
   11  A    between atoms: C_22  and  C_23
   12  A    between atoms: C_25  and  C_29
   13  A    between atoms: C_29  and  C_42
                            x       y       z     vdW  Elec       q    Type
                         _______ _______ _______ _____ _____    ______ ____

>  <TORSDO>
F 13

$$$$
=
 OpenBabel11052411083D

 44 48  0  0  1  0  0  0  0  0999 V2000
  160.9900  207.2540  152.1000 C   0  0  2  0  0  3  0  0  0  0  0  0
  161.0390  208.3670  151.1600 N   0  0  0  0  0  2  0  0  0  0  0  0
  162.4260  209.6800  152.4970 O   0  0  0  0  0  0  0  0  0  0  0  0
  161.7420  209.5800  151.4420 C   0  0  0  0  0  0  0  0  0  0  0  0
  159.4520  213.6350  147.9690 C   0  0  0  0  0  1  0  0  0  0  0  0
  160.4640  212.8870  148.6970 N   0  0  0  0  0  0  0  0  0  0  0  0
  161.6700  210.7010  150.4860 C   0  0  0  0  0  0  0  0  0  0  0  0
  161.6330  212.5320  147.9630 C   0  0  0  0  0  3  0  0  0  0  0  0
  161.0230  211.9000  150.9180 N   0  0  0  0  0  2  0  0  0  0  0  0
  162.4130  211.5410  148.2620 N   0  0  0  0  0  0  0  0  0  0  0  0
  162.3100  210.5780  149.3170 C   0  0  0  0  0  3  0  0  0  0  0  0
  160.4560  212.9390  150.1240 C   0  0  0  0  0  0  0  0  0  0  0  0
  159.8920  213.9020  150.7100 O   0  0  0  0  0  0  0  0  0  0  0  0
  160.4560  207.7200  153.4500 C   0  0  0  0  0  2  0  0  0  0  0  0
  161.2530  207.1860  154.5460 N   0  0  0  0  0  2  0  0  0  0  0  0
  161.3100  208.2220  155.5640 C   0  0  0  0  0  2  0  0  0  0  0  0
  160.7920  211.4540  154.7330 C   0  0  0  0  0  2  0  0  0  0  0  0
  159.9660  211.9670  155.8440 C   0  0  2  0  0  3  0  0  0  0  0  0
  160.6970  210.5870  155.9940 C   0  0  1  0  0  0  0  0  0  0  0  0
  160.2990  209.3050  155.2460 C   0  0  2  0  0  3  0  0  0  0  0  0
  159.5580  209.6590  156.4660 C   0  0  0  0  0  2  0  0  0  0  0  0
  156.5300  213.4090  155.8810 C   0  0  0  0  0  0  0  0  0  0  0  0
  158.3840  212.4810  153.9600 C   0  0  0  0  0  3  0  0  0  0  0  0
  157.2360  213.0280  153.5290 C   0  0  0  0  0  3  0  0  0  0  0  0
  156.0610  213.1620  154.4660 C   0  0  2  0  0  3  0  0  0  0  0  0
  155.7970  214.1840  156.7220 F   0  0  0  0  0  0  0  0  0  0  0  0
  155.2350  214.1870  154.0430 F   0  0  0  0  0  0  0  0  0  0  0  0
  157.6830  212.8700  156.3070 C   0  0  0  0  0  3  0  0  0  0  0  0
  158.4980  211.9920  155.3870 C   0  0  2  0  0  3  0  0  0  0  0  0
  162.3690  206.6290  152.2630 C   0  0  0  0  0  2  0  0  0  0  0  0
  162.4620  205.4060  151.4820 N   0  0  0  0  0  2  0  0  0  0  0  0
  161.3620  204.5510  151.8940 C   0  0  0  0  0  2  0  0  0  0  0  0
  161.5810  203.5360  149.7220 N   0  0  0  0  0  0  0  0  0  0  0  0
  160.8170  203.8330  150.7070 C   0  0  0  0  0  3  0  0  0  0  0  0
  160.9510  202.6970  148.3650 S   0  0  0  0  0  0  0  0  0  0  0  0
  161.9210  201.6280  147.9420 O   0  0  0  0  0  0  0  0  0  0  0  0
  159.6540  202.0470  148.7550 O   0  0  0  0  0  0  0  0  0  0  0  0
  161.5890  203.5790  145.8450 C   0  0  0  0  0  2  0  0  0  0  0  0
  162.2370  205.7210  147.5090 C   0  0  2  0  0  3  0  0  0  0  0  0
  160.6480  203.8440  147.0230 C   0  0  2  0  0  3  0  0  0  0  0  0
  160.7710  205.2950  147.4920 C   0  0  0  0  0  2  0  0  0  0  0  0
  162.3310  207.1960  147.8380 C   0  0  0  0  0  1  0  0  0  0  0  0
  162.7980  205.4820  146.2430 O   0  0  0  0  0  0  0  0  0  0  0  0
  162.9150  204.1270  146.1370 N   0  0  0  0  0  2  0  0  0  0  0  0
  1 30  1  1  0  0  0
  1 14  1  0  0  0  0
  2  4  1  0  0  0  0
  2  1  1  0  0  0  0
  4  3  2  0  0  0  0
  5  6  1  0  0  0  0
  6 12  1  0  0  0  0
  7  9  1  0  0  0  0
  7  4  1  0  0  0  0
  8 10  2  0  0  0  0
  8  6  1  0  0  0  0
 10 11  1  0  0  0  0
 11  7  2  0  0  0  0
 12 13  2  0  0  0  0
 12  9  1  0  0  0  0
 14 15  1  0  0  0  0
 15 16  1  0  0  0  0
 18 17  1  6  0  0  0
 18 19  1  0  0  0  0
 19 17  1  1  0  0  0
 19 21  1  0  0  0  0
 20 16  1  1  0  0  0
 20 19  1  0  0  0  0
 20 21  1  0  0  0  0
 22 28  2  0  0  0  0
 22 26  1  0  0  0  0
 24 23  2  0  0  0  0
 24 25  1  0  0  0  0
 25 27  1  6  0  0  0
 25 22  1  0  0  0  0
 29 23  1  6  0  0  0
 29 18  1  0  0  0  0
 29 28  1  0  0  0  0
 31 32  1  0  0  0  0
 31 30  1  0  0  0  0
 33 34  2  0  0  0  0
 34 32  1  0  0  0  0
 35 37  2  0  0  0  0
 35 33  1  0  0  0  0
 36 35  2  0  0  0  0
 38 44  1  0  0  0  0
 38 40  1  0  0  0  0
 39 42  1  6  0  0  0
 40 41  1  0  0  0  0
 40 35  1  1  0  0  0
 41 39  1  0  0  0  0
 43 39  1  0  0  0  0
 44 43  1  0  0  0  0
M  END
>  <MODEL>
9

>  <REMARK>
 VINA RESULT:      -5.7      4.737      9.144
  Name = 
  13 active torsions:
  status: ('A' for Active; 'I' for Inactive)
    1  A    between atoms: C_1  and  N_17
    2  A    between atoms: C_1  and  C_34
    3  A    between atoms: N_2  and  C_29
    4  A    between atoms: C_8  and  C_33
    5  A    between atoms: C_11  and  S_21
    6  A    between atoms: C_14  and  C_43
    7  A    between atoms: N_17  and  C_42
    8  A    between atoms: N_18  and  C_22
    9  A    between atoms: N_18  and  C_25
   10  A    between atoms: S_21  and  N_26
   11  A    between atoms: C_22  and  C_23
   12  A    between atoms: C_25  and  C_29
   13  A    between atoms: C_29  and  C_42
                            x       y       z     vdW  Elec       q    Type
                         _______ _______ _______ _____ _____    ______ ____

>  <TORSDO>
F 13

$$$$
