=
 OpenBabel11052409523D

 26 29  0  0  1  0  0  0  0  0999 V2000
  162.2760  210.4180  152.7380 O   0  0  0  0  0  0  0  0  0  0  0  0
  161.0320  205.7930  153.3240 N   0  0  0  0  0  2  0  0  0  0  0  0
  161.2720  207.2710  149.9440 C   0  0  0  0  0  3  0  0  0  0  0  0
  160.6080  209.2870  154.4720 C   0  0  0  0  0  3  0  0  0  0  0  0
  160.2960  209.0920  155.8190 C   0  0  0  0  0  3  0  0  0  0  0  0
  160.6970  205.9120  151.9100 C   0  0  1  0  0  3  0  0  0  0  0  0
  160.9280  208.2000  153.6350 C   0  0  0  0  0  0  0  0  0  0  0  0
  160.8570  206.9090  154.1780 C   0  0  0  0  0  0  0  0  0  0  0  0
  162.1910  210.0590  150.5640 N   0  0  0  0  0  2  0  0  0  0  0  0
  161.6220  208.2630  149.0600 C   0  0  0  0  0  3  0  0  0  0  0  0
  160.5650  206.7090  155.5300 C   0  0  0  0  0  3  0  0  0  0  0  0
  160.2880  207.8030  156.3530 C   0  0  0  0  0  3  0  0  0  0  0  0
  162.0390  209.5430  149.3270 C   0  0  0  0  0  0  0  0  0  0  0  0
  161.1740  207.2520  151.3310 C   0  0  2  0  0  3  0  0  0  0  0  0
  161.3350  208.3810  152.1900 C   0  0  2  0  0  3  0  0  0  0  0  0
  162.3240  210.2740  148.3440 O   0  0  0  0  0  0  0  0  0  0  0  0
  161.9370  209.6230  151.8210 C   0  0  0  0  0  0  0  0  0  0  0  0
  160.9590  203.3580  151.9100 C   0  0  0  0  0  2  0  0  0  0  0  0
  161.4900  202.1730  151.1110 C   0  0  0  0  0  2  0  0  0  0  0  0
  160.9650  203.3820  148.9850 C   0  0  0  0  0  2  0  0  0  0  0  0
  160.4360  204.5630  149.7940 C   0  0  0  0  0  2  0  0  0  0  0  0
  160.7730  202.0840  149.7640 C   0  0  1  0  0  3  0  0  0  0  0  0
  161.1750  204.6640  151.1320 C   0  0  1  0  0  3  0  0  0  0  0  0
  161.3240  200.9260  148.9520 C   0  0  0  0  0  2  0  0  0  0  0  0
  161.1000  201.1600  147.5360 N   0  0  0  0  0  2  0  0  0  0  0  0
  161.3800  199.9080  146.8580 C   0  0  0  0  0  1  0  0  0  0  0  0
  2  8  1  0  0  0  0
  4  5  1  0  0  0  0
  5 12  2  0  0  0  0
  6  2  1  1  0  0  0
  7  8  1  0  0  0  0
  7  4  2  0  0  0  0
  8 11  2  0  0  0  0
  9 17  1  0  0  0  0
 10 13  1  0  0  0  0
 10  3  2  0  0  0  0
 11 12  1  0  0  0  0
 13  9  1  0  0  0  0
 14  3  1  6  0  0  0
 14  6  1  0  0  0  0
 14 15  1  0  0  0  0
 15 17  1  1  0  0  0
 15  7  1  0  0  0  0
 16 13  2  0  0  0  0
 17  1  2  0  0  0  0
 19 18  1  0  0  0  0
 20 22  1  0  0  0  0
 20 21  1  0  0  0  0
 22 24  1  6  0  0  0
 22 19  1  0  0  0  0
 23 21  1  6  0  0  0
 23 18  1  0  0  0  0
 23  6  1  0  0  0  0
 25 24  1  0  0  0  0
 26 25  1  0  0  0  0
M  END
>  <MODEL>
1

>  <REMARK>
 VINA RESULT:      -9.6      0.000      0.000
  Name = 
  3 active torsions:
  status: ('A' for Active; 'I' for Inactive)
    1  A    between atoms: C_9  and  C_22
    2  A    between atoms: C_10  and  N_11
    3  A    between atoms: C_10  and  C_19
                            x       y       z     vdW  Elec       q    Type
                         _______ _______ _______ _____ _____    ______ ____

>  <TORSDO>
F 3

$$$$
=
 OpenBabel11052409523D

 26 29  0  0  1  0  0  0  0  0999 V2000
  160.4530  206.2510  147.9360 O   0  0  0  0  0  0  0  0  0  0  0  0
  160.9870  205.1380  152.6000 N   0  0  0  0  0  2  0  0  0  0  0  0
  162.1750  208.3810  151.2850 C   0  0  0  0  0  3  0  0  0  0  0  0
  161.2350  203.9870  149.0910 C   0  0  0  0  0  3  0  0  0  0  0  0
  160.9940  202.6190  149.2380 C   0  0  0  0  0  3  0  0  0  0  0  0
  161.8430  206.3180  152.5770 C   0  0  1  0  0  3  0  0  0  0  0  0
  161.1670  204.8600  150.1940 C   0  0  0  0  0  0  0  0  0  0  0  0
  160.9180  204.3050  151.4570 C   0  0  0  0  0  0  0  0  0  0  0  0
  161.3270  208.2180  148.4110 N   0  0  0  0  0  2  0  0  0  0  0  0
  162.2720  209.3520  150.3160 C   0  0  0  0  0  3  0  0  0  0  0  0
  160.6560  202.9400  151.6070 C   0  0  0  0  0  3  0  0  0  0  0  0
  160.6900  202.0970  150.4950 C   0  0  0  0  0  3  0  0  0  0  0  0
  161.8940  209.2920  148.9990 C   0  0  0  0  0  0  0  0  0  0  0  0
  161.7370  207.0630  151.2390 C   0  0  2  0  0  3  0  0  0  0  0  0
  161.3570  206.3540  150.0590 C   0  0  2  0  0  3  0  0  0  0  0  0
  162.0660  210.3240  148.3010 O   0  0  0  0  0  0  0  0  0  0  0  0
  161.0470  206.9510  148.7980 C   0  0  0  0  0  0  0  0  0  0  0  0
  160.9780  208.5580  153.4850 C   0  0  0  0  0  2  0  0  0  0  0  0
  160.7990  209.3890  154.7520 C   0  0  0  0  0  2  0  0  0  0  0  0
  160.4810  207.2900  156.0740 C   0  0  0  0  0  2  0  0  0  0  0  0
  160.6610  206.4670  154.8010 C   0  0  0  0  0  2  0  0  0  0  0  0
  159.8900  208.6550  155.7370 C   0  0  1  0  0  3  0  0  0  0  0  0
  161.5940  207.1940  153.8270 C   0  0  1  0  0  3  0  0  0  0  0  0
  159.7380  209.4650  157.0120 C   0  0  0  0  0  2  0  0  0  0  0  0
  159.9280  210.8770  156.7310 N   0  0  0  0  0  2  0  0  0  0  0  0
  158.6570  211.5280  156.9890 C   0  0  0  0  0  1  0  0  0  0  0  0
  1 17  2  0  0  0  0
  4  5  2  0  0  0  0
  4  7  1  0  0  0  0
  5 12  1  0  0  0  0
  6  2  1  6  0  0  0
  6 23  1  0  0  0  0
  7  8  2  0  0  0  0
  8 11  1  0  0  0  0
  8  2  1  0  0  0  0
  9 17  1  0  0  0  0
  9 13  1  0  0  0  0
 10  3  2  0  0  0  0
 12 11  2  0  0  0  0
 13 10  1  0  0  0  0
 14  3  1  6  0  0  0
 14  6  1  0  0  0  0
 15 17  1  1  0  0  0
 15  7  1  0  0  0  0
 15 14  1  0  0  0  0
 16 13  2  0  0  0  0
 18 19  1  0  0  0  0
 19 22  1  0  0  0  0
 21 20  1  0  0  0  0
 22 20  1  0  0  0  0
 22 24  1  1  0  0  0
 23 18  1  6  0  0  0
 23 21  1  0  0  0  0
 25 26  1  0  0  0  0
 25 24  1  0  0  0  0
M  END
>  <MODEL>
2

>  <REMARK>
 VINA RESULT:      -8.8      1.969      6.836
  Name = 
  3 active torsions:
  status: ('A' for Active; 'I' for Inactive)
    1  A    between atoms: C_9  and  C_22
    2  A    between atoms: C_10  and  N_11
    3  A    between atoms: C_10  and  C_19
                            x       y       z     vdW  Elec       q    Type
                         _______ _______ _______ _____ _____    ______ ____

>  <TORSDO>
F 3

$$$$
=
 OpenBabel11052409523D

 26 29  0  0  1  0  0  0  0  0999 V2000
  160.3560  202.2580  145.5950 O   0  0  0  0  0  0  0  0  0  0  0  0
  160.9080  204.2660  149.9480 N   0  0  0  0  0  2  0  0  0  0  0  0
  161.8150  206.1220  146.8830 C   0  0  0  0  0  3  0  0  0  0  0  0
  161.3220  201.2420  147.8540 C   0  0  0  0  0  3  0  0  0  0  0  0
  161.2060  200.2320  148.8120 C   0  0  0  0  0  3  0  0  0  0  0  0
  161.6520  205.2540  149.1760 C   0  0  1  0  0  3  0  0  0  0  0  0
  161.1550  202.5970  148.2010 C   0  0  0  0  0  0  0  0  0  0  0  0
  160.9360  202.9070  149.5500 C   0  0  0  0  0  0  0  0  0  0  0  0
  161.0370  204.1730  144.7390 N   0  0  0  0  0  2  0  0  0  0  0  0
  161.8400  206.3060  145.5210 C   0  0  0  0  0  3  0  0  0  0  0  0
  160.7980  201.9000  150.5100 C   0  0  0  0  0  3  0  0  0  0  0  0
  160.9290  200.5610  150.1390 C   0  0  0  0  0  3  0  0  0  0  0  0
  161.4920  205.4250  144.5290 C   0  0  0  0  0  0  0  0  0  0  0  0
  161.5010  205.0180  147.6670 C   0  0  2  0  0  3  0  0  0  0  0  0
  161.2090  203.7080  147.1780 C   0  0  2  0  0  3  0  0  0  0  0  0
  161.5810  205.8280  143.3410 O   0  0  0  0  0  0  0  0  0  0  0  0
  160.8680  203.3850  145.8280 C   0  0  0  0  0  0  0  0  0  0  0  0
  161.2240  206.8090  151.1740 C   0  0  0  0  0  2  0  0  0  0  0  0
  160.8310  208.2290  151.5700 C   0  0  0  0  0  2  0  0  0  0  0  0
  161.9560  209.1050  149.5150 C   0  0  0  0  0  2  0  0  0  0  0  0
  162.3440  207.6800  149.1270 C   0  0  0  0  0  2  0  0  0  0  0  0
  161.8570  209.2260  151.0320 C   0  0  1  0  0  3  0  0  0  0  0  0
  161.3010  206.6860  149.6450 C   0  0  1  0  0  3  0  0  0  0  0  0
  161.4500  210.6430  151.3960 C   0  0  0  0  0  2  0  0  0  0  0  0
  160.3870  210.6170  152.3860 N   0  0  0  0  0  2  0  0  0  0  0  0
  160.0780  212.0000  152.7010 C   0  0  0  0  0  1  0  0  0  0  0  0
  1 17  2  0  0  0  0
  4  7  2  0  0  0  0
  4  5  1  0  0  0  0
  5 12  2  0  0  0  0
  6 23  1  0  0  0  0
  6  2  1  1  0  0  0
  7  8  1  0  0  0  0
  8  2  1  0  0  0  0
  8 11  2  0  0  0  0
  9 17  1  0  0  0  0
 10  3  2  0  0  0  0
 12 11  1  0  0  0  0
 13  9  1  0  0  0  0
 13 10  1  0  0  0  0
 14  3  1  6  0  0  0
 14  6  1  0  0  0  0
 15 17  1  1  0  0  0
 15 14  1  0  0  0  0
 15  7  1  0  0  0  0
 16 13  2  0  0  0  0
 18 19  1  0  0  0  0
 20 22  1  0  0  0  0
 21 20  1  0  0  0  0
 22 24  1  6  0  0  0
 22 19  1  0  0  0  0
 23 21  1  1  0  0  0
 23 18  1  0  0  0  0
 24 25  1  0  0  0  0
 25 26  1  0  0  0  0
M  END
>  <MODEL>
3

>  <REMARK>
 VINA RESULT:      -8.4      3.365      7.590
  Name = 
  3 active torsions:
  status: ('A' for Active; 'I' for Inactive)
    1  A    between atoms: C_9  and  C_22
    2  A    between atoms: C_10  and  N_11
    3  A    between atoms: C_10  and  C_19
                            x       y       z     vdW  Elec       q    Type
                         _______ _______ _______ _____ _____    ______ ____

>  <TORSDO>
F 3

$$$$
=
 OpenBabel11052409523D

 26 29  0  0  1  0  0  0  0  0999 V2000
  160.2540  210.9180  153.0640 O   0  0  0  0  0  0  0  0  0  0  0  0
  161.3290  207.5320  149.7990 N   0  0  0  0  0  2  0  0  0  0  0  0
  161.0690  206.6810  153.3870 C   0  0  0  0  0  3  0  0  0  0  0  0
  161.9150  210.9870  150.9900 C   0  0  0  0  0  3  0  0  0  0  0  0
  162.2510  211.6310  149.7960 C   0  0  0  0  0  3  0  0  0  0  0  0
  161.6360  206.7590  150.9970 C   0  0  1  0  0  3  0  0  0  0  0  0
  161.5350  209.6310  151.0030 C   0  0  0  0  0  0  0  0  0  0  0  0
  161.5680  208.9270  149.7910 C   0  0  0  0  0  0  0  0  0  0  0  0
  160.2740  209.3170  154.5800 N   0  0  0  0  0  2  0  0  0  0  0  0
  160.7380  206.9550  154.6930 C   0  0  0  0  0  3  0  0  0  0  0  0
  161.8820  209.5710  148.5900 C   0  0  0  0  0  3  0  0  0  0  0  0
  162.2200  210.9250  148.5930 C   0  0  0  0  0  3  0  0  0  0  0  0
  160.3780  208.1540  155.2540 C   0  0  0  0  0  0  0  0  0  0  0  0
  161.1980  207.4990  152.2700 C   0  0  2  0  0  3  0  0  0  0  0  0
  161.1020  208.9240  152.2670 C   0  0  2  0  0  3  0  0  0  0  0  0
  160.0980  208.1560  156.4810 O   0  0  0  0  0  0  0  0  0  0  0  0
  160.5400  209.7170  153.3130 C   0  0  0  0  0  0  0  0  0  0  0  0
  161.0250  204.8350  149.4110 C   0  0  0  0  0  2  0  0  0  0  0  0
  160.4400  203.4280  149.3460 C   0  0  0  0  0  2  0  0  0  0  0  0
  161.3910  202.9380  151.6070 C   0  0  0  0  0  2  0  0  0  0  0  0
  161.9720  204.3490  151.6620 C   0  0  0  0  0  2  0  0  0  0  0  0
  161.3020  202.4640  150.1600 C   0  0  1  0  0  3  0  0  0  0  0  0
  161.0910  205.3170  150.8670 C   0  0  1  0  0  3  0  0  0  0  0  0
  160.7030  201.0690  150.1260 C   0  0  0  0  0  2  0  0  0  0  0  0
  160.2610  200.7500  148.7790 N   0  0  0  0  0  2  0  0  0  0  0  0
  161.4560  200.4610  148.0070 C   0  0  0  0  0  1  0  0  0  0  0  0
  1 17  2  0  0  0  0
  3 10  2  0  0  0  0
  4  7  1  0  0  0  0
  5  4  2  0  0  0  0
  6  2  1  6  0  0  0
  6 14  1  0  0  0  0
  8  2  1  0  0  0  0
  8  7  2  0  0  0  0
  9 13  1  0  0  0  0
 10 13  1  0  0  0  0
 11 12  2  0  0  0  0
 11  8  1  0  0  0  0
 12  5  1  0  0  0  0
 13 16  2  0  0  0  0
 14  3  1  1  0  0  0
 15  7  1  6  0  0  0
 15 14  1  0  0  0  0
 15 17  1  0  0  0  0
 17  9  1  0  0  0  0
 19 18  1  0  0  0  0
 19 22  1  0  0  0  0
 20 21  1  0  0  0  0
 22 24  1  1  0  0  0
 22 20  1  0  0  0  0
 23 18  1  6  0  0  0
 23  6  1  0  0  0  0
 23 21  1  0  0  0  0
 25 24  1  0  0  0  0
 26 25  1  0  0  0  0
M  END
>  <MODEL>
4

>  <REMARK>
 VINA RESULT:      -7.9      1.712      4.264
  Name = 
  3 active torsions:
  status: ('A' for Active; 'I' for Inactive)
    1  A    between atoms: C_9  and  C_22
    2  A    between atoms: C_10  and  N_11
    3  A    between atoms: C_10  and  C_19
                            x       y       z     vdW  Elec       q    Type
                         _______ _______ _______ _____ _____    ______ ____

>  <TORSDO>
F 3

$$$$
=
 OpenBabel11052409523D

 26 29  0  0  1  0  0  0  0  0999 V2000
  160.3220  204.9760  150.8420 O   0  0  0  0  0  0  0  0  0  0  0  0
  161.1660  209.6900  151.4250 N   0  0  0  0  0  2  0  0  0  0  0  0
  162.1820  207.9600  148.3210 C   0  0  0  0  0  3  0  0  0  0  0  0
  161.2350  206.3170  152.9480 C   0  0  0  0  0  3  0  0  0  0  0  0
  161.0420  206.6260  154.2970 C   0  0  0  0  0  3  0  0  0  0  0  0
  161.9860  209.4860  150.2370 C   0  0  1  0  0  3  0  0  0  0  0  0
  161.2090  207.3220  151.9610 C   0  0  0  0  0  0  0  0  0  0  0  0
  161.0520  208.6500  152.3790 C   0  0  0  0  0  0  0  0  0  0  0  0
  161.1670  205.1800  148.8160 N   0  0  0  0  0  2  0  0  0  0  0  0
  162.1930  206.8880  147.4600 C   0  0  0  0  0  3  0  0  0  0  0  0
  160.8380  208.9630  153.7250 C   0  0  0  0  0  3  0  0  0  0  0  0
  160.8290  207.9490  154.6840 C   0  0  0  0  0  3  0  0  0  0  0  0
  161.7380  205.6110  147.6720 C   0  0  0  0  0  0  0  0  0  0  0  0
  161.7780  208.0850  149.6450 C   0  0  2  0  0  3  0  0  0  0  0  0
  161.3480  207.0140  150.4870 C   0  0  2  0  0  3  0  0  0  0  0  0
  161.8390  204.7970  146.7190 O   0  0  0  0  0  0  0  0  0  0  0  0
  160.9470  205.7180  150.0390 C   0  0  0  0  0  0  0  0  0  0  0  0
  161.0640  211.8520  149.8550 C   0  0  0  0  0  2  0  0  0  0  0  0
  160.8600  212.9420  148.8070 C   0  0  0  0  0  2  0  0  0  0  0  0
  162.9470  212.2030  147.6440 C   0  0  0  0  0  2  0  0  0  0  0  0
  163.1430  211.1160  148.6970 C   0  0  0  0  0  2  0  0  0  0  0  0
  162.2090  213.3930  148.2490 C   0  0  1  0  0  3  0  0  0  0  0  0
  161.7870  210.6480  149.2350 C   0  0  1  0  0  3  0  0  0  0  0  0
  162.0070  214.4530  147.1820 C   0  0  0  0  0  2  0  0  0  0  0  0
  162.3030  213.9020  145.8710 N   0  0  0  0  0  2  0  0  0  0  0  0
  161.1520  214.1790  145.0320 C   0  0  0  0  0  1  0  0  0  0  0  0
  2  8  1  0  0  0  0
  4  5  1  0  0  0  0
  5 12  2  0  0  0  0
  6  2  1  1  0  0  0
  7  8  1  0  0  0  0
  7  4  2  0  0  0  0
  8 11  2  0  0  0  0
  9 17  1  0  0  0  0
 10 13  1  0  0  0  0
 10  3  2  0  0  0  0
 11 12  1  0  0  0  0
 13  9  1  0  0  0  0
 14  3  1  1  0  0  0
 14  6  1  0  0  0  0
 14 15  1  0  0  0  0
 15 17  1  6  0  0  0
 15  7  1  0  0  0  0
 16 13  2  0  0  0  0
 17  1  2  0  0  0  0
 19 18  1  0  0  0  0
 20 22  1  0  0  0  0
 20 21  1  0  0  0  0
 22 24  1  6  0  0  0
 22 19  1  0  0  0  0
 23 21  1  1  0  0  0
 23 18  1  0  0  0  0
 23  6  1  0  0  0  0
 25 24  1  0  0  0  0
 26 25  1  0  0  0  0
M  END
>  <MODEL>
5

>  <REMARK>
 VINA RESULT:      -7.7      3.211      7.061
  Name = 
  3 active torsions:
  status: ('A' for Active; 'I' for Inactive)
    1  A    between atoms: C_9  and  C_22
    2  A    between atoms: C_10  and  N_11
    3  A    between atoms: C_10  and  C_19
                            x       y       z     vdW  Elec       q    Type
                         _______ _______ _______ _____ _____    ______ ____

>  <TORSDO>
F 3

$$$$
=
 OpenBabel11052409523D

 26 29  0  0  1  0  0  0  0  0999 V2000
  161.7030  201.8350  147.5530 O   0  0  0  0  0  0  0  0  0  0  0  0
  161.8140  206.6540  147.7670 N   0  0  0  0  0  2  0  0  0  0  0  0
  160.8310  204.6550  150.7170 C   0  0  0  0  0  3  0  0  0  0  0  0
  160.8510  203.6590  145.8170 C   0  0  0  0  0  3  0  0  0  0  0  0
  160.9440  204.1470  144.5110 C   0  0  0  0  0  3  0  0  0  0  0  0
  161.1170  206.4140  149.0250 C   0  0  1  0  0  3  0  0  0  0  0  0
  161.2060  204.4610  146.9190 C   0  0  0  0  0  0  0  0  0  0  0  0
  161.5910  205.7860  146.6710 C   0  0  0  0  0  0  0  0  0  0  0  0
  161.1670  201.8550  149.6920 N   0  0  0  0  0  2  0  0  0  0  0  0
  160.6950  203.4760  151.4110 C   0  0  0  0  0  3  0  0  0  0  0  0
  161.7050  206.2730  145.3650 C   0  0  0  0  0  3  0  0  0  0  0  0
  161.3850  205.4500  144.2840 C   0  0  0  0  0  3  0  0  0  0  0  0
  160.8400  202.1900  150.9570 C   0  0  0  0  0  0  0  0  0  0  0  0
  161.0910  204.9200  149.3770 C   0  0  2  0  0  3  0  0  0  0  0  0
  161.1810  203.9430  148.3390 C   0  0  2  0  0  3  0  0  0  0  0  0
  160.6830  201.2620  151.7910 O   0  0  0  0  0  0  0  0  0  0  0  0
  161.3500  202.5380  148.5370 C   0  0  0  0  0  0  0  0  0  0  0  0
  161.7320  208.8080  149.7200 C   0  0  0  0  0  2  0  0  0  0  0  0
  162.3310  209.6520  150.8400 C   0  0  0  0  0  2  0  0  0  0  0  0
  161.4070  208.0530  152.5270 C   0  0  0  0  0  2  0  0  0  0  0  0
  160.8120  207.2150  151.3980 C   0  0  0  0  0  2  0  0  0  0  0  0
  161.4870  209.5170  152.1070 C   0  0  1  0  0  3  0  0  0  0  0  0
  161.6750  207.3320  150.1390 C   0  0  1  0  0  3  0  0  0  0  0  0
  162.1000  210.3290  153.2340 C   0  0  0  0  0  2  0  0  0  0  0  0
  161.5070  209.9440  154.5040 N   0  0  0  0  0  2  0  0  0  0  0  0
  162.2050  210.6930  155.5330 C   0  0  0  0  0  1  0  0  0  0  0  0
  1 17  2  0  0  0  0
  3 10  2  0  0  0  0
  4  7  1  0  0  0  0
  5  4  2  0  0  0  0
  6  2  1  6  0  0  0
  6 14  1  0  0  0  0
  6 23  1  0  0  0  0
  8  7  2  0  0  0  0
  8  2  1  0  0  0  0
  9 13  1  0  0  0  0
 11  8  1  0  0  0  0
 12  5  1  0  0  0  0
 12 11  2  0  0  0  0
 13 10  1  0  0  0  0
 13 16  2  0  0  0  0
 14  3  1  6  0  0  0
 15  7  1  6  0  0  0
 15 17  1  0  0  0  0
 15 14  1  0  0  0  0
 17  9  1  0  0  0  0
 18 19  1  0  0  0  0
 19 22  1  0  0  0  0
 21 20  1  0  0  0  0
 22 20  1  0  0  0  0
 22 24  1  1  0  0  0
 23 18  1  6  0  0  0
 23 21  1  0  0  0  0
 24 25  1  0  0  0  0
 25 26  1  0  0  0  0
M  END
>  <MODEL>
6

>  <REMARK>
 VINA RESULT:      -7.2      3.443      8.256
  Name = 
  3 active torsions:
  status: ('A' for Active; 'I' for Inactive)
    1  A    between atoms: C_9  and  C_22
    2  A    between atoms: C_10  and  N_11
    3  A    between atoms: C_10  and  C_19
                            x       y       z     vdW  Elec       q    Type
                         _______ _______ _______ _____ _____    ______ ____

>  <TORSDO>
F 3

$$$$
=
 OpenBabel11052409523D

 26 29  0  0  1  0  0  0  0  0999 V2000
  160.8720  206.8200  148.4210 O   0  0  0  0  0  0  0  0  0  0  0  0
  160.7850  206.5870  153.2390 N   0  0  0  0  0  2  0  0  0  0  0  0
  162.0020  209.6230  151.5180 C   0  0  0  0  0  3  0  0  0  0  0  0
  161.5810  204.8560  150.0660 C   0  0  0  0  0  3  0  0  0  0  0  0
  161.3840  203.5210  150.4290 C   0  0  0  0  0  3  0  0  0  0  0  0
  161.5810  207.8010  153.1130 C   0  0  1  0  0  3  0  0  0  0  0  0
  161.3190  205.9030  150.9710 C   0  0  0  0  0  0  0  0  0  0  0  0
  160.9170  205.5630  152.2700 C   0  0  0  0  0  0  0  0  0  0  0  0
  161.5810  208.8970  148.6370 N   0  0  0  0  0  2  0  0  0  0  0  0
  162.1930  210.4120  150.4080 C   0  0  0  0  0  3  0  0  0  0  0  0
  160.6970  204.2310  152.6330 C   0  0  0  0  0  3  0  0  0  0  0  0
  160.9270  203.2090  151.7100 C   0  0  0  0  0  3  0  0  0  0  0  0
  162.0090  210.0940  149.0860 C   0  0  0  0  0  0  0  0  0  0  0  0
  161.6340  208.2890  151.6580 C   0  0  2  0  0  3  0  0  0  0  0  0
  161.4580  207.3590  150.5890 C   0  0  2  0  0  3  0  0  0  0  0  0
  162.2330  210.9970  148.2400 O   0  0  0  0  0  0  0  0  0  0  0  0
  161.3050  207.7010  149.2100 C   0  0  0  0  0  0  0  0  0  0  0  0
  162.2170  209.8790  154.4810 C   0  0  0  0  0  2  0  0  0  0  0  0
  161.7130  210.8700  155.5250 C   0  0  0  0  0  2  0  0  0  0  0  0
  159.3900  210.6150  154.6320 C   0  0  0  0  0  2  0  0  0  0  0  0
  159.9050  209.6250  153.5910 C   0  0  0  0  0  2  0  0  0  0  0  0
  160.4870  211.6120  154.9940 C   0  0  1  0  0  3  0  0  0  0  0  0
  161.1170  208.8640  154.1360 C   0  0  1  0  0  3  0  0  0  0  0  0
  159.9620  212.5740  156.0450 C   0  0  0  0  0  2  0  0  0  0  0  0
  159.3320  213.7160  155.4040 N   0  0  0  0  0  2  0  0  0  0  0  0
  158.0020  213.8320  155.9730 C   0  0  0  0  0  1  0  0  0  0  0  0
  1 17  2  0  0  0  0
  4  5  2  0  0  0  0
  4  7  1  0  0  0  0
  5 12  1  0  0  0  0
  6  2  1  6  0  0  0
  6 23  1  0  0  0  0
  7  8  2  0  0  0  0
  8 11  1  0  0  0  0
  8  2  1  0  0  0  0
  9 13  1  0  0  0  0
  9 17  1  0  0  0  0
 10  3  2  0  0  0  0
 12 11  2  0  0  0  0
 13 10  1  0  0  0  0
 14  3  1  6  0  0  0
 14  6  1  0  0  0  0
 15 17  1  1  0  0  0
 15  7  1  0  0  0  0
 15 14  1  0  0  0  0
 16 13  2  0  0  0  0
 18 19  1  0  0  0  0
 20 22  1  0  0  0  0
 21 20  1  0  0  0  0
 22 19  1  0  0  0  0
 22 24  1  1  0  0  0
 23 21  1  6  0  0  0
 23 18  1  0  0  0  0
 25 26  1  0  0  0  0
 25 24  1  0  0  0  0
M  END
>  <MODEL>
7

>  <REMARK>
 VINA RESULT:      -7.0      2.455      7.262
  Name = 
  3 active torsions:
  status: ('A' for Active; 'I' for Inactive)
    1  A    between atoms: C_9  and  C_22
    2  A    between atoms: C_10  and  N_11
    3  A    between atoms: C_10  and  C_19
                            x       y       z     vdW  Elec       q    Type
                         _______ _______ _______ _____ _____    ______ ____

>  <TORSDO>
F 3

$$$$
