=
 OpenBabel11052412073D

 50 56  0  0  1  0  0  0  0  0999 V2000
  161.9140  209.2130  149.2870 C   0  0  0  0  0  0  0  0  0  0  0  0
  162.4780  209.4130  152.0230 C   0  0  0  0  0  0  0  0  0  0  0  0
  162.0020  210.5040  154.1860 C   0  0  2  0  0  3  0  0  0  0  0  0
  161.9470  208.0480  151.5800 C   0  0  1  0  0  3  0  0  0  0  0  0
  162.7010  210.4250  151.1580 C   0  0  0  0  0  3  0  0  0  0  0  0
  162.7960  210.7920  155.4550 C   0  0  0  0  0  1  0  0  0  0  0  0
  162.4300  210.3060  149.7490 N   0  0  0  0  0  0  0  0  0  0  0  0
  161.6840  208.9200  147.9240 N   0  0  0  0  0  0  0  0  0  0  0  0
  160.7240  207.6520  152.4360 C   0  0  2  0  0  3  0  0  0  0  0  0
  161.1530  207.4520  153.8900 C   0  0  0  0  0  2  0  0  0  0  0  0
  161.3200  207.0840  149.2790 C   0  0  0  0  0  3  0  0  0  0  0  0
  160.5480  209.9790  154.4740 C   0  0  1  0  0  0  0  0  0  0  0  0
  161.2820  208.2870  156.1000 O   0  0  0  0  0  1  0  0  0  0  0  0
  161.3270  207.6700  147.9200 C   0  0  0  0  0  3  0  0  0  0  0  0
  161.6530  208.0690  150.0980 C   0  0  0  0  0  0  0  0  0  0  0  0
  162.7580  209.6090  153.3740 O   0  0  0  0  0  0  0  0  0  0  0  0
  160.5870  208.4640  154.9010 C   0  0  2  0  0  3  0  0  0  0  0  0
  158.5100  210.3790  155.9610 C   0  0  0  0  0  2  0  0  0  0  0  0
  159.8830  210.9000  155.5640 C   0  0  0  0  0  3  0  0  0  0  0  0
  159.6540  210.3070  156.9470 C   0  0  0  0  0  2  0  0  0  0  0  0
  160.0570  206.3720  151.9580 C   0  0  0  0  0  2  0  0  0  0  0  0
  160.6200  204.0740  151.1350 C   0  0  1  0  0  3  0  0  0  0  0  0
  160.4640  204.0800  152.6360 C   0  0  1  0  0  3  0  0  0  0  0  0
  161.4380  204.8820  153.2570 O   0  0  0  0  0  0  0  0  0  0  0  0
  161.0780  205.2570  151.9520 C   0  0  2  0  0  0  0  0  0  0  0  0
  161.8420  203.2760  150.7120 C   0  0  1  0  0  3  0  0  0  0  0  0
  161.9770  202.1440  151.5220 O   0  0  0  0  0  1  0  0  0  0  0  0
  161.7000  202.8740  149.2820 C   0  0  0  0  0  0  0  0  0  0  0  0
  161.1520  201.7730  149.0020 O   0  0  0  0  0  0  0  0  0  0  0  0
  162.2400  203.7010  148.2470 N   0  0  0  0  0  2  0  0  0  0  0  0
  160.3160  206.6360  144.8510 C   0  0  0  0  0  1  0  0  0  0  0  0
  160.8400  203.1380  146.3100 C   0  0  0  0  0  2  0  0  0  0  0  0
  162.3350  205.3600  145.3380 N   0  0  0  0  0  2  0  0  0  0  0  0
  160.1660  204.4890  146.1030 C   0  0  0  0  0  2  0  0  0  0  0  0
  160.9130  205.2520  145.0180 C   0  0  1  0  0  3  0  0  0  0  0  0
  164.2850  204.3470  146.1020 O   0  0  0  0  0  0  0  0  0  0  0  0
  162.2670  203.3070  146.8450 C   0  0  1  0  0  3  0  0  0  0  0  0
  163.0270  204.3350  146.0580 C   0  0  0  0  0  0  0  0  0  0  0  0
  159.7380  210.0460  153.3010 O   0  0  0  0  0  0  0  0  0  0  0  0
  159.2300  211.3410  153.0730 C   0  0  2  0  0  3  0  0  0  0  0  0
  157.8670  211.2840  152.8540 F   0  0  0  0  0  0  0  0  0  0  0  0
  159.9040  211.9170  151.8410 C   0  0  0  0  0  2  0  0  0  0  0  0
  159.4200  213.2990  151.5470 C   0  0  0  0  0  0  0  0  0  0  0  0
  159.1340  214.0450  152.4690 O   0  0  0  0  0  0  0  0  0  0  0  0
  159.3000  213.7780  150.1370 C   0  0  0  0  0  2  0  0  0  0  0  0
  160.3910  213.2580  149.3250 N   0  0  0  0  0  2  0  0  0  0  0  0
  160.2990  213.1040  147.9080 C   0  0  0  0  0  0  0  0  0  0  0  0
  159.0980  212.9820  147.3550 C   0  0  0  0  0  1  0  0  0  0  0  0
  161.4850  213.0910  147.1060 N   0  0  0  0  0  0  0  0  0  0  0  0
  162.8300  213.0830  147.6590 C   0  0  0  0  0  1  0  0  0  0  0  0
  1  7  2  0  0  0  0
  1 15  1  0  0  0  0
  2 16  1  0  0  0  0
  3 12  1  0  0  0  0
  3  6  1  1  0  0  0
  4 15  1  6  0  0  0
  4  2  1  0  0  0  0
  4  9  1  0  0  0  0
  5  2  2  0  0  0  0
  7  5  1  0  0  0  0
  8  1  1  0  0  0  0
  9 21  1  6  0  0  0
  9 10  1  0  0  0  0
 10 17  1  0  0  0  0
 11 15  2  0  0  0  0
 12 39  1  6  0  0  0
 12 17  1  0  0  0  0
 12 19  1  0  0  0  0
 14  8  2  0  0  0  0
 14 11  1  0  0  0  0
 16  3  1  0  0  0  0
 17 13  1  1  0  0  0
 18 20  1  0  0  0  0
 19 18  1  0  0  0  0
 19 20  1  0  0  0  0
 22 26  1  1  0  0  0
 22 25  1  0  0  0  0
 22 23  1  0  0  0  0
 23 24  1  1  0  0  0
 25 21  1  6  0  0  0
 25 23  1  0  0  0  0
 25 24  1  0  0  0  0
 26 27  1  1  0  0  0
 28 26  1  0  0  0  0
 29 28  2  0  0  0  0
 30 28  1  0  0  0  0
 32 37  1  0  0  0  0
 33 38  1  0  0  0  0
 34 32  1  0  0  0  0
 35 31  1  1  0  0  0
 35 33  1  0  0  0  0
 35 34  1  0  0  0  0
 37 30  1  1  0  0  0
 38 36  2  0  0  0  0
 38 37  1  0  0  0  0
 40 41  1  6  0  0  0
 40 39  1  0  0  0  0
 42 40  1  0  0  0  0
 43 42  1  0  0  0  0
 43 44  2  0  0  0  0
 45 43  1  0  0  0  0
 46 45  1  0  0  0  0
 47 46  1  0  0  0  0
 48 47  1  0  0  0  0
 49 50  1  0  0  0  0
 49 47  2  0  0  0  0
M  END
>  <MODEL>
1

>  <REMARK>
 VINA RESULT:      -3.2      0.000      0.000
  Name = 
  14 active torsions:
  status: ('A' for Active; 'I' for Inactive)
    1  A    between atoms: C_3  and  N_8
    2  A    between atoms: C_3  and  N_13
    3  A    between atoms: C_4  and  C_11
    4  A    between atoms: C_4  and  C_36
    5  A    between atoms: C_5  and  C_17
    6  A    between atoms: C_5  and  C_35
    7  A    between atoms: N_8  and  C_17
    8  A    between atoms: C_14  and  C_39
    9  A    between atoms: C_15  and  C_35
   10  A    between atoms: C_15  and  O_37
   11  A    between atoms: C_28  and  C_30
   12  A    between atoms: C_29  and  N_48
   13  A    between atoms: C_30  and  C_49
   14  A    between atoms: O_37  and  C_39
                            x       y       z     vdW  Elec       q    Type
                         _______ _______ _______ _____ _____    ______ ____

>  <TORSDO>
F 14

$$$$
=
 OpenBabel11052412073D

 50 56  0  0  1  0  0  0  0  0999 V2000
  161.9170  209.2680  149.2790 C   0  0  0  0  0  0  0  0  0  0  0  0
  162.4640  209.4430  152.0200 C   0  0  0  0  0  0  0  0  0  0  0  0
  161.9680  210.5080  154.1920 C   0  0  2  0  0  3  0  0  0  0  0  0
  161.9440  208.0790  151.5600 C   0  0  1  0  0  3  0  0  0  0  0  0
  162.6850  210.4660  151.1670 C   0  0  0  0  0  3  0  0  0  0  0  0
  162.7540  210.7880  155.4690 C   0  0  0  0  0  1  0  0  0  0  0  0
  162.4220  210.3600  149.7550 N   0  0  0  0  0  0  0  0  0  0  0  0
  161.6960  208.9890  147.9120 N   0  0  0  0  0  0  0  0  0  0  0  0
  160.7180  207.6660  152.4050 C   0  0  2  0  0  3  0  0  0  0  0  0
  161.1410  207.4530  153.8580 C   0  0  0  0  0  2  0  0  0  0  0  0
  161.3360  207.1360  149.2450 C   0  0  0  0  0  3  0  0  0  0  0  0
  160.5160  209.9700  154.4660 C   0  0  1  0  0  0  0  0  0  0  0  0
  161.2520  208.2660  156.0780 O   0  0  0  0  0  1  0  0  0  0  0  0
  161.3470  207.7360  147.8920 C   0  0  0  0  0  3  0  0  0  0  0  0
  161.6580  208.1150  150.0770 C   0  0  0  0  0  0  0  0  0  0  0  0
  162.7350  209.6270  153.3750 O   0  0  0  0  0  0  0  0  0  0  0  0
  160.5630  208.4510  154.8770 C   0  0  2  0  0  3  0  0  0  0  0  0
  158.5380  210.2600  156.0560 C   0  0  0  0  0  2  0  0  0  0  0  0
  159.8390  210.8750  155.5620 C   0  0  0  0  0  3  0  0  0  0  0  0
  159.7370  210.3180  156.9750 C   0  0  0  0  0  2  0  0  0  0  0  0
  160.0630  206.3880  151.9090 C   0  0  0  0  0  2  0  0  0  0  0  0
  160.6290  204.0780  151.1200 C   0  0  1  0  0  3  0  0  0  0  0  0
  160.4720  204.1060  152.6210 C   0  0  1  0  0  3  0  0  0  0  0  0
  161.4450  204.9180  153.2300 O   0  0  0  0  0  0  0  0  0  0  0  0
  161.0850  205.2740  151.9200 C   0  0  2  0  0  0  0  0  0  0  0  0
  161.8510  203.2750  150.7090 C   0  0  1  0  0  3  0  0  0  0  0  0
  161.9820  202.1510  151.5290 O   0  0  0  0  0  1  0  0  0  0  0  0
  161.7150  202.8610  149.2820 C   0  0  0  0  0  0  0  0  0  0  0  0
  161.2220  201.7310  149.0120 O   0  0  0  0  0  0  0  0  0  0  0  0
  162.2000  203.7100  148.2380 N   0  0  0  0  0  2  0  0  0  0  0  0
  160.3190  206.6500  144.8230 C   0  0  0  0  0  1  0  0  0  0  0  0
  160.8070  203.1530  146.2950 C   0  0  0  0  0  2  0  0  0  0  0  0
  162.3260  205.3600  145.3250 N   0  0  0  0  0  2  0  0  0  0  0  0
  160.1450  204.5090  146.0800 C   0  0  0  0  0  2  0  0  0  0  0  0
  160.9050  205.2620  144.9970 C   0  0  1  0  0  3  0  0  0  0  0  0
  164.2630  204.3330  146.1040 O   0  0  0  0  0  0  0  0  0  0  0  0
  162.2320  203.3120  146.8370 C   0  0  1  0  0  3  0  0  0  0  0  0
  163.0060  204.3310  146.0520 C   0  0  0  0  0  0  0  0  0  0  0  0
  159.7120  210.0450  153.2890 O   0  0  0  0  0  0  0  0  0  0  0  0
  159.0510  211.2840  153.1680 C   0  0  2  0  0  3  0  0  0  0  0  0
  157.6950  211.0820  152.9990 F   0  0  0  0  0  0  0  0  0  0  0  0
  159.5980  212.0100  151.9530 C   0  0  0  0  0  2  0  0  0  0  0  0
  159.3610  213.4810  152.0410 C   0  0  0  0  0  0  0  0  0  0  0  0
  159.6930  214.2010  151.1130 O   0  0  0  0  0  0  0  0  0  0  0  0
  158.7080  214.0750  153.2470 C   0  0  0  0  0  2  0  0  0  0  0  0
  157.3210  214.4160  152.9610 N   0  0  0  0  0  2  0  0  0  0  0  0
  156.2260  213.9160  153.7290 C   0  0  0  0  0  0  0  0  0  0  0  0
  155.0110  213.9290  153.1960 C   0  0  0  0  0  2  0  0  0  0  0  0
  156.4460  213.4020  155.0480 N   0  0  0  0  0  2  0  0  0  0  0  0
  155.4660  213.4890  156.1190 C   0  0  0  0  0  1  0  0  0  0  0  0
  1  7  2  0  0  0  0
  1 15  1  0  0  0  0
  2 16  1  0  0  0  0
  3 12  1  0  0  0  0
  3  6  1  1  0  0  0
  4 15  1  6  0  0  0
  4  2  1  0  0  0  0
  4  9  1  0  0  0  0
  5  2  2  0  0  0  0
  7  5  1  0  0  0  0
  8  1  1  0  0  0  0
  9 21  1  6  0  0  0
  9 10  1  0  0  0  0
 10 17  1  0  0  0  0
 11 15  2  0  0  0  0
 12 39  1  6  0  0  0
 12 17  1  0  0  0  0
 12 19  1  0  0  0  0
 14  8  2  0  0  0  0
 14 11  1  0  0  0  0
 16  3  1  0  0  0  0
 17 13  1  1  0  0  0
 18 20  1  0  0  0  0
 19 18  1  0  0  0  0
 19 20  1  0  0  0  0
 22 26  1  1  0  0  0
 22 25  1  0  0  0  0
 22 23  1  0  0  0  0
 23 24  1  1  0  0  0
 25 21  1  6  0  0  0
 25 23  1  0  0  0  0
 25 24  1  0  0  0  0
 26 27  1  1  0  0  0
 28 26  1  0  0  0  0
 29 28  2  0  0  0  0
 30 28  1  0  0  0  0
 32 37  1  0  0  0  0
 33 38  1  0  0  0  0
 34 32  1  0  0  0  0
 35 31  1  1  0  0  0
 35 33  1  0  0  0  0
 35 34  1  0  0  0  0
 37 30  1  1  0  0  0
 38 36  2  0  0  0  0
 38 37  1  0  0  0  0
 40 41  1  6  0  0  0
 40 39  1  0  0  0  0
 42 43  1  0  0  0  0
 42 40  1  0  0  0  0
 43 45  1  0  0  0  0
 44 43  2  0  0  0  0
 46 45  1  0  0  0  0
 46 47  1  0  0  0  0
 47 49  1  0  0  0  0
 48 47  2  0  0  0  0
 49 50  1  0  0  0  0
M  END
>  <MODEL>
2

>  <REMARK>
 VINA RESULT:      -2.9      1.649      2.662
  Name = 
  14 active torsions:
  status: ('A' for Active; 'I' for Inactive)
    1  A    between atoms: C_3  and  N_8
    2  A    between atoms: C_3  and  N_13
    3  A    between atoms: C_4  and  C_11
    4  A    between atoms: C_4  and  C_36
    5  A    between atoms: C_5  and  C_17
    6  A    between atoms: C_5  and  C_35
    7  A    between atoms: N_8  and  C_17
    8  A    between atoms: C_14  and  C_39
    9  A    between atoms: C_15  and  C_35
   10  A    between atoms: C_15  and  O_37
   11  A    between atoms: C_28  and  C_30
   12  A    between atoms: C_29  and  N_48
   13  A    between atoms: C_30  and  C_49
   14  A    between atoms: O_37  and  C_39
                            x       y       z     vdW  Elec       q    Type
                         _______ _______ _______ _____ _____    ______ ____

>  <TORSDO>
F 14

$$$$
=
 OpenBabel11052412073D

 50 56  0  0  1  0  0  0  0  0999 V2000
  161.8700  212.0220  156.9640 C   0  0  0  0  0  0  0  0  0  0  0  0
  159.1070  212.4540  156.8080 C   0  0  0  0  0  0  0  0  0  0  0  0
  157.2290  213.6330  155.7220 C   0  0  2  0  0  3  0  0  0  0  0  0
  159.5450  211.0180  156.5120 C   0  0  1  0  0  3  0  0  0  0  0  0
  159.9770  213.4250  157.1600 C   0  0  0  0  0  3  0  0  0  0  0  0
  155.8340  214.0790  156.1490 C   0  0  0  0  0  1  0  0  0  0  0  0
  161.3940  213.1880  157.2600 N   0  0  0  0  0  0  0  0  0  0  0  0
  163.2170  211.6200  157.1050 N   0  0  0  0  0  0  0  0  0  0  0  0
  158.9810  210.5610  155.1490 C   0  0  2  0  0  3  0  0  0  0  0  0
  157.4550  210.5000  155.2150 C   0  0  0  0  0  2  0  0  0  0  0  0
  161.8360  209.8490  156.5580 C   0  0  0  0  0  3  0  0  0  0  0  0
  157.2580  212.9890  154.2880 C   0  0  1  0  0  0  0  0  0  0  0  0
  155.3610  211.4860  154.7220 O   0  0  0  0  0  1  0  0  0  0  0  0
  163.1980  210.3430  156.8590 C   0  0  0  0  0  3  0  0  0  0  0  0
  161.0500  210.9140  156.5980 C   0  0  0  0  0  0  0  0  0  0  0  0
  157.7510  212.7650  156.7250 O   0  0  0  0  0  0  0  0  0  0  0  0
  156.7040  211.5160  154.3370 C   0  0  2  0  0  3  0  0  0  0  0  0
  155.3650  213.1230  152.5790 C   0  0  0  0  0  2  0  0  0  0  0  0
  156.4480  213.9100  153.3020 C   0  0  0  0  0  3  0  0  0  0  0  0
  154.9780  214.1560  153.6120 C   0  0  0  0  0  2  0  0  0  0  0  0
  159.4930  209.1950  154.7250 C   0  0  0  0  0  2  0  0  0  0  0  0
  160.8050  208.0530  152.9220 C   0  0  1  0  0  3  0  0  0  0  0  0
  161.5200  209.2940  153.3970 C   0  0  1  0  0  3  0  0  0  0  0  0
  160.7790  210.4580  153.1220 O   0  0  0  0  0  0  0  0  0  0  0  0
  160.0280  209.2860  153.3130 C   0  0  2  0  0  0  0  0  0  0  0  0
  160.8230  207.9540  151.4060 C   0  0  1  0  0  3  0  0  0  0  0  0
  161.3210  209.1380  150.8550 O   0  0  0  0  0  1  0  0  0  0  0  0
  161.6710  206.7970  150.9950 C   0  0  0  0  0  0  0  0  0  0  0  0
  162.9230  206.8670  151.1410 O   0  0  0  0  0  0  0  0  0  0  0  0
  161.0750  205.6490  150.3830 N   0  0  0  0  0  2  0  0  0  0  0  0
  158.9540  201.3190  149.6130 C   0  0  0  0  0  1  0  0  0  0  0  0
  161.9290  203.3920  150.8320 C   0  0  0  0  0  2  0  0  0  0  0  0
  160.3500  202.9770  148.4970 N   0  0  0  0  0  2  0  0  0  0  0  0
  160.6010  202.6490  150.9210 C   0  0  0  0  0  2  0  0  0  0  0  0
  160.3120  201.9940  149.5780 C   0  0  1  0  0  3  0  0  0  0  0  0
  161.4080  204.7900  147.4930 O   0  0  0  0  0  0  0  0  0  0  0  0
  161.8500  204.5480  149.8280 C   0  0  1  0  0  3  0  0  0  0  0  0
  161.2270  204.1070  148.5350 C   0  0  0  0  0  0  0  0  0  0  0  0
  158.5940  212.9000  153.7940 O   0  0  0  0  0  0  0  0  0  0  0  0
  158.6490  212.9260  152.3860 C   0  0  2  0  0  3  0  0  0  0  0  0
  159.2260  211.7630  151.9130 F   0  0  0  0  0  0  0  0  0  0  0  0
  159.4960  214.1090  151.9540 C   0  0  0  0  0  2  0  0  0  0  0  0
  159.4050  214.3400  150.4820 C   0  0  0  0  0  0  0  0  0  0  0  0
  158.3080  214.4530  149.9570 O   0  0  0  0  0  0  0  0  0  0  0  0
  160.6420  214.4510  149.6510 C   0  0  0  0  0  2  0  0  0  0  0  0
  160.3290  214.2650  148.2400 N   0  0  0  0  0  2  0  0  0  0  0  0
  160.1110  212.9800  147.6580 C   0  0  0  0  0  0  0  0  0  0  0  0
  159.1130  212.8290  146.7950 C   0  0  0  0  0  2  0  0  0  0  0  0
  160.9630  211.8810  147.9970 N   0  0  0  0  0  2  0  0  0  0  0  0
  162.4110  211.9140  147.8620 C   0  0  0  0  0  1  0  0  0  0  0  0
  1  8  1  0  0  0  0
  1  7  2  0  0  0  0
  2  5  2  0  0  0  0
  3  6  1  1  0  0  0
  3 16  1  0  0  0  0
  4 15  1  6  0  0  0
  4  2  1  0  0  0  0
  5  7  1  0  0  0  0
  9 21  1  1  0  0  0
  9 10  1  0  0  0  0
  9  4  1  0  0  0  0
 11 15  2  0  0  0  0
 11 14  1  0  0  0  0
 12 39  1  6  0  0  0
 12 17  1  0  0  0  0
 12  3  1  0  0  0  0
 14  8  2  0  0  0  0
 15  1  1  0  0  0  0
 16  2  1  0  0  0  0
 17 13  1  1  0  0  0
 17 10  1  0  0  0  0
 18 19  1  0  0  0  0
 18 20  1  0  0  0  0
 19 20  1  0  0  0  0
 19 12  1  0  0  0  0
 22 26  1  6  0  0  0
 22 25  1  0  0  0  0
 22 23  1  0  0  0  0
 23 24  1  6  0  0  0
 24 25  1  0  0  0  0
 25 23  1  0  0  0  0
 25 21  1  1  0  0  0
 26 27  1  6  0  0  0
 28 29  2  0  0  0  0
 28 26  1  0  0  0  0
 30 28  1  0  0  0  0
 32 34  1  0  0  0  0
 33 38  1  0  0  0  0
 33 35  1  0  0  0  0
 35 31  1  1  0  0  0
 35 34  1  0  0  0  0
 36 38  2  0  0  0  0
 37 30  1  1  0  0  0
 37 32  1  0  0  0  0
 38 37  1  0  0  0  0
 40 41  1  1  0  0  0
 40 39  1  0  0  0  0
 42 40  1  0  0  0  0
 43 42  1  0  0  0  0
 44 43  2  0  0  0  0
 45 43  1  0  0  0  0
 46 45  1  0  0  0  0
 47 49  1  0  0  0  0
 47 46  1  0  0  0  0
 48 47  2  0  0  0  0
 50 49  1  0  0  0  0
M  END
>  <MODEL>
3

>  <REMARK>
 VINA RESULT:      -2.8      2.818      5.319
  Name = 
  14 active torsions:
  status: ('A' for Active; 'I' for Inactive)
    1  A    between atoms: C_3  and  N_8
    2  A    between atoms: C_3  and  N_13
    3  A    between atoms: C_4  and  C_11
    4  A    between atoms: C_4  and  C_36
    5  A    between atoms: C_5  and  C_17
    6  A    between atoms: C_5  and  C_35
    7  A    between atoms: N_8  and  C_17
    8  A    between atoms: C_14  and  C_39
    9  A    between atoms: C_15  and  C_35
   10  A    between atoms: C_15  and  O_37
   11  A    between atoms: C_28  and  C_30
   12  A    between atoms: C_29  and  N_48
   13  A    between atoms: C_30  and  C_49
   14  A    between atoms: O_37  and  C_39
                            x       y       z     vdW  Elec       q    Type
                         _______ _______ _______ _____ _____    ______ ____

>  <TORSDO>
F 14

$$$$
