=
 OpenBabel11042420363D

 49 56  0  0  1  0  0  0  0  0999 V2000
  160.9750  211.5760  150.9330 C   0  0  0  0  0  2  0  0  0  0  0  0
  161.2700  210.2860  150.1810 C   0  0  2  0  0  3  0  0  0  0  0  0
  161.7850  211.0800  152.1210 C   0  0  2  0  0  3  0  0  0  0  0  0
  162.1080  209.7910  151.3520 C   0  0  1  0  0  3  0  0  0  0  0  0
  161.2650  204.0980  147.2950 C   0  0  0  0  0  0  0  0  0  0  0  0
  161.3720  203.5260  144.9610 C   0  0  0  0  0  3  0  0  0  0  0  0
  160.8580  207.4810  151.1290 C   0  0  0  0  0  2  0  0  0  0  0  0
  161.5880  208.5080  151.9610 C   0  0  0  0  0  0  0  0  0  0  0  0
  161.0790  203.8510  148.6170 N   0  0  0  0  0  0  0  0  0  0  0  0
  161.3870  205.9370  152.9190 N   0  0  0  0  0  0  0  0  0  0  0  0
  161.1910  204.9610  150.7830 N   0  0  0  0  0  2  0  0  0  0  0  0
  161.8070  208.2740  153.2120 N   0  0  0  0  0  0  0  0  0  0  0  0
  161.1380  203.1400  146.2910 C   0  0  0  0  0  3  0  0  0  0  0  0
  161.7010  206.3060  148.3900 S   0  0  0  0  0  0  0  0  0  0  0  0
  161.3180  207.0670  153.8490 C   0  0  0  0  0  2  0  0  0  0  0  0
  161.1700  206.1030  151.6480 C   0  0  0  0  0  0  0  0  0  0  0  0
  161.6150  205.4030  146.9810 C   0  0  0  0  0  0  0  0  0  0  0  0
  161.8560  205.8110  145.6730 C   0  0  0  0  0  3  0  0  0  0  0  0
  161.2680  204.9720  149.3510 C   0  0  0  0  0  0  0  0  0  0  0  0
  161.7290  204.8530  144.6540 C   0  0  0  0  0  3  0  0  0  0  0  0
  160.9290  210.9120  153.3490 C   0  0  0  0  0  0  0  0  0  0  0  0
  161.4450  210.5420  154.4390 O   0  0  0  0  0  0  0  0  0  0  0  0
  156.5180  211.7240  155.0340 C   0  0  0  0  0  3  0  0  0  0  0  0
  159.4230  212.6720  155.5710 S   0  0  0  0  0  0  0  0  0  0  0  0
  157.0210  211.5010  156.2630 C   0  0  0  0  0  3  0  0  0  0  0  0
  157.3390  212.0440  153.8060 C   0  0  0  0  0  2  0  0  0  0  0  0
  158.4930  211.4680  156.5840 C   0  0  1  0  0  3  0  0  0  0  0  0
  159.5300  211.2150  153.2480 N   0  0  0  0  0  0  0  0  0  0  0  0
  158.8010  211.9250  154.0600 C   0  0  0  0  0  0  0  0  0  0  0  0
  158.9950  210.1790  156.3860 O   0  0  0  0  0  0  0  0  0  0  0  0
  160.0880  210.0790  157.2490 C   0  0  0  0  0  2  0  0  0  0  0  0
  159.7230  207.8320  156.5810 F   0  0  0  0  0  0  0  0  0  0  0  0
  160.6030  208.6540  157.2590 C   0  0  0  0  0  2  0  0  0  0  0  0
  162.1610  210.5630  148.9860 C   0  0  0  0  0  2  0  0  0  0  0  0
  162.7820  212.1830  147.4170 C   0  0  0  0  0  2  0  0  0  0  0  0
  160.8960  212.5130  148.7290 C   0  0  0  0  0  2  0  0  0  0  0  0
  162.2550  211.9950  148.7610 N   0  0  0  0  0  0  0  0  0  0  0  0
  160.8510  213.6090  147.6890 C   0  0  0  0  0  2  0  0  0  0  0  0
  162.0120  213.3160  146.7670 C   0  0  2  0  0  3  0  0  0  0  0  0
  163.5900  213.3920  144.5110 O   0  0  0  0  0  0  0  0  0  0  0  0
  160.6460  212.1430  142.9880 C   0  0  0  0  0  0  0  0  0  0  0  0
  160.2840  212.4810  145.2840 N   0  0  0  0  0  0  0  0  0  0  0  0
  162.6600  212.5750  141.9150 C   0  0  0  0  0  3  0  0  0  0  0  0
  161.9420  212.5850  143.1140 C   0  0  0  0  0  0  0  0  0  0  0  0
  160.3500  211.7270  141.3980 S   0  0  0  0  0  0  0  0  0  0  0  0
  161.9020  212.1130  140.8340 C   0  0  0  0  0  3  0  0  0  0  0  0
  162.4050  212.9850  144.3680 C   0  0  0  0  0  0  0  0  0  0  0  0
  161.5460  212.9220  145.4360 N   0  0  0  0  0  0  0  0  0  0  0  0
  159.7950  212.0830  144.0770 C   0  0  0  0  0  3  0  0  0  0  0  0
  1  3  1  0  0  0  0
  2 34  1  6  0  0  0
  2  1  1  0  0  0  0
  2  4  1  0  0  0  0
  3 21  1  1  0  0  0
  4  8  1  1  0  0  0
  4  3  1  0  0  0  0
  5  9  1  0  0  0  0
  6 13  1  0  0  0  0
  7 16  1  0  0  0  0
  7  8  1  0  0  0  0
  8 12  2  0  0  0  0
  9 19  2  0  0  0  0
 10 15  1  0  0  0  0
 11 16  1  0  0  0  0
 12 15  1  0  0  0  0
 13  5  2  0  0  0  0
 14 19  1  0  0  0  0
 16 10  2  0  0  0  0
 17  5  1  0  0  0  0
 17 14  1  0  0  0  0
 18 17  2  0  0  0  0
 19 11  1  0  0  0  0
 20  6  2  0  0  0  0
 20 18  1  0  0  0  0
 21 22  2  0  0  0  0
 23 25  2  0  0  0  0
 24 27  1  0  0  0  0
 25 27  1  0  0  0  0
 26 29  1  0  0  0  0
 26 23  1  0  0  0  0
 27 30  1  6  0  0  0
 28 21  1  0  0  0  0
 28 29  2  0  0  0  0
 29 24  1  0  0  0  0
 30 31  1  0  0  0  0
 31 33  1  0  0  0  0
 32 33  1  0  0  0  0
 35 37  1  0  0  0  0
 36 37  1  0  0  0  0
 37 34  1  0  0  0  0
 38 36  1  0  0  0  0
 39 48  1  6  0  0  0
 39 35  1  0  0  0  0
 39 38  1  0  0  0  0
 41 44  2  0  0  0  0
 41 49  1  0  0  0  0
 42 48  1  0  0  0  0
 43 44  1  0  0  0  0
 44 47  1  0  0  0  0
 45 41  1  0  0  0  0
 46 45  1  0  0  0  0
 46 43  2  0  0  0  0
 47 40  2  0  0  0  0
 47 48  1  0  0  0  0
 49 42  2  0  0  0  0
M  END
>  <MODEL>
1

>  <REMARK>
 VINA RESULT:      -7.9      0.000      0.000
  Name = 
  9 active torsions:
  status: ('A' for Active; 'I' for Inactive)
    1  A    between atoms: C_7  and  C_32
    2  A    between atoms: C_7  and  N_42
    3  A    between atoms: C_12  and  C_47
    4  A    between atoms: C_15  and  C_24
    5  A    between atoms: C_15  and  O_48
    6  A    between atoms: C_21  and  C_43
    7  A    between atoms: N_30  and  C_43
    8  A    between atoms: N_33  and  C_38
    9  A    between atoms: C_35  and  O_48
                            x       y       z     vdW  Elec       q    Type
                         _______ _______ _______ _____ _____    ______ ____

>  <TORSDO>
F 9

$$$$
=
 OpenBabel11042420363D

 49 56  0  0  1  0  0  0  0  0999 V2000
  160.7470  211.4900  151.2870 C   0  0  0  0  0  2  0  0  0  0  0  0
  161.1670  210.2210  150.5600 C   0  0  2  0  0  3  0  0  0  0  0  0
  161.4990  211.0380  152.5300 C   0  0  2  0  0  3  0  0  0  0  0  0
  161.9480  209.7720  151.7870 C   0  0  1  0  0  3  0  0  0  0  0  0
  161.3450  204.1460  147.5970 C   0  0  0  0  0  0  0  0  0  0  0  0
  161.5020  203.6290  145.2530 C   0  0  0  0  0  3  0  0  0  0  0  0
  160.7760  207.4290  151.4970 C   0  0  0  0  0  2  0  0  0  0  0  0
  161.4620  208.4610  152.3610 C   0  0  0  0  0  0  0  0  0  0  0  0
  161.1490  203.8640  148.9100 N   0  0  0  0  0  0  0  0  0  0  0  0
  161.3310  205.8640  153.2600 N   0  0  0  0  0  0  0  0  0  0  0  0
  161.1960  204.9290  151.1010 N   0  0  0  0  0  2  0  0  0  0  0  0
  161.6710  208.2060  153.6100 N   0  0  0  0  0  0  0  0  0  0  0  0
  161.2620  203.2060  146.5710 C   0  0  0  0  0  3  0  0  0  0  0  0
  161.6940  206.3420  148.7450 S   0  0  0  0  0  0  0  0  0  0  0  0
  161.2130  206.9700  154.2130 C   0  0  0  0  0  2  0  0  0  0  0  0
  161.1260  206.0500  151.9900 C   0  0  0  0  0  0  0  0  0  0  0  0
  161.6570  205.4680  147.3160 C   0  0  0  0  0  0  0  0  0  0  0  0
  161.9020  205.9120  146.0210 C   0  0  0  0  0  3  0  0  0  0  0  0
  161.2910  204.9740  149.6710 C   0  0  0  0  0  0  0  0  0  0  0  0
  161.8200  204.9730  144.9800 C   0  0  0  0  0  3  0  0  0  0  0  0
  160.5710  210.8190  153.6950 C   0  0  0  0  0  0  0  0  0  0  0  0
  159.5590  210.0760  153.5720 O   0  0  0  0  0  0  0  0  0  0  0  0
  159.9790  213.9650  157.2600 C   0  0  0  0  0  3  0  0  0  0  0  0
  158.2820  211.9210  155.6580 S   0  0  0  0  0  0  0  0  0  0  0  0
  158.9280  214.4460  156.5700 C   0  0  0  0  0  3  0  0  0  0  0  0
  160.6230  212.6160  157.0340 C   0  0  0  0  0  2  0  0  0  0  0  0
  158.2750  213.7320  155.4130 C   0  0  1  0  0  3  0  0  0  0  0  0
  160.8900  211.4490  154.9440 N   0  0  0  0  0  0  0  0  0  0  0  0
  160.0700  211.9240  155.8380 C   0  0  0  0  0  0  0  0  0  0  0  0
  158.9270  214.0620  154.2220 O   0  0  0  0  0  0  0  0  0  0  0  0
  158.1060  213.5610  153.2090 C   0  0  0  0  0  2  0  0  0  0  0  0
  158.1730  213.5360  150.8380 F   0  0  0  0  0  0  0  0  0  0  0  0
  158.3170  214.3600  151.9380 C   0  0  0  0  0  2  0  0  0  0  0  0
  162.1220  210.5510  149.4290 C   0  0  0  0  0  2  0  0  0  0  0  0
  162.6860  212.2140  147.8850 C   0  0  0  0  0  2  0  0  0  0  0  0
  160.7940  212.4630  149.2050 C   0  0  0  0  0  2  0  0  0  0  0  0
  162.1690  211.9890  149.2260 N   0  0  0  0  0  0  0  0  0  0  0  0
  160.7100  213.5720  148.1820 C   0  0  0  0  0  2  0  0  0  0  0  0
  161.8780  213.3320  147.2530 C   0  0  2  0  0  3  0  0  0  0  0  0
  163.4340  213.5270  144.9900 O   0  0  0  0  0  0  0  0  0  0  0  0
  160.5410  212.1730  143.4600 C   0  0  0  0  0  0  0  0  0  0  0  0
  160.1800  212.4460  145.7650 N   0  0  0  0  0  0  0  0  0  0  0  0
  162.5250  212.7200  142.3830 C   0  0  0  0  0  3  0  0  0  0  0  0
  161.8160  212.6720  143.5870 C   0  0  0  0  0  0  0  0  0  0  0  0
  160.2530  211.7750  141.8630 S   0  0  0  0  0  0  0  0  0  0  0  0
  161.7810  212.2450  141.2980 C   0  0  0  0  0  3  0  0  0  0  0  0
  162.2680  213.0680  144.8460 C   0  0  0  0  0  0  0  0  0  0  0  0
  161.4210  212.9430  145.9180 N   0  0  0  0  0  0  0  0  0  0  0  0
  159.7010  212.0500  144.5530 C   0  0  0  0  0  3  0  0  0  0  0  0
  1  3  1  0  0  0  0
  2 34  1  6  0  0  0
  2  1  1  0  0  0  0
  2  4  1  0  0  0  0
  3 21  1  1  0  0  0
  4  8  1  1  0  0  0
  4  3  1  0  0  0  0
  5  9  1  0  0  0  0
  6 13  1  0  0  0  0
  7 16  1  0  0  0  0
  7  8  1  0  0  0  0
  8 12  2  0  0  0  0
  9 19  2  0  0  0  0
 10 15  1  0  0  0  0
 11 16  1  0  0  0  0
 12 15  1  0  0  0  0
 13  5  2  0  0  0  0
 14 19  1  0  0  0  0
 16 10  2  0  0  0  0
 17  5  1  0  0  0  0
 17 14  1  0  0  0  0
 18 17  2  0  0  0  0
 19 11  1  0  0  0  0
 20  6  2  0  0  0  0
 20 18  1  0  0  0  0
 21 28  1  0  0  0  0
 22 21  2  0  0  0  0
 24 29  1  0  0  0  0
 25 23  2  0  0  0  0
 26 23  1  0  0  0  0
 27 30  1  6  0  0  0
 27 24  1  0  0  0  0
 27 25  1  0  0  0  0
 28 29  2  0  0  0  0
 29 26  1  0  0  0  0
 31 30  1  0  0  0  0
 32 33  1  0  0  0  0
 33 31  1  0  0  0  0
 35 37  1  0  0  0  0
 36 37  1  0  0  0  0
 37 34  1  0  0  0  0
 38 36  1  0  0  0  0
 39 48  1  6  0  0  0
 39 35  1  0  0  0  0
 39 38  1  0  0  0  0
 41 44  2  0  0  0  0
 41 49  1  0  0  0  0
 42 48  1  0  0  0  0
 43 44  1  0  0  0  0
 44 47  1  0  0  0  0
 45 41  1  0  0  0  0
 46 45  1  0  0  0  0
 46 43  2  0  0  0  0
 47 40  2  0  0  0  0
 47 48  1  0  0  0  0
 49 42  2  0  0  0  0
M  END
>  <MODEL>
2

>  <REMARK>
 VINA RESULT:      -7.8      1.753      2.354
  Name = 
  9 active torsions:
  status: ('A' for Active; 'I' for Inactive)
    1  A    between atoms: C_7  and  C_32
    2  A    between atoms: C_7  and  N_42
    3  A    between atoms: C_12  and  C_47
    4  A    between atoms: C_15  and  C_24
    5  A    between atoms: C_15  and  O_48
    6  A    between atoms: C_21  and  C_43
    7  A    between atoms: N_30  and  C_43
    8  A    between atoms: N_33  and  C_38
    9  A    between atoms: C_35  and  O_48
                            x       y       z     vdW  Elec       q    Type
                         _______ _______ _______ _____ _____    ______ ____

>  <TORSDO>
F 9

$$$$
=
 OpenBabel11042420363D

 49 56  0  0  1  0  0  0  0  0999 V2000
  162.4300  209.1120  148.5150 C   0  0  0  0  0  2  0  0  0  0  0  0
  161.9430  209.7750  149.7950 C   0  0  2  0  0  3  0  0  0  0  0  0
  161.5240  207.9190  148.7770 C   0  0  2  0  0  3  0  0  0  0  0  0
  161.0090  208.6010  150.0520 C   0  0  1  0  0  3  0  0  0  0  0  0
  159.6180  211.7770  156.1800 C   0  0  0  0  0  0  0  0  0  0  0  0
  158.9330  213.9460  156.9630 C   0  0  0  0  0  3  0  0  0  0  0  0
  161.5750  208.6380  152.6270 C   0  0  0  0  0  2  0  0  0  0  0  0
  161.2950  207.8800  151.3500 C   0  0  0  0  0  0  0  0  0  0  0  0
  159.9810  210.4760  156.3170 N   0  0  0  0  0  0  0  0  0  0  0  0
  161.0210  206.5660  153.7520 N   0  0  0  0  0  0  0  0  0  0  0  0
  160.5610  208.5230  154.9800 N   0  0  0  0  0  2  0  0  0  0  0  0
  161.2640  206.5900  151.3710 N   0  0  0  0  0  0  0  0  0  0  0  0
  159.3100  212.6220  157.2450 C   0  0  0  0  0  3  0  0  0  0  0  0
  159.9640  210.9960  153.8280 S   0  0  0  0  0  0  0  0  0  0  0  0
  161.5460  205.8490  152.5860 C   0  0  0  0  0  2  0  0  0  0  0  0
  161.0300  207.8650  153.7980 C   0  0  0  0  0  0  0  0  0  0  0  0
  159.5540  212.2390  154.8740 C   0  0  0  0  0  0  0  0  0  0  0  0
  159.1810  213.5440  154.5670 C   0  0  0  0  0  3  0  0  0  0  0  0
  160.2210  209.9100  155.1110 C   0  0  0  0  0  0  0  0  0  0  0  0
  158.8690  214.4030  155.6320 C   0  0  0  0  0  3  0  0  0  0  0  0
  162.3130  206.6530  148.9850 C   0  0  0  0  0  0  0  0  0  0  0  0
  163.4890  206.7040  149.4360 O   0  0  0  0  0  0  0  0  0  0  0  0
  161.0440  202.9700  146.1960 C   0  0  0  0  0  3  0  0  0  0  0  0
  163.6080  204.5550  146.9290 S   0  0  0  0  0  0  0  0  0  0  0  0
  161.6870  203.5970  145.1930 C   0  0  0  0  0  3  0  0  0  0  0  0
  161.2300  203.2670  147.6660 C   0  0  0  0  0  2  0  0  0  0  0  0
  162.6470  204.7430  145.3870 C   0  0  1  0  0  3  0  0  0  0  0  0
  161.6780  205.4010  148.6880 N   0  0  0  0  0  0  0  0  0  0  0  0
  162.0940  204.4570  147.8940 C   0  0  0  0  0  0  0  0  0  0  0  0
  161.9470  205.9530  145.3970 O   0  0  0  0  0  0  0  0  0  0  0  0
  160.8840  205.7630  144.5120 C   0  0  0  0  0  2  0  0  0  0  0  0
  159.8160  206.4180  146.5260 F   0  0  0  0  0  0  0  0  0  0  0  0
  159.5720  206.0230  145.2250 C   0  0  0  0  0  2  0  0  0  0  0  0
  161.1360  211.0190  149.4710 C   0  0  0  0  0  2  0  0  0  0  0  0
  162.4750  211.8210  147.7300 C   0  0  0  0  0  2  0  0  0  0  0  0
  161.2210  213.3070  148.9970 C   0  0  0  0  0  2  0  0  0  0  0  0
  162.0270  212.0990  149.0870 N   0  0  0  0  0  0  0  0  0  0  0  0
  161.7500  214.1230  147.8410 C   0  0  0  0  0  2  0  0  0  0  0  0
  162.4640  213.1260  146.9570 C   0  0  2  0  0  3  0  0  0  0  0  0
  163.7080  213.2950  144.5060 O   0  0  0  0  0  0  0  0  0  0  0  0
  160.4400  212.6020  143.3300 C   0  0  0  0  0  0  0  0  0  0  0  0
  160.4500  212.6910  145.6770 N   0  0  0  0  0  0  0  0  0  0  0  0
  162.3250  212.9230  142.0110 C   0  0  0  0  0  3  0  0  0  0  0  0
  161.7890  212.8680  143.3010 C   0  0  0  0  0  0  0  0  0  0  0  0
  159.8730  212.4250  141.7680 S   0  0  0  0  0  0  0  0  0  0  0  0
  161.3690  212.6920  141.0180 C   0  0  0  0  0  3  0  0  0  0  0  0
  162.4710  213.0510  144.5040 C   0  0  0  0  0  0  0  0  0  0  0  0
  161.7680  212.9580  145.6790 N   0  0  0  0  0  0  0  0  0  0  0  0
  159.7480  212.5070  144.5240 C   0  0  0  0  0  3  0  0  0  0  0  0
  1  3  1  0  0  0  0
  1  2  1  0  0  0  0
  2 34  1  6  0  0  0
  2  4  1  0  0  0  0
  3 21  1  1  0  0  0
  3  4  1  0  0  0  0
  4  8  1  1  0  0  0
  5  9  1  0  0  0  0
  5 13  1  0  0  0  0
  6 13  2  0  0  0  0
  7 16  1  0  0  0  0
  8 12  2  0  0  0  0
  8  7  1  0  0  0  0
 10 16  2  0  0  0  0
 11 19  1  0  0  0  0
 12 15  1  0  0  0  0
 14 17  1  0  0  0  0
 14 19  1  0  0  0  0
 15 10  1  0  0  0  0
 16 11  1  0  0  0  0
 17  5  2  0  0  0  0
 18 17  1  0  0  0  0
 18 20  2  0  0  0  0
 19  9  2  0  0  0  0
 20  6  1  0  0  0  0
 21 22  2  0  0  0  0
 23 26  1  0  0  0  0
 24 29  1  0  0  0  0
 25 27  1  0  0  0  0
 25 23  2  0  0  0  0
 26 29  1  0  0  0  0
 27 30  1  1  0  0  0
 27 24  1  0  0  0  0
 28 21  1  0  0  0  0
 29 28  2  0  0  0  0
 31 33  1  0  0  0  0
 31 30  1  0  0  0  0
 33 32  1  0  0  0  0
 35 37  1  0  0  0  0
 36 37  1  0  0  0  0
 37 34  1  0  0  0  0
 38 36  1  0  0  0  0
 39 48  1  6  0  0  0
 39 35  1  0  0  0  0
 39 38  1  0  0  0  0
 41 49  1  0  0  0  0
 42 48  1  0  0  0  0
 43 44  1  0  0  0  0
 44 41  2  0  0  0  0
 44 47  1  0  0  0  0
 45 41  1  0  0  0  0
 46 45  1  0  0  0  0
 46 43  2  0  0  0  0
 47 40  2  0  0  0  0
 47 48  1  0  0  0  0
 49 42  2  0  0  0  0
M  END
>  <MODEL>
3

>  <REMARK>
 VINA RESULT:      -6.2      2.615      7.955
  Name = 
  9 active torsions:
  status: ('A' for Active; 'I' for Inactive)
    1  A    between atoms: C_7  and  C_32
    2  A    between atoms: C_7  and  N_42
    3  A    between atoms: C_12  and  C_47
    4  A    between atoms: C_15  and  C_24
    5  A    between atoms: C_15  and  O_48
    6  A    between atoms: C_21  and  C_43
    7  A    between atoms: N_30  and  C_43
    8  A    between atoms: N_33  and  C_38
    9  A    between atoms: C_35  and  O_48
                            x       y       z     vdW  Elec       q    Type
                         _______ _______ _______ _____ _____    ______ ____

>  <TORSDO>
F 9

$$$$
=
 OpenBabel11042420363D

 49 56  0  0  1  0  0  0  0  0999 V2000
  162.6860  209.7480  148.6290 C   0  0  0  0  0  2  0  0  0  0  0  0
  161.9760  210.2360  149.8820 C   0  0  2  0  0  3  0  0  0  0  0  0
  161.8960  208.4480  148.6760 C   0  0  2  0  0  3  0  0  0  0  0  0
  161.1570  208.9530  149.9240 C   0  0  1  0  0  3  0  0  0  0  0  0
  159.5280  211.7820  156.1610 C   0  0  0  0  0  0  0  0  0  0  0  0
  158.8470  213.9150  157.0420 C   0  0  0  0  0  3  0  0  0  0  0  0
  161.5960  208.8220  152.5190 C   0  0  0  0  0  2  0  0  0  0  0  0
  161.3650  208.1490  151.1870 C   0  0  0  0  0  0  0  0  0  0  0  0
  159.8590  210.4680  156.2350 N   0  0  0  0  0  0  0  0  0  0  0  0
  160.9480  206.6980  153.4870 N   0  0  0  0  0  0  0  0  0  0  0  0
  160.4660  208.5870  154.8100 N   0  0  0  0  0  2  0  0  0  0  0  0
  161.3080  206.8610  151.1270 N   0  0  0  0  0  0  0  0  0  0  0  0
  159.1840  212.5680  157.2600 C   0  0  0  0  0  3  0  0  0  0  0  0
  159.9740  211.1380  153.7850 S   0  0  0  0  0  0  0  0  0  0  0  0
  161.5150  206.0420  152.3060 C   0  0  0  0  0  2  0  0  0  0  0  0
  160.9800  207.9920  153.6130 C   0  0  0  0  0  0  0  0  0  0  0  0
  159.5370  212.3240  154.8850 C   0  0  0  0  0  0  0  0  0  0  0  0
  159.2050  213.6530  154.6410 C   0  0  0  0  0  3  0  0  0  0  0  0
  160.1470  209.9710  155.0090 C   0  0  0  0  0  0  0  0  0  0  0  0
  158.8580  214.4530  155.7410 C   0  0  0  0  0  3  0  0  0  0  0  0
  162.7930  207.2570  148.8840 C   0  0  0  0  0  0  0  0  0  0  0  0
  163.2870  207.0230  150.0210 O   0  0  0  0  0  0  0  0  0  0  0  0
  162.1890  203.3240  146.2150 C   0  0  0  0  0  3  0  0  0  0  0  0
  160.4470  205.5050  147.5690 S   0  0  0  0  0  0  0  0  0  0  0  0
  161.3020  202.9150  147.1410 C   0  0  0  0  0  3  0  0  0  0  0  0
  162.6730  204.7460  146.0450 C   0  0  0  0  0  2  0  0  0  0  0  0
  160.7070  203.8100  148.1990 C   0  0  1  0  0  3  0  0  0  0  0  0
  163.0380  206.3880  147.7680 N   0  0  0  0  0  0  0  0  0  0  0  0
  162.1840  205.6400  147.1310 C   0  0  0  0  0  0  0  0  0  0  0  0
  161.5360  203.8330  149.3240 O   0  0  0  0  0  0  0  0  0  0  0  0
  160.7590  203.3070  150.3580 C   0  0  0  0  0  2  0  0  0  0  0  0
  161.6220  201.1250  150.0090 F   0  0  0  0  0  0  0  0  0  0  0  0
  160.4480  201.8510  150.0740 C   0  0  0  0  0  2  0  0  0  0  0  0
  161.0780  211.4140  149.5560 C   0  0  0  0  0  2  0  0  0  0  0  0
  162.3960  212.1660  147.7770 C   0  0  0  0  0  2  0  0  0  0  0  0
  160.9700  213.6430  148.8580 C   0  0  0  0  0  2  0  0  0  0  0  0
  161.8790  212.5310  149.0870 N   0  0  0  0  0  0  0  0  0  0  0  0
  161.4620  214.3890  147.6390 C   0  0  0  0  0  2  0  0  0  0  0  0
  162.2920  213.3820  146.8770 C   0  0  2  0  0  3  0  0  0  0  0  0
  163.6390  213.2660  144.4780 O   0  0  0  0  0  0  0  0  0  0  0  0
  160.4450  212.3240  143.2720 C   0  0  0  0  0  0  0  0  0  0  0  0
  160.3480  212.7210  145.5850 N   0  0  0  0  0  0  0  0  0  0  0  0
  162.3770  212.5260  142.0010 C   0  0  0  0  0  3  0  0  0  0  0  0
  161.7860  212.6260  143.2630 C   0  0  0  0  0  0  0  0  0  0  0  0
  159.9520  211.9260  141.7270 S   0  0  0  0  0  0  0  0  0  0  0  0
  161.4720  212.1370  141.0080 C   0  0  0  0  0  3  0  0  0  0  0  0
  162.4100  212.9860  144.4580 C   0  0  0  0  0  0  0  0  0  0  0  0
  161.6580  213.0260  145.6060 N   0  0  0  0  0  0  0  0  0  0  0  0
  159.7030  212.3660  144.4400 C   0  0  0  0  0  3  0  0  0  0  0  0
  1  3  1  0  0  0  0
  1  2  1  0  0  0  0
  2 34  1  6  0  0  0
  2  4  1  0  0  0  0
  3 21  1  1  0  0  0
  3  4  1  0  0  0  0
  4  8  1  1  0  0  0
  5  9  1  0  0  0  0
  5 13  1  0  0  0  0
  6 13  2  0  0  0  0
  7 16  1  0  0  0  0
  8  7  1  0  0  0  0
 10 16  2  0  0  0  0
 11 19  1  0  0  0  0
 12  8  2  0  0  0  0
 12 15  1  0  0  0  0
 14 17  1  0  0  0  0
 14 19  1  0  0  0  0
 15 10  1  0  0  0  0
 16 11  1  0  0  0  0
 17  5  2  0  0  0  0
 18 17  1  0  0  0  0
 18 20  2  0  0  0  0
 19  9  2  0  0  0  0
 20  6  1  0  0  0  0
 21 22  2  0  0  0  0
 23 25  2  0  0  0  0
 24 27  1  0  0  0  0
 25 27  1  0  0  0  0
 26 23  1  0  0  0  0
 26 29  1  0  0  0  0
 27 30  1  1  0  0  0
 28 21  1  0  0  0  0
 29 24  1  0  0  0  0
 29 28  2  0  0  0  0
 30 31  1  0  0  0  0
 32 33  1  0  0  0  0
 33 31  1  0  0  0  0
 35 37  1  0  0  0  0
 36 37  1  0  0  0  0
 37 34  1  0  0  0  0
 38 36  1  0  0  0  0
 39 48  1  6  0  0  0
 39 38  1  0  0  0  0
 39 35  1  0  0  0  0
 41 49  1  0  0  0  0
 42 48  1  0  0  0  0
 43 44  1  0  0  0  0
 44 41  2  0  0  0  0
 44 47  1  0  0  0  0
 45 41  1  0  0  0  0
 46 45  1  0  0  0  0
 46 43  2  0  0  0  0
 47 40  2  0  0  0  0
 47 48  1  0  0  0  0
 49 42  2  0  0  0  0
M  END
>  <MODEL>
4

>  <REMARK>
 VINA RESULT:      -5.6      2.516      7.529
  Name = 
  9 active torsions:
  status: ('A' for Active; 'I' for Inactive)
    1  A    between atoms: C_7  and  C_32
    2  A    between atoms: C_7  and  N_42
    3  A    between atoms: C_12  and  C_47
    4  A    between atoms: C_15  and  C_24
    5  A    between atoms: C_15  and  O_48
    6  A    between atoms: C_21  and  C_43
    7  A    between atoms: N_30  and  C_43
    8  A    between atoms: N_33  and  C_38
    9  A    between atoms: C_35  and  O_48
                            x       y       z     vdW  Elec       q    Type
                         _______ _______ _______ _____ _____    ______ ____

>  <TORSDO>
F 9

$$$$
=
 OpenBabel11042420363D

 49 56  0  0  1  0  0  0  0  0999 V2000
  162.2630  208.2340  149.7170 C   0  0  0  0  0  2  0  0  0  0  0  0
  161.8280  209.3590  150.6450 C   0  0  2  0  0  3  0  0  0  0  0  0
  161.2530  207.2980  150.3630 C   0  0  2  0  0  3  0  0  0  0  0  0
  160.7920  208.4410  151.2790 C   0  0  1  0  0  3  0  0  0  0  0  0
  157.3440  212.4720  155.9070 C   0  0  0  0  0  0  0  0  0  0  0  0
  155.9230  214.4140  155.8880 C   0  0  0  0  0  3  0  0  0  0  0  0
  160.7930  209.3450  153.7550 C   0  0  0  0  0  2  0  0  0  0  0  0
  161.0060  208.2280  152.7600 C   0  0  0  0  0  0  0  0  0  0  0  0
  158.0290  211.4530  156.4850 N   0  0  0  0  0  0  0  0  0  0  0  0
  160.6420  207.5830  155.4100 N   0  0  0  0  0  0  0  0  0  0  0  0
  159.4010  209.5260  155.9020 N   0  0  0  0  0  2  0  0  0  0  0  0
  161.3420  207.0550  153.1840 N   0  0  0  0  0  0  0  0  0  0  0  0
  156.5980  213.4160  156.6110 C   0  0  0  0  0  3  0  0  0  0  0  0
  158.3660  211.2580  153.9720 S   0  0  0  0  0  0  0  0  0  0  0  0
  161.5730  206.8020  154.5930 C   0  0  0  0  0  2  0  0  0  0  0  0
  160.2680  208.7740  155.0440 C   0  0  0  0  0  0  0  0  0  0  0  0
  157.4140  212.5230  154.5230 C   0  0  0  0  0  0  0  0  0  0  0  0
  156.7530  213.4970  153.7820 C   0  0  0  0  0  3  0  0  0  0  0  0
  158.6600  210.7020  155.5520 C   0  0  0  0  0  0  0  0  0  0  0  0
  156.0000  214.4530  154.4820 C   0  0  0  0  0  3  0  0  0  0  0  0
  161.9260  206.1390  151.0500 C   0  0  0  0  0  0  0  0  0  0  0  0
  163.0760  206.2760  151.5480 O   0  0  0  0  0  0  0  0  0  0  0  0
  159.9770  202.0960  149.3730 C   0  0  0  0  0  3  0  0  0  0  0  0
  162.6780  203.6140  149.2160 S   0  0  0  0  0  0  0  0  0  0  0  0
  160.3960  202.4810  148.1530 C   0  0  0  0  0  3  0  0  0  0  0  0
  160.4940  202.6470  150.6820 C   0  0  0  0  0  2  0  0  0  0  0  0
  161.4030  203.5770  147.9090 C   0  0  1  0  0  3  0  0  0  0  0  0
  161.2100  204.8990  151.1460 N   0  0  0  0  0  0  0  0  0  0  0  0
  161.4160  203.7980  150.4820 C   0  0  0  0  0  0  0  0  0  0  0  0
  160.7520  204.8110  147.8320 O   0  0  0  0  0  0  0  0  0  0  0  0
  161.5600  205.5950  147.0050 C   0  0  0  0  0  2  0  0  0  0  0  0
  162.2210  205.7830  144.7340 F   0  0  0  0  0  0  0  0  0  0  0  0
  161.7890  204.8810  145.6870 C   0  0  0  0  0  2  0  0  0  0  0  0
  161.1360  210.4560  149.8580 C   0  0  0  0  0  2  0  0  0  0  0  0
  162.3940  211.3840  148.1190 C   0  0  0  0  0  2  0  0  0  0  0  0
  161.3860  212.7740  149.6810 C   0  0  0  0  0  2  0  0  0  0  0  0
  162.0860  211.5070  149.5360 N   0  0  0  0  0  0  0  0  0  0  0  0
  161.8900  213.6980  148.5970 C   0  0  0  0  0  2  0  0  0  0  0  0
  162.4360  212.7800  147.5270 C   0  0  2  0  0  3  0  0  0  0  0  0
  163.4550  213.4050  145.0460 O   0  0  0  0  0  0  0  0  0  0  0  0
  160.0870  212.9170  144.0650 C   0  0  0  0  0  0  0  0  0  0  0  0
  160.3100  212.5740  146.3780 N   0  0  0  0  0  0  0  0  0  0  0  0
  161.8480  213.4870  142.6620 C   0  0  0  0  0  3  0  0  0  0  0  0
  161.4300  213.1930  143.9640 C   0  0  0  0  0  0  0  0  0  0  0  0
  159.3790  213.0250  142.5560 S   0  0  0  0  0  0  0  0  0  0  0  0
  160.8030  213.4360  141.7340 C   0  0  0  0  0  3  0  0  0  0  0  0
  162.2200  213.1570  145.1130 C   0  0  0  0  0  0  0  0  0  0  0  0
  161.6260  212.8450  146.3090 N   0  0  0  0  0  0  0  0  0  0  0  0
  159.5050  212.6000  145.2800 C   0  0  0  0  0  3  0  0  0  0  0  0
  1  3  1  0  0  0  0
  1  2  1  0  0  0  0
  2 34  1  6  0  0  0
  2  4  1  0  0  0  0
  3 21  1  1  0  0  0
  3  4  1  0  0  0  0
  4  8  1  1  0  0  0
  5  9  1  0  0  0  0
  5 13  1  0  0  0  0
  6 13  2  0  0  0  0
  7 16  1  0  0  0  0
  8 12  2  0  0  0  0
  8  7  1  0  0  0  0
 12 15  1  0  0  0  0
 14 17  1  0  0  0  0
 14 19  1  0  0  0  0
 15 10  1  0  0  0  0
 16 10  2  0  0  0  0
 16 11  1  0  0  0  0
 17  5  2  0  0  0  0
 18 20  2  0  0  0  0
 18 17  1  0  0  0  0
 19 11  1  0  0  0  0
 19  9  2  0  0  0  0
 20  6  1  0  0  0  0
 21 28  1  0  0  0  0
 21 22  2  0  0  0  0
 23 26  1  0  0  0  0
 24 29  1  0  0  0  0
 25 23  2  0  0  0  0
 27 30  1  1  0  0  0
 27 25  1  0  0  0  0
 27 24  1  0  0  0  0
 29 26  1  0  0  0  0
 29 28  2  0  0  0  0
 31 30  1  0  0  0  0
 32 33  1  0  0  0  0
 33 31  1  0  0  0  0
 35 37  1  0  0  0  0
 37 36  1  0  0  0  0
 37 34  1  0  0  0  0
 38 36  1  0  0  0  0
 39 48  1  6  0  0  0
 39 35  1  0  0  0  0
 39 38  1  0  0  0  0
 40 47  2  0  0  0  0
 41 49  1  0  0  0  0
 43 44  1  0  0  0  0
 44 41  2  0  0  0  0
 44 47  1  0  0  0  0
 45 41  1  0  0  0  0
 46 45  1  0  0  0  0
 46 43  2  0  0  0  0
 47 48  1  0  0  0  0
 48 42  1  0  0  0  0
 49 42  2  0  0  0  0
M  END
>  <MODEL>
5

>  <REMARK>
 VINA RESULT:      -5.1      2.832      7.816
  Name = 
  9 active torsions:
  status: ('A' for Active; 'I' for Inactive)
    1  A    between atoms: C_7  and  C_32
    2  A    between atoms: C_7  and  N_42
    3  A    between atoms: C_12  and  C_47
    4  A    between atoms: C_15  and  C_24
    5  A    between atoms: C_15  and  O_48
    6  A    between atoms: C_21  and  C_43
    7  A    between atoms: N_30  and  C_43
    8  A    between atoms: N_33  and  C_38
    9  A    between atoms: C_35  and  O_48
                            x       y       z     vdW  Elec       q    Type
                         _______ _______ _______ _____ _____    ______ ____

>  <TORSDO>
F 9

$$$$
