=
 OpenBabel11042422273D

 34 39  0  0  1  0  0  0  0  0999 V2000
  160.8070  207.7040  152.9080 N   0  0  0  0  0  0  0  0  0  0  0  0
  160.4300  209.6630  154.3910 C   0  0  0  0  0  0  0  0  0  0  0  0
  161.2490  211.1810  153.0530 N   0  0  0  0  0  2  0  0  0  0  0  0
  161.2970  207.3290  151.6820 C   0  0  0  0  0  0  0  0  0  0  0  0
  160.8480  209.0120  153.2580 C   0  0  0  0  0  0  0  0  0  0  0  0
  161.8630  209.6670  151.1960 C   0  0  0  0  0  0  0  0  0  0  0  0
  160.6830  210.9840  154.2440 N   0  0  0  0  0  0  0  0  0  0  0  0
  161.8280  208.3150  150.8070 C   0  0  0  0  0  3  0  0  0  0  0  0
  161.3490  209.9800  152.4500 C   0  0  0  0  0  0  0  0  0  0  0  0
  160.6960  204.0550  149.6970 C   0  0  2  0  0  3  0  0  0  0  0  0
  160.4060  206.2370  148.9510 N   0  0  0  0  0  0  0  0  0  0  0  0
  160.8630  205.8400  146.5820 C   0  0  0  0  0  3  0  0  0  0  0  0
  160.3210  205.4300  150.1710 C   0  0  2  0  0  3  0  0  0  0  0  0
  161.3330  203.0830  150.5890 C   0  0  0  0  0  3  0  0  0  0  0  0
  161.2530  205.9050  151.2750 C   0  0  0  0  0  0  0  0  0  0  0  0
  161.9210  204.9960  152.0140 C   0  0  0  0  0  3  0  0  0  0  0  0
  160.6040  205.4310  147.9610 C   0  0  0  0  0  0  0  0  0  0  0  0
  161.4860  203.4620  145.9910 C   0  0  0  0  0  2  0  0  0  0  0  0
  161.9010  203.5440  151.7060 C   0  0  0  0  0  3  0  0  0  0  0  0
  161.3270  203.0820  147.4440 C   0  0  0  0  0  0  0  0  0  0  0  0
  160.7910  204.0730  148.3790 C   0  0  1  0  0  3  0  0  0  0  0  0
  161.6270  201.9210  147.8270 O   0  0  0  0  0  0  0  0  0  0  0  0
  161.2710  204.9380  145.6750 C   0  0  0  0  0  0  0  0  0  0  0  0
  161.6960  205.7380  143.2460 N   0  0  0  0  0  0  0  0  0  0  0  0
  161.5050  205.3800  144.3300 C   0  0  0  0  0  0  0  0  0  0  0  0
  162.3960  210.7130  150.2780 C   0  0  0  0  0  2  0  0  0  0  0  0
  161.9940  210.4040  148.8470 C   0  0  0  0  0  2  0  0  0  0  0  0
  160.8690  212.0060  147.5340 O   0  0  0  0  0  0  0  0  0  0  0  0
  163.1460  212.4870  147.8510 C   0  0  0  0  0  1  0  0  0  0  0  0
  161.9210  211.6620  148.0470 C   0  0  0  0  0  0  0  0  0  0  0  0
  159.8170  209.0940  155.5500 N   0  0  0  0  0  2  0  0  0  0  0  0
  160.4680  207.5100  157.2600 C   0  0  0  0  0  2  0  0  0  0  0  0
  161.7270  208.0750  156.6370 C   0  0  0  0  0  2  0  0  0  0  0  0
  160.5110  208.9590  156.8210 C   0  0  0  0  0  3  0  0  0  0  0  0
  1  5  1  0  0  0  0
  2 31  1  0  0  0  0
  3  7  1  0  0  0  0
  4  1  2  0  0  0  0
  5  2  1  0  0  0  0
  6  9  1  0  0  0  0
  7  2  2  0  0  0  0
  8  6  2  0  0  0  0
  8  4  1  0  0  0  0
  9  3  1  0  0  0  0
  9  5  2  0  0  0  0
 10 13  1  0  0  0  0
 10 14  1  1  0  0  0
 12 17  1  0  0  0  0
 13 11  1  6  0  0  0
 13 15  1  0  0  0  0
 14 19  2  0  0  0  0
 15  4  1  0  0  0  0
 15 16  2  0  0  0  0
 17 21  1  0  0  0  0
 17 11  2  0  0  0  0
 18 20  1  0  0  0  0
 19 16  1  0  0  0  0
 20 22  2  0  0  0  0
 21 20  1  1  0  0  0
 21 10  1  0  0  0  0
 23 18  1  0  0  0  0
 23 12  2  0  0  0  0
 24 25  3  0  0  0  0
 25 23  1  0  0  0  0
 26  6  1  0  0  0  0
 27 26  1  0  0  0  0
 28 30  2  0  0  0  0
 29 30  1  0  0  0  0
 30 27  1  0  0  0  0
 31 34  1  0  0  0  0
 33 34  1  0  0  0  0
 33 32  1  0  0  0  0
 34 32  1  0  0  0  0
M  END
>  <MODEL>
1

>  <REMARK>
 VINA RESULT:      -9.0      0.000      0.000
  Name = 
  7 active torsions:
  status: ('A' for Active; 'I' for Inactive)
    1  A    between atoms: C_7  and  N_27
    2  A    between atoms: C_8  and  C_20
    3  A    between atoms: C_12  and  C_16
    4  A    between atoms: C_12  and  C_26
    5  A    between atoms: C_16  and  C_33
    6  A    between atoms: C_19  and  C_34
    7  A    between atoms: C_24  and  N_27
                            x       y       z     vdW  Elec       q    Type
                         _______ _______ _______ _____ _____    ______ ____

>  <TORSDO>
F 7

$$$$
=
 OpenBabel11042422273D

 34 39  0  0  1  0  0  0  0  0999 V2000
  161.0130  206.2910  151.1670 N   0  0  0  0  0  0  0  0  0  0  0  0
  161.1430  204.8350  149.1570 C   0  0  0  0  0  0  0  0  0  0  0  0
  161.6700  206.3940  147.7220 N   0  0  0  0  0  2  0  0  0  0  0  0
  161.1520  207.5860  151.5990 C   0  0  0  0  0  0  0  0  0  0  0  0
  161.2040  206.0140  149.8550 C   0  0  0  0  0  0  0  0  0  0  0  0
  161.6870  208.2900  149.3090 C   0  0  0  0  0  0  0  0  0  0  0  0
  161.4310  205.0900  147.8590 N   0  0  0  0  0  0  0  0  0  0  0  0
  161.4980  208.6030  150.6690 C   0  0  0  0  0  3  0  0  0  0  0  0
  161.5330  206.9590  148.9380 C   0  0  0  0  0  0  0  0  0  0  0  0
  160.5210  209.4770  154.9230 C   0  0  2  0  0  3  0  0  0  0  0  0
  160.3350  210.3110  152.7620 N   0  0  0  0  0  0  0  0  0  0  0  0
  158.6140  211.9920  153.2020 C   0  0  0  0  0  3  0  0  0  0  0  0
  161.0980  209.3350  153.5440 C   0  0  2  0  0  3  0  0  0  0  0  0
  160.5020  208.3570  155.8660 C   0  0  0  0  0  3  0  0  0  0  0  0
  160.9580  207.9100  153.0320 C   0  0  0  0  0  0  0  0  0  0  0  0
  160.8270  206.8990  153.9160 C   0  0  0  0  0  3  0  0  0  0  0  0
  159.6100  210.9930  153.5850 C   0  0  0  0  0  0  0  0  0  0  0  0
  157.7660  212.0640  155.5830 C   0  0  0  0  0  2  0  0  0  0  0  0
  160.6690  207.1270  155.3730 C   0  0  0  0  0  3  0  0  0  0  0  0
  158.7220  210.9480  155.9340 C   0  0  0  0  0  0  0  0  0  0  0  0
  159.6940  210.5080  154.9310 C   0  0  1  0  0  3  0  0  0  0  0  0
  158.6930  210.4330  157.0820 O   0  0  0  0  0  0  0  0  0  0  0  0
  157.7640  212.4830  154.1170 C   0  0  0  0  0  0  0  0  0  0  0  0
  156.0350  214.2620  153.3630 N   0  0  0  0  0  0  0  0  0  0  0  0
  156.8070  213.4680  153.6990 C   0  0  0  0  0  0  0  0  0  0  0  0
  162.0730  209.3440  148.3280 C   0  0  0  0  0  2  0  0  0  0  0  0
  162.1890  210.6880  149.0260 C   0  0  0  0  0  2  0  0  0  0  0  0
  160.9060  211.8020  147.3920 O   0  0  0  0  0  0  0  0  0  0  0  0
  162.9290  212.8850  147.8960 C   0  0  0  0  0  1  0  0  0  0  0  0
  161.9260  211.7960  148.0620 C   0  0  0  0  0  0  0  0  0  0  0  0
  160.8420  203.5330  149.6650 N   0  0  0  0  0  2  0  0  0  0  0  0
  161.1110  201.1300  149.5950 C   0  0  0  0  0  2  0  0  0  0  0  0
  159.6490  201.4460  149.3630 C   0  0  0  0  0  2  0  0  0  0  0  0
  160.7210  202.3630  148.8100 C   0  0  0  0  0  3  0  0  0  0  0  0
  1  4  1  0  0  0  0
  2 31  1  0  0  0  0
  2  5  1  0  0  0  0
  3  7  1  0  0  0  0
  3  9  1  0  0  0  0
  4 15  1  0  0  0  0
  5  1  2  0  0  0  0
  6  8  1  0  0  0  0
  7  2  2  0  0  0  0
  8  4  2  0  0  0  0
  9  6  2  0  0  0  0
  9  5  1  0  0  0  0
 10 21  1  0  0  0  0
 10 14  1  6  0  0  0
 11 17  2  0  0  0  0
 12 17  1  0  0  0  0
 12 23  2  0  0  0  0
 13 11  1  6  0  0  0
 13 10  1  0  0  0  0
 15 13  1  0  0  0  0
 15 16  2  0  0  0  0
 16 19  1  0  0  0  0
 18 20  1  0  0  0  0
 19 14  2  0  0  0  0
 20 22  2  0  0  0  0
 21 17  1  6  0  0  0
 21 20  1  0  0  0  0
 23 18  1  0  0  0  0
 24 25  3  0  0  0  0
 25 23  1  0  0  0  0
 26 27  1  0  0  0  0
 26  6  1  0  0  0  0
 28 30  2  0  0  0  0
 29 30  1  0  0  0  0
 30 27  1  0  0  0  0
 33 32  1  0  0  0  0
 34 33  1  0  0  0  0
 34 32  1  0  0  0  0
 34 31  1  0  0  0  0
M  END
>  <MODEL>
2

>  <REMARK>
 VINA RESULT:      -8.8      2.814      7.811
  Name = 
  7 active torsions:
  status: ('A' for Active; 'I' for Inactive)
    1  A    between atoms: C_7  and  N_27
    2  A    between atoms: C_8  and  C_20
    3  A    between atoms: C_12  and  C_16
    4  A    between atoms: C_12  and  C_26
    5  A    between atoms: C_16  and  C_33
    6  A    between atoms: C_19  and  C_34
    7  A    between atoms: C_24  and  N_27
                            x       y       z     vdW  Elec       q    Type
                         _______ _______ _______ _____ _____    ______ ____

>  <TORSDO>
F 7

$$$$
=
 OpenBabel11042422273D

 34 39  0  0  1  0  0  0  0  0999 V2000
  161.2090  208.3190  151.2770 N   0  0  0  0  0  0  0  0  0  0  0  0
  161.6520  208.3210  148.8310 C   0  0  0  0  0  0  0  0  0  0  0  0
  161.8590  206.1610  148.5870 N   0  0  0  0  0  2  0  0  0  0  0  0
  161.0700  207.5000  152.3700 C   0  0  0  0  0  0  0  0  0  0  0  0
  161.4760  207.7620  150.0710 C   0  0  0  0  0  0  0  0  0  0  0  0
  161.4830  205.5400  150.9520 C   0  0  0  0  0  0  0  0  0  0  0  0
  161.8840  207.3270  147.9420 N   0  0  0  0  0  0  0  0  0  0  0  0
  161.2010  206.0940  152.2150 C   0  0  0  0  0  3  0  0  0  0  0  0
  161.6110  206.4240  149.8850 C   0  0  0  0  0  0  0  0  0  0  0  0
  160.2240  209.9840  155.2220 C   0  0  2  0  0  3  0  0  0  0  0  0
  160.2390  210.4040  152.9360 N   0  0  0  0  0  0  0  0  0  0  0  0
  158.5370  212.1590  152.9100 C   0  0  0  0  0  3  0  0  0  0  0  0
  160.9080  209.5800  153.9470 C   0  0  2  0  0  3  0  0  0  0  0  0
  160.0960  209.0590  156.3500 C   0  0  0  0  0  3  0  0  0  0  0  0
  160.7690  208.0870  153.6960 C   0  0  0  0  0  0  0  0  0  0  0  0
  160.5370  207.2600  154.7370 C   0  0  0  0  0  3  0  0  0  0  0  0
  159.4700  211.2360  153.5550 C   0  0  0  0  0  0  0  0  0  0  0  0
  157.5000  212.6840  155.1560 C   0  0  0  0  0  2  0  0  0  0  0  0
  160.2680  207.7570  156.1090 C   0  0  0  0  0  3  0  0  0  0  0  0
  158.3920  211.6410  155.7870 C   0  0  0  0  0  0  0  0  0  0  0  0
  159.4290  211.0090  154.9690 C   0  0  1  0  0  3  0  0  0  0  0  0
  158.2540  211.3490  157.0030 O   0  0  0  0  0  0  0  0  0  0  0  0
  157.6290  212.8240  153.6430 C   0  0  0  0  0  0  0  0  0  0  0  0
  156.0200  214.4530  152.4280 N   0  0  0  0  0  0  0  0  0  0  0  0
  156.7390  213.7260  152.9710 C   0  0  0  0  0  0  0  0  0  0  0  0
  161.6000  204.0650  150.7720 C   0  0  0  0  0  2  0  0  0  0  0  0
  160.4110  203.5400  149.9870 C   0  0  0  0  0  2  0  0  0  0  0  0
  161.2020  202.9610  147.8440 O   0  0  0  0  0  0  0  0  0  0  0  0
  160.8770  201.1120  149.2540 C   0  0  0  0  0  1  0  0  0  0  0  0
  160.8640  202.5690  148.9490 C   0  0  0  0  0  0  0  0  0  0  0  0
  161.6000  209.7060  148.4810 N   0  0  0  0  0  2  0  0  0  0  0  0
  162.7180  211.8390  148.2490 C   0  0  0  0  0  2  0  0  0  0  0  0
  161.5470  212.0210  149.1910 C   0  0  0  0  0  2  0  0  0  0  0  0
  162.3370  210.7290  149.2050 C   0  0  0  0  0  3  0  0  0  0  0  0
  1  4  1  0  0  0  0
  2  5  1  0  0  0  0
  3  9  1  0  0  0  0
  4 15  1  0  0  0  0
  5  1  2  0  0  0  0
  6  8  1  0  0  0  0
  7  3  1  0  0  0  0
  7  2  2  0  0  0  0
  8  4  2  0  0  0  0
  9  5  1  0  0  0  0
  9  6  2  0  0  0  0
 10 14  1  6  0  0  0
 11 17  2  0  0  0  0
 12 17  1  0  0  0  0
 12 23  2  0  0  0  0
 13 11  1  6  0  0  0
 13 10  1  0  0  0  0
 15 13  1  0  0  0  0
 15 16  2  0  0  0  0
 16 19  1  0  0  0  0
 18 20  1  0  0  0  0
 19 14  2  0  0  0  0
 20 22  2  0  0  0  0
 21 17  1  6  0  0  0
 21 10  1  0  0  0  0
 21 20  1  0  0  0  0
 23 18  1  0  0  0  0
 24 25  3  0  0  0  0
 25 23  1  0  0  0  0
 26  6  1  0  0  0  0
 27 26  1  0  0  0  0
 28 30  2  0  0  0  0
 30 29  1  0  0  0  0
 30 27  1  0  0  0  0
 31  2  1  0  0  0  0
 31 34  1  0  0  0  0
 32 33  1  0  0  0  0
 32 34  1  0  0  0  0
 33 34  1  0  0  0  0
M  END
>  <MODEL>
3

>  <REMARK>
 VINA RESULT:      -8.7      2.919      8.433
  Name = 
  7 active torsions:
  status: ('A' for Active; 'I' for Inactive)
    1  A    between atoms: C_7  and  N_27
    2  A    between atoms: C_8  and  C_20
    3  A    between atoms: C_12  and  C_16
    4  A    between atoms: C_12  and  C_26
    5  A    between atoms: C_16  and  C_33
    6  A    between atoms: C_19  and  C_34
    7  A    between atoms: C_24  and  N_27
                            x       y       z     vdW  Elec       q    Type
                         _______ _______ _______ _____ _____    ______ ____

>  <TORSDO>
F 7

$$$$
=
 OpenBabel11042422273D

 34 39  0  0  1  0  0  0  0  0999 V2000
  161.5370  207.3720  151.2280 N   0  0  0  0  0  0  0  0  0  0  0  0
  161.8540  209.8370  151.2350 C   0  0  0  0  0  0  0  0  0  0  0  0
  161.6870  210.1280  153.3930 N   0  0  0  0  0  2  0  0  0  0  0  0
  161.3230  206.2860  152.0400 C   0  0  0  0  0  0  0  0  0  0  0  0
  161.6350  208.6000  151.7880 C   0  0  0  0  0  0  0  0  0  0  0  0
  161.3190  207.7600  154.0030 C   0  0  0  0  0  0  0  0  0  0  0  0
  161.8810  210.7530  152.2310 N   0  0  0  0  0  0  0  0  0  0  0  0
  161.2170  206.4720  153.4450 C   0  0  0  0  0  3  0  0  0  0  0  0
  161.5370  208.8160  153.1250 C   0  0  0  0  0  0  0  0  0  0  0  0
  160.6130  203.3320  149.6340 C   0  0  2  0  0  3  0  0  0  0  0  0
  160.4410  205.6040  149.1770 N   0  0  0  0  0  0  0  0  0  0  0  0
  160.9290  205.4980  146.7830 C   0  0  0  0  0  3  0  0  0  0  0  0
  160.2920  204.6500  150.2790 C   0  0  2  0  0  3  0  0  0  0  0  0
  161.1860  202.2230  150.4000 C   0  0  0  0  0  3  0  0  0  0  0  0
  161.2220  204.9310  151.4490 C   0  0  0  0  0  0  0  0  0  0  0  0
  161.8320  203.9020  152.0730 C   0  0  0  0  0  3  0  0  0  0  0  0
  160.6220  204.9260  148.0930 C   0  0  0  0  0  0  0  0  0  0  0  0
  161.4530  203.1900  145.8940 C   0  0  0  0  0  2  0  0  0  0  0  0
  161.7510  202.5060  151.5770 C   0  0  0  0  0  3  0  0  0  0  0  0
  161.2460  202.6320  147.2820 C   0  0  0  0  0  0  0  0  0  0  0  0
  160.7370  203.5180  148.3320 C   0  0  1  0  0  3  0  0  0  0  0  0
  161.4840  201.4180  147.5140 O   0  0  0  0  0  0  0  0  0  0  0  0
  161.3130  204.7030  145.7720 C   0  0  0  0  0  0  0  0  0  0  0  0
  161.8240  205.7900  143.4750 N   0  0  0  0  0  0  0  0  0  0  0  0
  161.5970  205.3050  144.5010 C   0  0  0  0  0  0  0  0  0  0  0  0
  161.2320  207.9640  155.4770 C   0  0  0  0  0  2  0  0  0  0  0  0
  159.7990  208.2680  155.8770 C   0  0  0  0  0  2  0  0  0  0  0  0
  158.6640  210.3310  155.7650 O   0  0  0  0  0  0  0  0  0  0  0  0
  160.6960  210.4410  156.9380 C   0  0  0  0  0  1  0  0  0  0  0  0
  159.6410  209.7230  156.1700 C   0  0  0  0  0  0  0  0  0  0  0  0
  162.0370  210.1570  149.8540 N   0  0  0  0  0  2  0  0  0  0  0  0
  162.8980  211.7230  148.2240 C   0  0  0  0  0  2  0  0  0  0  0  0
  161.4500  211.4400  147.8850 C   0  0  0  0  0  2  0  0  0  0  0  0
  161.8910  211.5060  149.3330 C   0  0  0  0  0  3  0  0  0  0  0  0
  1  5  2  0  0  0  0
  1  4  1  0  0  0  0
  2  5  1  0  0  0  0
  2  7  2  0  0  0  0
  4  8  2  0  0  0  0
  5  9  1  0  0  0  0
  6 26  1  0  0  0  0
  7  3  1  0  0  0  0
  8  6  1  0  0  0  0
  9  3  1  0  0  0  0
  9  6  2  0  0  0  0
 10 13  1  0  0  0  0
 10 14  1  1  0  0  0
 12 17  1  0  0  0  0
 13 11  1  6  0  0  0
 13 15  1  0  0  0  0
 14 19  2  0  0  0  0
 15  4  1  0  0  0  0
 15 16  2  0  0  0  0
 17 21  1  0  0  0  0
 17 11  2  0  0  0  0
 18 20  1  0  0  0  0
 19 16  1  0  0  0  0
 20 22  2  0  0  0  0
 21 20  1  1  0  0  0
 21 10  1  0  0  0  0
 23 18  1  0  0  0  0
 23 12  2  0  0  0  0
 24 25  3  0  0  0  0
 25 23  1  0  0  0  0
 26 27  1  0  0  0  0
 27 30  1  0  0  0  0
 28 30  2  0  0  0  0
 30 29  1  0  0  0  0
 31  2  1  0  0  0  0
 32 34  1  0  0  0  0
 33 32  1  0  0  0  0
 33 34  1  0  0  0  0
 34 31  1  0  0  0  0
M  END
>  <MODEL>
4

>  <REMARK>
 VINA RESULT:      -8.5      1.865      4.513
  Name = 
  7 active torsions:
  status: ('A' for Active; 'I' for Inactive)
    1  A    between atoms: C_7  and  N_27
    2  A    between atoms: C_8  and  C_20
    3  A    between atoms: C_12  and  C_16
    4  A    between atoms: C_12  and  C_26
    5  A    between atoms: C_16  and  C_33
    6  A    between atoms: C_19  and  C_34
    7  A    between atoms: C_24  and  N_27
                            x       y       z     vdW  Elec       q    Type
                         _______ _______ _______ _____ _____    ______ ____

>  <TORSDO>
F 7

$$$$
=
 OpenBabel11042422273D

 34 39  0  0  1  0  0  0  0  0999 V2000
  160.4760  208.6640  152.5120 N   0  0  0  0  0  0  0  0  0  0  0  0
  159.8090  210.7860  153.6220 C   0  0  0  0  0  0  0  0  0  0  0  0
  160.8350  212.1450  152.2560 N   0  0  0  0  0  2  0  0  0  0  0  0
  161.1850  208.1500  151.4550 C   0  0  0  0  0  0  0  0  0  0  0  0
  160.4350  210.0080  152.6820 C   0  0  0  0  0  0  0  0  0  0  0  0
  161.7970  210.4240  150.7630 C   0  0  0  0  0  0  0  0  0  0  0  0
  160.0670  212.0850  153.3440 N   0  0  0  0  0  0  0  0  0  0  0  0
  161.8520  209.0320  150.5630 C   0  0  0  0  0  3  0  0  0  0  0  0
  161.0600  210.8790  151.8510 C   0  0  0  0  0  0  0  0  0  0  0  0
  160.7890  204.6030  149.9440 C   0  0  2  0  0  3  0  0  0  0  0  0
  160.3380  206.6390  148.9170 N   0  0  0  0  0  0  0  0  0  0  0  0
  160.7920  205.9540  146.6140 C   0  0  0  0  0  3  0  0  0  0  0  0
  160.3250  206.0010  150.2370 C   0  0  2  0  0  3  0  0  0  0  0  0
  161.5040  203.8070  150.9450 C   0  0  0  0  0  3  0  0  0  0  0  0
  161.2350  206.6840  151.2450 C   0  0  0  0  0  0  0  0  0  0  0  0
  161.9750  205.9310  152.0850 C   0  0  0  0  0  3  0  0  0  0  0  0
  160.5800  205.7210  148.0410 C   0  0  0  0  0  0  0  0  0  0  0  0
  161.5720  203.5660  146.3360 C   0  0  0  0  0  2  0  0  0  0  0  0
  162.0520  204.4540  151.9770 C   0  0  0  0  0  3  0  0  0  0  0  0
  161.4580  203.3770  147.8300 C   0  0  0  0  0  0  0  0  0  0  0  0
  160.8660  204.4480  148.6340 C   0  0  1  0  0  3  0  0  0  0  0  0
  161.8430  202.3020  148.3590 O   0  0  0  0  0  0  0  0  0  0  0  0
  161.2500  204.9670  145.8280 C   0  0  0  0  0  0  0  0  0  0  0  0
  161.5840  205.4550  143.3040 N   0  0  0  0  0  0  0  0  0  0  0  0
  161.4360  205.2370  144.4310 C   0  0  0  0  0  0  0  0  0  0  0  0
  162.4730  211.3600  149.8200 C   0  0  0  0  0  2  0  0  0  0  0  0
  161.6220  211.5520  148.5780 C   0  0  0  0  0  2  0  0  0  0  0  0
  162.5670  212.9100  146.8990 O   0  0  0  0  0  0  0  0  0  0  0  0
  161.4790  214.1270  148.5870 C   0  0  0  0  0  1  0  0  0  0  0  0
  161.9300  212.8650  147.9380 C   0  0  0  0  0  0  0  0  0  0  0  0
  159.0040  210.3520  154.7210 N   0  0  0  0  0  2  0  0  0  0  0  0
  157.1240  211.8530  154.4630 C   0  0  0  0  0  2  0  0  0  0  0  0
  156.6920  210.7060  155.3520 C   0  0  0  0  0  2  0  0  0  0  0  0
  158.1070  211.2420  155.4390 C   0  0  0  0  0  3  0  0  0  0  0  0
  1  5  1  0  0  0  0
  2 31  1  0  0  0  0
  3  7  1  0  0  0  0
  4  1  2  0  0  0  0
  5  2  1  0  0  0  0
  6  9  1  0  0  0  0
  7  2  2  0  0  0  0
  8  6  2  0  0  0  0
  8  4  1  0  0  0  0
  9  3  1  0  0  0  0
  9  5  2  0  0  0  0
 10 13  1  0  0  0  0
 10 14  1  1  0  0  0
 12 17  1  0  0  0  0
 13 11  1  6  0  0  0
 13 15  1  0  0  0  0
 14 19  2  0  0  0  0
 15  4  1  0  0  0  0
 15 16  2  0  0  0  0
 17 21  1  0  0  0  0
 17 11  2  0  0  0  0
 18 20  1  0  0  0  0
 19 16  1  0  0  0  0
 20 22  2  0  0  0  0
 21 20  1  1  0  0  0
 21 10  1  0  0  0  0
 23 18  1  0  0  0  0
 23 12  2  0  0  0  0
 24 25  3  0  0  0  0
 25 23  1  0  0  0  0
 26  6  1  0  0  0  0
 27 26  1  0  0  0  0
 28 30  2  0  0  0  0
 30 27  1  0  0  0  0
 30 29  1  0  0  0  0
 31 34  1  0  0  0  0
 32 33  1  0  0  0  0
 32 34  1  0  0  0  0
 33 34  1  0  0  0  0
M  END
>  <MODEL>
5

>  <REMARK>
 VINA RESULT:      -7.8      1.568      1.871
  Name = 
  7 active torsions:
  status: ('A' for Active; 'I' for Inactive)
    1  A    between atoms: C_7  and  N_27
    2  A    between atoms: C_8  and  C_20
    3  A    between atoms: C_12  and  C_16
    4  A    between atoms: C_12  and  C_26
    5  A    between atoms: C_16  and  C_33
    6  A    between atoms: C_19  and  C_34
    7  A    between atoms: C_24  and  N_27
                            x       y       z     vdW  Elec       q    Type
                         _______ _______ _______ _____ _____    ______ ____

>  <TORSDO>
F 7

$$$$
=
 OpenBabel11042422273D

 34 39  0  0  1  0  0  0  0  0999 V2000
  161.3000  208.2980  151.7580 N   0  0  0  0  0  0  0  0  0  0  0  0
  161.8260  206.8300  149.8230 C   0  0  0  0  0  0  0  0  0  0  0  0
  162.3410  208.4120  148.4100 N   0  0  0  0  0  2  0  0  0  0  0  0
  161.2420  209.6080  152.1630 C   0  0  0  0  0  0  0  0  0  0  0  0
  161.6730  208.0210  150.4860 C   0  0  0  0  0  0  0  0  0  0  0  0
  161.9600  210.3270  149.9280 C   0  0  0  0  0  0  0  0  0  0  0  0
  162.2340  207.0920  148.5600 N   0  0  0  0  0  0  0  0  0  0  0  0
  161.5800  210.6410  151.2470 C   0  0  0  0  0  3  0  0  0  0  0  0
  162.0000  208.9800  149.5830 C   0  0  0  0  0  0  0  0  0  0  0  0
  159.8030  211.3880  155.2900 C   0  0  2  0  0  3  0  0  0  0  0  0
  159.5400  212.0030  153.0640 N   0  0  0  0  0  0  0  0  0  0  0  0
  157.3580  213.0860  153.2750 C   0  0  0  0  0  3  0  0  0  0  0  0
  160.5020  211.3570  153.9610 C   0  0  2  0  0  3  0  0  0  0  0  0
  160.0550  210.3720  156.3140 C   0  0  0  0  0  3  0  0  0  0  0  0
  160.8460  209.9340  153.5530 C   0  0  0  0  0  0  0  0  0  0  0  0
  160.9630  208.9820  154.5030 C   0  0  0  0  0  3  0  0  0  0  0  0
  158.5790  212.4690  153.7900 C   0  0  0  0  0  0  0  0  0  0  0  0
  156.3450  213.0210  155.5900 C   0  0  0  0  0  2  0  0  0  0  0  0
  160.6290  209.2300  155.9270 C   0  0  0  0  0  3  0  0  0  0  0  0
  157.5660  212.2800  156.0800 C   0  0  0  0  0  0  0  0  0  0  0  0
  158.7020  212.1100  155.1710 C   0  0  1  0  0  3  0  0  0  0  0  0
  157.6070  211.8450  157.2610 O   0  0  0  0  0  0  0  0  0  0  0  0
  156.3290  213.3380  154.0990 C   0  0  0  0  0  0  0  0  0  0  0  0
  154.2030  214.4450  153.1130 N   0  0  0  0  0  0  0  0  0  0  0  0
  155.1520  213.9520  153.5530 C   0  0  0  0  0  0  0  0  0  0  0  0
  162.3380  211.4000  148.9650 C   0  0  0  0  0  2  0  0  0  0  0  0
  161.1830  211.6840  148.0220 C   0  0  0  0  0  2  0  0  0  0  0  0
  161.0820  213.7370  149.1750 O   0  0  0  0  0  0  0  0  0  0  0  0
  159.3770  213.4720  147.5820 C   0  0  0  0  0  1  0  0  0  0  0  0
  160.5910  213.0210  148.3180 C   0  0  0  0  0  0  0  0  0  0  0  0
  161.6150  205.5110  150.3340 N   0  0  0  0  0  2  0  0  0  0  0  0
  160.9050  203.6740  148.9290 C   0  0  0  0  0  2  0  0  0  0  0  0
  160.7200  203.2610  150.3740 C   0  0  0  0  0  2  0  0  0  0  0  0
  160.4710  204.6960  149.9580 C   0  0  0  0  0  3  0  0  0  0  0  0
  1  4  1  0  0  0  0
  2 31  1  0  0  0  0
  2  5  1  0  0  0  0
  3  7  1  0  0  0  0
  3  9  1  0  0  0  0
  4 15  1  0  0  0  0
  5  1  2  0  0  0  0
  6  8  1  0  0  0  0
  7  2  2  0  0  0  0
  8  4  2  0  0  0  0
  9  6  2  0  0  0  0
  9  5  1  0  0  0  0
 10 14  1  6  0  0  0
 11 17  2  0  0  0  0
 12 17  1  0  0  0  0
 12 23  2  0  0  0  0
 13 11  1  6  0  0  0
 13 10  1  0  0  0  0
 15 13  1  0  0  0  0
 15 16  2  0  0  0  0
 16 19  1  0  0  0  0
 18 20  1  0  0  0  0
 19 14  2  0  0  0  0
 20 22  2  0  0  0  0
 21 17  1  6  0  0  0
 21 10  1  0  0  0  0
 21 20  1  0  0  0  0
 23 18  1  0  0  0  0
 24 25  3  0  0  0  0
 25 23  1  0  0  0  0
 26  6  1  0  0  0  0
 27 30  1  0  0  0  0
 27 26  1  0  0  0  0
 29 30  1  0  0  0  0
 30 28  2  0  0  0  0
 32 34  1  0  0  0  0
 32 33  1  0  0  0  0
 34 31  1  0  0  0  0
 34 33  1  0  0  0  0
M  END
>  <MODEL>
6

>  <REMARK>
 VINA RESULT:      -7.2      3.400      8.216
  Name = 
  7 active torsions:
  status: ('A' for Active; 'I' for Inactive)
    1  A    between atoms: C_7  and  N_27
    2  A    between atoms: C_8  and  C_20
    3  A    between atoms: C_12  and  C_16
    4  A    between atoms: C_12  and  C_26
    5  A    between atoms: C_16  and  C_33
    6  A    between atoms: C_19  and  C_34
    7  A    between atoms: C_24  and  N_27
                            x       y       z     vdW  Elec       q    Type
                         _______ _______ _______ _____ _____    ______ ____

>  <TORSDO>
F 7

$$$$
=
 OpenBabel11042422273D

 34 39  0  0  1  0  0  0  0  0999 V2000
  161.3230  208.6190  150.7970 N   0  0  0  0  0  0  0  0  0  0  0  0
  161.4300  211.0750  150.4350 C   0  0  0  0  0  0  0  0  0  0  0  0
  161.0020  211.6750  152.4910 N   0  0  0  0  0  2  0  0  0  0  0  0
  161.1110  207.6540  151.7510 C   0  0  0  0  0  0  0  0  0  0  0  0
  161.2560  209.9230  151.1580 C   0  0  0  0  0  0  0  0  0  0  0  0
  160.7680  209.4030  153.4390 C   0  0  0  0  0  0  0  0  0  0  0  0
  161.2710  212.1310  151.2670 N   0  0  0  0  0  0  0  0  0  0  0  0
  160.8360  208.0410  153.0900 C   0  0  0  0  0  3  0  0  0  0  0  0
  160.9930  210.3290  152.4260 C   0  0  0  0  0  0  0  0  0  0  0  0
  160.7860  204.2900  149.8550 C   0  0  2  0  0  3  0  0  0  0  0  0
  160.3010  206.4180  149.0570 N   0  0  0  0  0  0  0  0  0  0  0  0
  160.7740  206.0010  146.6940 C   0  0  0  0  0  3  0  0  0  0  0  0
  160.2950  205.6390  150.2980 C   0  0  2  0  0  3  0  0  0  0  0  0
  161.5120  203.4010  150.7650 C   0  0  0  0  0  3  0  0  0  0  0  0
  161.1890  206.2220  151.3800 C   0  0  0  0  0  0  0  0  0  0  0  0
  161.9400  205.3940  152.1360 C   0  0  0  0  0  3  0  0  0  0  0  0
  160.5620  205.6070  148.0860 C   0  0  0  0  0  0  0  0  0  0  0  0
  161.5980  203.6720  146.1580 C   0  0  0  0  0  2  0  0  0  0  0  0
  162.0450  203.9390  151.8650 C   0  0  0  0  0  3  0  0  0  0  0  0
  161.4830  203.3170  147.6220 C   0  0  0  0  0  0  0  0  0  0  0  0
  160.8690  204.2820  148.5360 C   0  0  1  0  0  3  0  0  0  0  0  0
  161.8860  202.1980  148.0310 O   0  0  0  0  0  0  0  0  0  0  0  0
  161.2530  205.1140  145.8070 C   0  0  0  0  0  0  0  0  0  0  0  0
  161.5890  205.8850  143.3550 N   0  0  0  0  0  0  0  0  0  0  0  0
  161.4380  205.5410  144.4500 C   0  0  0  0  0  0  0  0  0  0  0  0
  160.5020  209.8200  154.8450 C   0  0  0  0  0  2  0  0  0  0  0  0
  159.0970  210.3840  154.9640 C   0  0  0  0  0  2  0  0  0  0  0  0
  158.0590  211.9390  156.3990 O   0  0  0  0  0  0  0  0  0  0  0  0
  160.3520  212.3400  156.0830 C   0  0  0  0  0  1  0  0  0  0  0  0
  159.0930  211.5750  155.8630 C   0  0  0  0  0  0  0  0  0  0  0  0
  161.7360  211.1970  149.0440 N   0  0  0  0  0  2  0  0  0  0  0  0
  162.0270  212.5350  147.0500 C   0  0  0  0  0  2  0  0  0  0  0  0
  161.4470  213.4220  148.1310 C   0  0  0  0  0  2  0  0  0  0  0  0
  162.4440  212.3400  148.4920 C   0  0  0  0  0  3  0  0  0  0  0  0
  1  5  2  0  0  0  0
  1  4  1  0  0  0  0
  2  5  1  0  0  0  0
  2  7  2  0  0  0  0
  4  8  2  0  0  0  0
  5  9  1  0  0  0  0
  6 26  1  0  0  0  0
  7  3  1  0  0  0  0
  8  6  1  0  0  0  0
  9  3  1  0  0  0  0
  9  6  2  0  0  0  0
 10 13  1  0  0  0  0
 10 14  1  1  0  0  0
 12 17  1  0  0  0  0
 13 11  1  6  0  0  0
 13 15  1  0  0  0  0
 14 19  2  0  0  0  0
 15  4  1  0  0  0  0
 15 16  2  0  0  0  0
 17 21  1  0  0  0  0
 17 11  2  0  0  0  0
 18 20  1  0  0  0  0
 19 16  1  0  0  0  0
 20 22  2  0  0  0  0
 21 20  1  1  0  0  0
 21 10  1  0  0  0  0
 23 18  1  0  0  0  0
 23 12  2  0  0  0  0
 24 25  3  0  0  0  0
 25 23  1  0  0  0  0
 26 27  1  0  0  0  0
 27 30  1  0  0  0  0
 30 29  1  0  0  0  0
 30 28  2  0  0  0  0
 31  2  1  0  0  0  0
 32 33  1  0  0  0  0
 32 34  1  0  0  0  0
 33 34  1  0  0  0  0
 34 31  1  0  0  0  0
M  END
>  <MODEL>
7

>  <REMARK>
 VINA RESULT:      -6.8      2.088      4.619
  Name = 
  7 active torsions:
  status: ('A' for Active; 'I' for Inactive)
    1  A    between atoms: C_7  and  N_27
    2  A    between atoms: C_8  and  C_20
    3  A    between atoms: C_12  and  C_16
    4  A    between atoms: C_12  and  C_26
    5  A    between atoms: C_16  and  C_33
    6  A    between atoms: C_19  and  C_34
    7  A    between atoms: C_24  and  N_27
                            x       y       z     vdW  Elec       q    Type
                         _______ _______ _______ _____ _____    ______ ____

>  <TORSDO>
F 7

$$$$
=
 OpenBabel11042422273D

 34 39  0  0  1  0  0  0  0  0999 V2000
  160.0000  212.0610  153.0240 N   0  0  0  0  0  0  0  0  0  0  0  0
  158.7110  213.3530  154.7120 C   0  0  0  0  0  0  0  0  0  0  0  0
  159.5360  212.3860  156.4870 N   0  0  0  0  0  2  0  0  0  0  0  0
  160.9390  211.0710  152.8770 C   0  0  0  0  0  0  0  0  0  0  0  0
  159.6060  212.4110  154.2720 C   0  0  0  0  0  0  0  0  0  0  0  0
  161.0520  210.8200  155.3170 C   0  0  0  0  0  0  0  0  0  0  0  0
  158.6850  213.3200  156.0650 N   0  0  0  0  0  0  0  0  0  0  0  0
  161.4810  210.4420  154.0300 C   0  0  0  0  0  3  0  0  0  0  0  0
  160.0990  211.8310  155.3950 C   0  0  0  0  0  0  0  0  0  0  0  0
  162.3320  209.0690  149.8650 C   0  0  2  0  0  3  0  0  0  0  0  0
  161.8200  208.2660  151.9850 N   0  0  0  0  0  0  0  0  0  0  0  0
  161.2500  205.9760  151.3420 C   0  0  0  0  0  3  0  0  0  0  0  0
  162.2960  209.4760  151.3110 C   0  0  2  0  0  3  0  0  0  0  0  0
  162.1450  210.0450  148.7890 C   0  0  0  0  0  3  0  0  0  0  0  0
  161.3920  210.6800  151.5220 C   0  0  0  0  0  0  0  0  0  0  0  0
  161.1380  211.5070  150.4870 C   0  0  0  0  0  3  0  0  0  0  0  0
  161.7800  207.3180  151.1080 C   0  0  0  0  0  0  0  0  0  0  0  0
  161.3620  205.4960  148.8630 C   0  0  0  0  0  2  0  0  0  0  0  0
  161.5890  211.2180  149.1030 C   0  0  0  0  0  3  0  0  0  0  0  0
  161.7970  206.9230  148.6280 C   0  0  0  0  0  0  0  0  0  0  0  0
  162.0880  207.7730  149.7850 C   0  0  1  0  0  3  0  0  0  0  0  0
  161.9300  207.3550  147.4530 O   0  0  0  0  0  0  0  0  0  0  0  0
  161.0540  205.1380  150.3120 C   0  0  0  0  0  0  0  0  0  0  0  0
  160.1270  202.7690  150.8100 N   0  0  0  0  0  0  0  0  0  0  0  0
  160.5400  203.8270  150.5880 C   0  0  0  0  0  0  0  0  0  0  0  0
  161.6300  210.1840  156.5340 C   0  0  0  0  0  2  0  0  0  0  0  0
  161.9850  208.7360  156.2460 C   0  0  0  0  0  2  0  0  0  0  0  0
  160.0340  207.8880  157.2610 O   0  0  0  0  0  0  0  0  0  0  0  0
  160.4350  207.0080  155.1210 C   0  0  0  0  0  1  0  0  0  0  0  0
  160.7590  207.8860  156.2800 C   0  0  0  0  0  0  0  0  0  0  0  0
  157.9230  214.2470  153.9220 N   0  0  0  0  0  2  0  0  0  0  0  0
  155.8790  212.9980  154.2600 C   0  0  0  0  0  2  0  0  0  0  0  0
  155.5130  214.4530  154.0560 C   0  0  0  0  0  2  0  0  0  0  0  0
  156.6740  213.8490  153.2930 C   0  0  0  0  0  3  0  0  0  0  0  0
  1  5  1  0  0  0  0
  2  7  2  0  0  0  0
  4  1  2  0  0  0  0
  4  8  1  0  0  0  0
  5  2  1  0  0  0  0
  5  9  2  0  0  0  0
  6  9  1  0  0  0  0
  6 26  1  0  0  0  0
  7  3  1  0  0  0  0
  8  6  2  0  0  0  0
  9  3  1  0  0  0  0
 10 14  1  6  0  0  0
 10 13  1  0  0  0  0
 13 15  1  6  0  0  0
 13 11  1  0  0  0  0
 14 19  2  0  0  0  0
 15  4  1  0  0  0  0
 16 15  2  0  0  0  0
 17 12  1  0  0  0  0
 17 11  2  0  0  0  0
 18 23  1  0  0  0  0
 19 16  1  0  0  0  0
 20 18  1  0  0  0  0
 21 20  1  6  0  0  0
 21 10  1  0  0  0  0
 21 17  1  0  0  0  0
 22 20  2  0  0  0  0
 23 25  1  0  0  0  0
 23 12  2  0  0  0  0
 25 24  3  0  0  0  0
 27 30  1  0  0  0  0
 27 26  1  0  0  0  0
 29 30  1  0  0  0  0
 30 28  2  0  0  0  0
 31  2  1  0  0  0  0
 33 32  1  0  0  0  0
 34 31  1  0  0  0  0
 34 33  1  0  0  0  0
 34 32  1  0  0  0  0
M  END
>  <MODEL>
8

>  <REMARK>
 VINA RESULT:      -6.8      3.291      6.071
  Name = 
  7 active torsions:
  status: ('A' for Active; 'I' for Inactive)
    1  A    between atoms: C_7  and  N_27
    2  A    between atoms: C_8  and  C_20
    3  A    between atoms: C_12  and  C_16
    4  A    between atoms: C_12  and  C_26
    5  A    between atoms: C_16  and  C_33
    6  A    between atoms: C_19  and  C_34
    7  A    between atoms: C_24  and  N_27
                            x       y       z     vdW  Elec       q    Type
                         _______ _______ _______ _____ _____    ______ ____

>  <TORSDO>
F 7

$$$$
=
 OpenBabel11042422273D

 34 39  0  0  1  0  0  0  0  0999 V2000
  161.3450  207.0800  149.0900 N   0  0  0  0  0  0  0  0  0  0  0  0
  161.4810  205.4080  147.2560 C   0  0  0  0  0  0  0  0  0  0  0  0
  161.6120  203.6300  148.5160 N   0  0  0  0  0  2  0  0  0  0  0  0
  161.3260  207.2180  150.4550 C   0  0  0  0  0  0  0  0  0  0  0  0
  161.4490  205.8390  148.5580 C   0  0  0  0  0  0  0  0  0  0  0  0
  161.5190  204.7840  150.7010 C   0  0  0  0  0  0  0  0  0  0  0  0
  161.5810  204.0580  147.2540 N   0  0  0  0  0  0  0  0  0  0  0  0
  161.4080  206.0630  151.2780 C   0  0  0  0  0  3  0  0  0  0  0  0
  161.5320  204.7140  149.3120 C   0  0  0  0  0  0  0  0  0  0  0  0
  161.4850  211.0440  151.0520 C   0  0  2  0  0  3  0  0  0  0  0  0
  161.9560  209.8960  149.0870 N   0  0  0  0  0  0  0  0  0  0  0  0
  161.3390  211.6640  147.5140 C   0  0  0  0  0  3  0  0  0  0  0  0
  162.0220  209.7380  150.5420 C   0  0  2  0  0  3  0  0  0  0  0  0
  160.7990  211.1400  152.3420 C   0  0  0  0  0  3  0  0  0  0  0  0
  161.2030  208.5660  151.0580 C   0  0  0  0  0  0  0  0  0  0  0  0
  160.4840  208.7090  152.1910 C   0  0  0  0  0  3  0  0  0  0  0  0
  161.6260  211.1200  148.8400 C   0  0  0  0  0  0  0  0  0  0  0  0
  160.4460  213.7800  148.5710 C   0  0  0  0  0  2  0  0  0  0  0  0
  160.3400  210.0110  152.8880 C   0  0  0  0  0  3  0  0  0  0  0  0
  160.6410  213.1560  149.9330 C   0  0  0  0  0  0  0  0  0  0  0  0
  161.3240  211.8640  150.0270 C   0  0  1  0  0  3  0  0  0  0  0  0
  160.2440  213.7590  150.9640 O   0  0  0  0  0  0  0  0  0  0  0  0
  160.7940  212.8850  147.3880 C   0  0  0  0  0  0  0  0  0  0  0  0
  160.3300  213.7850  145.0010 N   0  0  0  0  0  0  0  0  0  0  0  0
  160.5370  213.3830  146.0670 C   0  0  0  0  0  0  0  0  0  0  0  0
  161.5830  203.5630  151.5530 C   0  0  0  0  0  2  0  0  0  0  0  0
  160.3060  202.7550  151.4020 C   0  0  0  0  0  2  0  0  0  0  0  0
  161.5370  200.9530  150.5110 O   0  0  0  0  0  0  0  0  0  0  0  0
  159.4960  201.3290  149.4110 C   0  0  0  0  0  1  0  0  0  0  0  0
  160.5190  201.6240  150.4530 C   0  0  0  0  0  0  0  0  0  0  0  0
  161.4150  206.2030  146.0700 N   0  0  0  0  0  2  0  0  0  0  0  0
  161.2060  205.6770  143.7180 C   0  0  0  0  0  2  0  0  0  0  0  0
  160.6220  204.5280  144.5110 C   0  0  0  0  0  2  0  0  0  0  0  0
  160.4580  205.9500  145.0050 C   0  0  0  0  0  3  0  0  0  0  0  0
  1  4  1  0  0  0  0
  2  5  1  0  0  0  0
  3  9  1  0  0  0  0
  4 15  1  0  0  0  0
  4  8  2  0  0  0  0
  5  1  2  0  0  0  0
  5  9  1  0  0  0  0
  6  8  1  0  0  0  0
  6 26  1  0  0  0  0
  7  2  2  0  0  0  0
  7  3  1  0  0  0  0
  9  6  2  0  0  0  0
 10 14  1  6  0  0  0
 12 17  1  0  0  0  0
 13 11  1  6  0  0  0
 13 10  1  0  0  0  0
 13 15  1  0  0  0  0
 14 19  2  0  0  0  0
 15 16  2  0  0  0  0
 16 19  1  0  0  0  0
 17 11  2  0  0  0  0
 18 20  1  0  0  0  0
 20 21  1  0  0  0  0
 20 22  2  0  0  0  0
 21 17  1  6  0  0  0
 21 10  1  0  0  0  0
 23 12  2  0  0  0  0
 23 18  1  0  0  0  0
 24 25  3  0  0  0  0
 25 23  1  0  0  0  0
 27 26  1  0  0  0  0
 29 30  1  0  0  0  0
 30 28  2  0  0  0  0
 30 27  1  0  0  0  0
 31  2  1  0  0  0  0
 32 33  1  0  0  0  0
 32 34  1  0  0  0  0
 33 34  1  0  0  0  0
 34 31  1  0  0  0  0
M  END
>  <MODEL>
9

>  <REMARK>
 VINA RESULT:      -6.5      2.664      8.398
  Name = 
  7 active torsions:
  status: ('A' for Active; 'I' for Inactive)
    1  A    between atoms: C_7  and  N_27
    2  A    between atoms: C_8  and  C_20
    3  A    between atoms: C_12  and  C_16
    4  A    between atoms: C_12  and  C_26
    5  A    between atoms: C_16  and  C_33
    6  A    between atoms: C_19  and  C_34
    7  A    between atoms: C_24  and  N_27
                            x       y       z     vdW  Elec       q    Type
                         _______ _______ _______ _____ _____    ______ ____

>  <TORSDO>
F 7

$$$$
