=
 OpenBabel11052411313D

 59 65  0  0  1  0  0  0  0  0999 V2000
  161.4570  209.9300  152.9270 C   0  0  0  0  0  0  0  0  0  0  0  0
  161.9740  207.5270  152.3590 C   0  0  0  0  0  0  0  0  0  0  0  0
  162.5510  210.4080  152.0270 C   0  0  0  0  0  2  0  0  0  0  0  0
  162.1840  208.8060  150.2020 C   0  0  0  0  0  3  0  0  0  0  0  0
  162.3780  207.6240  151.0630 C   0  0  0  0  0  0  0  0  0  0  0  0
  160.2260  208.1260  154.0960 C   0  0  0  0  0  1  0  0  0  0  0  0
  161.2250  208.6020  153.0820 C   0  0  0  0  0  0  0  0  0  0  0  0
  162.9220  206.5510  150.4430 F   0  0  0  0  0  0  0  0  0  0  0  0
  162.2170  210.0700  150.6140 C   0  0  0  0  0  0  0  0  0  0  0  0
  161.7360  211.9750  148.8480 C   0  0  0  0  0  0  0  0  0  0  0  0
  161.9710  211.1140  149.6590 C   0  0  0  0  0  0  0  0  0  0  0  0
  161.4250  212.9980  147.8470 C   0  0  0  0  0  2  0  0  0  0  0  0
  159.9850  212.8620  147.3850 C   0  0  0  0  0  2  0  0  0  0  0  0
  158.9150  213.7980  143.8940 N   0  0  0  0  0  2  0  0  0  0  0  0
  159.8790  213.1550  145.9220 C   0  0  0  0  0  0  0  0  0  0  0  0
  158.6830  213.4450  145.2360 N   0  0  0  0  0  0  0  0  0  0  0  0
  160.8830  213.2700  145.0900 C   0  0  0  0  0  0  0  0  0  0  0  0
  162.2230  213.1000  145.4390 O   0  0  0  0  0  1  0  0  0  0  0  0
  160.3780  213.6520  143.7320 C   0  0  1  0  0  3  0  0  0  0  0  0
  157.3680  213.5210  145.8470 C   0  0  0  0  0  1  0  0  0  0  0  0
  162.3740  211.6090  141.0690 C   0  0  0  0  0  2  0  0  0  0  0  0
  159.9140  211.3960  140.5980 C   0  0  2  0  0  3  0  0  0  0  0  0
  162.0880  212.7400  142.0550 C   0  0  1  0  0  3  0  0  0  0  0  0
  162.2760  214.0930  141.3840 C   0  0  0  0  0  1  0  0  0  0  0  0
  160.6940  212.5710  142.6880 C   0  0  2  0  0  3  0  0  0  0  0  0
  159.6090  212.5160  141.6060 C   0  0  0  0  0  2  0  0  0  0  0  0
  161.3110  211.5350  139.9760 C   0  0  0  0  0  2  0  0  0  0  0  0
  158.8890  211.2320  139.6290 O   0  0  0  0  0  0  0  0  0  0  0  0
  159.4820  211.0360  138.3610 C   0  0  0  0  0  1  0  0  0  0  0  0
  160.6600  210.9700  153.6140 C   0  0  0  0  0  0  0  0  0  0  0  0
  160.9210  211.2980  154.7970 O   0  0  0  0  0  0  0  0  0  0  0  0
  159.5160  211.6310  152.9220 C   0  0  0  0  0  2  0  0  0  0  0  0
  159.0950  212.8120  153.6610 N   0  0  0  0  0  2  0  0  0  0  0  0
  158.0160  213.0010  151.5990 O   0  0  0  0  0  1  0  0  0  0  0  0
  158.4670  213.7210  152.7100 C   0  0  1  0  0  3  0  0  0  0  0  0
  156.0950  214.1650  152.6870 O   0  0  0  0  0  0  0  0  0  0  0  0
  155.1900  213.6070  153.6250 C   0  0  0  0  0  2  0  0  0  0  0  0
  155.4550  213.1110  156.0020 N   0  0  0  0  0  2  0  0  0  0  0  0
  155.9170  213.5640  154.8870 C   0  0  0  0  0  0  0  0  0  0  0  0
  157.1650  214.0640  154.7270 O   0  0  0  0  0  0  0  0  0  0  0  0
  157.3050  214.4530  153.3740 C   0  0  1  0  0  3  0  0  0  0  0  0
  162.1710  206.3380  153.0870 O   0  0  0  0  0  0  0  0  0  0  0  0
  162.5570  205.1790  152.5320 O   0  0  0  0  0  0  0  0  0  0  0  0
  161.3740  204.4820  152.2660 C   0  0  0  0  0  2  0  0  0  0  0  0
  161.2150  202.2780  151.3290 O   0  0  0  0  0  1  0  0  0  0  0  0
  161.5330  203.6060  151.0290 C   0  0  1  0  0  3  0  0  0  0  0  0
  160.9260  205.3360  147.8520 C   0  0  2  0  0  0  0  0  0  0  0  0
  163.3480  204.3350  145.0410 C   0  0  0  0  0  2  0  0  0  0  0  0
  162.2600  207.0720  146.8460 O   0  0  0  0  0  0  0  0  0  0  0  0
  161.2810  205.3870  149.3000 C   0  0  0  0  0  2  0  0  0  0  0  0
  162.0800  205.8720  147.0020 C   0  0  0  0  0  0  0  0  0  0  0  0
  160.6920  204.1150  149.8600 C   0  0  1  0  0  3  0  0  0  0  0  0
  161.9800  204.0900  145.5960 C   0  0  1  0  0  3  0  0  0  0  0  0
  160.6070  203.1450  148.8440 O   0  0  0  0  0  0  0  0  0  0  0  0
  159.6650  206.1470  147.6040 C   0  0  0  0  0  1  0  0  0  0  0  0
  161.4990  203.0730  146.6070 C   0  0  0  0  0  2  0  0  0  0  0  0
  163.0290  204.8790  146.4190 C   0  0  1  0  0  0  0  0  0  0  0  0
  163.7080  204.1490  147.3860 F   0  0  0  0  0  0  0  0  0  0  0  0
  160.6010  203.8310  147.6180 C   0  0  2  0  0  3  0  0  0  0  0  0
  1  7  2  0  0  0  0
  1 30  1  0  0  0  0
  2  7  1  0  0  0  0
  2 42  1  0  0  0  0
  3  1  1  0  0  0  0
  4  9  2  0  0  0  0
  4  5  1  0  0  0  0
  5  2  2  0  0  0  0
  7  6  1  0  0  0  0
  8  5  1  0  0  0  0
  9  3  1  0  0  0  0
 10 11  3  0  0  0  0
 11  9  1  0  0  0  0
 12 10  1  0  0  0  0
 13 12  1  0  0  0  0
 14 16  1  0  0  0  0
 15 13  1  0  0  0  0
 16 20  1  0  0  0  0
 16 15  1  0  0  0  0
 17 18  1  0  0  0  0
 17 15  2  0  0  0  0
 19 14  1  1  0  0  0
 19 17  1  0  0  0  0
 21 23  1  0  0  0  0
 22 28  1  6  0  0  0
 22 26  1  0  0  0  0
 23 24  1  6  0  0  0
 23 25  1  0  0  0  0
 25 26  1  6  0  0  0
 25 19  1  0  0  0  0
 27 22  1  0  0  0  0
 27 21  1  0  0  0  0
 29 28  1  0  0  0  0
 30 31  2  0  0  0  0
 32 30  1  0  0  0  0
 32 33  1  0  0  0  0
 35 34  1  6  0  0  0
 35 33  1  0  0  0  0
 36 41  1  0  0  0  0
 36 37  1  0  0  0  0
 37 39  1  0  0  0  0
 39 38  2  0  0  0  0
 40 39  1  0  0  0  0
 41 35  1  6  0  0  0
 41 40  1  0  0  0  0
 43 42  1  0  0  0  0
 44 43  1  0  0  0  0
 46 45  1  1  0  0  0
 46 44  1  0  0  0  0
 47 55  1  6  0  0  0
 47 50  1  0  0  0  0
 48 57  1  0  0  0  0
 49 51  2  0  0  0  0
 50 52  1  0  0  0  0
 51 47  1  0  0  0  0
 52 46  1  1  0  0  0
 53 48  1  6  0  0  0
 53 57  1  0  0  0  0
 53 56  1  0  0  0  0
 54 52  1  0  0  0  0
 57 51  1  0  0  0  0
 57 58  1  1  0  0  0
 59 56  1  6  0  0  0
 59 47  1  0  0  0  0
 59 54  1  0  0  0  0
M  END
>  <MODEL>
1

>  <REMARK>
 VINA RESULT:      -6.5      0.000      0.000
  Name = 
  16 active torsions:
  status: ('A' for Active; 'I' for Inactive)
    1  A    between atoms: C_1  and  C_18
    2  A    between atoms: C_3  and  C_46
    3  A    between atoms: O_4  and  C_34
    4  A    between atoms: O_4  and  O_50
    5  A    between atoms: C_6  and  O_50
    6  A    between atoms: N_9  and  C_27
    7  A    between atoms: N_9  and  C_32
    8  A    between atoms: C_14  and  C_26
    9  A    between atoms: C_15  and  O_42
   10  A    between atoms: C_18  and  C_27
   11  A    between atoms: C_23  and  C_25
   12  A    between atoms: C_25  and  C_34
   13  A    between atoms: C_26  and  C_46
   14  A    between atoms: C_32  and  C_38
   15  A    between atoms: C_33  and  C_49
   16  A    between atoms: C_56  and  C_59
                            x       y       z     vdW  Elec       q    Type
                         _______ _______ _______ _____ _____    ______ ____

>  <TORSDO>
F 16

$$$$
=
 OpenBabel11052411313D

 59 65  0  0  1  0  0  0  0  0999 V2000
  161.7270  209.3070  151.6870 C   0  0  0  0  0  0  0  0  0  0  0  0
  161.8220  207.1120  150.4480 C   0  0  0  0  0  0  0  0  0  0  0  0
  162.7230  209.9130  150.7500 C   0  0  0  0  0  2  0  0  0  0  0  0
  161.8660  208.9050  148.6820 C   0  0  0  0  0  3  0  0  0  0  0  0
  162.0300  207.5210  149.1660 C   0  0  0  0  0  0  0  0  0  0  0  0
  160.4600  207.3710  152.5710 C   0  0  0  0  0  1  0  0  0  0  0  0
  161.3450  208.0140  151.5430 C   0  0  0  0  0  0  0  0  0  0  0  0
  162.3220  206.6120  148.2060 F   0  0  0  0  0  0  0  0  0  0  0  0
  162.1330  210.0020  149.3850 C   0  0  0  0  0  0  0  0  0  0  0  0
  161.6480  212.3470  148.2690 C   0  0  0  0  0  0  0  0  0  0  0  0
  161.8850  211.2830  148.7860 C   0  0  0  0  0  0  0  0  0  0  0  0
  161.3360  213.6210  147.6190 C   0  0  0  0  0  2  0  0  0  0  0  0
  159.9010  213.6210  147.1220 C   0  0  0  0  0  2  0  0  0  0  0  0
  159.0350  214.3700  143.5300 N   0  0  0  0  0  2  0  0  0  0  0  0
  159.8660  213.7970  145.6360 C   0  0  0  0  0  0  0  0  0  0  0  0
  158.7300  214.1640  144.8890 N   0  0  0  0  0  0  0  0  0  0  0  0
  160.8970  213.7220  144.8330 C   0  0  0  0  0  0  0  0  0  0  0  0
  162.1980  213.4280  145.2400 O   0  0  0  0  0  1  0  0  0  0  0  0
  160.4730  214.0410  143.4320 C   0  0  1  0  0  3  0  0  0  0  0  0
  157.4190  214.4450  145.4460 C   0  0  0  0  0  1  0  0  0  0  0  0
  162.3040  211.4840  141.1150 C   0  0  0  0  0  2  0  0  0  0  0  0
  159.8980  211.6640  140.4080 C   0  0  2  0  0  3  0  0  0  0  0  0
  162.1370  212.7200  141.9970 C   0  0  1  0  0  3  0  0  0  0  0  0
  162.6240  213.9650  141.2690 C   0  0  0  0  0  1  0  0  0  0  0  0
  160.6830  212.8440  142.4920 C   0  0  2  0  0  3  0  0  0  0  0  0
  159.7100  212.8940  141.3100 C   0  0  0  0  0  2  0  0  0  0  0  0
  161.3480  211.5110  139.9260 C   0  0  0  0  0  2  0  0  0  0  0  0
  158.9530  211.6050  139.3500 O   0  0  0  0  0  0  0  0  0  0  0  0
  158.5040  210.2720  139.2070 C   0  0  0  0  0  1  0  0  0  0  0  0
  161.1930  210.1890  152.7500 C   0  0  0  0  0  0  0  0  0  0  0  0
  161.7050  210.1910  153.8950 O   0  0  0  0  0  0  0  0  0  0  0  0
  160.0230  211.0740  152.4840 C   0  0  0  0  0  2  0  0  0  0  0  0
  159.9220  212.0980  153.5140 N   0  0  0  0  0  2  0  0  0  0  0  0
  158.3940  212.7120  151.8590 O   0  0  0  0  0  1  0  0  0  0  0  0
  159.0870  213.1690  152.9850 C   0  0  1  0  0  3  0  0  0  0  0  0
  156.7920  213.2260  153.7260 O   0  0  0  0  0  0  0  0  0  0  0  0
  156.3050  212.4540  154.8110 C   0  0  0  0  0  2  0  0  0  0  0  0
  157.3620  211.8120  156.9170 N   0  0  0  0  0  2  0  0  0  0  0  0
  157.3900  212.4240  155.7830 C   0  0  0  0  0  0  0  0  0  0  0  0
  158.4500  213.1300  155.3240 O   0  0  0  0  0  0  0  0  0  0  0  0
  158.1080  213.6470  154.0520 C   0  0  1  0  0  3  0  0  0  0  0  0
  161.9670  205.7580  150.8040 O   0  0  0  0  0  0  0  0  0  0  0  0
  162.1300  204.7660  149.9140 O   0  0  0  0  0  0  0  0  0  0  0  0
  160.8400  204.3100  149.6270 C   0  0  0  0  0  2  0  0  0  0  0  0
  159.5310  202.3290  149.9880 O   0  0  0  0  0  1  0  0  0  0  0  0
  160.7990  202.7860  149.6160 C   0  0  1  0  0  3  0  0  0  0  0  0
  160.7630  202.5210  145.9570 C   0  0  2  0  0  0  0  0  0  0  0  0
  161.2180  205.8790  144.1440 C   0  0  0  0  0  2  0  0  0  0  0  0
  159.0210  203.2300  144.4500 O   0  0  0  0  0  0  0  0  0  0  0  0
  160.0710  202.3510  147.2680 C   0  0  0  0  0  2  0  0  0  0  0  0
  160.0170  203.5390  145.0920 C   0  0  0  0  0  0  0  0  0  0  0  0
  161.2040  202.2170  148.2580 C   0  0  1  0  0  3  0  0  0  0  0  0
  161.9370  204.6470  144.5970 C   0  0  1  0  0  3  0  0  0  0  0  0
  162.3470  202.8720  147.7600 O   0  0  0  0  0  0  0  0  0  0  0  0
  160.8470  201.1810  145.2450 C   0  0  0  0  0  1  0  0  0  0  0  0
  162.6670  204.3560  145.8890 C   0  0  0  0  0  2  0  0  0  0  0  0
  160.5060  204.9480  145.1050 C   0  0  1  0  0  0  0  0  0  0  0  0
  160.4240  205.5360  146.3610 F   0  0  0  0  0  0  0  0  0  0  0  0
  162.2010  202.9560  146.3660 C   0  0  2  0  0  3  0  0  0  0  0  0
  1 30  1  0  0  0  0
  2 42  1  0  0  0  0
  2  7  1  0  0  0  0
  3  1  1  0  0  0  0
  4  5  1  0  0  0  0
  4  9  2  0  0  0  0
  5  2  2  0  0  0  0
  7  1  2  0  0  0  0
  7  6  1  0  0  0  0
  8  5  1  0  0  0  0
  9  3  1  0  0  0  0
 10 11  3  0  0  0  0
 11  9  1  0  0  0  0
 12 10  1  0  0  0  0
 13 12  1  0  0  0  0
 14 16  1  0  0  0  0
 15 13  1  0  0  0  0
 16 20  1  0  0  0  0
 16 15  1  0  0  0  0
 17 18  1  0  0  0  0
 17 15  2  0  0  0  0
 19 14  1  1  0  0  0
 19 17  1  0  0  0  0
 21 23  1  0  0  0  0
 22 28  1  6  0  0  0
 22 26  1  0  0  0  0
 23 24  1  6  0  0  0
 23 25  1  0  0  0  0
 25 26  1  6  0  0  0
 25 19  1  0  0  0  0
 27 22  1  0  0  0  0
 27 21  1  0  0  0  0
 29 28  1  0  0  0  0
 30 31  2  0  0  0  0
 32 30  1  0  0  0  0
 32 33  1  0  0  0  0
 35 34  1  6  0  0  0
 35 33  1  0  0  0  0
 36 41  1  0  0  0  0
 36 37  1  0  0  0  0
 37 39  1  0  0  0  0
 39 38  2  0  0  0  0
 40 39  1  0  0  0  0
 41 35  1  6  0  0  0
 41 40  1  0  0  0  0
 43 42  1  0  0  0  0
 44 43  1  0  0  0  0
 46 44  1  0  0  0  0
 46 45  1  6  0  0  0
 47 55  1  6  0  0  0
 47 59  1  0  0  0  0
 47 50  1  0  0  0  0
 48 57  1  0  0  0  0
 49 51  2  0  0  0  0
 50 52  1  0  0  0  0
 51 57  1  0  0  0  0
 51 47  1  0  0  0  0
 52 46  1  1  0  0  0
 53 48  1  1  0  0  0
 53 57  1  0  0  0  0
 53 56  1  0  0  0  0
 54 52  1  0  0  0  0
 57 58  1  1  0  0  0
 59 56  1  1  0  0  0
 59 54  1  0  0  0  0
M  END
>  <MODEL>
2

>  <REMARK>
 VINA RESULT:      -5.9      1.514      2.035
  Name = 
  16 active torsions:
  status: ('A' for Active; 'I' for Inactive)
    1  A    between atoms: C_1  and  C_18
    2  A    between atoms: C_3  and  C_46
    3  A    between atoms: O_4  and  C_34
    4  A    between atoms: O_4  and  O_50
    5  A    between atoms: C_6  and  O_50
    6  A    between atoms: N_9  and  C_27
    7  A    between atoms: N_9  and  C_32
    8  A    between atoms: C_14  and  C_26
    9  A    between atoms: C_15  and  O_42
   10  A    between atoms: C_18  and  C_27
   11  A    between atoms: C_23  and  C_25
   12  A    between atoms: C_25  and  C_34
   13  A    between atoms: C_26  and  C_46
   14  A    between atoms: C_32  and  C_38
   15  A    between atoms: C_33  and  C_49
   16  A    between atoms: C_56  and  C_59
                            x       y       z     vdW  Elec       q    Type
                         _______ _______ _______ _____ _____    ______ ____

>  <TORSDO>
F 16

$$$$
=
 OpenBabel11052411313D

 59 65  0  0  1  0  0  0  0  0999 V2000
  161.6780  209.8660  152.4150 C   0  0  0  0  0  0  0  0  0  0  0  0
  160.6140  210.5820  154.5870 C   0  0  0  0  0  0  0  0  0  0  0  0
  162.3620  208.7220  153.0940 C   0  0  0  0  0  2  0  0  0  0  0  0
  160.5040  208.0680  154.5600 C   0  0  0  0  0  3  0  0  0  0  0  0
  160.4170  209.3890  155.2120 C   0  0  0  0  0  0  0  0  0  0  0  0
  160.3360  211.9470  152.4690 C   0  0  0  0  0  1  0  0  0  0  0  0
  160.8990  210.7210  153.1250 C   0  0  0  0  0  0  0  0  0  0  0  0
  160.0220  209.3610  156.5060 F   0  0  0  0  0  0  0  0  0  0  0  0
  161.3420  207.7490  153.5780 C   0  0  0  0  0  0  0  0  0  0  0  0
  161.1980  205.3260  152.5360 C   0  0  0  0  0  0  0  0  0  0  0  0
  161.2800  206.4280  153.0190 C   0  0  0  0  0  0  0  0  0  0  0  0
  161.0610  203.9940  151.9440 C   0  0  0  0  0  2  0  0  0  0  0  0
  160.1710  204.0520  150.7150 C   0  0  0  0  0  2  0  0  0  0  0  0
  162.0270  205.9510  148.0400 N   0  0  0  0  0  2  0  0  0  0  0  0
  160.9590  204.4980  149.5240 C   0  0  0  0  0  0  0  0  0  0  0  0
  161.1360  205.8370  149.1230 N   0  0  0  0  0  0  0  0  0  0  0  0
  161.6640  203.7230  148.7400 C   0  0  0  0  0  0  0  0  0  0  0  0
  161.7630  202.3390  148.8750 O   0  0  0  0  0  1  0  0  0  0  0  0
  162.3770  204.5520  147.7140 C   0  0  1  0  0  3  0  0  0  0  0  0
  160.5950  206.9940  149.8140 C   0  0  0  0  0  1  0  0  0  0  0  0
  161.0690  205.0480  144.0670 C   0  0  0  0  0  2  0  0  0  0  0  0
  160.4060  202.7630  144.8780 C   0  0  2  0  0  3  0  0  0  0  0  0
  161.4600  205.4400  145.4910 C   0  0  1  0  0  3  0  0  0  0  0  0
  160.3260  206.1980  146.1660 C   0  0  0  0  0  1  0  0  0  0  0  0
  161.9170  204.2050  146.2900 C   0  0  2  0  0  3  0  0  0  0  0  0
  160.8200  203.1350  146.3110 C   0  0  0  0  0  2  0  0  0  0  0  0
  159.9720  203.9870  144.0590 C   0  0  0  0  0  2  0  0  0  0  0  0
  159.4630  201.7030  144.8330 O   0  0  0  0  0  0  0  0  0  0  0  0
  160.1340  200.4790  145.0590 C   0  0  0  0  0  1  0  0  0  0  0  0
  161.8950  210.0000  150.9570 C   0  0  0  0  0  0  0  0  0  0  0  0
  161.8640  208.9910  150.2120 O   0  0  0  0  0  0  0  0  0  0  0  0
  162.1790  211.3320  150.3510 C   0  0  0  0  0  2  0  0  0  0  0  0
  161.7760  211.3450  148.9520 N   0  0  0  0  0  2  0  0  0  0  0  0
  163.5470  212.0820  147.6210 O   0  0  0  0  0  1  0  0  0  0  0  0
  162.4120  212.4970  148.3250 C   0  0  1  0  0  3  0  0  0  0  0  0
  160.7570  212.2270  146.5910 O   0  0  0  0  0  0  0  0  0  0  0  0
  159.3650  212.3840  146.8130 C   0  0  0  0  0  2  0  0  0  0  0  0
  158.1400  213.9210  148.2630 N   0  0  0  0  0  2  0  0  0  0  0  0
  159.2460  213.4670  147.7800 C   0  0  0  0  0  0  0  0  0  0  0  0
  160.4720  213.9350  148.1130 O   0  0  0  0  0  0  0  0  0  0  0  0
  161.4310  213.1910  147.3860 C   0  0  1  0  0  3  0  0  0  0  0  0
  160.4690  211.7940  155.2890 O   0  0  0  0  0  0  0  0  0  0  0  0
  160.8540  211.9680  156.5630 O   0  0  0  0  0  0  0  0  0  0  0  0
  159.6880  212.3010  157.2600 C   0  0  0  0  0  2  0  0  0  0  0  0
  160.5020  214.4500  156.5620 O   0  0  0  0  0  1  0  0  0  0  0  0
  159.4420  213.8050  157.2070 C   0  0  1  0  0  3  0  0  0  0  0  0
  156.6480  213.2950  154.8860 C   0  0  2  0  0  0  0  0  0  0  0  0
  155.1420  209.7620  155.0080 C   0  0  0  0  0  2  0  0  0  0  0  0
  156.6450  212.0030  152.8520 O   0  0  0  0  0  0  0  0  0  0  0  0
  158.0870  213.6130  155.1210 C   0  0  0  0  0  2  0  0  0  0  0  0
  156.5160  212.0080  154.0680 C   0  0  0  0  0  0  0  0  0  0  0  0
  158.1130  214.1400  156.5350 C   0  0  1  0  0  3  0  0  0  0  0  0
  154.9650  211.1650  155.4980 C   0  0  1  0  0  3  0  0  0  0  0  0
  157.0340  213.6000  157.2610 O   0  0  0  0  0  0  0  0  0  0  0  0
  155.9800  214.4530  154.1630 C   0  0  0  0  0  1  0  0  0  0  0  0
  155.4720  211.8380  156.7530 C   0  0  0  0  0  2  0  0  0  0  0  0
  156.2860  210.7360  154.8140 C   0  0  1  0  0  0  0  0  0  0  0  0
  157.3310  210.4170  155.6710 F   0  0  0  0  0  0  0  0  0  0  0  0
  156.0630  213.2060  156.3260 C   0  0  2  0  0  3  0  0  0  0  0  0
  1  3  1  0  0  0  0
  1  7  2  0  0  0  0
  2  5  2  0  0  0  0
  2 42  1  0  0  0  0
  3  9  1  0  0  0  0
  4  5  1  0  0  0  0
  5  8  1  0  0  0  0
  6  7  1  0  0  0  0
  7  2  1  0  0  0  0
  9  4  2  0  0  0  0
 10 11  3  0  0  0  0
 11  9  1  0  0  0  0
 12 10  1  0  0  0  0
 13 12  1  0  0  0  0
 14 16  1  0  0  0  0
 15 13  1  0  0  0  0
 16 15  1  0  0  0  0
 16 20  1  0  0  0  0
 17 18  1  0  0  0  0
 17 15  2  0  0  0  0
 19 14  1  1  0  0  0
 19 17  1  0  0  0  0
 21 23  1  0  0  0  0
 22 28  1  1  0  0  0
 22 26  1  0  0  0  0
 23 24  1  1  0  0  0
 23 25  1  0  0  0  0
 25 26  1  1  0  0  0
 25 19  1  0  0  0  0
 27 21  1  0  0  0  0
 27 22  1  0  0  0  0
 28 29  1  0  0  0  0
 30  1  1  0  0  0  0
 31 30  2  0  0  0  0
 32 30  1  0  0  0  0
 33 32  1  0  0  0  0
 35 34  1  6  0  0  0
 35 33  1  0  0  0  0
 36 37  1  0  0  0  0
 36 41  1  0  0  0  0
 37 39  1  0  0  0  0
 39 40  1  0  0  0  0
 39 38  2  0  0  0  0
 41 40  1  0  0  0  0
 41 35  1  1  0  0  0
 42 43  1  0  0  0  0
 43 44  1  0  0  0  0
 46 45  1  6  0  0  0
 46 44  1  0  0  0  0
 47 55  1  6  0  0  0
 47 50  1  0  0  0  0
 47 59  1  0  0  0  0
 49 51  2  0  0  0  0
 50 52  1  0  0  0  0
 51 57  1  0  0  0  0
 51 47  1  0  0  0  0
 52 46  1  1  0  0  0
 52 54  1  0  0  0  0
 53 48  1  1  0  0  0
 53 56  1  0  0  0  0
 57 48  1  0  0  0  0
 57 53  1  0  0  0  0
 57 58  1  1  0  0  0
 59 56  1  1  0  0  0
 59 54  1  0  0  0  0
M  END
>  <MODEL>
3

>  <REMARK>
 VINA RESULT:      -4.9      3.745      9.212
  Name = 
  16 active torsions:
  status: ('A' for Active; 'I' for Inactive)
    1  A    between atoms: C_1  and  C_18
    2  A    between atoms: C_3  and  C_46
    3  A    between atoms: O_4  and  C_34
    4  A    between atoms: O_4  and  O_50
    5  A    between atoms: C_6  and  O_50
    6  A    between atoms: N_9  and  C_27
    7  A    between atoms: N_9  and  C_32
    8  A    between atoms: C_14  and  C_26
    9  A    between atoms: C_15  and  O_42
   10  A    between atoms: C_18  and  C_27
   11  A    between atoms: C_23  and  C_25
   12  A    between atoms: C_25  and  C_34
   13  A    between atoms: C_26  and  C_46
   14  A    between atoms: C_32  and  C_38
   15  A    between atoms: C_33  and  C_49
   16  A    between atoms: C_56  and  C_59
                            x       y       z     vdW  Elec       q    Type
                         _______ _______ _______ _____ _____    ______ ____

>  <TORSDO>
F 16

$$$$
=
 OpenBabel11052411313D

 59 65  0  0  1  0  0  0  0  0999 V2000
  161.4190  208.6540  151.5310 C   0  0  0  0  0  0  0  0  0  0  0  0
  161.1180  206.1540  151.3720 C   0  0  0  0  0  0  0  0  0  0  0  0
  160.4740  208.7240  152.6870 C   0  0  0  0  0  2  0  0  0  0  0  0
  161.2210  206.6830  153.8310 C   0  0  0  0  0  3  0  0  0  0  0  0
  160.9380  205.8090  152.6770 C   0  0  0  0  0  0  0  0  0  0  0  0
  162.5140  207.4250  149.6800 C   0  0  0  0  0  1  0  0  0  0  0  0
  161.6820  207.4670  150.9280 C   0  0  0  0  0  0  0  0  0  0  0  0
  160.5580  204.5500  152.9950 F   0  0  0  0  0  0  0  0  0  0  0  0
  161.0590  208.0030  153.8530 C   0  0  0  0  0  0  0  0  0  0  0  0
  161.7010  209.3540  156.0310 C   0  0  0  0  0  0  0  0  0  0  0  0
  161.4160  208.7220  155.0440 C   0  0  0  0  0  0  0  0  0  0  0  0
  162.0370  210.1530  157.2110 C   0  0  0  0  0  2  0  0  0  0  0  0
  161.8700  211.6320  156.9120 C   0  0  0  0  0  2  0  0  0  0  0  0
  158.1190  211.7730  157.2600 N   0  0  0  0  0  2  0  0  0  0  0  0
  160.4240  212.0120  156.9670 C   0  0  0  0  0  0  0  0  0  0  0  0
  159.3520  211.1100  157.1180 N   0  0  0  0  0  0  0  0  0  0  0  0
  159.9540  213.2340  156.9730 C   0  0  0  0  0  0  0  0  0  0  0  0
  160.7390  214.3850  156.8920 O   0  0  0  0  0  1  0  0  0  0  0  0
  158.4630  213.2050  157.1240 C   0  0  1  0  0  3  0  0  0  0  0  0
  159.4860  209.6710  157.2590 C   0  0  0  0  0  1  0  0  0  0  0  0
  155.5780  214.4520  154.8060 C   0  0  0  0  0  2  0  0  0  0  0  0
  157.5380  213.7660  153.3890 C   0  0  2  0  0  3  0  0  0  0  0  0
  156.2250  213.7890  156.0210 C   0  0  1  0  0  3  0  0  0  0  0  0
  155.6630  212.3900  156.2270 C   0  0  0  0  0  1  0  0  0  0  0  0
  157.7600  213.8090  155.8990 C   0  0  2  0  0  3  0  0  0  0  0  0
  158.2110  213.1170  154.6080 C   0  0  0  0  0  2  0  0  0  0  0  0
  156.0070  213.7780  153.5050 C   0  0  0  0  0  2  0  0  0  0  0  0
  157.9950  213.2310  152.1550 O   0  0  0  0  0  0  0  0  0  0  0  0
  158.7760  212.0810  152.4130 C   0  0  0  0  0  1  0  0  0  0  0  0
  162.0380  209.9280  151.1010 C   0  0  0  0  0  0  0  0  0  0  0  0
  163.1020  210.3310  151.6290 O   0  0  0  0  0  0  0  0  0  0  0  0
  161.3950  210.7670  150.0490 C   0  0  0  0  0  2  0  0  0  0  0  0
  162.2760  210.8940  148.8980 N   0  0  0  0  0  2  0  0  0  0  0  0
  163.2360  212.6450  147.6890 O   0  0  0  0  0  1  0  0  0  0  0  0
  162.0690  212.2220  148.3340 C   0  0  1  0  0  3  0  0  0  0  0  0
  159.8350  212.9950  147.8530 O   0  0  0  0  0  0  0  0  0  0  0  0
  159.5470  213.9870  146.8800 C   0  0  0  0  0  2  0  0  0  0  0  0
  160.5780  214.4490  144.7140 N   0  0  0  0  0  2  0  0  0  0  0  0
  160.4940  213.7530  145.7970 C   0  0  0  0  0  0  0  0  0  0  0  0
  161.2890  212.6970  146.0880 O   0  0  0  0  0  0  0  0  0  0  0  0
  160.9000  212.1990  147.3550 C   0  0  1  0  0  3  0  0  0  0  0  0
  160.8560  205.2330  150.3410 O   0  0  0  0  0  0  0  0  0  0  0  0
  161.1110  203.9180  150.4330 O   0  0  0  0  0  0  0  0  0  0  0  0
  160.4070  203.3300  149.3770 C   0  0  0  0  0  2  0  0  0  0  0  0
  160.0400  200.9900  149.7730 O   0  0  0  0  0  1  0  0  0  0  0  0
  160.8890  201.9030  149.1390 C   0  0  1  0  0  3  0  0  0  0  0  0
  160.3190  202.4190  145.5530 C   0  0  2  0  0  0  0  0  0  0  0  0
  161.0430  205.9980  144.3560 C   0  0  0  0  0  2  0  0  0  0  0  0
  158.5220  203.6420  144.5110 O   0  0  0  0  0  0  0  0  0  0  0  0
  159.7930  202.0660  146.9030 C   0  0  0  0  0  2  0  0  0  0  0  0
  159.6310  203.6810  145.0280 C   0  0  0  0  0  0  0  0  0  0  0  0
  161.0140  201.5860  147.6510 C   0  0  1  0  0  3  0  0  0  0  0  0
  161.6160  204.6190  144.4440 C   0  0  1  0  0  3  0  0  0  0  0  0
  162.1660  202.1820  147.1060 O   0  0  0  0  0  0  0  0  0  0  0  0
  160.0960  201.2580  144.5970 C   0  0  0  0  0  1  0  0  0  0  0  0
  162.4590  203.9730  145.5210 C   0  0  0  0  0  2  0  0  0  0  0  0
  160.3310  204.9840  145.2270 C   0  0  1  0  0  0  0  0  0  0  0  0
  160.5120  205.3000  146.5670 F   0  0  0  0  0  0  0  0  0  0  0  0
  161.8490  202.5750  145.7960 C   0  0  2  0  0  3  0  0  0  0  0  0
  1  3  1  0  0  0  0
  2  5  2  0  0  0  0
  3  9  1  0  0  0  0
  4  9  2  0  0  0  0
  5  8  1  0  0  0  0
  5  4  1  0  0  0  0
  6  7  1  0  0  0  0
  7  2  1  0  0  0  0
  7  1  2  0  0  0  0
  9 11  1  0  0  0  0
 10 12  1  0  0  0  0
 11 10  3  0  0  0  0
 13 15  1  0  0  0  0
 13 12  1  0  0  0  0
 15 17  2  0  0  0  0
 15 16  1  0  0  0  0
 16 20  1  0  0  0  0
 16 14  1  0  0  0  0
 18 17  1  0  0  0  0
 19 17  1  6  0  0  0
 19 14  1  0  0  0  0
 21 23  1  0  0  0  0
 22 28  1  6  0  0  0
 22 27  1  0  0  0  0
 22 26  1  0  0  0  0
 23 24  1  6  0  0  0
 25 26  1  6  0  0  0
 25 23  1  0  0  0  0
 25 19  1  0  0  0  0
 27 21  1  0  0  0  0
 28 29  1  0  0  0  0
 30  1  1  0  0  0  0
 30 31  2  0  0  0  0
 32 30  1  0  0  0  0
 33 32  1  0  0  0  0
 35 34  1  6  0  0  0
 35 33  1  0  0  0  0
 37 36  1  0  0  0  0
 38 39  2  0  0  0  0
 39 40  1  0  0  0  0
 39 37  1  0  0  0  0
 40 41  1  0  0  0  0
 41 36  1  0  0  0  0
 41 35  1  1  0  0  0
 42 43  1  0  0  0  0
 42  2  1  0  0  0  0
 44 43  1  0  0  0  0
 46 44  1  0  0  0  0
 46 45  1  6  0  0  0
 47 55  1  6  0  0  0
 47 59  1  0  0  0  0
 47 50  1  0  0  0  0
 48 57  1  0  0  0  0
 49 51  2  0  0  0  0
 50 52  1  0  0  0  0
 51 57  1  0  0  0  0
 51 47  1  0  0  0  0
 52 46  1  1  0  0  0
 53 48  1  1  0  0  0
 53 57  1  0  0  0  0
 53 56  1  0  0  0  0
 54 52  1  0  0  0  0
 57 58  1  1  0  0  0
 59 56  1  1  0  0  0
 59 54  1  0  0  0  0
M  END
>  <MODEL>
4

>  <REMARK>
 VINA RESULT:      -4.4      2.903      8.413
  Name = 
  16 active torsions:
  status: ('A' for Active; 'I' for Inactive)
    1  A    between atoms: C_1  and  C_18
    2  A    between atoms: C_3  and  C_46
    3  A    between atoms: O_4  and  C_34
    4  A    between atoms: O_4  and  O_50
    5  A    between atoms: C_6  and  O_50
    6  A    between atoms: N_9  and  C_27
    7  A    between atoms: N_9  and  C_32
    8  A    between atoms: C_14  and  C_26
    9  A    between atoms: C_15  and  O_42
   10  A    between atoms: C_18  and  C_27
   11  A    between atoms: C_23  and  C_25
   12  A    between atoms: C_25  and  C_34
   13  A    between atoms: C_26  and  C_46
   14  A    between atoms: C_32  and  C_38
   15  A    between atoms: C_33  and  C_49
   16  A    between atoms: C_56  and  C_59
                            x       y       z     vdW  Elec       q    Type
                         _______ _______ _______ _____ _____    ______ ____

>  <TORSDO>
F 16

$$$$
=
 OpenBabel11052411313D

 59 65  0  0  1  0  0  0  0  0999 V2000
  161.6990  208.0780  152.4690 C   0  0  0  0  0  0  0  0  0  0  0  0
  161.3610  205.9180  151.2110 C   0  0  0  0  0  0  0  0  0  0  0  0
  162.6780  208.5550  151.4450 C   0  0  0  0  0  2  0  0  0  0  0  0
  161.4920  207.7230  149.4620 C   0  0  0  0  0  3  0  0  0  0  0  0
  161.5010  206.3200  149.9180 C   0  0  0  0  0  0  0  0  0  0  0  0
  160.2590  206.3220  153.4580 C   0  0  0  0  0  1  0  0  0  0  0  0
  161.1250  206.8540  152.3540 C   0  0  0  0  0  0  0  0  0  0  0  0
  161.5680  205.4000  148.9280 F   0  0  0  0  0  0  0  0  0  0  0  0
  161.9790  208.7560  150.1440 C   0  0  0  0  0  0  0  0  0  0  0  0
  161.7750  211.1900  149.1370 C   0  0  0  0  0  0  0  0  0  0  0  0
  161.8610  210.0720  149.5810 C   0  0  0  0  0  0  0  0  0  0  0  0
  161.6790  212.5610  148.6320 C   0  0  0  0  0  2  0  0  0  0  0  0
  160.2360  213.0330  148.6600 C   0  0  0  0  0  2  0  0  0  0  0  0
  158.3150  213.9240  145.5410 N   0  0  0  0  0  2  0  0  0  0  0  0
  159.7800  213.3880  147.2800 C   0  0  0  0  0  0  0  0  0  0  0  0
  158.4360  213.4410  146.8570 N   0  0  0  0  0  0  0  0  0  0  0  0
  160.5490  213.7840  146.2980 C   0  0  0  0  0  0  0  0  0  0  0  0
  161.9370  213.9040  146.3780 O   0  0  0  0  0  1  0  0  0  0  0  0
  159.7120  214.1280  145.1030 C   0  0  1  0  0  3  0  0  0  0  0  0
  157.2850  213.1730  147.7010 C   0  0  0  0  0  1  0  0  0  0  0  0
  161.8130  212.0940  142.5140 C   0  0  0  0  0  2  0  0  0  0  0  0
  159.6320  212.7660  141.4610 C   0  0  2  0  0  3  0  0  0  0  0  0
  161.5480  213.0520  143.6740 C   0  0  1  0  0  3  0  0  0  0  0  0
  162.2640  214.3760  143.4480 C   0  0  0  0  0  1  0  0  0  0  0  0
  160.0350  213.2190  143.9080 C   0  0  2  0  0  3  0  0  0  0  0  0
  159.3400  213.7150  142.6350 C   0  0  0  0  0  2  0  0  0  0  0  0
  161.1370  212.5680  141.2310 C   0  0  0  0  0  2  0  0  0  0  0  0
  158.9310  213.1210  140.2780 O   0  0  0  0  0  0  0  0  0  0  0  0
  159.6250  212.6030  139.1600 C   0  0  0  0  0  1  0  0  0  0  0  0
  161.4010  209.0030  153.5850 C   0  0  0  0  0  0  0  0  0  0  0  0
  161.3310  208.5810  154.7650 O   0  0  0  0  0  0  0  0  0  0  0  0
  161.1560  210.4510  153.3250 C   0  0  0  0  0  2  0  0  0  0  0  0
  159.7320  210.6950  153.1450 N   0  0  0  0  0  2  0  0  0  0  0  0
  160.2730  211.4410  155.2910 O   0  0  0  0  0  1  0  0  0  0  0  0
  159.2130  211.2000  154.4100 C   0  0  1  0  0  3  0  0  0  0  0  0
  157.1020  212.1640  153.7490 O   0  0  0  0  0  0  0  0  0  0  0  0
  156.1960  212.7580  154.6650 C   0  0  0  0  0  2  0  0  0  0  0  0
  156.5980  214.0820  156.6780 N   0  0  0  0  0  2  0  0  0  0  0  0
  157.0300  213.4250  155.6560 C   0  0  0  0  0  0  0  0  0  0  0  0
  158.3400  213.2540  155.3590 O   0  0  0  0  0  0  0  0  0  0  0  0
  158.4180  212.4810  154.1770 C   0  0  1  0  0  3  0  0  0  0  0  0
  161.3440  204.5500  151.5410 O   0  0  0  0  0  0  0  0  0  0  0  0
  161.5000  203.5640  150.6430 O   0  0  0  0  0  0  0  0  0  0  0  0
  160.2300  203.3560  150.0960 C   0  0  0  0  0  2  0  0  0  0  0  0
  158.6370  201.6050  149.6910 O   0  0  0  0  0  1  0  0  0  0  0  0
  160.0030  201.8740  149.8140 C   0  0  1  0  0  3  0  0  0  0  0  0
  160.8290  201.7840  146.2410 C   0  0  2  0  0  0  0  0  0  0  0  0
  161.3480  205.2510  144.6690 C   0  0  0  0  0  2  0  0  0  0  0  0
  159.4160  202.4020  144.3900 O   0  0  0  0  0  0  0  0  0  0  0  0
  159.8770  201.4890  147.3510 C   0  0  0  0  0  2  0  0  0  0  0  0
  160.2020  202.7690  145.2520 C   0  0  0  0  0  0  0  0  0  0  0  0
  160.7620  201.4110  148.5720 C   0  0  1  0  0  3  0  0  0  0  0  0
  162.0640  204.0700  145.2450 C   0  0  1  0  0  3  0  0  0  0  0  0
  161.9170  202.1900  148.3700 O   0  0  0  0  0  0  0  0  0  0  0  0
  161.2070  200.4920  145.5340 C   0  0  0  0  0  1  0  0  0  0  0  0
  162.5060  203.7850  146.6630 C   0  0  0  0  0  2  0  0  0  0  0  0
  160.5320  204.2150  145.4150 C   0  0  1  0  0  0  0  0  0  0  0  0
  160.1080  204.7320  146.6320 F   0  0  0  0  0  0  0  0  0  0  0  0
  162.0850  202.3270  146.9830 C   0  0  2  0  0  3  0  0  0  0  0  0
  1 30  1  0  0  0  0
  2 42  1  0  0  0  0
  2  7  1  0  0  0  0
  3  1  1  0  0  0  0
  4  5  1  0  0  0  0
  4  9  2  0  0  0  0
  5  2  2  0  0  0  0
  7  1  2  0  0  0  0
  7  6  1  0  0  0  0
  8  5  1  0  0  0  0
  9  3  1  0  0  0  0
 10 11  3  0  0  0  0
 11  9  1  0  0  0  0
 12 13  1  0  0  0  0
 12 10  1  0  0  0  0
 14 16  1  0  0  0  0
 15 13  1  0  0  0  0
 16 15  1  0  0  0  0
 16 20  1  0  0  0  0
 17 18  1  0  0  0  0
 17 15  2  0  0  0  0
 19 14  1  1  0  0  0
 19 17  1  0  0  0  0
 21 23  1  0  0  0  0
 22 28  1  6  0  0  0
 22 26  1  0  0  0  0
 23 24  1  6  0  0  0
 23 25  1  0  0  0  0
 25 26  1  6  0  0  0
 25 19  1  0  0  0  0
 27 22  1  0  0  0  0
 27 21  1  0  0  0  0
 29 28  1  0  0  0  0
 30 31  2  0  0  0  0
 32 30  1  0  0  0  0
 33 32  1  0  0  0  0
 33 35  1  0  0  0  0
 35 34  1  1  0  0  0
 36 41  1  0  0  0  0
 36 37  1  0  0  0  0
 37 39  1  0  0  0  0
 39 38  2  0  0  0  0
 40 39  1  0  0  0  0
 41 35  1  1  0  0  0
 41 40  1  0  0  0  0
 43 42  1  0  0  0  0
 44 43  1  0  0  0  0
 46 45  1  6  0  0  0
 46 44  1  0  0  0  0
 47 55  1  6  0  0  0
 47 59  1  0  0  0  0
 47 50  1  0  0  0  0
 48 57  1  0  0  0  0
 49 51  2  0  0  0  0
 50 52  1  0  0  0  0
 51 57  1  0  0  0  0
 51 47  1  0  0  0  0
 52 46  1  1  0  0  0
 53 48  1  1  0  0  0
 53 57  1  0  0  0  0
 53 56  1  0  0  0  0
 54 52  1  0  0  0  0
 57 58  1  1  0  0  0
 59 56  1  1  0  0  0
 59 54  1  0  0  0  0
M  END
>  <MODEL>
5

>  <REMARK>
 VINA RESULT:      -4.2      1.720      2.487
  Name = 
  16 active torsions:
  status: ('A' for Active; 'I' for Inactive)
    1  A    between atoms: C_1  and  C_18
    2  A    between atoms: C_3  and  C_46
    3  A    between atoms: O_4  and  C_34
    4  A    between atoms: O_4  and  O_50
    5  A    between atoms: C_6  and  O_50
    6  A    between atoms: N_9  and  C_27
    7  A    between atoms: N_9  and  C_32
    8  A    between atoms: C_14  and  C_26
    9  A    between atoms: C_15  and  O_42
   10  A    between atoms: C_18  and  C_27
   11  A    between atoms: C_23  and  C_25
   12  A    between atoms: C_25  and  C_34
   13  A    between atoms: C_26  and  C_46
   14  A    between atoms: C_32  and  C_38
   15  A    between atoms: C_33  and  C_49
   16  A    between atoms: C_56  and  C_59
                            x       y       z     vdW  Elec       q    Type
                         _______ _______ _______ _____ _____    ______ ____

>  <TORSDO>
F 16

$$$$
=
 OpenBabel11052411313D

 59 65  0  0  1  0  0  0  0  0999 V2000
  161.5140  207.4180  151.6310 C   0  0  0  0  0  0  0  0  0  0  0  0
  160.9960  207.8310  154.0650 C   0  0  0  0  0  0  0  0  0  0  0  0
  162.2930  206.1890  151.9750 C   0  0  0  0  0  2  0  0  0  0  0  0
  160.7950  205.3450  153.7290 C   0  0  0  0  0  3  0  0  0  0  0  0
  160.9040  206.5640  154.5530 C   0  0  0  0  0  0  0  0  0  0  0  0
  160.2930  209.4760  152.2680 C   0  0  0  0  0  1  0  0  0  0  0  0
  160.9470  208.1690  152.6080 C   0  0  0  0  0  0  0  0  0  0  0  0
  160.8120  206.3590  155.8880 F   0  0  0  0  0  0  0  0  0  0  0  0
  161.3770  205.1620  152.5470 C   0  0  0  0  0  0  0  0  0  0  0  0
  160.9340  202.8830  151.2860 C   0  0  0  0  0  0  0  0  0  0  0  0
  161.1430  203.9310  151.8460 C   0  0  0  0  0  0  0  0  0  0  0  0
  160.6750  201.5950  150.6390 C   0  0  0  0  0  2  0  0  0  0  0  0
  161.7390  201.3070  149.5940 C   0  0  0  0  0  2  0  0  0  0  0  0
  160.6590  201.7940  146.0150 N   0  0  0  0  0  2  0  0  0  0  0  0
  161.3090  201.8270  148.2590 C   0  0  0  0  0  0  0  0  0  0  0  0
  161.2060  201.0580  147.0830 N   0  0  0  0  0  0  0  0  0  0  0  0
  160.8860  203.0400  148.0110 C   0  0  0  0  0  0  0  0  0  0  0  0
  160.8020  204.0590  148.9590 O   0  0  0  0  0  1  0  0  0  0  0  0
  160.4670  203.1490  146.5760 C   0  0  1  0  0  3  0  0  0  0  0  0
  161.4860  199.6360  146.9880 C   0  0  0  0  0  1  0  0  0  0  0  0
  162.4520  206.4280  145.8230 C   0  0  0  0  0  2  0  0  0  0  0  0
  161.6390  205.4400  143.6590 C   0  0  2  0  0  3  0  0  0  0  0  0
  161.5440  205.4750  146.5990 C   0  0  1  0  0  3  0  0  0  0  0  0
  160.2410  206.1660  146.9740 C   0  0  0  0  0  1  0  0  0  0  0  0
  161.3280  204.1680  145.8130 C   0  0  2  0  0  3  0  0  0  0  0  0
  160.7400  204.4580  144.4280 C   0  0  0  0  0  2  0  0  0  0  0  0
  161.8860  206.7380  144.4400 C   0  0  0  0  0  2  0  0  0  0  0  0
  161.1960  205.6680  142.3290 O   0  0  0  0  0  0  0  0  0  0  0  0
  162.3020  206.0470  141.5350 C   0  0  0  0  0  1  0  0  0  0  0  0
  161.4000  207.7500  150.1930 C   0  0  0  0  0  0  0  0  0  0  0  0
  160.5470  207.1780  149.4710 O   0  0  0  0  0  0  0  0  0  0  0  0
  162.3110  208.7530  149.5720 C   0  0  0  0  0  2  0  0  0  0  0  0
  161.5780  209.9720  149.2580 N   0  0  0  0  0  2  0  0  0  0  0  0
  163.5180  210.7790  148.2390 O   0  0  0  0  0  1  0  0  0  0  0  0
  162.5450  211.0610  149.2040 C   0  0  1  0  0  3  0  0  0  0  0  0
  162.3410  212.9030  147.6590 O   0  0  0  0  0  0  0  0  0  0  0  0
  161.2440  213.0570  146.7730 C   0  0  0  0  0  2  0  0  0  0  0  0
  158.8730  212.5440  147.0600 N   0  0  0  0  0  2  0  0  0  0  0  0
  160.0800  212.5850  147.5120 C   0  0  0  0  0  0  0  0  0  0  0  0
  160.4440  212.1820  148.7530 O   0  0  0  0  0  0  0  0  0  0  0  0
  161.8400  212.3730  148.8770 C   0  0  1  0  0  3  0  0  0  0  0  0
  161.0570  208.9350  154.9360 O   0  0  0  0  0  0  0  0  0  0  0  0
  162.1820  209.6240  155.1900 O   0  0  0  0  0  0  0  0  0  0  0  0
  161.8160  210.9710  155.1130 C   0  0  0  0  0  2  0  0  0  0  0  0
  162.3540  211.9220  157.2520 O   0  0  0  0  0  1  0  0  0  0  0  0
  161.2970  211.4640  156.4600 C   0  0  1  0  0  3  0  0  0  0  0  0
  158.2390  212.9670  155.1010 C   0  0  2  0  0  0  0  0  0  0  0  0
  155.1740  210.6530  155.2240 C   0  0  0  0  0  2  0  0  0  0  0  0
  157.1430  212.4420  153.0200 O   0  0  0  0  0  0  0  0  0  0  0  0
  159.6440  212.5050  154.9060 C   0  0  0  0  0  2  0  0  0  0  0  0
  157.2890  212.1700  154.2040 C   0  0  0  0  0  0  0  0  0  0  0  0
  160.2330  212.5470  156.2960 C   0  0  1  0  0  3  0  0  0  0  0  0
  155.8600  211.7820  155.9270 C   0  0  1  0  0  3  0  0  0  0  0  0
  159.2080  212.3900  157.2480 O   0  0  0  0  0  0  0  0  0  0  0  0
  158.1410  214.4520  154.7890 C   0  0  0  0  0  1  0  0  0  0  0  0
  156.8900  211.7680  157.0340 C   0  0  0  0  0  2  0  0  0  0  0  0
  156.5890  210.9990  154.8080 C   0  0  1  0  0  0  0  0  0  0  0  0
  157.4640  210.0100  155.2380 F   0  0  0  0  0  0  0  0  0  0  0  0
  158.0050  212.7650  156.6270 C   0  0  2  0  0  3  0  0  0  0  0  0
  1  3  1  0  0  0  0
  1  7  2  0  0  0  0
  2  5  2  0  0  0  0
  2 42  1  0  0  0  0
  3  9  1  0  0  0  0
  4  5  1  0  0  0  0
  5  8  1  0  0  0  0
  6  7  1  0  0  0  0
  7  2  1  0  0  0  0
  9  4  2  0  0  0  0
 10 11  3  0  0  0  0
 11  9  1  0  0  0  0
 12 10  1  0  0  0  0
 13 12  1  0  0  0  0
 14 16  1  0  0  0  0
 15 13  1  0  0  0  0
 16 15  1  0  0  0  0
 17 15  2  0  0  0  0
 17 18  1  0  0  0  0
 19 14  1  6  0  0  0
 19 17  1  0  0  0  0
 20 16  1  0  0  0  0
 21 23  1  0  0  0  0
 22 28  1  6  0  0  0
 22 26  1  0  0  0  0
 22 27  1  0  0  0  0
 23 24  1  6  0  0  0
 25 26  1  6  0  0  0
 25 19  1  0  0  0  0
 25 23  1  0  0  0  0
 27 21  1  0  0  0  0
 29 28  1  0  0  0  0
 30  1  1  0  0  0  0
 31 30  2  0  0  0  0
 32 30  1  0  0  0  0
 33 32  1  0  0  0  0
 35 34  1  6  0  0  0
 35 33  1  0  0  0  0
 36 41  1  0  0  0  0
 37 39  1  0  0  0  0
 37 36  1  0  0  0  0
 38 39  2  0  0  0  0
 39 40  1  0  0  0  0
 40 41  1  0  0  0  0
 41 35  1  6  0  0  0
 42 43  1  0  0  0  0
 44 43  1  0  0  0  0
 44 46  1  0  0  0  0
 46 45  1  1  0  0  0
 47 55  1  6  0  0  0
 47 59  1  0  0  0  0
 49 51  2  0  0  0  0
 50 47  1  0  0  0  0
 50 52  1  0  0  0  0
 51 57  1  0  0  0  0
 51 47  1  0  0  0  0
 52 46  1  6  0  0  0
 52 54  1  0  0  0  0
 53 48  1  1  0  0  0
 53 56  1  0  0  0  0
 57 48  1  0  0  0  0
 57 58  1  1  0  0  0
 57 53  1  0  0  0  0
 59 56  1  6  0  0  0
 59 54  1  0  0  0  0
M  END
>  <MODEL>
6

>  <REMARK>
 VINA RESULT:      -4.0      3.478      9.128
  Name = 
  16 active torsions:
  status: ('A' for Active; 'I' for Inactive)
    1  A    between atoms: C_1  and  C_18
    2  A    between atoms: C_3  and  C_46
    3  A    between atoms: O_4  and  C_34
    4  A    between atoms: O_4  and  O_50
    5  A    between atoms: C_6  and  O_50
    6  A    between atoms: N_9  and  C_27
    7  A    between atoms: N_9  and  C_32
    8  A    between atoms: C_14  and  C_26
    9  A    between atoms: C_15  and  O_42
   10  A    between atoms: C_18  and  C_27
   11  A    between atoms: C_23  and  C_25
   12  A    between atoms: C_25  and  C_34
   13  A    between atoms: C_26  and  C_46
   14  A    between atoms: C_32  and  C_38
   15  A    between atoms: C_33  and  C_49
   16  A    between atoms: C_56  and  C_59
                            x       y       z     vdW  Elec       q    Type
                         _______ _______ _______ _____ _____    ______ ____

>  <TORSDO>
F 16

$$$$
=
 OpenBabel11052411313D

 59 65  0  0  1  0  0  0  0  0999 V2000
  161.2320  208.7160  151.6320 C   0  0  0  0  0  0  0  0  0  0  0  0
  162.0450  209.1350  149.2810 C   0  0  0  0  0  0  0  0  0  0  0  0
  160.3080  207.6420  151.1530 C   0  0  0  0  0  2  0  0  0  0  0  0
  161.8210  206.6380  149.4990 C   0  0  0  0  0  3  0  0  0  0  0  0
  161.9840  207.8900  148.7350 C   0  0  0  0  0  0  0  0  0  0  0  0
  162.8160  210.5750  151.2210 C   0  0  0  0  0  1  0  0  0  0  0  0
  162.0030  209.4040  150.7530 C   0  0  0  0  0  0  0  0  0  0  0  0
  162.1730  207.7250  147.4060 F   0  0  0  0  0  0  0  0  0  0  0  0
  161.1050  206.5050  150.6120 C   0  0  0  0  0  0  0  0  0  0  0  0
  161.0690  204.1630  151.8340 C   0  0  0  0  0  0  0  0  0  0  0  0
  161.0740  205.2250  151.2640 C   0  0  0  0  0  0  0  0  0  0  0  0
  161.0930  202.8840  152.5470 C   0  0  0  0  0  2  0  0  0  0  0  0
  160.1010  201.9160  151.9270 C   0  0  0  0  0  2  0  0  0  0  0  0
  161.7660  201.0270  148.6640 N   0  0  0  0  0  2  0  0  0  0  0  0
  160.4620  201.6460  150.5010 C   0  0  0  0  0  0  0  0  0  0  0  0
  161.7590  201.3570  150.0320 N   0  0  0  0  0  0  0  0  0  0  0  0
  159.6200  201.5520  149.5030 C   0  0  0  0  0  0  0  0  0  0  0  0
  158.2400  201.7270  149.6120 O   0  0  0  0  0  1  0  0  0  0  0  0
  160.3560  201.1870  148.2500 C   0  0  1  0  0  3  0  0  0  0  0  0
  162.9450  201.2610  150.8650 C   0  0  0  0  0  1  0  0  0  0  0  0
  159.6840  202.8760  144.7920 C   0  0  0  0  0  2  0  0  0  0  0  0
  161.3660  204.2420  146.0660 C   0  0  2  0  0  3  0  0  0  0  0  0
  159.8470  201.7380  145.7980 C   0  0  1  0  0  3  0  0  0  0  0  0
  160.8290  200.6990  145.2750 C   0  0  0  0  0  1  0  0  0  0  0  0
  160.2350  202.2870  147.1840 C   0  0  2  0  0  3  0  0  0  0  0  0
  161.5210  203.1150  147.0990 C   0  0  0  0  0  2  0  0  0  0  0  0
  160.9540  203.7140  144.6840 C   0  0  0  0  0  2  0  0  0  0  0  0
  162.4930  205.1050  146.0160 O   0  0  0  0  0  0  0  0  0  0  0  0
  163.6390  204.3480  145.6840 C   0  0  0  0  0  1  0  0  0  0  0  0
  161.2560  208.9690  153.0910 C   0  0  0  0  0  0  0  0  0  0  0  0
  161.9200  208.2290  153.8570 O   0  0  0  0  0  0  0  0  0  0  0  0
  160.4730  210.0930  153.6780 C   0  0  0  0  0  2  0  0  0  0  0  0
  160.7750  210.2310  155.0950 N   0  0  0  0  0  2  0  0  0  0  0  0
  159.7310  209.0470  156.8160 O   0  0  0  0  0  1  0  0  0  0  0  0
  159.5340  210.0190  155.8290 C   0  0  1  0  0  3  0  0  0  0  0  0
  160.0560  212.3300  156.2820 O   0  0  0  0  0  0  0  0  0  0  0  0
  159.4510  213.4140  155.5960 C   0  0  0  0  0  2  0  0  0  0  0  0
  157.1760  213.7030  154.7540 N   0  0  0  0  0  2  0  0  0  0  0  0
  158.0720  213.0040  155.3640 C   0  0  0  0  0  0  0  0  0  0  0  0
  157.8570  211.7700  155.8780 O   0  0  0  0  0  0  0  0  0  0  0  0
  159.0680  211.3270  156.4600 C   0  0  1  0  0  3  0  0  0  0  0  0
  162.2420  210.2680  148.4690 O   0  0  0  0  0  0  0  0  0  0  0  0
  162.3010  211.5240  148.9420 O   0  0  0  0  0  0  0  0  0  0  0  0
  162.7250  212.3060  147.8630 C   0  0  0  0  0  2  0  0  0  0  0  0
  160.5040  213.2020  147.6820 O   0  0  0  0  0  1  0  0  0  0  0  0
  161.5520  212.6390  146.9470 C   0  0  1  0  0  3  0  0  0  0  0  0
  162.1950  213.5460  143.4510 C   0  0  2  0  0  0  0  0  0  0  0  0
  159.3190  212.6740  141.0570 C   0  0  0  0  0  2  0  0  0  0  0  0
  162.6730  212.0640  141.6130 O   0  0  0  0  0  0  0  0  0  0  0  0
  162.5570  212.7580  144.6660 C   0  0  0  0  0  2  0  0  0  0  0  0
  161.8210  212.6080  142.3020 C   0  0  0  0  0  0  0  0  0  0  0  0
  161.9690  213.5600  145.8030 C   0  0  1  0  0  3  0  0  0  0  0  0
  159.9330  213.7870  141.8470 C   0  0  1  0  0  3  0  0  0  0  0  0
  160.8720  214.3080  145.3360 O   0  0  0  0  0  0  0  0  0  0  0  0
  163.3620  214.4350  143.0510 C   0  0  0  0  0  1  0  0  0  0  0  0
  159.6550  214.2590  143.2570 C   0  0  0  0  0  2  0  0  0  0  0  0
  160.3720  212.3210  142.0870 C   0  0  1  0  0  0  0  0  0  0  0  0
  159.7810  211.6860  143.1710 F   0  0  0  0  0  0  0  0  0  0  0  0
  161.0300  214.4520  143.9480 C   0  0  2  0  0  3  0  0  0  0  0  0
  1 30  1  0  0  0  0
  2  7  1  0  0  0  0
  3  1  1  0  0  0  0
  4  9  2  0  0  0  0
  5  2  2  0  0  0  0
  5  4  1  0  0  0  0
  7  6  1  0  0  0  0
  7  1  2  0  0  0  0
  8  5  1  0  0  0  0
  9  3  1  0  0  0  0
  9 11  1  0  0  0  0
 10 12  1  0  0  0  0
 11 10  3  0  0  0  0
 13 12  1  0  0  0  0
 14 16  1  0  0  0  0
 15 13  1  0  0  0  0
 16 15  1  0  0  0  0
 16 20  1  0  0  0  0
 17 18  1  0  0  0  0
 17 15  2  0  0  0  0
 19 14  1  1  0  0  0
 19 17  1  0  0  0  0
 21 23  1  0  0  0  0
 22 28  1  6  0  0  0
 22 26  1  0  0  0  0
 23 24  1  6  0  0  0
 23 25  1  0  0  0  0
 25 26  1  6  0  0  0
 25 19  1  0  0  0  0
 27 21  1  0  0  0  0
 27 22  1  0  0  0  0
 29 28  1  0  0  0  0
 30 32  1  0  0  0  0
 30 31  2  0  0  0  0
 32 33  1  0  0  0  0
 33 35  1  0  0  0  0
 35 34  1  1  0  0  0
 36 41  1  0  0  0  0
 37 36  1  0  0  0  0
 38 39  2  0  0  0  0
 39 37  1  0  0  0  0
 39 40  1  0  0  0  0
 40 41  1  0  0  0  0
 41 35  1  6  0  0  0
 42 43  1  0  0  0  0
 42  2  1  0  0  0  0
 44 43  1  0  0  0  0
 46 45  1  1  0  0  0
 46 44  1  0  0  0  0
 47 55  1  6  0  0  0
 47 59  1  0  0  0  0
 47 50  1  0  0  0  0
 48 57  1  0  0  0  0
 49 51  2  0  0  0  0
 50 52  1  0  0  0  0
 51 47  1  0  0  0  0
 52 46  1  1  0  0  0
 53 48  1  6  0  0  0
 53 57  1  0  0  0  0
 53 56  1  0  0  0  0
 54 52  1  0  0  0  0
 57 51  1  0  0  0  0
 57 58  1  1  0  0  0
 59 56  1  6  0  0  0
 59 54  1  0  0  0  0
M  END
>  <MODEL>
7

>  <REMARK>
 VINA RESULT:      -3.6      3.361      8.864
  Name = 
  16 active torsions:
  status: ('A' for Active; 'I' for Inactive)
    1  A    between atoms: C_1  and  C_18
    2  A    between atoms: C_3  and  C_46
    3  A    between atoms: O_4  and  C_34
    4  A    between atoms: O_4  and  O_50
    5  A    between atoms: C_6  and  O_50
    6  A    between atoms: N_9  and  C_27
    7  A    between atoms: N_9  and  C_32
    8  A    between atoms: C_14  and  C_26
    9  A    between atoms: C_15  and  O_42
   10  A    between atoms: C_18  and  C_27
   11  A    between atoms: C_23  and  C_25
   12  A    between atoms: C_25  and  C_34
   13  A    between atoms: C_26  and  C_46
   14  A    between atoms: C_32  and  C_38
   15  A    between atoms: C_33  and  C_49
   16  A    between atoms: C_56  and  C_59
                            x       y       z     vdW  Elec       q    Type
                         _______ _______ _______ _____ _____    ______ ____

>  <TORSDO>
F 16

$$$$
=
 OpenBabel11052411313D

 59 65  0  0  1  0  0  0  0  0999 V2000
  161.5340  207.8660  153.1340 C   0  0  0  0  0  0  0  0  0  0  0  0
  161.8400  207.4670  150.6630 C   0  0  0  0  0  0  0  0  0  0  0  0
  161.6800  209.3420  152.9430 C   0  0  0  0  0  2  0  0  0  0  0  0
  160.3980  209.5200  150.8570 C   0  0  0  0  0  3  0  0  0  0  0  0
  161.2630  208.5750  150.1240 C   0  0  0  0  0  0  0  0  0  0  0  0
  161.6330  205.5380  152.2960 C   0  0  0  0  0  1  0  0  0  0  0  0
  161.6340  207.0230  152.0770 C   0  0  0  0  0  0  0  0  0  0  0  0
  161.3860  208.8250  148.8000 F   0  0  0  0  0  0  0  0  0  0  0  0
  160.5380  209.8560  152.1360 C   0  0  0  0  0  0  0  0  0  0  0  0
  158.8090  211.5220  153.2390 C   0  0  0  0  0  0  0  0  0  0  0  0
  159.5900  210.7630  152.7190 C   0  0  0  0  0  0  0  0  0  0  0  0
  157.8730  212.4310  153.9030 C   0  0  0  0  0  2  0  0  0  0  0  0
  158.1700  213.8690  153.5150 C   0  0  0  0  0  2  0  0  0  0  0  0
  157.1880  214.3190  149.9040 N   0  0  0  0  0  2  0  0  0  0  0  0
  158.1130  214.0280  152.0280 C   0  0  0  0  0  0  0  0  0  0  0  0
  156.9340  214.0270  151.2570 N   0  0  0  0  0  0  0  0  0  0  0  0
  159.1330  214.2770  151.2460 C   0  0  0  0  0  0  0  0  0  0  0  0
  160.4530  214.4000  151.6800 O   0  0  0  0  0  1  0  0  0  0  0  0
  158.6590  214.4530  149.8350 C   0  0  1  0  0  3  0  0  0  0  0  0
  155.5900  213.8870  151.7870 C   0  0  0  0  0  1  0  0  0  0  0  0
  161.2770  212.0390  148.2290 C   0  0  0  0  0  2  0  0  0  0  0  0
  159.5210  212.6070  146.5220 C   0  0  2  0  0  3  0  0  0  0  0  0
  160.7540  213.1520  149.1360 C   0  0  1  0  0  3  0  0  0  0  0  0
  161.5820  214.4160  148.9600 C   0  0  0  0  0  1  0  0  0  0  0  0
  159.2490  213.3810  148.9050 C   0  0  2  0  0  3  0  0  0  0  0  0
  158.9690  213.7130  147.4360 C   0  0  0  0  0  2  0  0  0  0  0  0
  161.0160  212.3480  146.7570 C   0  0  0  0  0  2  0  0  0  0  0  0
  159.2020  212.8120  145.1530 O   0  0  0  0  0  0  0  0  0  0  0  0
  160.3930  212.7740  144.3930 C   0  0  0  0  0  1  0  0  0  0  0  0
  161.2740  207.3980  154.5140 C   0  0  0  0  0  0  0  0  0  0  0  0
  162.2240  207.1160  155.2830 O   0  0  0  0  0  0  0  0  0  0  0  0
  159.8770  207.2300  155.0070 C   0  0  0  0  0  2  0  0  0  0  0  0
  159.7170  207.8800  156.3000 N   0  0  0  0  0  2  0  0  0  0  0  0
  158.1730  209.6140  156.0500 O   0  0  0  0  0  1  0  0  0  0  0  0
  159.5380  209.3050  156.0520 C   0  0  1  0  0  3  0  0  0  0  0  0
  161.6410  210.2260  156.7940 O   0  0  0  0  0  0  0  0  0  0  0  0
  161.9570  211.6060  156.7140 C   0  0  0  0  0  2  0  0  0  0  0  0
  160.5580  213.5870  157.0050 N   0  0  0  0  0  2  0  0  0  0  0  0
  160.7100  212.3070  156.9910 C   0  0  0  0  0  0  0  0  0  0  0  0
  159.7160  211.4190  157.2270 O   0  0  0  0  0  0  0  0  0  0  0  0
  160.2630  210.1180  157.1200 C   0  0  1  0  0  3  0  0  0  0  0  0
  162.6190  206.6030  149.8690 O   0  0  0  0  0  0  0  0  0  0  0  0
  162.1190  205.8460  148.8800 O   0  0  0  0  0  0  0  0  0  0  0  0
  160.8950  205.3680  149.3600 C   0  0  0  0  0  2  0  0  0  0  0  0
  159.7450  203.3950  150.1010 O   0  0  0  0  0  1  0  0  0  0  0  0
  160.9760  203.8720  149.6430 C   0  0  1  0  0  3  0  0  0  0  0  0
  161.0000  202.9080  146.1030 C   0  0  2  0  0  0  0  0  0  0  0  0
  161.2050  205.8810  143.6760 C   0  0  0  0  0  2  0  0  0  0  0  0
  159.2240  203.1720  144.4960 O   0  0  0  0  0  0  0  0  0  0  0  0
  160.3110  202.9380  147.4260 C   0  0  0  0  0  2  0  0  0  0  0  0
  160.1850  203.6770  145.0620 C   0  0  0  0  0  0  0  0  0  0  0  0
  161.4400  203.0880  148.4170 C   0  0  1  0  0  3  0  0  0  0  0  0
  162.0150  204.8210  144.3540 C   0  0  1  0  0  3  0  0  0  0  0  0
  162.5320  203.7250  147.7970 O   0  0  0  0  0  0  0  0  0  0  0  0
  161.1990  201.4670  145.6620 C   0  0  0  0  0  1  0  0  0  0  0  0
  162.7520  204.8430  145.6740 C   0  0  0  0  0  2  0  0  0  0  0  0
  160.5590  205.0980  144.8020 C   0  0  1  0  0  0  0  0  0  0  0  0
  160.4170  205.9070  145.9220 F   0  0  0  0  0  0  0  0  0  0  0  0
  162.3950  203.5280  146.4140 C   0  0  2  0  0  3  0  0  0  0  0  0
  1 30  1  0  0  0  0
  2  7  1  0  0  0  0
  3  1  1  0  0  0  0
  4  9  2  0  0  0  0
  5  2  2  0  0  0  0
  5  4  1  0  0  0  0
  7  6  1  0  0  0  0
  7  1  2  0  0  0  0
  8  5  1  0  0  0  0
  9 11  1  0  0  0  0
  9  3  1  0  0  0  0
 10 12  1  0  0  0  0
 11 10  3  0  0  0  0
 13 12  1  0  0  0  0
 14 16  1  0  0  0  0
 15 13  1  0  0  0  0
 16 20  1  0  0  0  0
 16 15  1  0  0  0  0
 17 18  1  0  0  0  0
 17 15  2  0  0  0  0
 19 14  1  1  0  0  0
 19 17  1  0  0  0  0
 21 23  1  0  0  0  0
 22 28  1  6  0  0  0
 22 27  1  0  0  0  0
 22 26  1  0  0  0  0
 23 24  1  6  0  0  0
 25 26  1  6  0  0  0
 25 23  1  0  0  0  0
 25 19  1  0  0  0  0
 27 21  1  0  0  0  0
 29 28  1  0  0  0  0
 30 32  1  0  0  0  0
 30 31  2  0  0  0  0
 32 33  1  0  0  0  0
 35 34  1  1  0  0  0
 35 33  1  0  0  0  0
 36 41  1  0  0  0  0
 37 36  1  0  0  0  0
 37 39  1  0  0  0  0
 39 38  2  0  0  0  0
 39 40  1  0  0  0  0
 41 35  1  6  0  0  0
 41 40  1  0  0  0  0
 42  2  1  0  0  0  0
 43 44  1  0  0  0  0
 43 42  1  0  0  0  0
 44 46  1  0  0  0  0
 46 45  1  6  0  0  0
 47 55  1  6  0  0  0
 47 59  1  0  0  0  0
 47 50  1  0  0  0  0
 48 57  1  0  0  0  0
 49 51  2  0  0  0  0
 50 52  1  0  0  0  0
 51 47  1  0  0  0  0
 52 46  1  1  0  0  0
 53 48  1  6  0  0  0
 53 57  1  0  0  0  0
 53 56  1  0  0  0  0
 54 52  1  0  0  0  0
 57 51  1  0  0  0  0
 57 58  1  1  0  0  0
 59 56  1  6  0  0  0
 59 54  1  0  0  0  0
M  END
>  <MODEL>
8

>  <REMARK>
 VINA RESULT:      -3.6      2.725      4.945
  Name = 
  16 active torsions:
  status: ('A' for Active; 'I' for Inactive)
    1  A    between atoms: C_1  and  C_18
    2  A    between atoms: C_3  and  C_46
    3  A    between atoms: O_4  and  C_34
    4  A    between atoms: O_4  and  O_50
    5  A    between atoms: C_6  and  O_50
    6  A    between atoms: N_9  and  C_27
    7  A    between atoms: N_9  and  C_32
    8  A    between atoms: C_14  and  C_26
    9  A    between atoms: C_15  and  O_42
   10  A    between atoms: C_18  and  C_27
   11  A    between atoms: C_23  and  C_25
   12  A    between atoms: C_25  and  C_34
   13  A    between atoms: C_26  and  C_46
   14  A    between atoms: C_32  and  C_38
   15  A    between atoms: C_33  and  C_49
   16  A    between atoms: C_56  and  C_59
                            x       y       z     vdW  Elec       q    Type
                         _______ _______ _______ _____ _____    ______ ____

>  <TORSDO>
F 16

$$$$
