=
 OpenBabel11052409373D

 44 47  0  0  1  0  0  0  0  0999 V2000
  161.4460  211.4540  149.9790 C   0  0  0  0  0  0  0  0  0  0  0  0
  158.1090  213.4660  151.7330 C   0  0  0  0  0  3  0  0  0  0  0  0
  158.0110  213.7510  150.3300 N   0  0  0  0  0  0  0  0  0  0  0  0
  161.1150  212.5420  149.2000 O   0  0  0  0  0  0  0  0  0  0  0  0
  161.7410  209.3200  150.7750 C   0  0  0  0  0  0  0  0  0  0  0  0
  160.3860  212.8790  151.3940 N   0  0  0  0  0  0  0  0  0  0  0  0
  159.0320  213.7550  149.5200 C   0  0  0  0  0  0  0  0  0  0  0  0
  161.8630  210.1680  149.6620 C   0  0  0  0  0  0  0  0  0  0  0  0
  162.2450  209.7320  148.2890 C   0  0  0  0  0  1  0  0  0  0  0  0
  158.8080  214.0730  148.1430 N   0  0  0  0  0  2  0  0  0  0  0  0
  161.0920  210.2070  152.0910 S   0  0  0  0  0  0  0  0  0  0  0  0
  159.2570  213.0510  152.2630 C   0  0  0  0  0  0  0  0  0  0  0  0
  161.0930  211.6570  151.2470 C   0  0  0  0  0  0  0  0  0  0  0  0
  160.4330  213.4930  150.0430 C   0  0  2  0  0  3  0  0  0  0  0  0
  161.2120  207.0510  149.7920 C   0  0  0  0  0  2  0  0  0  0  0  0
  162.0780  207.8560  150.7770 C   0  0  0  0  0  3  0  0  0  0  0  0
  162.3360  205.7910  152.2320 C   0  0  0  0  0  2  0  0  0  0  0  0
  161.0740  205.5840  150.2100 C   0  0  0  0  0  2  0  0  0  0  0  0
  161.9810  207.2880  152.1940 C   0  0  0  0  0  2  0  0  0  0  0  0
  162.2850  205.1470  150.9110 N   0  0  0  0  0  0  0  0  0  0  0  0
  162.1630  203.7170  151.1550 C   0  0  0  0  0  2  0  0  0  0  0  0
  159.8110  202.7120  150.9350 N   0  0  0  0  0  2  0  0  0  0  0  0
  159.9590  202.1160  149.6370 C   0  0  0  0  0  0  0  0  0  0  0  0
  160.8120  203.3860  151.7110 C   0  0  0  0  0  0  0  0  0  0  0  0
  160.5240  203.7640  152.8780 O   0  0  0  0  0  0  0  0  0  0  0  0
  158.9010  201.6730  149.0360 N   0  0  0  0  0  2  0  0  0  0  0  0
  161.4910  200.5230  148.4980 C   0  0  0  0  0  1  0  0  0  0  0  0
  161.3030  201.9430  148.9950 C   0  0  0  0  0  3  0  0  0  0  0  0
  161.4940  202.9230  147.8530 C   0  0  0  0  0  1  0  0  0  0  0  0
  158.5390  211.9930  154.3390 C   0  0  0  0  0  0  0  0  0  0  0  0
  156.4090  211.1080  154.7140 O   0  0  0  0  0  1  0  0  0  0  0  0
  159.3310  212.8210  153.7120 C   0  0  0  0  0  3  0  0  0  0  0  0
  157.7710  211.1580  154.9850 C   0  0  0  0  0  0  0  0  0  0  0  0
  158.3640  210.2420  155.9970 C   0  0  0  0  0  2  0  0  0  0  0  0
  159.5550  209.6110  155.4530 N   0  0  0  0  0  2  0  0  0  0  0  0
  160.1280  208.8120  156.5230 C   0  0  0  0  0  2  0  0  0  0  0  0
  160.7460  207.0500  155.0710 F   0  0  0  0  0  0  0  0  0  0  0  0
  160.0090  207.3310  156.2050 C   0  0  0  0  0  0  0  0  0  0  0  0
  160.4940  206.5800  157.2610 F   0  0  0  0  0  0  0  0  0  0  0  0
  158.6850  207.0030  155.9770 F   0  0  0  0  0  0  0  0  0  0  0  0
  159.8840  214.2990  147.1900 C   0  0  0  0  0  2  0  0  0  0  0  0
  160.0070  213.0980  146.2740 C   0  0  0  0  0  2  0  0  0  0  0  0
  162.4360  213.5180  146.0450 C   0  0  0  0  0  1  0  0  0  0  0  0
  161.1340  213.3300  145.2910 C   0  0  0  0  0  2  0  0  0  0  0  0
  1 13  2  0  0  0  0
  2 12  2  0  0  0  0
  3  2  1  0  0  0  0
  4  1  1  0  0  0  0
  5 16  1  0  0  0  0
  5 11  1  0  0  0  0
  6 12  1  0  0  0  0
  7 14  1  0  0  0  0
  7  3  2  0  0  0  0
  8  1  1  0  0  0  0
  8  5  2  0  0  0  0
  9  8  1  0  0  0  0
 10  7  1  0  0  0  0
 12 32  1  0  0  0  0
 13  6  1  0  0  0  0
 13 11  1  0  0  0  0
 14  4  1  6  0  0  0
 14  6  1  0  0  0  0
 15 18  1  0  0  0  0
 15 16  1  0  0  0  0
 16 19  1  0  0  0  0
 18 20  1  0  0  0  0
 19 17  1  0  0  0  0
 20 21  1  0  0  0  0
 20 17  1  0  0  0  0
 21 24  1  0  0  0  0
 22 24  1  0  0  0  0
 23 22  1  0  0  0  0
 24 25  2  0  0  0  0
 26 23  2  0  0  0  0
 27 28  1  0  0  0  0
 28 23  1  0  0  0  0
 29 28  1  0  0  0  0
 30 33  2  0  0  0  0
 31 33  1  0  0  0  0
 32 30  2  0  0  0  0
 33 34  1  0  0  0  0
 35 34  1  0  0  0  0
 35 36  1  0  0  0  0
 37 38  1  0  0  0  0
 38 36  1  0  0  0  0
 38 39  1  0  0  0  0
 40 38  1  0  0  0  0
 41 10  1  0  0  0  0
 42 41  1  0  0  0  0
 44 43  1  0  0  0  0
 44 42  1  0  0  0  0
M  END
>  <MODEL>
1

>  <REMARK>
 VINA RESULT:      -4.9      0.000      0.000
  Name = 
  12 active torsions:
  status: ('A' for Active; 'I' for Inactive)
    1  A    between atoms: N_4  and  C_19
    2  A    between atoms: N_4  and  C_26
    3  A    between atoms: C_8  and  N_30
    4  A    between atoms: C_8  and  C_42
    5  A    between atoms: C_10  and  C_26
    6  A    between atoms: C_12  and  C_32
    7  A    between atoms: C_15  and  C_24
    8  A    between atoms: C_17  and  C_20
    9  A    between atoms: C_17  and  N_44
   10  A    between atoms: C_19  and  C_41
   11  A    between atoms: C_22  and  C_42
   12  A    between atoms: C_31  and  C_38
                            x       y       z     vdW  Elec       q    Type
                         _______ _______ _______ _____ _____    ______ ____

>  <TORSDO>
F 12

$$$$
=
 OpenBabel11052409373D

 44 47  0  0  1  0  0  0  0  0999 V2000
  160.9790  212.5840  150.0570 C   0  0  0  0  0  0  0  0  0  0  0  0
  160.0590  209.1770  152.4680 C   0  0  0  0  0  3  0  0  0  0  0  0
  159.1320  210.1870  152.8930 N   0  0  0  0  0  0  0  0  0  0  0  0
  160.4430  213.0100  151.2530 O   0  0  0  0  0  0  0  0  0  0  0  0
  161.2950  212.0700  147.8410 C   0  0  0  0  0  0  0  0  0  0  0  0
  161.3980  210.8940  151.5150 N   0  0  0  0  0  0  0  0  0  0  0  0
  159.3560  211.4660  152.7870 C   0  0  0  0  0  0  0  0  0  0  0  0
  160.8280  213.0320  148.7520 C   0  0  0  0  0  0  0  0  0  0  0  0
  160.1320  214.2960  148.3800 C   0  0  0  0  0  1  0  0  0  0  0  0
  158.3600  212.3760  153.2640 N   0  0  0  0  0  2  0  0  0  0  0  0
  161.8470  210.6960  148.7070 S   0  0  0  0  0  0  0  0  0  0  0  0
  161.1660  209.5080  151.8070 C   0  0  0  0  0  0  0  0  0  0  0  0
  161.5830  211.4070  150.2040 C   0  0  0  0  0  0  0  0  0  0  0  0
  160.6740  211.9750  152.2310 C   0  0  2  0  0  3  0  0  0  0  0  0
  162.0260  213.4550  145.8570 C   0  0  0  0  0  2  0  0  0  0  0  0
  161.2580  212.2150  146.3470 C   0  0  0  0  0  3  0  0  0  0  0  0
  159.7420  212.3560  144.3150 C   0  0  0  0  0  2  0  0  0  0  0  0
  161.4980  213.9670  144.5120 C   0  0  0  0  0  2  0  0  0  0  0  0
  159.8130  212.2240  145.8470 C   0  0  0  0  0  2  0  0  0  0  0  0
  160.9910  212.8480  143.7150 N   0  0  0  0  0  0  0  0  0  0  0  0
  160.6390  213.3660  142.4010 C   0  0  0  0  0  2  0  0  0  0  0  0
  161.4610  212.6630  140.0720 N   0  0  0  0  0  2  0  0  0  0  0  0
  160.1860  212.5800  139.4160 C   0  0  0  0  0  0  0  0  0  0  0  0
  161.7320  213.0960  141.4130 C   0  0  0  0  0  0  0  0  0  0  0  0
  162.9310  213.1950  141.7890 O   0  0  0  0  0  0  0  0  0  0  0  0
  160.1280  212.0320  138.2450 N   0  0  0  0  0  2  0  0  0  0  0  0
  158.5540  214.4530  139.3380 C   0  0  0  0  0  1  0  0  0  0  0  0
  158.9450  213.1590  140.0250 C   0  0  0  0  0  3  0  0  0  0  0  0
  157.7950  212.1720  139.9690 C   0  0  0  0  0  1  0  0  0  0  0  0
  161.9920  207.2130  151.8350 C   0  0  0  0  0  0  0  0  0  0  0  0
  161.5390  205.6570  153.5180 O   0  0  0  0  0  1  0  0  0  0  0  0
  162.1170  208.4510  151.4360 C   0  0  0  0  0  3  0  0  0  0  0  0
  161.8790  205.9680  152.2070 C   0  0  0  0  0  0  0  0  0  0  0  0
  162.0930  204.8800  151.2140 C   0  0  0  0  0  2  0  0  0  0  0  0
  160.9070  204.0420  151.1380 N   0  0  0  0  0  2  0  0  0  0  0  0
  160.7190  203.7140  149.7350 C   0  0  0  0  0  2  0  0  0  0  0  0
  161.4420  201.9080  148.3910 F   0  0  0  0  0  0  0  0  0  0  0  0
  160.7280  202.2080  149.5350 C   0  0  0  0  0  0  0  0  0  0  0  0
  161.3250  201.5890  150.6180 F   0  0  0  0  0  0  0  0  0  0  0  0
  159.4330  201.7430  149.3950 F   0  0  0  0  0  0  0  0  0  0  0  0
  158.5750  213.8100  153.3790 C   0  0  0  0  0  2  0  0  0  0  0  0
  157.4340  214.4300  154.1600 C   0  0  0  0  0  2  0  0  0  0  0  0
  158.6820  214.4240  156.2970 C   0  0  0  0  0  1  0  0  0  0  0  0
  157.4520  213.9040  155.5790 C   0  0  0  0  0  2  0  0  0  0  0  0
  1 13  2  0  0  0  0
  1  4  1  0  0  0  0
  2  3  1  0  0  0  0
  5 11  1  0  0  0  0
  5  8  2  0  0  0  0
  6 12  1  0  0  0  0
  6 14  1  0  0  0  0
  7  3  2  0  0  0  0
  7 10  1  0  0  0  0
  8  1  1  0  0  0  0
  9  8  1  0  0  0  0
 10 41  1  0  0  0  0
 11 13  1  0  0  0  0
 12  2  2  0  0  0  0
 13  6  1  0  0  0  0
 14  4  1  6  0  0  0
 14  7  1  0  0  0  0
 15 16  1  0  0  0  0
 16  5  1  0  0  0  0
 17 19  1  0  0  0  0
 18 15  1  0  0  0  0
 19 16  1  0  0  0  0
 20 17  1  0  0  0  0
 20 18  1  0  0  0  0
 21 20  1  0  0  0  0
 22 24  1  0  0  0  0
 23 28  1  0  0  0  0
 23 22  1  0  0  0  0
 24 25  2  0  0  0  0
 24 21  1  0  0  0  0
 26 23  2  0  0  0  0
 27 28  1  0  0  0  0
 29 28  1  0  0  0  0
 30 33  2  0  0  0  0
 32 12  1  0  0  0  0
 32 30  2  0  0  0  0
 33 31  1  0  0  0  0
 34 33  1  0  0  0  0
 35 34  1  0  0  0  0
 36 35  1  0  0  0  0
 37 38  1  0  0  0  0
 38 36  1  0  0  0  0
 38 39  1  0  0  0  0
 40 38  1  0  0  0  0
 41 42  1  0  0  0  0
 42 44  1  0  0  0  0
 44 43  1  0  0  0  0
M  END
>  <MODEL>
2

>  <REMARK>
 VINA RESULT:      -4.6      4.067      9.044
  Name = 
  12 active torsions:
  status: ('A' for Active; 'I' for Inactive)
    1  A    between atoms: N_4  and  C_19
    2  A    between atoms: N_4  and  C_26
    3  A    between atoms: C_8  and  N_30
    4  A    between atoms: C_8  and  C_42
    5  A    between atoms: C_10  and  C_26
    6  A    between atoms: C_12  and  C_32
    7  A    between atoms: C_15  and  C_24
    8  A    between atoms: C_17  and  C_20
    9  A    between atoms: C_17  and  N_44
   10  A    between atoms: C_19  and  C_41
   11  A    between atoms: C_22  and  C_42
   12  A    between atoms: C_31  and  C_38
                            x       y       z     vdW  Elec       q    Type
                         _______ _______ _______ _____ _____    ______ ____

>  <TORSDO>
F 12

$$$$
=
 OpenBabel11052409373D

 44 47  0  0  1  0  0  0  0  0999 V2000
  161.2530  210.6930  153.0260 C   0  0  0  0  0  0  0  0  0  0  0  0
  160.3540  206.6870  154.2120 C   0  0  0  0  0  3  0  0  0  0  0  0
  159.5660  207.5120  155.0820 N   0  0  0  0  0  0  0  0  0  0  0  0
  160.8970  210.6870  154.3570 O   0  0  0  0  0  0  0  0  0  0  0  0
  161.2670  210.9850  150.7480 C   0  0  0  0  0  0  0  0  0  0  0  0
  161.7050  208.5840  153.7360 N   0  0  0  0  0  0  0  0  0  0  0  0
  159.8770  208.7380  155.3960 C   0  0  0  0  0  0  0  0  0  0  0  0
  160.9870  211.5780  151.9900 C   0  0  0  0  0  0  0  0  0  0  0  0
  160.3550  212.9150  152.1780 C   0  0  0  0  0  1  0  0  0  0  0  0
  159.0190  209.4530  156.2900 N   0  0  0  0  0  2  0  0  0  0  0  0
  161.8050  209.3770  151.0000 S   0  0  0  0  0  0  0  0  0  0  0  0
  161.3990  207.1930  153.5600 C   0  0  0  0  0  0  0  0  0  0  0  0
  161.7750  209.5210  152.6720 C   0  0  0  0  0  0  0  0  0  0  0  0
  161.1570  209.3660  154.8740 C   0  0  2  0  0  3  0  0  0  0  0  0
  162.2570  211.4330  148.4650 C   0  0  0  0  0  2  0  0  0  0  0  0
  161.0670  211.6510  149.4160 C   0  0  0  0  0  3  0  0  0  0  0  0
  160.5450  213.8470  148.2540 C   0  0  0  0  0  2  0  0  0  0  0  0
  162.3790  212.5540  147.4270 C   0  0  0  0  0  2  0  0  0  0  0  0
  160.7700  213.1400  149.6020 C   0  0  0  0  0  2  0  0  0  0  0  0
  161.0520  213.0840  147.1040 N   0  0  0  0  0  0  0  0  0  0  0  0
  161.2100  214.0380  146.0160 C   0  0  0  0  0  2  0  0  0  0  0  0
  161.2590  212.7660  143.7860 N   0  0  0  0  0  2  0  0  0  0  0  0
  159.8460  212.7400  143.5290 C   0  0  0  0  0  0  0  0  0  0  0  0
  161.9420  213.4160  144.8670 C   0  0  0  0  0  0  0  0  0  0  0  0
  163.2030  213.4120  144.8790 O   0  0  0  0  0  0  0  0  0  0  0  0
  159.4050  211.9810  142.5780 N   0  0  0  0  0  2  0  0  0  0  0  0
  158.0310  214.4290  143.3480 C   0  0  0  0  0  1  0  0  0  0  0  0
  158.8880  213.6060  144.2900 C   0  0  0  0  0  3  0  0  0  0  0  0
  158.0070  212.7760  145.2040 C   0  0  0  0  0  1  0  0  0  0  0  0
  161.7510  205.1950  152.2060 C   0  0  0  0  0  0  0  0  0  0  0  0
  160.5270  203.2160  152.4130 O   0  0  0  0  0  1  0  0  0  0  0  0
  162.2120  206.3040  152.7190 C   0  0  0  0  0  3  0  0  0  0  0  0
  161.3070  204.0920  151.6690 C   0  0  0  0  0  0  0  0  0  0  0  0
  161.6200  203.7870  150.2460 C   0  0  0  0  0  2  0  0  0  0  0  0
  160.6940  204.4920  149.3760 N   0  0  0  0  0  2  0  0  0  0  0  0
  161.3840  204.6980  148.1140 C   0  0  0  0  0  2  0  0  0  0  0  0
  162.4440  206.7450  147.5850 F   0  0  0  0  0  0  0  0  0  0  0  0
  161.2080  206.1300  147.6370 C   0  0  0  0  0  0  0  0  0  0  0  0
  160.6400  206.1420  146.3750 F   0  0  0  0  0  0  0  0  0  0  0  0
  160.3940  206.8220  148.5150 F   0  0  0  0  0  0  0  0  0  0  0  0
  159.3600  210.7460  156.8630 C   0  0  0  0  0  2  0  0  0  0  0  0
  158.2500  211.7350  156.5710 C   0  0  0  0  0  2  0  0  0  0  0  0
  156.0990  211.3900  155.3970 C   0  0  0  0  0  1  0  0  0  0  0  0
  157.6080  211.3920  155.2450 C   0  0  0  0  0  2  0  0  0  0  0  0
  1  4  1  0  0  0  0
  2  3  1  0  0  0  0
  3  7  2  0  0  0  0
  5 11  1  0  0  0  0
  5  8  2  0  0  0  0
  6 14  1  0  0  0  0
  7 10  1  0  0  0  0
  8  9  1  0  0  0  0
  8  1  1  0  0  0  0
 10 41  1  0  0  0  0
 11 13  1  0  0  0  0
 12  6  1  0  0  0  0
 12  2  2  0  0  0  0
 13  1  2  0  0  0  0
 13  6  1  0  0  0  0
 14  4  1  6  0  0  0
 14  7  1  0  0  0  0
 15 16  1  0  0  0  0
 16 19  1  0  0  0  0
 16  5  1  0  0  0  0
 17 19  1  0  0  0  0
 18 15  1  0  0  0  0
 20 18  1  0  0  0  0
 20 17  1  0  0  0  0
 21 20  1  0  0  0  0
 22 24  1  0  0  0  0
 23 22  1  0  0  0  0
 23 28  1  0  0  0  0
 24 25  2  0  0  0  0
 24 21  1  0  0  0  0
 26 23  2  0  0  0  0
 27 28  1  0  0  0  0
 28 29  1  0  0  0  0
 30 32  2  0  0  0  0
 32 12  1  0  0  0  0
 33 30  2  0  0  0  0
 33 31  1  0  0  0  0
 34 33  1  0  0  0  0
 35 34  1  0  0  0  0
 36 35  1  0  0  0  0
 37 38  1  0  0  0  0
 38 36  1  0  0  0  0
 38 40  1  0  0  0  0
 39 38  1  0  0  0  0
 42 41  1  0  0  0  0
 44 43  1  0  0  0  0
 44 42  1  0  0  0  0
M  END
>  <MODEL>
3

>  <REMARK>
 VINA RESULT:      -4.5      3.004      8.877
  Name = 
  12 active torsions:
  status: ('A' for Active; 'I' for Inactive)
    1  A    between atoms: N_4  and  C_19
    2  A    between atoms: N_4  and  C_26
    3  A    between atoms: C_8  and  N_30
    4  A    between atoms: C_8  and  C_42
    5  A    between atoms: C_10  and  C_26
    6  A    between atoms: C_12  and  C_32
    7  A    between atoms: C_15  and  C_24
    8  A    between atoms: C_17  and  C_20
    9  A    between atoms: C_17  and  N_44
   10  A    between atoms: C_19  and  C_41
   11  A    between atoms: C_22  and  C_42
   12  A    between atoms: C_31  and  C_38
                            x       y       z     vdW  Elec       q    Type
                         _______ _______ _______ _____ _____    ______ ____

>  <TORSDO>
F 12

$$$$
=
 OpenBabel11052409373D

 44 47  0  0  1  0  0  0  0  0999 V2000
  161.5140  211.7100  150.4220 C   0  0  0  0  0  0  0  0  0  0  0  0
  160.7990  207.6650  151.5990 C   0  0  0  0  0  3  0  0  0  0  0  0
  160.1410  208.4580  152.5980 N   0  0  0  0  0  0  0  0  0  0  0  0
  161.3500  211.6610  151.7900 O   0  0  0  0  0  0  0  0  0  0  0  0
  161.2040  212.0710  148.1760 C   0  0  0  0  0  0  0  0  0  0  0  0
  162.0650  209.5830  150.9960 N   0  0  0  0  0  0  0  0  0  0  0  0
  160.4920  209.6760  152.9020 C   0  0  0  0  0  0  0  0  0  0  0  0
  161.1020  212.6250  149.4630 C   0  0  0  0  0  0  0  0  0  0  0  0
  160.5010  213.9510  149.7800 C   0  0  0  0  0  1  0  0  0  0  0  0
  159.7680  210.3580  153.9310 N   0  0  0  0  0  2  0  0  0  0  0  0
  161.7740  210.4590  148.2990 S   0  0  0  0  0  0  0  0  0  0  0  0
  161.7390  208.1960  150.8220 C   0  0  0  0  0  0  0  0  0  0  0  0
  161.9820  210.5520  149.9620 C   0  0  0  0  0  0  0  0  0  0  0  0
  161.6840  210.3270  152.2240 C   0  0  2  0  0  3  0  0  0  0  0  0
  159.9260  211.9070  146.0000 C   0  0  0  0  0  2  0  0  0  0  0  0
  160.8160  212.7760  146.9070 C   0  0  0  0  0  3  0  0  0  0  0  0
  161.6950  214.0010  144.8640 C   0  0  0  0  0  2  0  0  0  0  0  0
  160.0470  212.3020  144.5240 C   0  0  0  0  0  2  0  0  0  0  0  0
  162.0610  213.2610  146.1630 C   0  0  0  0  0  2  0  0  0  0  0  0
  160.3220  213.7360  144.4110 N   0  0  0  0  0  0  0  0  0  0  0  0
  160.2820  214.0840  142.9970 C   0  0  0  0  0  2  0  0  0  0  0  0
  158.6180  213.3470  141.1870 N   0  0  0  0  0  2  0  0  0  0  0  0
  159.5330  212.6400  140.3360 C   0  0  0  0  0  0  0  0  0  0  0  0
  158.8910  213.9560  142.4570 C   0  0  0  0  0  0  0  0  0  0  0  0
  157.9360  214.4530  143.1120 O   0  0  0  0  0  0  0  0  0  0  0  0
  159.1310  212.2810  139.1590 N   0  0  0  0  0  2  0  0  0  0  0  0
  161.1070  210.7610  140.7480 C   0  0  0  0  0  1  0  0  0  0  0  0
  160.9090  212.2640  140.7950 C   0  0  0  0  0  3  0  0  0  0  0  0
  161.9730  212.9540  139.9640 C   0  0  0  0  0  1  0  0  0  0  0  0
  161.9430  206.1920  149.4470 C   0  0  0  0  0  0  0  0  0  0  0  0
  160.9080  204.1500  149.9110 O   0  0  0  0  0  1  0  0  0  0  0  0
  162.4260  207.3380  149.8470 C   0  0  0  0  0  3  0  0  0  0  0  0
  161.4720  205.0540  149.0180 C   0  0  0  0  0  0  0  0  0  0  0  0
  161.5190  204.7350  147.5650 C   0  0  0  0  0  2  0  0  0  0  0  0
  161.6490  205.9620  146.7960 N   0  0  0  0  0  2  0  0  0  0  0  0
  162.1700  205.5840  145.4940 C   0  0  0  0  0  2  0  0  0  0  0  0
  159.9910  206.2620  144.8740 F   0  0  0  0  0  0  0  0  0  0  0  0
  161.0420  205.4540  144.4850 C   0  0  0  0  0  0  0  0  0  0  0  0
  161.4780  205.8480  143.2330 F   0  0  0  0  0  0  0  0  0  0  0  0
  160.6070  204.1430  144.4290 F   0  0  0  0  0  0  0  0  0  0  0  0
  160.1850  211.6350  154.4900 C   0  0  0  0  0  2  0  0  0  0  0  0
  159.0100  212.2850  155.1930 C   0  0  0  0  0  2  0  0  0  0  0  0
  158.6330  213.9820  153.4320 C   0  0  0  0  0  1  0  0  0  0  0  0
  158.0290  212.7980  154.1620 C   0  0  0  0  0  2  0  0  0  0  0  0
  1  4  1  0  0  0  0
  2  3  1  0  0  0  0
  3  7  2  0  0  0  0
  5 11  1  0  0  0  0
  5  8  2  0  0  0  0
  6 14  1  0  0  0  0
  7 10  1  0  0  0  0
  8  9  1  0  0  0  0
  8  1  1  0  0  0  0
 10 41  1  0  0  0  0
 11 13  1  0  0  0  0
 12  6  1  0  0  0  0
 12  2  2  0  0  0  0
 13  1  2  0  0  0  0
 13  6  1  0  0  0  0
 14  4  1  6  0  0  0
 14  7  1  0  0  0  0
 15 16  1  0  0  0  0
 16  5  1  0  0  0  0
 17 19  1  0  0  0  0
 18 15  1  0  0  0  0
 19 16  1  0  0  0  0
 20 18  1  0  0  0  0
 20 17  1  0  0  0  0
 21 20  1  0  0  0  0
 22 24  1  0  0  0  0
 23 28  1  0  0  0  0
 23 22  1  0  0  0  0
 24 21  1  0  0  0  0
 24 25  2  0  0  0  0
 26 23  2  0  0  0  0
 27 28  1  0  0  0  0
 29 28  1  0  0  0  0
 30 32  2  0  0  0  0
 32 12  1  0  0  0  0
 33 30  2  0  0  0  0
 33 31  1  0  0  0  0
 34 33  1  0  0  0  0
 35 34  1  0  0  0  0
 36 35  1  0  0  0  0
 38 37  1  0  0  0  0
 38 36  1  0  0  0  0
 39 38  1  0  0  0  0
 40 38  1  0  0  0  0
 41 42  1  0  0  0  0
 43 44  1  0  0  0  0
 44 42  1  0  0  0  0
M  END
>  <MODEL>
4

>  <REMARK>
 VINA RESULT:      -4.4      4.370      9.546
  Name = 
  12 active torsions:
  status: ('A' for Active; 'I' for Inactive)
    1  A    between atoms: N_4  and  C_19
    2  A    between atoms: N_4  and  C_26
    3  A    between atoms: C_8  and  N_30
    4  A    between atoms: C_8  and  C_42
    5  A    between atoms: C_10  and  C_26
    6  A    between atoms: C_12  and  C_32
    7  A    between atoms: C_15  and  C_24
    8  A    between atoms: C_17  and  C_20
    9  A    between atoms: C_17  and  N_44
   10  A    between atoms: C_19  and  C_41
   11  A    between atoms: C_22  and  C_42
   12  A    between atoms: C_31  and  C_38
                            x       y       z     vdW  Elec       q    Type
                         _______ _______ _______ _____ _____    ______ ____

>  <TORSDO>
F 12

$$$$
=
 OpenBabel11052409373D

 44 47  0  0  1  0  0  0  0  0999 V2000
  161.8510  204.6860  147.6780 C   0  0  0  0  0  0  0  0  0  0  0  0
  160.2190  204.4430  143.7360 C   0  0  0  0  0  3  0  0  0  0  0  0
  159.8570  203.2020  144.3590 N   0  0  0  0  0  0  0  0  0  0  0  0
  161.7780  203.3620  147.3010 O   0  0  0  0  0  0  0  0  0  0  0  0
  161.4830  206.7140  148.6910 C   0  0  0  0  0  0  0  0  0  0  0  0
  161.8840  204.7270  145.4080 N   0  0  0  0  0  0  0  0  0  0  0  0
  160.5260  202.6610  145.3380 C   0  0  0  0  0  0  0  0  0  0  0  0
  161.6180  205.3290  148.8860 C   0  0  0  0  0  0  0  0  0  0  0  0
  161.3970  204.6200  150.1780 C   0  0  0  0  0  1  0  0  0  0  0  0
  160.0750  201.4090  145.8630 N   0  0  0  0  0  2  0  0  0  0  0  0
  161.6330  207.0650  147.0190 S   0  0  0  0  0  0  0  0  0  0  0  0
  161.2060  205.1870  144.2300 C   0  0  0  0  0  0  0  0  0  0  0  0
  161.9760  205.4730  146.6120 C   0  0  0  0  0  0  0  0  0  0  0  0
  161.7930  203.3150  145.8600 C   0  0  2  0  0  3  0  0  0  0  0  0
  161.9560  209.0320  149.5820 C   0  0  0  0  0  2  0  0  0  0  0  0
  161.1970  207.7080  149.7800 C   0  0  0  0  0  3  0  0  0  0  0  0
  161.1930  208.0900  152.2900 C   0  0  0  0  0  2  0  0  0  0  0  0
  162.1930  209.7650  150.9070 C   0  0  0  0  0  2  0  0  0  0  0  0
  161.4910  207.0980  151.1510 C   0  0  0  0  0  2  0  0  0  0  0  0
  161.0960  209.4850  151.8370 N   0  0  0  0  0  0  0  0  0  0  0  0
  161.2940  210.3150  153.0170 C   0  0  0  0  0  2  0  0  0  0  0  0
  159.2980  211.4030  154.2090 N   0  0  0  0  0  2  0  0  0  0  0  0
  159.3200  210.6200  155.4120 C   0  0  0  0  0  0  0  0  0  0  0  0
  160.2270  211.3600  153.1160 C   0  0  0  0  0  0  0  0  0  0  0  0
  160.1020  212.1940  152.1790 O   0  0  0  0  0  0  0  0  0  0  0  0
  158.3140  210.7030  156.2220 N   0  0  0  0  0  2  0  0  0  0  0  0
  161.1740  210.2730  157.0320 C   0  0  0  0  0  1  0  0  0  0  0  0
  160.4950  209.7630  155.7750 C   0  0  0  0  0  3  0  0  0  0  0  0
  160.0810  208.3150  155.9590 C   0  0  0  0  0  1  0  0  0  0  0  0
  161.7850  206.4800  142.2440 C   0  0  0  0  0  0  0  0  0  0  0  0
  162.7010  205.5800  140.2920 O   0  0  0  0  0  1  0  0  0  0  0  0
  161.5810  206.4250  143.5330 C   0  0  0  0  0  3  0  0  0  0  0  0
  161.9760  206.5620  140.9560 C   0  0  0  0  0  0  0  0  0  0  0  0
  161.3950  207.7020  140.1960 C   0  0  0  0  0  2  0  0  0  0  0  0
  162.4010  208.7350  140.0110 N   0  0  0  0  0  2  0  0  0  0  0  0
  161.7360  209.8510  139.3600 C   0  0  0  0  0  2  0  0  0  0  0  0
  161.4810  212.1900  139.5960 F   0  0  0  0  0  0  0  0  0  0  0  0
  161.5930  211.0200  140.3210 C   0  0  0  0  0  0  0  0  0  0  0  0
  160.4610  210.8570  141.0990 F   0  0  0  0  0  0  0  0  0  0  0  0
  162.7060  211.0980  141.1370 F   0  0  0  0  0  0  0  0  0  0  0  0
  160.8410  200.6180  146.8140 C   0  0  0  0  0  2  0  0  0  0  0  0
  160.3930  200.9500  148.2230 C   0  0  0  0  0  2  0  0  0  0  0  0
  161.1820  201.3280  150.5380 C   0  0  0  0  0  1  0  0  0  0  0  0
  161.5620  200.7940  149.1710 C   0  0  0  0  0  2  0  0  0  0  0  0
  1  8  1  0  0  0  0
  2 12  2  0  0  0  0
  2  3  1  0  0  0  0
  3  7  2  0  0  0  0
  4  1  1  0  0  0  0
  5  8  2  0  0  0  0
  5 16  1  0  0  0  0
  6 14  1  0  0  0  0
  6 13  1  0  0  0  0
  7 10  1  0  0  0  0
  8  9  1  0  0  0  0
 10 41  1  0  0  0  0
 11  5  1  0  0  0  0
 12  6  1  0  0  0  0
 13 11  1  0  0  0  0
 13  1  2  0  0  0  0
 14  7  1  6  0  0  0
 14  4  1  0  0  0  0
 15 16  1  0  0  0  0
 15 18  1  0  0  0  0
 16 19  1  0  0  0  0
 18 20  1  0  0  0  0
 19 17  1  0  0  0  0
 20 17  1  0  0  0  0
 20 21  1  0  0  0  0
 21 24  1  0  0  0  0
 22 23  1  0  0  0  0
 23 28  1  0  0  0  0
 23 26  2  0  0  0  0
 24 22  1  0  0  0  0
 25 24  2  0  0  0  0
 28 29  1  0  0  0  0
 28 27  1  0  0  0  0
 30 32  2  0  0  0  0
 31 33  1  0  0  0  0
 32 12  1  0  0  0  0
 33 30  2  0  0  0  0
 34 33  1  0  0  0  0
 35 34  1  0  0  0  0
 36 35  1  0  0  0  0
 36 38  1  0  0  0  0
 37 38  1  0  0  0  0
 38 39  1  0  0  0  0
 38 40  1  0  0  0  0
 41 42  1  0  0  0  0
 42 44  1  0  0  0  0
 44 43  1  0  0  0  0
M  END
>  <MODEL>
5

>  <REMARK>
 VINA RESULT:      -4.2      5.763     11.301
  Name = 
  12 active torsions:
  status: ('A' for Active; 'I' for Inactive)
    1  A    between atoms: N_4  and  C_19
    2  A    between atoms: N_4  and  C_26
    3  A    between atoms: C_8  and  N_30
    4  A    between atoms: C_8  and  C_42
    5  A    between atoms: C_10  and  C_26
    6  A    between atoms: C_12  and  C_32
    7  A    between atoms: C_15  and  C_24
    8  A    between atoms: C_17  and  C_20
    9  A    between atoms: C_17  and  N_44
   10  A    between atoms: C_19  and  C_41
   11  A    between atoms: C_22  and  C_42
   12  A    between atoms: C_31  and  C_38
                            x       y       z     vdW  Elec       q    Type
                         _______ _______ _______ _____ _____    ______ ____

>  <TORSDO>
F 12

$$$$
=
 OpenBabel11052409373D

 44 47  0  0  1  0  0  0  0  0999 V2000
  161.0380  207.5910  152.7420 C   0  0  0  0  0  0  0  0  0  0  0  0
  161.1150  211.8180  153.3700 C   0  0  0  0  0  3  0  0  0  0  0  0
  161.8460  211.2710  154.4770 N   0  0  0  0  0  0  0  0  0  0  0  0
  161.1450  207.8450  154.0920 O   0  0  0  0  0  0  0  0  0  0  0  0
  161.4760  206.9870  150.5700 C   0  0  0  0  0  0  0  0  0  0  0  0
  160.1630  209.6700  153.0130 N   0  0  0  0  0  0  0  0  0  0  0  0
  161.6650  210.0650  154.9380 C   0  0  0  0  0  0  0  0  0  0  0  0
  161.6120  206.6300  151.9220 C   0  0  0  0  0  0  0  0  0  0  0  0
  162.3880  205.4610  152.4250 C   0  0  0  0  0  1  0  0  0  0  0  0
  162.4430  209.6400  156.0610 N   0  0  0  0  0  2  0  0  0  0  0  0
  160.6740  208.4990  150.4650 S   0  0  0  0  0  0  0  0  0  0  0  0
  160.2890  211.0550  152.6570 C   0  0  0  0  0  0  0  0  0  0  0  0
  160.4230  208.5960  152.1220 C   0  0  0  0  0  0  0  0  0  0  0  0
  160.6050  209.1600  154.3360 C   0  0  2  0  0  3  0  0  0  0  0  0
  161.9960  206.9790  148.0960 C   0  0  0  0  0  2  0  0  0  0  0  0
  162.0070  206.1870  149.4150 C   0  0  0  0  0  3  0  0  0  0  0  0
  161.7710  204.0210  148.1110 C   0  0  0  0  0  2  0  0  0  0  0  0
  161.9110  206.0610  146.8720 C   0  0  0  0  0  2  0  0  0  0  0  0
  161.2390  204.8710  149.2790 C   0  0  0  0  0  2  0  0  0  0  0  0
  162.5800  204.7890  147.1530 N   0  0  0  0  0  0  0  0  0  0  0  0
  162.5980  204.0160  145.9190 C   0  0  0  0  0  2  0  0  0  0  0  0
  160.3870  203.3180  144.8170 N   0  0  0  0  0  2  0  0  0  0  0  0
  160.2750  202.0050  145.3860 C   0  0  0  0  0  0  0  0  0  0  0  0
  161.3860  204.3110  145.0900 C   0  0  0  0  0  0  0  0  0  0  0  0
  161.2700  205.4510  144.5640 O   0  0  0  0  0  0  0  0  0  0  0  0
  159.3800  201.1990  144.9100 N   0  0  0  0  0  2  0  0  0  0  0  0
  160.4150  201.8300  147.8620 C   0  0  0  0  0  1  0  0  0  0  0  0
  161.1210  201.5710  146.5450 C   0  0  0  0  0  3  0  0  0  0  0  0
  161.4920  200.1040  146.4330 C   0  0  0  0  0  1  0  0  0  0  0  0
  160.0280  212.5450  150.7450 C   0  0  0  0  0  0  0  0  0  0  0  0
  161.3220  214.4520  150.3580 O   0  0  0  0  0  1  0  0  0  0  0  0
  159.5200  211.6640  151.5650 C   0  0  0  0  0  3  0  0  0  0  0  0
  160.5190  213.4130  149.9030 C   0  0  0  0  0  0  0  0  0  0  0  0
  160.2350  213.2720  148.4490 C   0  0  0  0  0  2  0  0  0  0  0  0
  160.9750  214.2770  147.7030 N   0  0  0  0  0  2  0  0  0  0  0  0
  160.3580  214.3580  146.3900 C   0  0  0  0  0  2  0  0  0  0  0  0
  160.4810  213.5190  144.1820 F   0  0  0  0  0  0  0  0  0  0  0  0
  160.9200  213.2860  145.4710 C   0  0  0  0  0  0  0  0  0  0  0  0
  162.3030  213.3210  145.4930 F   0  0  0  0  0  0  0  0  0  0  0  0
  160.4850  212.0390  145.8800 F   0  0  0  0  0  0  0  0  0  0  0  0
  162.1970  208.4000  156.7810 C   0  0  0  0  0  2  0  0  0  0  0  0
  160.7590  208.3700  157.2570 C   0  0  0  0  0  2  0  0  0  0  0  0
  159.0080  206.9310  156.2610 C   0  0  0  0  0  1  0  0  0  0  0  0
  160.2280  206.9560  157.1610 C   0  0  0  0  0  2  0  0  0  0  0  0
  1  4  1  0  0  0  0
  2  3  1  0  0  0  0
  3  7  2  0  0  0  0
  5  8  2  0  0  0  0
  6 14  1  0  0  0  0
  7 10  1  0  0  0  0
  8  9  1  0  0  0  0
  8  1  1  0  0  0  0
 10 41  1  0  0  0  0
 11  5  1  0  0  0  0
 11 13  1  0  0  0  0
 12  6  1  0  0  0  0
 12  2  2  0  0  0  0
 13  1  2  0  0  0  0
 13  6  1  0  0  0  0
 14  4  1  6  0  0  0
 14  7  1  0  0  0  0
 15 16  1  0  0  0  0
 16  5  1  0  0  0  0
 17 19  1  0  0  0  0
 18 20  1  0  0  0  0
 18 15  1  0  0  0  0
 19 16  1  0  0  0  0
 20 17  1  0  0  0  0
 21 20  1  0  0  0  0
 22 24  1  0  0  0  0
 22 23  1  0  0  0  0
 23 28  1  0  0  0  0
 24 21  1  0  0  0  0
 25 24  2  0  0  0  0
 26 23  2  0  0  0  0
 28 27  1  0  0  0  0
 29 28  1  0  0  0  0
 30 32  2  0  0  0  0
 32 12  1  0  0  0  0
 33 31  1  0  0  0  0
 33 30  2  0  0  0  0
 34 33  1  0  0  0  0
 35 34  1  0  0  0  0
 36 35  1  0  0  0  0
 37 38  1  0  0  0  0
 38 39  1  0  0  0  0
 38 40  1  0  0  0  0
 38 36  1  0  0  0  0
 41 42  1  0  0  0  0
 43 44  1  0  0  0  0
 44 42  1  0  0  0  0
M  END
>  <MODEL>
6

>  <REMARK>
 VINA RESULT:      -2.2      3.935      7.314
  Name = 
  12 active torsions:
  status: ('A' for Active; 'I' for Inactive)
    1  A    between atoms: N_4  and  C_19
    2  A    between atoms: N_4  and  C_26
    3  A    between atoms: C_8  and  N_30
    4  A    between atoms: C_8  and  C_42
    5  A    between atoms: C_10  and  C_26
    6  A    between atoms: C_12  and  C_32
    7  A    between atoms: C_15  and  C_24
    8  A    between atoms: C_17  and  C_20
    9  A    between atoms: C_17  and  N_44
   10  A    between atoms: C_19  and  C_41
   11  A    between atoms: C_22  and  C_42
   12  A    between atoms: C_31  and  C_38
                            x       y       z     vdW  Elec       q    Type
                         _______ _______ _______ _____ _____    ______ ____

>  <TORSDO>
F 12

$$$$
