=
 OpenBabel11052410173D

 57 62  0  0  1  0  0  0  0  0999 V2000
  161.2080  207.4870  149.8710 C   0  0  1  0  0  3  0  0  0  0  0  0
  162.1680  208.5830  149.4570 C   0  0  1  0  0  3  0  0  0  0  0  0
  162.4940  207.1160  149.1570 C   0  0  2  0  0  3  0  0  0  0  0  0
  161.6430  204.1140  145.8030 C   0  0  0  0  0  0  0  0  0  0  0  0
  160.8010  206.2070  147.5640 C   0  0  1  0  0  3  0  0  0  0  0  0
  159.6530  206.9330  146.8810 C   0  0  0  0  0  2  0  0  0  0  0  0
  160.6360  204.9340  145.6330 N   0  0  0  0  0  0  0  0  0  0  0  0
  162.9120  204.5040  146.5260 C   0  0  0  0  0  3  0  0  0  0  0  0
  160.7380  206.3150  146.0510 C   0  0  2  0  0  3  0  0  0  0  0  0
  162.2180  206.6950  147.7140 C   0  0  2  0  0  3  0  0  0  0  0  0
  163.1650  205.5690  147.3300 C   0  0  0  0  0  3  0  0  0  0  0  0
  161.5130  202.8180  145.3000 O   0  0  0  0  0  0  0  0  0  0  0  0
  160.7580  201.8130  145.9580 C   0  0  0  0  0  1  0  0  0  0  0  0
  161.6500  206.5780  154.0890 C   0  0  0  0  0  1  0  0  0  0  0  0
  160.9520  207.7870  153.6770 N   0  0  0  0  0  0  0  0  0  0  0  0
  160.7900  208.0920  152.2840 C   0  0  0  0  0  0  0  0  0  0  0  0
  161.3600  207.2320  151.2920 N   0  0  0  0  0  2  0  0  0  0  0  0
  160.1430  209.1150  151.9310 O   0  0  0  0  0  0  0  0  0  0  0  0
  160.2880  208.5940  154.6980 C   0  0  0  0  0  2  0  0  0  0  0  0
  160.3970  210.5290  156.2310 C   0  0  1  0  0  3  0  0  0  0  0  0
  161.0500  209.8810  155.0230 C   0  0  1  0  0  0  0  0  0  0  0  0
  162.4520  209.5730  155.5210 C   0  0  0  0  0  2  0  0  0  0  0  0
  161.1500  210.7910  153.8010 C   0  0  0  0  0  1  0  0  0  0  0  0
  161.5300  210.7200  157.2080 C   0  0  0  0  0  2  0  0  0  0  0  0
  162.5060  209.7590  156.9140 O   0  0  0  0  0  0  0  0  0  0  0  0
  159.4860  214.1660  155.9990 C   0  0  0  0  0  3  0  0  0  0  0  0
  158.3290  211.7040  155.4520 C   0  0  0  0  0  3  0  0  0  0  0  0
  158.1910  214.1170  155.4750 C   0  0  0  0  0  3  0  0  0  0  0  0
  160.1660  213.0130  156.2400 N   0  0  0  0  0  0  0  0  0  0  0  0
  157.6140  212.8760  155.1990 C   0  0  0  0  0  3  0  0  0  0  0  0
  159.6150  211.7900  155.9890 C   0  0  0  0  0  0  0  0  0  0  0  0
  161.6110  209.2890  148.3090 N   0  0  0  0  0  2  0  0  0  0  0  0
  161.5970  210.7020  148.6370 C   0  0  1  0  0  3  0  0  0  0  0  0
  162.4760  210.9500  149.8480 C   0  0  0  0  0  1  0  0  0  0  0  0
  162.0950  211.4950  147.4340 C   0  0  0  0  0  2  0  0  0  0  0  0
  160.3150  214.3940  146.1090 O   0  0  0  0  0  0  0  0  0  0  0  0
  161.4770  212.8160  147.3830 N   0  0  0  0  0  0  0  0  0  0  0  0
  160.6700  213.1930  146.2540 C   0  0  0  0  0  0  0  0  0  0  0  0
  158.9760  211.6950  145.5080 O   0  0  0  0  0  1  0  0  0  0  0  0
  160.2580  212.1760  145.2300 C   0  0  1  0  0  3  0  0  0  0  0  0
  160.5360  214.4520  139.6110 Cl  0  0  0  0  0  0  0  0  0  0  0  0
  159.1560  213.0560  143.1530 C   0  0  0  0  0  3  0  0  0  0  0  0
  161.5750  212.9200  143.2210 C   0  0  0  0  0  0  0  0  0  0  0  0
  160.4530  213.7880  141.2420 C   0  0  0  0  0  0  0  0  0  0  0  0
  162.7010  212.5630  143.8890 F   0  0  0  0  0  0  0  0  0  0  0  0
  160.3300  212.7250  143.8370 C   0  0  0  0  0  0  0  0  0  0  0  0
  161.6450  213.4700  141.9200 C   0  0  0  0  0  0  0  0  0  0  0  0
  159.2090  213.5770  141.8600 C   0  0  0  0  0  0  0  0  0  0  0  0
  163.4640  212.8400  140.3210 C   0  0  0  0  0  1  0  0  0  0  0  0
  162.8630  213.7160  141.2660 O   0  0  0  0  0  0  0  0  0  0  0  0
  157.9280  213.9140  141.1680 C   0  0  0  0  0  2  0  0  0  0  0  0
  155.9240  212.6500  139.6410 C   0  0  0  0  0  1  0  0  0  0  0  0
  157.7070  212.8780  139.7090 S   0  0  2  0  0  0  0  0  0  0  0  0
  158.2120  211.5140  140.1570 O   0  0  0  0  0  0  0  0  0  0  0  0
  161.7460  213.7590  148.4680 C   0  0  0  0  0  2  0  0  0  0  0  0
  160.6600  213.6850  149.5300 C   0  0  0  0  0  2  0  0  0  0  0  0
  159.4740  214.3920  149.0790 N   0  0  0  0  0  1  0  0  0  0  0  0
  1 17  1  1  0  0  0
  2 32  1  6  0  0  0
  2  1  1  0  0  0  0
  3 10  1  6  0  0  0
  3  2  1  0  0  0  0
  3  1  1  0  0  0  0
  4  8  1  0  0  0  0
  5  6  1  1  0  0  0
  5 10  1  0  0  0  0
  7  4  2  0  0  0  0
  7  9  1  0  0  0  0
  8 11  2  0  0  0  0
  9  6  1  1  0  0  0
  9  5  1  0  0  0  0
 10 11  1  1  0  0  0
 12  4  1  0  0  0  0
 12 13  1  0  0  0  0
 15 14  1  0  0  0  0
 15 19  1  0  0  0  0
 16 15  1  0  0  0  0
 17 16  1  0  0  0  0
 18 16  2  0  0  0  0
 19 21  1  0  0  0  0
 20 31  1  6  0  0  0
 20 24  1  0  0  0  0
 21 23  1  6  0  0  0
 21 22  1  0  0  0  0
 21 20  1  0  0  0  0
 22 25  1  0  0  0  0
 25 24  1  0  0  0  0
 26 29  1  0  0  0  0
 27 31  1  0  0  0  0
 28 26  2  0  0  0  0
 30 27  2  0  0  0  0
 30 28  1  0  0  0  0
 31 29  2  0  0  0  0
 32 33  1  0  0  0  0
 33 34  1  1  0  0  0
 35 33  1  0  0  0  0
 36 38  2  0  0  0  0
 37 35  1  0  0  0  0
 37 55  1  0  0  0  0
 38 37  1  0  0  0  0
 40 39  1  1  0  0  0
 40 38  1  0  0  0  0
 41 44  1  0  0  0  0
 42 46  1  0  0  0  0
 43 46  2  0  0  0  0
 43 45  1  0  0  0  0
 44 48  1  0  0  0  0
 44 47  2  0  0  0  0
 46 40  1  0  0  0  0
 47 43  1  0  0  0  0
 48 42  2  0  0  0  0
 49 50  1  0  0  0  0
 50 47  1  0  0  0  0
 51 48  1  0  0  0  0
 53 52  1  1  0  0  0
 53 54  2  0  0  0  0
 53 51  1  0  0  0  0
 55 56  1  0  0  0  0
 57 56  1  0  0  0  0
M  END
>  <MODEL>
1

>  <REMARK>
 VINA RESULT:      -4.1      0.000      0.000
  Name = 
  17 active torsions:
  status: ('A' for Active; 'I' for Inactive)
    1  A    between atoms: C_5  and  O_8
    2  A    between atoms: N_7  and  C_11
    3  A    between atoms: C_11  and  C_30
    4  A    between atoms: C_12  and  N_47
    5  A    between atoms: C_12  and  C_55
    6  A    between atoms: C_14  and  C_24
    7  A    between atoms: C_14  and  C_35
    8  A    between atoms: N_16  and  C_44
    9  A    between atoms: N_16  and  C_55
   10  A    between atoms: C_19  and  C_57
   11  A    between atoms: C_22  and  N_41
   12  A    between atoms: C_33  and  C_44
   13  A    between atoms: S_34  and  C_43
   14  A    between atoms: C_38  and  N_47
   15  A    between atoms: C_39  and  O_48
   16  A    between atoms: C_43  and  C_45
   17  A    between atoms: C_50  and  C_52
                            x       y       z     vdW  Elec       q    Type
                         _______ _______ _______ _____ _____    ______ ____

>  <TORSDO>
F 17

$$$$
=
 OpenBabel11052410173D

 57 62  0  0  1  0  0  0  0  0999 V2000
  159.1970  213.1970  151.4580 C   0  0  1  0  0  3  0  0  0  0  0  0
  159.9410  212.4010  152.5110 C   0  0  1  0  0  3  0  0  0  0  0  0
  159.6500  213.8890  152.7310 C   0  0  2  0  0  3  0  0  0  0  0  0
  156.0260  212.7360  155.2860 C   0  0  0  0  0  0  0  0  0  0  0  0
  158.7320  213.6340  155.0390 C   0  0  1  0  0  3  0  0  0  0  0  0
  159.0500  214.4470  156.2830 C   0  0  0  0  0  2  0  0  0  0  0  0
  156.7200  213.4090  156.1700 N   0  0  0  0  0  0  0  0  0  0  0  0
  156.2140  212.8940  153.7940 C   0  0  0  0  0  3  0  0  0  0  0  0
  157.6510  214.4310  155.7450 C   0  0  2  0  0  3  0  0  0  0  0  0
  158.4640  214.1650  153.6550 C   0  0  2  0  0  3  0  0  0  0  0  0
  157.2240  213.4780  153.1000 C   0  0  0  0  0  3  0  0  0  0  0  0
  155.0820  211.8240  155.7630 O   0  0  0  0  0  0  0  0  0  0  0  0
  155.2140  210.4230  155.5850 C   0  0  0  0  0  1  0  0  0  0  0  0
  162.0060  214.2900  148.3390 C   0  0  0  0  0  1  0  0  0  0  0  0
  160.6000  214.1000  148.0150 N   0  0  0  0  0  0  0  0  0  0  0  0
  159.6600  213.7490  149.0410 C   0  0  0  0  0  0  0  0  0  0  0  0
  160.1120  213.5340  150.3820 N   0  0  0  0  0  2  0  0  0  0  0  0
  158.4350  213.6340  148.7640 O   0  0  0  0  0  0  0  0  0  0  0  0
  160.1420  214.4270  146.6660 C   0  0  0  0  0  2  0  0  0  0  0  0
  160.9420  214.2010  144.3390 C   0  0  1  0  0  3  0  0  0  0  0  0
  160.6440  213.4340  145.6140 C   0  0  1  0  0  0  0  0  0  0  0  0
  162.0030  212.8740  145.9980 C   0  0  0  0  0  2  0  0  0  0  0  0
  159.6670  212.2740  145.4360 C   0  0  0  0  0  1  0  0  0  0  0  0
  162.3670  213.8330  144.0080 C   0  0  0  0  0  2  0  0  0  0  0  0
  162.9980  213.4760  145.2070 O   0  0  0  0  0  0  0  0  0  0  0  0
  157.8570  214.2870  142.1960 C   0  0  0  0  0  3  0  0  0  0  0  0
  160.4740  213.3840  142.0200 C   0  0  0  0  0  3  0  0  0  0  0  0
  158.2920  213.6690  141.0210 C   0  0  0  0  0  3  0  0  0  0  0  0
  158.7130  214.4390  143.2430 N   0  0  0  0  0  0  0  0  0  0  0  0
  159.6110  213.2180  140.9360 C   0  0  0  0  0  3  0  0  0  0  0  0
  160.0020  213.9940  143.1830 C   0  0  0  0  0  0  0  0  0  0  0  0
  158.9950  211.5280  153.1960 N   0  0  0  0  0  2  0  0  0  0  0  0
  159.6280  211.0870  154.4250 C   0  0  1  0  0  3  0  0  0  0  0  0
  158.8150  209.9620  155.0380 C   0  0  0  0  0  1  0  0  0  0  0  0
  161.0470  210.6240  154.1150 C   0  0  0  0  0  2  0  0  0  0  0  0
  161.1560  207.0130  153.5890 O   0  0  0  0  0  0  0  0  0  0  0  0
  161.2110  209.2030  154.4040 N   0  0  0  0  0  0  0  0  0  0  0  0
  161.2280  208.2450  153.3320 C   0  0  0  0  0  0  0  0  0  0  0  0
  162.3430  209.6210  151.7400 O   0  0  0  0  0  1  0  0  0  0  0  0
  161.3120  208.6930  151.9020 C   0  0  1  0  0  3  0  0  0  0  0  0
  161.9530  203.9940  148.1140 Cl  0  0  0  0  0  0  0  0  0  0  0  0
  161.6490  206.2430  151.4680 C   0  0  0  0  0  3  0  0  0  0  0  0
  161.4660  207.7470  149.5770 C   0  0  0  0  0  0  0  0  0  0  0  0
  161.7700  205.3580  149.2150 C   0  0  0  0  0  0  0  0  0  0  0  0
  161.3370  209.0130  149.1060 F   0  0  0  0  0  0  0  0  0  0  0  0
  161.4840  207.5370  150.9630 C   0  0  0  0  0  0  0  0  0  0  0  0
  161.5940  206.6520  148.6900 C   0  0  0  0  0  0  0  0  0  0  0  0
  161.8000  205.1570  150.6060 C   0  0  0  0  0  0  0  0  0  0  0  0
  160.4240  206.5020  146.4840 C   0  0  0  0  0  1  0  0  0  0  0  0
  161.5530  206.7980  147.2940 O   0  0  0  0  0  0  0  0  0  0  0  0
  161.9760  203.7940  151.1930 C   0  0  0  0  0  2  0  0  0  0  0  0
  160.8520  201.3230  150.4310 C   0  0  0  0  0  1  0  0  0  0  0  0
  160.4120  202.8960  151.1840 S   0  0  2  0  0  0  0  0  0  0  0  0
  159.6070  203.5880  150.0940 O   0  0  0  0  0  0  0  0  0  0  0  0
  161.2960  208.7770  155.8000 C   0  0  0  0  0  2  0  0  0  0  0  0
  162.3800  209.5490  156.5360 C   0  0  0  0  0  2  0  0  0  0  0  0
  161.8000  210.6900  157.2230 N   0  0  0  0  0  1  0  0  0  0  0  0
  1 17  1  6  0  0  0
  1  2  1  0  0  0  0
  1  3  1  0  0  0  0
  2  3  1  0  0  0  0
  2 32  1  1  0  0  0
  3 10  1  1  0  0  0
  4 12  1  0  0  0  0
  4  7  2  0  0  0  0
  5  9  1  0  0  0  0
  5  6  1  1  0  0  0
  8  4  1  0  0  0  0
  9  7  1  0  0  0  0
  9  6  1  1  0  0  0
 10 11  1  6  0  0  0
 10  5  1  0  0  0  0
 11  8  2  0  0  0  0
 13 12  1  0  0  0  0
 15 14  1  0  0  0  0
 15 16  1  0  0  0  0
 16 17  1  0  0  0  0
 18 16  2  0  0  0  0
 19 15  1  0  0  0  0
 20 31  1  6  0  0  0
 20 21  1  0  0  0  0
 21 23  1  6  0  0  0
 21 22  1  0  0  0  0
 21 19  1  0  0  0  0
 24 20  1  0  0  0  0
 24 25  1  0  0  0  0
 25 22  1  0  0  0  0
 26 29  1  0  0  0  0
 27 31  1  0  0  0  0
 28 26  2  0  0  0  0
 30 28  1  0  0  0  0
 30 27  2  0  0  0  0
 31 29  2  0  0  0  0
 32 33  1  0  0  0  0
 33 34  1  6  0  0  0
 35 37  1  0  0  0  0
 35 33  1  0  0  0  0
 37 55  1  0  0  0  0
 38 36  2  0  0  0  0
 38 37  1  0  0  0  0
 40 39  1  1  0  0  0
 40 38  1  0  0  0  0
 41 44  1  0  0  0  0
 43 46  2  0  0  0  0
 44 48  1  0  0  0  0
 45 43  1  0  0  0  0
 46 42  1  0  0  0  0
 46 40  1  0  0  0  0
 47 44  2  0  0  0  0
 47 43  1  0  0  0  0
 48 51  1  0  0  0  0
 48 42  2  0  0  0  0
 49 50  1  0  0  0  0
 50 47  1  0  0  0  0
 53 52  1  6  0  0  0
 53 51  1  0  0  0  0
 54 53  2  0  0  0  0
 55 56  1  0  0  0  0
 56 57  1  0  0  0  0
M  END
>  <MODEL>
2

>  <REMARK>
 VINA RESULT:      -3.3      3.920     10.905
  Name = 
  17 active torsions:
  status: ('A' for Active; 'I' for Inactive)
    1  A    between atoms: C_5  and  O_8
    2  A    between atoms: N_7  and  C_11
    3  A    between atoms: C_11  and  C_30
    4  A    between atoms: C_12  and  N_47
    5  A    between atoms: C_12  and  C_55
    6  A    between atoms: C_14  and  C_24
    7  A    between atoms: C_14  and  C_35
    8  A    between atoms: N_16  and  C_44
    9  A    between atoms: N_16  and  C_55
   10  A    between atoms: C_19  and  C_57
   11  A    between atoms: C_22  and  N_41
   12  A    between atoms: C_33  and  C_44
   13  A    between atoms: S_34  and  C_43
   14  A    between atoms: C_38  and  N_47
   15  A    between atoms: C_39  and  O_48
   16  A    between atoms: C_43  and  C_45
   17  A    between atoms: C_50  and  C_52
                            x       y       z     vdW  Elec       q    Type
                         _______ _______ _______ _____ _____    ______ ____

>  <TORSDO>
F 17

$$$$
=
 OpenBabel11052410173D

 57 62  0  0  1  0  0  0  0  0999 V2000
  160.2770  214.0720  149.8890 C   0  0  1  0  0  3  0  0  0  0  0  0
  160.0140  212.6410  149.4670 C   0  0  1  0  0  3  0  0  0  0  0  0
  159.0020  213.7420  149.1340 C   0  0  2  0  0  3  0  0  0  0  0  0
  160.4980  213.7180  144.8040 C   0  0  0  0  0  0  0  0  0  0  0  0
  158.4530  213.2470  146.7500 C   0  0  1  0  0  3  0  0  0  0  0  0
  157.1170  213.3760  146.0360 C   0  0  0  0  0  2  0  0  0  0  0  0
  159.2060  213.6640  144.5960 N   0  0  0  0  0  0  0  0  0  0  0  0
  161.1080  214.2240  146.0920 C   0  0  0  0  0  3  0  0  0  0  0  0
  158.2850  214.1960  145.5770 C   0  0  2  0  0  3  0  0  0  0  0  0
  159.0750  214.2440  147.6920 C   0  0  2  0  0  3  0  0  0  0  0  0
  160.5320  214.4420  147.3020 C   0  0  0  0  0  3  0  0  0  0  0  0
  161.3360  213.2670  143.7820 O   0  0  0  0  0  0  0  0  0  0  0  0
  161.0370  213.4550  142.4080 C   0  0  0  0  0  1  0  0  0  0  0  0
  159.5000  214.4530  154.1390 C   0  0  0  0  0  1  0  0  0  0  0  0
  158.4290  214.0490  153.2400 N   0  0  0  0  0  0  0  0  0  0  0  0
  158.6780  213.9100  151.8330 C   0  0  0  0  0  0  0  0  0  0  0  0
  159.9710  214.2160  151.3010 N   0  0  0  0  0  2  0  0  0  0  0  0
  157.7600  213.5130  151.0650 O   0  0  0  0  0  0  0  0  0  0  0  0
  157.1500  213.6400  153.8140 C   0  0  0  0  0  2  0  0  0  0  0  0
  157.5710  212.4300  155.9270 C   0  0  1  0  0  3  0  0  0  0  0  0
  157.2080  212.2540  154.4630 C   0  0  1  0  0  0  0  0  0  0  0  0
  155.8270  211.6260  154.5290 C   0  0  0  0  0  2  0  0  0  0  0  0
  158.1390  211.3200  153.6940 C   0  0  0  0  0  1  0  0  0  0  0  0
  156.4790  211.7020  156.6700 C   0  0  0  0  0  2  0  0  0  0  0  0
  155.3440  211.6940  155.8490 O   0  0  0  0  0  0  0  0  0  0  0  0
  161.0820  212.5230  157.2590 C   0  0  0  0  0  3  0  0  0  0  0  0
  159.2970  210.6490  156.2600 C   0  0  0  0  0  3  0  0  0  0  0  0
  161.4690  211.1830  157.1770 C   0  0  0  0  0  3  0  0  0  0  0  0
  159.8410  212.9000  156.8490 N   0  0  0  0  0  0  0  0  0  0  0  0
  160.5660  210.2430  156.6750 C   0  0  0  0  0  3  0  0  0  0  0  0
  158.9500  211.9980  156.3440 C   0  0  0  0  0  0  0  0  0  0  0  0
  160.8880  212.3120  148.3480 N   0  0  0  0  0  2  0  0  0  0  0  0
  161.7350  211.2130  148.7700 C   0  0  1  0  0  3  0  0  0  0  0  0
  163.1610  211.7050  148.9300 C   0  0  0  0  0  1  0  0  0  0  0  0
  161.2040  210.6540  150.0850 C   0  0  0  0  0  2  0  0  0  0  0  0
  162.7810  207.4490  150.8410 O   0  0  0  0  0  0  0  0  0  0  0  0
  162.1350  209.6880  150.6600 N   0  0  0  0  0  0  0  0  0  0  0  0
  162.1340  208.3240  150.2040 C   0  0  0  0  0  0  0  0  0  0  0  0
  161.8120  208.6100  147.8630 O   0  0  0  0  0  1  0  0  0  0  0  0
  161.3540  207.9210  148.9870 C   0  0  1  0  0  3  0  0  0  0  0  0
  161.6020  201.9250  148.0780 Cl  0  0  0  0  0  0  0  0  0  0  0  0
  162.0080  205.9270  147.6090 C   0  0  0  0  0  3  0  0  0  0  0  0
  160.8470  205.5640  149.7050 C   0  0  0  0  0  0  0  0  0  0  0  0
  161.5270  203.6670  148.3390 C   0  0  0  0  0  0  0  0  0  0  0  0
  160.2330  206.0820  150.7990 F   0  0  0  0  0  0  0  0  0  0  0  0
  161.4000  206.4400  148.7590 C   0  0  0  0  0  0  0  0  0  0  0  0
  160.9210  204.1660  149.5070 C   0  0  0  0  0  0  0  0  0  0  0  0
  162.0680  204.5510  147.3900 C   0  0  0  0  0  0  0  0  0  0  0  0
  160.8210  203.1510  151.7920 C   0  0  0  0  0  1  0  0  0  0  0  0
  160.4120  203.2410  150.4330 O   0  0  0  0  0  0  0  0  0  0  0  0
  162.7260  204.0510  146.1440 C   0  0  0  0  0  2  0  0  0  0  0  0
  160.6130  205.4220  144.8790 C   0  0  0  0  0  1  0  0  0  0  0  0
  161.5150  203.8680  144.8200 S   0  0  2  0  0  0  0  0  0  0  0  0
  160.5160  202.8660  145.3830 O   0  0  0  0  0  0  0  0  0  0  0  0
  163.0180  210.1240  151.7420 C   0  0  0  0  0  2  0  0  0  0  0  0
  162.2210  210.4230  153.0020 C   0  0  0  0  0  2  0  0  0  0  0  0
  161.5880  209.2110  153.4910 N   0  0  0  0  0  1  0  0  0  0  0  0
  1 17  1  1  0  0  0
  2 32  1  6  0  0  0
  2  1  1  0  0  0  0
  3 10  1  6  0  0  0
  3  2  1  0  0  0  0
  3  1  1  0  0  0  0
  4  8  1  0  0  0  0
  5  6  1  1  0  0  0
  5 10  1  0  0  0  0
  7  4  2  0  0  0  0
  7  9  1  0  0  0  0
  8 11  2  0  0  0  0
  9  6  1  6  0  0  0
  9  5  1  0  0  0  0
 10 11  1  6  0  0  0
 12  4  1  0  0  0  0
 13 12  1  0  0  0  0
 15 19  1  0  0  0  0
 15 14  1  0  0  0  0
 16 15  1  0  0  0  0
 17 16  1  0  0  0  0
 18 16  2  0  0  0  0
 19 21  1  0  0  0  0
 20 31  1  6  0  0  0
 20 24  1  0  0  0  0
 21 23  1  6  0  0  0
 21 22  1  0  0  0  0
 21 20  1  0  0  0  0
 22 25  1  0  0  0  0
 25 24  1  0  0  0  0
 27 31  2  0  0  0  0
 27 30  1  0  0  0  0
 28 26  1  0  0  0  0
 29 26  2  0  0  0  0
 30 28  2  0  0  0  0
 31 29  1  0  0  0  0
 32 33  1  0  0  0  0
 33 34  1  1  0  0  0
 33 35  1  0  0  0  0
 35 37  1  0  0  0  0
 37 55  1  0  0  0  0
 38 37  1  0  0  0  0
 38 36  2  0  0  0  0
 40 39  1  6  0  0  0
 40 38  1  0  0  0  0
 41 44  1  0  0  0  0
 42 46  1  0  0  0  0
 43 45  1  0  0  0  0
 44 47  2  0  0  0  0
 46 40  1  0  0  0  0
 46 43  2  0  0  0  0
 47 43  1  0  0  0  0
 47 50  1  0  0  0  0
 48 42  2  0  0  0  0
 48 44  1  0  0  0  0
 50 49  1  0  0  0  0
 51 48  1  0  0  0  0
 53 52  1  1  0  0  0
 53 54  2  0  0  0  0
 53 51  1  0  0  0  0
 55 56  1  0  0  0  0
 56 57  1  0  0  0  0
M  END
>  <MODEL>
3

>  <REMARK>
 VINA RESULT:      -2.4      3.714      8.031
  Name = 
  17 active torsions:
  status: ('A' for Active; 'I' for Inactive)
    1  A    between atoms: C_5  and  O_8
    2  A    between atoms: N_7  and  C_11
    3  A    between atoms: C_11  and  C_30
    4  A    between atoms: C_12  and  N_47
    5  A    between atoms: C_12  and  C_55
    6  A    between atoms: C_14  and  C_24
    7  A    between atoms: C_14  and  C_35
    8  A    between atoms: N_16  and  C_44
    9  A    between atoms: N_16  and  C_55
   10  A    between atoms: C_19  and  C_57
   11  A    between atoms: C_22  and  N_41
   12  A    between atoms: C_33  and  C_44
   13  A    between atoms: S_34  and  C_43
   14  A    between atoms: C_38  and  N_47
   15  A    between atoms: C_39  and  O_48
   16  A    between atoms: C_43  and  C_45
   17  A    between atoms: C_50  and  C_52
                            x       y       z     vdW  Elec       q    Type
                         _______ _______ _______ _____ _____    ______ ____

>  <TORSDO>
F 17

$$$$
=
 OpenBabel11052410173D

 57 62  0  0  1  0  0  0  0  0999 V2000
  161.4760  207.3200  154.1270 C   0  0  1  0  0  3  0  0  0  0  0  0
  160.4790  208.2920  153.5320 C   0  0  1  0  0  3  0  0  0  0  0  0
  160.2250  207.6740  154.9100 C   0  0  2  0  0  3  0  0  0  0  0  0
  162.6650  210.8610  157.1180 C   0  0  0  0  0  0  0  0  0  0  0  0
  160.3140  210.0370  155.7100 C   0  0  1  0  0  3  0  0  0  0  0  0
  159.1740  210.9230  156.1850 C   0  0  0  0  0  2  0  0  0  0  0  0
  161.4760  211.4070  157.1760 N   0  0  0  0  0  0  0  0  0  0  0  0
  162.8850  209.3830  156.8910 C   0  0  0  0  0  3  0  0  0  0  0  0
  160.2890  210.5820  157.1260 C   0  0  2  0  0  3  0  0  0  0  0  0
  160.5570  208.5980  156.0820 C   0  0  2  0  0  3  0  0  0  0  0  0
  162.0220  208.4300  156.4550 C   0  0  0  0  0  3  0  0  0  0  0  0
  163.7710  211.7030  157.2580 O   0  0  0  0  0  0  0  0  0  0  0  0
  164.6690  211.9700  156.1930 C   0  0  0  0  0  1  0  0  0  0  0  0
  160.9800  203.3670  152.4110 C   0  0  0  0  0  1  0  0  0  0  0  0
  161.5320  204.4440  151.6030 N   0  0  0  0  0  0  0  0  0  0  0  0
  161.7100  205.7530  152.1640 C   0  0  0  0  0  0  0  0  0  0  0  0
  161.2990  206.0180  153.5090 N   0  0  0  0  0  2  0  0  0  0  0  0
  162.2320  206.6700  151.4750 O   0  0  0  0  0  0  0  0  0  0  0  0
  162.0420  204.1290  150.2710 C   0  0  0  0  0  2  0  0  0  0  0  0
  161.5430  203.2010  148.0350 C   0  0  1  0  0  3  0  0  0  0  0  0
  160.9250  203.8530  149.2600 C   0  0  1  0  0  0  0  0  0  0  0  0
  159.9790  202.7810  149.7730 C   0  0  0  0  0  2  0  0  0  0  0  0
  160.1220  205.1170  148.9600 C   0  0  0  0  0  1  0  0  0  0  0  0
  160.7470  201.9340  147.8480 C   0  0  0  0  0  2  0  0  0  0  0  0
  160.2310  201.5720  149.0990 O   0  0  0  0  0  0  0  0  0  0  0  0
  161.0210  204.3910  144.5110 C   0  0  0  0  0  3  0  0  0  0  0  0
  162.3010  205.2510  146.8160 C   0  0  0  0  0  3  0  0  0  0  0  0
  161.7050  205.6090  144.5010 C   0  0  0  0  0  3  0  0  0  0  0  0
  160.9880  203.6360  145.6420 N   0  0  0  0  0  0  0  0  0  0  0  0
  162.3460  206.0390  145.6650 C   0  0  0  0  0  3  0  0  0  0  0  0
  161.6190  204.0340  146.7850 C   0  0  0  0  0  0  0  0  0  0  0  0
  161.0340  209.6390  153.6040 N   0  0  0  0  0  2  0  0  0  0  0  0
  160.4420  210.4080  152.5260 C   0  0  1  0  0  3  0  0  0  0  0  0
  158.9310  210.3990  152.6670 C   0  0  0  0  0  1  0  0  0  0  0  0
  160.9820  211.8330  152.5790 C   0  0  0  0  0  2  0  0  0  0  0  0
  159.7440  213.9550  149.8790 O   0  0  0  0  0  0  0  0  0  0  0  0
  160.1150  212.7520  151.8480 N   0  0  0  0  0  0  0  0  0  0  0  0
  160.3510  213.0110  150.4530 C   0  0  0  0  0  0  0  0  0  0  0  0
  161.1270  210.8240  149.9190 O   0  0  0  0  0  1  0  0  0  0  0  0
  161.3300  212.1840  149.6720 C   0  0  1  0  0  3  0  0  0  0  0  0
  161.0270  213.4160  143.7370 Cl  0  0  0  0  0  0  0  0  0  0  0  0
  160.0180  212.5890  147.5710 C   0  0  0  0  0  3  0  0  0  0  0  0
  162.4380  212.6450  147.4620 C   0  0  0  0  0  0  0  0  0  0  0  0
  161.1140  213.0540  145.4600 C   0  0  0  0  0  0  0  0  0  0  0  0
  163.6330  212.4980  148.0870 F   0  0  0  0  0  0  0  0  0  0  0  0
  161.2600  212.4740  148.2030 C   0  0  0  0  0  0  0  0  0  0  0  0
  162.3720  212.9530  146.0830 C   0  0  0  0  0  0  0  0  0  0  0  0
  159.9380  212.8690  146.2060 C   0  0  0  0  0  0  0  0  0  0  0  0
  163.5080  213.7310  143.9940 C   0  0  0  0  0  1  0  0  0  0  0  0
  163.5160  213.1640  145.2980 O   0  0  0  0  0  0  0  0  0  0  0  0
  158.5880  212.9810  145.5740 C   0  0  0  0  0  2  0  0  0  0  0  0
  157.0210  213.3240  147.8930 C   0  0  0  0  0  1  0  0  0  0  0  0
  157.5870  214.2100  146.4340 S   0  0  2  0  0  0  0  0  0  0  0  0
  156.3310  214.3110  145.5810 O   0  0  0  0  0  0  0  0  0  0  0  0
  159.0490  213.4390  152.5750 C   0  0  0  0  0  2  0  0  0  0  0  0
  157.6820  212.9910  152.0830 C   0  0  0  0  0  2  0  0  0  0  0  0
  156.9250  214.1330  151.6030 N   0  0  0  0  0  1  0  0  0  0  0  0
  1 17  1  6  0  0  0
  1  3  1  0  0  0  0
  2 32  1  1  0  0  0
  2  1  1  0  0  0  0
  2  3  1  0  0  0  0
  3 10  1  1  0  0  0
  4  7  2  0  0  0  0
  4 12  1  0  0  0  0
  5 10  1  0  0  0  0
  5  6  1  1  0  0  0
  5  9  1  0  0  0  0
  8  4  1  0  0  0  0
  9  6  1  6  0  0  0
  9  7  1  0  0  0  0
 10 11  1  6  0  0  0
 11  8  2  0  0  0  0
 13 12  1  0  0  0  0
 15 16  1  0  0  0  0
 15 14  1  0  0  0  0
 16 17  1  0  0  0  0
 18 16  2  0  0  0  0
 19 15  1  0  0  0  0
 20 31  1  6  0  0  0
 20 21  1  0  0  0  0
 21 23  1  6  0  0  0
 21 22  1  0  0  0  0
 21 19  1  0  0  0  0
 24 20  1  0  0  0  0
 24 25  1  0  0  0  0
 25 22  1  0  0  0  0
 26 29  1  0  0  0  0
 28 26  2  0  0  0  0
 28 30  1  0  0  0  0
 29 31  2  0  0  0  0
 30 27  2  0  0  0  0
 31 27  1  0  0  0  0
 33 35  1  0  0  0  0
 33 34  1  1  0  0  0
 33 32  1  0  0  0  0
 36 38  2  0  0  0  0
 37 55  1  0  0  0  0
 37 35  1  0  0  0  0
 38 37  1  0  0  0  0
 40 39  1  6  0  0  0
 40 38  1  0  0  0  0
 41 44  1  0  0  0  0
 42 46  1  0  0  0  0
 43 45  1  0  0  0  0
 43 46  2  0  0  0  0
 44 47  2  0  0  0  0
 44 48  1  0  0  0  0
 46 40  1  0  0  0  0
 47 43  1  0  0  0  0
 48 42  2  0  0  0  0
 49 50  1  0  0  0  0
 50 47  1  0  0  0  0
 51 48  1  0  0  0  0
 51 53  1  0  0  0  0
 53 52  1  1  0  0  0
 54 53  2  0  0  0  0
 56 55  1  0  0  0  0
 57 56  1  0  0  0  0
M  END
>  <MODEL>
4

>  <REMARK>
 VINA RESULT:      -2.2      3.004      8.289
  Name = 
  17 active torsions:
  status: ('A' for Active; 'I' for Inactive)
    1  A    between atoms: C_5  and  O_8
    2  A    between atoms: N_7  and  C_11
    3  A    between atoms: C_11  and  C_30
    4  A    between atoms: C_12  and  N_47
    5  A    between atoms: C_12  and  C_55
    6  A    between atoms: C_14  and  C_24
    7  A    between atoms: C_14  and  C_35
    8  A    between atoms: N_16  and  C_44
    9  A    between atoms: N_16  and  C_55
   10  A    between atoms: C_19  and  C_57
   11  A    between atoms: C_22  and  N_41
   12  A    between atoms: C_33  and  C_44
   13  A    between atoms: S_34  and  C_43
   14  A    between atoms: C_38  and  N_47
   15  A    between atoms: C_39  and  O_48
   16  A    between atoms: C_43  and  C_45
   17  A    between atoms: C_50  and  C_52
                            x       y       z     vdW  Elec       q    Type
                         _______ _______ _______ _____ _____    ______ ____

>  <TORSDO>
F 17

$$$$
=
 OpenBabel11052410173D

 57 62  0  0  1  0  0  0  0  0999 V2000
  161.2020  207.5520  152.9830 C   0  0  1  0  0  3  0  0  0  0  0  0
  160.7840  208.9160  152.4760 C   0  0  1  0  0  3  0  0  0  0  0  0
  159.9430  208.1950  153.5330 C   0  0  2  0  0  3  0  0  0  0  0  0
  162.0480  210.6310  156.7930 C   0  0  0  0  0  0  0  0  0  0  0  0
  159.8120  210.1590  155.0690 C   0  0  1  0  0  3  0  0  0  0  0  0
  158.5890  210.7540  155.7480 C   0  0  0  0  0  2  0  0  0  0  0  0
  160.8160  211.0420  156.9640 N   0  0  0  0  0  0  0  0  0  0  0  0
  162.3970  209.3310  156.1050 C   0  0  0  0  0  3  0  0  0  0  0  0
  159.7040  210.1990  156.5830 C   0  0  2  0  0  3  0  0  0  0  0  0
  160.1640  208.6980  154.9600 C   0  0  2  0  0  3  0  0  0  0  0  0
  161.6280  208.5190  155.3340 C   0  0  0  0  0  3  0  0  0  0  0  0
  163.0750  211.4540  157.2600 O   0  0  0  0  0  0  0  0  0  0  0  0
  164.3530  211.5050  156.6470 C   0  0  0  0  0  1  0  0  0  0  0  0
  160.1750  204.4450  150.1360 C   0  0  0  0  0  1  0  0  0  0  0  0
  160.4550  205.7940  149.6670 N   0  0  0  0  0  0  0  0  0  0  0  0
  160.8060  206.8270  150.6000 C   0  0  0  0  0  0  0  0  0  0  0  0
  160.8340  206.5460  152.0020 N   0  0  0  0  0  2  0  0  0  0  0  0
  161.0930  207.9820  150.1850 O   0  0  0  0  0  0  0  0  0  0  0  0
  160.5240  206.0350  148.2280 C   0  0  0  0  0  2  0  0  0  0  0  0
  161.0160  204.2800  146.5590 C   0  0  1  0  0  3  0  0  0  0  0  0
  161.6450  205.2440  147.5490 C   0  0  1  0  0  0  0  0  0  0  0  0
  162.4830  206.1450  146.6580 C   0  0  0  0  0  2  0  0  0  0  0  0
  162.5580  204.5810  148.5770 C   0  0  0  0  0  1  0  0  0  0  0  0
  161.7100  204.5810  145.2540 C   0  0  0  0  0  2  0  0  0  0  0  0
  162.1550  205.9080  145.3100 O   0  0  0  0  0  0  0  0  0  0  0  0
  160.9380  200.5370  146.2560 C   0  0  0  0  0  3  0  0  0  0  0  0
  161.3050  202.4440  148.2360 C   0  0  0  0  0  3  0  0  0  0  0  0
  161.1790  200.1240  147.5690 C   0  0  0  0  0  3  0  0  0  0  0  0
  160.8810  201.8630  145.9570 N   0  0  0  0  0  0  0  0  0  0  0  0
  161.3650  201.0890  148.5620 C   0  0  0  0  0  3  0  0  0  0  0  0
  161.0480  202.8190  146.9160 C   0  0  0  0  0  0  0  0  0  0  0  0
  161.6740  209.9220  153.0430 N   0  0  0  0  0  2  0  0  0  0  0  0
  162.0280  210.8380  151.9750 C   0  0  1  0  0  3  0  0  0  0  0  0
  163.2350  210.3020  151.2280 C   0  0  0  0  0  1  0  0  0  0  0  0
  160.8350  210.9920  151.0380 C   0  0  0  0  0  2  0  0  0  0  0  0
  160.6860  214.3640  149.6480 O   0  0  0  0  0  0  0  0  0  0  0  0
  160.4630  212.3950  150.8870 N   0  0  0  0  0  0  0  0  0  0  0  0
  160.8160  213.1110  149.6910 C   0  0  0  0  0  0  0  0  0  0  0  0
  161.1470  211.0110  148.6180 O   0  0  0  0  0  1  0  0  0  0  0  0
  161.3570  212.3860  148.4930 C   0  0  1  0  0  3  0  0  0  0  0  0
  158.9870  214.4210  143.2890 Cl  0  0  0  0  0  0  0  0  0  0  0  0
  161.6000  213.4030  146.2110 C   0  0  0  0  0  3  0  0  0  0  0  0
  159.3790  212.8680  147.0170 C   0  0  0  0  0  0  0  0  0  0  0  0
  159.6760  213.8340  144.8020 C   0  0  0  0  0  0  0  0  0  0  0  0
  158.5840  212.4070  148.0160 F   0  0  0  0  0  0  0  0  0  0  0  0
  160.7670  212.9010  147.2150 C   0  0  0  0  0  0  0  0  0  0  0  0
  158.8240  213.3220  145.7980 C   0  0  0  0  0  0  0  0  0  0  0  0
  161.0650  213.8760  145.0120 C   0  0  0  0  0  0  0  0  0  0  0  0
  156.4980  214.2070  146.0530 C   0  0  0  0  0  1  0  0  0  0  0  0
  157.4460  213.2850  145.5320 O   0  0  0  0  0  0  0  0  0  0  0  0
  161.9960  214.4050  143.9700 C   0  0  0  0  0  2  0  0  0  0  0  0
  163.0770  213.8320  141.4300 C   0  0  0  0  0  1  0  0  0  0  0  0
  162.7000  213.0530  143.0070 S   0  0  2  0  0  0  0  0  0  0  0  0
  161.4970  212.1790  142.6820 O   0  0  0  0  0  0  0  0  0  0  0  0
  159.7840  213.0640  151.9960 C   0  0  0  0  0  2  0  0  0  0  0  0
  158.3110  212.6860  152.0360 C   0  0  0  0  0  2  0  0  0  0  0  0
  157.6240  213.2330  150.8800 N   0  0  0  0  0  1  0  0  0  0  0  0
  1 17  1  6  0  0  0
  1  3  1  0  0  0  0
  2  1  1  0  0  0  0
  2 32  1  1  0  0  0
  2  3  1  0  0  0  0
  3 10  1  1  0  0  0
  4  7  2  0  0  0  0
  4 12  1  0  0  0  0
  5  6  1  6  0  0  0
  5  9  1  0  0  0  0
  8  4  1  0  0  0  0
  9  6  1  6  0  0  0
  9  7  1  0  0  0  0
 10  5  1  0  0  0  0
 10 11  1  6  0  0  0
 11  8  2  0  0  0  0
 13 12  1  0  0  0  0
 15 14  1  0  0  0  0
 15 16  1  0  0  0  0
 16 17  1  0  0  0  0
 18 16  2  0  0  0  0
 19 15  1  0  0  0  0
 20 31  1  1  0  0  0
 20 21  1  0  0  0  0
 21 19  1  0  0  0  0
 21 23  1  1  0  0  0
 22 21  1  0  0  0  0
 24 25  1  0  0  0  0
 24 20  1  0  0  0  0
 25 22  1  0  0  0  0
 26 28  1  0  0  0  0
 27 30  1  0  0  0  0
 28 30  2  0  0  0  0
 29 26  2  0  0  0  0
 29 31  1  0  0  0  0
 31 27  2  0  0  0  0
 33 34  1  6  0  0  0
 33 32  1  0  0  0  0
 35 33  1  0  0  0  0
 36 38  2  0  0  0  0
 37 35  1  0  0  0  0
 37 55  1  0  0  0  0
 38 37  1  0  0  0  0
 40 39  1  1  0  0  0
 40 38  1  0  0  0  0
 41 44  1  0  0  0  0
 42 46  1  0  0  0  0
 43 46  2  0  0  0  0
 43 45  1  0  0  0  0
 44 48  1  0  0  0  0
 44 47  2  0  0  0  0
 46 40  1  0  0  0  0
 47 43  1  0  0  0  0
 48 42  2  0  0  0  0
 50 47  1  0  0  0  0
 50 49  1  0  0  0  0
 51 48  1  0  0  0  0
 53 52  1  6  0  0  0
 53 51  1  0  0  0  0
 54 53  2  0  0  0  0
 55 56  1  0  0  0  0
 57 56  1  0  0  0  0
M  END
>  <MODEL>
5

>  <REMARK>
 VINA RESULT:      -2.0      2.560      8.397
  Name = 
  17 active torsions:
  status: ('A' for Active; 'I' for Inactive)
    1  A    between atoms: C_5  and  O_8
    2  A    between atoms: N_7  and  C_11
    3  A    between atoms: C_11  and  C_30
    4  A    between atoms: C_12  and  N_47
    5  A    between atoms: C_12  and  C_55
    6  A    between atoms: C_14  and  C_24
    7  A    between atoms: C_14  and  C_35
    8  A    between atoms: N_16  and  C_44
    9  A    between atoms: N_16  and  C_55
   10  A    between atoms: C_19  and  C_57
   11  A    between atoms: C_22  and  N_41
   12  A    between atoms: C_33  and  C_44
   13  A    between atoms: S_34  and  C_43
   14  A    between atoms: C_38  and  N_47
   15  A    between atoms: C_39  and  O_48
   16  A    between atoms: C_43  and  C_45
   17  A    between atoms: C_50  and  C_52
                            x       y       z     vdW  Elec       q    Type
                         _______ _______ _______ _____ _____    ______ ____

>  <TORSDO>
F 17

$$$$
=
 OpenBabel11052410173D

 57 62  0  0  1  0  0  0  0  0999 V2000
  160.3480  213.9470  150.5380 C   0  0  1  0  0  3  0  0  0  0  0  0
  160.3610  212.4680  150.2110 C   0  0  1  0  0  3  0  0  0  0  0  0
  159.2190  213.3590  149.7120 C   0  0  2  0  0  3  0  0  0  0  0  0
  161.0680  213.2770  145.5210 C   0  0  0  0  0  0  0  0  0  0  0  0
  158.9530  212.6330  147.3380 C   0  0  1  0  0  3  0  0  0  0  0  0
  157.6790  212.5140  146.5180 C   0  0  0  0  0  2  0  0  0  0  0  0
  159.8200  213.0180  145.2220 N   0  0  0  0  0  0  0  0  0  0  0  0
  161.4860  213.9520  146.8080 C   0  0  0  0  0  3  0  0  0  0  0  0
  158.7520  213.4680  146.0870 C   0  0  2  0  0  3  0  0  0  0  0  0
  159.3420  213.7710  148.2450 C   0  0  2  0  0  3  0  0  0  0  0  0
  160.7840  214.1590  147.9520 C   0  0  0  0  0  3  0  0  0  0  0  0
  162.0480  212.8910  144.6030 O   0  0  0  0  0  0  0  0  0  0  0  0
  162.2920  213.6040  143.4010 C   0  0  0  0  0  1  0  0  0  0  0  0
  159.1280  214.4530  154.6690 C   0  0  0  0  0  1  0  0  0  0  0  0
  158.1870  213.9190  153.6960 N   0  0  0  0  0  0  0  0  0  0  0  0
  158.5840  213.7380  152.3290 C   0  0  0  0  0  0  0  0  0  0  0  0
  159.8930  214.1290  151.9050 N   0  0  0  0  0  2  0  0  0  0  0  0
  157.7810  213.2300  151.4990 O   0  0  0  0  0  0  0  0  0  0  0  0
  156.8940  213.4290  154.1680 C   0  0  0  0  0  2  0  0  0  0  0  0
  157.4410  212.1530  156.2120 C   0  0  1  0  0  3  0  0  0  0  0  0
  156.9780  212.0250  154.7720 C   0  0  1  0  0  0  0  0  0  0  0  0
  155.5960  211.4100  154.9140 C   0  0  0  0  0  2  0  0  0  0  0  0
  157.8420  211.1020  153.9140 C   0  0  0  0  0  1  0  0  0  0  0  0
  156.3920  211.4160  157.0070 C   0  0  0  0  0  2  0  0  0  0  0  0
  155.2050  211.4450  156.2650 O   0  0  0  0  0  0  0  0  0  0  0  0
  161.0480  212.1770  157.2600 C   0  0  0  0  0  3  0  0  0  0  0  0
  159.1500  210.3370  156.4210 C   0  0  0  0  0  3  0  0  0  0  0  0
  161.3990  210.8280  157.1580 C   0  0  0  0  0  3  0  0  0  0  0  0
  159.7870  212.5790  156.9470 N   0  0  0  0  0  0  0  0  0  0  0  0
  160.4390  209.9050  156.7370 C   0  0  0  0  0  3  0  0  0  0  0  0
  158.8390  211.6940  156.5220 C   0  0  0  0  0  0  0  0  0  0  0  0
  161.3760  212.2190  149.1950 N   0  0  0  0  0  2  0  0  0  0  0  0
  161.4880  210.7810  149.0400 C   0  0  1  0  0  3  0  0  0  0  0  0
  162.3010  210.4670  147.7980 C   0  0  0  0  0  1  0  0  0  0  0  0
  162.1510  210.1980  150.2840 C   0  0  0  0  0  2  0  0  0  0  0  0
  160.4210  206.9890  150.4760 O   0  0  0  0  0  0  0  0  0  0  0  0
  161.3640  209.0980  150.8320 N   0  0  0  0  0  0  0  0  0  0  0  0
  161.2620  207.8560  150.1140 C   0  0  0  0  0  0  0  0  0  0  0  0
  163.4830  207.6660  149.2750 O   0  0  0  0  0  1  0  0  0  0  0  0
  162.1340  207.5820  148.9230 C   0  0  1  0  0  3  0  0  0  0  0  0
  160.8360  202.2130  146.4070 Cl  0  0  0  0  0  0  0  0  0  0  0  0
  161.3060  205.2170  149.0820 C   0  0  0  0  0  3  0  0  0  0  0  0
  162.0520  206.0490  146.9320 C   0  0  0  0  0  0  0  0  0  0  0  0
  161.2160  203.7710  147.1400 C   0  0  0  0  0  0  0  0  0  0  0  0
  162.5900  207.0550  146.1970 F   0  0  0  0  0  0  0  0  0  0  0  0
  161.8280  206.2530  148.3010 C   0  0  0  0  0  0  0  0  0  0  0  0
  161.7320  204.8060  146.3370 C   0  0  0  0  0  0  0  0  0  0  0  0
  161.0070  203.9790  148.5140 C   0  0  0  0  0  0  0  0  0  0  0  0
  161.0650  205.0620  143.9390 C   0  0  0  0  0  1  0  0  0  0  0  0
  161.9060  204.5540  144.9670 O   0  0  0  0  0  0  0  0  0  0  0  0
  160.4520  202.9020  149.3890 C   0  0  0  0  0  2  0  0  0  0  0  0
  160.8160  201.2390  151.6360 C   0  0  0  0  0  1  0  0  0  0  0  0
  161.4000  202.7810  150.9180 S   0  0  2  0  0  0  0  0  0  0  0  0
  160.7720  203.8390  151.8150 O   0  0  0  0  0  0  0  0  0  0  0  0
  160.6410  209.3090  152.0850 C   0  0  0  0  0  2  0  0  0  0  0  0
  161.5640  209.8770  153.1520 C   0  0  0  0  0  2  0  0  0  0  0  0
  161.1730  211.2370  153.4770 N   0  0  0  0  0  1  0  0  0  0  0  0
  1 17  1  1  0  0  0
  2 32  1  6  0  0  0
  2  1  1  0  0  0  0
  3 10  1  6  0  0  0
  3  2  1  0  0  0  0
  3  1  1  0  0  0  0
  4  8  1  0  0  0  0
  5  6  1  1  0  0  0
  5 10  1  0  0  0  0
  7  4  2  0  0  0  0
  7  9  1  0  0  0  0
  8 11  2  0  0  0  0
  9  6  1  6  0  0  0
  9  5  1  0  0  0  0
 10 11  1  6  0  0  0
 12  4  1  0  0  0  0
 13 12  1  0  0  0  0
 15 19  1  0  0  0  0
 15 14  1  0  0  0  0
 16 15  1  0  0  0  0
 17 16  1  0  0  0  0
 18 16  2  0  0  0  0
 19 21  1  0  0  0  0
 20 31  1  6  0  0  0
 20 24  1  0  0  0  0
 21 23  1  6  0  0  0
 21 22  1  0  0  0  0
 21 20  1  0  0  0  0
 22 25  1  0  0  0  0
 25 24  1  0  0  0  0
 27 31  2  0  0  0  0
 27 30  1  0  0  0  0
 28 26  1  0  0  0  0
 29 26  2  0  0  0  0
 30 28  2  0  0  0  0
 31 29  1  0  0  0  0
 33 34  1  6  0  0  0
 33 32  1  0  0  0  0
 33 35  1  0  0  0  0
 35 37  1  0  0  0  0
 37 55  1  0  0  0  0
 38 36  2  0  0  0  0
 38 37  1  0  0  0  0
 40 39  1  1  0  0  0
 40 38  1  0  0  0  0
 41 44  1  0  0  0  0
 43 46  1  0  0  0  0
 44 48  2  0  0  0  0
 45 43  1  0  0  0  0
 46 40  1  0  0  0  0
 46 42  2  0  0  0  0
 47 43  2  0  0  0  0
 47 44  1  0  0  0  0
 48 42  1  0  0  0  0
 48 51  1  0  0  0  0
 49 50  1  0  0  0  0
 50 47  1  0  0  0  0
 51 53  1  0  0  0  0
 53 52  1  1  0  0  0
 53 54  2  0  0  0  0
 55 56  1  0  0  0  0
 56 57  1  0  0  0  0
M  END
>  <MODEL>
6

>  <REMARK>
 VINA RESULT:      -1.7      3.910      8.017
  Name = 
  17 active torsions:
  status: ('A' for Active; 'I' for Inactive)
    1  A    between atoms: C_5  and  O_8
    2  A    between atoms: N_7  and  C_11
    3  A    between atoms: C_11  and  C_30
    4  A    between atoms: C_12  and  N_47
    5  A    between atoms: C_12  and  C_55
    6  A    between atoms: C_14  and  C_24
    7  A    between atoms: C_14  and  C_35
    8  A    between atoms: N_16  and  C_44
    9  A    between atoms: N_16  and  C_55
   10  A    between atoms: C_19  and  C_57
   11  A    between atoms: C_22  and  N_41
   12  A    between atoms: C_33  and  C_44
   13  A    between atoms: S_34  and  C_43
   14  A    between atoms: C_38  and  N_47
   15  A    between atoms: C_39  and  O_48
   16  A    between atoms: C_43  and  C_45
   17  A    between atoms: C_50  and  C_52
                            x       y       z     vdW  Elec       q    Type
                         _______ _______ _______ _____ _____    ______ ____

>  <TORSDO>
F 17

$$$$
=
 OpenBabel11052410173D

 57 62  0  0  1  0  0  0  0  0999 V2000
  161.4550  210.6200  148.1390 C   0  0  1  0  0  3  0  0  0  0  0  0
  161.6290  211.5330  149.3350 C   0  0  1  0  0  3  0  0  0  0  0  0
  162.3710  211.8240  148.0270 C   0  0  2  0  0  3  0  0  0  0  0  0
  161.3660  213.9770  144.1100 C   0  0  0  0  0  0  0  0  0  0  0  0
  160.6050  212.3620  146.3460 C   0  0  1  0  0  3  0  0  0  0  0  0
  159.1160  212.5760  146.5670 C   0  0  0  0  0  2  0  0  0  0  0  0
  160.1600  213.8120  144.5920 N   0  0  0  0  0  0  0  0  0  0  0  0
  162.6100  213.9480  144.9680 C   0  0  0  0  0  3  0  0  0  0  0  0
  159.9520  213.6930  146.0180 C   0  0  2  0  0  3  0  0  0  0  0  0
  161.7320  212.9210  147.1740 C   0  0  2  0  0  3  0  0  0  0  0  0
  162.7810  213.5060  146.2410 C   0  0  0  0  0  3  0  0  0  0  0  0
  161.4910  214.1730  142.7320 O   0  0  0  0  0  0  0  0  0  0  0  0
  160.7510  213.4220  141.7830 C   0  0  0  0  0  1  0  0  0  0  0  0
  163.9660  207.1180  148.6330 C   0  0  0  0  0  1  0  0  0  0  0  0
  162.5280  206.9620  148.4700 N   0  0  0  0  0  0  0  0  0  0  0  0
  161.6900  208.1130  148.2950 C   0  0  0  0  0  0  0  0  0  0  0  0
  162.2580  209.4260  148.3310 N   0  0  0  0  0  2  0  0  0  0  0  0
  160.4510  207.9710  148.1060 O   0  0  0  0  0  0  0  0  0  0  0  0
  161.9820  205.6140  148.3300 C   0  0  0  0  0  2  0  0  0  0  0  0
  160.8010  204.3680  146.5530 C   0  0  1  0  0  3  0  0  0  0  0  0
  162.1000  205.0730  146.9030 C   0  0  1  0  0  0  0  0  0  0  0  0
  162.1520  206.2060  145.8930 C   0  0  0  0  0  2  0  0  0  0  0  0
  163.3470  204.2080  146.7390 C   0  0  0  0  0  1  0  0  0  0  0  0
  160.3580  205.0220  145.2690 C   0  0  0  0  0  2  0  0  0  0  0  0
  160.9120  206.3080  145.2380 O   0  0  0  0  0  0  0  0  0  0  0  0
  161.2070  200.7520  147.4850 C   0  0  0  0  0  3  0  0  0  0  0  0
  160.4700  202.2460  145.2680 C   0  0  0  0  0  3  0  0  0  0  0  0
  160.8520  200.0960  146.3040 C   0  0  0  0  0  3  0  0  0  0  0  0
  161.1920  202.1110  147.5420 N   0  0  0  0  0  0  0  0  0  0  0  0
  160.4800  200.8530  145.1910 C   0  0  0  0  0  3  0  0  0  0  0  0
  160.8430  202.8680  146.4610 C   0  0  0  0  0  0  0  0  0  0  0  0
  160.4210  212.3340  149.4960 N   0  0  0  0  0  2  0  0  0  0  0  0
  160.4420  212.8810  150.8390 C   0  0  1  0  0  3  0  0  0  0  0  0
  160.0230  214.3390  150.7990 C   0  0  0  0  0  1  0  0  0  0  0  0
  159.4980  212.0700  151.7200 C   0  0  0  0  0  2  0  0  0  0  0  0
  160.9590  211.2840  154.9730 O   0  0  0  0  0  0  0  0  0  0  0  0
  159.8520  212.2020  153.1300 N   0  0  0  0  0  0  0  0  0  0  0  0
  160.8130  211.3100  153.7200 C   0  0  0  0  0  0  0  0  0  0  0  0
  162.9910  210.7010  152.9750 O   0  0  0  0  0  1  0  0  0  0  0  0
  161.6340  210.3900  152.8650 C   0  0  1  0  0  3  0  0  0  0  0  0
  160.7060  204.5490  154.2310 Cl  0  0  0  0  0  0  0  0  0  0  0  0
  161.7180  207.9500  152.2790 C   0  0  0  0  0  3  0  0  0  0  0  0
  160.8450  208.5980  154.4450 C   0  0  0  0  0  0  0  0  0  0  0  0
  160.9730  206.2450  153.8320 C   0  0  0  0  0  0  0  0  0  0  0  0
  160.5030  209.5840  155.3130 F   0  0  0  0  0  0  0  0  0  0  0  0
  161.3900  208.9490  153.2010 C   0  0  0  0  0  0  0  0  0  0  0  0
  160.6470  207.2370  154.7750 C   0  0  0  0  0  0  0  0  0  0  0  0
  161.5060  206.6050  152.5820 C   0  0  0  0  0  0  0  0  0  0  0  0
  160.4420  207.4390  157.2610 C   0  0  0  0  0  1  0  0  0  0  0  0
  160.1330  206.8260  156.0160 O   0  0  0  0  0  0  0  0  0  0  0  0
  161.8710  205.5730  151.5640 C   0  0  0  0  0  2  0  0  0  0  0  0
  161.5420  202.7750  151.4720 C   0  0  0  0  0  1  0  0  0  0  0  0
  160.5940  204.3040  151.4660 S   0  0  2  0  0  0  0  0  0  0  0  0
  160.1020  204.3990  150.0290 O   0  0  0  0  0  0  0  0  0  0  0  0
  159.1670  213.2150  153.9330 C   0  0  0  0  0  2  0  0  0  0  0  0
  157.7870  212.7310  154.3510 C   0  0  0  0  0  2  0  0  0  0  0  0
  156.8140  213.7950  154.1830 N   0  0  0  0  0  1  0  0  0  0  0  0
  1 17  1  1  0  0  0
  1  2  1  0  0  0  0
  2 32  1  6  0  0  0
  3 10  1  6  0  0  0
  3  1  1  0  0  0  0
  3  2  1  0  0  0  0
  4  7  2  0  0  0  0
  4  8  1  0  0  0  0
  5  6  1  1  0  0  0
  5 10  1  0  0  0  0
  7  9  1  0  0  0  0
  8 11  2  0  0  0  0
  9  5  1  0  0  0  0
  9  6  1  6  0  0  0
 10 11  1  6  0  0  0
 12  4  1  0  0  0  0
 13 12  1  0  0  0  0
 15 14  1  0  0  0  0
 16 17  1  0  0  0  0
 16 15  1  0  0  0  0
 18 16  2  0  0  0  0
 19 15  1  0  0  0  0
 20 31  1  6  0  0  0
 20 21  1  0  0  0  0
 21 23  1  6  0  0  0
 21 19  1  0  0  0  0
 22 21  1  0  0  0  0
 24 20  1  0  0  0  0
 25 24  1  0  0  0  0
 25 22  1  0  0  0  0
 26 29  1  0  0  0  0
 27 31  1  0  0  0  0
 28 26  2  0  0  0  0
 30 27  2  0  0  0  0
 30 28  1  0  0  0  0
 31 29  2  0  0  0  0
 32 33  1  0  0  0  0
 33 34  1  6  0  0  0
 33 35  1  0  0  0  0
 35 37  1  0  0  0  0
 37 38  1  0  0  0  0
 37 55  1  0  0  0  0
 38 36  2  0  0  0  0
 40 39  1  1  0  0  0
 40 46  1  0  0  0  0
 40 38  1  0  0  0  0
 42 48  2  0  0  0  0
 42 46  1  0  0  0  0
 43 47  1  0  0  0  0
 43 45  1  0  0  0  0
 44 41  1  0  0  0  0
 44 47  2  0  0  0  0
 46 43  2  0  0  0  0
 47 50  1  0  0  0  0
 48 44  1  0  0  0  0
 50 49  1  0  0  0  0
 51 48  1  0  0  0  0
 53 52  1  6  0  0  0
 53 51  1  0  0  0  0
 54 53  2  0  0  0  0
 55 56  1  0  0  0  0
 57 56  1  0  0  0  0
M  END
>  <MODEL>
7

>  <REMARK>
 VINA RESULT:      -1.4      4.134     10.633
  Name = 
  17 active torsions:
  status: ('A' for Active; 'I' for Inactive)
    1  A    between atoms: C_5  and  O_8
    2  A    between atoms: N_7  and  C_11
    3  A    between atoms: C_11  and  C_30
    4  A    between atoms: C_12  and  N_47
    5  A    between atoms: C_12  and  C_55
    6  A    between atoms: C_14  and  C_24
    7  A    between atoms: C_14  and  C_35
    8  A    between atoms: N_16  and  C_44
    9  A    between atoms: N_16  and  C_55
   10  A    between atoms: C_19  and  C_57
   11  A    between atoms: C_22  and  N_41
   12  A    between atoms: C_33  and  C_44
   13  A    between atoms: S_34  and  C_43
   14  A    between atoms: C_38  and  N_47
   15  A    between atoms: C_39  and  O_48
   16  A    between atoms: C_43  and  C_45
   17  A    between atoms: C_50  and  C_52
                            x       y       z     vdW  Elec       q    Type
                         _______ _______ _______ _____ _____    ______ ____

>  <TORSDO>
F 17

$$$$
=
 OpenBabel11052410173D

 57 62  0  0  1  0  0  0  0  0999 V2000
  160.8440  211.5950  149.2830 C   0  0  1  0  0  3  0  0  0  0  0  0
  161.8900  210.9400  150.1600 C   0  0  1  0  0  3  0  0  0  0  0  0
  161.1690  212.2060  150.6330 C   0  0  2  0  0  3  0  0  0  0  0  0
  158.7940  212.9430  154.4810 C   0  0  0  0  0  0  0  0  0  0  0  0
  159.0590  213.0880  151.6350 C   0  0  1  0  0  3  0  0  0  0  0  0
  157.6550  213.0800  151.0530 C   0  0  0  0  0  2  0  0  0  0  0  0
  157.8290  213.0310  153.6000 N   0  0  0  0  0  0  0  0  0  0  0  0
  160.1000  212.2310  154.2080 C   0  0  0  0  0  3  0  0  0  0  0  0
  157.9330  212.3460  152.3300 C   0  0  2  0  0  3  0  0  0  0  0  0
  160.0450  211.9490  151.6360 C   0  0  2  0  0  3  0  0  0  0  0  0
  160.6370  211.8170  153.0310 C   0  0  0  0  0  3  0  0  0  0  0  0
  158.5960  213.5560  155.7200 O   0  0  0  0  0  0  0  0  0  0  0  0
  158.7780  212.8710  156.9500 C   0  0  0  0  0  1  0  0  0  0  0  0
  162.8930  213.9580  146.2780 C   0  0  0  0  0  1  0  0  0  0  0  0
  161.5230  213.5250  146.0490 N   0  0  0  0  0  0  0  0  0  0  0  0
  160.8320  212.7520  147.0420 C   0  0  0  0  0  0  0  0  0  0  0  0
  161.5060  212.3600  148.2420 N   0  0  0  0  0  2  0  0  0  0  0  0
  159.6290  212.4200  146.8600 O   0  0  0  0  0  0  0  0  0  0  0  0
  160.8200  214.0230  144.8700 C   0  0  0  0  0  2  0  0  0  0  0  0
  161.0670  214.2490  142.4210 C   0  0  1  0  0  3  0  0  0  0  0  0
  161.2220  213.2890  143.5870 C   0  0  1  0  0  0  0  0  0  0  0  0
  162.7100  212.9830  143.5790 C   0  0  0  0  0  2  0  0  0  0  0  0
  160.4490  211.9810  143.4310 C   0  0  0  0  0  1  0  0  0  0  0  0
  162.4140  214.2280  141.7420 C   0  0  0  0  0  2  0  0  0  0  0  0
  163.3660  213.8690  142.7060 O   0  0  0  0  0  0  0  0  0  0  0  0
  159.1200  213.0780  139.4300 C   0  0  0  0  0  3  0  0  0  0  0  0
  158.6370  214.3710  141.8360 C   0  0  0  0  0  3  0  0  0  0  0  0
  157.8150  213.4560  139.7550 C   0  0  0  0  0  3  0  0  0  0  0  0
  160.1410  213.3460  140.2880 N   0  0  0  0  0  0  0  0  0  0  0  0
  157.5760  214.1050  140.9690 C   0  0  0  0  0  3  0  0  0  0  0  0
  159.9300  213.9910  141.4720 C   0  0  0  0  0  0  0  0  0  0  0  0
  161.3320  209.7200  150.7290 N   0  0  0  0  0  2  0  0  0  0  0  0
  162.3250  209.1710  151.6330 C   0  0  1  0  0  3  0  0  0  0  0  0
  161.7420  209.0800  153.0310 C   0  0  0  0  0  1  0  0  0  0  0  0
  162.7460  207.7940  151.1310 C   0  0  0  0  0  2  0  0  0  0  0  0
  160.0880  205.3500  151.6700 O   0  0  0  0  0  0  0  0  0  0  0  0
  161.9650  206.7400  151.7700 N   0  0  0  0  0  0  0  0  0  0  0  0
  160.8920  206.1020  151.0550 C   0  0  0  0  0  0  0  0  0  0  0  0
  161.5690  207.3330  149.1320 O   0  0  0  0  0  1  0  0  0  0  0  0
  160.7040  206.3340  149.5850 C   0  0  1  0  0  3  0  0  0  0  0  0
  161.4960  201.2350  146.3880 Cl  0  0  0  0  0  0  0  0  0  0  0  0
  161.4390  205.1270  147.5100 C   0  0  0  0  0  3  0  0  0  0  0  0
  160.5120  203.8380  149.3410 C   0  0  0  0  0  0  0  0  0  0  0  0
  161.2630  202.7180  147.3140 C   0  0  0  0  0  0  0  0  0  0  0  0
  159.9460  203.8110  150.5740 F   0  0  0  0  0  0  0  0  0  0  0  0
  160.8850  205.0740  148.7930 C   0  0  0  0  0  0  0  0  0  0  0  0
  160.7140  202.6450  148.6080 C   0  0  0  0  0  0  0  0  0  0  0  0
  161.6230  203.9610  146.7660 C   0  0  0  0  0  0  0  0  0  0  0  0
  161.2720  200.2660  149.1410 C   0  0  0  0  0  1  0  0  0  0  0  0
  160.3870  201.3790  149.1170 O   0  0  0  0  0  0  0  0  0  0  0  0
  162.2170  204.0680  145.3990 C   0  0  0  0  0  2  0  0  0  0  0  0
  160.8310  206.4050  144.6500 C   0  0  0  0  0  1  0  0  0  0  0  0
  160.9900  204.6650  144.2220 S   0  0  2  0  0  0  0  0  0  0  0  0
  159.6850  204.0650  144.7270 O   0  0  0  0  0  0  0  0  0  0  0  0
  162.2570  206.3950  153.1610 C   0  0  0  0  0  2  0  0  0  0  0  0
  161.0200  206.5570  154.0300 C   0  0  0  0  0  2  0  0  0  0  0  0
  161.3880  207.1010  155.3250 N   0  0  0  0  0  1  0  0  0  0  0  0
  1 17  1  6  0  0  0
  1  2  1  0  0  0  0
  1  3  1  0  0  0  0
  2  3  1  0  0  0  0
  2 32  1  1  0  0  0
  3 10  1  1  0  0  0
  4 12  1  0  0  0  0
  5  6  1  6  0  0  0
  5 10  1  0  0  0  0
  5  9  1  0  0  0  0
  7  4  2  0  0  0  0
  8  4  1  0  0  0  0
  9  6  1  6  0  0  0
  9  7  1  0  0  0  0
 10 11  1  1  0  0  0
 11  8  2  0  0  0  0
 12 13  1  0  0  0  0
 15 14  1  0  0  0  0
 15 16  1  0  0  0  0
 16 17  1  0  0  0  0
 18 16  2  0  0  0  0
 19 15  1  0  0  0  0
 20 31  1  6  0  0  0
 20 21  1  0  0  0  0
 21 23  1  6  0  0  0
 21 19  1  0  0  0  0
 22 21  1  0  0  0  0
 24 20  1  0  0  0  0
 24 25  1  0  0  0  0
 25 22  1  0  0  0  0
 26 28  2  0  0  0  0
 26 29  1  0  0  0  0
 28 30  1  0  0  0  0
 29 31  2  0  0  0  0
 30 27  2  0  0  0  0
 31 27  1  0  0  0  0
 32 33  1  0  0  0  0
 33 34  1  1  0  0  0
 35 33  1  0  0  0  0
 35 37  1  0  0  0  0
 37 55  1  0  0  0  0
 38 36  2  0  0  0  0
 38 37  1  0  0  0  0
 40 39  1  6  0  0  0
 40 38  1  0  0  0  0
 41 44  1  0  0  0  0
 42 46  1  0  0  0  0
 43 45  1  0  0  0  0
 44 47  2  0  0  0  0
 46 43  2  0  0  0  0
 46 40  1  0  0  0  0
 47 50  1  0  0  0  0
 47 43  1  0  0  0  0
 48 44  1  0  0  0  0
 48 42  2  0  0  0  0
 50 49  1  0  0  0  0
 51 48  1  0  0  0  0
 53 52  1  1  0  0  0
 53 54  2  0  0  0  0
 53 51  1  0  0  0  0
 55 56  1  0  0  0  0
 56 57  1  0  0  0  0
M  END
>  <MODEL>
8

>  <REMARK>
 VINA RESULT:      -1.1      3.614     10.928
  Name = 
  17 active torsions:
  status: ('A' for Active; 'I' for Inactive)
    1  A    between atoms: C_5  and  O_8
    2  A    between atoms: N_7  and  C_11
    3  A    between atoms: C_11  and  C_30
    4  A    between atoms: C_12  and  N_47
    5  A    between atoms: C_12  and  C_55
    6  A    between atoms: C_14  and  C_24
    7  A    between atoms: C_14  and  C_35
    8  A    between atoms: N_16  and  C_44
    9  A    between atoms: N_16  and  C_55
   10  A    between atoms: C_19  and  C_57
   11  A    between atoms: C_22  and  N_41
   12  A    between atoms: C_33  and  C_44
   13  A    between atoms: S_34  and  C_43
   14  A    between atoms: C_38  and  N_47
   15  A    between atoms: C_39  and  O_48
   16  A    between atoms: C_43  and  C_45
   17  A    between atoms: C_50  and  C_52
                            x       y       z     vdW  Elec       q    Type
                         _______ _______ _______ _____ _____    ______ ____

>  <TORSDO>
F 17

$$$$
