=
 OpenBabel11042420273D

 31 34  0  0  1  0  0  0  0  0999 V2000
  161.4510  206.0670  149.0880 C   0  0  0  0  0  0  0  0  0  0  0  0
  160.7430  201.6000  149.7310 C   0  0  0  0  0  3  0  0  0  0  0  0
  160.8500  203.5790  150.8680 C   0  0  0  0  0  3  0  0  0  0  0  0
  160.9770  204.9170  151.2380 O   0  0  0  0  0  0  0  0  0  0  0  0
  161.1990  203.5970  148.4210 C   0  0  0  0  0  0  0  0  0  0  0  0
  161.4980  203.3240  146.0100 O   0  0  0  0  0  1  0  0  0  0  0  0
  161.0480  201.4010  147.3570 C   0  0  0  0  0  3  0  0  0  0  0  0
  161.7910  208.4320  149.1280 C   0  0  0  0  0  0  0  0  0  0  0  0
  161.2460  206.0570  150.4800 C   0  0  0  0  0  0  0  0  0  0  0  0
  161.4100  204.8990  148.2120 C   0  0  0  0  0  3  0  0  0  0  0  0
  161.7120  207.2500  148.4650 N   0  0  0  0  0  0  0  0  0  0  0  0
  161.2480  202.7780  147.2670 C   0  0  0  0  0  0  0  0  0  0  0  0
  160.9390  202.9860  149.6780 C   0  0  0  0  0  0  0  0  0  0  0  0
  161.5880  208.4660  150.5020 C   0  0  0  0  0  3  0  0  0  0  0  0
  160.7960  200.8100  148.5870 C   0  0  0  0  0  3  0  0  0  0  0  0
  161.3120  207.2790  151.1770 C   0  0  0  0  0  0  0  0  0  0  0  0
  162.0620  209.6900  148.3820 C   0  0  0  0  0  2  0  0  0  0  0  0
  161.9780  210.8790  149.3210 C   0  0  0  0  0  2  0  0  0  0  0  0
  162.0900  212.1430  148.5460 C   0  0  0  0  0  0  0  0  0  0  0  0
  163.2300  212.6120  148.2830 O   0  0  0  0  0  0  0  0  0  0  0  0
  160.3410  212.5880  146.8750 C   0  0  0  0  0  1  0  0  0  0  0  0
  160.9320  212.8100  148.1470 O   0  0  0  0  0  0  0  0  0  0  0  0
  161.1220  207.3300  152.6560 C   0  0  0  0  0  2  0  0  0  0  0  0
  161.0970  208.7130  153.1000 N   0  0  0  0  0  2  0  0  0  0  0  0
  159.9340  209.7350  156.5440 C   0  0  0  0  0  0  0  0  0  0  0  0
  161.0730  208.6970  154.5530 C   0  0  2  0  0  3  0  0  0  0  0  0
  160.0890  207.2790  156.3100 C   0  0  0  0  0  3  0  0  0  0  0  0
  160.2120  208.4390  157.2600 C   0  0  0  0  0  2  0  0  0  0  0  0
  160.4920  207.3970  155.0370 C   0  0  0  0  0  3  0  0  0  0  0  0
  160.2680  209.8930  155.0810 C   0  0  0  0  0  2  0  0  0  0  0  0
  159.4560  210.6730  157.1580 O   0  0  0  0  0  0  0  0  0  0  0  0
  1  9  1  0  0  0  0
  3  4  1  0  0  0  0
  5 13  1  0  0  0  0
  6 12  1  0  0  0  0
  7 15  1  0  0  0  0
  8 14  2  0  0  0  0
  9 16  2  0  0  0  0
  9  4  1  0  0  0  0
 10  5  2  0  0  0  0
 10  1  1  0  0  0  0
 11  1  2  0  0  0  0
 11  8  1  0  0  0  0
 12  7  2  0  0  0  0
 12  5  1  0  0  0  0
 13  2  1  0  0  0  0
 13  3  2  0  0  0  0
 14 16  1  0  0  0  0
 15  2  2  0  0  0  0
 16 23  1  0  0  0  0
 17  8  1  0  0  0  0
 17 18  1  0  0  0  0
 19 18  1  0  0  0  0
 20 19  2  0  0  0  0
 21 22  1  0  0  0  0
 22 19  1  0  0  0  0
 23 24  1  0  0  0  0
 25 31  2  0  0  0  0
 25 28  1  0  0  0  0
 26 24  1  6  0  0  0
 26 29  1  0  0  0  0
 26 30  1  0  0  0  0
 27 28  1  0  0  0  0
 29 27  2  0  0  0  0
 30 25  1  0  0  0  0
M  END
>  <MODEL>
1

>  <REMARK>
 VINA RESULT:      -9.4      0.000      0.000
  Name = 
  7 active torsions:
  status: ('A' for Active; 'I' for Inactive)
    1  A    between atoms: C_2  and  C_14
    2  A    between atoms: C_2  and  C_20
    3  A    between atoms: C_11  and  C_20
    4  A    between atoms: C_13  and  N_27
    5  A    between atoms: C_14  and  O_19
    6  A    between atoms: C_26  and  N_27
    7  A    between atoms: C_26  and  C_31
                            x       y       z     vdW  Elec       q    Type
                         _______ _______ _______ _____ _____    ______ ____

>  <TORSDO>
F 7

$$$$
=
 OpenBabel11042420273D

 31 34  0  0  1  0  0  0  0  0999 V2000
  161.0300  206.3510  152.4920 C   0  0  0  0  0  0  0  0  0  0  0  0
  161.1420  210.7030  153.8770 C   0  0  0  0  0  3  0  0  0  0  0  0
  161.1510  209.4250  151.9820 C   0  0  0  0  0  3  0  0  0  0  0  0
  161.1380  208.3790  151.0610 O   0  0  0  0  0  0  0  0  0  0  0  0
  161.0410  208.2920  154.1770 C   0  0  0  0  0  0  0  0  0  0  0  0
  160.9320  207.4420  156.4670 O   0  0  0  0  0  1  0  0  0  0  0  0
  161.0340  209.8020  156.1000 C   0  0  0  0  0  3  0  0  0  0  0  0
  161.0070  204.2170  151.4180 C   0  0  0  0  0  0  0  0  0  0  0  0
  161.0870  206.9960  151.2430 C   0  0  0  0  0  0  0  0  0  0  0  0
  161.0080  207.0140  153.7930 C   0  0  0  0  0  3  0  0  0  0  0  0
  160.9890  204.9900  152.5330 N   0  0  0  0  0  0  0  0  0  0  0  0
  161.0020  208.5100  155.5760 C   0  0  0  0  0  0  0  0  0  0  0  0
  161.1110  209.4200  153.3150 C   0  0  0  0  0  0  0  0  0  0  0  0
  161.0550  204.8150  150.1660 C   0  0  0  0  0  3  0  0  0  0  0  0
  161.1040  210.8990  155.2530 C   0  0  0  0  0  3  0  0  0  0  0  0
  161.0910  206.2050  150.0780 C   0  0  0  0  0  0  0  0  0  0  0  0
  160.9420  202.7350  151.5360 C   0  0  0  0  0  2  0  0  0  0  0  0
  161.5280  202.0890  150.2940 C   0  0  0  0  0  2  0  0  0  0  0  0
  160.4360  201.5530  149.4410 C   0  0  0  0  0  0  0  0  0  0  0  0
  159.3100  201.3060  149.9520 O   0  0  0  0  0  0  0  0  0  0  0  0
  161.5620  200.2710  147.6690 C   0  0  0  0  0  1  0  0  0  0  0  0
  160.6790  201.3000  148.0910 O   0  0  0  0  0  0  0  0  0  0  0  0
  161.1700  206.8300  148.7260 C   0  0  0  0  0  2  0  0  0  0  0  0
  162.4170  206.4520  148.0820 N   0  0  0  0  0  2  0  0  0  0  0  0
  161.3260  203.8960  145.5260 C   0  0  0  0  0  0  0  0  0  0  0  0
  162.0830  205.9580  146.7570 C   0  0  2  0  0  3  0  0  0  0  0  0
  160.1340  206.0450  145.2550 C   0  0  0  0  0  3  0  0  0  0  0  0
  160.6780  204.8360  144.5430 C   0  0  0  0  0  2  0  0  0  0  0  0
  160.7910  206.5750  146.2960 C   0  0  0  0  0  3  0  0  0  0  0  0
  161.9890  204.4260  146.7740 C   0  0  0  0  0  2  0  0  0  0  0  0
  161.3330  202.6990  145.3010 O   0  0  0  0  0  0  0  0  0  0  0  0
  1 11  1  0  0  0  0
  1 10  1  0  0  0  0
  2 15  2  0  0  0  0
  3 13  2  0  0  0  0
  4  9  1  0  0  0  0
  4  3  1  0  0  0  0
  5 12  1  0  0  0  0
  8 17  1  0  0  0  0
  8 11  2  0  0  0  0
  9  1  2  0  0  0  0
 10  5  2  0  0  0  0
 12  7  2  0  0  0  0
 12  6  1  0  0  0  0
 13  2  1  0  0  0  0
 13  5  1  0  0  0  0
 14  8  1  0  0  0  0
 15  7  1  0  0  0  0
 16 14  2  0  0  0  0
 16  9  1  0  0  0  0
 18 17  1  0  0  0  0
 19 20  2  0  0  0  0
 19 18  1  0  0  0  0
 21 22  1  0  0  0  0
 22 19  1  0  0  0  0
 23 16  1  0  0  0  0
 24 23  1  0  0  0  0
 25 30  1  0  0  0  0
 26 30  1  0  0  0  0
 26 24  1  1  0  0  0
 27 29  2  0  0  0  0
 28 27  1  0  0  0  0
 28 25  1  0  0  0  0
 29 26  1  0  0  0  0
 31 25  2  0  0  0  0
M  END
>  <MODEL>
2

>  <REMARK>
 VINA RESULT:      -9.3      2.608      9.046
  Name = 
  7 active torsions:
  status: ('A' for Active; 'I' for Inactive)
    1  A    between atoms: C_2  and  C_14
    2  A    between atoms: C_2  and  C_20
    3  A    between atoms: C_11  and  C_20
    4  A    between atoms: C_13  and  N_27
    5  A    between atoms: C_14  and  O_19
    6  A    between atoms: C_26  and  N_27
    7  A    between atoms: C_26  and  C_31
                            x       y       z     vdW  Elec       q    Type
                         _______ _______ _______ _____ _____    ______ ____

>  <TORSDO>
F 7

$$$$
=
 OpenBabel11042420273D

 31 34  0  0  1  0  0  0  0  0999 V2000
  161.5340  206.5590  149.2100 C   0  0  0  0  0  0  0  0  0  0  0  0
  160.6520  202.1490  150.0110 C   0  0  0  0  0  3  0  0  0  0  0  0
  160.8130  204.1650  151.0740 C   0  0  0  0  0  3  0  0  0  0  0  0
  160.9840  205.5110  151.3950 O   0  0  0  0  0  0  0  0  0  0  0  0
  161.2020  204.0760  148.6350 C   0  0  0  0  0  0  0  0  0  0  0  0
  161.5290  203.6990  146.2410 O   0  0  0  0  0  1  0  0  0  0  0  0
  160.9860  201.8470  147.6520 C   0  0  0  0  0  3  0  0  0  0  0  0
  161.9600  208.9100  149.1660 C   0  0  0  0  0  0  0  0  0  0  0  0
  161.3070  206.6100  150.5980 C   0  0  0  0  0  0  0  0  0  0  0  0
  161.4630  205.3600  148.3800 C   0  0  0  0  0  3  0  0  0  0  0  0
  161.8480  207.7070  148.5470 N   0  0  0  0  0  0  0  0  0  0  0  0
  161.2390  203.2110  147.5130 C   0  0  0  0  0  0  0  0  0  0  0  0
  160.9000  203.5230  149.9090 C   0  0  0  0  0  0  0  0  0  0  0  0
  161.7370  209.0040  150.5340 C   0  0  0  0  0  3  0  0  0  0  0  0
  160.6930  201.3140  148.8990 C   0  0  0  0  0  3  0  0  0  0  0  0
  161.4060  207.8550  151.2490 C   0  0  0  0  0  0  0  0  0  0  0  0
  162.2900  210.1270  148.3770 C   0  0  0  0  0  2  0  0  0  0  0  0
  161.9750  211.3710  149.1870 C   0  0  0  0  0  2  0  0  0  0  0  0
  161.5620  212.4730  148.2780 C   0  0  0  0  0  0  0  0  0  0  0  0
  161.8550  213.6640  148.5700 O   0  0  0  0  0  0  0  0  0  0  0  0
  160.9010  212.9850  145.9650 C   0  0  0  0  0  1  0  0  0  0  0  0
  160.8260  212.1780  147.1300 O   0  0  0  0  0  0  0  0  0  0  0  0
  161.1950  207.9700  152.7210 C   0  0  0  0  0  2  0  0  0  0  0  0
  160.6700  209.2870  153.0410 N   0  0  0  0  0  2  0  0  0  0  0  0
  160.7930  208.0110  156.5920 C   0  0  0  0  0  0  0  0  0  0  0  0
  160.6010  209.3820  154.4890 C   0  0  2  0  0  3  0  0  0  0  0  0
  162.1020  210.0890  156.3090 C   0  0  0  0  0  3  0  0  0  0  0  0
  161.2680  209.2740  157.2600 C   0  0  0  0  0  2  0  0  0  0  0  0
  161.7920  210.1410  155.0060 C   0  0  0  0  0  3  0  0  0  0  0  0
  160.5290  207.9780  155.1060 C   0  0  0  0  0  2  0  0  0  0  0  0
  160.5990  207.0100  157.2600 O   0  0  0  0  0  0  0  0  0  0  0  0
  1  9  1  0  0  0  0
  3  4  1  0  0  0  0
  5 13  1  0  0  0  0
  6 12  1  0  0  0  0
  7 15  1  0  0  0  0
  8 14  2  0  0  0  0
  9 16  2  0  0  0  0
  9  4  1  0  0  0  0
 10  5  2  0  0  0  0
 10  1  1  0  0  0  0
 11  8  1  0  0  0  0
 11  1  2  0  0  0  0
 12  7  2  0  0  0  0
 12  5  1  0  0  0  0
 13  2  1  0  0  0  0
 13  3  2  0  0  0  0
 14 16  1  0  0  0  0
 15  2  2  0  0  0  0
 16 23  1  0  0  0  0
 17  8  1  0  0  0  0
 17 18  1  0  0  0  0
 19 20  2  0  0  0  0
 19 18  1  0  0  0  0
 21 22  1  0  0  0  0
 22 19  1  0  0  0  0
 23 24  1  0  0  0  0
 25 28  1  0  0  0  0
 25 31  2  0  0  0  0
 26 24  1  6  0  0  0
 26 29  1  0  0  0  0
 26 30  1  0  0  0  0
 27 28  1  0  0  0  0
 29 27  2  0  0  0  0
 30 25  1  0  0  0  0
M  END
>  <MODEL>
3

>  <REMARK>
 VINA RESULT:      -9.2      1.094      1.373
  Name = 
  7 active torsions:
  status: ('A' for Active; 'I' for Inactive)
    1  A    between atoms: C_2  and  C_14
    2  A    between atoms: C_2  and  C_20
    3  A    between atoms: C_11  and  C_20
    4  A    between atoms: C_13  and  N_27
    5  A    between atoms: C_14  and  O_19
    6  A    between atoms: C_26  and  N_27
    7  A    between atoms: C_26  and  C_31
                            x       y       z     vdW  Elec       q    Type
                         _______ _______ _______ _____ _____    ______ ____

>  <TORSDO>
F 7

$$$$
=
 OpenBabel11042420273D

 31 34  0  0  1  0  0  0  0  0999 V2000
  161.2970  206.3140  150.1360 C   0  0  0  0  0  0  0  0  0  0  0  0
  161.5170  203.6270  146.4470 C   0  0  0  0  0  3  0  0  0  0  0  0
  161.8320  205.7920  147.1090 C   0  0  0  0  0  3  0  0  0  0  0  0
  161.9310  206.9810  147.8290 O   0  0  0  0  0  0  0  0  0  0  0  0
  161.1310  204.1270  148.7960 C   0  0  0  0  0  0  0  0  0  0  0  0
  160.4490  202.2800  150.2470 O   0  0  0  0  0  1  0  0  0  0  0  0
  160.8450  201.8590  147.9260 C   0  0  0  0  0  3  0  0  0  0  0  0
  161.2700  208.0010  151.8280 C   0  0  0  0  0  0  0  0  0  0  0  0
  161.7010  207.2600  149.1760 C   0  0  0  0  0  0  0  0  0  0  0  0
  161.0600  204.8950  149.8860 C   0  0  0  0  0  3  0  0  0  0  0  0
  161.1000  206.7170  151.4220 N   0  0  0  0  0  0  0  0  0  0  0  0
  160.8090  202.7610  148.9890 C   0  0  0  0  0  0  0  0  0  0  0  0
  161.4940  204.5610  147.4910 C   0  0  0  0  0  0  0  0  0  0  0  0
  161.6750  208.9640  150.9130 C   0  0  0  0  0  3  0  0  0  0  0  0
  161.1970  202.2900  146.6560 C   0  0  0  0  0  3  0  0  0  0  0  0
  161.8950  208.5930  149.5890 C   0  0  0  0  0  0  0  0  0  0  0  0
  161.0540  208.3680  153.2530 C   0  0  0  0  0  2  0  0  0  0  0  0
  160.7720  207.1220  154.0730 C   0  0  0  0  0  2  0  0  0  0  0  0
  160.6990  207.4740  155.5160 C   0  0  0  0  0  0  0  0  0  0  0  0
  159.6210  207.2980  156.1450 O   0  0  0  0  0  0  0  0  0  0  0  0
  161.7330  209.2310  156.8920 C   0  0  0  0  0  1  0  0  0  0  0  0
  161.8140  208.0260  156.1460 O   0  0  0  0  0  0  0  0  0  0  0  0
  162.3040  209.6460  148.6140 C   0  0  0  0  0  2  0  0  0  0  0  0
  161.8340  210.9440  149.0670 N   0  0  0  0  0  2  0  0  0  0  0  0
  160.4920  213.4500  146.5820 C   0  0  0  0  0  0  0  0  0  0  0  0
  161.8880  211.8420  147.9260 C   0  0  2  0  0  3  0  0  0  0  0  0
  162.6910  214.1270  147.4850 C   0  0  0  0  0  3  0  0  0  0  0  0
  161.7790  214.1760  146.2890 C   0  0  0  0  0  2  0  0  0  0  0  0
  162.7440  213.0330  148.2570 C   0  0  0  0  0  3  0  0  0  0  0  0
  160.4690  212.2750  147.5280 C   0  0  0  0  0  2  0  0  0  0  0  0
  159.4620  213.8020  146.0330 O   0  0  0  0  0  0  0  0  0  0  0  0
  1 11  1  0  0  0  0
  2 15  2  0  0  0  0
  2 13  1  0  0  0  0
  3 13  2  0  0  0  0
  3  4  1  0  0  0  0
  4  9  1  0  0  0  0
  5 12  1  0  0  0  0
  5 10  2  0  0  0  0
  7 12  2  0  0  0  0
  8 17  1  0  0  0  0
  9 16  1  0  0  0  0
  9  1  2  0  0  0  0
 10  1  1  0  0  0  0
 11  8  2  0  0  0  0
 12  6  1  0  0  0  0
 13  5  1  0  0  0  0
 14  8  1  0  0  0  0
 15  7  1  0  0  0  0
 16 14  2  0  0  0  0
 17 18  1  0  0  0  0
 18 19  1  0  0  0  0
 19 20  2  0  0  0  0
 19 22  1  0  0  0  0
 22 21  1  0  0  0  0
 23 24  1  0  0  0  0
 23 16  1  0  0  0  0
 25 30  1  0  0  0  0
 26 29  1  0  0  0  0
 26 24  1  1  0  0  0
 27 29  2  0  0  0  0
 28 25  1  0  0  0  0
 28 27  1  0  0  0  0
 30 26  1  0  0  0  0
 31 25  2  0  0  0  0
M  END
>  <MODEL>
4

>  <REMARK>
 VINA RESULT:      -9.1      1.919      6.575
  Name = 
  7 active torsions:
  status: ('A' for Active; 'I' for Inactive)
    1  A    between atoms: C_2  and  C_14
    2  A    between atoms: C_2  and  C_20
    3  A    between atoms: C_11  and  C_20
    4  A    between atoms: C_13  and  N_27
    5  A    between atoms: C_14  and  O_19
    6  A    between atoms: C_26  and  N_27
    7  A    between atoms: C_26  and  C_31
                            x       y       z     vdW  Elec       q    Type
                         _______ _______ _______ _____ _____    ______ ____

>  <TORSDO>
F 7

$$$$
=
 OpenBabel11042420273D

 31 34  0  0  1  0  0  0  0  0999 V2000
  161.5300  206.5310  149.3240 C   0  0  0  0  0  0  0  0  0  0  0  0
  160.6490  202.1740  150.3830 C   0  0  0  0  0  3  0  0  0  0  0  0
  160.8140  204.2500  151.3260 C   0  0  0  0  0  3  0  0  0  0  0  0
  160.9860  205.6110  151.5670 O   0  0  0  0  0  0  0  0  0  0  0  0
  161.1950  204.0180  148.8950 C   0  0  0  0  0  0  0  0  0  0  0  0
  161.5150  203.5030  146.5260 O   0  0  0  0  0  1  0  0  0  0  0  0
  160.9760  201.7360  148.0440 C   0  0  0  0  0  3  0  0  0  0  0  0
  161.9570  208.8740  149.1420 C   0  0  0  0  0  0  0  0  0  0  0  0
  161.3070  206.6620  150.7080 C   0  0  0  0  0  0  0  0  0  0  0  0
  161.4570  205.2860  148.5650 C   0  0  0  0  0  3  0  0  0  0  0  0
  161.8420  207.6380  148.5950 N   0  0  0  0  0  0  0  0  0  0  0  0
  161.2290  203.0900  147.8250 C   0  0  0  0  0  0  0  0  0  0  0  0
  160.8970  203.5410  150.2000 C   0  0  0  0  0  0  0  0  0  0  0  0
  161.7380  209.0480  150.5030 C   0  0  0  0  0  3  0  0  0  0  0  0
  160.6870  201.2760  149.3210 C   0  0  0  0  0  3  0  0  0  0  0  0
  161.4090  207.9430  151.2840 C   0  0  0  0  0  0  0  0  0  0  0  0
  162.2840  210.0430  148.2830 C   0  0  0  0  0  2  0  0  0  0  0  0
  161.9560  211.3330  149.0130 C   0  0  0  0  0  2  0  0  0  0  0  0
  161.9550  212.4690  148.0550 C   0  0  0  0  0  0  0  0  0  0  0  0
  162.7040  213.4610  148.2640 O   0  0  0  0  0  0  0  0  0  0  0  0
  159.6970  212.6060  147.0880 C   0  0  0  0  0  1  0  0  0  0  0  0
  161.1000  212.4370  146.9530 O   0  0  0  0  0  0  0  0  0  0  0  0
  161.2030  208.1430  152.7490 C   0  0  0  0  0  2  0  0  0  0  0  0
  161.5790  209.4980  153.1160 N   0  0  0  0  0  2  0  0  0  0  0  0
  159.8660  211.9200  155.4520 C   0  0  0  0  0  0  0  0  0  0  0  0
  160.4660  210.0660  153.8570 C   0  0  2  0  0  3  0  0  0  0  0  0
  158.5760  211.5690  153.3720 C   0  0  0  0  0  3  0  0  0  0  0  0
  158.4880  211.8700  154.8450 C   0  0  0  0  0  2  0  0  0  0  0  0
  159.5040  210.7230  152.9050 C   0  0  0  0  0  3  0  0  0  0  0  0
  160.9820  211.0680  154.9000 C   0  0  0  0  0  2  0  0  0  0  0  0
  160.0760  212.6390  156.4130 O   0  0  0  0  0  0  0  0  0  0  0  0
  1  9  1  0  0  0  0
  3  4  1  0  0  0  0
  5 13  1  0  0  0  0
  6 12  1  0  0  0  0
  7 15  1  0  0  0  0
  8 14  2  0  0  0  0
  9 16  2  0  0  0  0
  9  4  1  0  0  0  0
 10  5  2  0  0  0  0
 10  1  1  0  0  0  0
 11  8  1  0  0  0  0
 11  1  2  0  0  0  0
 12  7  2  0  0  0  0
 12  5  1  0  0  0  0
 13  2  1  0  0  0  0
 13  3  2  0  0  0  0
 14 16  1  0  0  0  0
 15  2  2  0  0  0  0
 16 23  1  0  0  0  0
 17 18  1  0  0  0  0
 17  8  1  0  0  0  0
 19 20  2  0  0  0  0
 19 18  1  0  0  0  0
 22 21  1  0  0  0  0
 22 19  1  0  0  0  0
 23 24  1  0  0  0  0
 25 31  2  0  0  0  0
 26 24  1  6  0  0  0
 26 30  1  0  0  0  0
 27 28  1  0  0  0  0
 28 25  1  0  0  0  0
 29 27  2  0  0  0  0
 29 26  1  0  0  0  0
 30 25  1  0  0  0  0
M  END
>  <MODEL>
5

>  <REMARK>
 VINA RESULT:      -8.9      1.391      1.747
  Name = 
  7 active torsions:
  status: ('A' for Active; 'I' for Inactive)
    1  A    between atoms: C_2  and  C_14
    2  A    between atoms: C_2  and  C_20
    3  A    between atoms: C_11  and  C_20
    4  A    between atoms: C_13  and  N_27
    5  A    between atoms: C_14  and  O_19
    6  A    between atoms: C_26  and  N_27
    7  A    between atoms: C_26  and  C_31
                            x       y       z     vdW  Elec       q    Type
                         _______ _______ _______ _____ _____    ______ ____

>  <TORSDO>
F 7

$$$$
=
 OpenBabel11042420273D

 31 34  0  0  1  0  0  0  0  0999 V2000
  161.6250  209.3310  151.3300 C   0  0  0  0  0  0  0  0  0  0  0  0
  160.4860  206.9530  155.0610 C   0  0  0  0  0  3  0  0  0  0  0  0
  160.8910  206.6960  152.8260 C   0  0  0  0  0  3  0  0  0  0  0  0
  161.1950  206.8890  151.4800 O   0  0  0  0  0  0  0  0  0  0  0  0
  161.0750  208.9550  153.8130 C   0  0  0  0  0  0  0  0  0  0  0  0
  161.1910  211.0630  155.0470 O   0  0  0  0  0  1  0  0  0  0  0  0
  160.6170  209.0560  156.2130 C   0  0  0  0  0  3  0  0  0  0  0  0
  162.1810  210.2470  149.1950 C   0  0  0  0  0  0  0  0  0  0  0  0
  161.5250  208.0440  150.7700 C   0  0  0  0  0  0  0  0  0  0  0  0
  161.4080  209.6680  152.7340 C   0  0  0  0  0  3  0  0  0  0  0  0
  161.9510  210.3810  150.5250 N   0  0  0  0  0  0  0  0  0  0  0  0
  160.9620  209.6890  155.0190 C   0  0  0  0  0  0  0  0  0  0  0  0
  160.8310  207.5550  153.8440 C   0  0  0  0  0  0  0  0  0  0  0  0
  162.1000  208.9920  148.6040 C   0  0  0  0  0  3  0  0  0  0  0  0
  160.3790  207.6890  156.2360 C   0  0  0  0  0  3  0  0  0  0  0  0
  161.7760  207.8910  149.3930 C   0  0  0  0  0  0  0  0  0  0  0  0
  162.5510  211.4340  148.3780 C   0  0  0  0  0  2  0  0  0  0  0  0
  161.4340  212.4610  148.4190 C   0  0  0  0  0  2  0  0  0  0  0  0
  160.9930  212.7830  147.0370 C   0  0  0  0  0  0  0  0  0  0  0  0
  159.9830  212.2030  146.5540 O   0  0  0  0  0  0  0  0  0  0  0  0
  162.3580  213.3280  145.0640 C   0  0  0  0  0  1  0  0  0  0  0  0
  161.7220  213.6990  146.2790 O   0  0  0  0  0  0  0  0  0  0  0  0
  161.6670  206.5550  148.7380 C   0  0  0  0  0  2  0  0  0  0  0  0
  162.2890  206.6000  147.4250 N   0  0  0  0  0  2  0  0  0  0  0  0
  161.1740  202.9970  147.2470 C   0  0  0  0  0  0  0  0  0  0  0  0
  162.2050  205.2620  146.8650 C   0  0  2  0  0  3  0  0  0  0  0  0
  160.9330  204.1500  145.0730 C   0  0  0  0  0  3  0  0  0  0  0  0
  161.2060  202.8330  145.7500 C   0  0  0  0  0  2  0  0  0  0  0  0
  161.4000  205.2930  145.5940 C   0  0  0  0  0  3  0  0  0  0  0  0
  161.5860  204.2990  147.8880 C   0  0  0  0  0  2  0  0  0  0  0  0
  160.8310  202.0610  147.9490 O   0  0  0  0  0  0  0  0  0  0  0  0
  1 10  1  0  0  0  0
  2 15  2  0  0  0  0
  3 13  2  0  0  0  0
  4  3  1  0  0  0  0
  5 13  1  0  0  0  0
  5 12  1  0  0  0  0
  7 15  1  0  0  0  0
  8 11  1  0  0  0  0
  9  1  1  0  0  0  0
  9  4  1  0  0  0  0
 10  5  2  0  0  0  0
 11  1  2  0  0  0  0
 12  6  1  0  0  0  0
 12  7  2  0  0  0  0
 13  2  1  0  0  0  0
 14  8  2  0  0  0  0
 14 16  1  0  0  0  0
 16  9  2  0  0  0  0
 17 18  1  0  0  0  0
 17  8  1  0  0  0  0
 19 18  1  0  0  0  0
 20 19  2  0  0  0  0
 21 22  1  0  0  0  0
 22 19  1  0  0  0  0
 23 16  1  0  0  0  0
 24 23  1  0  0  0  0
 25 30  1  0  0  0  0
 25 31  2  0  0  0  0
 26 24  1  1  0  0  0
 26 30  1  0  0  0  0
 27 29  2  0  0  0  0
 27 28  1  0  0  0  0
 28 25  1  0  0  0  0
 29 26  1  0  0  0  0
M  END
>  <MODEL>
6

>  <REMARK>
 VINA RESULT:      -8.8      1.676      7.385
  Name = 
  7 active torsions:
  status: ('A' for Active; 'I' for Inactive)
    1  A    between atoms: C_2  and  C_14
    2  A    between atoms: C_2  and  C_20
    3  A    between atoms: C_11  and  C_20
    4  A    between atoms: C_13  and  N_27
    5  A    between atoms: C_14  and  O_19
    6  A    between atoms: C_26  and  N_27
    7  A    between atoms: C_26  and  C_31
                            x       y       z     vdW  Elec       q    Type
                         _______ _______ _______ _____ _____    ______ ____

>  <TORSDO>
F 7

$$$$
=
 OpenBabel11042420273D

 31 34  0  0  1  0  0  0  0  0999 V2000
  161.5960  209.3870  151.3540 C   0  0  0  0  0  0  0  0  0  0  0  0
  160.4880  206.9560  155.0610 C   0  0  0  0  0  3  0  0  0  0  0  0
  160.8810  206.7300  152.8210 C   0  0  0  0  0  3  0  0  0  0  0  0
  161.1750  206.9410  151.4760 O   0  0  0  0  0  0  0  0  0  0  0  0
  161.0620  208.9760  153.8360 C   0  0  0  0  0  0  0  0  0  0  0  0
  161.1780  211.0690  155.0960 O   0  0  0  0  0  1  0  0  0  0  0  0
  160.6180  209.0450  156.2400 C   0  0  0  0  0  3  0  0  0  0  0  0
  162.1360  210.3310  149.2270 C   0  0  0  0  0  0  0  0  0  0  0  0
  161.4970  208.1060  150.7790 C   0  0  0  0  0  0  0  0  0  0  0  0
  161.3860  209.7050  152.7640 C   0  0  0  0  0  3  0  0  0  0  0  0
  161.9130  210.4480  150.5610 N   0  0  0  0  0  0  0  0  0  0  0  0
  160.9530  209.6950  155.0510 C   0  0  0  0  0  0  0  0  0  0  0  0
  160.8240  207.5750  153.8500 C   0  0  0  0  0  0  0  0  0  0  0  0
  162.0550  209.0840  148.6220 C   0  0  0  0  0  3  0  0  0  0  0  0
  160.3850  207.6780  156.2460 C   0  0  0  0  0  3  0  0  0  0  0  0
  161.7400  207.9710  149.3980 C   0  0  0  0  0  0  0  0  0  0  0  0
  162.4950  211.5300  148.4240 C   0  0  0  0  0  2  0  0  0  0  0  0
  161.2420  212.1730  147.8590 C   0  0  0  0  0  2  0  0  0  0  0  0
  160.8600  213.3470  148.6870 C   0  0  0  0  0  0  0  0  0  0  0  0
  161.5890  214.3750  148.6830 O   0  0  0  0  0  0  0  0  0  0  0  0
  159.7750  213.4490  150.8930 C   0  0  0  0  0  1  0  0  0  0  0  0
  159.7160  213.2830  149.4840 O   0  0  0  0  0  0  0  0  0  0  0  0
  161.6330  206.6430  148.7270 C   0  0  0  0  0  2  0  0  0  0  0  0
  162.2570  206.7040  147.4160 N   0  0  0  0  0  2  0  0  0  0  0  0
  161.1950  203.0860  147.2200 C   0  0  0  0  0  0  0  0  0  0  0  0
  162.1870  205.3700  146.8450 C   0  0  2  0  0  3  0  0  0  0  0  0
  160.9120  204.2530  145.0590 C   0  0  0  0  0  3  0  0  0  0  0  0
  161.2120  202.9350  145.7210 C   0  0  0  0  0  2  0  0  0  0  0  0
  161.3670  205.3980  145.5850 C   0  0  0  0  0  3  0  0  0  0  0  0
  161.5950  204.3890  147.8670 C   0  0  0  0  0  2  0  0  0  0  0  0
  160.8740  202.1400  147.9180 O   0  0  0  0  0  0  0  0  0  0  0  0
  1 10  1  0  0  0  0
  2 15  2  0  0  0  0
  3 13  2  0  0  0  0
  4  3  1  0  0  0  0
  5 13  1  0  0  0  0
  5 12  1  0  0  0  0
  7 15  1  0  0  0  0
  8 11  1  0  0  0  0
  9  1  1  0  0  0  0
  9  4  1  0  0  0  0
 10  5  2  0  0  0  0
 11  1  2  0  0  0  0
 12  6  1  0  0  0  0
 12  7  2  0  0  0  0
 13  2  1  0  0  0  0
 14  8  2  0  0  0  0
 14 16  1  0  0  0  0
 16  9  2  0  0  0  0
 17  8  1  0  0  0  0
 18 17  1  0  0  0  0
 18 19  1  0  0  0  0
 19 22  1  0  0  0  0
 20 19  2  0  0  0  0
 22 21  1  0  0  0  0
 23 16  1  0  0  0  0
 24 23  1  0  0  0  0
 25 30  1  0  0  0  0
 25 31  2  0  0  0  0
 26 24  1  1  0  0  0
 26 30  1  0  0  0  0
 27 29  2  0  0  0  0
 27 28  1  0  0  0  0
 28 25  1  0  0  0  0
 29 26  1  0  0  0  0
M  END
>  <MODEL>
7

>  <REMARK>
 VINA RESULT:      -8.8      1.681      7.389
  Name = 
  7 active torsions:
  status: ('A' for Active; 'I' for Inactive)
    1  A    between atoms: C_2  and  C_14
    2  A    between atoms: C_2  and  C_20
    3  A    between atoms: C_11  and  C_20
    4  A    between atoms: C_13  and  N_27
    5  A    between atoms: C_14  and  O_19
    6  A    between atoms: C_26  and  N_27
    7  A    between atoms: C_26  and  C_31
                            x       y       z     vdW  Elec       q    Type
                         _______ _______ _______ _____ _____    ______ ____

>  <TORSDO>
F 7

$$$$
=
 OpenBabel11042420273D

 31 34  0  0  1  0  0  0  0  0999 V2000
  161.4670  206.8430  151.0890 C   0  0  0  0  0  0  0  0  0  0  0  0
  161.0650  203.4010  148.1110 C   0  0  0  0  0  3  0  0  0  0  0  0
  161.3940  205.6610  148.2040 C   0  0  0  0  0  3  0  0  0  0  0  0
  161.5750  206.9820  148.6110 O   0  0  0  0  0  0  0  0  0  0  0  0
  161.1450  204.4110  150.3220 C   0  0  0  0  0  0  0  0  0  0  0  0
  160.8760  202.9320  152.2510 O   0  0  0  0  0  1  0  0  0  0  0  0
  160.8070  202.0040  150.0480 C   0  0  0  0  0  3  0  0  0  0  0  0
  161.6990  208.8660  152.3400 C   0  0  0  0  0  0  0  0  0  0  0  0
  161.6130  207.5540  149.8830 C   0  0  0  0  0  0  0  0  0  0  0  0
  161.2590  205.4030  151.2090 C   0  0  0  0  0  3  0  0  0  0  0  0
  161.5170  207.5220  152.2690 N   0  0  0  0  0  0  0  0  0  0  0  0
  160.9440  203.1210  150.8720 C   0  0  0  0  0  0  0  0  0  0  0  0
  161.2070  204.5450  148.9080 C   0  0  0  0  0  0  0  0  0  0  0  0
  161.8550  209.6020  151.1730 C   0  0  0  0  0  3  0  0  0  0  0  0
  160.8670  202.1420  148.6690 C   0  0  0  0  0  3  0  0  0  0  0  0
  161.8160  208.9460  149.9450 C   0  0  0  0  0  0  0  0  0  0  0  0
  161.7620  209.5410  153.6640 C   0  0  0  0  0  2  0  0  0  0  0  0
  160.4530  209.3490  154.4070 C   0  0  0  0  0  2  0  0  0  0  0  0
  159.7200  210.6410  154.4810 C   0  0  0  0  0  0  0  0  0  0  0  0
  158.6130  210.6950  155.0810 O   0  0  0  0  0  0  0  0  0  0  0  0
  159.6340  212.3570  152.7210 C   0  0  0  0  0  1  0  0  0  0  0  0
  160.2520  211.7690  153.8560 O   0  0  0  0  0  0  0  0  0  0  0  0
  161.9590  209.7560  148.7000 C   0  0  0  0  0  2  0  0  0  0  0  0
  161.9970  211.1700  149.0370 N   0  0  0  0  0  2  0  0  0  0  0  0
  160.5630  213.2330  146.2190 C   0  0  0  0  0  0  0  0  0  0  0  0
  162.0220  211.9080  147.7860 C   0  0  2  0  0  3  0  0  0  0  0  0
  162.7000  214.1580  147.0500 C   0  0  0  0  0  3  0  0  0  0  0  0
  161.8110  213.9900  145.8470 C   0  0  0  0  0  2  0  0  0  0  0  0
  162.8000  213.1830  147.9630 C   0  0  0  0  0  3  0  0  0  0  0  0
  160.5890  212.1960  147.3150 C   0  0  0  0  0  2  0  0  0  0  0  0
  159.5260  213.4450  145.6150 O   0  0  0  0  0  0  0  0  0  0  0  0
  1 10  1  0  0  0  0
  1 11  1  0  0  0  0
  2 15  2  0  0  0  0
  2 13  1  0  0  0  0
  3  4  1  0  0  0  0
  3 13  2  0  0  0  0
  4  9  1  0  0  0  0
  5 12  1  0  0  0  0
  5 10  2  0  0  0  0
  7 12  2  0  0  0  0
  8 17  1  0  0  0  0
  9 16  1  0  0  0  0
  9  1  2  0  0  0  0
 11  8  2  0  0  0  0
 12  6  1  0  0  0  0
 13  5  1  0  0  0  0
 14  8  1  0  0  0  0
 15  7  1  0  0  0  0
 16 14  2  0  0  0  0
 17 18  1  0  0  0  0
 18 19  1  0  0  0  0
 19 20  2  0  0  0  0
 21 22  1  0  0  0  0
 22 19  1  0  0  0  0
 23 24  1  0  0  0  0
 23 16  1  0  0  0  0
 25 30  1  0  0  0  0
 26 29  1  0  0  0  0
 26 24  1  1  0  0  0
 27 29  2  0  0  0  0
 28 25  1  0  0  0  0
 28 27  1  0  0  0  0
 30 26  1  0  0  0  0
 31 25  2  0  0  0  0
M  END
>  <MODEL>
8

>  <REMARK>
 VINA RESULT:      -8.7      1.984      6.246
  Name = 
  7 active torsions:
  status: ('A' for Active; 'I' for Inactive)
    1  A    between atoms: C_2  and  C_14
    2  A    between atoms: C_2  and  C_20
    3  A    between atoms: C_11  and  C_20
    4  A    between atoms: C_13  and  N_27
    5  A    between atoms: C_14  and  O_19
    6  A    between atoms: C_26  and  N_27
    7  A    between atoms: C_26  and  C_31
                            x       y       z     vdW  Elec       q    Type
                         _______ _______ _______ _____ _____    ______ ____

>  <TORSDO>
F 7

$$$$
=
 OpenBabel11042420273D

 31 34  0  0  1  0  0  0  0  0999 V2000
  160.9630  208.4580  152.2940 C   0  0  0  0  0  0  0  0  0  0  0  0
  160.0930  209.1250  156.7290 C   0  0  0  0  0  3  0  0  0  0  0  0
  160.4840  207.4630  155.2100 C   0  0  0  0  0  3  0  0  0  0  0  0
  160.7480  206.7230  154.0590 O   0  0  0  0  0  0  0  0  0  0  0  0
  160.4870  209.8080  154.4300 C   0  0  0  0  0  0  0  0  0  0  0  0
  160.4400  212.2030  153.9380 O   0  0  0  0  0  1  0  0  0  0  0  0
  160.0600  211.4620  156.1790 C   0  0  0  0  0  3  0  0  0  0  0  0
  161.4040  207.7400  150.0580 C   0  0  0  0  0  0  0  0  0  0  0  0
  160.9660  207.1230  152.7400 C   0  0  0  0  0  0  0  0  0  0  0  0
  160.7400  209.6350  153.1300 C   0  0  0  0  0  3  0  0  0  0  0  0
  161.1840  208.7170  150.9750 N   0  0  0  0  0  0  0  0  0  0  0  0
  160.3300  211.1530  154.8460 C   0  0  0  0  0  0  0  0  0  0  0  0
  160.3660  208.7770  155.4000 C   0  0  0  0  0  0  0  0  0  0  0  0
  161.4230  206.4110  150.4590 C   0  0  0  0  0  3  0  0  0  0  0  0
  159.9410  210.4510  157.1210 C   0  0  0  0  0  3  0  0  0  0  0  0
  161.2080  206.1030  151.8000 C   0  0  0  0  0  0  0  0  0  0  0  0
  161.6570  208.0950  148.6360 C   0  0  0  0  0  2  0  0  0  0  0  0
  162.3660  206.9520  147.9330 C   0  0  0  0  0  2  0  0  0  0  0  0
  161.5000  206.4080  146.8550 C   0  0  0  0  0  0  0  0  0  0  0  0
  160.2460  206.4500  146.9820 O   0  0  0  0  0  0  0  0  0  0  0  0
  163.0840  204.8240  145.8390 C   0  0  0  0  0  1  0  0  0  0  0  0
  162.0860  205.8280  145.7290 O   0  0  0  0  0  0  0  0  0  0  0  0
  161.2040  204.6680  152.2090 C   0  0  0  0  0  2  0  0  0  0  0  0
  162.0070  203.8910  151.2790 N   0  0  0  0  0  2  0  0  0  0  0  0
  160.8300  202.4130  148.0100 C   0  0  0  0  0  0  0  0  0  0  0  0
  161.0880  203.2080  150.3850 C   0  0  2  0  0  3  0  0  0  0  0  0
  160.4560  200.8760  149.9100 C   0  0  0  0  0  3  0  0  0  0  0  0
  159.9460  201.3280  148.5680 C   0  0  0  0  0  2  0  0  0  0  0  0
  160.9940  201.7560  150.7650 C   0  0  0  0  0  3  0  0  0  0  0  0
  161.5490  203.3700  148.9300 C   0  0  0  0  0  2  0  0  0  0  0  0
  160.9490  202.5330  146.8030 O   0  0  0  0  0  0  0  0  0  0  0  0
  1  9  1  0  0  0  0
  1 10  1  0  0  0  0
  2 15  2  0  0  0  0
  3 13  2  0  0  0  0
  4  3  1  0  0  0  0
  5 12  1  0  0  0  0
  5 13  1  0  0  0  0
  6 12  1  0  0  0  0
  7 15  1  0  0  0  0
  8 14  2  0  0  0  0
  8 11  1  0  0  0  0
  9  4  1  0  0  0  0
 10  5  2  0  0  0  0
 11  1  2  0  0  0  0
 12  7  2  0  0  0  0
 13  2  1  0  0  0  0
 14 16  1  0  0  0  0
 16 23  1  0  0  0  0
 16  9  2  0  0  0  0
 17  8  1  0  0  0  0
 18 17  1  0  0  0  0
 19 20  2  0  0  0  0
 19 18  1  0  0  0  0
 22 21  1  0  0  0  0
 22 19  1  0  0  0  0
 24 23  1  0  0  0  0
 25 28  1  0  0  0  0
 25 30  1  0  0  0  0
 26 29  1  0  0  0  0
 26 24  1  1  0  0  0
 27 29  2  0  0  0  0
 28 27  1  0  0  0  0
 30 26  1  0  0  0  0
 31 25  2  0  0  0  0
M  END
>  <MODEL>
9

>  <REMARK>
 VINA RESULT:      -8.6      2.435      7.936
  Name = 
  7 active torsions:
  status: ('A' for Active; 'I' for Inactive)
    1  A    between atoms: C_2  and  C_14
    2  A    between atoms: C_2  and  C_20
    3  A    between atoms: C_11  and  C_20
    4  A    between atoms: C_13  and  N_27
    5  A    between atoms: C_14  and  O_19
    6  A    between atoms: C_26  and  N_27
    7  A    between atoms: C_26  and  C_31
                            x       y       z     vdW  Elec       q    Type
                         _______ _______ _______ _____ _____    ______ ____

>  <TORSDO>
F 7

$$$$
