=
 OpenBabel11052410153D

 25 30  0  0  1  0  0  0  0  0999 V2000
  160.1040  207.2310  155.3760 C   0  0  2  0  0  3  0  0  0  0  0  0
  160.8440  203.4110  152.0710 C   0  0  0  0  0  2  0  0  0  0  0  0
  161.2510  208.0560  151.9870 N   0  0  0  0  0  0  0  0  0  0  0  0
  161.0760  207.2850  154.2860 C   0  0  2  0  0  0  0  0  0  0  0  0
  161.0680  208.3880  153.2320 C   0  0  0  0  0  0  0  0  0  0  0  0
  161.0120  209.7860  153.5590 N   0  0  0  0  0  0  0  0  0  0  0  0
  159.0490  208.3350  155.2660 C   0  0  0  0  0  2  0  0  0  0  0  0
  161.8080  204.7290  150.2890 C   0  0  1  0  0  3  0  0  0  0  0  0
  160.6550  203.8630  149.8040 C   0  0  0  0  0  2  0  0  0  0  0  0
  159.5930  209.6660  155.4950 N   0  0  0  0  0  2  0  0  0  0  0  0
  160.6120  211.8290  154.7490 C   0  0  0  0  0  1  0  0  0  0  0  0
  161.5610  206.2520  150.1700 C   0  0  2  0  0  3  0  0  0  0  0  0
  161.6370  205.7120  152.4450 C   0  0  0  0  0  0  0  0  0  0  0  0
  160.4350  210.3640  154.5730 C   0  0  0  0  0  0  0  0  0  0  0  0
  161.9350  204.4220  151.7760 C   0  0  1  0  0  3  0  0  0  0  0  0
  161.7270  205.9490  153.9250 C   0  0  0  0  0  2  0  0  0  0  0  0
  161.4680  207.7530  155.6200 N   0  0  0  0  0  2  0  0  0  0  0  0
  160.4210  202.8330  150.8050 N   0  0  0  0  0  2  0  0  0  0  0  0
  161.4470  206.6930  151.5810 C   0  0  0  0  0  0  0  0  0  0  0  0
  160.3380  206.5720  149.4400 N   0  0  0  0  0  2  0  0  0  0  0  0
  162.2950  206.1460  146.5110 C   0  0  0  0  0  2  0  0  0  0  0  0
  162.2030  206.7150  147.8950 C   0  0  0  0  0  2  0  0  0  0  0  0
  160.8610  206.0990  146.0400 C   0  0  0  0  0  2  0  0  0  0  0  0
  160.0230  206.1690  147.1620 O   0  0  0  0  0  0  0  0  0  0  0  0
  160.7240  206.9520  148.0910 C   0  0  1  0  0  3  0  0  0  0  0  0
  1  7  1  6  0  0  0
  1 17  1  0  0  0  0
  3  5  2  0  0  0  0
  4 16  1  6  0  0  0
  4  1  1  0  0  0  0
  4 17  1  0  0  0  0
  5  6  1  0  0  0  0
  5  4  1  0  0  0  0
  6 14  2  0  0  0  0
  7 10  1  0  0  0  0
  8  9  1  1  0  0  0
  8 15  1  0  0  0  0
  9 18  1  0  0  0  0
 12 20  1  6  0  0  0
 12  8  1  0  0  0  0
 12 19  1  0  0  0  0
 13 16  1  0  0  0  0
 14 11  1  0  0  0  0
 14 10  1  0  0  0  0
 15  2  1  1  0  0  0
 15 13  1  0  0  0  0
 18  2  1  0  0  0  0
 19  3  1  0  0  0  0
 19 13  2  0  0  0  0
 21 22  1  0  0  0  0
 22 25  1  0  0  0  0
 23 21  1  0  0  0  0
 23 24  1  0  0  0  0
 24 25  1  0  0  0  0
 25 20  1  1  0  0  0
M  END
>  <MODEL>
1

>  <REMARK>
 VINA RESULT:      -7.0      0.000      0.000
  Name = 
  2 active torsions:
  status: ('A' for Active; 'I' for Inactive)
    1  A    between atoms: N_1  and  C_17
    2  A    between atoms: N_1  and  C_24
                            x       y       z     vdW  Elec       q    Type
                         _______ _______ _______ _____ _____    ______ ____

>  <TORSDO>
F 2

$$$$
=
 OpenBabel11052410153D

 25 30  0  0  1  0  0  0  0  0999 V2000
  159.5600  210.5270  154.0270 C   0  0  2  0  0  3  0  0  0  0  0  0
  161.0730  205.6710  153.5890 C   0  0  0  0  0  2  0  0  0  0  0  0
  161.3120  209.5170  150.9630 N   0  0  0  0  0  0  0  0  0  0  0  0
  160.7230  210.1120  153.2440 C   0  0  2  0  0  0  0  0  0  0  0  0
  160.8770  210.4460  151.7640 C   0  0  0  0  0  0  0  0  0  0  0  0
  160.7060  211.7710  151.2350 N   0  0  0  0  0  0  0  0  0  0  0  0
  158.5050  211.2300  153.1680 C   0  0  0  0  0  2  0  0  0  0  0  0
  162.3150  205.9210  151.5300 C   0  0  1  0  0  3  0  0  0  0  0  0
  161.3120  204.7780  151.4610 C   0  0  0  0  0  2  0  0  0  0  0  0
  158.9430  212.5300  152.6830 N   0  0  0  0  0  2  0  0  0  0  0  0
  160.0040  214.0510  150.9990 C   0  0  0  0  0  1  0  0  0  0  0  0
  162.0370  207.0780  150.5410 C   0  0  2  0  0  3  0  0  0  0  0  0
  161.6910  207.8870  152.7090 C   0  0  0  0  0  0  0  0  0  0  0  0
  159.9210  212.7210  151.6550 C   0  0  0  0  0  0  0  0  0  0  0  0
  162.1610  206.4970  152.9320 C   0  0  1  0  0  3  0  0  0  0  0  0
  161.4820  208.9030  153.7930 C   0  0  0  0  0  2  0  0  0  0  0  0
  160.8300  211.2820  154.1230 N   0  0  0  0  0  2  0  0  0  0  0  0
  160.9270  204.4420  152.8230 N   0  0  0  0  0  2  0  0  0  0  0  0
  161.6350  208.1970  151.4260 C   0  0  0  0  0  0  0  0  0  0  0  0
  160.9680  206.7720  149.5960 N   0  0  0  0  0  2  0  0  0  0  0  0
  161.3690  204.7740  146.6910 C   0  0  0  0  0  2  0  0  0  0  0  0
  161.7260  204.9920  148.1300 C   0  0  0  0  0  2  0  0  0  0  0  0
  161.0530  206.1590  146.1780 C   0  0  0  0  0  2  0  0  0  0  0  0
  160.7890  206.9890  147.2770 O   0  0  0  0  0  0  0  0  0  0  0  0
  161.5900  206.4860  148.3130 C   0  0  1  0  0  3  0  0  0  0  0  0
  1  7  1  6  0  0  0
  1 17  1  0  0  0  0
  3 19  1  0  0  0  0
  3  5  2  0  0  0  0
  4 16  1  1  0  0  0
  4  1  1  0  0  0  0
  4 17  1  0  0  0  0
  5  4  1  0  0  0  0
  6 14  2  0  0  0  0
  6  5  1  0  0  0  0
  8  9  1  6  0  0  0
  8 15  1  0  0  0  0
  9 18  1  0  0  0  0
 10  7  1  0  0  0  0
 11 14  1  0  0  0  0
 12 20  1  6  0  0  0
 12 19  1  0  0  0  0
 12  8  1  0  0  0  0
 13 15  1  0  0  0  0
 13 16  1  0  0  0  0
 14 10  1  0  0  0  0
 15  2  1  1  0  0  0
 18  2  1  0  0  0  0
 19 13  2  0  0  0  0
 21 22  1  0  0  0  0
 22 25  1  0  0  0  0
 23 21  1  0  0  0  0
 23 24  1  0  0  0  0
 24 25  1  0  0  0  0
 25 20  1  1  0  0  0
M  END
>  <MODEL>
2

>  <REMARK>
 VINA RESULT:      -6.7      1.976      2.629
  Name = 
  2 active torsions:
  status: ('A' for Active; 'I' for Inactive)
    1  A    between atoms: N_1  and  C_17
    2  A    between atoms: N_1  and  C_24
                            x       y       z     vdW  Elec       q    Type
                         _______ _______ _______ _____ _____    ______ ____

>  <TORSDO>
F 2

$$$$
=
 OpenBabel11052410153D

 25 30  0  0  1  0  0  0  0  0999 V2000
  160.0340  213.3360  149.4900 C   0  0  2  0  0  3  0  0  0  0  0  0
  160.9770  209.1660  152.2790 C   0  0  0  0  0  2  0  0  0  0  0  0
  161.7500  210.5170  147.8840 N   0  0  0  0  0  0  0  0  0  0  0  0
  161.1640  212.4420  149.2460 C   0  0  2  0  0  0  0  0  0  0  0  0
  161.4040  211.7710  147.8980 C   0  0  0  0  0  0  0  0  0  0  0  0
  161.4060  212.4880  146.6530 N   0  0  0  0  0  0  0  0  0  0  0  0
  159.0970  213.4280  148.2820 C   0  0  0  0  0  2  0  0  0  0  0  0
  162.3040  207.9910  150.6360 C   0  0  1  0  0  3  0  0  0  0  0  0
  161.1760  207.1300  151.1860 C   0  0  0  0  0  2  0  0  0  0  0  0
  159.7000  214.1080  147.1460 N   0  0  0  0  0  2  0  0  0  0  0  0
  160.9870  214.1710  144.9970 C   0  0  0  0  0  1  0  0  0  0  0  0
  162.1960  208.2990  149.1230 C   0  0  2  0  0  3  0  0  0  0  0  0
  161.8790  210.3020  150.2890 C   0  0  0  0  0  0  0  0  0  0  0  0
  160.7260  213.5470  146.3200 C   0  0  0  0  0  0  0  0  0  0  0  0
  162.1750  209.3230  151.3640 C   0  0  1  0  0  3  0  0  0  0  0  0
  161.7570  211.7850  150.4930 C   0  0  0  0  0  2  0  0  0  0  0  0
  161.3800  213.8930  149.2250 N   0  0  0  0  0  2  0  0  0  0  0  0
  160.7110  207.7430  152.4210 N   0  0  0  0  0  2  0  0  0  0  0  0
  161.9010  209.7520  149.0890 C   0  0  0  0  0  0  0  0  0  0  0  0
  161.1280  207.5510  148.4670 N   0  0  0  0  0  2  0  0  0  0  0  0
  161.5030  204.3940  146.8910 C   0  0  0  0  0  2  0  0  0  0  0  0
  161.8580  205.2740  148.0510 C   0  0  0  0  0  2  0  0  0  0  0  0
  161.2180  205.3650  145.7700 C   0  0  0  0  0  2  0  0  0  0  0  0
  160.9650  206.6250  146.3290 O   0  0  0  0  0  0  0  0  0  0  0  0
  161.7510  206.6730  147.4900 C   0  0  1  0  0  3  0  0  0  0  0  0
  1  7  1  6  0  0  0
  2 18  1  0  0  0  0
  3  5  2  0  0  0  0
  3 19  1  0  0  0  0
  4  1  1  0  0  0  0
  4 16  1  1  0  0  0
  5  4  1  0  0  0  0
  6  5  1  0  0  0  0
  8  9  1  1  0  0  0
  8 15  1  0  0  0  0
  9 18  1  0  0  0  0
 10  7  1  0  0  0  0
 11 14  1  0  0  0  0
 12 20  1  1  0  0  0
 12  8  1  0  0  0  0
 13 16  1  0  0  0  0
 13 15  1  0  0  0  0
 14  6  2  0  0  0  0
 14 10  1  0  0  0  0
 15  2  1  1  0  0  0
 17  4  1  0  0  0  0
 17  1  1  0  0  0  0
 19 12  1  0  0  0  0
 19 13  2  0  0  0  0
 21 22  1  0  0  0  0
 23 24  1  0  0  0  0
 23 21  1  0  0  0  0
 24 25  1  0  0  0  0
 25 22  1  0  0  0  0
 25 20  1  1  0  0  0
M  END
>  <MODEL>
3

>  <REMARK>
 VINA RESULT:      -6.3      4.330      5.926
  Name = 
  2 active torsions:
  status: ('A' for Active; 'I' for Inactive)
    1  A    between atoms: N_1  and  C_17
    2  A    between atoms: N_1  and  C_24
                            x       y       z     vdW  Elec       q    Type
                         _______ _______ _______ _____ _____    ______ ____

>  <TORSDO>
F 2

$$$$
=
 OpenBabel11052410153D

 25 30  0  0  1  0  0  0  0  0999 V2000
  161.0160  207.0430  149.2100 C   0  0  2  0  0  3  0  0  0  0  0  0
  160.4610  211.7270  151.1630 C   0  0  0  0  0  2  0  0  0  0  0  0
  161.2740  207.4560  152.8480 N   0  0  0  0  0  0  0  0  0  0  0  0
  161.6570  207.4810  150.4480 C   0  0  2  0  0  0  0  0  0  0  0  0
  161.4680  206.7490  151.7730 C   0  0  0  0  0  0  0  0  0  0  0  0
  161.6380  205.3300  151.9170 N   0  0  0  0  0  0  0  0  0  0  0  0
  160.0820  205.8510  149.4310 C   0  0  0  0  0  2  0  0  0  0  0  0
  161.0270  211.1760  153.4470 C   0  0  1  0  0  3  0  0  0  0  0  0
  159.7080  211.9280  153.3470 C   0  0  0  0  0  2  0  0  0  0  0  0
  160.7930  204.6290  149.7780 N   0  0  0  0  0  2  0  0  0  0  0  0
  161.7730  202.9920  151.4010 C   0  0  0  0  0  1  0  0  0  0  0  0
  160.9030  209.7350  153.9970 C   0  0  2  0  0  3  0  0  0  0  0  0
  161.5430  209.5950  151.7510 C   0  0  0  0  0  0  0  0  0  0  0  0
  161.4160  204.3890  151.0450 C   0  0  0  0  0  0  0  0  0  0  0  0
  161.5220  211.0550  152.0110 C   0  0  1  0  0  3  0  0  0  0  0  0
  162.0530  208.9580  150.4910 C   0  0  0  0  0  2  0  0  0  0  0  0
  162.4390  206.7230  149.4660 N   0  0  0  0  0  2  0  0  0  0  0  0
  159.6560  212.5640  152.0390 N   0  0  0  0  0  2  0  0  0  0  0  0
  161.2200  208.8900  152.8210 C   0  0  0  0  0  0  0  0  0  0  0  0
  159.5650  209.4300  154.4930 N   0  0  0  0  0  2  0  0  0  0  0  0
  160.4590  206.9530  156.8710 C   0  0  0  0  0  2  0  0  0  0  0  0
  159.4210  207.4760  155.9250 C   0  0  0  0  0  2  0  0  0  0  0  0
  161.2510  208.1800  157.2590 C   0  0  0  0  0  2  0  0  0  0  0  0
  161.0180  209.1780  156.3030 O   0  0  0  0  0  0  0  0  0  0  0  0
  159.7050  208.9600  155.8610 C   0  0  1  0  0  3  0  0  0  0  0  0
  1  7  1  1  0  0  0
  1 17  1  0  0  0  0
  1  4  1  0  0  0  0
  2 18  1  0  0  0  0
  4 16  1  1  0  0  0
  4  5  1  0  0  0  0
  5  6  1  0  0  0  0
  5  3  2  0  0  0  0
  7 10  1  0  0  0  0
  8  9  1  6  0  0  0
  8 12  1  0  0  0  0
 10 14  1  0  0  0  0
 12 20  1  6  0  0  0
 13 15  1  0  0  0  0
 13 19  2  0  0  0  0
 14 11  1  0  0  0  0
 14  6  2  0  0  0  0
 15  2  1  6  0  0  0
 15  8  1  0  0  0  0
 16 13  1  0  0  0  0
 17  4  1  0  0  0  0
 18  9  1  0  0  0  0
 19  3  1  0  0  0  0
 19 12  1  0  0  0  0
 21 23  1  0  0  0  0
 22 21  1  0  0  0  0
 24 23  1  0  0  0  0
 25 20  1  6  0  0  0
 25 22  1  0  0  0  0
 25 24  1  0  0  0  0
M  END
>  <MODEL>
4

>  <REMARK>
 VINA RESULT:      -6.1      2.685      7.164
  Name = 
  2 active torsions:
  status: ('A' for Active; 'I' for Inactive)
    1  A    between atoms: N_1  and  C_17
    2  A    between atoms: N_1  and  C_24
                            x       y       z     vdW  Elec       q    Type
                         _______ _______ _______ _____ _____    ______ ____

>  <TORSDO>
F 2

$$$$
=
 OpenBabel11052410153D

 25 30  0  0  1  0  0  0  0  0999 V2000
  161.5380  200.9530  149.6680 C   0  0  2  0  0  3  0  0  0  0  0  0
  162.0000  205.4650  152.0100 C   0  0  0  0  0  2  0  0  0  0  0  0
  160.7860  203.9950  147.7550 N   0  0  0  0  0  0  0  0  0  0  0  0
  160.7470  202.1310  149.3130 C   0  0  2  0  0  0  0  0  0  0  0  0
  160.7170  202.7040  147.9000 C   0  0  0  0  0  0  0  0  0  0  0  0
  160.4720  201.9030  146.7320 N   0  0  0  0  0  0  0  0  0  0  0  0
  162.3820  200.4480  148.4950 C   0  0  0  0  0  2  0  0  0  0  0  0
  161.0950  206.8290  150.2310 C   0  0  1  0  0  3  0  0  0  0  0  0
  162.4450  207.3390  150.7170 C   0  0  0  0  0  2  0  0  0  0  0  0
  161.5810  199.8840  147.4190 N   0  0  0  0  0  2  0  0  0  0  0  0
  160.3160  200.0170  145.2610 C   0  0  0  0  0  1  0  0  0  0  0  0
  161.0820  206.3520  148.7590 C   0  0  2  0  0  3  0  0  0  0  0  0
  160.7600  204.4800  150.1240 C   0  0  0  0  0  0  0  0  0  0  0  0
  160.7770  200.6550  146.5210 C   0  0  0  0  0  0  0  0  0  0  0  0
  160.8030  205.6050  151.0900 C   0  0  1  0  0  3  0  0  0  0  0  0
  160.4080  203.0640  150.4760 C   0  0  0  0  0  2  0  0  0  0  0  0
  160.0810  200.8290  149.4310 N   0  0  0  0  0  2  0  0  0  0  0  0
  162.7060  206.7380  152.0160 N   0  0  0  0  0  2  0  0  0  0  0  0
  160.9000  204.8850  148.8750 C   0  0  0  0  0  0  0  0  0  0  0  0
  162.3240  206.6540  148.0540 N   0  0  0  0  0  2  0  0  0  0  0  0
  161.6450  205.3320  144.8320 C   0  0  0  0  0  2  0  0  0  0  0  0
  162.6820  205.7390  145.8350 C   0  0  0  0  0  2  0  0  0  0  0  0
  160.4560  206.2030  145.1610 C   0  0  0  0  0  2  0  0  0  0  0  0
  160.6110  206.6890  146.4670 O   0  0  0  0  0  0  0  0  0  0  0  0
  161.9970  206.8140  146.6470 C   0  0  1  0  0  3  0  0  0  0  0  0
  1  7  1  6  0  0  0
  2 18  1  0  0  0  0
  3  5  2  0  0  0  0
  3 19  1  0  0  0  0
  4 17  1  0  0  0  0
  4  1  1  0  0  0  0
  4 16  1  1  0  0  0
  5  4  1  0  0  0  0
  6  5  1  0  0  0  0
  8  9  1  1  0  0  0
  8 15  1  0  0  0  0
  9 18  1  0  0  0  0
 10  7  1  0  0  0  0
 11 14  1  0  0  0  0
 12 20  1  1  0  0  0
 12 19  1  0  0  0  0
 12  8  1  0  0  0  0
 13 16  1  0  0  0  0
 13 15  1  0  0  0  0
 14  6  2  0  0  0  0
 14 10  1  0  0  0  0
 15  2  1  1  0  0  0
 17  1  1  0  0  0  0
 19 13  2  0  0  0  0
 21 23  1  0  0  0  0
 21 22  1  0  0  0  0
 22 25  1  0  0  0  0
 23 24  1  0  0  0  0
 24 25  1  0  0  0  0
 25 20  1  1  0  0  0
M  END
>  <MODEL>
5

>  <REMARK>
 VINA RESULT:      -6.0      3.006      6.947
  Name = 
  2 active torsions:
  status: ('A' for Active; 'I' for Inactive)
    1  A    between atoms: N_1  and  C_17
    2  A    between atoms: N_1  and  C_24
                            x       y       z     vdW  Elec       q    Type
                         _______ _______ _______ _____ _____    ______ ____

>  <TORSDO>
F 2

$$$$
=
 OpenBabel11052410153D

 25 30  0  0  1  0  0  0  0  0999 V2000
  160.2350  210.0040  153.2310 C   0  0  2  0  0  3  0  0  0  0  0  0
  160.8590  204.9610  152.7360 C   0  0  0  0  0  2  0  0  0  0  0  0
  161.5940  208.7170  150.0720 N   0  0  0  0  0  0  0  0  0  0  0  0
  161.2590  209.3970  152.3820 C   0  0  2  0  0  0  0  0  0  0  0  0
  161.3770  209.7040  150.8920 C   0  0  0  0  0  0  0  0  0  0  0  0
  161.4040  211.0400  150.3650 N   0  0  0  0  0  0  0  0  0  0  0  0
  159.2660  210.8810  152.4330 C   0  0  0  0  0  2  0  0  0  0  0  0
  161.9960  205.0000  150.6030 C   0  0  1  0  0  3  0  0  0  0  0  0
  160.8090  204.0480  150.6050 C   0  0  0  0  0  2  0  0  0  0  0  0
  159.8910  212.0880  151.9120 N   0  0  0  0  0  2  0  0  0  0  0  0
  161.0920  213.4090  150.1550 C   0  0  0  0  0  1  0  0  0  0  0  0
  161.8610  206.1910  149.6250 C   0  0  2  0  0  3  0  0  0  0  0  0
  161.7940  207.0400  151.8040 C   0  0  0  0  0  0  0  0  0  0  0  0
  160.8220  212.1110  150.8250 C   0  0  0  0  0  0  0  0  0  0  0  0
  162.0310  205.5900  152.0080 C   0  0  1  0  0  3  0  0  0  0  0  0
  161.8300  208.0740  152.8920 C   0  0  0  0  0  2  0  0  0  0  0  0
  161.6200  210.5290  153.2430 N   0  0  0  0  0  2  0  0  0  0  0  0
  160.4560  203.7790  151.9910 N   0  0  0  0  0  2  0  0  0  0  0  0
  161.7130  207.3600  150.5250 C   0  0  0  0  0  0  0  0  0  0  0  0
  160.6990  206.0770  148.7490 N   0  0  0  0  0  2  0  0  0  0  0  0
  161.2260  204.5620  145.5840 C   0  0  0  0  0  2  0  0  0  0  0  0
  161.7120  204.7470  146.9900 C   0  0  0  0  0  2  0  0  0  0  0  0
  160.4560  205.8280  145.2940 C   0  0  0  0  0  2  0  0  0  0  0  0
  160.1290  206.4380  146.5140 O   0  0  0  0  0  0  0  0  0  0  0  0
  161.1830  206.1080  147.3790 C   0  0  1  0  0  3  0  0  0  0  0  0
  1  7  1  6  0  0  0
  1 17  1  0  0  0  0
  3 19  1  0  0  0  0
  3  5  2  0  0  0  0
  4 16  1  1  0  0  0
  4  1  1  0  0  0  0
  4 17  1  0  0  0  0
  5  4  1  0  0  0  0
  6 14  2  0  0  0  0
  6  5  1  0  0  0  0
  8  9  1  1  0  0  0
  8 15  1  0  0  0  0
  9 18  1  0  0  0  0
 10  7  1  0  0  0  0
 11 14  1  0  0  0  0
 12 20  1  6  0  0  0
 12 19  1  0  0  0  0
 12  8  1  0  0  0  0
 13 15  1  0  0  0  0
 13 16  1  0  0  0  0
 14 10  1  0  0  0  0
 15  2  1  1  0  0  0
 18  2  1  0  0  0  0
 19 13  2  0  0  0  0
 21 22  1  0  0  0  0
 22 25  1  0  0  0  0
 23 21  1  0  0  0  0
 23 24  1  0  0  0  0
 24 25  1  0  0  0  0
 25 20  1  1  0  0  0
M  END
>  <MODEL>
6

>  <REMARK>
 VINA RESULT:      -5.9      1.992      2.546
  Name = 
  2 active torsions:
  status: ('A' for Active; 'I' for Inactive)
    1  A    between atoms: N_1  and  C_17
    2  A    between atoms: N_1  and  C_24
                            x       y       z     vdW  Elec       q    Type
                         _______ _______ _______ _____ _____    ______ ____

>  <TORSDO>
F 2

$$$$
=
 OpenBabel11052410153D

 25 30  0  0  1  0  0  0  0  0999 V2000
  159.9340  207.9790  155.4730 C   0  0  2  0  0  3  0  0  0  0  0  0
  160.8320  205.9110  150.8930 C   0  0  0  0  0  2  0  0  0  0  0  0
  161.8650  209.9240  153.0310 N   0  0  0  0  0  0  0  0  0  0  0  0
  161.1120  208.2900  154.6640 C   0  0  2  0  0  0  0  0  0  0  0  0
  161.4720  209.7140  154.2530 C   0  0  0  0  0  0  0  0  0  0  0  0
  161.5360  210.8080  155.1830 N   0  0  0  0  0  0  0  0  0  0  0  0
  159.0830  209.2190  155.7590 C   0  0  0  0  0  2  0  0  0  0  0  0
  162.3150  207.6300  150.0640 C   0  0  1  0  0  3  0  0  0  0  0  0
  161.1830  207.3300  149.0920 C   0  0  0  0  0  2  0  0  0  0  0  0
  159.7400  210.1670  156.6470 N   0  0  0  0  0  2  0  0  0  0  0  0
  161.1730  212.1650  157.1260 C   0  0  0  0  0  1  0  0  0  0  0  0
  162.3030  209.0680  150.6380 C   0  0  2  0  0  3  0  0  0  0  0  0
  161.8300  207.5920  152.3900 C   0  0  0  0  0  0  0  0  0  0  0  0
  160.8420  210.9980  156.2680 C   0  0  0  0  0  0  0  0  0  0  0  0
  162.0850  206.6890  151.2410 C   0  0  1  0  0  3  0  0  0  0  0  0
  161.6390  207.1380  153.8080 C   0  0  0  0  0  2  0  0  0  0  0  0
  161.2750  208.0360  156.1000 N   0  0  0  0  0  2  0  0  0  0  0  0
  160.6090  206.0450  149.4610 N   0  0  0  0  0  2  0  0  0  0  0  0
  161.9580  208.8660  152.0650 C   0  0  0  0  0  0  0  0  0  0  0  0
  161.3140  209.9270  149.9940 N   0  0  0  0  0  2  0  0  0  0  0  0
  162.1310  212.5730  147.7760 C   0  0  0  0  0  2  0  0  0  0  0  0
  162.4480  211.1910  148.2610 C   0  0  0  0  0  2  0  0  0  0  0  0
  161.4890  213.2400  148.9690 C   0  0  0  0  0  2  0  0  0  0  0  0
  161.0530  212.2430  149.8530 O   0  0  0  0  0  0  0  0  0  0  0  0
  161.9660  211.1910  149.6930 C   0  0  1  0  0  3  0  0  0  0  0  0
  1  7  1  1  0  0  0
  1 17  1  0  0  0  0
  3  5  2  0  0  0  0
  4 16  1  6  0  0  0
  4  1  1  0  0  0  0
  4 17  1  0  0  0  0
  5  4  1  0  0  0  0
  5  6  1  0  0  0  0
  6 14  2  0  0  0  0
  7 10  1  0  0  0  0
  8  9  1  6  0  0  0
  8 12  1  0  0  0  0
  8 15  1  0  0  0  0
  9 18  1  0  0  0  0
 12 20  1  6  0  0  0
 12 19  1  0  0  0  0
 13 16  1  0  0  0  0
 14 10  1  0  0  0  0
 14 11  1  0  0  0  0
 15  2  1  6  0  0  0
 15 13  1  0  0  0  0
 18  2  1  0  0  0  0
 19 13  2  0  0  0  0
 19  3  1  0  0  0  0
 21 22  1  0  0  0  0
 21 23  1  0  0  0  0
 22 25  1  0  0  0  0
 23 24  1  0  0  0  0
 25 24  1  0  0  0  0
 25 20  1  6  0  0  0
M  END
>  <MODEL>
7

>  <REMARK>
 VINA RESULT:      -5.8      2.843      3.434
  Name = 
  2 active torsions:
  status: ('A' for Active; 'I' for Inactive)
    1  A    between atoms: N_1  and  C_17
    2  A    between atoms: N_1  and  C_24
                            x       y       z     vdW  Elec       q    Type
                         _______ _______ _______ _____ _____    ______ ____

>  <TORSDO>
F 2

$$$$
=
 OpenBabel11052410153D

 25 30  0  0  1  0  0  0  0  0999 V2000
  157.3930  212.9060  155.1330 C   0  0  2  0  0  3  0  0  0  0  0  0
  160.3620  209.3390  157.2600 C   0  0  0  0  0  2  0  0  0  0  0  0
  159.8070  211.1480  152.9980 N   0  0  0  0  0  0  0  0  0  0  0  0
  158.7310  212.5740  154.6450 C   0  0  2  0  0  0  0  0  0  0  0  0
  158.9960  212.1440  153.2060 C   0  0  0  0  0  0  0  0  0  0  0  0
  158.5100  212.8710  152.0660 N   0  0  0  0  0  0  0  0  0  0  0  0
  156.3150  212.6750  154.0710 C   0  0  0  0  0  2  0  0  0  0  0  0
  161.7610  208.9160  155.3350 C   0  0  1  0  0  3  0  0  0  0  0  0
  161.1760  207.6350  155.9120 C   0  0  0  0  0  2  0  0  0  0  0  0
  156.4040  213.6100  152.9590 N   0  0  0  0  0  2  0  0  0  0  0  0
  157.1910  214.3260  150.6910 C   0  0  0  0  0  1  0  0  0  0  0  0
  161.2950  209.2420  153.8950 C   0  0  2  0  0  3  0  0  0  0  0  0
  160.3990  210.8620  155.3250 C   0  0  0  0  0  0  0  0  0  0  0  0
  157.4190  213.5730  151.9510 C   0  0  0  0  0  0  0  0  0  0  0  0
  161.2320  210.0300  156.2290 C   0  0  1  0  0  3  0  0  0  0  0  0
  159.7310  212.1470  155.7210 C   0  0  0  0  0  2  0  0  0  0  0  0
  158.3440  213.9840  154.7730 N   0  0  0  0  0  2  0  0  0  0  0  0
  160.7120  207.9260  157.2600 N   0  0  0  0  0  2  0  0  0  0  0  0
  160.4440  210.4430  154.0740 C   0  0  0  0  0  0  0  0  0  0  0  0
  160.5240  208.1600  153.2910 N   0  0  0  0  0  2  0  0  0  0  0  0
  161.1210  205.7320  150.7730 C   0  0  0  0  0  2  0  0  0  0  0  0
  161.1980  206.0850  152.2280 C   0  0  0  0  0  2  0  0  0  0  0  0
  161.2130  207.0640  150.0680 C   0  0  0  0  0  2  0  0  0  0  0  0
  160.8940  208.0740  150.9870 O   0  0  0  0  0  0  0  0  0  0  0  0
  161.3350  207.5910  152.2270 C   0  0  1  0  0  3  0  0  0  0  0  0
  1  7  1  6  0  0  0
  3  5  2  0  0  0  0
  3 19  1  0  0  0  0
  4 17  1  0  0  0  0
  4  1  1  0  0  0  0
  4 16  1  1  0  0  0
  5  4  1  0  0  0  0
  6  5  1  0  0  0  0
  8  9  1  1  0  0  0
  8 15  1  0  0  0  0
  9 18  1  0  0  0  0
 10  7  1  0  0  0  0
 11 14  1  0  0  0  0
 12 20  1  1  0  0  0
 12 19  1  0  0  0  0
 12  8  1  0  0  0  0
 13 16  1  0  0  0  0
 13 15  1  0  0  0  0
 14  6  2  0  0  0  0
 14 10  1  0  0  0  0
 15  2  1  1  0  0  0
 17  1  1  0  0  0  0
 18  2  1  0  0  0  0
 19 13  2  0  0  0  0
 21 22  1  0  0  0  0
 23 21  1  0  0  0  0
 23 24  1  0  0  0  0
 24 25  1  0  0  0  0
 25 22  1  0  0  0  0
 25 20  1  1  0  0  0
M  END
>  <MODEL>
8

>  <REMARK>
 VINA RESULT:      -5.7      2.956      5.679
  Name = 
  2 active torsions:
  status: ('A' for Active; 'I' for Inactive)
    1  A    between atoms: N_1  and  C_17
    2  A    between atoms: N_1  and  C_24
                            x       y       z     vdW  Elec       q    Type
                         _______ _______ _______ _____ _____    ______ ____

>  <TORSDO>
F 2

$$$$
=
 OpenBabel11052410153D

 25 30  0  0  1  0  0  0  0  0999 V2000
  162.4240  203.4460  147.2210 C   0  0  2  0  0  3  0  0  0  0  0  0
  162.0550  204.9090  152.0980 C   0  0  0  0  0  2  0  0  0  0  0  0
  161.0240  206.7620  147.9440 N   0  0  0  0  0  0  0  0  0  0  0  0
  161.4050  204.3730  147.7100 C   0  0  2  0  0  0  0  0  0  0  0  0
  161.2170  205.7690  147.1250 C   0  0  0  0  0  0  0  0  0  0  0  0
  161.0990  206.0210  145.7160 N   0  0  0  0  0  0  0  0  0  0  0  0
  163.3150  204.0780  146.1480 C   0  0  0  0  0  2  0  0  0  0  0  0
  160.8430  206.9640  151.7110 C   0  0  1  0  0  3  0  0  0  0  0  0
  162.0790  207.1800  152.5720 C   0  0  0  0  0  2  0  0  0  0  0  0
  162.6080  204.3360  144.9020 N   0  0  0  0  0  2  0  0  0  0  0  0
  161.2750  205.7680  143.3380 C   0  0  0  0  0  1  0  0  0  0  0  0
  160.8790  207.6920  150.3460 C   0  0  2  0  0  3  0  0  0  0  0  0
  160.9780  205.3910  149.9370 C   0  0  0  0  0  0  0  0  0  0  0  0
  161.6390  205.3740  144.7230 C   0  0  0  0  0  0  0  0  0  0  0  0
  160.8260  205.4710  151.4100 C   0  0  1  0  0  3  0  0  0  0  0  0
  160.9240  204.1200  149.1390 C   0  0  0  0  0  2  0  0  0  0  0  0
  161.0140  203.2970  146.7920 N   0  0  0  0  0  2  0  0  0  0  0  0
  162.4950  205.8830  153.0860 N   0  0  0  0  0  2  0  0  0  0  0  0
  160.9950  206.5830  149.3680 C   0  0  0  0  0  0  0  0  0  0  0  0
  162.0130  208.6010  150.2170 N   0  0  0  0  0  2  0  0  0  0  0  0
  162.0880  212.0800  149.5210 C   0  0  0  0  0  2  0  0  0  0  0  0
  161.5690  210.9800  150.3980 C   0  0  0  0  0  2  0  0  0  0  0  0
  162.3280  211.4050  148.1920 C   0  0  0  0  0  2  0  0  0  0  0  0
  162.4050  210.0210  148.4050 O   0  0  0  0  0  0  0  0  0  0  0  0
  161.5510  209.7720  149.4900 C   0  0  1  0  0  3  0  0  0  0  0  0
  1  7  1  6  0  0  0
  1  4  1  0  0  0  0
  2 18  1  0  0  0  0
  3 19  1  0  0  0  0
  4 16  1  1  0  0  0
  5  4  1  0  0  0  0
  5  3  2  0  0  0  0
  6  5  1  0  0  0  0
  8  9  1  1  0  0  0
  9 18  1  0  0  0  0
 10  7  1  0  0  0  0
 11 14  1  0  0  0  0
 12 20  1  1  0  0  0
 12  8  1  0  0  0  0
 13 15  1  0  0  0  0
 14 10  1  0  0  0  0
 14  6  2  0  0  0  0
 15  8  1  0  0  0  0
 15  2  1  1  0  0  0
 16 13  1  0  0  0  0
 17  1  1  0  0  0  0
 17  4  1  0  0  0  0
 19 13  2  0  0  0  0
 19 12  1  0  0  0  0
 21 22  1  0  0  0  0
 23 24  1  0  0  0  0
 23 21  1  0  0  0  0
 24 25  1  0  0  0  0
 25 20  1  1  0  0  0
 25 22  1  0  0  0  0
M  END
>  <MODEL>
9

>  <REMARK>
 VINA RESULT:      -5.6      2.929      6.850
  Name = 
  2 active torsions:
  status: ('A' for Active; 'I' for Inactive)
    1  A    between atoms: N_1  and  C_17
    2  A    between atoms: N_1  and  C_24
                            x       y       z     vdW  Elec       q    Type
                         _______ _______ _______ _____ _____    ______ ____

>  <TORSDO>
F 2

$$$$
