=
 OpenBabel11042421333D

 27 29  0  0  1  0  0  0  0  0999 V2000
  160.9750  207.4410  154.9700 C   0  0  0  0  0  3  0  0  0  0  0  0
  161.2840  210.7560  153.7690 O   0  0  0  0  0  0  0  0  0  0  0  0
  161.3890  207.4480  152.4860 C   0  0  0  0  0  0  0  0  0  0  0  0
  161.2570  205.3740  152.0450 C   0  0  0  0  0  0  0  0  0  0  0  0
  161.2620  209.4990  153.7300 C   0  0  0  0  0  0  0  0  0  0  0  0
  161.4660  206.5080  151.4310 N   0  0  0  0  0  0  0  0  0  0  0  0
  161.0450  205.4750  153.4690 N   0  0  0  0  0  0  0  0  0  0  0  0
  161.4640  208.7800  152.4380 C   0  0  0  0  0  0  0  0  0  0  0  0
  161.1350  206.7380  153.6950 C   0  0  0  0  0  0  0  0  0  0  0  0
  161.0410  208.7450  154.9550 N   0  0  0  0  0  0  0  0  0  0  0  0
  161.3380  202.8480  151.9080 C   0  0  0  0  0  3  0  0  0  0  0  0
  161.1440  201.8970  150.9770 N   0  0  0  0  0  0  0  0  0  0  0  0
  160.8540  203.9270  149.9990 C   0  0  0  0  0  3  0  0  0  0  0  0
  161.1690  204.0920  151.3320 C   0  0  1  0  0  3  0  0  0  0  0  0
  160.8560  202.5510  149.8350 C   0  0  0  0  0  0  0  0  0  0  0  0
  160.5140  201.8530  148.5620 C   0  0  0  0  0  2  0  0  0  0  0  0
  161.4040  200.6330  148.3640 C   0  0  0  0  0  2  0  0  0  0  0  0
  161.3350  200.1960  147.0490 F   0  0  0  0  0  0  0  0  0  0  0  0
  161.6970  209.5190  151.1480 C   0  0  0  0  0  2  0  0  0  0  0  0
  162.4240  208.6750  150.2060 N   0  0  0  0  0  2  0  0  0  0  0  0
  161.9290  208.9350  148.9710 O   0  0  0  0  0  0  0  0  0  0  0  0
  162.1930  207.7700  148.2450 C   0  0  0  0  0  2  0  0  0  0  0  0
  160.9130  206.9480  148.1390 C   0  0  0  0  0  2  0  0  0  0  0  0
  160.8180  206.1950  146.4910 S   0  0  0  0  0  0  0  0  0  0  0  0
  162.5140  205.5450  146.5860 C   0  0  0  0  0  2  0  0  0  0  0  0
  162.7000  204.4030  145.5940 C   0  0  0  0  0  2  0  0  0  0  0  0
  161.4070  203.6080  145.4780 C   0  0  0  0  0  1  0  0  0  0  0  0
  3  9  1  0  0  0  0
  4  7  1  0  0  0  0
  5  2  2  0  0  0  0
  5 10  1  0  0  0  0
  6  4  2  0  0  0  0
  6  3  1  0  0  0  0
  7  9  2  0  0  0  0
  8  3  2  0  0  0  0
  8  5  1  0  0  0  0
  9  1  1  0  0  0  0
 10  1  2  0  0  0  0
 12 11  2  0  0  0  0
 13 14  1  0  0  0  0
 14 11  1  0  0  0  0
 14  4  1  1  0  0  0
 15 13  2  0  0  0  0
 15 12  1  0  0  0  0
 16 15  1  0  0  0  0
 17 16  1  0  0  0  0
 18 17  1  0  0  0  0
 19  8  1  0  0  0  0
 20 19  1  0  0  0  0
 21 20  1  0  0  0  0
 22 21  1  0  0  0  0
 23 22  1  0  0  0  0
 24 25  1  0  0  0  0
 24 23  1  0  0  0  0
 26 25  1  0  0  0  0
 27 26  1  0  0  0  0
M  END
>  <MODEL>
1

>  <REMARK>
 VINA RESULT:      -7.6      0.000      0.000
  Name = 
  11 active torsions:
  status: ('A' for Active; 'I' for Inactive)
    1  A    between atoms: C_2  and  C_3
    2  A    between atoms: C_3  and  S_8
    3  A    between atoms: S_8  and  C_27
    4  A    between atoms: C_10  and  C_23
    5  A    between atoms: O_12  and  N_17
    6  A    between atoms: O_12  and  C_18
    7  A    between atoms: C_13  and  C_16
    8  A    between atoms: C_13  and  C_24
    9  A    between atoms: C_14  and  N_17
   10  A    between atoms: C_14  and  C_21
   11  A    between atoms: C_18  and  C_27
                            x       y       z     vdW  Elec       q    Type
                         _______ _______ _______ _____ _____    ______ ____

>  <TORSDO>
F 11

$$$$
=
 OpenBabel11042421333D

 27 29  0  0  0  0  0  0  0  0999 V2000
  161.1890  202.9160  151.7490 C   0  0  0  0  0  3  0  0  0  0  0  0
  161.0530  202.8460  148.2130 O   0  0  0  0  0  0  0  0  0  0  0  0
  160.9020  205.2420  150.8280 C   0  0  0  0  0  0  0  0  0  0  0  0
  160.9860  206.3980  152.6090 C   0  0  0  0  0  0  0  0  0  0  0  0
  161.0350  203.3370  149.3710 C   0  0  0  0  0  0  0  0  0  0  0  0
  160.8470  206.5670  151.3210 N   0  0  0  0  0  0  0  0  0  0  0  0
  161.1280  205.0280  153.0380 N   0  0  0  0  0  0  0  0  0  0  0  0
  160.8740  204.8080  149.5660 C   0  0  0  0  0  0  0  0  0  0  0  0
  161.0700  204.3630  151.9370 C   0  0  0  0  0  0  0  0  0  0  0  0
  161.1680  202.4600  150.5250 N   0  0  0  0  0  0  0  0  0  0  0  0
  161.2110  207.4050  154.9190 C   0  0  0  0  0  3  0  0  0  0  0  0
  161.2960  208.6320  155.4640 N   0  0  0  0  0  2  0  0  0  0  0  0
  161.0630  208.8610  153.2160 C   0  0  0  0  0  3  0  0  0  0  0  0
  161.0660  207.5230  153.5510 C   0  0  0  0  0  0  0  0  0  0  0  0
  161.2040  209.4990  154.4380 C   0  0  0  0  0  0  0  0  0  0  0  0
  161.3130  210.9770  154.6090 C   0  0  0  0  0  2  0  0  0  0  0  0
  160.3760  211.6980  153.6480 C   0  0  0  0  0  2  0  0  0  0  0  0
  159.0540  211.4750  154.0100 F   0  0  0  0  0  0  0  0  0  0  0  0
  160.7320  205.7500  148.4020 C   0  0  0  0  0  2  0  0  0  0  0  0
  162.0250  206.3350  148.0650 N   0  0  0  0  0  2  0  0  0  0  0  0
  162.1770  206.2250  146.7220 O   0  0  0  0  0  0  0  0  0  0  0  0
  163.0190  205.1200  146.5620 C   0  0  0  0  0  2  0  0  0  0  0  0
  162.5870  204.3400  145.3260 C   0  0  0  0  0  2  0  0  0  0  0  0
  161.3080  205.2750  144.4420 S   0  0  0  0  0  0  0  0  0  0  0  0
  160.1110  203.9080  144.5340 C   0  0  0  0  0  2  0  0  0  0  0  0
  160.7250  202.7140  145.2540 C   0  0  0  0  0  2  0  0  0  0  0  0
  159.8990  201.4660  144.9760 C   0  0  0  0  0  1  0  0  0  0  0  0
  1  9  1  0  0  0  0
  2  5  2  0  0  0  0
  3  6  1  0  0  0  0
  3  9  1  0  0  0  0
  4  7  1  0  0  0  0
  4 14  1  0  0  0  0
  5  8  1  0  0  0  0
  5 10  1  0  0  0  0
  6  4  2  0  0  0  0
  8  3  2  0  0  0  0
  9  7  2  0  0  0  0
 10  1  2  0  0  0  0
 11 12  1  0  0  0  0
 13 14  1  0  0  0  0
 13 15  2  0  0  0  0
 14 11  2  0  0  0  0
 15 16  1  0  0  0  0
 15 12  1  0  0  0  0
 17 18  1  0  0  0  0
 17 16  1  0  0  0  0
 19  8  1  0  0  0  0
 20 19  1  0  0  0  0
 21 20  1  0  0  0  0
 22 21  1  0  0  0  0
 23 22  1  0  0  0  0
 24 25  1  0  0  0  0
 24 23  1  0  0  0  0
 25 26  1  0  0  0  0
 27 26  1  0  0  0  0
M  END
>  <MODEL>
2

>  <REMARK>
 VINA RESULT:      -7.3      3.400      6.260
  Name = 
  11 active torsions:
  status: ('A' for Active; 'I' for Inactive)
    1  A    between atoms: C_2  and  C_3
    2  A    between atoms: C_3  and  S_8
    3  A    between atoms: S_8  and  C_27
    4  A    between atoms: C_10  and  C_23
    5  A    between atoms: O_12  and  N_17
    6  A    between atoms: O_12  and  C_18
    7  A    between atoms: C_13  and  C_16
    8  A    between atoms: C_13  and  C_24
    9  A    between atoms: C_14  and  N_17
   10  A    between atoms: C_14  and  C_21
   11  A    between atoms: C_18  and  C_27
                            x       y       z     vdW  Elec       q    Type
                         _______ _______ _______ _____ _____    ______ ____

>  <TORSDO>
F 11

$$$$
=
 OpenBabel11042421333D

 27 29  0  0  1  0  0  0  0  0999 V2000
  162.3000  210.3040  149.7990 C   0  0  0  0  0  3  0  0  0  0  0  0
  161.8440  209.9820  153.2950 O   0  0  0  0  0  0  0  0  0  0  0  0
  161.3160  208.0550  150.3610 C   0  0  0  0  0  0  0  0  0  0  0  0
  161.2620  207.1430  148.4420 C   0  0  0  0  0  0  0  0  0  0  0  0
  161.8080  209.6590  152.0790 C   0  0  0  0  0  0  0  0  0  0  0  0
  160.9580  206.8650  149.6820 N   0  0  0  0  0  0  0  0  0  0  0  0
  161.8050  208.4620  148.2220 N   0  0  0  0  0  0  0  0  0  0  0  0
  161.2810  208.3250  151.6680 C   0  0  0  0  0  0  0  0  0  0  0  0
  161.8190  208.9790  149.4000 C   0  0  0  0  0  0  0  0  0  0  0  0
  162.2810  210.5970  151.0720 N   0  0  0  0  0  0  0  0  0  0  0  0
  160.6030  206.4230  146.1080 C   0  0  0  0  0  3  0  0  0  0  0  0
  160.6800  205.3140  145.3510 N   0  0  0  0  0  0  0  0  0  0  0  0
  161.5590  204.8520  147.3930 C   0  0  0  0  0  3  0  0  0  0  0  0
  161.1310  206.1620  147.3570 C   0  0  1  0  0  3  0  0  0  0  0  0
  161.2520  204.3760  146.1290 C   0  0  0  0  0  0  0  0  0  0  0  0
  161.5740  203.0020  145.6440 C   0  0  0  0  0  2  0  0  0  0  0  0
  160.3150  202.2990  145.1520 C   0  0  0  0  0  2  0  0  0  0  0  0
  160.4740  200.9220  145.2240 F   0  0  0  0  0  0  0  0  0  0  0  0
  160.7810  207.3250  152.6750 C   0  0  0  0  0  2  0  0  0  0  0  0
  161.8940  206.5510  153.2140 N   0  0  0  0  0  2  0  0  0  0  0  0
  161.4270  205.3040  153.4710 O   0  0  0  0  0  0  0  0  0  0  0  0
  161.4770  204.6580  152.2320 C   0  0  0  0  0  2  0  0  0  0  0  0
  160.7000  203.3500  152.3200 C   0  0  0  0  0  2  0  0  0  0  0  0
  161.4360  202.1360  151.1910 S   0  0  0  0  0  0  0  0  0  0  0  0
  160.4660  202.7290  149.7700 C   0  0  0  0  0  2  0  0  0  0  0  0
  160.0910  201.5640  148.8620 C   0  0  0  0  0  2  0  0  0  0  0  0
  161.3280  200.7340  148.5540 C   0  0  0  0  0  1  0  0  0  0  0  0
  1 10  2  0  0  0  0
  3  8  2  0  0  0  0
  4  6  2  0  0  0  0
  5  2  2  0  0  0  0
  6  3  1  0  0  0  0
  7  4  1  0  0  0  0
  7  9  2  0  0  0  0
  8  5  1  0  0  0  0
  8 19  1  0  0  0  0
  9  1  1  0  0  0  0
  9  3  1  0  0  0  0
 10  5  1  0  0  0  0
 11 14  1  0  0  0  0
 12 11  2  0  0  0  0
 12 15  1  0  0  0  0
 14 13  1  0  0  0  0
 14  4  1  6  0  0  0
 15 13  2  0  0  0  0
 16 15  1  0  0  0  0
 17 18  1  0  0  0  0
 17 16  1  0  0  0  0
 19 20  1  0  0  0  0
 20 21  1  0  0  0  0
 22 23  1  0  0  0  0
 22 21  1  0  0  0  0
 24 23  1  0  0  0  0
 25 24  1  0  0  0  0
 26 25  1  0  0  0  0
 27 26  1  0  0  0  0
M  END
>  <MODEL>
3

>  <REMARK>
 VINA RESULT:      -7.2      2.373      4.428
  Name = 
  11 active torsions:
  status: ('A' for Active; 'I' for Inactive)
    1  A    between atoms: C_2  and  C_3
    2  A    between atoms: C_3  and  S_8
    3  A    between atoms: S_8  and  C_27
    4  A    between atoms: C_10  and  C_23
    5  A    between atoms: O_12  and  N_17
    6  A    between atoms: O_12  and  C_18
    7  A    between atoms: C_13  and  C_16
    8  A    between atoms: C_13  and  C_24
    9  A    between atoms: C_14  and  N_17
   10  A    between atoms: C_14  and  C_21
   11  A    between atoms: C_18  and  C_27
                            x       y       z     vdW  Elec       q    Type
                         _______ _______ _______ _____ _____    ______ ____

>  <TORSDO>
F 11

$$$$
=
 OpenBabel11042421333D

 27 29  0  0  1  0  0  0  0  0999 V2000
  161.8240  208.4020  149.4250 C   0  0  0  0  0  3  0  0  0  0  0  0
  162.1190  209.5450  152.7630 O   0  0  0  0  0  0  0  0  0  0  0  0
  161.3930  206.5240  151.0460 C   0  0  0  0  0  0  0  0  0  0  0  0
  161.1360  204.8880  149.7140 C   0  0  0  0  0  0  0  0  0  0  0  0
  161.9080  208.7380  151.8200 C   0  0  0  0  0  0  0  0  0  0  0  0
  161.1330  205.1340  150.9980 N   0  0  0  0  0  0  0  0  0  0  0  0
  161.3770  206.0330  148.8690 N   0  0  0  0  0  0  0  0  0  0  0  0
  161.5630  207.3150  152.1080 C   0  0  0  0  0  0  0  0  0  0  0  0
  161.5240  206.9970  149.7080 C   0  0  0  0  0  0  0  0  0  0  0  0
  161.9990  209.2010  150.4440 N   0  0  0  0  0  0  0  0  0  0  0  0
  160.4450  202.4570  149.8480 C   0  0  0  0  0  3  0  0  0  0  0  0
  160.4090  201.3890  149.0320 N   0  0  0  0  0  0  0  0  0  0  0  0
  161.2840  203.1400  147.8810 C   0  0  0  0  0  3  0  0  0  0  0  0
  160.9780  203.5340  149.1670 C   0  0  1  0  0  3  0  0  0  0  0  0
  160.9150  201.8050  147.8560 C   0  0  0  0  0  0  0  0  0  0  0  0
  160.9980  200.9300  146.6500 C   0  0  0  0  0  2  0  0  0  0  0  0
  160.2240  201.5420  145.4900 C   0  0  0  0  0  2  0  0  0  0  0  0
  160.9490  202.5820  144.9240 F   0  0  0  0  0  0  0  0  0  0  0  0
  161.4570  206.7940  153.5150 C   0  0  0  0  0  2  0  0  0  0  0  0
  160.4060  207.5020  154.2380 N   0  0  0  0  0  2  0  0  0  0  0  0
  160.5860  207.2470  155.5570 O   0  0  0  0  0  0  0  0  0  0  0  0
  161.1450  208.4260  156.0610 C   0  0  0  0  0  2  0  0  0  0  0  0
  160.1050  209.5370  155.9990 C   0  0  0  0  0  2  0  0  0  0  0  0
  160.9440  211.1460  155.9870 S   0  0  0  0  0  0  0  0  0  0  0  0
  159.5760  211.9590  155.1050 C   0  0  0  0  0  2  0  0  0  0  0  0
  159.8930  212.0650  153.6180 C   0  0  0  0  0  2  0  0  0  0  0  0
  158.8100  211.3650  152.8110 C   0  0  0  0  0  1  0  0  0  0  0  0
  1  9  1  0  0  0  0
  1 10  2  0  0  0  0
  3  8  2  0  0  0  0
  4  6  2  0  0  0  0
  5  8  1  0  0  0  0
  5  2  2  0  0  0  0
  6  3  1  0  0  0  0
  7  9  2  0  0  0  0
  7  4  1  0  0  0  0
  8 19  1  0  0  0  0
  9  3  1  0  0  0  0
 10  5  1  0  0  0  0
 12 11  2  0  0  0  0
 13 14  1  0  0  0  0
 14  4  1  6  0  0  0
 14 11  1  0  0  0  0
 15 13  2  0  0  0  0
 15 12  1  0  0  0  0
 16 15  1  0  0  0  0
 17 16  1  0  0  0  0
 18 17  1  0  0  0  0
 19 20  1  0  0  0  0
 20 21  1  0  0  0  0
 21 22  1  0  0  0  0
 23 22  1  0  0  0  0
 24 23  1  0  0  0  0
 25 24  1  0  0  0  0
 26 25  1  0  0  0  0
 27 26  1  0  0  0  0
M  END
>  <MODEL>
4

>  <REMARK>
 VINA RESULT:      -7.0      2.862      5.663
  Name = 
  11 active torsions:
  status: ('A' for Active; 'I' for Inactive)
    1  A    between atoms: C_2  and  C_3
    2  A    between atoms: C_3  and  S_8
    3  A    between atoms: S_8  and  C_27
    4  A    between atoms: C_10  and  C_23
    5  A    between atoms: O_12  and  N_17
    6  A    between atoms: O_12  and  C_18
    7  A    between atoms: C_13  and  C_16
    8  A    between atoms: C_13  and  C_24
    9  A    between atoms: C_14  and  N_17
   10  A    between atoms: C_14  and  C_21
   11  A    between atoms: C_18  and  C_27
                            x       y       z     vdW  Elec       q    Type
                         _______ _______ _______ _____ _____    ______ ____

>  <TORSDO>
F 11

$$$$
=
 OpenBabel11042421333D

 27 29  0  0  1  0  0  0  0  0999 V2000
  162.1930  209.6970  148.9290 C   0  0  0  0  0  3  0  0  0  0  0  0
  161.6570  210.4620  152.3440 O   0  0  0  0  0  0  0  0  0  0  0  0
  161.3250  207.6800  150.1630 C   0  0  0  0  0  0  0  0  0  0  0  0
  161.3790  206.2110  148.6300 C   0  0  0  0  0  0  0  0  0  0  0  0
  161.6750  209.7710  151.2920 C   0  0  0  0  0  0  0  0  0  0  0  0
  161.0570  206.3180  149.8910 N   0  0  0  0  0  0  0  0  0  0  0  0
  161.8510  207.4250  148.0100 N   0  0  0  0  0  0  0  0  0  0  0  0
  161.2380  208.3450  151.3180 C   0  0  0  0  0  0  0  0  0  0  0  0
  161.8020  208.2860  148.9640 C   0  0  0  0  0  0  0  0  0  0  0  0
  162.1220  210.3730  150.0440 N   0  0  0  0  0  0  0  0  0  0  0  0
  161.5970  204.7690  146.5610 C   0  0  0  0  0  3  0  0  0  0  0  0
  161.5140  203.4640  146.2470 N   0  0  0  0  0  0  0  0  0  0  0  0
  161.0850  203.6960  148.4650 C   0  0  0  0  0  3  0  0  0  0  0  0
  161.3370  204.9320  147.9080 C   0  0  1  0  0  3  0  0  0  0  0  0
  161.2040  202.8270  147.3920 C   0  0  0  0  0  0  0  0  0  0  0  0
  161.0750  201.3440  147.4890 C   0  0  0  0  0  2  0  0  0  0  0  0
  161.1800  200.8920  148.9400 C   0  0  0  0  0  2  0  0  0  0  0  0
  159.9380  200.9630  149.5560 F   0  0  0  0  0  0  0  0  0  0  0  0
  160.7680  207.6830  152.5850 C   0  0  0  0  0  2  0  0  0  0  0  0
  161.7600  206.7200  153.0490 N   0  0  0  0  0  2  0  0  0  0  0  0
  161.4920  206.4670  154.3540 O   0  0  0  0  0  0  0  0  0  0  0  0
  160.7250  207.5620  154.7650 C   0  0  0  0  0  2  0  0  0  0  0  0
  160.2770  207.3450  156.2050 C   0  0  0  0  0  2  0  0  0  0  0  0
  160.8240  208.7450  157.2220 S   0  0  0  0  0  0  0  0  0  0  0  0
  160.4180  209.9620  155.9330 C   0  0  0  0  0  2  0  0  0  0  0  0
  161.4830  211.0500  155.8770 C   0  0  0  0  0  2  0  0  0  0  0  0
  162.8260  210.4760  156.3060 C   0  0  0  0  0  1  0  0  0  0  0  0
  1  9  1  0  0  0  0
  1 10  2  0  0  0  0
  3  8  2  0  0  0  0
  4  6  2  0  0  0  0
  5  8  1  0  0  0  0
  5  2  2  0  0  0  0
  6  3  1  0  0  0  0
  7  4  1  0  0  0  0
  7  9  2  0  0  0  0
  8 19  1  0  0  0  0
  9  3  1  0  0  0  0
 10  5  1  0  0  0  0
 11 14  1  0  0  0  0
 12 11  2  0  0  0  0
 12 15  1  0  0  0  0
 14 13  1  0  0  0  0
 14  4  1  1  0  0  0
 15 16  1  0  0  0  0
 15 13  2  0  0  0  0
 16 17  1  0  0  0  0
 17 18  1  0  0  0  0
 19 20  1  0  0  0  0
 20 21  1  0  0  0  0
 21 22  1  0  0  0  0
 22 23  1  0  0  0  0
 23 24  1  0  0  0  0
 25 24  1  0  0  0  0
 26 25  1  0  0  0  0
 26 27  1  0  0  0  0
M  END
>  <MODEL>
5

>  <REMARK>
 VINA RESULT:      -7.0      2.986      5.979
  Name = 
  11 active torsions:
  status: ('A' for Active; 'I' for Inactive)
    1  A    between atoms: C_2  and  C_3
    2  A    between atoms: C_3  and  S_8
    3  A    between atoms: S_8  and  C_27
    4  A    between atoms: C_10  and  C_23
    5  A    between atoms: O_12  and  N_17
    6  A    between atoms: O_12  and  C_18
    7  A    between atoms: C_13  and  C_16
    8  A    between atoms: C_13  and  C_24
    9  A    between atoms: C_14  and  N_17
   10  A    between atoms: C_14  and  C_21
   11  A    between atoms: C_18  and  C_27
                            x       y       z     vdW  Elec       q    Type
                         _______ _______ _______ _____ _____    ______ ____

>  <TORSDO>
F 11

$$$$
=
 OpenBabel11042421333D

 27 29  0  0  0  0  0  0  0  0999 V2000
  161.2080  203.7940  152.2350 C   0  0  0  0  0  3  0  0  0  0  0  0
  160.8740  203.3820  148.7360 O   0  0  0  0  0  0  0  0  0  0  0  0
  160.8730  206.0220  151.1090 C   0  0  0  0  0  0  0  0  0  0  0  0
  161.0580  207.3450  152.7620 C   0  0  0  0  0  0  0  0  0  0  0  0
  160.9210  203.9840  149.8400 C   0  0  0  0  0  0  0  0  0  0  0  0
  160.8470  207.3890  151.4730 N   0  0  0  0  0  0  0  0  0  0  0  0
  161.2230  206.0220  153.3130 N   0  0  0  0  0  0  0  0  0  0  0  0
  160.7730  205.4670  149.8990 C   0  0  0  0  0  0  0  0  0  0  0  0
  161.1020  205.2540  152.2880 C   0  0  0  0  0  0  0  0  0  0  0  0
  161.1170  203.2220  151.0650 N   0  0  0  0  0  0  0  0  0  0  0  0
  161.5530  209.8020  153.1120 C   0  0  0  0  0  3  0  0  0  0  0  0
  161.5320  210.6840  154.1270 N   0  0  0  0  0  2  0  0  0  0  0  0
  160.9320  208.6490  154.9350 C   0  0  0  0  0  3  0  0  0  0  0  0
  161.1930  208.5550  153.5840 C   0  0  0  0  0  0  0  0  0  0  0  0
  161.1610  209.9860  155.2160 C   0  0  0  0  0  0  0  0  0  0  0  0
  160.9590  210.6120  156.5550 C   0  0  0  0  0  2  0  0  0  0  0  0
  159.6150  211.3290  156.6130 C   0  0  0  0  0  2  0  0  0  0  0  0
  158.7260  210.7560  155.7150 F   0  0  0  0  0  0  0  0  0  0  0  0
  160.5680  206.2930  148.6590 C   0  0  0  0  0  2  0  0  0  0  0  0
  161.8040  206.9770  148.2970 N   0  0  0  0  0  2  0  0  0  0  0  0
  162.3080  206.3430  147.2090 O   0  0  0  0  0  0  0  0  0  0  0  0
  161.2040  206.1720  146.3700 C   0  0  0  0  0  2  0  0  0  0  0  0
  161.6640  205.5380  145.0620 C   0  0  0  0  0  2  0  0  0  0  0  0
  160.4370  204.3160  144.5220 S   0  0  0  0  0  0  0  0  0  0  0  0
  161.2000  202.9810  145.4930 C   0  0  0  0  0  2  0  0  0  0  0  0
  160.3400  201.7240  145.4320 C   0  0  0  0  0  2  0  0  0  0  0  0
  160.8340  200.7130  146.4570 C   0  0  0  0  0  1  0  0  0  0  0  0
  1  9  1  0  0  0  0
  2  5  2  0  0  0  0
  3  6  1  0  0  0  0
  3  9  1  0  0  0  0
  4  7  1  0  0  0  0
  4 14  1  0  0  0  0
  5  8  1  0  0  0  0
  5 10  1  0  0  0  0
  6  4  2  0  0  0  0
  8  3  2  0  0  0  0
  9  7  2  0  0  0  0
 10  1  2  0  0  0  0
 11 14  2  0  0  0  0
 11 12  1  0  0  0  0
 12 15  1  0  0  0  0
 13 15  2  0  0  0  0
 14 13  1  0  0  0  0
 15 16  1  0  0  0  0
 16 17  1  0  0  0  0
 18 17  1  0  0  0  0
 19  8  1  0  0  0  0
 20 19  1  0  0  0  0
 21 20  1  0  0  0  0
 22 21  1  0  0  0  0
 23 22  1  0  0  0  0
 24 23  1  0  0  0  0
 24 25  1  0  0  0  0
 26 25  1  0  0  0  0
 26 27  1  0  0  0  0
M  END
>  <MODEL>
6

>  <REMARK>
 VINA RESULT:      -6.8      3.454      6.471
  Name = 
  11 active torsions:
  status: ('A' for Active; 'I' for Inactive)
    1  A    between atoms: C_2  and  C_3
    2  A    between atoms: C_3  and  S_8
    3  A    between atoms: S_8  and  C_27
    4  A    between atoms: C_10  and  C_23
    5  A    between atoms: O_12  and  N_17
    6  A    between atoms: O_12  and  C_18
    7  A    between atoms: C_13  and  C_16
    8  A    between atoms: C_13  and  C_24
    9  A    between atoms: C_14  and  N_17
   10  A    between atoms: C_14  and  C_21
   11  A    between atoms: C_18  and  C_27
                            x       y       z     vdW  Elec       q    Type
                         _______ _______ _______ _____ _____    ______ ____

>  <TORSDO>
F 11

$$$$
=
 OpenBabel11042421333D

 27 29  0  0  1  0  0  0  0  0999 V2000
  161.2270  207.3350  154.9680 C   0  0  0  0  0  3  0  0  0  0  0  0
  160.6260  210.8010  155.3670 O   0  0  0  0  0  0  0  0  0  0  0  0
  160.9310  208.4460  152.7280 C   0  0  0  0  0  0  0  0  0  0  0  0
  161.0360  206.7710  151.4250 C   0  0  0  0  0  0  0  0  0  0  0  0
  160.8070  209.7100  154.7660 C   0  0  0  0  0  0  0  0  0  0  0  0
  160.8720  208.0660  151.3660 N   0  0  0  0  0  0  0  0  0  0  0  0
  161.2120  206.2330  152.7530 N   0  0  0  0  0  0  0  0  0  0  0  0
  160.7640  209.6520  153.2760 C   0  0  0  0  0  0  0  0  0  0  0  0
  161.1450  207.2720  153.5070 C   0  0  0  0  0  0  0  0  0  0  0  0
  161.0640  208.5010  155.5340 N   0  0  0  0  0  0  0  0  0  0  0  0
  160.7910  206.3530  148.9410 C   0  0  0  0  0  3  0  0  0  0  0  0
  160.8320  205.3030  148.1020 N   0  0  0  0  0  0  0  0  0  0  0  0
  161.1390  204.5400  150.2190 C   0  0  0  0  0  3  0  0  0  0  0  0
  160.9740  205.9100  150.2370 C   0  0  1  0  0  3  0  0  0  0  0  0
  161.0380  204.2200  148.8750 C   0  0  0  0  0  0  0  0  0  0  0  0
  161.2050  202.8440  148.3220 C   0  0  0  0  0  2  0  0  0  0  0  0
  160.2490  201.8740  149.0030 C   0  0  0  0  0  2  0  0  0  0  0  0
  160.9520  201.0020  149.8220 F   0  0  0  0  0  0  0  0  0  0  0  0
  160.5020  210.8770  152.4430 C   0  0  0  0  0  2  0  0  0  0  0  0
  159.1180  211.3090  152.6010 N   0  0  0  0  0  2  0  0  0  0  0  0
  159.1230  212.6650  152.6340 O   0  0  0  0  0  0  0  0  0  0  0  0
  159.6430  213.0360  151.3900 C   0  0  0  0  0  2  0  0  0  0  0  0
  158.4990  213.4700  150.4820 C   0  0  0  0  0  2  0  0  0  0  0  0
  159.1440  213.7990  148.8180 S   0  0  0  0  0  0  0  0  0  0  0  0
  160.8760  213.7040  149.3690 C   0  0  0  0  0  2  0  0  0  0  0  0
  161.7910  213.4050  148.1880 C   0  0  0  0  0  2  0  0  0  0  0  0
  162.3130  211.9790  148.2910 C   0  0  0  0  0  1  0  0  0  0  0  0
  1 10  2  0  0  0  0
  3  8  2  0  0  0  0
  3  9  1  0  0  0  0
  4  7  1  0  0  0  0
  5  2  2  0  0  0  0
  5 10  1  0  0  0  0
  6  4  2  0  0  0  0
  6  3  1  0  0  0  0
  7  9  2  0  0  0  0
  8  5  1  0  0  0  0
  9  1  1  0  0  0  0
 11 14  1  0  0  0  0
 12 15  1  0  0  0  0
 12 11  2  0  0  0  0
 13 14  1  0  0  0  0
 14  4  1  6  0  0  0
 15 13  2  0  0  0  0
 16 15  1  0  0  0  0
 16 17  1  0  0  0  0
 17 18  1  0  0  0  0
 19 20  1  0  0  0  0
 19  8  1  0  0  0  0
 20 21  1  0  0  0  0
 22 21  1  0  0  0  0
 23 22  1  0  0  0  0
 24 25  1  0  0  0  0
 24 23  1  0  0  0  0
 26 27  1  0  0  0  0
 26 25  1  0  0  0  0
M  END
>  <MODEL>
7

>  <REMARK>
 VINA RESULT:      -6.7      2.980      4.514
  Name = 
  11 active torsions:
  status: ('A' for Active; 'I' for Inactive)
    1  A    between atoms: C_2  and  C_3
    2  A    between atoms: C_3  and  S_8
    3  A    between atoms: S_8  and  C_27
    4  A    between atoms: C_10  and  C_23
    5  A    between atoms: O_12  and  N_17
    6  A    between atoms: O_12  and  C_18
    7  A    between atoms: C_13  and  C_16
    8  A    between atoms: C_13  and  C_24
    9  A    between atoms: C_14  and  N_17
   10  A    between atoms: C_14  and  C_21
   11  A    between atoms: C_18  and  C_27
                            x       y       z     vdW  Elec       q    Type
                         _______ _______ _______ _____ _____    ______ ____

>  <TORSDO>
F 11

$$$$
=
 OpenBabel11042421333D

 27 29  0  0  1  0  0  0  0  0999 V2000
  161.2170  206.0600  154.1080 C   0  0  0  0  0  3  0  0  0  0  0  0
  160.9110  209.5750  154.3870 O   0  0  0  0  0  0  0  0  0  0  0  0
  161.1950  207.1300  151.8290 C   0  0  0  0  0  0  0  0  0  0  0  0
  161.2430  205.4160  150.5740 C   0  0  0  0  0  0  0  0  0  0  0  0
  161.0350  208.4560  153.8250 C   0  0  0  0  0  0  0  0  0  0  0  0
  161.2040  206.7180  150.4750 N   0  0  0  0  0  0  0  0  0  0  0  0
  161.2680  204.9020  151.9220 N   0  0  0  0  0  0  0  0  0  0  0  0
  161.0990  208.3610  152.3370 C   0  0  0  0  0  0  0  0  0  0  0  0
  161.2400  205.9640  152.6470 C   0  0  0  0  0  0  0  0  0  0  0  0
  161.1210  207.2500  154.6360 N   0  0  0  0  0  0  0  0  0  0  0  0
  161.4450  204.9180  148.1010 C   0  0  0  0  0  3  0  0  0  0  0  0
  161.3540  203.8470  147.2930 N   0  0  0  0  0  0  0  0  0  0  0  0
  160.9350  203.1760  149.4220 C   0  0  0  0  0  3  0  0  0  0  0  0
  161.1910  204.5310  149.4020 C   0  0  1  0  0  3  0  0  0  0  0  0
  161.0450  202.8080  148.0910 C   0  0  0  0  0  0  0  0  0  0  0  0
  160.9090  201.4090  147.5890 C   0  0  0  0  0  2  0  0  0  0  0  0
  160.8810  201.3860  146.0660 C   0  0  0  0  0  2  0  0  0  0  0  0
  159.6110  201.7030  145.6050 F   0  0  0  0  0  0  0  0  0  0  0  0
  161.0160  209.5810  151.4610 C   0  0  0  0  0  2  0  0  0  0  0  0
  162.3240  209.8820  150.8890 N   0  0  0  0  0  2  0  0  0  0  0  0
  162.1460  210.0650  149.5570 O   0  0  0  0  0  0  0  0  0  0  0  0
  161.9220  211.4390  149.4270 C   0  0  0  0  0  2  0  0  0  0  0  0
  162.0090  211.8200  147.9540 C   0  0  0  0  0  2  0  0  0  0  0  0
  162.5120  213.5580  147.8120 S   0  0  0  0  0  0  0  0  0  0  0  0
  161.3930  213.8650  146.4110 C   0  0  0  0  0  2  0  0  0  0  0  0
  162.1670  214.4400  145.2310 C   0  0  0  0  0  2  0  0  0  0  0  0
  162.9480  213.3310  144.5400 C   0  0  0  0  0  1  0  0  0  0  0  0
  1 10  2  0  0  0  0
  3  8  2  0  0  0  0
  3  9  1  0  0  0  0
  4  7  1  0  0  0  0
  5  2  2  0  0  0  0
  5 10  1  0  0  0  0
  6  4  2  0  0  0  0
  6  3  1  0  0  0  0
  7  9  2  0  0  0  0
  8  5  1  0  0  0  0
  9  1  1  0  0  0  0
 11 14  1  0  0  0  0
 12 15  1  0  0  0  0
 12 11  2  0  0  0  0
 14 13  1  0  0  0  0
 14  4  1  1  0  0  0
 15 13  2  0  0  0  0
 16 15  1  0  0  0  0
 17 16  1  0  0  0  0
 18 17  1  0  0  0  0
 19  8  1  0  0  0  0
 20 19  1  0  0  0  0
 21 20  1  0  0  0  0
 22 21  1  0  0  0  0
 23 22  1  0  0  0  0
 24 23  1  0  0  0  0
 25 24  1  0  0  0  0
 26 25  1  0  0  0  0
 27 26  1  0  0  0  0
M  END
>  <MODEL>
8

>  <REMARK>
 VINA RESULT:      -6.7      3.204      4.073
  Name = 
  11 active torsions:
  status: ('A' for Active; 'I' for Inactive)
    1  A    between atoms: C_2  and  C_3
    2  A    between atoms: C_3  and  S_8
    3  A    between atoms: S_8  and  C_27
    4  A    between atoms: C_10  and  C_23
    5  A    between atoms: O_12  and  N_17
    6  A    between atoms: O_12  and  C_18
    7  A    between atoms: C_13  and  C_16
    8  A    between atoms: C_13  and  C_24
    9  A    between atoms: C_14  and  N_17
   10  A    between atoms: C_14  and  C_21
   11  A    between atoms: C_18  and  C_27
                            x       y       z     vdW  Elec       q    Type
                         _______ _______ _______ _____ _____    ______ ____

>  <TORSDO>
F 11

$$$$
=
 OpenBabel11042421333D

 27 29  0  0  1  0  0  0  0  0999 V2000
  161.0480  206.9970  155.1400 C   0  0  0  0  0  3  0  0  0  0  0  0
  160.5940  210.4910  155.4870 O   0  0  0  0  0  0  0  0  0  0  0  0
  160.9780  208.1100  152.8820 C   0  0  0  0  0  0  0  0  0  0  0  0
  161.0960  206.4240  151.5940 C   0  0  0  0  0  0  0  0  0  0  0  0
  160.7650  209.3890  154.9040 C   0  0  0  0  0  0  0  0  0  0  0  0
  161.0020  207.7250  151.5200 N   0  0  0  0  0  0  0  0  0  0  0  0
  161.1440  205.8850  152.9320 N   0  0  0  0  0  0  0  0  0  0  0  0
  160.8310  209.3250  153.4140 C   0  0  0  0  0  0  0  0  0  0  0  0
  161.0730  206.9310  153.6780 C   0  0  0  0  0  0  0  0  0  0  0  0
  160.9030  208.1730  155.6910 N   0  0  0  0  0  0  0  0  0  0  0  0
  161.3220  205.9820  149.1130 C   0  0  0  0  0  3  0  0  0  0  0  0
  161.2720  204.9240  148.2840 N   0  0  0  0  0  0  0  0  0  0  0  0
  160.8730  204.1970  150.3980 C   0  0  0  0  0  3  0  0  0  0  0  0
  161.0790  205.5610  150.4050 C   0  0  1  0  0  3  0  0  0  0  0  0
  161.0010  203.8580  149.0610 C   0  0  0  0  0  0  0  0  0  0  0  0
  160.9170  202.4650  148.5320 C   0  0  0  0  0  2  0  0  0  0  0  0
  160.3600  201.5230  149.5920 C   0  0  0  0  0  2  0  0  0  0  0  0
  161.3940  200.9650  150.3300 F   0  0  0  0  0  0  0  0  0  0  0  0
  160.6950  210.5580  152.5620 C   0  0  0  0  0  2  0  0  0  0  0  0
  159.3170  211.0370  152.5840 N   0  0  0  0  0  2  0  0  0  0  0  0
  159.3440  212.3130  153.0420 O   0  0  0  0  0  0  0  0  0  0  0  0
  158.1600  212.8760  152.5570 C   0  0  0  0  0  2  0  0  0  0  0  0
  157.7870  214.0740  153.4220 C   0  0  0  0  0  2  0  0  0  0  0  0
  157.6380  213.5430  155.1500 S   0  0  0  0  0  0  0  0  0  0  0  0
  156.2110  212.4710  154.7980 C   0  0  0  0  0  2  0  0  0  0  0  0
  156.3180  211.1700  155.5840 C   0  0  0  0  0  2  0  0  0  0  0  0
  155.2610  210.1880  155.0980 C   0  0  0  0  0  1  0  0  0  0  0  0
  1 10  2  0  0  0  0
  3  8  2  0  0  0  0
  3  9  1  0  0  0  0
  4  7  1  0  0  0  0
  5  2  2  0  0  0  0
  5 10  1  0  0  0  0
  6  4  2  0  0  0  0
  6  3  1  0  0  0  0
  7  9  2  0  0  0  0
  8  5  1  0  0  0  0
  9  1  1  0  0  0  0
 11 14  1  0  0  0  0
 12 15  1  0  0  0  0
 12 11  2  0  0  0  0
 13 14  1  0  0  0  0
 14  4  1  1  0  0  0
 15 13  2  0  0  0  0
 16 15  1  0  0  0  0
 16 17  1  0  0  0  0
 17 18  1  0  0  0  0
 19 20  1  0  0  0  0
 19  8  1  0  0  0  0
 20 21  1  0  0  0  0
 22 21  1  0  0  0  0
 22 23  1  0  0  0  0
 23 24  1  0  0  0  0
 25 24  1  0  0  0  0
 25 26  1  0  0  0  0
 27 26  1  0  0  0  0
M  END
>  <MODEL>
9

>  <REMARK>
 VINA RESULT:      -6.6      3.676      5.870
  Name = 
  11 active torsions:
  status: ('A' for Active; 'I' for Inactive)
    1  A    between atoms: C_2  and  C_3
    2  A    between atoms: C_3  and  S_8
    3  A    between atoms: S_8  and  C_27
    4  A    between atoms: C_10  and  C_23
    5  A    between atoms: O_12  and  N_17
    6  A    between atoms: O_12  and  C_18
    7  A    between atoms: C_13  and  C_16
    8  A    between atoms: C_13  and  C_24
    9  A    between atoms: C_14  and  N_17
   10  A    between atoms: C_14  and  C_21
   11  A    between atoms: C_18  and  C_27
                            x       y       z     vdW  Elec       q    Type
                         _______ _______ _______ _____ _____    ______ ____

>  <TORSDO>
F 11

$$$$
