=
 OpenBabel11052410293D

 35 38  0  0  1  0  0  0  0  0999 V2000
  160.8890  206.8620  152.5180 C   0  0  0  0  0  3  0  0  0  0  0  0
  161.4550  209.1170  153.1920 C   0  0  0  0  0  0  0  0  0  0  0  0
  161.4920  208.5020  150.8360 C   0  0  0  0  0  0  0  0  0  0  0  0
  161.0840  207.1920  151.1690 C   0  0  0  0  0  0  0  0  0  0  0  0
  161.6570  209.4520  151.8450 C   0  0  0  0  0  3  0  0  0  0  0  0
  161.0650  207.8170  153.5210 C   0  0  0  0  0  3  0  0  0  0  0  0
  159.2740  209.9790  155.3900 N   0  0  0  0  0  0  0  0  0  0  0  0
  161.5070  210.1680  154.2640 C   0  0  2  0  0  3  0  0  0  0  0  0
  160.7100  209.6820  155.5090 C   0  0  0  0  0  2  0  0  0  0  0  0
  160.9870  211.4560  153.7580 N   0  0  0  0  0  0  0  0  0  0  0  0
  159.1000  212.8010  153.3660 N   0  0  0  0  0  0  0  0  0  0  0  0
  157.7930  212.6480  153.7100 C   0  0  0  0  0  3  0  0  0  0  0  0
  156.4220  210.9880  155.0040 N   0  0  0  0  0  1  0  0  0  0  0  0
  157.6490  211.5370  154.5330 C   0  0  1  0  0  3  0  0  0  0  0  0
  159.7420  211.7720  153.9510 C   0  0  0  0  0  0  0  0  0  0  0  0
  158.8990  211.0120  154.7000 C   0  0  0  0  0  0  0  0  0  0  0  0
  161.3390  204.1610  151.4430 N   0  0  0  0  0  2  0  0  0  0  0  0
  161.3330  202.7160  151.5970 C   0  0  0  0  0  1  0  0  0  0  0  0
  160.8640  206.2260  150.1290 N   0  0  0  0  0  2  0  0  0  0  0  0
  160.9990  204.8010  150.2110 C   0  0  0  0  0  0  0  0  0  0  0  0
  160.7720  204.1070  149.1840 O   0  0  0  0  0  0  0  0  0  0  0  0
  161.7250  208.9410  149.4180 C   0  0  2  0  0  3  0  0  0  0  0  0
  162.5840  208.0530  148.7620 O   0  0  0  0  0  1  0  0  0  0  0  0
  162.2820  210.3280  149.3790 C   0  0  0  0  0  3  0  0  0  0  0  0
  162.1470  211.0670  148.3350 N   0  0  0  0  0  0  0  0  0  0  0  0
  162.6890  212.4070  148.3100 C   0  0  0  0  0  2  0  0  0  0  0  0
  162.2500  214.3510  146.9550 O   0  0  0  0  0  0  0  0  0  0  0  0
  160.3660  213.1900  147.7020 N   0  0  0  0  0  2  0  0  0  0  0  0
  161.7810  213.3730  147.6010 C   0  0  0  0  0  0  0  0  0  0  0  0
  157.1410  212.5020  146.1770 C   0  0  0  0  0  2  0  0  0  0  0  0
  159.1900  213.8380  145.6360 C   0  0  0  0  0  2  0  0  0  0  0  0
  157.3700  212.7360  147.6660 C   0  0  0  0  0  2  0  0  0  0  0  0
  158.4730  212.5030  145.4320 C   0  0  0  0  0  2  0  0  0  0  0  0
  158.0830  214.0730  147.8850 C   0  0  0  0  0  2  0  0  0  0  0  0
  159.4100  214.1320  147.1250 C   0  0  0  0  0  3  0  0  0  0  0  0
  1  6  1  0  0  0  0
  2  6  2  0  0  0  0
  3  4  1  0  0  0  0
  3  5  2  0  0  0  0
  4  1  2  0  0  0  0
  5  2  1  0  0  0  0
  7  9  1  0  0  0  0
  8  2  1  6  0  0  0
  8  9  1  0  0  0  0
 10 15  2  0  0  0  0
 10  8  1  0  0  0  0
 11 12  2  0  0  0  0
 11 15  1  0  0  0  0
 12 14  1  0  0  0  0
 14 16  1  0  0  0  0
 14 13  1  6  0  0  0
 15 16  1  0  0  0  0
 16  7  2  0  0  0  0
 17 18  1  0  0  0  0
 19 20  1  0  0  0  0
 19  4  1  0  0  0  0
 20 17  1  0  0  0  0
 21 20  2  0  0  0  0
 22 23  1  1  0  0  0
 22  3  1  0  0  0  0
 24 22  1  0  0  0  0
 25 24  2  0  0  0  0
 26 25  1  0  0  0  0
 27 29  2  0  0  0  0
 29 28  1  0  0  0  0
 29 26  1  0  0  0  0
 30 32  1  0  0  0  0
 31 35  1  0  0  0  0
 32 34  1  0  0  0  0
 33 31  1  0  0  0  0
 33 30  1  0  0  0  0
 35 28  1  0  0  0  0
 35 34  1  0  0  0  0
M  END
>  <MODEL>
1

>  <REMARK>
 VINA RESULT:      -7.9      0.000      0.000
  Name = 
  7 active torsions:
  status: ('A' for Active; 'I' for Inactive)
    1  A    between atoms: C_1  and  N_11
    2  A    between atoms: C_1  and  C_23
    3  A    between atoms: C_4  and  C_8
    4  A    between atoms: C_4  and  C_9
    5  A    between atoms: C_6  and  C_10
    6  A    between atoms: N_19  and  C_29
    7  A    between atoms: N_21  and  C_30
                            x       y       z     vdW  Elec       q    Type
                         _______ _______ _______ _____ _____    ______ ____

>  <TORSDO>
F 7

$$$$
=
 OpenBabel11052410293D

 35 38  0  0  1  0  0  0  0  0999 V2000
  160.9240  209.8260  151.9840 C   0  0  0  0  0  3  0  0  0  0  0  0
  160.7230  209.2940  154.3370 C   0  0  0  0  0  0  0  0  0  0  0  0
  161.4190  207.5800  152.7530 C   0  0  0  0  0  0  0  0  0  0  0  0
  161.3360  208.5160  151.7000 C   0  0  0  0  0  0  0  0  0  0  0  0
  161.1290  207.9800  154.0580 C   0  0  0  0  0  3  0  0  0  0  0  0
  160.6270  210.2150  153.2930 C   0  0  0  0  0  3  0  0  0  0  0  0
  158.1120  210.4010  155.8490 N   0  0  0  0  0  0  0  0  0  0  0  0
  160.5340  209.7580  155.7540 C   0  0  2  0  0  3  0  0  0  0  0  0
  159.1040  209.3850  156.2370 C   0  0  0  0  0  2  0  0  0  0  0  0
  160.7810  211.2120  155.8630 N   0  0  0  0  0  0  0  0  0  0  0  0
  159.8960  213.3800  155.6680 N   0  0  0  0  0  0  0  0  0  0  0  0
  158.6280  213.8240  155.4520 C   0  0  0  0  0  3  0  0  0  0  0  0
  156.3510  212.8000  155.1800 N   0  0  0  0  0  1  0  0  0  0  0  0
  157.7430  212.7520  155.4770 C   0  0  1  0  0  3  0  0  0  0  0  0
  159.7860  212.0450  155.7930 C   0  0  0  0  0  0  0  0  0  0  0  0
  158.4900  211.6360  155.7250 C   0  0  0  0  0  0  0  0  0  0  0  0
  162.0150  210.3920  149.3860 N   0  0  0  0  0  2  0  0  0  0  0  0
  162.4620  211.2690  148.3170 C   0  0  0  0  0  1  0  0  0  0  0  0
  161.6830  208.1210  150.3640 N   0  0  0  0  0  2  0  0  0  0  0  0
  161.9810  208.9690  149.2460 C   0  0  0  0  0  0  0  0  0  0  0  0
  162.2570  208.4400  148.1360 O   0  0  0  0  0  0  0  0  0  0  0  0
  161.8500  206.1560  152.5380 C   0  0  2  0  0  3  0  0  0  0  0  0
  163.1430  206.1080  152.0050 O   0  0  0  0  0  1  0  0  0  0  0  0
  160.8900  205.4440  151.6410 C   0  0  0  0  0  3  0  0  0  0  0  0
  161.2810  204.4780  150.8860 N   0  0  0  0  0  0  0  0  0  0  0  0
  160.3420  203.7950  150.0240 C   0  0  0  0  0  2  0  0  0  0  0  0
  161.2340  201.9680  148.7320 O   0  0  0  0  0  0  0  0  0  0  0  0
  161.4250  204.0840  147.7600 N   0  0  0  0  0  2  0  0  0  0  0  0
  161.0090  203.2080  148.8120 C   0  0  0  0  0  0  0  0  0  0  0  0
  161.3760  205.3870  144.3690 C   0  0  0  0  0  2  0  0  0  0  0  0
  161.1980  203.1530  145.4900 C   0  0  0  0  0  2  0  0  0  0  0  0
  162.2940  205.8830  145.4820 C   0  0  0  0  0  2  0  0  0  0  0  0
  160.4160  204.3310  144.9100 C   0  0  0  0  0  2  0  0  0  0  0  0
  163.0880  204.7140  146.0690 C   0  0  0  0  0  2  0  0  0  0  0  0
  162.1630  203.6120  146.5910 C   0  0  0  0  0  3  0  0  0  0  0  0
  1  6  1  0  0  0  0
  3  5  2  0  0  0  0
  4  1  2  0  0  0  0
  4  3  1  0  0  0  0
  5  2  1  0  0  0  0
  6  2  2  0  0  0  0
  7  9  1  0  0  0  0
  8  2  1  6  0  0  0
  8 10  1  0  0  0  0
  8  9  1  0  0  0  0
 11 15  1  0  0  0  0
 12 14  1  0  0  0  0
 12 11  2  0  0  0  0
 14 13  1  6  0  0  0
 14 16  1  0  0  0  0
 15 10  2  0  0  0  0
 16 15  1  0  0  0  0
 16  7  2  0  0  0  0
 18 17  1  0  0  0  0
 19  4  1  0  0  0  0
 20 17  1  0  0  0  0
 20 19  1  0  0  0  0
 21 20  2  0  0  0  0
 22 23  1  6  0  0  0
 22  3  1  0  0  0  0
 24 22  1  0  0  0  0
 25 24  2  0  0  0  0
 26 25  1  0  0  0  0
 27 29  2  0  0  0  0
 28 29  1  0  0  0  0
 29 26  1  0  0  0  0
 30 33  1  0  0  0  0
 30 32  1  0  0  0  0
 31 35  1  0  0  0  0
 32 34  1  0  0  0  0
 33 31  1  0  0  0  0
 34 35  1  0  0  0  0
 35 28  1  0  0  0  0
M  END
>  <MODEL>
2

>  <REMARK>
 VINA RESULT:      -7.6      2.776      6.222
  Name = 
  7 active torsions:
  status: ('A' for Active; 'I' for Inactive)
    1  A    between atoms: C_1  and  N_11
    2  A    between atoms: C_1  and  C_23
    3  A    between atoms: C_4  and  C_8
    4  A    between atoms: C_4  and  C_9
    5  A    between atoms: C_6  and  C_10
    6  A    between atoms: N_19  and  C_29
    7  A    between atoms: N_21  and  C_30
                            x       y       z     vdW  Elec       q    Type
                         _______ _______ _______ _____ _____    ______ ____

>  <TORSDO>
F 7

$$$$
=
 OpenBabel11052410293D

 35 38  0  0  1  0  0  0  0  0999 V2000
  160.8450  206.1060  152.9140 C   0  0  0  0  0  3  0  0  0  0  0  0
  161.4910  208.3300  153.6200 C   0  0  0  0  0  0  0  0  0  0  0  0
  161.3800  207.7860  151.2480 C   0  0  0  0  0  0  0  0  0  0  0  0
  160.9680  206.4740  151.5660 C   0  0  0  0  0  0  0  0  0  0  0  0
  161.6210  208.7020  152.2730 C   0  0  0  0  0  3  0  0  0  0  0  0
  161.0970  207.0280  153.9330 C   0  0  0  0  0  3  0  0  0  0  0  0
  159.2890  209.5720  155.6060 N   0  0  0  0  0  0  0  0  0  0  0  0
  161.6240  209.3480  154.7170 C   0  0  2  0  0  3  0  0  0  0  0  0
  160.6260  209.0120  155.8620 C   0  0  0  0  0  2  0  0  0  0  0  0
  161.4060  210.7130  154.1920 N   0  0  0  0  0  0  0  0  0  0  0  0
  159.8510  212.3880  153.6440 N   0  0  0  0  0  0  0  0  0  0  0  0
  158.5100  212.4790  153.8500 C   0  0  0  0  0  3  0  0  0  0  0  0
  156.7280  211.0960  154.9570 N   0  0  0  0  0  1  0  0  0  0  0  0
  158.0780  211.4090  154.6260 C   0  0  1  0  0  3  0  0  0  0  0  0
  160.2280  211.2540  154.2660 C   0  0  0  0  0  0  0  0  0  0  0  0
  159.1850  210.6600  154.9070 C   0  0  0  0  0  0  0  0  0  0  0  0
  161.5380  203.4730  151.6010 N   0  0  0  0  0  2  0  0  0  0  0  0
  161.6890  202.0290  151.6590 C   0  0  0  0  0  1  0  0  0  0  0  0
  160.6710  205.5440  150.5140 N   0  0  0  0  0  2  0  0  0  0  0  0
  160.9460  204.1360  150.4810 C   0  0  0  0  0  0  0  0  0  0  0  0
  160.6190  203.4750  149.4590 O   0  0  0  0  0  0  0  0  0  0  0  0
  161.5390  208.2640  149.8330 C   0  0  2  0  0  3  0  0  0  0  0  0
  162.3710  207.4000  149.1120 O   0  0  0  0  0  1  0  0  0  0  0  0
  162.0840  209.6550  149.8030 C   0  0  0  0  0  3  0  0  0  0  0  0
  161.9750  210.3870  148.7500 N   0  0  0  0  0  0  0  0  0  0  0  0
  162.5040  211.7320  148.7340 C   0  0  0  0  0  2  0  0  0  0  0  0
  160.9740  213.5920  148.8220 O   0  0  0  0  0  0  0  0  0  0  0  0
  161.2520  212.6080  146.7220 N   0  0  0  0  0  2  0  0  0  0  0  0
  161.5450  212.7120  148.1190 C   0  0  0  0  0  0  0  0  0  0  0  0
  160.5450  212.9260  143.1720 C   0  0  0  0  0  2  0  0  0  0  0  0
  160.9470  214.4530  145.1180 C   0  0  0  0  0  2  0  0  0  0  0  0
  159.9100  211.8960  144.1000 C   0  0  0  0  0  2  0  0  0  0  0  0
  161.5910  213.7420  143.9280 C   0  0  0  0  0  2  0  0  0  0  0  0
  159.2560  212.5950  145.2940 C   0  0  0  0  0  2  0  0  0  0  0  0
  160.2630  213.4550  146.0610 C   0  0  0  0  0  3  0  0  0  0  0  0
  1  6  1  0  0  0  0
  2  6  2  0  0  0  0
  3  4  1  0  0  0  0
  3  5  2  0  0  0  0
  4  1  2  0  0  0  0
  5  2  1  0  0  0  0
  7  9  1  0  0  0  0
  8  2  1  6  0  0  0
  8  9  1  0  0  0  0
 10 15  2  0  0  0  0
 10  8  1  0  0  0  0
 11 12  2  0  0  0  0
 11 15  1  0  0  0  0
 12 14  1  0  0  0  0
 14 16  1  0  0  0  0
 14 13  1  6  0  0  0
 15 16  1  0  0  0  0
 16  7  2  0  0  0  0
 17 18  1  0  0  0  0
 19  4  1  0  0  0  0
 20 19  1  0  0  0  0
 20 17  1  0  0  0  0
 21 20  2  0  0  0  0
 22 23  1  6  0  0  0
 22  3  1  0  0  0  0
 24 22  1  0  0  0  0
 25 24  2  0  0  0  0
 26 25  1  0  0  0  0
 28 29  1  0  0  0  0
 29 26  1  0  0  0  0
 29 27  2  0  0  0  0
 30 33  1  0  0  0  0
 30 32  1  0  0  0  0
 31 35  1  0  0  0  0
 32 34  1  0  0  0  0
 33 31  1  0  0  0  0
 34 35  1  0  0  0  0
 35 28  1  0  0  0  0
M  END
>  <MODEL>
3

>  <REMARK>
 VINA RESULT:      -7.4      1.208      1.645
  Name = 
  7 active torsions:
  status: ('A' for Active; 'I' for Inactive)
    1  A    between atoms: C_1  and  N_11
    2  A    between atoms: C_1  and  C_23
    3  A    between atoms: C_4  and  C_8
    4  A    between atoms: C_4  and  C_9
    5  A    between atoms: C_6  and  C_10
    6  A    between atoms: N_19  and  C_29
    7  A    between atoms: N_21  and  C_30
                            x       y       z     vdW  Elec       q    Type
                         _______ _______ _______ _____ _____    ______ ____

>  <TORSDO>
F 7

$$$$
=
 OpenBabel11052410293D

 35 38  0  0  1  0  0  0  0  0999 V2000
  160.8980  208.4250  152.4040 C   0  0  0  0  0  3  0  0  0  0  0  0
  160.7770  207.4560  154.6190 C   0  0  0  0  0  0  0  0  0  0  0  0
  161.3790  206.0680  152.7100 C   0  0  0  0  0  0  0  0  0  0  0  0
  161.2730  207.1890  151.8590 C   0  0  0  0  0  0  0  0  0  0  0  0
  161.1470  206.2150  154.0790 C   0  0  0  0  0  3  0  0  0  0  0  0
  160.6580  208.5610  153.7740 C   0  0  0  0  0  3  0  0  0  0  0  0
  159.6110  209.9140  156.3310 N   0  0  0  0  0  0  0  0  0  0  0  0
  160.6520  207.6430  156.1050 C   0  0  2  0  0  3  0  0  0  0  0  0
  159.3690  208.4650  156.4190 C   0  0  0  0  0  2  0  0  0  0  0  0
  161.8600  208.2960  156.6520 N   0  0  0  0  0  0  0  0  0  0  0  0
  162.9800  210.3140  157.0950 N   0  0  0  0  0  0  0  0  0  0  0  0
  162.5820  211.6110  156.9920 C   0  0  0  0  0  3  0  0  0  0  0  0
  160.4800  212.8380  156.3700 N   0  0  0  0  0  1  0  0  0  0  0  0
  161.2300  211.6650  156.6720 C   0  0  1  0  0  3  0  0  0  0  0  0
  161.8850  209.5850  156.8110 C   0  0  0  0  0  0  0  0  0  0  0  0
  160.7970  210.3720  156.5920 C   0  0  0  0  0  0  0  0  0  0  0  0
  161.8330  209.4690  149.9050 N   0  0  0  0  0  2  0  0  0  0  0  0
  162.2260  210.5350  148.9980 C   0  0  0  0  0  1  0  0  0  0  0  0
  161.5610  207.0530  150.4590 N   0  0  0  0  0  2  0  0  0  0  0  0
  161.8030  208.0970  149.5050 C   0  0  0  0  0  0  0  0  0  0  0  0
  162.0310  207.7860  148.3060 O   0  0  0  0  0  0  0  0  0  0  0  0
  161.7740  204.7070  152.2110 C   0  0  2  0  0  3  0  0  0  0  0  0
  163.0710  204.7320  151.6880 O   0  0  0  0  0  1  0  0  0  0  0  0
  160.8070  204.2220  151.1800 C   0  0  0  0  0  3  0  0  0  0  0  0
  161.0520  203.1660  150.4860 N   0  0  0  0  0  0  0  0  0  0  0  0
  160.1070  202.7060  149.4930 C   0  0  0  0  0  2  0  0  0  0  0  0
  160.9660  201.2380  147.7860 O   0  0  0  0  0  0  0  0  0  0  0  0
  161.2020  203.5240  147.3690 N   0  0  0  0  0  2  0  0  0  0  0  0
  160.7650  202.4230  148.1720 C   0  0  0  0  0  0  0  0  0  0  0  0
  161.3900  205.7520  144.5060 C   0  0  0  0  0  2  0  0  0  0  0  0
  160.9700  203.3180  144.9250 C   0  0  0  0  0  2  0  0  0  0  0  0
  162.3100  205.8120  145.7210 C   0  0  0  0  0  2  0  0  0  0  0  0
  160.3190  204.6840  144.7080 C   0  0  0  0  0  2  0  0  0  0  0  0
  162.9730  204.4520  145.9460 C   0  0  0  0  0  2  0  0  0  0  0  0
  161.9340  203.3420  146.1180 C   0  0  0  0  0  3  0  0  0  0  0  0
  1  6  1  0  0  0  0
  3  5  2  0  0  0  0
  4  1  2  0  0  0  0
  4  3  1  0  0  0  0
  5  2  1  0  0  0  0
  6  2  2  0  0  0  0
  7  9  1  0  0  0  0
  7 16  2  0  0  0  0
  8  2  1  6  0  0  0
  8  9  1  0  0  0  0
  8 10  1  0  0  0  0
 10 15  2  0  0  0  0
 12 11  2  0  0  0  0
 14 13  1  6  0  0  0
 14 12  1  0  0  0  0
 15 11  1  0  0  0  0
 16 14  1  0  0  0  0
 16 15  1  0  0  0  0
 18 17  1  0  0  0  0
 19  4  1  0  0  0  0
 20 17  1  0  0  0  0
 20 19  1  0  0  0  0
 21 20  2  0  0  0  0
 22 23  1  6  0  0  0
 22  3  1  0  0  0  0
 24 22  1  0  0  0  0
 25 24  2  0  0  0  0
 26 25  1  0  0  0  0
 27 29  2  0  0  0  0
 28 29  1  0  0  0  0
 29 26  1  0  0  0  0
 30 33  1  0  0  0  0
 30 32  1  0  0  0  0
 31 35  1  0  0  0  0
 32 34  1  0  0  0  0
 33 31  1  0  0  0  0
 34 35  1  0  0  0  0
 35 28  1  0  0  0  0
M  END
>  <MODEL>
4

>  <REMARK>
 VINA RESULT:      -7.1      3.340      6.647
  Name = 
  7 active torsions:
  status: ('A' for Active; 'I' for Inactive)
    1  A    between atoms: C_1  and  N_11
    2  A    between atoms: C_1  and  C_23
    3  A    between atoms: C_4  and  C_8
    4  A    between atoms: C_4  and  C_9
    5  A    between atoms: C_6  and  C_10
    6  A    between atoms: N_19  and  C_29
    7  A    between atoms: N_21  and  C_30
                            x       y       z     vdW  Elec       q    Type
                         _______ _______ _______ _____ _____    ______ ____

>  <TORSDO>
F 7

$$$$
=
 OpenBabel11052410293D

 35 38  0  0  1  0  0  0  0  0999 V2000
  159.7090  211.0430  152.9830 C   0  0  0  0  0  3  0  0  0  0  0  0
  160.5120  212.4080  151.1520 C   0  0  0  0  0  0  0  0  0  0  0  0
  161.1570  210.0640  151.3020 C   0  0  0  0  0  0  0  0  0  0  0  0
  160.3880  209.9250  152.4770 C   0  0  0  0  0  0  0  0  0  0  0  0
  161.1990  211.2940  150.6450 C   0  0  0  0  0  3  0  0  0  0  0  0
  159.7630  212.2730  152.3220 C   0  0  0  0  0  3  0  0  0  0  0  0
  158.2750  213.5430  149.1440 N   0  0  0  0  0  0  0  0  0  0  0  0
  160.4520  213.6950  150.3790 C   0  0  2  0  0  3  0  0  0  0  0  0
  158.9750  214.1710  150.2760 C   0  0  0  0  0  2  0  0  0  0  0  0
  161.0620  213.5290  149.0420 N   0  0  0  0  0  0  0  0  0  0  0  0
  160.7600  212.8680  146.8070 N   0  0  0  0  0  0  0  0  0  0  0  0
  159.6470  212.5080  146.1130 C   0  0  0  0  0  3  0  0  0  0  0  0
  157.1830  212.3300  146.5670 N   0  0  0  0  0  1  0  0  0  0  0  0
  158.5170  212.6990  146.9010 C   0  0  1  0  0  3  0  0  0  0  0  0
  160.3130  213.2480  148.0190 C   0  0  0  0  0  0  0  0  0  0  0  0
  158.9550  213.1980  148.0950 C   0  0  0  0  0  0  0  0  0  0  0  0
  161.5330  209.2200  155.2190 N   0  0  0  0  0  2  0  0  0  0  0  0
  161.9620  208.9130  156.5740 C   0  0  0  0  0  1  0  0  0  0  0  0
  160.3020  208.6480  153.1280 N   0  0  0  0  0  2  0  0  0  0  0  0
  160.8480  208.2710  154.4000 C   0  0  0  0  0  0  0  0  0  0  0  0
  160.6800  207.0910  154.8100 O   0  0  0  0  0  0  0  0  0  0  0  0
  161.9170  208.9200  150.6920 C   0  0  2  0  0  3  0  0  0  0  0  0
  162.2780  209.2160  149.3730 O   0  0  0  0  0  1  0  0  0  0  0  0
  161.1090  207.6640  150.7410 C   0  0  0  0  0  3  0  0  0  0  0  0
  161.4440  206.6340  150.0460 N   0  0  0  0  0  0  0  0  0  0  0  0
  160.6550  205.4230  150.1030 C   0  0  0  0  0  2  0  0  0  0  0  0
  161.1270  203.1790  149.3640 O   0  0  0  0  0  0  0  0  0  0  0  0
  161.5210  204.8670  147.7970 N   0  0  0  0  0  2  0  0  0  0  0  0
  161.0960  204.4100  149.0850 C   0  0  0  0  0  0  0  0  0  0  0  0
  161.5270  205.2650  144.1860 C   0  0  0  0  0  2  0  0  0  0  0  0
  160.9380  203.4820  145.8440 C   0  0  0  0  0  2  0  0  0  0  0  0
  162.6060  205.7950  145.1240 C   0  0  0  0  0  2  0  0  0  0  0  0
  160.3960  204.6280  144.9890 C   0  0  0  0  0  2  0  0  0  0  0  0
  163.1610  204.6560  145.9830 C   0  0  0  0  0  2  0  0  0  0  0  0
  162.0540  203.9630  146.7800 C   0  0  0  0  0  3  0  0  0  0  0  0
  2  6  1  0  0  0  0
  3  4  2  0  0  0  0
  4  1  1  0  0  0  0
  4 19  1  0  0  0  0
  5  2  2  0  0  0  0
  5  3  1  0  0  0  0
  6  1  2  0  0  0  0
  7  9  1  0  0  0  0
  8  2  1  6  0  0  0
  9  8  1  0  0  0  0
 10  8  1  0  0  0  0
 11 15  1  0  0  0  0
 12 11  2  0  0  0  0
 12 14  1  0  0  0  0
 14 13  1  1  0  0  0
 14 16  1  0  0  0  0
 15 16  1  0  0  0  0
 15 10  2  0  0  0  0
 16  7  2  0  0  0  0
 17 18  1  0  0  0  0
 19 20  1  0  0  0  0
 20 21  2  0  0  0  0
 20 17  1  0  0  0  0
 22 23  1  6  0  0  0
 22 24  1  0  0  0  0
 22  3  1  0  0  0  0
 25 26  1  0  0  0  0
 25 24  2  0  0  0  0
 28 29  1  0  0  0  0
 29 27  2  0  0  0  0
 29 26  1  0  0  0  0
 30 33  1  0  0  0  0
 30 32  1  0  0  0  0
 31 35  1  0  0  0  0
 32 34  1  0  0  0  0
 33 31  1  0  0  0  0
 34 35  1  0  0  0  0
 35 28  1  0  0  0  0
M  END
>  <MODEL>
5

>  <REMARK>
 VINA RESULT:      -7.0      2.873      6.950
  Name = 
  7 active torsions:
  status: ('A' for Active; 'I' for Inactive)
    1  A    between atoms: C_1  and  N_11
    2  A    between atoms: C_1  and  C_23
    3  A    between atoms: C_4  and  C_8
    4  A    between atoms: C_4  and  C_9
    5  A    between atoms: C_6  and  C_10
    6  A    between atoms: N_19  and  C_29
    7  A    between atoms: N_21  and  C_30
                            x       y       z     vdW  Elec       q    Type
                         _______ _______ _______ _____ _____    ______ ____

>  <TORSDO>
F 7

$$$$
=
 OpenBabel11052410293D

 35 38  0  0  1  0  0  0  0  0999 V2000
  160.2850  208.1660  155.5530 C   0  0  0  0  0  3  0  0  0  0  0  0
  160.9750  207.0420  153.5230 C   0  0  0  0  0  0  0  0  0  0  0  0
  160.7340  209.4650  153.5550 C   0  0  0  0  0  0  0  0  0  0  0  0
  160.3640  209.4130  154.9160 C   0  0  0  0  0  0  0  0  0  0  0  0
  161.0510  208.2860  152.8790 C   0  0  0  0  0  3  0  0  0  0  0  0
  160.5950  206.9900  154.8650 C   0  0  0  0  0  3  0  0  0  0  0  0
  162.9270  206.6330  151.0030 N   0  0  0  0  0  0  0  0  0  0  0  0
  161.4380  205.7880  152.8350 C   0  0  2  0  0  3  0  0  0  0  0  0
  162.8930  205.9840  152.3230 C   0  0  0  0  0  2  0  0  0  0  0  0
  160.5200  205.4290  151.7330 N   0  0  0  0  0  0  0  0  0  0  0  0
  159.9330  205.7350  149.4790 N   0  0  0  0  0  0  0  0  0  0  0  0
  160.5480  206.4060  148.4670 C   0  0  0  0  0  3  0  0  0  0  0  0
  162.6750  207.7050  148.1580 N   0  0  0  0  0  1  0  0  0  0  0  0
  161.7890  206.8660  148.8920 C   0  0  1  0  0  3  0  0  0  0  0  0
  160.7820  205.8130  150.5210 C   0  0  0  0  0  0  0  0  0  0  0  0
  161.9340  206.4540  150.1860 C   0  0  0  0  0  0  0  0  0  0  0  0
  157.6130  210.6780  155.3170 N   0  0  0  0  0  2  0  0  0  0  0  0
  156.2990  211.2180  155.6210 C   0  0  0  0  0  1  0  0  0  0  0  0
  160.0870  210.6280  155.6280 N   0  0  0  0  0  2  0  0  0  0  0  0
  158.8160  211.2670  155.8160 C   0  0  0  0  0  0  0  0  0  0  0  0
  158.7660  212.3450  156.4670 O   0  0  0  0  0  0  0  0  0  0  0  0
  160.8430  210.7570  152.7950 C   0  0  2  0  0  3  0  0  0  0  0  0
  159.5750  211.2190  152.4250 O   0  0  0  0  0  1  0  0  0  0  0  0
  161.7080  210.5890  151.5880 C   0  0  0  0  0  3  0  0  0  0  0  0
  161.4160  211.1690  150.4770 N   0  0  0  0  0  0  0  0  0  0  0  0
  162.2620  211.0000  149.3170 C   0  0  0  0  0  2  0  0  0  0  0  0
  163.1130  212.8660  148.0520 O   0  0  0  0  0  0  0  0  0  0  0  0
  160.8380  212.4100  147.7790 N   0  0  0  0  0  2  0  0  0  0  0  0
  162.1240  212.1370  148.3440 C   0  0  0  0  0  0  0  0  0  0  0  0
  158.2820  212.7980  145.2260 C   0  0  0  0  0  2  0  0  0  0  0  0
  160.7550  213.1460  145.4290 C   0  0  0  0  0  2  0  0  0  0  0  0
  158.1030  213.1440  146.7010 C   0  0  0  0  0  2  0  0  0  0  0  0
  159.6560  212.1760  144.9940 C   0  0  0  0  0  2  0  0  0  0  0  0
  159.1940  214.1190  147.1490 C   0  0  0  0  0  2  0  0  0  0  0  0
  160.5920  213.5500  146.9000 C   0  0  0  0  0  3  0  0  0  0  0  0
  2  6  1  0  0  0  0
  3  4  2  0  0  0  0
  4  1  1  0  0  0  0
  4 19  1  0  0  0  0
  5  2  2  0  0  0  0
  5  3  1  0  0  0  0
  6  1  2  0  0  0  0
  7  9  1  0  0  0  0
  8  2  1  6  0  0  0
  9  8  1  0  0  0  0
 10  8  1  0  0  0  0
 11 15  1  0  0  0  0
 12 14  1  0  0  0  0
 12 11  2  0  0  0  0
 14 13  1  1  0  0  0
 14 16  1  0  0  0  0
 15 10  2  0  0  0  0
 16 15  1  0  0  0  0
 16  7  2  0  0  0  0
 17 18  1  0  0  0  0
 17 20  1  0  0  0  0
 19 20  1  0  0  0  0
 20 21  2  0  0  0  0
 22 23  1  6  0  0  0
 22  3  1  0  0  0  0
 24 22  1  0  0  0  0
 25 24  2  0  0  0  0
 26 25  1  0  0  0  0
 27 29  2  0  0  0  0
 28 29  1  0  0  0  0
 29 26  1  0  0  0  0
 30 32  1  0  0  0  0
 31 35  1  0  0  0  0
 32 34  1  0  0  0  0
 33 30  1  0  0  0  0
 33 31  1  0  0  0  0
 35 34  1  0  0  0  0
 35 28  1  0  0  0  0
M  END
>  <MODEL>
6

>  <REMARK>
 VINA RESULT:      -6.9      2.402      5.630
  Name = 
  7 active torsions:
  status: ('A' for Active; 'I' for Inactive)
    1  A    between atoms: C_1  and  N_11
    2  A    between atoms: C_1  and  C_23
    3  A    between atoms: C_4  and  C_8
    4  A    between atoms: C_4  and  C_9
    5  A    between atoms: C_6  and  C_10
    6  A    between atoms: N_19  and  C_29
    7  A    between atoms: N_21  and  C_30
                            x       y       z     vdW  Elec       q    Type
                         _______ _______ _______ _____ _____    ______ ____

>  <TORSDO>
F 7

$$$$
=
 OpenBabel11052410293D

 35 38  0  0  1  0  0  0  0  0999 V2000
  160.4220  212.5400  151.0540 C   0  0  0  0  0  3  0  0  0  0  0  0
  159.8030  211.0410  152.8510 C   0  0  0  0  0  0  0  0  0  0  0  0
  161.2730  210.2690  151.0680 C   0  0  0  0  0  0  0  0  0  0  0  0
  161.2090  211.5420  150.4620 C   0  0  0  0  0  0  0  0  0  0  0  0
  160.5850  210.0360  152.2600 C   0  0  0  0  0  3  0  0  0  0  0  0
  159.7300  212.2950  152.2430 C   0  0  0  0  0  3  0  0  0  0  0  0
  160.8080  211.8610  155.7920 N   0  0  0  0  0  0  0  0  0  0  0  0
  159.1690  210.8320  154.1970 C   0  0  2  0  0  3  0  0  0  0  0  0
  159.5080  212.0340  155.1240 C   0  0  0  0  0  2  0  0  0  0  0  0
  159.6100  209.5500  154.7890 N   0  0  0  0  0  0  0  0  0  0  0  0
  161.2400  208.4200  156.0480 N   0  0  0  0  0  0  0  0  0  0  0  0
  162.3260  208.8690  156.7330 C   0  0  0  0  0  3  0  0  0  0  0  0
  163.3740  211.0920  157.2520 N   0  0  0  0  0  1  0  0  0  0  0  0
  162.3400  210.2590  156.7360 C   0  0  1  0  0  3  0  0  0  0  0  0
  160.6150  209.5290  155.6120 C   0  0  0  0  0  0  0  0  0  0  0  0
  161.2310  210.6610  156.0470 C   0  0  0  0  0  0  0  0  0  0  0  0
  160.1490  212.8950  147.9370 N   0  0  0  0  0  2  0  0  0  0  0  0
  159.6910  213.6500  146.7830 C   0  0  0  0  0  1  0  0  0  0  0  0
  161.9560  211.8000  149.2630 N   0  0  0  0  0  2  0  0  0  0  0  0
  161.4880  212.4070  148.0500 C   0  0  0  0  0  0  0  0  0  0  0  0
  162.2910  212.5450  147.0890 O   0  0  0  0  0  0  0  0  0  0  0  0
  162.0900  209.1420  150.5020 C   0  0  2  0  0  3  0  0  0  0  0  0
  162.2600  209.3030  149.1220 O   0  0  0  0  0  1  0  0  0  0  0  0
  161.4490  207.8240  150.7970 C   0  0  0  0  0  3  0  0  0  0  0  0
  161.2140  206.9770  149.8580 N   0  0  0  0  0  0  0  0  0  0  0  0
  160.5950  205.7050  150.1570 C   0  0  0  0  0  2  0  0  0  0  0  0
  160.8550  203.4180  149.4440 O   0  0  0  0  0  0  0  0  0  0  0  0
  161.5090  205.0420  147.8970 N   0  0  0  0  0  2  0  0  0  0  0  0
  160.9730  204.6430  149.1620 C   0  0  0  0  0  0  0  0  0  0  0  0
  161.5980  205.3570  144.2790 C   0  0  0  0  0  2  0  0  0  0  0  0
  160.8560  203.6600  145.9650 C   0  0  0  0  0  2  0  0  0  0  0  0
  162.6990  205.8280  145.2230 C   0  0  0  0  0  2  0  0  0  0  0  0
  160.4120  204.8220  145.0770 C   0  0  0  0  0  2  0  0  0  0  0  0
  163.1560  204.6720  146.1160 C   0  0  0  0  0  2  0  0  0  0  0  0
  161.9890  204.0790  146.9090 C   0  0  0  0  0  3  0  0  0  0  0  0
  1  6  1  0  0  0  0
  3  5  2  0  0  0  0
  4  1  2  0  0  0  0
  4  3  1  0  0  0  0
  5  2  1  0  0  0  0
  6  2  2  0  0  0  0
  7 16  2  0  0  0  0
  8  2  1  6  0  0  0
  8 10  1  0  0  0  0
  8  9  1  0  0  0  0
  9  7  1  0  0  0  0
 10 15  2  0  0  0  0
 11 12  2  0  0  0  0
 12 14  1  0  0  0  0
 14 13  1  6  0  0  0
 15 16  1  0  0  0  0
 15 11  1  0  0  0  0
 16 14  1  0  0  0  0
 17 20  1  0  0  0  0
 18 17  1  0  0  0  0
 19  4  1  0  0  0  0
 20 19  1  0  0  0  0
 21 20  2  0  0  0  0
 22 23  1  6  0  0  0
 22 24  1  0  0  0  0
 22  3  1  0  0  0  0
 25 26  1  0  0  0  0
 25 24  2  0  0  0  0
 28 29  1  0  0  0  0
 29 27  2  0  0  0  0
 29 26  1  0  0  0  0
 30 33  1  0  0  0  0
 30 32  1  0  0  0  0
 31 35  1  0  0  0  0
 32 34  1  0  0  0  0
 33 31  1  0  0  0  0
 34 35  1  0  0  0  0
 35 28  1  0  0  0  0
M  END
>  <MODEL>
7

>  <REMARK>
 VINA RESULT:      -6.6      2.550      6.776
  Name = 
  7 active torsions:
  status: ('A' for Active; 'I' for Inactive)
    1  A    between atoms: C_1  and  N_11
    2  A    between atoms: C_1  and  C_23
    3  A    between atoms: C_4  and  C_8
    4  A    between atoms: C_4  and  C_9
    5  A    between atoms: C_6  and  C_10
    6  A    between atoms: N_19  and  C_29
    7  A    between atoms: N_21  and  C_30
                            x       y       z     vdW  Elec       q    Type
                         _______ _______ _______ _____ _____    ______ ____

>  <TORSDO>
F 7

$$$$
=
 OpenBabel11052410293D

 35 38  0  0  1  0  0  0  0  0999 V2000
  160.4570  205.3890  150.4060 C   0  0  0  0  0  3  0  0  0  0  0  0
  161.5780  206.7580  152.0580 C   0  0  0  0  0  0  0  0  0  0  0  0
  161.5020  207.4710  149.7300 C   0  0  0  0  0  0  0  0  0  0  0  0
  160.7590  206.3170  149.3980 C   0  0  0  0  0  0  0  0  0  0  0  0
  161.8890  207.6870  151.0530 C   0  0  0  0  0  3  0  0  0  0  0  0
  160.8560  205.6100  151.7260 C   0  0  0  0  0  3  0  0  0  0  0  0
  159.7360  208.0120  154.3730 N   0  0  0  0  0  0  0  0  0  0  0  0
  161.8820  207.0510  153.5000 C   0  0  2  0  0  3  0  0  0  0  0  0
  160.6040  206.8230  154.3560 C   0  0  0  0  0  2  0  0  0  0  0  0
  162.3990  208.4270  153.6550 N   0  0  0  0  0  0  0  0  0  0  0  0
  161.8880  210.7060  153.9200 N   0  0  0  0  0  0  0  0  0  0  0  0
  160.7090  211.3490  154.1340 C   0  0  0  0  0  3  0  0  0  0  0  0
  158.3050  210.7040  154.4720 N   0  0  0  0  0  1  0  0  0  0  0  0
  159.6940  210.4200  154.3320 C   0  0  1  0  0  3  0  0  0  0  0  0
  161.5860  209.3940  153.9580 C   0  0  0  0  0  0  0  0  0  0  0  0
  160.2740  209.1860  154.2480 C   0  0  0  0  0  0  0  0  0  0  0  0
  162.4510  205.2580  147.0870 N   0  0  0  0  0  2  0  0  0  0  0  0
  163.2100  204.6360  146.0140 C   0  0  0  0  0  1  0  0  0  0  0  0
  160.3160  206.1170  148.0480 N   0  0  0  0  0  2  0  0  0  0  0  0
  161.0850  205.6480  146.9310 C   0  0  0  0  0  0  0  0  0  0  0  0
  160.5250  205.5430  145.8070 O   0  0  0  0  0  0  0  0  0  0  0  0
  161.8710  208.5150  148.7150 C   0  0  2  0  0  3  0  0  0  0  0  0
  163.0830  208.1930  148.0950 O   0  0  0  0  0  1  0  0  0  0  0  0
  161.9550  209.8650  149.3520 C   0  0  0  0  0  3  0  0  0  0  0  0
  162.1710  210.9180  148.6460 N   0  0  0  0  0  0  0  0  0  0  0  0
  162.2480  212.2190  149.2730 C   0  0  0  0  0  2  0  0  0  0  0  0
  162.1240  214.3570  148.1680 O   0  0  0  0  0  0  0  0  0  0  0  0
  160.1810  213.0620  148.0920 N   0  0  0  0  0  2  0  0  0  0  0  0
  161.5430  213.2770  148.4730 C   0  0  0  0  0  0  0  0  0  0  0  0
  157.2390  212.6080  146.0090 C   0  0  0  0  0  2  0  0  0  0  0  0
  159.4180  213.8380  145.8810 C   0  0  0  0  0  2  0  0  0  0  0  0
  157.2170  212.7850  147.5240 C   0  0  0  0  0  2  0  0  0  0  0  0
  158.6790  212.5540  145.5060 C   0  0  0  0  0  2  0  0  0  0  0  0
  157.9500  214.0710  147.9150 C   0  0  0  0  0  2  0  0  0  0  0  0
  159.3910  214.0750  147.3970 C   0  0  0  0  0  3  0  0  0  0  0  0
  1  6  1  0  0  0  0
  3  5  2  0  0  0  0
  4  3  1  0  0  0  0
  4  1  2  0  0  0  0
  5  2  1  0  0  0  0
  6  2  2  0  0  0  0
  8  2  1  6  0  0  0
  8 10  1  0  0  0  0
  8  9  1  0  0  0  0
  9  7  1  0  0  0  0
 10 15  2  0  0  0  0
 11 15  1  0  0  0  0
 11 12  2  0  0  0  0
 12 14  1  0  0  0  0
 14 13  1  6  0  0  0
 15 16  1  0  0  0  0
 16 14  1  0  0  0  0
 16  7  2  0  0  0  0
 18 17  1  0  0  0  0
 19  4  1  0  0  0  0
 20 17  1  0  0  0  0
 20 19  1  0  0  0  0
 21 20  2  0  0  0  0
 22 23  1  1  0  0  0
 22 24  1  0  0  0  0
 22  3  1  0  0  0  0
 25 26  1  0  0  0  0
 25 24  2  0  0  0  0
 27 29  2  0  0  0  0
 28 29  1  0  0  0  0
 29 26  1  0  0  0  0
 30 32  1  0  0  0  0
 31 35  1  0  0  0  0
 32 34  1  0  0  0  0
 33 31  1  0  0  0  0
 33 30  1  0  0  0  0
 35 34  1  0  0  0  0
 35 28  1  0  0  0  0
M  END
>  <MODEL>
8

>  <REMARK>
 VINA RESULT:      -6.3      1.762      2.451
  Name = 
  7 active torsions:
  status: ('A' for Active; 'I' for Inactive)
    1  A    between atoms: C_1  and  N_11
    2  A    between atoms: C_1  and  C_23
    3  A    between atoms: C_4  and  C_8
    4  A    between atoms: C_4  and  C_9
    5  A    between atoms: C_6  and  C_10
    6  A    between atoms: N_19  and  C_29
    7  A    between atoms: N_21  and  C_30
                            x       y       z     vdW  Elec       q    Type
                         _______ _______ _______ _____ _____    ______ ____

>  <TORSDO>
F 7

$$$$
=
 OpenBabel11052410293D

 35 38  0  0  1  0  0  0  0  0999 V2000
  161.4240  207.8080  148.2610 C   0  0  0  0  0  3  0  0  0  0  0  0
  161.9560  209.6450  149.7450 C   0  0  0  0  0  0  0  0  0  0  0  0
  161.7020  207.3920  150.6340 C   0  0  0  0  0  0  0  0  0  0  0  0
  161.4430  206.9050  149.3340 C   0  0  0  0  0  0  0  0  0  0  0  0
  161.9710  208.7480  150.8240 C   0  0  0  0  0  3  0  0  0  0  0  0
  161.6860  209.1650  148.4620 C   0  0  0  0  0  3  0  0  0  0  0  0
  160.2420  212.3580  149.5810 N   0  0  0  0  0  0  0  0  0  0  0  0
  162.3700  211.0780  149.9280 C   0  0  2  0  0  3  0  0  0  0  0  0
  161.2060  211.8760  150.5820 C   0  0  0  0  0  2  0  0  0  0  0  0
  162.7750  211.6730  148.6360 N   0  0  0  0  0  0  0  0  0  0  0  0
  162.0900  212.7480  146.6620 N   0  0  0  0  0  0  0  0  0  0  0  0
  160.8840  213.2440  146.2730 C   0  0  0  0  0  3  0  0  0  0  0  0
  158.5920  213.4770  147.2720 N   0  0  0  0  0  1  0  0  0  0  0  0
  159.9800  213.1640  147.3260 C   0  0  1  0  0  3  0  0  0  0  0  0
  161.9120  212.3430  147.9330 C   0  0  0  0  0  0  0  0  0  0  0  0
  160.6570  212.6200  148.3800 C   0  0  0  0  0  0  0  0  0  0  0  0
  162.2310  205.2980  146.8590 N   0  0  0  0  0  2  0  0  0  0  0  0
  162.7140  204.5020  145.7440 C   0  0  0  0  0  1  0  0  0  0  0  0
  161.2160  205.5030  149.1280 N   0  0  0  0  0  2  0  0  0  0  0  0
  161.5460  204.7190  147.9730 C   0  0  0  0  0  0  0  0  0  0  0  0
  161.2600  203.4920  147.9670 O   0  0  0  0  0  0  0  0  0  0  0  0
  161.7400  206.4970  151.8410 C   0  0  2  0  0  3  0  0  0  0  0  0
  161.1940  205.2440  151.5410 O   0  0  0  0  0  1  0  0  0  0  0  0
  161.0090  207.1220  152.9850 C   0  0  0  0  0  3  0  0  0  0  0  0
  161.1900  206.7100  154.1900 N   0  0  0  0  0  0  0  0  0  0  0  0
  160.4790  207.3240  155.2900 C   0  0  0  0  0  2  0  0  0  0  0  0
  161.8890  209.2450  155.6430 O   0  0  0  0  0  0  0  0  0  0  0  0
  159.6430  209.7050  155.1940 N   0  0  0  0  0  2  0  0  0  0  0  0
  160.7370  208.8010  155.3770 C   0  0  0  0  0  0  0  0  0  0  0  0
  157.4560  212.3450  153.9890 C   0  0  0  0  0  2  0  0  0  0  0  0
  159.9100  211.8380  153.9890 C   0  0  0  0  0  2  0  0  0  0  0  0
  157.2970  211.6190  155.3210 C   0  0  0  0  0  2  0  0  0  0  0  0
  158.6080  211.7380  153.1930 C   0  0  0  0  0  2  0  0  0  0  0  0
  158.5920  211.7150  156.1310 C   0  0  0  0  0  2  0  0  0  0  0  0
  159.7840  211.1510  155.3540 C   0  0  0  0  0  3  0  0  0  0  0  0
  1  6  2  0  0  0  0
  1  4  1  0  0  0  0
  2  5  2  0  0  0  0
  3  5  1  0  0  0  0
  3 22  1  0  0  0  0
  4  3  2  0  0  0  0
  6  2  1  0  0  0  0
  7  9  1  0  0  0  0
  8  2  1  6  0  0  0
  8  9  1  0  0  0  0
 10  8  1  0  0  0  0
 11 15  1  0  0  0  0
 12 11  2  0  0  0  0
 12 14  1  0  0  0  0
 14 13  1  6  0  0  0
 14 16  1  0  0  0  0
 15 16  1  0  0  0  0
 15 10  2  0  0  0  0
 16  7  2  0  0  0  0
 17 20  1  0  0  0  0
 18 17  1  0  0  0  0
 19  4  1  0  0  0  0
 20 19  1  0  0  0  0
 21 20  2  0  0  0  0
 22 23  1  6  0  0  0
 22 24  1  0  0  0  0
 24 25  2  0  0  0  0
 25 26  1  0  0  0  0
 26 29  1  0  0  0  0
 28 35  1  0  0  0  0
 28 29  1  0  0  0  0
 29 27  2  0  0  0  0
 30 32  1  0  0  0  0
 31 35  1  0  0  0  0
 32 34  1  0  0  0  0
 33 30  1  0  0  0  0
 33 31  1  0  0  0  0
 35 34  1  0  0  0  0
M  END
>  <MODEL>
9

>  <REMARK>
 VINA RESULT:      -6.2      2.606      6.417
  Name = 
  7 active torsions:
  status: ('A' for Active; 'I' for Inactive)
    1  A    between atoms: C_1  and  N_11
    2  A    between atoms: C_1  and  C_23
    3  A    between atoms: C_4  and  C_8
    4  A    between atoms: C_4  and  C_9
    5  A    between atoms: C_6  and  C_10
    6  A    between atoms: N_19  and  C_29
    7  A    between atoms: N_21  and  C_30
                            x       y       z     vdW  Elec       q    Type
                         _______ _______ _______ _____ _____    ______ ____

>  <TORSDO>
F 7

$$$$
