=
 OpenBabel11052410053D

 33 36  0  0  1  0  0  0  0  0999 V2000
  161.5500  207.8590  150.2940 C   0  0  0  0  0  0  0  0  0  0  0  0
  161.2060  205.6830  151.5340 C   0  0  1  0  0  3  0  0  0  0  0  0
  160.4120  203.4890  151.0210 C   0  0  1  0  0  3  0  0  0  0  0  0
  161.2530  207.5540  148.9280 N   0  0  0  0  0  2  0  0  0  0  0  0
  160.8830  206.2700  148.4170 C   0  0  0  0  0  0  0  0  0  0  0  0
  162.3850  208.7720  150.5360 O   0  0  0  0  0  0  0  0  0  0  0  0
  161.2570  205.0070  149.1200 C   0  0  0  0  0  2  0  0  0  0  0  0
  160.8280  207.1670  151.4320 C   0  0  1  0  0  3  0  0  0  0  0  0
  160.6790  205.0120  152.7920 C   0  0  0  0  0  2  0  0  0  0  0  0
  160.2940  206.1960  147.3070 O   0  0  0  0  0  0  0  0  0  0  0  0
  160.3730  203.6180  152.4770 N   0  0  0  0  0  2  0  0  0  0  0  0
  160.5270  204.8980  150.4480 C   0  0  2  0  0  3  0  0  0  0  0  0
  159.6470  211.9230  156.5600 C   0  0  0  0  0  1  0  0  0  0  0  0
  160.9640  207.9110  152.7350 C   0  0  0  0  0  0  0  0  0  0  0  0
  160.6560  209.2830  152.7720 C   0  0  0  0  0  3  0  0  0  0  0  0
  160.7910  209.9590  153.9830 C   0  0  0  0  0  0  0  0  0  0  0  0
  160.8730  211.4940  155.7790 C   0  0  2  0  0  3  0  0  0  0  0  0
  161.4020  207.2560  153.9100 C   0  0  0  0  0  3  0  0  0  0  0  0
  161.5290  207.9640  155.1160 C   0  0  0  0  0  3  0  0  0  0  0  0
  160.5240  211.3890  154.2770 C   0  0  0  0  0  2  0  0  0  0  0  0
  161.2110  209.3200  155.1120 C   0  0  0  0  0  0  0  0  0  0  0  0
  161.2670  210.1830  156.1830 O   0  0  0  0  0  0  0  0  0  0  0  0
  161.5420  202.5410  150.5980 C   0  0  1  0  0  3  0  0  0  0  0  0
  162.3520  202.2070  151.6880 O   0  0  0  0  0  1  0  0  0  0  0  0
  160.9690  201.2820  149.9650 C   0  0  0  0  0  2  0  0  0  0  0  0
  160.3110  201.5860  148.6260 C   0  0  0  0  0  2  0  0  0  0  0  0
  161.5020  199.9340  147.2640 N   0  0  0  0  0  1  0  0  0  0  0  0
  161.2780  201.3560  147.4710 C   0  0  1  0  0  3  0  0  0  0  0  0
  160.7550  201.9960  146.1910 C   0  0  0  0  0  2  0  0  0  0  0  0
  159.9710  203.9620  144.2930 O   0  0  0  0  0  0  0  0  0  0  0  0
  161.0760  204.1230  144.8750 C   0  0  0  0  0  0  0  0  0  0  0  0
  161.8560  205.2310  144.5760 O   0  0  0  0  0  1  0  0  0  0  0  0
  161.5330  203.1760  145.8400 N   0  0  0  0  0  2  0  0  0  0  0  0
  1  6  2  0  0  0  0
  1  8  1  0  0  0  0
  2  9  1  1  0  0  0
  3 23  1  1  0  0  0
  3 11  1  0  0  0  0
  4  1  1  0  0  0  0
  5  4  1  0  0  0  0
  5  7  1  0  0  0  0
  8  2  1  0  0  0  0
  8 14  1  1  0  0  0
 10  5  2  0  0  0  0
 11  9  1  0  0  0  0
 12  7  1  6  0  0  0
 12  3  1  0  0  0  0
 12  2  1  0  0  0  0
 14 15  2  0  0  0  0
 14 18  1  0  0  0  0
 15 16  1  0  0  0  0
 16 20  1  0  0  0  0
 16 21  2  0  0  0  0
 17 22  1  0  0  0  0
 17 13  1  1  0  0  0
 18 19  2  0  0  0  0
 20 17  1  0  0  0  0
 21 19  1  0  0  0  0
 21 22  1  0  0  0  0
 23 24  1  1  0  0  0
 25 23  1  0  0  0  0
 26 25  1  0  0  0  0
 28 27  1  6  0  0  0
 28 26  1  0  0  0  0
 29 28  1  0  0  0  0
 30 31  2  0  0  0  0
 31 33  1  0  0  0  0
 32 31  1  0  0  0  0
 33 29  1  0  0  0  0
M  END
>  <MODEL>
1

>  <REMARK>
 VINA RESULT:      -8.9      0.000      0.000
  Name = 
  7 active torsions:
  status: ('A' for Active; 'I' for Inactive)
    1  A    between atoms: C_3  and  C_19
    2  A    between atoms: C_5  and  C_8
    3  A    between atoms: C_5  and  C_21
    4  A    between atoms: C_16  and  N_26
    5  A    between atoms: C_16  and  C_33
    6  A    between atoms: C_21  and  C_30
    7  A    between atoms: C_30  and  C_33
                            x       y       z     vdW  Elec       q    Type
                         _______ _______ _______ _____ _____    ______ ____

>  <TORSDO>
F 7

$$$$
=
 OpenBabel11052410053D

 33 36  0  0  1  0  0  0  0  0999 V2000
  161.2240  207.5180  149.8990 C   0  0  0  0  0  0  0  0  0  0  0  0
  160.9090  207.3010  152.3980 C   0  0  1  0  0  3  0  0  0  0  0  0
  161.3500  208.6280  154.3340 C   0  0  1  0  0  3  0  0  0  0  0  0
  161.7050  208.8510  149.7040 N   0  0  0  0  0  2  0  0  0  0  0  0
  161.9110  209.8270  150.7310 C   0  0  0  0  0  0  0  0  0  0  0  0
  160.5490  206.9840  148.9770 O   0  0  0  0  0  0  0  0  0  0  0  0
  161.1790  209.7670  152.0300 C   0  0  0  0  0  2  0  0  0  0  0  0
  161.5760  206.7260  151.1410 C   0  0  1  0  0  3  0  0  0  0  0  0
  161.0540  206.4080  153.6190 C   0  0  0  0  0  2  0  0  0  0  0  0
  162.6700  210.8050  150.5070 O   0  0  0  0  0  0  0  0  0  0  0  0
  161.1420  207.2600  154.8040 N   0  0  0  0  0  2  0  0  0  0  0  0
  161.6150  208.5530  152.8340 C   0  0  2  0  0  3  0  0  0  0  0  0
  161.6190  200.2660  148.2100 C   0  0  0  0  0  1  0  0  0  0  0  0
  161.3460  205.2470  150.9630 C   0  0  0  0  0  0  0  0  0  0  0  0
  161.1530  204.7390  149.6660 C   0  0  0  0  0  3  0  0  0  0  0  0
  160.9360  203.3690  149.5170 C   0  0  0  0  0  0  0  0  0  0  0  0
  160.5370  201.1570  148.7900 C   0  0  2  0  0  3  0  0  0  0  0  0
  161.3130  204.3720  152.0750 C   0  0  0  0  0  3  0  0  0  0  0  0
  161.0920  202.9980  151.8940 C   0  0  0  0  0  3  0  0  0  0  0  0
  160.7160  202.6000  148.2680 C   0  0  0  0  0  2  0  0  0  0  0  0
  160.9080  202.5320  150.5930 C   0  0  0  0  0  0  0  0  0  0  0  0
  160.6830  201.2310  150.2080 O   0  0  0  0  0  0  0  0  0  0  0  0
  160.1570  209.5140  154.7210 C   0  0  1  0  0  3  0  0  0  0  0  0
  159.4230  208.9400  155.7640 O   0  0  0  0  0  1  0  0  0  0  0  0
  160.6350  210.9030  155.1180 C   0  0  0  0  0  2  0  0  0  0  0  0
  159.4720  211.8790  155.2250 C   0  0  0  0  0  2  0  0  0  0  0  0
  157.2030  211.6530  154.3270 N   0  0  0  0  0  1  0  0  0  0  0  0
  158.6020  211.8410  153.9740 C   0  0  1  0  0  3  0  0  0  0  0  0
  158.7690  213.1170  153.1590 C   0  0  0  0  0  2  0  0  0  0  0  0
  158.4670  213.9750  150.4650 O   0  0  0  0  0  1  0  0  0  0  0  0
  159.5420  213.3970  150.7750 C   0  0  0  0  0  0  0  0  0  0  0  0
  160.5220  213.2030  149.8110 O   0  0  0  0  0  0  0  0  0  0  0  0
  159.7630  212.9410  152.1090 N   0  0  0  0  0  2  0  0  0  0  0  0
  1  8  1  0  0  0  0
  2 12  1  0  0  0  0
  2  9  1  1  0  0  0
  3 23  1  6  0  0  0
  3 11  1  0  0  0  0
  4  1  1  0  0  0  0
  4  5  1  0  0  0  0
  5  7  1  0  0  0  0
  6  1  2  0  0  0  0
  8 14  1  6  0  0  0
  8  2  1  0  0  0  0
  9 11  1  0  0  0  0
 10  5  2  0  0  0  0
 12  7  1  6  0  0  0
 12  3  1  0  0  0  0
 14 18  1  0  0  0  0
 15 14  2  0  0  0  0
 16 15  1  0  0  0  0
 16 21  2  0  0  0  0
 17 13  1  6  0  0  0
 17 22  1  0  0  0  0
 19 18  2  0  0  0  0
 20 17  1  0  0  0  0
 20 16  1  0  0  0  0
 21 19  1  0  0  0  0
 22 21  1  0  0  0  0
 23 25  1  0  0  0  0
 23 24  1  1  0  0  0
 25 26  1  0  0  0  0
 28 27  1  1  0  0  0
 28 26  1  0  0  0  0
 29 28  1  0  0  0  0
 30 31  1  0  0  0  0
 31 33  1  0  0  0  0
 32 31  2  0  0  0  0
 33 29  1  0  0  0  0
M  END
>  <MODEL>
2

>  <REMARK>
 VINA RESULT:      -8.3      2.864      8.598
  Name = 
  7 active torsions:
  status: ('A' for Active; 'I' for Inactive)
    1  A    between atoms: C_3  and  C_19
    2  A    between atoms: C_5  and  C_8
    3  A    between atoms: C_5  and  C_21
    4  A    between atoms: C_16  and  N_26
    5  A    between atoms: C_16  and  C_33
    6  A    between atoms: C_21  and  C_30
    7  A    between atoms: C_30  and  C_33
                            x       y       z     vdW  Elec       q    Type
                         _______ _______ _______ _____ _____    ______ ____

>  <TORSDO>
F 7

$$$$
=
 OpenBabel11052410053D

 33 36  0  0  1  0  0  0  0  0999 V2000
  161.2160  207.5170  149.8940 C   0  0  0  0  0  0  0  0  0  0  0  0
  160.9320  207.2900  152.3950 C   0  0  1  0  0  3  0  0  0  0  0  0
  161.4010  208.6080  154.3310 C   0  0  1  0  0  3  0  0  0  0  0  0
  161.6980  208.8490  149.6990 N   0  0  0  0  0  2  0  0  0  0  0  0
  161.9200  209.8200  150.7260 C   0  0  0  0  0  0  0  0  0  0  0  0
  160.5280  206.9880  148.9780 O   0  0  0  0  0  0  0  0  0  0  0  0
  161.2040  209.7560  152.0350 C   0  0  0  0  0  2  0  0  0  0  0  0
  161.5820  206.7180  151.1270 C   0  0  1  0  0  3  0  0  0  0  0  0
  161.0910  206.3910  153.6110 C   0  0  0  0  0  2  0  0  0  0  0  0
  162.6790  210.7970  150.4970 O   0  0  0  0  0  0  0  0  0  0  0  0
  161.1950  207.2370  154.7980 N   0  0  0  0  0  2  0  0  0  0  0  0
  161.6470  208.5380  152.8270 C   0  0  2  0  0  3  0  0  0  0  0  0
  161.6270  200.2590  148.1970 C   0  0  0  0  0  1  0  0  0  0  0  0
  161.3460  205.2410  150.9460 C   0  0  0  0  0  0  0  0  0  0  0  0
  161.1680  204.7340  149.6470 C   0  0  0  0  0  3  0  0  0  0  0  0
  160.9450  203.3660  149.4950 C   0  0  0  0  0  0  0  0  0  0  0  0
  160.5430  201.1550  148.7620 C   0  0  2  0  0  3  0  0  0  0  0  0
  161.2930  204.3660  152.0570 C   0  0  0  0  0  3  0  0  0  0  0  0
  161.0660  202.9930  151.8730 C   0  0  0  0  0  3  0  0  0  0  0  0
  160.7370  202.5980  148.2430 C   0  0  0  0  0  2  0  0  0  0  0  0
  160.8980  202.5290  150.5700 C   0  0  0  0  0  0  0  0  0  0  0  0
  160.6700  201.2280  150.1820 O   0  0  0  0  0  0  0  0  0  0  0  0
  160.2160  209.4950  154.7370 C   0  0  1  0  0  3  0  0  0  0  0  0
  159.3750  208.8290  155.6350 O   0  0  0  0  0  1  0  0  0  0  0  0
  160.7130  210.7950  155.3500 C   0  0  0  0  0  2  0  0  0  0  0  0
  160.1390  212.0040  154.6240 C   0  0  0  0  0  2  0  0  0  0  0  0
  159.3680  213.9110  155.9550 N   0  0  0  0  0  1  0  0  0  0  0  0
  158.9840  212.6210  155.4040 C   0  0  1  0  0  3  0  0  0  0  0  0
  157.7540  212.7740  154.5190 C   0  0  0  0  0  2  0  0  0  0  0  0
  155.6010  212.0920  156.2470 O   0  0  0  0  0  1  0  0  0  0  0  0
  155.9240  211.2570  155.3620 C   0  0  0  0  0  0  0  0  0  0  0  0
  155.2330  210.0570  155.2630 O   0  0  0  0  0  0  0  0  0  0  0  0
  156.9940  211.5320  154.4590 N   0  0  0  0  0  2  0  0  0  0  0  0
  1  8  1  0  0  0  0
  2 12  1  0  0  0  0
  2  9  1  1  0  0  0
  3 23  1  6  0  0  0
  3 11  1  0  0  0  0
  4  1  1  0  0  0  0
  4  5  1  0  0  0  0
  5  7  1  0  0  0  0
  6  1  2  0  0  0  0
  8 14  1  6  0  0  0
  8  2  1  0  0  0  0
  9 11  1  0  0  0  0
 10  5  2  0  0  0  0
 12  7  1  6  0  0  0
 12  3  1  0  0  0  0
 14 18  1  0  0  0  0
 15 14  2  0  0  0  0
 16 15  1  0  0  0  0
 16 21  2  0  0  0  0
 17 13  1  6  0  0  0
 17 22  1  0  0  0  0
 19 18  2  0  0  0  0
 20 17  1  0  0  0  0
 20 16  1  0  0  0  0
 21 19  1  0  0  0  0
 22 21  1  0  0  0  0
 23 25  1  0  0  0  0
 23 24  1  1  0  0  0
 26 25  1  0  0  0  0
 26 28  1  0  0  0  0
 28 27  1  6  0  0  0
 29 28  1  0  0  0  0
 31 30  1  0  0  0  0
 32 31  2  0  0  0  0
 33 29  1  0  0  0  0
 33 31  1  0  0  0  0
M  END
>  <MODEL>
3

>  <REMARK>
 VINA RESULT:      -8.2      3.117      9.253
  Name = 
  7 active torsions:
  status: ('A' for Active; 'I' for Inactive)
    1  A    between atoms: C_3  and  C_19
    2  A    between atoms: C_5  and  C_8
    3  A    between atoms: C_5  and  C_21
    4  A    between atoms: C_16  and  N_26
    5  A    between atoms: C_16  and  C_33
    6  A    between atoms: C_21  and  C_30
    7  A    between atoms: C_30  and  C_33
                            x       y       z     vdW  Elec       q    Type
                         _______ _______ _______ _____ _____    ______ ____

>  <TORSDO>
F 7

$$$$
=
 OpenBabel11052410053D

 33 36  0  0  1  0  0  0  0  0999 V2000
  160.7110  206.9010  154.0430 C   0  0  0  0  0  0  0  0  0  0  0  0
  161.3640  208.5020  152.2000 C   0  0  1  0  0  3  0  0  0  0  0  0
  162.4910  208.3770  150.0970 C   0  0  1  0  0  3  0  0  0  0  0  0
  161.0710  205.6070  153.5500 N   0  0  0  0  0  2  0  0  0  0  0  0
  161.6410  205.3260  152.2670 C   0  0  0  0  0  0  0  0  0  0  0  0
  159.7430  206.9870  154.8470 O   0  0  0  0  0  0  0  0  0  0  0  0
  161.4530  206.2470  151.1070 C   0  0  0  0  0  2  0  0  0  0  0  0
  161.5130  208.1340  153.6820 C   0  0  1  0  0  3  0  0  0  0  0  0
  161.9680  209.8530  151.8510 C   0  0  0  0  0  2  0  0  0  0  0  0
  162.2500  204.2410  152.0890 O   0  0  0  0  0  0  0  0  0  0  0  0
  162.4880  209.7860  150.4870 N   0  0  0  0  0  2  0  0  0  0  0  0
  162.1710  207.5640  151.3480 C   0  0  2  0  0  3  0  0  0  0  0  0
  158.0060  213.1550  157.2600 C   0  0  0  0  0  1  0  0  0  0  0  0
  161.2460  209.2860  154.6160 C   0  0  0  0  0  0  0  0  0  0  0  0
  160.2000  210.1760  154.3180 C   0  0  0  0  0  3  0  0  0  0  0  0
  159.9680  211.2410  155.1890 C   0  0  0  0  0  0  0  0  0  0  0  0
  159.2180  213.1570  156.3500 C   0  0  2  0  0  3  0  0  0  0  0  0
  162.0330  209.4860  155.7760 C   0  0  0  0  0  3  0  0  0  0  0  0
  161.7760  210.5670  156.6340 C   0  0  0  0  0  3  0  0  0  0  0  0
  158.9320  212.2990  155.0980 C   0  0  0  0  0  2  0  0  0  0  0  0
  160.7290  211.4250  156.3050 C   0  0  0  0  0  0  0  0  0  0  0  0
  160.3180  212.5320  157.0120 O   0  0  0  0  0  0  0  0  0  0  0  0
  161.5250  208.1420  148.9280 C   0  0  1  0  0  3  0  0  0  0  0  0
  161.3590  209.3080  148.1730 O   0  0  0  0  0  1  0  0  0  0  0  0
  162.0280  207.0120  148.0430 C   0  0  0  0  0  2  0  0  0  0  0  0
  160.8730  206.2400  147.4210 C   0  0  0  0  0  2  0  0  0  0  0  0
  162.3360  205.7380  145.5200 N   0  0  0  0  0  1  0  0  0  0  0  0
  161.3770  205.1730  146.4570 C   0  0  1  0  0  3  0  0  0  0  0  0
  162.0080  204.0120  147.2150 C   0  0  0  0  0  2  0  0  0  0  0  0
  161.1710  201.3950  147.9460 O   0  0  0  0  0  0  0  0  0  0  0  0
  160.8490  202.3440  148.7090 C   0  0  0  0  0  0  0  0  0  0  0  0
  160.1120  202.0840  149.8560 O   0  0  0  0  0  1  0  0  0  0  0  0
  161.2360  203.6830  148.4050 N   0  0  0  0  0  2  0  0  0  0  0  0
  1  6  2  0  0  0  0
  2  9  1  1  0  0  0
  2  8  1  0  0  0  0
  3 23  1  6  0  0  0
  3 11  1  0  0  0  0
  3 12  1  0  0  0  0
  4  1  1  0  0  0  0
  5  4  1  0  0  0  0
  7  5  1  0  0  0  0
  8  1  1  0  0  0  0
  8 14  1  1  0  0  0
 10  5  2  0  0  0  0
 11  9  1  0  0  0  0
 12  7  1  6  0  0  0
 12  2  1  0  0  0  0
 14 18  1  0  0  0  0
 15 14  2  0  0  0  0
 15 16  1  0  0  0  0
 16 21  2  0  0  0  0
 17 22  1  0  0  0  0
 17 13  1  1  0  0  0
 18 19  2  0  0  0  0
 20 16  1  0  0  0  0
 20 17  1  0  0  0  0
 21 19  1  0  0  0  0
 21 22  1  0  0  0  0
 23 24  1  6  0  0  0
 25 23  1  0  0  0  0
 26 25  1  0  0  0  0
 28 27  1  6  0  0  0
 28 29  1  0  0  0  0
 28 26  1  0  0  0  0
 29 33  1  0  0  0  0
 30 31  2  0  0  0  0
 31 32  1  0  0  0  0
 33 31  1  0  0  0  0
M  END
>  <MODEL>
4

>  <REMARK>
 VINA RESULT:      -8.0      2.225      4.311
  Name = 
  7 active torsions:
  status: ('A' for Active; 'I' for Inactive)
    1  A    between atoms: C_3  and  C_19
    2  A    between atoms: C_5  and  C_8
    3  A    between atoms: C_5  and  C_21
    4  A    between atoms: C_16  and  N_26
    5  A    between atoms: C_16  and  C_33
    6  A    between atoms: C_21  and  C_30
    7  A    between atoms: C_30  and  C_33
                            x       y       z     vdW  Elec       q    Type
                         _______ _______ _______ _____ _____    ______ ____

>  <TORSDO>
F 7

$$$$
=
 OpenBabel11052410053D

 33 36  0  0  1  0  0  0  0  0999 V2000
  161.0820  206.9560  149.3920 C   0  0  0  0  0  0  0  0  0  0  0  0
  160.9750  206.3350  151.8400 C   0  0  1  0  0  3  0  0  0  0  0  0
  161.6150  207.3200  153.9200 C   0  0  1  0  0  3  0  0  0  0  0  0
  161.5810  208.2970  149.3750 N   0  0  0  0  0  2  0  0  0  0  0  0
  161.9000  209.0880  150.5240 C   0  0  0  0  0  0  0  0  0  0  0  0
  160.3160  206.5900  148.4590 O   0  0  0  0  0  0  0  0  0  0  0  0
  161.2800  208.8240  151.8560 C   0  0  0  0  0  2  0  0  0  0  0  0
  161.5170  205.9650  150.4520 C   0  0  1  0  0  3  0  0  0  0  0  0
  161.2000  205.2510  152.8820 C   0  0  0  0  0  2  0  0  0  0  0  0
  162.6640  210.0790  150.3960 O   0  0  0  0  0  0  0  0  0  0  0  0
  161.4110  205.8950  154.1770 N   0  0  0  0  0  2  0  0  0  0  0  0
  161.7500  207.4890  152.4100 C   0  0  2  0  0  3  0  0  0  0  0  0
  161.6280  199.9100  146.7590 C   0  0  0  0  0  1  0  0  0  0  0  0
  161.2320  204.5400  150.0570 C   0  0  0  0  0  0  0  0  0  0  0  0
  161.2060  204.2030  148.6920 C   0  0  0  0  0  3  0  0  0  0  0  0
  160.9360  202.8810  148.3410 C   0  0  0  0  0  0  0  0  0  0  0  0
  160.5250  200.8050  147.2890 C   0  0  2  0  0  3  0  0  0  0  0  0
  160.9840  203.5450  151.0330 C   0  0  0  0  0  3  0  0  0  0  0  0
  160.7150  202.2210  150.6490 C   0  0  0  0  0  3  0  0  0  0  0  0
  160.8610  202.2820  146.9860 C   0  0  0  0  0  2  0  0  0  0  0  0
  160.7010  201.9270  149.2870 C   0  0  0  0  0  0  0  0  0  0  0  0
  160.4610  200.7000  148.7120 O   0  0  0  0  0  0  0  0  0  0  0  0
  160.4850  208.1450  154.5500 C   0  0  1  0  0  3  0  0  0  0  0  0
  159.7350  207.3710  155.4410 O   0  0  0  0  0  1  0  0  0  0  0  0
  161.0520  209.3630  155.2620 C   0  0  0  0  0  2  0  0  0  0  0  0
  160.3060  209.6430  156.5590 C   0  0  0  0  0  2  0  0  0  0  0  0
  160.4570  212.0280  156.0180 N   0  0  0  0  0  1  0  0  0  0  0  0
  159.5730  210.9780  156.4990 C   0  0  1  0  0  3  0  0  0  0  0  0
  158.3420  210.8790  155.6060 C   0  0  0  0  0  2  0  0  0  0  0  0
  158.6200  211.0830  152.7840 O   0  0  0  0  0  1  0  0  0  0  0  0
  158.3140  212.1280  153.4160 C   0  0  0  0  0  0  0  0  0  0  0  0
  158.1270  213.3190  152.7270 O   0  0  0  0  0  0  0  0  0  0  0  0
  158.1570  212.1000  154.8340 N   0  0  0  0  0  2  0  0  0  0  0  0
  1  8  1  0  0  0  0
  2 12  1  0  0  0  0
  2  9  1  1  0  0  0
  3 11  1  0  0  0  0
  3 23  1  6  0  0  0
  4  1  1  0  0  0  0
  4  5  1  0  0  0  0
  5  7  1  0  0  0  0
  6  1  2  0  0  0  0
  8 14  1  6  0  0  0
  8  2  1  0  0  0  0
  9 11  1  0  0  0  0
 10  5  2  0  0  0  0
 12  7  1  6  0  0  0
 12  3  1  0  0  0  0
 14 18  1  0  0  0  0
 15 14  2  0  0  0  0
 16 15  1  0  0  0  0
 16 21  2  0  0  0  0
 17 13  1  1  0  0  0
 17 22  1  0  0  0  0
 19 18  2  0  0  0  0
 20 17  1  0  0  0  0
 20 16  1  0  0  0  0
 21 19  1  0  0  0  0
 22 21  1  0  0  0  0
 23 25  1  0  0  0  0
 23 24  1  1  0  0  0
 25 26  1  0  0  0  0
 28 27  1  6  0  0  0
 28 26  1  0  0  0  0
 29 28  1  0  0  0  0
 30 31  1  0  0  0  0
 31 33  1  0  0  0  0
 32 31  2  0  0  0  0
 33 29  1  0  0  0  0
M  END
>  <MODEL>
5

>  <REMARK>
 VINA RESULT:      -7.7      2.801      8.929
  Name = 
  7 active torsions:
  status: ('A' for Active; 'I' for Inactive)
    1  A    between atoms: C_3  and  C_19
    2  A    between atoms: C_5  and  C_8
    3  A    between atoms: C_5  and  C_21
    4  A    between atoms: C_16  and  N_26
    5  A    between atoms: C_16  and  C_33
    6  A    between atoms: C_21  and  C_30
    7  A    between atoms: C_30  and  C_33
                            x       y       z     vdW  Elec       q    Type
                         _______ _______ _______ _____ _____    ______ ____

>  <TORSDO>
F 7

$$$$
=
 OpenBabel11052410053D

 33 36  0  0  1  0  0  0  0  0999 V2000
  161.5810  204.5440  151.7900 C   0  0  0  0  0  0  0  0  0  0  0  0
  161.6600  206.8520  150.7630 C   0  0  1  0  0  3  0  0  0  0  0  0
  161.1340  209.0820  151.4390 C   0  0  1  0  0  3  0  0  0  0  0  0
  161.2030  204.7610  153.1530 N   0  0  0  0  0  2  0  0  0  0  0  0
  160.9680  206.0330  153.7660 C   0  0  0  0  0  0  0  0  0  0  0  0
  162.3010  203.5440  151.5210 O   0  0  0  0  0  0  0  0  0  0  0  0
  161.5780  207.2870  153.2310 C   0  0  0  0  0  2  0  0  0  0  0  0
  161.0720  205.4370  150.6780 C   0  0  1  0  0  3  0  0  0  0  0  0
  161.3520  207.7070  149.5450 C   0  0  0  0  0  2  0  0  0  0  0  0
  160.2940  206.0900  154.8260 O   0  0  0  0  0  0  0  0  0  0  0  0
  161.2140  209.0960  149.9790 N   0  0  0  0  0  2  0  0  0  0  0  0
  160.9970  207.6240  151.8680 C   0  0  2  0  0  3  0  0  0  0  0  0
  159.8400  201.2580  145.0810 C   0  0  0  0  0  1  0  0  0  0  0  0
  161.2250  204.8050  149.3190 C   0  0  0  0  0  0  0  0  0  0  0  0
  160.8270  203.4680  149.1400 C   0  0  0  0  0  3  0  0  0  0  0  0
  160.9790  202.8950  147.8780 C   0  0  0  0  0  0  0  0  0  0  0  0
  161.0500  201.5260  145.9530 C   0  0  2  0  0  3  0  0  0  0  0  0
  161.7670  205.5300  148.2310 C   0  0  0  0  0  3  0  0  0  0  0  0
  161.9090  204.9260  146.9710 C   0  0  0  0  0  3  0  0  0  0  0  0
  160.6310  201.5200  147.4410 C   0  0  0  0  0  2  0  0  0  0  0  0
  161.5000  203.6010  146.8340 C   0  0  0  0  0  0  0  0  0  0  0  0
  161.5530  202.8360  145.6910 O   0  0  0  0  0  0  0  0  0  0  0  0
  162.3400  209.8100  152.0480 C   0  0  1  0  0  3  0  0  0  0  0  0
  163.0060  210.5720  151.0830 O   0  0  0  0  0  1  0  0  0  0  0  0
  161.8970  210.6960  153.2020 C   0  0  0  0  0  2  0  0  0  0  0  0
  160.4360  211.1010  153.0600 C   0  0  0  0  0  2  0  0  0  0  0  0
  158.5170  211.5930  154.5010 N   0  0  0  0  0  1  0  0  0  0  0  0
  159.9390  211.8260  154.3050 C   0  0  1  0  0  3  0  0  0  0  0  0
  160.7170  211.3820  155.5370 C   0  0  0  0  0  2  0  0  0  0  0  0
  162.0080  209.0150  156.4420 O   0  0  0  0  0  0  0  0  0  0  0  0
  160.7670  209.1100  156.6310 C   0  0  0  0  0  0  0  0  0  0  0  0
  160.0850  208.0780  157.2610 O   0  0  0  0  0  1  0  0  0  0  0  0
  160.0530  210.2700  156.2030 N   0  0  0  0  0  2  0  0  0  0  0  0
  1  4  1  0  0  0  0
  2  9  1  6  0  0  0
  2 12  1  0  0  0  0
  3 12  1  0  0  0  0
  3 23  1  1  0  0  0
  4  5  1  0  0  0  0
  5 10  2  0  0  0  0
  6  1  2  0  0  0  0
  7  5  1  0  0  0  0
  8 14  1  6  0  0  0
  8  2  1  0  0  0  0
  8  1  1  0  0  0  0
  9 11  1  0  0  0  0
 11  3  1  0  0  0  0
 12  7  1  1  0  0  0
 15 14  1  0  0  0  0
 16 15  2  0  0  0  0
 17 13  1  6  0  0  0
 17 20  1  0  0  0  0
 18 14  2  0  0  0  0
 19 18  1  0  0  0  0
 20 16  1  0  0  0  0
 21 19  2  0  0  0  0
 21 16  1  0  0  0  0
 22 17  1  0  0  0  0
 22 21  1  0  0  0  0
 23 24  1  6  0  0  0
 23 25  1  0  0  0  0
 26 25  1  0  0  0  0
 26 28  1  0  0  0  0
 28 27  1  1  0  0  0
 28 29  1  0  0  0  0
 29 33  1  0  0  0  0
 30 31  2  0  0  0  0
 31 32  1  0  0  0  0
 33 31  1  0  0  0  0
M  END
>  <MODEL>
6

>  <REMARK>
 VINA RESULT:      -7.6      2.443      9.431
  Name = 
  7 active torsions:
  status: ('A' for Active; 'I' for Inactive)
    1  A    between atoms: C_3  and  C_19
    2  A    between atoms: C_5  and  C_8
    3  A    between atoms: C_5  and  C_21
    4  A    between atoms: C_16  and  N_26
    5  A    between atoms: C_16  and  C_33
    6  A    between atoms: C_21  and  C_30
    7  A    between atoms: C_30  and  C_33
                            x       y       z     vdW  Elec       q    Type
                         _______ _______ _______ _____ _____    ______ ____

>  <TORSDO>
F 7

$$$$
=
 OpenBabel11052410053D

 33 36  0  0  1  0  0  0  0  0999 V2000
  161.4560  204.6570  151.9050 C   0  0  0  0  0  0  0  0  0  0  0  0
  161.6430  206.9810  150.9290 C   0  0  1  0  0  3  0  0  0  0  0  0
  161.1700  209.2130  151.6350 C   0  0  1  0  0  3  0  0  0  0  0  0
  161.0430  204.8600  153.2590 N   0  0  0  0  0  2  0  0  0  0  0  0
  160.8320  206.1270  153.8910 C   0  0  0  0  0  0  0  0  0  0  0  0
  162.1500  203.6390  151.6360 O   0  0  0  0  0  0  0  0  0  0  0  0
  161.4990  207.3690  153.4020 C   0  0  0  0  0  2  0  0  0  0  0  0
  161.0110  205.5890  150.7960 C   0  0  1  0  0  3  0  0  0  0  0  0
  161.4010  207.8700  149.7190 C   0  0  0  0  0  2  0  0  0  0  0  0
  160.1280  206.1850  154.9320 O   0  0  0  0  0  0  0  0  0  0  0  0
  161.2950  209.2540  150.1780 N   0  0  0  0  0  2  0  0  0  0  0  0
  160.9720  207.7530  152.0290 C   0  0  2  0  0  3  0  0  0  0  0  0
  159.9450  201.4100  145.1640 C   0  0  0  0  0  1  0  0  0  0  0  0
  161.1850  204.9780  149.4300 C   0  0  0  0  0  0  0  0  0  0  0  0
  160.8520  203.6260  149.2400 C   0  0  0  0  0  3  0  0  0  0  0  0
  161.0230  203.0730  147.9710 C   0  0  0  0  0  0  0  0  0  0  0  0
  161.1470  201.7290  146.0310 C   0  0  2  0  0  3  0  0  0  0  0  0
  161.6820  205.7410  148.3450 C   0  0  0  0  0  3  0  0  0  0  0  0
  161.8430  205.1570  147.0790 C   0  0  0  0  0  3  0  0  0  0  0  0
  160.7400  201.6880  147.5210 C   0  0  0  0  0  2  0  0  0  0  0  0
  161.5000  203.8150  146.9310 C   0  0  0  0  0  0  0  0  0  0  0  0
  161.5820  203.0660  145.7790 O   0  0  0  0  0  0  0  0  0  0  0  0
  162.3800  209.8880  152.2950 C   0  0  1  0  0  3  0  0  0  0  0  0
  163.0600  210.7020  151.3830 O   0  0  0  0  0  1  0  0  0  0  0  0
  161.9390  210.7050  153.5000 C   0  0  0  0  0  2  0  0  0  0  0  0
  160.4930  211.1610  153.3600 C   0  0  0  0  0  2  0  0  0  0  0  0
  160.7480  211.7470  155.7260 N   0  0  0  0  0  1  0  0  0  0  0  0
  159.8130  211.2670  154.7200 C   0  0  1  0  0  3  0  0  0  0  0  0
  158.6010  212.1860  154.6500 C   0  0  0  0  0  2  0  0  0  0  0  0
  156.4590  211.4590  156.3730 O   0  0  0  0  0  1  0  0  0  0  0  0
  156.3740  211.1200  155.1630 C   0  0  0  0  0  0  0  0  0  0  0  0
  155.2600  210.4190  154.7220 O   0  0  0  0  0  0  0  0  0  0  0  0
  157.4110  211.4520  154.2410 N   0  0  0  0  0  2  0  0  0  0  0  0
  1  4  1  0  0  0  0
  2  9  1  6  0  0  0
  2 12  1  0  0  0  0
  3 12  1  0  0  0  0
  3 23  1  1  0  0  0
  4  5  1  0  0  0  0
  5 10  2  0  0  0  0
  6  1  2  0  0  0  0
  7  5  1  0  0  0  0
  8 14  1  6  0  0  0
  8  2  1  0  0  0  0
  8  1  1  0  0  0  0
  9 11  1  0  0  0  0
 11  3  1  0  0  0  0
 12  7  1  1  0  0  0
 15 14  1  0  0  0  0
 16 15  2  0  0  0  0
 17 13  1  6  0  0  0
 17 20  1  0  0  0  0
 18 14  2  0  0  0  0
 19 18  1  0  0  0  0
 20 16  1  0  0  0  0
 21 19  2  0  0  0  0
 21 16  1  0  0  0  0
 22 17  1  0  0  0  0
 22 21  1  0  0  0  0
 23 24  1  6  0  0  0
 23 25  1  0  0  0  0
 26 25  1  0  0  0  0
 26 28  1  0  0  0  0
 28 27  1  1  0  0  0
 29 28  1  0  0  0  0
 31 30  1  0  0  0  0
 32 31  2  0  0  0  0
 33 29  1  0  0  0  0
 33 31  1  0  0  0  0
M  END
>  <MODEL>
7

>  <REMARK>
 VINA RESULT:      -7.5      2.878      9.498
  Name = 
  7 active torsions:
  status: ('A' for Active; 'I' for Inactive)
    1  A    between atoms: C_3  and  C_19
    2  A    between atoms: C_5  and  C_8
    3  A    between atoms: C_5  and  C_21
    4  A    between atoms: C_16  and  N_26
    5  A    between atoms: C_16  and  C_33
    6  A    between atoms: C_21  and  C_30
    7  A    between atoms: C_30  and  C_33
                            x       y       z     vdW  Elec       q    Type
                         _______ _______ _______ _____ _____    ______ ____

>  <TORSDO>
F 7

$$$$
=
 OpenBabel11052410053D

 33 36  0  0  1  0  0  0  0  0999 V2000
  160.6790  206.9540  153.9850 C   0  0  0  0  0  0  0  0  0  0  0  0
  161.2640  208.3750  151.9790 C   0  0  1  0  0  3  0  0  0  0  0  0
  162.3810  208.0700  149.8890 C   0  0  1  0  0  3  0  0  0  0  0  0
  161.0800  205.6280  153.6250 N   0  0  0  0  0  2  0  0  0  0  0  0
  161.6490  205.2350  152.3720 C   0  0  0  0  0  0  0  0  0  0  0  0
  159.7130  207.0910  154.7850 O   0  0  0  0  0  0  0  0  0  0  0  0
  161.4230  206.0230  151.1250 C   0  0  0  0  0  2  0  0  0  0  0  0
  161.4350  208.1690  153.4900 C   0  0  1  0  0  3  0  0  0  0  0  0
  161.8190  209.7020  151.4850 C   0  0  0  0  0  2  0  0  0  0  0  0
  162.2950  204.1580  152.3010 O   0  0  0  0  0  0  0  0  0  0  0  0
  162.3330  209.5110  150.1300 N   0  0  0  0  0  2  0  0  0  0  0  0
  162.0970  207.3820  151.2210 C   0  0  2  0  0  3  0  0  0  0  0  0
  157.7860  213.4270  156.5470 C   0  0  0  0  0  1  0  0  0  0  0  0
  161.1350  209.4020  154.3020 C   0  0  0  0  0  0  0  0  0  0  0  0
  160.0640  210.2270  153.9180 C   0  0  0  0  0  3  0  0  0  0  0  0
  159.8020  211.3680  154.6760 C   0  0  0  0  0  0  0  0  0  0  0  0
  158.9980  213.3710  155.6390 C   0  0  2  0  0  3  0  0  0  0  0  0
  161.9170  209.7420  155.4330 C   0  0  0  0  0  3  0  0  0  0  0  0
  161.6290  210.8970  156.1770 C   0  0  0  0  0  3  0  0  0  0  0  0
  158.7360  212.3810  154.4810 C   0  0  0  0  0  2  0  0  0  0  0  0
  160.5580  211.6870  155.7660 C   0  0  0  0  0  0  0  0  0  0  0  0
  160.1160  212.8480  156.3570 O   0  0  0  0  0  0  0  0  0  0  0  0
  161.4150  207.6830  148.7600 C   0  0  1  0  0  3  0  0  0  0  0  0
  161.2090  208.7570  147.8870 O   0  0  0  0  0  1  0  0  0  0  0  0
  161.9480  206.4810  147.9960 C   0  0  0  0  0  2  0  0  0  0  0  0
  160.9840  205.3050  148.0740 C   0  0  0  0  0  2  0  0  0  0  0  0
  161.5720  202.9760  148.5610 N   0  0  0  0  0  1  0  0  0  0  0  0
  161.6300  204.0250  147.5550 C   0  0  1  0  0  3  0  0  0  0  0  0
  160.9540  203.5590  146.2720 C   0  0  0  0  0  2  0  0  0  0  0  0
  160.0590  205.8870  144.9070 O   0  0  0  0  0  1  0  0  0  0  0  0
  161.0900  205.3140  144.4660 C   0  0  0  0  0  0  0  0  0  0  0  0
  161.7400  205.8270  143.3510 O   0  0  0  0  0  0  0  0  0  0  0  0
  161.5970  204.1410  145.1010 N   0  0  0  0  0  2  0  0  0  0  0  0
  1  6  2  0  0  0  0
  2  9  1  1  0  0  0
  2  8  1  0  0  0  0
  3 23  1  6  0  0  0
  3 11  1  0  0  0  0
  3 12  1  0  0  0  0
  4  1  1  0  0  0  0
  5  4  1  0  0  0  0
  7  5  1  0  0  0  0
  8  1  1  0  0  0  0
  8 14  1  1  0  0  0
 10  5  2  0  0  0  0
 11  9  1  0  0  0  0
 12  7  1  6  0  0  0
 12  2  1  0  0  0  0
 14 18  1  0  0  0  0
 15 14  2  0  0  0  0
 15 16  1  0  0  0  0
 16 21  2  0  0  0  0
 17 22  1  0  0  0  0
 17 13  1  1  0  0  0
 18 19  2  0  0  0  0
 20 16  1  0  0  0  0
 20 17  1  0  0  0  0
 21 19  1  0  0  0  0
 21 22  1  0  0  0  0
 23 24  1  6  0  0  0
 25 26  1  0  0  0  0
 25 23  1  0  0  0  0
 28 26  1  0  0  0  0
 28 27  1  1  0  0  0
 29 28  1  0  0  0  0
 31 30  1  0  0  0  0
 31 33  1  0  0  0  0
 32 31  2  0  0  0  0
 33 29  1  0  0  0  0
M  END
>  <MODEL>
8

>  <REMARK>
 VINA RESULT:      -7.3      1.954      3.765
  Name = 
  7 active torsions:
  status: ('A' for Active; 'I' for Inactive)
    1  A    between atoms: C_3  and  C_19
    2  A    between atoms: C_5  and  C_8
    3  A    between atoms: C_5  and  C_21
    4  A    between atoms: C_16  and  N_26
    5  A    between atoms: C_16  and  C_33
    6  A    between atoms: C_21  and  C_30
    7  A    between atoms: C_30  and  C_33
                            x       y       z     vdW  Elec       q    Type
                         _______ _______ _______ _____ _____    ______ ____

>  <TORSDO>
F 7

$$$$
=
 OpenBabel11052410053D

 33 36  0  0  1  0  0  0  0  0999 V2000
  161.4890  204.5780  151.9330 C   0  0  0  0  0  0  0  0  0  0  0  0
  161.5930  206.9170  150.9830 C   0  0  1  0  0  3  0  0  0  0  0  0
  161.0600  209.1260  151.7200 C   0  0  1  0  0  3  0  0  0  0  0  0
  161.0850  204.7530  153.2950 N   0  0  0  0  0  2  0  0  0  0  0  0
  160.8420  206.0050  153.9440 C   0  0  0  0  0  0  0  0  0  0  0  0
  162.2110  203.5840  151.6450 O   0  0  0  0  0  0  0  0  0  0  0  0
  161.4650  207.2730  153.4620 C   0  0  0  0  0  2  0  0  0  0  0  0
  161.0030  205.5080  150.8410 C   0  0  1  0  0  3  0  0  0  0  0  0
  161.3110  207.8120  149.7870 C   0  0  0  0  0  2  0  0  0  0  0  0
  160.1480  206.0300  154.9920 O   0  0  0  0  0  0  0  0  0  0  0  0
  161.1670  209.1860  150.2630 N   0  0  0  0  0  2  0  0  0  0  0  0
  160.9120  207.6560  152.0990 C   0  0  2  0  0  3  0  0  0  0  0  0
  159.9160  201.4550  145.1210 C   0  0  0  0  0  1  0  0  0  0  0  0
  161.1800  204.9190  149.4650 C   0  0  0  0  0  0  0  0  0  0  0  0
  160.8220  203.5770  149.2470 C   0  0  0  0  0  3  0  0  0  0  0  0
  160.9960  203.0440  147.9700 C   0  0  0  0  0  0  0  0  0  0  0  0
  161.1140  201.7330  146.0080 C   0  0  2  0  0  3  0  0  0  0  0  0
  161.7060  205.6890  148.4010 C   0  0  0  0  0  3  0  0  0  0  0  0
  161.8700  205.1260  147.1260 C   0  0  0  0  0  3  0  0  0  0  0  0
  160.6890  201.6740  147.4920 C   0  0  0  0  0  2  0  0  0  0  0  0
  161.5010  203.7940  146.9490 C   0  0  0  0  0  0  0  0  0  0  0  0
  161.5800  203.0640  145.7850 O   0  0  0  0  0  0  0  0  0  0  0  0
  162.2560  209.8300  152.3750 C   0  0  1  0  0  3  0  0  0  0  0  0
  163.0250  210.5040  151.4200 O   0  0  0  0  0  1  0  0  0  0  0  0
  161.7790  210.8000  153.4450 C   0  0  0  0  0  2  0  0  0  0  0  0
  160.3330  210.5270  153.8340 C   0  0  0  0  0  2  0  0  0  0  0  0
  159.8740  212.6350  154.9960 N   0  0  0  0  0  1  0  0  0  0  0  0
  159.5130  211.8120  153.8520 C   0  0  1  0  0  3  0  0  0  0  0  0
  159.7070  212.5960  152.5610 C   0  0  0  0  0  2  0  0  0  0  0  0
  159.3720  213.9950  150.1080 O   0  0  0  0  0  1  0  0  0  0  0  0
  158.3760  213.3760  150.5660 C   0  0  0  0  0  0  0  0  0  0  0  0
  157.1740  213.3970  149.8710 O   0  0  0  0  0  0  0  0  0  0  0  0
  158.4710  212.6510  151.7910 N   0  0  0  0  0  2  0  0  0  0  0  0
  1  4  1  0  0  0  0
  2  9  1  6  0  0  0
  2 12  1  0  0  0  0
  3 12  1  0  0  0  0
  3 23  1  1  0  0  0
  4  5  1  0  0  0  0
  5 10  2  0  0  0  0
  6  1  2  0  0  0  0
  7  5  1  0  0  0  0
  8 14  1  6  0  0  0
  8  2  1  0  0  0  0
  8  1  1  0  0  0  0
  9 11  1  0  0  0  0
 11  3  1  0  0  0  0
 12  7  1  1  0  0  0
 15 14  1  0  0  0  0
 16 15  2  0  0  0  0
 17 13  1  6  0  0  0
 17 20  1  0  0  0  0
 18 14  2  0  0  0  0
 19 18  1  0  0  0  0
 20 16  1  0  0  0  0
 21 19  2  0  0  0  0
 21 16  1  0  0  0  0
 22 17  1  0  0  0  0
 22 21  1  0  0  0  0
 23 24  1  6  0  0  0
 23 25  1  0  0  0  0
 25 26  1  0  0  0  0
 26 28  1  0  0  0  0
 28 27  1  1  0  0  0
 29 28  1  0  0  0  0
 30 31  1  0  0  0  0
 31 33  1  0  0  0  0
 32 31  2  0  0  0  0
 33 29  1  0  0  0  0
M  END
>  <MODEL>
9

>  <REMARK>
 VINA RESULT:      -7.1      2.962      9.120
  Name = 
  7 active torsions:
  status: ('A' for Active; 'I' for Inactive)
    1  A    between atoms: C_3  and  C_19
    2  A    between atoms: C_5  and  C_8
    3  A    between atoms: C_5  and  C_21
    4  A    between atoms: C_16  and  N_26
    5  A    between atoms: C_16  and  C_33
    6  A    between atoms: C_21  and  C_30
    7  A    between atoms: C_30  and  C_33
                            x       y       z     vdW  Elec       q    Type
                         _______ _______ _______ _____ _____    ______ ____

>  <TORSDO>
F 7

$$$$
