=
 OpenBabel11052410443D

 35 38  0  0  0  0  0  0  0  0999 V2000
  158.4800  211.7060  154.6100 C   0  0  0  0  0  3  0  0  0  0  0  0
  159.3560  210.8870  155.3260 C   0  0  0  0  0  0  0  0  0  0  0  0
  160.5730  210.4780  154.7450 C   0  0  0  0  0  0  0  0  0  0  0  0
  158.9970  210.4730  156.6040 O   0  0  0  0  0  1  0  0  0  0  0  0
  158.8020  212.1260  153.3180 C   0  0  0  0  0  3  0  0  0  0  0  0
  160.8840  210.9120  153.4470 C   0  0  0  0  0  3  0  0  0  0  0  0
  160.0080  211.7320  152.7200 C   0  0  0  0  0  0  0  0  0  0  0  0
  159.7630  213.3250  150.7990 C   0  0  0  0  0  3  0  0  0  0  0  0
  161.2740  211.4530  150.5750 C   0  0  0  0  0  3  0  0  0  0  0  0
  161.6000  211.8720  149.2810 C   0  0  0  0  0  3  0  0  0  0  0  0
  160.3520  212.1760  151.3490 C   0  0  0  0  0  0  0  0  0  0  0  0
  161.0150  213.0190  148.7370 C   0  0  0  0  0  0  0  0  0  0  0  0
  160.0910  213.7430  149.5070 C   0  0  0  0  0  3  0  0  0  0  0  0
  161.3790  213.3980  147.4360 O   0  0  0  0  0  0  0  0  0  0  0  0
  160.7570  212.9900  146.2440 C   0  0  0  0  0  0  0  0  0  0  0  0
  159.5590  212.5980  146.2360 O   0  0  0  0  0  0  0  0  0  0  0  0
  163.2820  213.6350  143.5390 C   0  0  0  0  0  2  0  0  0  0  0  0
  162.8880  213.4420  144.9890 C   0  0  0  0  0  2  0  0  0  0  0  0
  162.2330  212.5640  142.5140 S   0  0  0  0  0  0  0  0  0  0  0  0
  161.4990  213.0230  145.0210 N   0  0  0  0  0  0  0  0  0  0  0  0
  160.9090  212.6260  143.7550 C   0  0  0  0  0  2  0  0  0  0  0  0
  161.5450  209.6380  155.4910 C   0  0  0  0  0  0  0  0  0  0  0  0
  161.5110  208.3010  155.4880 C   0  0  0  0  0  3  0  0  0  0  0  0
  163.4470  210.7810  156.8400 N   0  0  0  0  0  0  0  0  0  0  0  0
  162.5990  210.2710  156.2380 C   0  0  0  0  0  0  0  0  0  0  0  0
  160.4720  207.4910  154.7870 C   0  0  0  0  0  2  0  0  0  0  0  0
  161.1420  206.4600  153.9060 C   0  0  0  0  0  2  0  0  0  0  0  0
  161.0620  204.4830  149.1400 C   0  0  0  0  0  3  0  0  0  0  0  0
  161.1660  206.6840  150.0670 C   0  0  0  0  0  0  0  0  0  0  0  0
  161.1240  205.7720  148.9610 N   0  0  0  0  0  0  0  0  0  0  0  0
  161.0650  204.6760  151.5810 C   0  0  0  0  0  3  0  0  0  0  0  0
  161.1360  206.1430  151.4390 C   0  0  0  0  0  0  0  0  0  0  0  0
  161.0300  203.8960  150.4960 C   0  0  0  0  0  3  0  0  0  0  0  0
  161.2250  207.9250  149.8550 O   0  0  0  0  0  0  0  0  0  0  0  0
  161.1720  206.9550  152.4990 C   0  0  0  0  0  3  0  0  0  0  0  0
  1  2  1  0  0  0  0
  2  4  1  0  0  0  0
  3  2  2  0  0  0  0
  3 22  1  0  0  0  0
  5  1  2  0  0  0  0
  6  3  1  0  0  0  0
  7  5  1  0  0  0  0
  7  6  2  0  0  0  0
  8 11  1  0  0  0  0
  9 11  2  0  0  0  0
 10  9  1  0  0  0  0
 11  7  1  0  0  0  0
 12 10  2  0  0  0  0
 12 13  1  0  0  0  0
 13  8  2  0  0  0  0
 14 12  1  0  0  0  0
 15 14  1  0  0  0  0
 16 15  2  0  0  0  0
 17 18  1  0  0  0  0
 18 20  1  0  0  0  0
 19 17  1  0  0  0  0
 19 21  1  0  0  0  0
 20 15  1  0  0  0  0
 21 20  1  0  0  0  0
 22 25  1  0  0  0  0
 23 22  2  0  0  0  0
 25 24  3  0  0  0  0
 26 23  1  0  0  0  0
 27 26  1  0  0  0  0
 28 33  1  0  0  0  0
 29 32  1  0  0  0  0
 30 28  2  0  0  0  0
 30 29  1  0  0  0  0
 32 31  1  0  0  0  0
 32 35  2  0  0  0  0
 33 31  2  0  0  0  0
 34 29  2  0  0  0  0
 35 27  1  0  0  0  0
M  END
>  <MODEL>
1

>  <REMARK>
 VINA RESULT:      -7.7      0.000      0.000
  Name = 
  8 active torsions:
  status: ('A' for Active; 'I' for Inactive)
    1  A    between atoms: C_2  and  O_26
    2  A    between atoms: C_8  and  C_11
    3  A    between atoms: C_8  and  C_21
    4  A    between atoms: C_14  and  C_16
    5  A    between atoms: C_14  and  C_31
    6  A    between atoms: O_26  and  C_34
    7  A    between atoms: C_28  and  C_33
    8  A    between atoms: C_31  and  C_32
                            x       y       z     vdW  Elec       q    Type
                         _______ _______ _______ _____ _____    ______ ____

>  <TORSDO>
F 8

$$$$
=
 OpenBabel11052410443D

 35 38  0  0  0  0  0  0  0  0999 V2000
  161.0030  211.3160  155.5540 C   0  0  0  0  0  3  0  0  0  0  0  0
  159.9270  212.1300  155.1910 C   0  0  0  0  0  0  0  0  0  0  0  0
  159.1640  211.8230  154.0470 C   0  0  0  0  0  0  0  0  0  0  0  0
  159.6410  213.2490  155.9650 O   0  0  0  0  0  1  0  0  0  0  0  0
  161.3290  210.1940  154.7900 C   0  0  0  0  0  3  0  0  0  0  0  0
  159.5020  210.6880  153.2920 C   0  0  0  0  0  3  0  0  0  0  0  0
  160.5820  209.8680  153.6480 C   0  0  0  0  0  0  0  0  0  0  0  0
  161.1850  207.4420  153.4480 C   0  0  0  0  0  3  0  0  0  0  0  0
  160.9980  208.7660  151.4350 C   0  0  0  0  0  3  0  0  0  0  0  0
  161.3210  207.6430  150.6680 C   0  0  0  0  0  3  0  0  0  0  0  0
  160.9260  208.6780  152.8350 C   0  0  0  0  0  0  0  0  0  0  0  0
  161.5760  206.4120  151.2800 C   0  0  0  0  0  0  0  0  0  0  0  0
  161.5060  206.3210  152.6790 C   0  0  0  0  0  3  0  0  0  0  0  0
  161.8920  205.3160  150.4640 O   0  0  0  0  0  0  0  0  0  0  0  0
  161.1530  204.1270  150.3420 C   0  0  0  0  0  0  0  0  0  0  0  0
  160.5500  203.6310  151.3320 O   0  0  0  0  0  0  0  0  0  0  0  0
  161.2800  203.2540  146.6910 C   0  0  0  0  0  2  0  0  0  0  0  0
  161.7820  203.9970  147.9120 C   0  0  0  0  0  2  0  0  0  0  0  0
  160.6990  201.6150  147.2190 S   0  0  0  0  0  0  0  0  0  0  0  0
  161.0830  203.4740  149.0700 N   0  0  0  0  0  0  0  0  0  0  0  0
  160.3250  202.2510  148.8770 C   0  0  0  0  0  2  0  0  0  0  0  0
  157.9910  212.6450  153.6540 C   0  0  0  0  0  0  0  0  0  0  0  0
  158.0620  213.6420  152.7650 C   0  0  0  0  0  3  0  0  0  0  0  0
  155.6640  212.1220  154.6800 N   0  0  0  0  0  0  0  0  0  0  0  0
  156.7010  212.3550  154.2230 C   0  0  0  0  0  0  0  0  0  0  0  0
  159.3220  214.0870  152.1040 C   0  0  0  0  0  2  0  0  0  0  0  0
  159.1880  213.9370  150.6050 C   0  0  0  0  0  2  0  0  0  0  0  0
  162.2410  213.4830  146.4680 C   0  0  0  0  0  3  0  0  0  0  0  0
  161.9120  212.2420  148.4850 C   0  0  0  0  0  0  0  0  0  0  0  0
  162.5550  212.4700  147.2230 N   0  0  0  0  0  0  0  0  0  0  0  0
  160.5560  214.3150  148.0380 C   0  0  0  0  0  3  0  0  0  0  0  0
  160.8700  213.1850  148.9340 C   0  0  0  0  0  0  0  0  0  0  0  0
  161.2020  214.4530  146.8760 C   0  0  0  0  0  3  0  0  0  0  0  0
  162.2450  211.2510  149.1880 O   0  0  0  0  0  0  0  0  0  0  0  0
  160.2460  213.0130  150.1020 C   0  0  0  0  0  3  0  0  0  0  0  0
  2  1  1  0  0  0  0
  2  4  1  0  0  0  0
  3  2  2  0  0  0  0
  5  1  2  0  0  0  0
  6  7  2  0  0  0  0
  6  3  1  0  0  0  0
  7  5  1  0  0  0  0
  9 11  2  0  0  0  0
 10 12  2  0  0  0  0
 10  9  1  0  0  0  0
 11  8  1  0  0  0  0
 11  7  1  0  0  0  0
 12 13  1  0  0  0  0
 13  8  2  0  0  0  0
 14 12  1  0  0  0  0
 15 14  1  0  0  0  0
 15 16  2  0  0  0  0
 17 19  1  0  0  0  0
 17 18  1  0  0  0  0
 18 20  1  0  0  0  0
 19 21  1  0  0  0  0
 20 15  1  0  0  0  0
 21 20  1  0  0  0  0
 22  3  1  0  0  0  0
 22 25  1  0  0  0  0
 23 22  2  0  0  0  0
 25 24  3  0  0  0  0
 26 23  1  0  0  0  0
 27 26  1  0  0  0  0
 28 33  1  0  0  0  0
 28 30  2  0  0  0  0
 29 32  1  0  0  0  0
 29 34  2  0  0  0  0
 30 29  1  0  0  0  0
 31 32  1  0  0  0  0
 32 35  2  0  0  0  0
 33 31  2  0  0  0  0
 35 27  1  0  0  0  0
M  END
>  <MODEL>
2

>  <REMARK>
 VINA RESULT:      -7.5      3.039      7.466
  Name = 
  8 active torsions:
  status: ('A' for Active; 'I' for Inactive)
    1  A    between atoms: C_2  and  O_26
    2  A    between atoms: C_8  and  C_11
    3  A    between atoms: C_8  and  C_21
    4  A    between atoms: C_14  and  C_16
    5  A    between atoms: C_14  and  C_31
    6  A    between atoms: O_26  and  C_34
    7  A    between atoms: C_28  and  C_33
    8  A    between atoms: C_31  and  C_32
                            x       y       z     vdW  Elec       q    Type
                         _______ _______ _______ _____ _____    ______ ____

>  <TORSDO>
F 8

$$$$
=
 OpenBabel11052410443D

 35 38  0  0  0  0  0  0  0  0999 V2000
  161.4510  210.5520  154.9730 C   0  0  0  0  0  3  0  0  0  0  0  0
  160.4240  211.4620  154.7100 C   0  0  0  0  0  0  0  0  0  0  0  0
  159.5800  211.2720  153.5970 C   0  0  0  0  0  0  0  0  0  0  0  0
  160.2650  212.5570  155.5510 O   0  0  0  0  0  1  0  0  0  0  0  0
  161.6490  209.4500  154.1390 C   0  0  0  0  0  3  0  0  0  0  0  0
  159.7900  210.1560  152.7710 C   0  0  0  0  0  3  0  0  0  0  0  0
  160.8220  209.2410  153.0260 C   0  0  0  0  0  0  0  0  0  0  0  0
  161.2230  208.2450  150.7600 C   0  0  0  0  0  3  0  0  0  0  0  0
  161.0350  206.7690  152.6640 C   0  0  0  0  0  3  0  0  0  0  0  0
  161.2320  205.6660  151.8270 C   0  0  0  0  0  3  0  0  0  0  0  0
  161.0300  208.0720  152.1390 C   0  0  0  0  0  0  0  0  0  0  0  0
  161.4280  205.8410  150.4550 C   0  0  0  0  0  0  0  0  0  0  0  0
  161.4220  207.1420  149.9260 C   0  0  0  0  0  3  0  0  0  0  0  0
  161.6250  204.7020  149.6600 O   0  0  0  0  0  0  0  0  0  0  0  0
  161.6230  204.6540  148.2560 C   0  0  0  0  0  0  0  0  0  0  0  0
  161.9030  205.6750  147.5700 O   0  0  0  0  0  0  0  0  0  0  0  0
  160.9460  201.0630  147.3870 C   0  0  0  0  0  2  0  0  0  0  0  0
  160.9470  202.2350  148.3480 C   0  0  0  0  0  2  0  0  0  0  0  0
  160.5910  201.6920  145.7200 S   0  0  0  0  0  0  0  0  0  0  0  0
  161.3010  203.4250  147.5980 N   0  0  0  0  0  0  0  0  0  0  0  0
  161.2940  203.3100  146.1500 C   0  0  0  0  0  2  0  0  0  0  0  0
  158.4560  212.1980  153.3090 C   0  0  0  0  0  0  0  0  0  0  0  0
  158.4970  213.1210  152.3420 C   0  0  0  0  0  3  0  0  0  0  0  0
  156.2680  212.0180  154.6950 N   0  0  0  0  0  0  0  0  0  0  0  0
  157.2430  212.0990  154.0770 C   0  0  0  0  0  0  0  0  0  0  0  0
  159.6840  213.3730  151.4740 C   0  0  0  0  0  2  0  0  0  0  0  0
  159.2390  214.0280  150.1850 C   0  0  0  0  0  2  0  0  0  0  0  0
  158.5380  212.3970  145.3390 C   0  0  0  0  0  3  0  0  0  0  0  0
  160.4200  212.6640  146.7890 C   0  0  0  0  0  0  0  0  0  0  0  0
  159.8220  212.2990  145.5370 N   0  0  0  0  0  0  0  0  0  0  0  0
  158.1090  213.2530  147.5920 C   0  0  0  0  0  3  0  0  0  0  0  0
  159.5550  213.1630  147.8740 C   0  0  0  0  0  0  0  0  0  0  0  0
  157.6320  212.8910  146.3970 C   0  0  0  0  0  3  0  0  0  0  0  0
  161.6660  212.5560  146.9430 O   0  0  0  0  0  0  0  0  0  0  0  0
  160.0680  213.5150  149.0560 C   0  0  0  0  0  3  0  0  0  0  0  0
  2  1  1  0  0  0  0
  2  4  1  0  0  0  0
  3  2  2  0  0  0  0
  5  1  2  0  0  0  0
  6  7  2  0  0  0  0
  6  3  1  0  0  0  0
  7  5  1  0  0  0  0
  8 11  1  0  0  0  0
 10  9  1  0  0  0  0
 11  9  2  0  0  0  0
 11  7  1  0  0  0  0
 12 10  2  0  0  0  0
 13 12  1  0  0  0  0
 13  8  2  0  0  0  0
 14 12  1  0  0  0  0
 15 14  1  0  0  0  0
 16 15  2  0  0  0  0
 17 18  1  0  0  0  0
 19 21  1  0  0  0  0
 19 17  1  0  0  0  0
 20 15  1  0  0  0  0
 20 18  1  0  0  0  0
 21 20  1  0  0  0  0
 22  3  1  0  0  0  0
 22 25  1  0  0  0  0
 23 22  2  0  0  0  0
 25 24  3  0  0  0  0
 26 23  1  0  0  0  0
 27 26  1  0  0  0  0
 28 30  2  0  0  0  0
 28 33  1  0  0  0  0
 29 34  2  0  0  0  0
 29 32  1  0  0  0  0
 30 29  1  0  0  0  0
 31 32  1  0  0  0  0
 32 35  2  0  0  0  0
 33 31  2  0  0  0  0
 35 27  1  0  0  0  0
M  END
>  <MODEL>
3

>  <REMARK>
 VINA RESULT:      -7.4      2.978      7.444
  Name = 
  8 active torsions:
  status: ('A' for Active; 'I' for Inactive)
    1  A    between atoms: C_2  and  O_26
    2  A    between atoms: C_8  and  C_11
    3  A    between atoms: C_8  and  C_21
    4  A    between atoms: C_14  and  C_16
    5  A    between atoms: C_14  and  C_31
    6  A    between atoms: O_26  and  C_34
    7  A    between atoms: C_28  and  C_33
    8  A    between atoms: C_31  and  C_32
                            x       y       z     vdW  Elec       q    Type
                         _______ _______ _______ _____ _____    ______ ____

>  <TORSDO>
F 8

$$$$
=
 OpenBabel11052410443D

 35 38  0  0  0  0  0  0  0  0999 V2000
  160.8180  203.4500  150.1880 C   0  0  0  0  0  3  0  0  0  0  0  0
  161.2040  203.9780  148.9540 C   0  0  0  0  0  0  0  0  0  0  0  0
  161.5490  205.3410  148.8460 C   0  0  0  0  0  0  0  0  0  0  0  0
  161.2240  203.1440  147.8420 O   0  0  0  0  0  1  0  0  0  0  0  0
  160.7710  204.2640  151.3210 C   0  0  0  0  0  3  0  0  0  0  0  0
  161.5010  206.1440  149.9960 C   0  0  0  0  0  3  0  0  0  0  0  0
  161.1110  205.6220  151.2380 C   0  0  0  0  0  0  0  0  0  0  0  0
  161.0290  205.9280  153.7250 C   0  0  0  0  0  3  0  0  0  0  0  0
  161.0490  207.8870  152.3110 C   0  0  0  0  0  3  0  0  0  0  0  0
  161.0040  208.7050  153.4440 C   0  0  0  0  0  3  0  0  0  0  0  0
  161.0630  206.4880  152.4390 C   0  0  0  0  0  0  0  0  0  0  0  0
  160.9740  208.1440  154.7240 C   0  0  0  0  0  0  0  0  0  0  0  0
  160.9860  206.7470  154.8560 C   0  0  0  0  0  3  0  0  0  0  0  0
  160.9330  209.0090  155.8280 O   0  0  0  0  0  0  0  0  0  0  0  0
  161.0840  210.4060  155.7980 C   0  0  0  0  0  0  0  0  0  0  0  0
  162.2250  210.9380  155.8550 O   0  0  0  0  0  0  0  0  0  0  0  0
  157.6230  211.7650  155.2670 C   0  0  0  0  0  2  0  0  0  0  0  0
  158.5880  210.6640  155.6560 C   0  0  0  0  0  2  0  0  0  0  0  0
  158.3320  213.3550  155.7870 S   0  0  0  0  0  0  0  0  0  0  0  0
  159.9210  211.2340  155.6980 N   0  0  0  0  0  0  0  0  0  0  0  0
  160.0130  212.6820  155.6500 C   0  0  0  0  0  2  0  0  0  0  0  0
  162.0000  205.9270  147.5580 C   0  0  0  0  0  0  0  0  0  0  0  0
  161.9050  207.2300  147.2740 C   0  0  0  0  0  3  0  0  0  0  0  0
  163.0740  204.3890  145.7620 N   0  0  0  0  0  0  0  0  0  0  0  0
  162.5950  205.0740  146.5630 C   0  0  0  0  0  0  0  0  0  0  0  0
  161.2920  208.2430  148.1820 C   0  0  0  0  0  2  0  0  0  0  0  0
  162.3500  209.2240  148.6350 C   0  0  0  0  0  2  0  0  0  0  0  0
  162.2280  214.3440  147.9980 C   0  0  0  0  0  3  0  0  0  0  0  0
  161.2050  212.7910  149.5010 C   0  0  0  0  0  0  0  0  0  0  0  0
  161.4370  214.1180  149.0080 N   0  0  0  0  0  0  0  0  0  0  0  0
  162.7650  211.9730  147.7030 C   0  0  0  0  0  3  0  0  0  0  0  0
  161.8810  211.6580  148.8420 C   0  0  0  0  0  0  0  0  0  0  0  0
  162.9270  213.2400  147.3080 C   0  0  0  0  0  3  0  0  0  0  0  0
  160.4320  212.6120  150.4800 O   0  0  0  0  0  0  0  0  0  0  0  0
  161.6940  210.4050  149.2670 C   0  0  0  0  0  3  0  0  0  0  0  0
  1  5  1  0  0  0  0
  2  1  2  0  0  0  0
  3  2  1  0  0  0  0
  3  6  2  0  0  0  0
  4  2  1  0  0  0  0
  6  7  1  0  0  0  0
  7  5  2  0  0  0  0
  7 11  1  0  0  0  0
  8 13  1  0  0  0  0
  9 11  1  0  0  0  0
  9 10  2  0  0  0  0
 10 12  1  0  0  0  0
 11  8  2  0  0  0  0
 12 13  2  0  0  0  0
 12 14  1  0  0  0  0
 15 14  1  0  0  0  0
 15 16  2  0  0  0  0
 17 18  1  0  0  0  0
 17 19  1  0  0  0  0
 18 20  1  0  0  0  0
 20 15  1  0  0  0  0
 21 20  1  0  0  0  0
 21 19  1  0  0  0  0
 22  3  1  0  0  0  0
 23 22  2  0  0  0  0
 23 26  1  0  0  0  0
 24 25  3  0  0  0  0
 25 22  1  0  0  0  0
 26 27  1  0  0  0  0
 27 35  1  0  0  0  0
 28 30  2  0  0  0  0
 29 34  2  0  0  0  0
 30 29  1  0  0  0  0
 31 32  1  0  0  0  0
 32 35  2  0  0  0  0
 32 29  1  0  0  0  0
 33 31  2  0  0  0  0
 33 28  1  0  0  0  0
M  END
>  <MODEL>
4

>  <REMARK>
 VINA RESULT:      -7.2      3.320      9.008
  Name = 
  8 active torsions:
  status: ('A' for Active; 'I' for Inactive)
    1  A    between atoms: C_2  and  O_26
    2  A    between atoms: C_8  and  C_11
    3  A    between atoms: C_8  and  C_21
    4  A    between atoms: C_14  and  C_16
    5  A    between atoms: C_14  and  C_31
    6  A    between atoms: O_26  and  C_34
    7  A    between atoms: C_28  and  C_33
    8  A    between atoms: C_31  and  C_32
                            x       y       z     vdW  Elec       q    Type
                         _______ _______ _______ _____ _____    ______ ____

>  <TORSDO>
F 8

$$$$
=
 OpenBabel11052410443D

 35 38  0  0  0  0  0  0  0  0999 V2000
  161.9870  204.9310  146.8950 C   0  0  0  0  0  3  0  0  0  0  0  0
  161.6080  203.9880  147.8540 C   0  0  0  0  0  0  0  0  0  0  0  0
  161.2630  204.4050  149.1560 C   0  0  0  0  0  0  0  0  0  0  0  0
  161.5960  202.6430  147.5050 O   0  0  0  0  0  1  0  0  0  0  0  0
  162.0270  206.2890  147.2170 C   0  0  0  0  0  3  0  0  0  0  0  0
  161.3030  205.7740  149.4610 C   0  0  0  0  0  3  0  0  0  0  0  0
  161.6870  206.7260  148.5050 C   0  0  0  0  0  0  0  0  0  0  0  0
  161.5790  209.1450  147.8550 C   0  0  0  0  0  3  0  0  0  0  0  0
  161.9160  208.5790  150.1790 C   0  0  0  0  0  3  0  0  0  0  0  0
  161.9540  209.9380  150.5040 C   0  0  0  0  0  3  0  0  0  0  0  0
  161.7270  208.1670  148.8500 C   0  0  0  0  0  0  0  0  0  0  0  0
  161.8020  210.9110  149.5120 C   0  0  0  0  0  0  0  0  0  0  0  0
  161.6150  210.5030  148.1820 C   0  0  0  0  0  3  0  0  0  0  0  0
  161.8440  212.2600  149.8920 O   0  0  0  0  0  0  0  0  0  0  0  0
  160.8290  213.2130  149.6990 C   0  0  0  0  0  0  0  0  0  0  0  0
  160.7990  213.9300  148.6630 O   0  0  0  0  0  0  0  0  0  0  0  0
  158.4890  212.7690  152.6030 C   0  0  0  0  0  2  0  0  0  0  0  0
  159.8240  212.5780  151.9140 C   0  0  0  0  0  2  0  0  0  0  0  0
  157.8220  214.3880  152.1170 S   0  0  0  0  0  0  0  0  0  0  0  0
  159.8130  213.3650  150.6950 N   0  0  0  0  0  0  0  0  0  0  0  0
  158.7320  214.3220  150.5470 C   0  0  0  0  0  2  0  0  0  0  0  0
  160.8200  203.4340  150.1890 C   0  0  0  0  0  0  0  0  0  0  0  0
  161.0220  203.6150  151.4980 C   0  0  0  0  0  3  0  0  0  0  0  0
  159.5420  201.2930  149.4620 N   0  0  0  0  0  0  0  0  0  0  0  0
  160.1120  202.2470  149.7860 C   0  0  0  0  0  0  0  0  0  0  0  0
  161.7590  204.7740  152.0800 C   0  0  0  0  0  2  0  0  0  0  0  0
  161.0160  205.2900  153.2920 C   0  0  0  0  0  2  0  0  0  0  0  0
  160.2770  209.0190  156.7820 C   0  0  0  0  0  3  0  0  0  0  0  0
  161.0910  208.9280  154.5360 C   0  0  0  0  0  0  0  0  0  0  0  0
  160.7530  209.6350  155.7380 N   0  0  0  0  0  0  0  0  0  0  0  0
  160.3500  206.8230  155.7010 C   0  0  0  0  0  3  0  0  0  0  0  0
  160.8930  207.4670  154.4890 C   0  0  0  0  0  0  0  0  0  0  0  0
  160.0600  207.5570  156.7800 C   0  0  0  0  0  3  0  0  0  0  0  0
  161.5510  209.5570  153.5470 O   0  0  0  0  0  0  0  0  0  0  0  0
  161.1950  206.7680  153.3920 C   0  0  0  0  0  3  0  0  0  0  0  0
  1  5  2  0  0  0  0
  1  2  1  0  0  0  0
  2  3  2  0  0  0  0
  3  6  1  0  0  0  0
  3 22  1  0  0  0  0
  4  2  1  0  0  0  0
  5  7  1  0  0  0  0
  7 11  1  0  0  0  0
  7  6  2  0  0  0  0
  8 13  2  0  0  0  0
  8 11  1  0  0  0  0
  9 10  1  0  0  0  0
 11  9  2  0  0  0  0
 12 14  1  0  0  0  0
 12 10  2  0  0  0  0
 13 12  1  0  0  0  0
 15 14  1  0  0  0  0
 15 20  1  0  0  0  0
 16 15  2  0  0  0  0
 18 17  1  0  0  0  0
 19 17  1  0  0  0  0
 20 18  1  0  0  0  0
 21 20  1  0  0  0  0
 21 19  1  0  0  0  0
 22 23  2  0  0  0  0
 23 26  1  0  0  0  0
 24 25  3  0  0  0  0
 25 22  1  0  0  0  0
 26 27  1  0  0  0  0
 27 35  1  0  0  0  0
 29 30  1  0  0  0  0
 30 28  2  0  0  0  0
 31 33  2  0  0  0  0
 32 29  1  0  0  0  0
 32 31  1  0  0  0  0
 33 28  1  0  0  0  0
 34 29  2  0  0  0  0
 35 32  2  0  0  0  0
M  END
>  <MODEL>
5

>  <REMARK>
 VINA RESULT:      -7.1      3.219      7.102
  Name = 
  8 active torsions:
  status: ('A' for Active; 'I' for Inactive)
    1  A    between atoms: C_2  and  O_26
    2  A    between atoms: C_8  and  C_11
    3  A    between atoms: C_8  and  C_21
    4  A    between atoms: C_14  and  C_16
    5  A    between atoms: C_14  and  C_31
    6  A    between atoms: O_26  and  C_34
    7  A    between atoms: C_28  and  C_33
    8  A    between atoms: C_31  and  C_32
                            x       y       z     vdW  Elec       q    Type
                         _______ _______ _______ _____ _____    ______ ____

>  <TORSDO>
F 8

$$$$
=
 OpenBabel11052410443D

 35 38  0  0  0  0  0  0  0  0999 V2000
  161.1490  207.3610  154.8390 C   0  0  0  0  0  3  0  0  0  0  0  0
  160.9120  208.6870  154.4710 C   0  0  0  0  0  0  0  0  0  0  0  0
  160.7370  209.0230  153.1130 C   0  0  0  0  0  0  0  0  0  0  0  0
  160.8700  209.6620  155.4610 O   0  0  0  0  0  1  0  0  0  0  0  0
  161.2140  206.3590  153.8690 C   0  0  0  0  0  3  0  0  0  0  0  0
  160.8010  208.0030  152.1500 C   0  0  0  0  0  3  0  0  0  0  0  0
  161.0430  206.6700  152.5120 C   0  0  0  0  0  0  0  0  0  0  0  0
  160.7770  205.8860  150.1450 C   0  0  0  0  0  3  0  0  0  0  0  0
  161.5100  204.3060  151.8190 C   0  0  0  0  0  3  0  0  0  0  0  0
  161.5760  203.3050  150.8450 C   0  0  0  0  0  3  0  0  0  0  0  0
  161.1110  205.6090  151.4790 C   0  0  0  0  0  0  0  0  0  0  0  0
  161.2460  203.5840  149.5160 C   0  0  0  0  0  0  0  0  0  0  0  0
  160.8450  204.8850  149.1730 C   0  0  0  0  0  3  0  0  0  0  0  0
  161.3320  202.5450  148.5770 O   0  0  0  0  0  0  0  0  0  0  0  0
  160.8480  202.5710  147.2590 C   0  0  0  0  0  0  0  0  0  0  0  0
  160.0780  201.6690  146.8300 O   0  0  0  0  0  0  0  0  0  0  0  0
  162.1140  205.7930  145.8020 C   0  0  0  0  0  2  0  0  0  0  0  0
  162.1380  204.6860  146.8360 C   0  0  0  0  0  2  0  0  0  0  0  0
  161.6700  205.0660  144.1970 S   0  0  0  0  0  0  0  0  0  0  0  0
  161.2340  203.6430  146.3920 N   0  0  0  0  0  0  0  0  0  0  0  0
  160.7570  203.7320  145.0240 C   0  0  0  0  0  2  0  0  0  0  0  0
  160.4460  210.4160  152.6900 C   0  0  0  0  0  0  0  0  0  0  0  0
  161.0990  211.0310  151.6980 C   0  0  0  0  0  3  0  0  0  0  0  0
  158.5540  211.7410  153.8750 N   0  0  0  0  0  0  0  0  0  0  0  0
  159.3980  211.1510  153.3470 C   0  0  0  0  0  0  0  0  0  0  0  0
  162.2270  210.4230  150.9330 C   0  0  0  0  0  2  0  0  0  0  0  0
  161.9480  210.5260  149.4500 C   0  0  0  0  0  2  0  0  0  0  0  0
  160.5790  213.8090  145.7110 C   0  0  0  0  0  3  0  0  0  0  0  0
  162.1860  213.8200  147.4810 C   0  0  0  0  0  0  0  0  0  0  0  0
  161.5330  214.4200  146.3540 N   0  0  0  0  0  0  0  0  0  0  0  0
  160.6770  211.8330  147.1540 C   0  0  0  0  0  3  0  0  0  0  0  0
  161.7610  212.4770  147.9190 C   0  0  0  0  0  0  0  0  0  0  0  0
  160.1210  212.4620  146.1130 C   0  0  0  0  0  3  0  0  0  0  0  0
  163.1040  214.4430  148.0790 O   0  0  0  0  0  0  0  0  0  0  0  0
  162.3410  211.8800  148.9640 C   0  0  0  0  0  3  0  0  0  0  0  0
  2  1  1  0  0  0  0
  2  4  1  0  0  0  0
  3  2  2  0  0  0  0
  5  1  2  0  0  0  0
  6  7  2  0  0  0  0
  6  3  1  0  0  0  0
  7  5  1  0  0  0  0
  8 11  1  0  0  0  0
 10  9  1  0  0  0  0
 11  9  2  0  0  0  0
 11  7  1  0  0  0  0
 12 10  2  0  0  0  0
 13 12  1  0  0  0  0
 13  8  2  0  0  0  0
 14 12  1  0  0  0  0
 15 14  1  0  0  0  0
 16 15  2  0  0  0  0
 17 18  1  0  0  0  0
 19 21  1  0  0  0  0
 19 17  1  0  0  0  0
 20 18  1  0  0  0  0
 20 15  1  0  0  0  0
 21 20  1  0  0  0  0
 22  3  1  0  0  0  0
 22 25  1  0  0  0  0
 23 22  2  0  0  0  0
 25 24  3  0  0  0  0
 26 23  1  0  0  0  0
 27 26  1  0  0  0  0
 28 33  1  0  0  0  0
 28 30  2  0  0  0  0
 29 32  1  0  0  0  0
 29 34  2  0  0  0  0
 30 29  1  0  0  0  0
 31 32  1  0  0  0  0
 32 35  2  0  0  0  0
 33 31  2  0  0  0  0
 35 27  1  0  0  0  0
M  END
>  <MODEL>
6

>  <REMARK>
 VINA RESULT:      -6.7      2.784      7.441
  Name = 
  8 active torsions:
  status: ('A' for Active; 'I' for Inactive)
    1  A    between atoms: C_2  and  O_26
    2  A    between atoms: C_8  and  C_11
    3  A    between atoms: C_8  and  C_21
    4  A    between atoms: C_14  and  C_16
    5  A    between atoms: C_14  and  C_31
    6  A    between atoms: O_26  and  C_34
    7  A    between atoms: C_28  and  C_33
    8  A    between atoms: C_31  and  C_32
                            x       y       z     vdW  Elec       q    Type
                         _______ _______ _______ _____ _____    ______ ____

>  <TORSDO>
F 8

$$$$
=
 OpenBabel11052410443D

 35 38  0  0  0  0  0  0  0  0999 V2000
  160.0770  207.3220  156.2120 C   0  0  0  0  0  3  0  0  0  0  0  0
  160.5450  208.6370  156.1500 C   0  0  0  0  0  0  0  0  0  0  0  0
  161.1860  209.1040  154.9850 C   0  0  0  0  0  0  0  0  0  0  0  0
  160.3830  209.4590  157.2590 O   0  0  0  0  0  1  0  0  0  0  0  0
  160.2380  206.4630  155.1220 C   0  0  0  0  0  3  0  0  0  0  0  0
  161.3350  208.2300  153.8970 C   0  0  0  0  0  3  0  0  0  0  0  0
  160.8710  206.9080  153.9530 C   0  0  0  0  0  0  0  0  0  0  0  0
  161.3290  206.5110  151.5190 C   0  0  0  0  0  3  0  0  0  0  0  0
  160.9220  204.6090  152.9530 C   0  0  0  0  0  3  0  0  0  0  0  0
  161.0850  203.7510  151.8610 C   0  0  0  0  0  3  0  0  0  0  0  0
  161.0430  205.9990  152.7950 C   0  0  0  0  0  0  0  0  0  0  0  0
  161.3740  204.2630  150.5920 C   0  0  0  0  0  0  0  0  0  0  0  0
  161.4940  205.6520  150.4300 C   0  0  0  0  0  3  0  0  0  0  0  0
  161.5310  203.3590  149.5310 O   0  0  0  0  0  0  0  0  0  0  0  0
  161.2310  203.6000  148.1800 C   0  0  0  0  0  0  0  0  0  0  0  0
  161.1460  204.7750  147.7320 O   0  0  0  0  0  0  0  0  0  0  0  0
  161.1080  200.2070  146.5730 C   0  0  0  0  0  2  0  0  0  0  0  0
  161.0860  201.1220  147.7800 C   0  0  0  0  0  2  0  0  0  0  0  0
  160.2790  201.0560  145.1970 S   0  0  0  0  0  0  0  0  0  0  0  0
  161.0230  202.4900  147.3000 N   0  0  0  0  0  0  0  0  0  0  0  0
  160.7230  202.6740  145.8920 C   0  0  0  0  0  2  0  0  0  0  0  0
  161.6620  210.5070  154.8720 C   0  0  0  0  0  0  0  0  0  0  0  0
  160.9800  211.4610  154.2300 C   0  0  0  0  0  3  0  0  0  0  0  0
  163.8960  211.1900  156.0050 N   0  0  0  0  0  0  0  0  0  0  0  0
  162.9000  210.8860  155.5000 C   0  0  0  0  0  0  0  0  0  0  0  0
  159.6970  211.2310  153.5050 C   0  0  0  0  0  2  0  0  0  0  0  0
  159.6260  212.1420  152.2990 C   0  0  0  0  0  2  0  0  0  0  0  0
  161.8270  213.8150  147.9420 C   0  0  0  0  0  3  0  0  0  0  0  0
  161.7710  211.7430  149.1330 C   0  0  0  0  0  0  0  0  0  0  0  0
  162.1900  212.5680  148.0370 N   0  0  0  0  0  0  0  0  0  0  0  0
  160.5290  213.7460  150.0170 C   0  0  0  0  0  3  0  0  0  0  0  0
  160.9090  212.3290  150.1770 C   0  0  0  0  0  0  0  0  0  0  0  0
  160.9630  214.4450  148.9630 C   0  0  0  0  0  3  0  0  0  0  0  0
  162.1440  210.5420  149.1910 O   0  0  0  0  0  0  0  0  0  0  0  0
  160.4960  211.5990  151.2160 C   0  0  0  0  0  3  0  0  0  0  0  0
  2  1  1  0  0  0  0
  2  4  1  0  0  0  0
  3  2  2  0  0  0  0
  5  1  2  0  0  0  0
  6  7  2  0  0  0  0
  6  3  1  0  0  0  0
  7  5  1  0  0  0  0
  8 11  1  0  0  0  0
 10  9  1  0  0  0  0
 11  9  2  0  0  0  0
 11  7  1  0  0  0  0
 12 10  2  0  0  0  0
 13 12  1  0  0  0  0
 13  8  2  0  0  0  0
 14 12  1  0  0  0  0
 15 14  1  0  0  0  0
 16 15  2  0  0  0  0
 17 18  1  0  0  0  0
 19 21  1  0  0  0  0
 19 17  1  0  0  0  0
 20 18  1  0  0  0  0
 20 15  1  0  0  0  0
 21 20  1  0  0  0  0
 22  3  1  0  0  0  0
 22 25  1  0  0  0  0
 23 22  2  0  0  0  0
 25 24  3  0  0  0  0
 26 23  1  0  0  0  0
 27 26  1  0  0  0  0
 28 30  2  0  0  0  0
 28 33  1  0  0  0  0
 29 34  2  0  0  0  0
 29 32  1  0  0  0  0
 30 29  1  0  0  0  0
 31 32  1  0  0  0  0
 32 35  2  0  0  0  0
 33 31  2  0  0  0  0
 35 27  1  0  0  0  0
M  END
>  <MODEL>
7

>  <REMARK>
 VINA RESULT:      -6.6      2.890      7.481
  Name = 
  8 active torsions:
  status: ('A' for Active; 'I' for Inactive)
    1  A    between atoms: C_2  and  O_26
    2  A    between atoms: C_8  and  C_11
    3  A    between atoms: C_8  and  C_21
    4  A    between atoms: C_14  and  C_16
    5  A    between atoms: C_14  and  C_31
    6  A    between atoms: O_26  and  C_34
    7  A    between atoms: C_28  and  C_33
    8  A    between atoms: C_31  and  C_32
                            x       y       z     vdW  Elec       q    Type
                         _______ _______ _______ _____ _____    ______ ____

>  <TORSDO>
F 8

$$$$
=
 OpenBabel11052410443D

 35 38  0  0  0  0  0  0  0  0999 V2000
  159.6860  211.6470  153.8130 C   0  0  0  0  0  3  0  0  0  0  0  0
  159.9500  210.2890  154.0050 C   0  0  0  0  0  0  0  0  0  0  0  0
  160.5810  209.5420  152.9890 C   0  0  0  0  0  0  0  0  0  0  0  0
  159.5640  209.6920  155.1990 O   0  0  0  0  0  1  0  0  0  0  0  0
  160.0450  212.2750  152.6190 C   0  0  0  0  0  3  0  0  0  0  0  0
  160.9400  210.1890  151.7970 C   0  0  0  0  0  3  0  0  0  0  0  0
  160.6750  211.5520  151.5950 C   0  0  0  0  0  0  0  0  0  0  0  0
  160.5510  213.4830  150.0000 C   0  0  0  0  0  3  0  0  0  0  0  0
  161.9340  211.5860  149.4270 C   0  0  0  0  0  3  0  0  0  0  0  0
  162.2960  212.2120  148.2310 C   0  0  0  0  0  3  0  0  0  0  0  0
  161.0580  212.2150  150.3260 C   0  0  0  0  0  0  0  0  0  0  0  0
  161.7930  213.4760  147.9090 C   0  0  0  0  0  0  0  0  0  0  0  0
  160.9160  214.1070  148.8040 C   0  0  0  0  0  3  0  0  0  0  0  0
  162.1910  214.0610  146.6980 O   0  0  0  0  0  0  0  0  0  0  0  0
  162.2350  213.4310  145.4430 C   0  0  0  0  0  0  0  0  0  0  0  0
  163.3120  212.9570  144.9900 O   0  0  0  0  0  0  0  0  0  0  0  0
  158.6750  213.3570  144.2460 C   0  0  0  0  0  2  0  0  0  0  0  0
  159.7800  213.8800  145.1410 C   0  0  0  0  0  2  0  0  0  0  0  0
  159.3900  212.9780  142.6190 S   0  0  0  0  0  0  0  0  0  0  0  0
  161.0340  213.3250  144.6700 N   0  0  0  0  0  0  0  0  0  0  0  0
  161.0140  212.6740  143.3720 C   0  0  0  0  0  2  0  0  0  0  0  0
  160.9100  208.1060  153.1740 C   0  0  0  0  0  0  0  0  0  0  0  0
  161.1450  207.2720  152.1550 C   0  0  0  0  0  3  0  0  0  0  0  0
  161.0990  207.1390  155.5770 N   0  0  0  0  0  0  0  0  0  0  0  0
  161.0140  207.5700  154.5060 C   0  0  0  0  0  0  0  0  0  0  0  0
  161.0520  207.6590  150.7170 C   0  0  0  0  0  2  0  0  0  0  0  0
  161.4590  206.4880  149.8510 C   0  0  0  0  0  2  0  0  0  0  0  0
  160.8850  201.4630  148.8230 C   0  0  0  0  0  3  0  0  0  0  0  0
  160.9370  202.7990  150.8050 C   0  0  0  0  0  0  0  0  0  0  0  0
  160.8200  201.5440  150.1210 N   0  0  0  0  0  0  0  0  0  0  0  0
  161.2040  203.8750  148.5450 C   0  0  0  0  0  3  0  0  0  0  0  0
  161.1370  204.0270  150.0110 C   0  0  0  0  0  0  0  0  0  0  0  0
  161.0840  202.6660  147.9870 C   0  0  0  0  0  3  0  0  0  0  0  0
  160.8700  202.8370  152.0620 O   0  0  0  0  0  0  0  0  0  0  0  0
  161.2520  205.2170  150.6050 C   0  0  0  0  0  3  0  0  0  0  0  0
  1  2  1  0  0  0  0
  2  4  1  0  0  0  0
  3 22  1  0  0  0  0
  3  2  2  0  0  0  0
  5  1  2  0  0  0  0
  6  3  1  0  0  0  0
  7  6  2  0  0  0  0
  7  5  1  0  0  0  0
  8 11  1  0  0  0  0
  9 11  2  0  0  0  0
 10  9  1  0  0  0  0
 11  7  1  0  0  0  0
 12 10  2  0  0  0  0
 12 13  1  0  0  0  0
 13  8  2  0  0  0  0
 14 12  1  0  0  0  0
 15 14  1  0  0  0  0
 16 15  2  0  0  0  0
 17 18  1  0  0  0  0
 19 21  1  0  0  0  0
 19 17  1  0  0  0  0
 20 18  1  0  0  0  0
 20 15  1  0  0  0  0
 21 20  1  0  0  0  0
 22 25  1  0  0  0  0
 23 22  2  0  0  0  0
 25 24  3  0  0  0  0
 26 23  1  0  0  0  0
 27 35  1  0  0  0  0
 27 26  1  0  0  0  0
 28 30  2  0  0  0  0
 29 34  2  0  0  0  0
 30 29  1  0  0  0  0
 31 32  1  0  0  0  0
 32 35  2  0  0  0  0
 32 29  1  0  0  0  0
 33 31  2  0  0  0  0
 33 28  1  0  0  0  0
M  END
>  <MODEL>
8

>  <REMARK>
 VINA RESULT:      -6.5      1.999      2.836
  Name = 
  8 active torsions:
  status: ('A' for Active; 'I' for Inactive)
    1  A    between atoms: C_2  and  O_26
    2  A    between atoms: C_8  and  C_11
    3  A    between atoms: C_8  and  C_21
    4  A    between atoms: C_14  and  C_16
    5  A    between atoms: C_14  and  C_31
    6  A    between atoms: O_26  and  C_34
    7  A    between atoms: C_28  and  C_33
    8  A    between atoms: C_31  and  C_32
                            x       y       z     vdW  Elec       q    Type
                         _______ _______ _______ _____ _____    ______ ____

>  <TORSDO>
F 8

$$$$
=
 OpenBabel11052410443D

 35 38  0  0  0  0  0  0  0  0999 V2000
  160.8540  204.1180  145.2220 C   0  0  0  0  0  3  0  0  0  0  0  0
  160.8290  202.8640  145.8370 C   0  0  0  0  0  0  0  0  0  0  0  0
  161.0280  202.7560  147.2290 C   0  0  0  0  0  0  0  0  0  0  0  0
  160.6250  201.7350  145.0530 O   0  0  0  0  0  1  0  0  0  0  0  0
  161.0730  205.2710  145.9780 C   0  0  0  0  0  3  0  0  0  0  0  0
  161.2420  203.9260  147.9750 C   0  0  0  0  0  3  0  0  0  0  0  0
  161.2720  205.1880  147.3640 C   0  0  0  0  0  0  0  0  0  0  0  0
  160.6540  206.7380  149.2350 C   0  0  0  0  0  3  0  0  0  0  0  0
  162.5820  207.2630  147.8770 C   0  0  0  0  0  3  0  0  0  0  0  0
  162.8030  208.4160  148.6360 C   0  0  0  0  0  3  0  0  0  0  0  0
  161.5050  206.4100  148.1680 C   0  0  0  0  0  0  0  0  0  0  0  0
  161.9560  208.7390  149.7010 C   0  0  0  0  0  0  0  0  0  0  0  0
  160.8770  207.8900  149.9940 C   0  0  0  0  0  3  0  0  0  0  0  0
  162.2230  209.9050  150.4330 O   0  0  0  0  0  0  0  0  0  0  0  0
  161.4930  211.1050  150.3860 C   0  0  0  0  0  0  0  0  0  0  0  0
  161.5810  211.8810  149.3960 O   0  0  0  0  0  0  0  0  0  0  0  0
  159.3470  211.0800  153.4680 C   0  0  0  0  0  2  0  0  0  0  0  0
  160.5240  210.5940  152.6480 C   0  0  0  0  0  2  0  0  0  0  0  0
  159.1100  212.8500  153.1330 S   0  0  0  0  0  0  0  0  0  0  0  0
  160.6350  211.4450  151.4790 N   0  0  0  0  0  0  0  0  0  0  0  0
  159.8460  212.6640  151.4830 C   0  0  0  0  0  2  0  0  0  0  0  0
  160.9700  201.4430  147.9200 C   0  0  0  0  0  0  0  0  0  0  0  0
  160.5910  201.3040  149.1950 C   0  0  0  0  0  3  0  0  0  0  0  0
  161.5810  199.2840  146.6140 N   0  0  0  0  0  0  0  0  0  0  0  0
  161.3090  200.2470  147.1960 C   0  0  0  0  0  0  0  0  0  0  0  0
  160.2330  202.4410  150.0920 C   0  0  0  0  0  2  0  0  0  0  0  0
  161.1620  202.4560  151.2860 C   0  0  0  0  0  2  0  0  0  0  0  0
  161.2970  206.9150  153.8810 C   0  0  0  0  0  3  0  0  0  0  0  0
  162.5430  205.9560  152.0800 C   0  0  0  0  0  0  0  0  0  0  0  0
  162.2580  207.0120  153.0070 N   0  0  0  0  0  0  0  0  0  0  0  0
  160.6520  204.6730  153.1360 C   0  0  0  0  0  3  0  0  0  0  0  0
  161.7250  204.7280  152.1250 C   0  0  0  0  0  0  0  0  0  0  0  0
  160.4510  205.7050  153.9620 C   0  0  0  0  0  3  0  0  0  0  0  0
  163.4810  206.0860  151.2500 O   0  0  0  0  0  0  0  0  0  0  0  0
  161.9560  203.7180  151.2820 C   0  0  0  0  0  3  0  0  0  0  0  0
  1  2  2  0  0  0  0
  1  5  1  0  0  0  0
  2  3  1  0  0  0  0
  3 22  1  0  0  0  0
  3  6  2  0  0  0  0
  4  2  1  0  0  0  0
  5  7  2  0  0  0  0
  7  6  1  0  0  0  0
  7 11  1  0  0  0  0
  8 13  1  0  0  0  0
  9 11  1  0  0  0  0
  9 10  2  0  0  0  0
 10 12  1  0  0  0  0
 11  8  2  0  0  0  0
 12 13  2  0  0  0  0
 12 14  1  0  0  0  0
 15 14  1  0  0  0  0
 15 20  1  0  0  0  0
 16 15  2  0  0  0  0
 18 17  1  0  0  0  0
 19 17  1  0  0  0  0
 20 21  1  0  0  0  0
 20 18  1  0  0  0  0
 21 19  1  0  0  0  0
 22 23  2  0  0  0  0
 23 26  1  0  0  0  0
 24 25  3  0  0  0  0
 25 22  1  0  0  0  0
 26 27  1  0  0  0  0
 28 33  1  0  0  0  0
 29 32  1  0  0  0  0
 29 30  1  0  0  0  0
 30 28  2  0  0  0  0
 31 33  2  0  0  0  0
 32 31  1  0  0  0  0
 34 29  2  0  0  0  0
 35 27  1  0  0  0  0
 35 32  2  0  0  0  0
M  END
>  <MODEL>
9

>  <REMARK>
 VINA RESULT:      -6.5      3.854      8.225
  Name = 
  8 active torsions:
  status: ('A' for Active; 'I' for Inactive)
    1  A    between atoms: C_2  and  O_26
    2  A    between atoms: C_8  and  C_11
    3  A    between atoms: C_8  and  C_21
    4  A    between atoms: C_14  and  C_16
    5  A    between atoms: C_14  and  C_31
    6  A    between atoms: O_26  and  C_34
    7  A    between atoms: C_28  and  C_33
    8  A    between atoms: C_31  and  C_32
                            x       y       z     vdW  Elec       q    Type
                         _______ _______ _______ _____ _____    ______ ____

>  <TORSDO>
F 8

$$$$
