=
 OpenBabel11042420303D

 31 35  0  0  1  0  0  0  0  0999 V2000
  161.1560  205.4900  153.4050 C   0  0  0  0  0  2  0  0  0  0  0  0
  161.0060  206.9870  153.7220 C   0  0  0  0  0  2  0  0  0  0  0  0
  161.2670  207.9010  152.5130 C   0  0  2  0  0  3  0  0  0  0  0  0
  160.8280  205.1900  151.9440 C   0  0  0  0  0  2  0  0  0  0  0  0
  162.3010  207.2650  151.5830 C   0  0  0  0  0  2  0  0  0  0  0  0
  161.7610  205.9520  150.9890 C   0  0  2  0  0  3  0  0  0  0  0  0
  159.4790  210.3070  153.5660 N   0  0  0  0  0  0  0  0  0  0  0  0
  161.7940  211.1990  151.0380 C   0  0  2  0  0  3  0  0  0  0  0  0
  158.7970  211.3570  153.0520 C   0  0  0  0  0  0  0  0  0  0  0  0
  162.9550  209.9800  151.7880 S   0  0  0  0  0  0  0  0  0  0  0  0
  160.6090  211.1520  151.9140 C   0  0  0  0  0  0  0  0  0  0  0  0
  159.4750  211.9380  151.9740 C   0  0  0  0  0  3  0  0  0  0  0  0
  161.6900  209.3050  152.9530 C   0  0  1  0  0  3  0  0  0  0  0  0
  160.5750  210.2180  152.8420 N   0  0  0  0  0  0  0  0  0  0  0  0
  157.2510  211.3550  154.9810 C   0  0  0  0  0  2  0  0  0  0  0  0
  157.6150  212.7900  154.6690 C   0  0  2  0  0  3  0  0  0  0  0  0
  156.3710  213.6490  154.7460 C   0  0  0  0  0  1  0  0  0  0  0  0
  157.4520  211.7880  153.5400 C   0  0  1  0  0  3  0  0  0  0  0  0
  161.3370  210.6410  149.3690 S   0  0  0  0  0  0  0  0  0  0  0  0
  162.1020  212.0870  148.5830 C   0  0  0  0  0  1  0  0  0  0  0  0
  161.3920  207.4400  149.1370 O   0  0  0  0  0  1  0  0  0  0  0  0
  161.0680  206.1740  149.6390 C   0  0  1  0  0  3  0  0  0  0  0  0
  161.4380  205.0650  148.6300 C   0  0  1  0  0  3  0  0  0  0  0  0
  161.1140  202.7510  147.8920 O   0  0  0  0  0  0  0  0  0  0  0  0
  161.2040  202.6490  149.2910 C   0  0  0  0  0  2  0  0  0  0  0  0
  160.5460  203.8040  148.6350 C   0  0  1  0  0  3  0  0  0  0  0  0
  162.8370  205.6310  146.7190 C   0  0  0  0  0  2  0  0  0  0  0  0
  161.6120  205.5810  147.2330 C   0  0  0  0  0  0  0  0  0  0  0  0
  160.4900  205.9970  146.5050 O   0  0  0  0  0  0  0  0  0  0  0  0
  160.4680  204.5240  144.6150 C   0  0  0  0  0  1  0  0  0  0  0  0
  160.4310  205.9630  145.0860 C   0  0  0  0  0  2  0  0  0  0  0  0
  1  2  1  0  0  0  0
  3  5  1  6  0  0  0
  3 13  1  0  0  0  0
  3  2  1  0  0  0  0
  4  1  1  0  0  0  0
  6 22  1  6  0  0  0
  6  5  1  0  0  0  0
  6  4  1  0  0  0  0
  8 19  1  6  0  0  0
  8 10  1  0  0  0  0
  8 11  1  0  0  0  0
  9  7  2  0  0  0  0
 11 12  2  0  0  0  0
 11 14  1  0  0  0  0
 12  9  1  0  0  0  0
 13 10  1  6  0  0  0
 14 13  1  0  0  0  0
 14  7  1  0  0  0  0
 16 17  1  6  0  0  0
 16 15  1  0  0  0  0
 18  9  1  1  0  0  0
 18 16  1  0  0  0  0
 18 15  1  0  0  0  0
 20 19  1  0  0  0  0
 22 21  1  6  0  0  0
 23 28  1  6  0  0  0
 23 22  1  0  0  0  0
 24 26  1  0  0  0  0
 24 25  1  0  0  0  0
 26 23  1  6  0  0  0
 26 25  1  0  0  0  0
 27 28  2  0  0  0  0
 29 28  1  0  0  0  0
 30 31  1  0  0  0  0
 31 29  1  0  0  0  0
M  END
>  <MODEL>
1

>  <REMARK>
 VINA RESULT:      -5.1      0.000      0.000
  Name = 
  9 active torsions:
  status: ('A' for Active; 'I' for Inactive)
    1  A    between atoms: C_4  and  S_22
    2  A    between atoms: C_10  and  C_21
    3  A    between atoms: C_13  and  C_25
    4  A    between atoms: C_16  and  C_20
    5  A    between atoms: C_16  and  C_27
    6  A    between atoms: C_17  and  C_20
    7  A    between atoms: C_17  and  O_31
    8  A    between atoms: C_20  and  C_30
    9  A    between atoms: C_29  and  O_31
                            x       y       z     vdW  Elec       q    Type
                         _______ _______ _______ _____ _____    ______ ____

>  <TORSDO>
F 9

$$$$
=
 OpenBabel11042420303D

 31 35  0  0  1  0  0  0  0  0999 V2000
  160.9050  205.3040  151.9990 C   0  0  0  0  0  2  0  0  0  0  0  0
  160.8740  206.7170  152.6030 C   0  0  0  0  0  2  0  0  0  0  0  0
  161.2100  207.8270  151.5930 C   0  0  2  0  0  3  0  0  0  0  0  0
  160.5590  205.3220  150.5110 C   0  0  0  0  0  2  0  0  0  0  0  0
  162.1930  207.3060  150.5440 C   0  0  0  0  0  2  0  0  0  0  0  0
  161.5520  206.1810  149.7110 C   0  0  2  0  0  3  0  0  0  0  0  0
  159.6310  210.0390  153.2380 N   0  0  0  0  0  0  0  0  0  0  0  0
  161.8710  211.3330  150.8180 C   0  0  2  0  0  3  0  0  0  0  0  0
  158.9920  211.2090  153.0010 C   0  0  0  0  0  0  0  0  0  0  0  0
  162.9880  209.9240  151.2210 S   0  0  0  0  0  0  0  0  0  0  0  0
  160.7290  211.1600  151.7360 C   0  0  0  0  0  0  0  0  0  0  0  0
  159.6520  211.9710  152.0300 C   0  0  0  0  0  3  0  0  0  0  0  0
  161.7420  209.0810  152.2920 C   0  0  1  0  0  3  0  0  0  0  0  0
  160.6820  210.0520  152.4460 N   0  0  0  0  0  0  0  0  0  0  0  0
  157.7110  211.1940  155.1150 C   0  0  0  0  0  2  0  0  0  0  0  0
  157.9620  212.6330  154.7250 C   0  0  2  0  0  3  0  0  0  0  0  0
  156.6980  213.4380  154.9440 C   0  0  0  0  0  1  0  0  0  0  0  0
  157.7020  211.5930  153.6510 C   0  0  1  0  0  3  0  0  0  0  0  0
  161.2970  211.1700  149.1010 S   0  0  0  0  0  0  0  0  0  0  0  0
  161.3390  212.9650  148.8270 C   0  0  0  0  0  1  0  0  0  0  0  0
  161.5120  207.8980  148.0290 O   0  0  0  0  0  1  0  0  0  0  0  0
  160.8830  206.7160  148.4400 C   0  0  1  0  0  3  0  0  0  0  0  0
  160.8950  205.6600  147.3130 C   0  0  1  0  0  3  0  0  0  0  0  0
  160.6550  205.1480  144.9290 O   0  0  0  0  0  0  0  0  0  0  0  0
  159.4470  205.7870  145.2590 C   0  0  0  0  0  2  0  0  0  0  0  0
  160.7360  206.1920  145.8710 C   0  0  1  0  0  3  0  0  0  0  0  0
  163.2010  205.0640  146.8090 C   0  0  0  0  0  2  0  0  0  0  0  0
  162.0610  204.7230  147.4030 C   0  0  0  0  0  0  0  0  0  0  0  0
  161.9270  203.5170  148.1040 O   0  0  0  0  0  0  0  0  0  0  0  0
  160.5370  201.8170  149.0630 C   0  0  0  0  0  1  0  0  0  0  0  0
  160.9310  202.5510  147.7990 C   0  0  0  0  0  2  0  0  0  0  0  0
  1  2  1  0  0  0  0
  3  5  1  6  0  0  0
  3 13  1  0  0  0  0
  3  2  1  0  0  0  0
  4  1  1  0  0  0  0
  6 22  1  6  0  0  0
  6  4  1  0  0  0  0
  6  5  1  0  0  0  0
  8 19  1  6  0  0  0
  8 10  1  0  0  0  0
  8 11  1  0  0  0  0
  9  7  2  0  0  0  0
 11 12  2  0  0  0  0
 11 14  1  0  0  0  0
 12  9  1  0  0  0  0
 13 10  1  6  0  0  0
 13 14  1  0  0  0  0
 14  7  1  0  0  0  0
 16 17  1  1  0  0  0
 16 15  1  0  0  0  0
 18  9  1  6  0  0  0
 18 16  1  0  0  0  0
 18 15  1  0  0  0  0
 20 19  1  0  0  0  0
 22 21  1  6  0  0  0
 23 28  1  6  0  0  0
 23 22  1  0  0  0  0
 24 25  1  0  0  0  0
 24 26  1  0  0  0  0
 25 26  1  0  0  0  0
 26 23  1  1  0  0  0
 27 28  2  0  0  0  0
 28 29  1  0  0  0  0
 31 29  1  0  0  0  0
 31 30  1  0  0  0  0
M  END
>  <MODEL>
2

>  <REMARK>
 VINA RESULT:      -5.0      0.945      2.084
  Name = 
  9 active torsions:
  status: ('A' for Active; 'I' for Inactive)
    1  A    between atoms: C_4  and  S_22
    2  A    between atoms: C_10  and  C_21
    3  A    between atoms: C_13  and  C_25
    4  A    between atoms: C_16  and  C_20
    5  A    between atoms: C_16  and  C_27
    6  A    between atoms: C_17  and  C_20
    7  A    between atoms: C_17  and  O_31
    8  A    between atoms: C_20  and  C_30
    9  A    between atoms: C_29  and  O_31
                            x       y       z     vdW  Elec       q    Type
                         _______ _______ _______ _____ _____    ______ ____

>  <TORSDO>
F 9

$$$$
=
 OpenBabel11042420303D

 31 35  0  0  1  0  0  0  0  0999 V2000
  161.0980  211.0560  151.9270 C   0  0  0  0  0  2  0  0  0  0  0  0
  160.7960  210.8290  153.4170 C   0  0  0  0  0  2  0  0  0  0  0  0
  160.7370  209.3430  153.8130 C   0  0  2  0  0  3  0  0  0  0  0  0
  161.9360  209.9210  151.3430 C   0  0  0  0  0  2  0  0  0  0  0  0
  160.2290  208.5040  152.6410 C   0  0  0  0  0  2  0  0  0  0  0  0
  161.2120  208.5690  151.4580 C   0  0  2  0  0  3  0  0  0  0  0  0
  158.1110  210.8630  154.7540 N   0  0  0  0  0  0  0  0  0  0  0  0
  160.5920  210.5350  157.2610 C   0  0  2  0  0  3  0  0  0  0  0  0
  157.7840  211.9560  155.4830 C   0  0  0  0  0  0  0  0  0  0  0  0
  160.9860  208.8860  156.5380 S   0  0  0  0  0  0  0  0  0  0  0  0
  159.4680  211.0280  156.4430 C   0  0  0  0  0  0  0  0  0  0  0  0
  158.6340  212.1180  156.5830 C   0  0  0  0  0  3  0  0  0  0  0  0
  159.8900  209.1310  155.0700 C   0  0  1  0  0  3  0  0  0  0  0  0
  159.1410  210.3290  155.3750 N   0  0  0  0  0  0  0  0  0  0  0  0
  157.2580  214.2890  154.8550 C   0  0  0  0  0  2  0  0  0  0  0  0
  156.9070  213.3940  153.6870 C   0  0  2  0  0  3  0  0  0  0  0  0
  155.5750  213.8260  153.1100 C   0  0  0  0  0  1  0  0  0  0  0  0
  156.6910  212.9040  155.1070 C   0  0  1  0  0  3  0  0  0  0  0  0
  162.0230  211.6370  157.0510 S   0  0  0  0  0  0  0  0  0  0  0  0
  163.1140  210.2690  156.5690 C   0  0  0  0  0  1  0  0  0  0  0  0
  162.2910  206.8780  152.7830 O   0  0  0  0  0  1  0  0  0  0  0  0
  162.2320  207.4260  151.4950 C   0  0  1  0  0  3  0  0  0  0  0  0
  161.8990  206.3420  150.4460 C   0  0  1  0  0  3  0  0  0  0  0  0
  160.8610  204.1460  150.1320 O   0  0  0  0  0  0  0  0  0  0  0  0
  161.2020  204.1650  151.4960 C   0  0  0  0  0  2  0  0  0  0  0  0
  160.7380  205.3840  150.7920 C   0  0  1  0  0  3  0  0  0  0  0  0
  162.6480  207.7400  148.5980 C   0  0  0  0  0  2  0  0  0  0  0  0
  161.7290  206.9000  149.0650 C   0  0  0  0  0  0  0  0  0  0  0  0
  160.6160  206.5270  148.3010 O   0  0  0  0  0  0  0  0  0  0  0  0
  161.3800  204.9110  146.7050 C   0  0  0  0  0  1  0  0  0  0  0  0
  160.6900  206.2430  146.9110 C   0  0  0  0  0  2  0  0  0  0  0  0
  1  2  1  0  0  0  0
  2  3  1  0  0  0  0
  3  5  1  6  0  0  0
  3 13  1  0  0  0  0
  4  6  1  0  0  0  0
  4  1  1  0  0  0  0
  6 22  1  1  0  0  0
  6  5  1  0  0  0  0
  7 14  1  0  0  0  0
  7  9  2  0  0  0  0
  8 19  1  6  0  0  0
  9 12  1  0  0  0  0
 10  8  1  0  0  0  0
 11 12  2  0  0  0  0
 11  8  1  0  0  0  0
 13 14  1  0  0  0  0
 13 10  1  1  0  0  0
 14 11  1  0  0  0  0
 15 18  1  0  0  0  0
 16 17  1  6  0  0  0
 16 15  1  0  0  0  0
 16 18  1  0  0  0  0
 18  9  1  1  0  0  0
 20 19  1  0  0  0  0
 22 21  1  1  0  0  0
 23 28  1  6  0  0  0
 23 22  1  0  0  0  0
 24 26  1  0  0  0  0
 24 25  1  0  0  0  0
 26 23  1  6  0  0  0
 26 25  1  0  0  0  0
 27 28  2  0  0  0  0
 29 28  1  0  0  0  0
 30 31  1  0  0  0  0
 31 29  1  0  0  0  0
M  END
>  <MODEL>
3

>  <REMARK>
 VINA RESULT:      -4.9      2.400      3.806
  Name = 
  9 active torsions:
  status: ('A' for Active; 'I' for Inactive)
    1  A    between atoms: C_4  and  S_22
    2  A    between atoms: C_10  and  C_21
    3  A    between atoms: C_13  and  C_25
    4  A    between atoms: C_16  and  C_20
    5  A    between atoms: C_16  and  C_27
    6  A    between atoms: C_17  and  C_20
    7  A    between atoms: C_17  and  O_31
    8  A    between atoms: C_20  and  C_30
    9  A    between atoms: C_29  and  O_31
                            x       y       z     vdW  Elec       q    Type
                         _______ _______ _______ _____ _____    ______ ____

>  <TORSDO>
F 9

$$$$
=
 OpenBabel11042420303D

 31 35  0  0  1  0  0  0  0  0999 V2000
  160.9430  208.4110  152.4610 C   0  0  0  0  0  2  0  0  0  0  0  0
  160.9170  209.8790  152.0060 C   0  0  0  0  0  2  0  0  0  0  0  0
  161.4020  210.0840  150.5610 C   0  0  2  0  0  3  0  0  0  0  0  0
  160.7450  207.4550  151.2860 C   0  0  0  0  0  2  0  0  0  0  0  0
  162.4580  209.0370  150.2050 C   0  0  0  0  0  2  0  0  0  0  0  0
  161.8510  207.6220  150.2320 C   0  0  2  0  0  3  0  0  0  0  0  0
  160.1130  212.8550  151.4280 N   0  0  0  0  0  0  0  0  0  0  0  0
  161.1810  212.7280  148.0530 C   0  0  2  0  0  3  0  0  0  0  0  0
  159.2480  213.7660  150.9250 C   0  0  0  0  0  0  0  0  0  0  0  0
  162.5850  211.6790  148.6240 S   0  0  0  0  0  0  0  0  0  0  0  0
  160.4520  213.0580  149.2920 C   0  0  0  0  0  0  0  0  0  0  0  0
  159.4140  213.9320  149.5460 C   0  0  0  0  0  3  0  0  0  0  0  0
  161.9200  211.5070  150.3390 C   0  0  1  0  0  3  0  0  0  0  0  0
  160.8260  212.4500  150.3990 N   0  0  0  0  0  0  0  0  0  0  0  0
  156.8360  214.2790  151.1020 C   0  0  0  0  0  2  0  0  0  0  0  0
  157.2250  213.4230  152.2870 C   0  0  2  0  0  3  0  0  0  0  0  0
  156.5760  213.9780  153.5380 C   0  0  0  0  0  1  0  0  0  0  0  0
  158.2000  214.4510  151.7430 C   0  0  1  0  0  3  0  0  0  0  0  0
  160.1070  211.7470  146.9620 S   0  0  0  0  0  0  0  0  0  0  0  0
  160.0310  213.0620  145.7130 C   0  0  0  0  0  1  0  0  0  0  0  0
  161.9160  207.9840  147.8560 O   0  0  0  0  0  1  0  0  0  0  0  0
  161.3350  207.1920  148.8540 C   0  0  1  0  0  3  0  0  0  0  0  0
  161.6030  205.6920  148.5980 C   0  0  1  0  0  3  0  0  0  0  0  0
  160.9970  203.3600  149.0420 O   0  0  0  0  0  0  0  0  0  0  0  0
  161.1810  203.9100  150.3230 C   0  0  0  0  0  2  0  0  0  0  0  0
  160.5930  204.6990  149.2140 C   0  0  1  0  0  3  0  0  0  0  0  0
  163.0540  205.0210  146.7620 C   0  0  0  0  0  2  0  0  0  0  0  0
  161.8340  205.3790  147.1500 C   0  0  0  0  0  0  0  0  0  0  0  0
  160.7690  205.4700  146.2450 O   0  0  0  0  0  0  0  0  0  0  0  0
  161.2960  205.6210  143.9120 C   0  0  0  0  0  1  0  0  0  0  0  0
  160.7330  204.7540  145.0180 C   0  0  0  0  0  2  0  0  0  0  0  0
  2  1  1  0  0  0  0
  3  5  1  1  0  0  0
  3  2  1  0  0  0  0
  4  1  1  0  0  0  0
  5  6  1  0  0  0  0
  6 22  1  6  0  0  0
  6  4  1  0  0  0  0
  8 19  1  6  0  0  0
  8 10  1  0  0  0  0
  8 11  1  0  0  0  0
  9  7  2  0  0  0  0
 11 12  2  0  0  0  0
 11 14  1  0  0  0  0
 12  9  1  0  0  0  0
 13 10  1  6  0  0  0
 13 14  1  0  0  0  0
 13  3  1  0  0  0  0
 14  7  1  0  0  0  0
 15 18  1  0  0  0  0
 15 16  1  0  0  0  0
 16 17  1  1  0  0  0
 18  9  1  6  0  0  0
 18 16  1  0  0  0  0
 20 19  1  0  0  0  0
 22 21  1  6  0  0  0
 23 28  1  6  0  0  0
 23 22  1  0  0  0  0
 24 26  1  0  0  0  0
 24 25  1  0  0  0  0
 26 23  1  6  0  0  0
 26 25  1  0  0  0  0
 27 28  2  0  0  0  0
 29 28  1  0  0  0  0
 30 31  1  0  0  0  0
 31 29  1  0  0  0  0
M  END
>  <MODEL>
4

>  <REMARK>
 VINA RESULT:      -4.5      1.957      2.618
  Name = 
  9 active torsions:
  status: ('A' for Active; 'I' for Inactive)
    1  A    between atoms: C_4  and  S_22
    2  A    between atoms: C_10  and  C_21
    3  A    between atoms: C_13  and  C_25
    4  A    between atoms: C_16  and  C_20
    5  A    between atoms: C_16  and  C_27
    6  A    between atoms: C_17  and  C_20
    7  A    between atoms: C_17  and  O_31
    8  A    between atoms: C_20  and  C_30
    9  A    between atoms: C_29  and  O_31
                            x       y       z     vdW  Elec       q    Type
                         _______ _______ _______ _____ _____    ______ ____

>  <TORSDO>
F 9

$$$$
=
 OpenBabel11042420303D

 31 35  0  0  1  0  0  0  0  0999 V2000
  161.6010  211.1710  150.3200 C   0  0  0  0  0  2  0  0  0  0  0  0
  161.9560  209.7820  149.7670 C   0  0  0  0  0  2  0  0  0  0  0  0
  161.9300  208.6710  150.8310 C   0  0  2  0  0  3  0  0  0  0  0  0
  160.6590  211.0750  151.5180 C   0  0  0  0  0  2  0  0  0  0  0  0
  162.3230  209.2370  152.1960 C   0  0  0  0  0  2  0  0  0  0  0  0
  161.2910  210.2770  152.6700 C   0  0  2  0  0  3  0  0  0  0  0  0
  161.9280  206.9630  148.1510 N   0  0  0  0  0  0  0  0  0  0  0  0
  161.9560  205.0310  151.1200 C   0  0  2  0  0  3  0  0  0  0  0  0
  161.3200  205.8580  147.6600 C   0  0  0  0  0  0  0  0  0  0  0  0
  163.0230  206.3390  151.8620 S   0  0  0  0  0  0  0  0  0  0  0  0
  161.7370  205.4890  149.7360 C   0  0  0  0  0  0  0  0  0  0  0  0
  161.1610  204.8740  148.6420 C   0  0  0  0  0  3  0  0  0  0  0  0
  162.8190  207.4900  150.4320 C   0  0  1  0  0  3  0  0  0  0  0  0
  162.1640  206.6940  149.4180 N   0  0  0  0  0  0  0  0  0  0  0  0
  161.9810  205.7950  145.2780 C   0  0  0  0  0  2  0  0  0  0  0  0
  161.3470  204.4670  145.6280 C   0  0  2  0  0  3  0  0  0  0  0  0
  160.4140  204.0500  144.5110 C   0  0  0  0  0  1  0  0  0  0  0  0
  160.8210  205.7450  146.2550 C   0  0  1  0  0  3  0  0  0  0  0  0
  160.3670  204.9860  152.0020 S   0  0  0  0  0  0  0  0  0  0  0  0
  160.4660  203.1920  152.2630 C   0  0  0  0  0  1  0  0  0  0  0  0
  160.4560  208.2810  153.7180 O   0  0  0  0  0  1  0  0  0  0  0  0
  160.1970  209.6460  153.5380 C   0  0  1  0  0  3  0  0  0  0  0  0
  160.0690  210.3710  154.8950 C   0  0  1  0  0  3  0  0  0  0  0  0
  161.2950  211.2800  156.8120 O   0  0  0  0  0  0  0  0  0  0  0  0
  162.1130  210.2310  156.3560 C   0  0  0  0  0  2  0  0  0  0  0  0
  161.3380  211.0790  155.4180 C   0  0  1  0  0  3  0  0  0  0  0  0
  159.0420  212.5540  154.5640 C   0  0  0  0  0  2  0  0  0  0  0  0
  158.8880  211.2930  154.9560 C   0  0  0  0  0  0  0  0  0  0  0  0
  157.6580  210.8110  155.4210 O   0  0  0  0  0  0  0  0  0  0  0  0
  155.3200  210.3290  155.2090 C   0  0  0  0  0  1  0  0  0  0  0  0
  156.4100  211.3630  155.0250 C   0  0  0  0  0  2  0  0  0  0  0  0
  1  4  1  0  0  0  0
  2  1  1  0  0  0  0
  3  2  1  6  0  0  0
  3  5  1  0  0  0  0
  4  6  1  0  0  0  0
  5  6  1  0  0  0  0
  6 22  1  6  0  0  0
  7 14  1  0  0  0  0
  8 10  1  0  0  0  0
  8 19  1  1  0  0  0
  9  7  2  0  0  0  0
  9 12  1  0  0  0  0
 11  8  1  0  0  0  0
 12 11  2  0  0  0  0
 13  3  1  0  0  0  0
 13 10  1  1  0  0  0
 14 11  1  0  0  0  0
 14 13  1  0  0  0  0
 15 16  1  0  0  0  0
 15 18  1  0  0  0  0
 16 17  1  6  0  0  0
 16 18  1  0  0  0  0
 18  9  1  1  0  0  0
 19 20  1  0  0  0  0
 22 21  1  1  0  0  0
 22 23  1  0  0  0  0
 23 28  1  6  0  0  0
 25 24  1  0  0  0  0
 26 23  1  1  0  0  0
 26 25  1  0  0  0  0
 26 24  1  0  0  0  0
 27 28  2  0  0  0  0
 28 29  1  0  0  0  0
 31 30  1  0  0  0  0
 31 29  1  0  0  0  0
M  END
>  <MODEL>
5

>  <REMARK>
 VINA RESULT:      -4.4      3.270      8.663
  Name = 
  9 active torsions:
  status: ('A' for Active; 'I' for Inactive)
    1  A    between atoms: C_4  and  S_22
    2  A    between atoms: C_10  and  C_21
    3  A    between atoms: C_13  and  C_25
    4  A    between atoms: C_16  and  C_20
    5  A    between atoms: C_16  and  C_27
    6  A    between atoms: C_17  and  C_20
    7  A    between atoms: C_17  and  O_31
    8  A    between atoms: C_20  and  C_30
    9  A    between atoms: C_29  and  O_31
                            x       y       z     vdW  Elec       q    Type
                         _______ _______ _______ _____ _____    ______ ____

>  <TORSDO>
F 9

$$$$
=
 OpenBabel11042420303D

 31 35  0  0  1  0  0  0  0  0999 V2000
  160.0390  212.5260  151.3760 C   0  0  0  0  0  2  0  0  0  0  0  0
  160.8610  211.2420  151.5760 C   0  0  0  0  0  2  0  0  0  0  0  0
  160.7020  210.6220  152.9750 C   0  0  2  0  0  3  0  0  0  0  0  0
  158.7780  212.5260  152.2390 C   0  0  0  0  0  2  0  0  0  0  0  0
  160.4520  211.7160  154.0130 C   0  0  0  0  0  2  0  0  0  0  0  0
  159.1200  212.4340  153.7350 C   0  0  2  0  0  3  0  0  0  0  0  0
  161.8870  208.0760  151.4890 N   0  0  0  0  0  0  0  0  0  0  0  0
  161.4500  207.6640  154.9810 C   0  0  2  0  0  3  0  0  0  0  0  0
  161.7170  206.7330  151.4990 C   0  0  0  0  0  0  0  0  0  0  0  0
  161.9250  209.4350  155.1650 S   0  0  0  0  0  0  0  0  0  0  0  0
  161.5610  207.4100  153.5320 C   0  0  0  0  0  0  0  0  0  0  0  0
  161.4930  206.2470  152.7920 C   0  0  0  0  0  3  0  0  0  0  0  0
  161.9100  209.7560  153.3460 C   0  0  1  0  0  3  0  0  0  0  0  0
  161.7840  208.4460  152.7490 N   0  0  0  0  0  0  0  0  0  0  0  0
  160.7040  204.7600  150.4060 C   0  0  0  0  0  2  0  0  0  0  0  0
  160.3410  205.9860  149.5980 C   0  0  2  0  0  3  0  0  0  0  0  0
  160.4920  205.6750  148.1240 C   0  0  0  0  0  1  0  0  0  0  0  0
  161.7030  205.8930  150.2620 C   0  0  1  0  0  3  0  0  0  0  0  0
  159.7210  207.4510  155.5010 S   0  0  0  0  0  0  0  0  0  0  0  0
  159.9870  208.3590  157.0510 C   0  0  0  0  0  1  0  0  0  0  0  0
  158.3610  210.5910  155.0800 O   0  0  0  0  0  1  0  0  0  0  0  0
  157.9540  211.8020  154.5040 C   0  0  1  0  0  3  0  0  0  0  0  0
  157.3990  212.7660  155.5750 C   0  0  1  0  0  3  0  0  0  0  0  0
  158.0250  214.4310  157.2600 O   0  0  0  0  0  0  0  0  0  0  0  0
  159.1830  213.6460  157.1160 C   0  0  0  0  0  2  0  0  0  0  0  0
  158.3040  213.9570  155.9630 C   0  0  1  0  0  3  0  0  0  0  0  0
  155.6730  213.4600  154.0040 C   0  0  0  0  0  2  0  0  0  0  0  0
  156.0090  213.2380  155.2710 C   0  0  0  0  0  0  0  0  0  0  0  0
  155.1000  213.4330  156.3200 O   0  0  0  0  0  0  0  0  0  0  0  0
  154.9080  211.0620  156.6050 C   0  0  0  0  0  1  0  0  0  0  0  0
  154.7740  212.4190  157.2610 C   0  0  0  0  0  2  0  0  0  0  0  0
  1  2  1  0  0  0  0
  1  4  1  0  0  0  0
  3  2  1  6  0  0  0
  3 13  1  0  0  0  0
  3  5  1  0  0  0  0
  4  6  1  0  0  0  0
  6  5  1  0  0  0  0
  6 22  1  1  0  0  0
  7  9  2  0  0  0  0
  7 14  1  0  0  0  0
  8 10  1  0  0  0  0
  8 19  1  6  0  0  0
  9 12  1  0  0  0  0
 11  8  1  0  0  0  0
 12 11  2  0  0  0  0
 13 10  1  1  0  0  0
 14 13  1  0  0  0  0
 14 11  1  0  0  0  0
 16 17  1  6  0  0  0
 16 18  1  0  0  0  0
 16 15  1  0  0  0  0
 18 15  1  0  0  0  0
 18  9  1  1  0  0  0
 19 20  1  0  0  0  0
 22 21  1  1  0  0  0
 22 23  1  0  0  0  0
 23 28  1  6  0  0  0
 25 24  1  0  0  0  0
 26 23  1  1  0  0  0
 26 25  1  0  0  0  0
 26 24  1  0  0  0  0
 27 28  2  0  0  0  0
 28 29  1  0  0  0  0
 29 31  1  0  0  0  0
 30 31  1  0  0  0  0
M  END
>  <MODEL>
6

>  <REMARK>
 VINA RESULT:      -4.3      3.732      9.206
  Name = 
  9 active torsions:
  status: ('A' for Active; 'I' for Inactive)
    1  A    between atoms: C_4  and  S_22
    2  A    between atoms: C_10  and  C_21
    3  A    between atoms: C_13  and  C_25
    4  A    between atoms: C_16  and  C_20
    5  A    between atoms: C_16  and  C_27
    6  A    between atoms: C_17  and  C_20
    7  A    between atoms: C_17  and  O_31
    8  A    between atoms: C_20  and  C_30
    9  A    between atoms: C_29  and  O_31
                            x       y       z     vdW  Elec       q    Type
                         _______ _______ _______ _____ _____    ______ ____

>  <TORSDO>
F 9

$$$$
=
 OpenBabel11042420303D

 31 35  0  0  1  0  0  0  0  0999 V2000
  159.0390  211.8540  152.0140 C   0  0  0  0  0  2  0  0  0  0  0  0
  159.9730  210.6930  152.3910 C   0  0  0  0  0  2  0  0  0  0  0  0
  160.3230  210.6450  153.8880 C   0  0  2  0  0  3  0  0  0  0  0  0
  158.1310  212.2450  153.1790 C   0  0  0  0  0  2  0  0  0  0  0  0
  160.3450  212.0580  154.4710 C   0  0  0  0  0  2  0  0  0  0  0  0
  158.9460  212.6960  154.4020 C   0  0  2  0  0  3  0  0  0  0  0  0
  161.6700  208.3060  152.2110 N   0  0  0  0  0  0  0  0  0  0  0  0
  161.5500  207.7250  155.7030 C   0  0  2  0  0  3  0  0  0  0  0  0
  161.6540  206.9530  152.1730 C   0  0  0  0  0  0  0  0  0  0  0  0
  161.8360  209.5310  155.9290 S   0  0  0  0  0  0  0  0  0  0  0  0
  161.5780  207.5360  154.2400 C   0  0  0  0  0  0  0  0  0  0  0  0
  161.5850  206.4000  153.4570 C   0  0  0  0  0  3  0  0  0  0  0  0
  161.6450  209.9120  154.1320 C   0  0  1  0  0  3  0  0  0  0  0  0
  161.6230  208.6180  153.4890 N   0  0  0  0  0  0  0  0  0  0  0  0
  160.4550  205.2130  150.8910 C   0  0  0  0  0  2  0  0  0  0  0  0
  160.3960  206.5040  150.1050 C   0  0  2  0  0  3  0  0  0  0  0  0
  160.6580  206.2110  148.6430 C   0  0  0  0  0  1  0  0  0  0  0  0
  161.6390  206.1620  150.9050 C   0  0  1  0  0  3  0  0  0  0  0  0
  159.9010  207.2950  156.3370 S   0  0  0  0  0  0  0  0  0  0  0  0
  159.6510  208.9470  157.0470 C   0  0  0  0  0  1  0  0  0  0  0  0
  158.3330  213.5270  156.5730 O   0  0  0  0  0  1  0  0  0  0  0  0
  158.1430  212.4600  155.6870 C   0  0  1  0  0  3  0  0  0  0  0  0
  156.6440  212.2510  155.3810 C   0  0  1  0  0  3  0  0  0  0  0  0
  154.6570  210.8270  155.5470 O   0  0  0  0  0  0  0  0  0  0  0  0
  155.6040  210.0100  154.9050 C   0  0  0  0  0  2  0  0  0  0  0  0
  155.9950  210.9750  155.9610 C   0  0  1  0  0  3  0  0  0  0  0  0
  155.5550  213.7380  156.9720 C   0  0  0  0  0  2  0  0  0  0  0  0
  155.8100  213.4560  155.6980 C   0  0  0  0  0  0  0  0  0  0  0  0
  155.3220  214.2530  154.6540 O   0  0  0  0  0  0  0  0  0  0  0  0
  155.4690  214.4520  152.2710 C   0  0  0  0  0  1  0  0  0  0  0  0
  154.8360  213.7150  153.4320 C   0  0  0  0  0  2  0  0  0  0  0  0
  1  2  1  0  0  0  0
  1  4  1  0  0  0  0
  3  2  1  6  0  0  0
  3 13  1  0  0  0  0
  3  5  1  0  0  0  0
  4  6  1  0  0  0  0
  6  5  1  0  0  0  0
  6 22  1  1  0  0  0
  7 14  1  0  0  0  0
  8 10  1  0  0  0  0
  8 19  1  6  0  0  0
  9  7  2  0  0  0  0
  9 12  1  0  0  0  0
 11  8  1  0  0  0  0
 12 11  2  0  0  0  0
 13 10  1  1  0  0  0
 14 13  1  0  0  0  0
 14 11  1  0  0  0  0
 15 18  1  0  0  0  0
 16 17  1  6  0  0  0
 16 15  1  0  0  0  0
 16 18  1  0  0  0  0
 18  9  1  1  0  0  0
 19 20  1  0  0  0  0
 22 21  1  1  0  0  0
 23 22  1  0  0  0  0
 23 28  1  1  0  0  0
 24 26  1  0  0  0  0
 25 24  1  0  0  0  0
 25 26  1  0  0  0  0
 26 23  1  6  0  0  0
 28 27  2  0  0  0  0
 29 28  1  0  0  0  0
 30 31  1  0  0  0  0
 31 29  1  0  0  0  0
M  END
>  <MODEL>
7

>  <REMARK>
 VINA RESULT:      -4.3      4.324      8.884
  Name = 
  9 active torsions:
  status: ('A' for Active; 'I' for Inactive)
    1  A    between atoms: C_4  and  S_22
    2  A    between atoms: C_10  and  C_21
    3  A    between atoms: C_13  and  C_25
    4  A    between atoms: C_16  and  C_20
    5  A    between atoms: C_16  and  C_27
    6  A    between atoms: C_17  and  C_20
    7  A    between atoms: C_17  and  O_31
    8  A    between atoms: C_20  and  C_30
    9  A    between atoms: C_29  and  O_31
                            x       y       z     vdW  Elec       q    Type
                         _______ _______ _______ _____ _____    ______ ____

>  <TORSDO>
F 9

$$$$
=
 OpenBabel11042420303D

 31 35  0  0  1  0  0  0  0  0999 V2000
  161.7380  211.4440  149.5640 C   0  0  0  0  0  2  0  0  0  0  0  0
  162.0200  210.0490  148.9850 C   0  0  0  0  0  2  0  0  0  0  0  0
  161.9090  208.9190  150.0230 C   0  0  2  0  0  3  0  0  0  0  0  0
  160.7700  211.3790  150.7430 C   0  0  0  0  0  2  0  0  0  0  0  0
  162.3090  209.4300  151.4070 C   0  0  0  0  0  2  0  0  0  0  0  0
  161.3330  210.5190  151.8870 C   0  0  2  0  0  3  0  0  0  0  0  0
  161.5950  207.0400  147.4800 N   0  0  0  0  0  0  0  0  0  0  0  0
  161.9140  205.3060  150.5520 C   0  0  2  0  0  3  0  0  0  0  0  0
  160.9220  205.9190  147.1310 C   0  0  0  0  0  0  0  0  0  0  0  0
  163.0730  206.6360  151.0860 S   0  0  0  0  0  0  0  0  0  0  0  0
  161.5530  205.6770  149.1710 C   0  0  0  0  0  0  0  0  0  0  0  0
  160.8550  205.0050  148.1880 C   0  0  0  0  0  3  0  0  0  0  0  0
  162.7320  207.6950  149.6120 C   0  0  1  0  0  3  0  0  0  0  0  0
  161.9610  206.8490  148.7300 N   0  0  0  0  0  0  0  0  0  0  0  0
  161.3020  205.8460  144.6890 C   0  0  0  0  0  2  0  0  0  0  0  0
  160.8320  204.4800  145.1350 C   0  0  2  0  0  3  0  0  0  0  0  0
  159.8150  203.9540  144.1440 C   0  0  0  0  0  1  0  0  0  0  0  0
  160.2730  205.7250  145.7980 C   0  0  1  0  0  3  0  0  0  0  0  0
  160.4270  205.3520  151.5980 S   0  0  0  0  0  0  0  0  0  0  0  0
  161.3980  205.2480  153.1290 C   0  0  0  0  0  1  0  0  0  0  0  0
  160.4710  208.6080  153.0640 O   0  0  0  0  0  1  0  0  0  0  0  0
  160.1870  209.9360  152.7220 C   0  0  1  0  0  3  0  0  0  0  0  0
  159.9210  210.7890  153.9820 C   0  0  1  0  0  3  0  0  0  0  0  0
  158.4060  212.4480  154.9590 O   0  0  0  0  0  0  0  0  0  0  0  0
  158.2110  212.5890  153.5740 C   0  0  0  0  0  2  0  0  0  0  0  0
  158.4670  211.2670  154.1940 C   0  0  1  0  0  3  0  0  0  0  0  0
  161.6680  210.5200  155.6570 C   0  0  0  0  0  2  0  0  0  0  0  0
  160.4580  210.1640  155.2340 C   0  0  0  0  0  0  0  0  0  0  0  0
  159.6820  209.2260  155.9270 O   0  0  0  0  0  0  0  0  0  0  0  0
  160.1860  206.8910  156.1130 C   0  0  0  0  0  1  0  0  0  0  0  0
  160.2410  208.2440  156.7890 C   0  0  0  0  0  2  0  0  0  0  0  0
  1  4  1  0  0  0  0
  2  1  1  0  0  0  0
  3  2  1  6  0  0  0
  3  5  1  0  0  0  0
  4  6  1  0  0  0  0
  5  6  1  0  0  0  0
  6 22  1  6  0  0  0
  7 14  1  0  0  0  0
  8 10  1  0  0  0  0
  8 19  1  1  0  0  0
  9  7  2  0  0  0  0
  9 12  1  0  0  0  0
 11  8  1  0  0  0  0
 12 11  2  0  0  0  0
 13  3  1  0  0  0  0
 13 10  1  1  0  0  0
 14 11  1  0  0  0  0
 14 13  1  0  0  0  0
 15 16  1  0  0  0  0
 15 18  1  0  0  0  0
 16 17  1  6  0  0  0
 16 18  1  0  0  0  0
 18  9  1  1  0  0  0
 19 20  1  0  0  0  0
 22 21  1  1  0  0  0
 22 23  1  0  0  0  0
 23 28  1  1  0  0  0
 25 26  1  0  0  0  0
 25 24  1  0  0  0  0
 26 23  1  6  0  0  0
 26 24  1  0  0  0  0
 28 27  2  0  0  0  0
 28 29  1  0  0  0  0
 29 31  1  0  0  0  0
 30 31  1  0  0  0  0
M  END
>  <MODEL>
8

>  <REMARK>
 VINA RESULT:      -4.2      3.187      8.550
  Name = 
  9 active torsions:
  status: ('A' for Active; 'I' for Inactive)
    1  A    between atoms: C_4  and  S_22
    2  A    between atoms: C_10  and  C_21
    3  A    between atoms: C_13  and  C_25
    4  A    between atoms: C_16  and  C_20
    5  A    between atoms: C_16  and  C_27
    6  A    between atoms: C_17  and  C_20
    7  A    between atoms: C_17  and  O_31
    8  A    between atoms: C_20  and  C_30
    9  A    between atoms: C_29  and  O_31
                            x       y       z     vdW  Elec       q    Type
                         _______ _______ _______ _____ _____    ______ ____

>  <TORSDO>
F 9

$$$$
=
 OpenBabel11042420303D

 31 35  0  0  1  0  0  0  0  0999 V2000
  160.4870  203.6210  152.6170 C   0  0  0  0  0  2  0  0  0  0  0  0
  160.8500  205.0870  152.8970 C   0  0  0  0  0  2  0  0  0  0  0  0
  161.4870  205.8040  151.6940 C   0  0  2  0  0  3  0  0  0  0  0  0
  160.1620  203.3950  151.1410 C   0  0  0  0  0  2  0  0  0  0  0  0
  162.2860  204.8120  150.8490 C   0  0  0  0  0  2  0  0  0  0  0  0
  161.3580  203.7460  150.2410 C   0  0  2  0  0  3  0  0  0  0  0  0
  160.6610  208.3770  153.3660 N   0  0  0  0  0  0  0  0  0  0  0  0
  162.5230  209.0700  150.4330 C   0  0  2  0  0  3  0  0  0  0  0  0
  160.1830  209.6220  153.1320 C   0  0  0  0  0  0  0  0  0  0  0  0
  163.4600  207.5170  150.7610 S   0  0  0  0  0  0  0  0  0  0  0  0
  161.5860  209.1720  151.5670 C   0  0  0  0  0  0  0  0  0  0  0  0
  160.7390  210.1810  151.9760 C   0  0  0  0  0  3  0  0  0  0  0  0
  162.3470  206.9910  152.1380 C   0  0  1  0  0  3  0  0  0  0  0  0
  161.5120  208.1440  152.3890 N   0  0  0  0  0  0  0  0  0  0  0  0
  159.6890  210.5920  155.3510 C   0  0  0  0  0  2  0  0  0  0  0  0
  159.5690  211.6900  154.3180 C   0  0  2  0  0  3  0  0  0  0  0  0
  158.3390  212.5210  154.6150 C   0  0  0  0  0  1  0  0  0  0  0  0
  159.1360  210.2770  153.9740 C   0  0  1  0  0  3  0  0  0  0  0  0
  161.5850  208.8880  148.8860 S   0  0  0  0  0  0  0  0  0  0  0  0
  161.8650  210.6170  148.4120 C   0  0  0  0  0  1  0  0  0  0  0  0
  161.1760  205.4820  148.5890 O   0  0  0  0  0  1  0  0  0  0  0  0
  160.8680  204.1400  148.8430 C   0  0  1  0  0  3  0  0  0  0  0  0
  161.4660  203.2180  147.7580 C   0  0  1  0  0  3  0  0  0  0  0  0
  161.4340  201.0000  146.7170 O   0  0  0  0  0  0  0  0  0  0  0  0
  161.1990  200.7370  148.0780 C   0  0  0  0  0  2  0  0  0  0  0  0
  160.6580  201.9470  147.4140 C   0  0  1  0  0  3  0  0  0  0  0  0
  162.9910  204.6300  146.4890 C   0  0  0  0  0  2  0  0  0  0  0  0
  161.8450  203.9560  146.5090 C   0  0  0  0  0  0  0  0  0  0  0  0
  160.9920  203.9200  145.3990 O   0  0  0  0  0  0  0  0  0  0  0  0
  160.2910  206.2060  145.2550 C   0  0  0  0  0  1  0  0  0  0  0  0
  160.8390  205.0120  144.5030 C   0  0  0  0  0  2  0  0  0  0  0  0
  1  2  1  0  0  0  0
  3  5  1  1  0  0  0
  3 13  1  0  0  0  0
  3  2  1  0  0  0  0
  4  1  1  0  0  0  0
  6 22  1  6  0  0  0
  6  5  1  0  0  0  0
  6  4  1  0  0  0  0
  8 19  1  6  0  0  0
  8 10  1  0  0  0  0
  8 11  1  0  0  0  0
  9  7  2  0  0  0  0
 11 12  2  0  0  0  0
 11 14  1  0  0  0  0
 12  9  1  0  0  0  0
 13 10  1  6  0  0  0
 13 14  1  0  0  0  0
 14  7  1  0  0  0  0
 16 17  1  1  0  0  0
 16 15  1  0  0  0  0
 18  9  1  6  0  0  0
 18 16  1  0  0  0  0
 18 15  1  0  0  0  0
 20 19  1  0  0  0  0
 22 21  1  6  0  0  0
 23 28  1  6  0  0  0
 23 22  1  0  0  0  0
 24 26  1  0  0  0  0
 24 25  1  0  0  0  0
 26 23  1  1  0  0  0
 26 25  1  0  0  0  0
 27 28  2  0  0  0  0
 29 28  1  0  0  0  0
 31 30  1  0  0  0  0
 31 29  1  0  0  0  0
M  END
>  <MODEL>
9

>  <REMARK>
 VINA RESULT:      -4.1      1.678      2.165
  Name = 
  9 active torsions:
  status: ('A' for Active; 'I' for Inactive)
    1  A    between atoms: C_4  and  S_22
    2  A    between atoms: C_10  and  C_21
    3  A    between atoms: C_13  and  C_25
    4  A    between atoms: C_16  and  C_20
    5  A    between atoms: C_16  and  C_27
    6  A    between atoms: C_17  and  C_20
    7  A    between atoms: C_17  and  O_31
    8  A    between atoms: C_20  and  C_30
    9  A    between atoms: C_29  and  O_31
                            x       y       z     vdW  Elec       q    Type
                         _______ _______ _______ _____ _____    ______ ____

>  <TORSDO>
F 9

$$$$
