=
 OpenBabel11052410293D

 35 37  0  0  1  0  0  0  0  0999 V2000
  160.8600  207.1110  151.1920 C   0  0  2  0  0  3  0  0  0  0  0  0
  160.2800  208.2930  155.3440 C   0  0  0  0  0  3  0  0  0  0  0  0
  160.6200  207.0280  155.0510 C   0  0  0  0  0  3  0  0  0  0  0  0
  159.6270  211.5480  155.0810 N   0  0  0  0  0  0  0  0  0  0  0  0
  161.0400  206.5630  153.6560 C   0  0  1  0  0  3  0  0  0  0  0  0
  160.0220  210.9400  152.8950 C   0  0  0  0  0  0  0  0  0  0  0  0
  160.7680  207.5460  152.5850 N   0  0  0  0  0  0  0  0  0  0  0  0
  159.9640  210.5940  154.1860 C   0  0  0  0  0  0  0  0  0  0  0  0
  160.3250  209.9300  152.1120 O   0  0  0  0  0  0  0  0  0  0  0  0
  160.4630  208.9010  152.9400 C   0  0  0  0  0  0  0  0  0  0  0  0
  160.2530  209.2620  154.2550 C   0  0  0  0  0  0  0  0  0  0  0  0
  162.4550  206.2340  153.6680 N   0  0  0  0  0  1  0  0  0  0  0  0
  159.6570  212.5570  152.6890 S   0  0  0  0  0  0  0  0  0  0  0  0
  159.4300  212.7090  154.3900 C   0  0  0  0  0  0  0  0  0  0  0  0
  159.0320  213.9800  155.0540 C   0  0  0  0  0  2  0  0  0  0  0  0
  158.1650  213.7060  156.1120 O   0  0  0  0  0  1  0  0  0  0  0  0
  160.5620  205.6200  151.0800 C   0  0  0  0  0  2  0  0  0  0  0  0
  161.6210  203.7200  151.4800 C   0  0  0  0  0  1  0  0  0  0  0  0
  161.7380  204.9260  150.7910 O   0  0  0  0  0  0  0  0  0  0  0  0
  162.2280  207.4750  150.6150 C   0  0  0  0  0  2  0  0  0  0  0  0
  162.1110  208.3880  149.4060 C   0  0  0  0  0  2  0  0  0  0  0  0
  161.4240  207.6900  148.3320 N   0  0  0  0  0  2  0  0  0  0  0  0
  162.2940  206.7670  147.8500 O   0  0  0  0  0  0  0  0  0  0  0  0
  161.4900  205.8740  147.1400 C   0  0  0  0  0  2  0  0  0  0  0  0
  162.3410  204.7640  146.5430 C   0  0  1  0  0  3  0  0  0  0  0  0
  161.6490  202.9660  148.0370 C   0  0  0  0  0  3  0  0  0  0  0  0
  161.1090  202.7530  145.7220 O   0  0  0  0  0  1  0  0  0  0  0  0
  161.6760  203.4460  146.7890 C   0  0  0  0  0  0  0  0  0  0  0  0
  161.0090  201.7440  148.4410 N   0  0  0  0  0  0  0  0  0  0  0  0
  159.6650  201.8300  148.9800 C   0  0  0  0  0  1  0  0  0  0  0  0
  161.2980  199.8640  146.9130 C   0  0  0  0  0  1  0  0  0  0  0  0
  161.6030  200.4190  148.2900 C   0  0  0  0  0  2  0  0  0  0  0  0
  162.5350  205.0040  145.0520 C   0  0  0  0  0  2  0  0  0  0  0  0
  161.2670  205.8540  143.2660 O   0  0  0  0  0  0  0  0  0  0  0  0
  161.3460  205.6940  144.4710 C   0  0  0  0  0  3  0  0  0  0  0  0
  1 20  1  1  0  0  0
  1  7  1  0  0  0  0
  3  2  2  0  0  0  0
  5 12  1  1  0  0  0
  5  3  1  0  0  0  0
  6  8  2  0  0  0  0
  7 10  1  0  0  0  0
  7  5  1  0  0  0  0
  8 11  1  0  0  0  0
  8  4  1  0  0  0  0
  9  6  1  0  0  0  0
  9 10  1  0  0  0  0
 10 11  2  0  0  0  0
 11  2  1  0  0  0  0
 13  6  1  0  0  0  0
 13 14  1  0  0  0  0
 14 15  1  0  0  0  0
 14  4  2  0  0  0  0
 15 16  1  0  0  0  0
 17  1  1  0  0  0  0
 19 17  1  0  0  0  0
 19 18  1  0  0  0  0
 21 20  1  0  0  0  0
 22 21  1  0  0  0  0
 23 22  1  0  0  0  0
 24 23  1  0  0  0  0
 25 33  1  6  0  0  0
 25 28  1  0  0  0  0
 25 24  1  0  0  0  0
 26 29  1  0  0  0  0
 27 28  1  0  0  0  0
 28 26  2  0  0  0  0
 29 30  1  0  0  0  0
 31 32  1  0  0  0  0
 32 29  1  0  0  0  0
 34 35  2  0  0  0  0
 35 33  1  0  0  0  0
M  END
>  <MODEL>
1

>  <REMARK>
 VINA RESULT:      -6.1      0.000      0.000
  Name = 
  15 active torsions:
  status: ('A' for Active; 'I' for Inactive)
    1  A    between atoms: N_3  and  C_25
    2  A    between atoms: N_3  and  O_34
    3  A    between atoms: C_6  and  N_10
    4  A    between atoms: C_8  and  C_16
    5  A    between atoms: C_8  and  O_17
    6  A    between atoms: C_9  and  C_35
    7  A    between atoms: N_10  and  C_30
    8  A    between atoms: C_12  and  C_15
    9  A    between atoms: C_15  and  C_21
   10  A    between atoms: C_16  and  N_18
   11  A    between atoms: C_16  and  C_32
   12  A    between atoms: C_21  and  C_29
   13  A    between atoms: C_21  and  C_31
   14  A    between atoms: C_25  and  C_32
   15  A    between atoms: C_31  and  O_34
                            x       y       z     vdW  Elec       q    Type
                         _______ _______ _______ _____ _____    ______ ____

>  <TORSDO>
F 15

$$$$
=
 OpenBabel11052410293D

 35 37  0  0  1  0  0  0  0  0999 V2000
  161.4540  209.1080  153.7080 C   0  0  2  0  0  3  0  0  0  0  0  0
  160.4450  211.4190  157.2590 C   0  0  0  0  0  3  0  0  0  0  0  0
  161.5860  210.7100  157.2250 C   0  0  0  0  0  3  0  0  0  0  0  0
  157.6050  212.9080  156.3660 N   0  0  0  0  0  0  0  0  0  0  0  0
  162.1260  210.0330  155.9660 C   0  0  1  0  0  3  0  0  0  0  0  0
  158.1860  211.7570  154.4590 C   0  0  0  0  0  0  0  0  0  0  0  0
  161.1580  209.9720  154.8500 N   0  0  0  0  0  0  0  0  0  0  0  0
  158.4770  212.1090  155.7160 C   0  0  0  0  0  0  0  0  0  0  0  0
  159.0840  210.9530  153.9350 O   0  0  0  0  0  0  0  0  0  0  0  0
  159.9800  210.7890  154.9000 C   0  0  0  0  0  0  0  0  0  0  0  0
  159.6520  211.4950  156.0390 C   0  0  0  0  0  0  0  0  0  0  0  0
  163.3280  210.7240  155.5310 N   0  0  0  0  0  1  0  0  0  0  0  0
  156.7420  212.4360  153.9640 S   0  0  0  0  0  0  0  0  0  0  0  0
  156.5790  213.1830  155.5080 C   0  0  0  0  0  0  0  0  0  0  0  0
  155.4190  214.0330  155.8900 C   0  0  0  0  0  2  0  0  0  0  0  0
  154.8940  213.5940  157.1050 O   0  0  0  0  0  1  0  0  0  0  0  0
  161.5050  209.9270  152.4220 C   0  0  0  0  0  2  0  0  0  0  0  0
  162.0060  209.5910  150.2940 C   0  0  0  0  0  1  0  0  0  0  0  0
  162.5040  209.4270  151.5860 O   0  0  0  0  0  0  0  0  0  0  0  0
  160.4390  207.9680  153.6320 C   0  0  0  0  0  2  0  0  0  0  0  0
  161.0550  206.6300  154.0040 C   0  0  0  0  0  2  0  0  0  0  0  0
  161.8650  206.1420  152.9000 N   0  0  0  0  0  2  0  0  0  0  0  0
  161.1040  205.2390  152.2310 O   0  0  0  0  0  0  0  0  0  0  0  0
  161.2430  205.5990  150.8900 C   0  0  0  0  0  2  0  0  0  0  0  0
  160.7250  204.4860  149.9920 C   0  0  1  0  0  3  0  0  0  0  0  0
  161.5510  204.1000  147.7310 C   0  0  0  0  0  3  0  0  0  0  0  0
  160.3060  206.0960  148.1310 O   0  0  0  0  0  1  0  0  0  0  0  0
  160.8710  204.8980  148.5610 C   0  0  0  0  0  0  0  0  0  0  0  0
  161.7370  204.3320  146.3250 N   0  0  0  0  0  0  0  0  0  0  0  0
  162.5600  205.4590  145.9280 C   0  0  0  0  0  1  0  0  0  0  0  0
  160.6920  202.1740  145.8700 C   0  0  0  0  0  1  0  0  0  0  0  0
  161.1980  203.4730  145.2750 C   0  0  0  0  0  2  0  0  0  0  0  0
  161.4930  203.1990  150.2670 C   0  0  0  0  0  2  0  0  0  0  0  0
  160.1300  201.3300  149.8540 O   0  0  0  0  0  0  0  0  0  0  0  0
  160.5620  202.1090  150.6840 C   0  0  0  0  0  3  0  0  0  0  0  0
  1 17  1  6  0  0  0
  1  7  1  0  0  0  0
  3  2  2  0  0  0  0
  5 12  1  6  0  0  0
  5  3  1  0  0  0  0
  6  8  2  0  0  0  0
  7 10  1  0  0  0  0
  7  5  1  0  0  0  0
  8 11  1  0  0  0  0
  8  4  1  0  0  0  0
  9  6  1  0  0  0  0
  9 10  1  0  0  0  0
 10 11  2  0  0  0  0
 11  2  1  0  0  0  0
 13  6  1  0  0  0  0
 13 14  1  0  0  0  0
 14 15  1  0  0  0  0
 14  4  2  0  0  0  0
 15 16  1  0  0  0  0
 18 19  1  0  0  0  0
 19 17  1  0  0  0  0
 20  1  1  0  0  0  0
 20 21  1  0  0  0  0
 22 21  1  0  0  0  0
 23 22  1  0  0  0  0
 24 23  1  0  0  0  0
 25 33  1  6  0  0  0
 25 24  1  0  0  0  0
 26 28  2  0  0  0  0
 27 28  1  0  0  0  0
 28 25  1  0  0  0  0
 29 26  1  0  0  0  0
 30 29  1  0  0  0  0
 32 31  1  0  0  0  0
 32 29  1  0  0  0  0
 33 35  1  0  0  0  0
 34 35  2  0  0  0  0
M  END
>  <MODEL>
2

>  <REMARK>
 VINA RESULT:      -5.8      2.288      4.206
  Name = 
  15 active torsions:
  status: ('A' for Active; 'I' for Inactive)
    1  A    between atoms: N_3  and  C_25
    2  A    between atoms: N_3  and  O_34
    3  A    between atoms: C_6  and  N_10
    4  A    between atoms: C_8  and  C_16
    5  A    between atoms: C_8  and  O_17
    6  A    between atoms: C_9  and  C_35
    7  A    between atoms: N_10  and  C_30
    8  A    between atoms: C_12  and  C_15
    9  A    between atoms: C_15  and  C_21
   10  A    between atoms: C_16  and  N_18
   11  A    between atoms: C_16  and  C_32
   12  A    between atoms: C_21  and  C_29
   13  A    between atoms: C_21  and  C_31
   14  A    between atoms: C_25  and  C_32
   15  A    between atoms: C_31  and  O_34
                            x       y       z     vdW  Elec       q    Type
                         _______ _______ _______ _____ _____    ______ ____

>  <TORSDO>
F 15

$$$$
=
 OpenBabel11052410293D

 35 37  0  0  1  0  0  0  0  0999 V2000
  161.4850  208.4470  153.4740 C   0  0  2  0  0  3  0  0  0  0  0  0
  159.0040  210.3950  156.4780 C   0  0  0  0  0  3  0  0  0  0  0  0
  159.8480  209.4150  156.8410 C   0  0  0  0  0  3  0  0  0  0  0  0
  157.4130  212.7180  154.7010 N   0  0  0  0  0  0  0  0  0  0  0  0
  160.8970  208.8090  155.9090 C   0  0  1  0  0  3  0  0  0  0  0  0
  158.7900  211.7460  153.1320 C   0  0  0  0  0  0  0  0  0  0  0  0
  160.7280  209.1800  154.4870 N   0  0  0  0  0  0  0  0  0  0  0  0
  158.3710  211.8160  154.4010 C   0  0  0  0  0  0  0  0  0  0  0  0
  159.6980  210.8150  152.9470 O   0  0  0  0  0  0  0  0  0  0  0  0
  159.8600  210.2710  154.1470 C   0  0  0  0  0  0  0  0  0  0  0  0
  159.0570  210.8640  155.0990 C   0  0  0  0  0  0  0  0  0  0  0  0
  162.2200  209.2030  156.3610 N   0  0  0  0  0  1  0  0  0  0  0  0
  157.9930  212.8590  152.1750 S   0  0  0  0  0  0  0  0  0  0  0  0
  157.1010  213.3850  153.5520 C   0  0  0  0  0  0  0  0  0  0  0  0
  156.0660  214.4530  153.5000 C   0  0  0  0  0  2  0  0  0  0  0  0
  155.2450  214.2590  152.3890 O   0  0  0  0  0  1  0  0  0  0  0  0
  160.8660  208.6540  152.0960 C   0  0  0  0  0  2  0  0  0  0  0  0
  162.2370  209.6830  150.6980 C   0  0  0  0  0  1  0  0  0  0  0  0
  161.8240  208.4160  151.1100 O   0  0  0  0  0  0  0  0  0  0  0  0
  161.5790  206.9690  153.8530 C   0  0  0  0  0  2  0  0  0  0  0  0
  161.3680  206.0590  152.6540 C   0  0  0  0  0  2  0  0  0  0  0  0
  161.0800  204.7100  153.1110 N   0  0  0  0  0  2  0  0  0  0  0  0
  161.2110  203.8990  152.0310 O   0  0  0  0  0  0  0  0  0  0  0  0
  160.7370  204.6670  150.9660 C   0  0  0  0  0  2  0  0  0  0  0  0
  160.5330  203.7910  149.7390 C   0  0  1  0  0  3  0  0  0  0  0  0
  161.5070  203.8350  147.5060 C   0  0  0  0  0  3  0  0  0  0  0  0
  160.8720  205.9190  148.4780 O   0  0  0  0  0  1  0  0  0  0  0  0
  160.9900  204.5320  148.5220 C   0  0  0  0  0  0  0  0  0  0  0  0
  161.9450  204.3930  146.2560 N   0  0  0  0  0  0  0  0  0  0  0  0
  163.3590  204.6830  146.1020 C   0  0  0  0  0  1  0  0  0  0  0  0
  160.4690  206.0220  145.1960 C   0  0  0  0  0  1  0  0  0  0  0  0
  161.0690  204.6320  145.1130 C   0  0  0  0  0  2  0  0  0  0  0  0
  161.3010  202.4850  149.9000 C   0  0  0  0  0  2  0  0  0  0  0  0
  159.4200  201.3460  149.0710 O   0  0  0  0  0  0  0  0  0  0  0  0
  160.3740  201.3170  149.8270 C   0  0  0  0  0  3  0  0  0  0  0  0
  1 17  1  6  0  0  0
  1 20  1  0  0  0  0
  1  7  1  0  0  0  0
  2  3  2  0  0  0  0
  5 12  1  1  0  0  0
  5  3  1  0  0  0  0
  6  8  2  0  0  0  0
  7  5  1  0  0  0  0
  8  4  1  0  0  0  0
  8 11  1  0  0  0  0
  9  6  1  0  0  0  0
  9 10  1  0  0  0  0
 10  7  1  0  0  0  0
 10 11  2  0  0  0  0
 11  2  1  0  0  0  0
 13  6  1  0  0  0  0
 13 14  1  0  0  0  0
 14  4  2  0  0  0  0
 15 14  1  0  0  0  0
 16 15  1  0  0  0  0
 18 19  1  0  0  0  0
 19 17  1  0  0  0  0
 21 22  1  0  0  0  0
 21 20  1  0  0  0  0
 23 22  1  0  0  0  0
 24 23  1  0  0  0  0
 25 33  1  1  0  0  0
 25 24  1  0  0  0  0
 26 28  2  0  0  0  0
 27 28  1  0  0  0  0
 28 25  1  0  0  0  0
 29 26  1  0  0  0  0
 30 29  1  0  0  0  0
 32 31  1  0  0  0  0
 32 29  1  0  0  0  0
 34 35  2  0  0  0  0
 35 33  1  0  0  0  0
M  END
>  <MODEL>
3

>  <REMARK>
 VINA RESULT:      -5.8      2.256      4.049
  Name = 
  15 active torsions:
  status: ('A' for Active; 'I' for Inactive)
    1  A    between atoms: N_3  and  C_25
    2  A    between atoms: N_3  and  O_34
    3  A    between atoms: C_6  and  N_10
    4  A    between atoms: C_8  and  C_16
    5  A    between atoms: C_8  and  O_17
    6  A    between atoms: C_9  and  C_35
    7  A    between atoms: N_10  and  C_30
    8  A    between atoms: C_12  and  C_15
    9  A    between atoms: C_15  and  C_21
   10  A    between atoms: C_16  and  N_18
   11  A    between atoms: C_16  and  C_32
   12  A    between atoms: C_21  and  C_29
   13  A    between atoms: C_21  and  C_31
   14  A    between atoms: C_25  and  C_32
   15  A    between atoms: C_31  and  O_34
                            x       y       z     vdW  Elec       q    Type
                         _______ _______ _______ _____ _____    ______ ____

>  <TORSDO>
F 15

$$$$
=
 OpenBabel11052410293D

 35 37  0  0  1  0  0  0  0  0999 V2000
  160.8380  206.9660  151.2450 C   0  0  2  0  0  3  0  0  0  0  0  0
  161.2270  205.6460  147.1130 C   0  0  0  0  0  3  0  0  0  0  0  0
  161.2330  206.9580  147.3990 C   0  0  0  0  0  3  0  0  0  0  0  0
  161.2590  202.3310  147.4170 N   0  0  0  0  0  0  0  0  0  0  0  0
  161.3040  207.5170  148.8190 C   0  0  1  0  0  3  0  0  0  0  0  0
  161.1430  203.0310  149.6070 C   0  0  0  0  0  0  0  0  0  0  0  0
  161.0760  206.5090  149.8770 N   0  0  0  0  0  0  0  0  0  0  0  0
  161.2270  203.3440  148.3090 C   0  0  0  0  0  0  0  0  0  0  0  0
  161.0860  204.0900  150.3820 O   0  0  0  0  0  0  0  0  0  0  0  0
  161.1350  205.1160  149.5400 C   0  0  0  0  0  0  0  0  0  0  0  0
  161.2290  204.7060  148.2270 C   0  0  0  0  0  0  0  0  0  0  0  0
  162.5960  208.1500  149.0200 N   0  0  0  0  0  1  0  0  0  0  0  0
  161.1070  201.3750  149.8260 S   0  0  0  0  0  0  0  0  0  0  0  0
  161.2050  201.1610  148.1190 C   0  0  0  0  0  0  0  0  0  0  0  0
  161.2060  199.8280  147.4580 C   0  0  0  0  0  2  0  0  0  0  0  0
  161.2060  199.9890  146.0730 O   0  0  0  0  0  1  0  0  0  0  0  0
  160.8800  208.4890  151.3110 C   0  0  0  0  0  2  0  0  0  0  0  0
  162.3320  210.1270  151.6310 C   0  0  0  0  0  1  0  0  0  0  0  0
  161.9240  208.8960  152.1430 O   0  0  0  0  0  0  0  0  0  0  0  0
  161.8400  206.3160  152.2000 C   0  0  0  0  0  2  0  0  0  0  0  0
  161.2060  205.9590  153.5340 C   0  0  0  0  0  2  0  0  0  0  0  0
  161.2400  207.1150  154.4150 N   0  0  0  0  0  2  0  0  0  0  0  0
  160.5390  206.7750  155.5270 O   0  0  0  0  0  0  0  0  0  0  0  0
  159.7500  207.8950  155.7910 C   0  0  0  0  0  2  0  0  0  0  0  0
  160.5200  209.1670  155.4670 C   0  0  1  0  0  3  0  0  0  0  0  0
  158.5610  210.5740  155.8170 C   0  0  0  0  0  3  0  0  0  0  0  0
  159.7290  210.7950  153.7480 O   0  0  0  0  0  1  0  0  0  0  0  0
  159.5610  210.2190  155.0040 C   0  0  0  0  0  0  0  0  0  0  0  0
  157.5910  211.5970  155.5380 N   0  0  0  0  0  0  0  0  0  0  0  0
  156.2520  211.1780  155.1650 C   0  0  0  0  0  1  0  0  0  0  0  0
  158.9670  213.2710  156.6590 C   0  0  0  0  0  1  0  0  0  0  0  0
  157.8500  213.0280  155.6630 C   0  0  0  0  0  2  0  0  0  0  0  0
  161.2880  209.6350  156.6960 C   0  0  0  0  0  2  0  0  0  0  0  0
  163.0350  210.7030  155.5420 O   0  0  0  0  0  0  0  0  0  0  0  0
  162.1440  210.8130  156.3650 C   0  0  0  0  0  3  0  0  0  0  0  0
  1 17  1  6  0  0  0
  1 20  1  0  0  0  0
  2  3  2  0  0  0  0
  2 11  1  0  0  0  0
  3  5  1  0  0  0  0
  4 14  2  0  0  0  0
  4  8  1  0  0  0  0
  5 12  1  1  0  0  0
  5  7  1  0  0  0  0
  6 13  1  0  0  0  0
  6  9  1  0  0  0  0
  7  1  1  0  0  0  0
  8  6  2  0  0  0  0
 10  7  1  0  0  0  0
 10  9  1  0  0  0  0
 11  8  1  0  0  0  0
 11 10  2  0  0  0  0
 14 13  1  0  0  0  0
 15 14  1  0  0  0  0
 16 15  1  0  0  0  0
 17 19  1  0  0  0  0
 18 19  1  0  0  0  0
 20 21  1  0  0  0  0
 21 22  1  0  0  0  0
 22 23  1  0  0  0  0
 23 24  1  0  0  0  0
 25 24  1  1  0  0  0
 25 33  1  0  0  0  0
 27 28  1  0  0  0  0
 28 25  1  0  0  0  0
 28 26  2  0  0  0  0
 29 32  1  0  0  0  0
 29 26  1  0  0  0  0
 30 29  1  0  0  0  0
 32 31  1  0  0  0  0
 34 35  2  0  0  0  0
 35 33  1  0  0  0  0
M  END
>  <MODEL>
4

>  <REMARK>
 VINA RESULT:      -5.8      2.883     10.086
  Name = 
  15 active torsions:
  status: ('A' for Active; 'I' for Inactive)
    1  A    between atoms: N_3  and  C_25
    2  A    between atoms: N_3  and  O_34
    3  A    between atoms: C_6  and  N_10
    4  A    between atoms: C_8  and  C_16
    5  A    between atoms: C_8  and  O_17
    6  A    between atoms: C_9  and  C_35
    7  A    between atoms: N_10  and  C_30
    8  A    between atoms: C_12  and  C_15
    9  A    between atoms: C_15  and  C_21
   10  A    between atoms: C_16  and  N_18
   11  A    between atoms: C_16  and  C_32
   12  A    between atoms: C_21  and  C_29
   13  A    between atoms: C_21  and  C_31
   14  A    between atoms: C_25  and  C_32
   15  A    between atoms: C_31  and  O_34
                            x       y       z     vdW  Elec       q    Type
                         _______ _______ _______ _____ _____    ______ ____

>  <TORSDO>
F 15

$$$$
=
 OpenBabel11052410293D

 35 37  0  0  1  0  0  0  0  0999 V2000
  161.5080  208.4990  153.3510 C   0  0  2  0  0  3  0  0  0  0  0  0
  159.0810  210.5510  156.3290 C   0  0  0  0  0  3  0  0  0  0  0  0
  159.9420  209.5940  156.7130 C   0  0  0  0  0  3  0  0  0  0  0  0
  157.4250  212.7820  154.4950 N   0  0  0  0  0  0  0  0  0  0  0  0
  160.9750  208.9590  155.7820 C   0  0  1  0  0  3  0  0  0  0  0  0
  158.7740  211.7570  152.9360 C   0  0  0  0  0  0  0  0  0  0  0  0
  160.7680  209.2680  154.3510 N   0  0  0  0  0  0  0  0  0  0  0  0
  158.3850  211.8760  154.2110 C   0  0  0  0  0  0  0  0  0  0  0  0
  159.6860  210.8260  152.7680 O   0  0  0  0  0  0  0  0  0  0  0  0
  159.8820  210.3350  153.9860 C   0  0  0  0  0  0  0  0  0  0  0  0
  159.0960  210.9610  154.9310 C   0  0  0  0  0  0  0  0  0  0  0  0
  162.3050  209.3830  156.1850 N   0  0  0  0  0  1  0  0  0  0  0  0
  157.9430  212.8210  151.9520 S   0  0  0  0  0  0  0  0  0  0  0  0
  157.0800  213.3980  153.3260 C   0  0  0  0  0  0  0  0  0  0  0  0
  156.0330  214.4530  153.2540 C   0  0  0  0  0  2  0  0  0  0  0  0
  154.7880  213.9040  153.5590 O   0  0  0  0  0  1  0  0  0  0  0  0
  161.2370  209.0450  151.9530 C   0  0  0  0  0  2  0  0  0  0  0  0
  162.0580  210.5460  150.5510 C   0  0  0  0  0  1  0  0  0  0  0  0
  162.4300  209.4900  151.3830 O   0  0  0  0  0  0  0  0  0  0  0  0
  161.1680  207.0130  153.4710 C   0  0  0  0  0  2  0  0  0  0  0  0
  161.7580  206.2000  152.3310 C   0  0  0  0  0  2  0  0  0  0  0  0
  161.1460  204.8820  152.3040 N   0  0  0  0  0  2  0  0  0  0  0  0
  161.7610  204.1900  151.3130 O   0  0  0  0  0  0  0  0  0  0  0  0
  160.8310  204.1810  150.2710 C   0  0  0  0  0  2  0  0  0  0  0  0
  161.4510  204.7660  149.0110 C   0  0  1  0  0  3  0  0  0  0  0  0
  160.8350  202.5950  148.0920 C   0  0  0  0  0  3  0  0  0  0  0  0
  162.5340  203.8330  146.9640 O   0  0  0  0  0  1  0  0  0  0  0  0
  161.6020  203.6840  147.9890 C   0  0  0  0  0  0  0  0  0  0  0  0
  160.8280  201.4950  147.1670 N   0  0  0  0  0  0  0  0  0  0  0  0
  160.0800  201.6530  145.9330 C   0  0  0  0  0  1  0  0  0  0  0  0
  161.4270  199.3610  146.1470 C   0  0  0  0  0  1  0  0  0  0  0  0
  161.5710  200.2540  147.3630 C   0  0  0  0  0  2  0  0  0  0  0  0
  160.5780  205.8960  148.4810 C   0  0  0  0  0  2  0  0  0  0  0  0
  162.3750  207.4090  148.4790 O   0  0  0  0  0  0  0  0  0  0  0  0
  161.2050  207.2220  148.7590 C   0  0  0  0  0  3  0  0  0  0  0  0
  1 17  1  6  0  0  0
  1 20  1  0  0  0  0
  1  7  1  0  0  0  0
  2  3  2  0  0  0  0
  5 12  1  1  0  0  0
  5  3  1  0  0  0  0
  6  8  2  0  0  0  0
  7  5  1  0  0  0  0
  8  4  1  0  0  0  0
  8 11  1  0  0  0  0
  9  6  1  0  0  0  0
  9 10  1  0  0  0  0
 10  7  1  0  0  0  0
 10 11  2  0  0  0  0
 11  2  1  0  0  0  0
 13  6  1  0  0  0  0
 13 14  1  0  0  0  0
 14  4  2  0  0  0  0
 15 14  1  0  0  0  0
 15 16  1  0  0  0  0
 18 19  1  0  0  0  0
 19 17  1  0  0  0  0
 21 20  1  0  0  0  0
 22 21  1  0  0  0  0
 23 22  1  0  0  0  0
 24 23  1  0  0  0  0
 25 33  1  6  0  0  0
 25 24  1  0  0  0  0
 27 28  1  0  0  0  0
 28 26  2  0  0  0  0
 28 25  1  0  0  0  0
 29 32  1  0  0  0  0
 29 26  1  0  0  0  0
 30 29  1  0  0  0  0
 31 32  1  0  0  0  0
 33 35  1  0  0  0  0
 34 35  2  0  0  0  0
M  END
>  <MODEL>
5

>  <REMARK>
 VINA RESULT:      -5.7      2.165      3.281
  Name = 
  15 active torsions:
  status: ('A' for Active; 'I' for Inactive)
    1  A    between atoms: N_3  and  C_25
    2  A    between atoms: N_3  and  O_34
    3  A    between atoms: C_6  and  N_10
    4  A    between atoms: C_8  and  C_16
    5  A    between atoms: C_8  and  O_17
    6  A    between atoms: C_9  and  C_35
    7  A    between atoms: N_10  and  C_30
    8  A    between atoms: C_12  and  C_15
    9  A    between atoms: C_15  and  C_21
   10  A    between atoms: C_16  and  N_18
   11  A    between atoms: C_16  and  C_32
   12  A    between atoms: C_21  and  C_29
   13  A    between atoms: C_21  and  C_31
   14  A    between atoms: C_25  and  C_32
   15  A    between atoms: C_31  and  O_34
                            x       y       z     vdW  Elec       q    Type
                         _______ _______ _______ _____ _____    ______ ____

>  <TORSDO>
F 15

$$$$
=
 OpenBabel11052410293D

 35 37  0  0  1  0  0  0  0  0999 V2000
  161.3110  205.8750  150.4200 C   0  0  2  0  0  3  0  0  0  0  0  0
  160.9680  205.3760  146.1070 C   0  0  0  0  0  3  0  0  0  0  0  0
  161.0630  206.6080  146.6310 C   0  0  0  0  0  3  0  0  0  0  0  0
  160.9440  202.0640  145.7650 N   0  0  0  0  0  0  0  0  0  0  0  0
  161.3850  206.8830  148.1000 C   0  0  1  0  0  3  0  0  0  0  0  0
  161.2150  202.3290  148.0360 C   0  0  0  0  0  0  0  0  0  0  0  0
  161.3040  205.6900  148.9700 N   0  0  0  0  0  0  0  0  0  0  0  0
  161.0930  202.8860  146.8260 C   0  0  0  0  0  0  0  0  0  0  0  0
  161.3210  203.2200  148.9970 O   0  0  0  0  0  0  0  0  0  0  0  0
  161.2620  204.3880  148.3690 C   0  0  0  0  0  0  0  0  0  0  0  0
  161.1250  204.2380  147.0050 C   0  0  0  0  0  0  0  0  0  0  0  0
  162.7130  207.4670  148.1960 N   0  0  0  0  0  1  0  0  0  0  0  0
  161.1630  200.6620  147.9400 S   0  0  0  0  0  0  0  0  0  0  0  0
  160.9700  200.7810  146.2320 C   0  0  0  0  0  0  0  0  0  0  0  0
  160.8200  199.6000  145.3390 C   0  0  0  0  0  2  0  0  0  0  0  0
  161.5830  198.5400  145.8300 O   0  0  0  0  0  1  0  0  0  0  0  0
  160.4300  204.8280  151.0930 C   0  0  0  0  0  2  0  0  0  0  0  0
  161.5230  203.1440  152.0210 C   0  0  0  0  0  1  0  0  0  0  0  0
  161.0190  204.4160  152.2890 O   0  0  0  0  0  0  0  0  0  0  0  0
  160.8900  207.3020  150.7720 C   0  0  0  0  0  2  0  0  0  0  0  0
  161.8320  207.9430  151.7770 C   0  0  0  0  0  2  0  0  0  0  0  0
  162.2250  209.2610  151.3060 N   0  0  0  0  0  2  0  0  0  0  0  0
  162.5500  209.9840  152.4080 O   0  0  0  0  0  0  0  0  0  0  0  0
  161.3400  210.1390  153.0860 C   0  0  0  0  0  2  0  0  0  0  0  0
  161.5940  210.6180  154.5070 C   0  0  1  0  0  3  0  0  0  0  0  0
  159.5950  211.9150  153.9930 C   0  0  0  0  0  3  0  0  0  0  0  0
  160.5900  212.2180  156.1410 O   0  0  0  0  0  1  0  0  0  0  0  0
  160.5470  211.6190  154.8840 C   0  0  0  0  0  0  0  0  0  0  0  0
  158.4970  212.8140  154.2210 N   0  0  0  0  0  0  0  0  0  0  0  0
  158.4920  214.0720  153.4980 C   0  0  0  0  0  1  0  0  0  0  0  0
  156.9260  211.0770  154.9050 C   0  0  0  0  0  1  0  0  0  0  0  0
  157.3610  212.5180  155.0880 C   0  0  0  0  0  2  0  0  0  0  0  0
  161.5820  209.4340  155.4640 C   0  0  0  0  0  2  0  0  0  0  0  0
  160.4430  207.3830  155.6040 O   0  0  0  0  0  0  0  0  0  0  0  0
  160.4510  208.5130  155.1480 C   0  0  0  0  0  3  0  0  0  0  0  0
  1 20  1  6  0  0  0
  1 17  1  0  0  0  0
  2  3  2  0  0  0  0
  2 11  1  0  0  0  0
  3  5  1  0  0  0  0
  4 14  2  0  0  0  0
  4  8  1  0  0  0  0
  5 12  1  6  0  0  0
  5  7  1  0  0  0  0
  6  9  1  0  0  0  0
  7  1  1  0  0  0  0
  8 11  1  0  0  0  0
  8  6  2  0  0  0  0
 10  7  1  0  0  0  0
 10  9  1  0  0  0  0
 11 10  2  0  0  0  0
 13  6  1  0  0  0  0
 14 13  1  0  0  0  0
 15 16  1  0  0  0  0
 15 14  1  0  0  0  0
 17 19  1  0  0  0  0
 18 19  1  0  0  0  0
 20 21  1  0  0  0  0
 22 21  1  0  0  0  0
 22 23  1  0  0  0  0
 23 24  1  0  0  0  0
 25 24  1  6  0  0  0
 25 28  1  0  0  0  0
 25 33  1  0  0  0  0
 26 29  1  0  0  0  0
 26 28  2  0  0  0  0
 28 27  1  0  0  0  0
 29 32  1  0  0  0  0
 30 29  1  0  0  0  0
 31 32  1  0  0  0  0
 35 33  1  0  0  0  0
 35 34  2  0  0  0  0
M  END
>  <MODEL>
6

>  <REMARK>
 VINA RESULT:      -5.7      3.068     10.232
  Name = 
  15 active torsions:
  status: ('A' for Active; 'I' for Inactive)
    1  A    between atoms: N_3  and  C_25
    2  A    between atoms: N_3  and  O_34
    3  A    between atoms: C_6  and  N_10
    4  A    between atoms: C_8  and  C_16
    5  A    between atoms: C_8  and  O_17
    6  A    between atoms: C_9  and  C_35
    7  A    between atoms: N_10  and  C_30
    8  A    between atoms: C_12  and  C_15
    9  A    between atoms: C_15  and  C_21
   10  A    between atoms: C_16  and  N_18
   11  A    between atoms: C_16  and  C_32
   12  A    between atoms: C_21  and  C_29
   13  A    between atoms: C_21  and  C_31
   14  A    between atoms: C_25  and  C_32
   15  A    between atoms: C_31  and  O_34
                            x       y       z     vdW  Elec       q    Type
                         _______ _______ _______ _____ _____    ______ ____

>  <TORSDO>
F 15

$$$$
=
 OpenBabel11052410293D

 35 37  0  0  1  0  0  0  0  0999 V2000
  161.3830  206.0860  150.4870 C   0  0  2  0  0  3  0  0  0  0  0  0
  160.8820  205.7050  146.1780 C   0  0  0  0  0  3  0  0  0  0  0  0
  161.0040  206.9220  146.7310 C   0  0  0  0  0  3  0  0  0  0  0  0
  160.8210  202.4030  145.7490 N   0  0  0  0  0  0  0  0  0  0  0  0
  161.3820  207.1550  148.1930 C   0  0  1  0  0  3  0  0  0  0  0  0
  161.1750  202.6060  148.0150 C   0  0  0  0  0  0  0  0  0  0  0  0
  161.3230  205.9400  149.0340 N   0  0  0  0  0  0  0  0  0  0  0  0
  161.0140  203.1960  146.8250 C   0  0  0  0  0  0  0  0  0  0  0  0
  161.3220  203.4690  148.9950 O   0  0  0  0  0  0  0  0  0  0  0  0
  161.2490  204.6550  148.4010 C   0  0  0  0  0  0  0  0  0  0  0  0
  161.0620  204.5420  147.0390 C   0  0  0  0  0  0  0  0  0  0  0  0
  162.7160  207.7270  148.2570 N   0  0  0  0  0  1  0  0  0  0  0  0
  161.1070  200.9430  147.8760 S   0  0  0  0  0  0  0  0  0  0  0  0
  160.8540  201.1080  146.1800 C   0  0  0  0  0  0  0  0  0  0  0  0
  160.6630  199.9520  145.2630 C   0  0  0  0  0  2  0  0  0  0  0  0
  161.2120  198.8040  145.8320 O   0  0  0  0  0  1  0  0  0  0  0  0
  160.5940  204.9720  151.1660 C   0  0  0  0  0  2  0  0  0  0  0  0
  160.8430  203.1370  152.3760 C   0  0  0  0  0  1  0  0  0  0  0  0
  161.3500  204.4250  152.2040 O   0  0  0  0  0  0  0  0  0  0  0  0
  160.8980  207.4760  150.8990 C   0  0  0  0  0  2  0  0  0  0  0  0
  161.8770  208.1690  151.8300 C   0  0  0  0  0  2  0  0  0  0  0  0
  161.1470  208.8590  152.8810 N   0  0  0  0  0  2  0  0  0  0  0  0
  160.2230  209.6370  152.2630 O   0  0  0  0  0  0  0  0  0  0  0  0
  160.3270  210.8710  152.9080 C   0  0  0  0  0  2  0  0  0  0  0  0
  159.0040  211.6180  152.8240 C   0  0  1  0  0  3  0  0  0  0  0  0
  157.1680  212.2020  154.3160 C   0  0  0  0  0  3  0  0  0  0  0  0
  159.1610  211.3350  155.3000 O   0  0  0  0  0  1  0  0  0  0  0  0
  158.4110  211.7250  154.1930 C   0  0  0  0  0  0  0  0  0  0  0  0
  156.4440  212.3210  155.5520 N   0  0  0  0  0  0  0  0  0  0  0  0
  156.5210  213.5830  156.2640 C   0  0  0  0  0  1  0  0  0  0  0  0
  155.2110  210.2820  155.0240 C   0  0  0  0  0  1  0  0  0  0  0  0
  155.5900  211.2740  156.1060 C   0  0  0  0  0  2  0  0  0  0  0  0
  159.2260  212.9980  152.2190 C   0  0  0  0  0  2  0  0  0  0  0  0
  158.6750  213.8830  150.1130 O   0  0  0  0  0  0  0  0  0  0  0  0
  158.3040  213.2220  151.0660 C   0  0  0  0  0  3  0  0  0  0  0  0
  1 20  1  6  0  0  0
  1 17  1  0  0  0  0
  2  3  2  0  0  0  0
  2 11  1  0  0  0  0
  3  5  1  0  0  0  0
  4 14  2  0  0  0  0
  4  8  1  0  0  0  0
  5 12  1  6  0  0  0
  5  7  1  0  0  0  0
  6  9  1  0  0  0  0
  7  1  1  0  0  0  0
  8 11  1  0  0  0  0
  8  6  2  0  0  0  0
 10  9  1  0  0  0  0
 10  7  1  0  0  0  0
 11 10  2  0  0  0  0
 13  6  1  0  0  0  0
 14 13  1  0  0  0  0
 15 16  1  0  0  0  0
 15 14  1  0  0  0  0
 17 19  1  0  0  0  0
 19 18  1  0  0  0  0
 20 21  1  0  0  0  0
 21 22  1  0  0  0  0
 23 22  1  0  0  0  0
 23 24  1  0  0  0  0
 25 33  1  1  0  0  0
 25 24  1  0  0  0  0
 25 28  1  0  0  0  0
 26 29  1  0  0  0  0
 28 26  2  0  0  0  0
 28 27  1  0  0  0  0
 29 32  1  0  0  0  0
 29 30  1  0  0  0  0
 31 32  1  0  0  0  0
 34 35  2  0  0  0  0
 35 33  1  0  0  0  0
M  END
>  <MODEL>
7

>  <REMARK>
 VINA RESULT:      -5.5      3.143     10.164
  Name = 
  15 active torsions:
  status: ('A' for Active; 'I' for Inactive)
    1  A    between atoms: N_3  and  C_25
    2  A    between atoms: N_3  and  O_34
    3  A    between atoms: C_6  and  N_10
    4  A    between atoms: C_8  and  C_16
    5  A    between atoms: C_8  and  O_17
    6  A    between atoms: C_9  and  C_35
    7  A    between atoms: N_10  and  C_30
    8  A    between atoms: C_12  and  C_15
    9  A    between atoms: C_15  and  C_21
   10  A    between atoms: C_16  and  N_18
   11  A    between atoms: C_16  and  C_32
   12  A    between atoms: C_21  and  C_29
   13  A    between atoms: C_21  and  C_31
   14  A    between atoms: C_25  and  C_32
   15  A    between atoms: C_31  and  O_34
                            x       y       z     vdW  Elec       q    Type
                         _______ _______ _______ _____ _____    ______ ____

>  <TORSDO>
F 15

$$$$
=
 OpenBabel11052410293D

 35 37  0  0  1  0  0  0  0  0999 V2000
  160.6580  210.1290  153.0330 C   0  0  2  0  0  3  0  0  0  0  0  0
  158.7760  213.5600  151.1220 C   0  0  0  0  0  3  0  0  0  0  0  0
  158.3420  213.1430  152.3230 C   0  0  0  0  0  3  0  0  0  0  0  0
  160.5770  213.9150  148.3440 N   0  0  0  0  0  0  0  0  0  0  0  0
  159.0570  212.0850  153.1630 C   0  0  1  0  0  3  0  0  0  0  0  0
  161.6260  212.1570  149.3990 C   0  0  0  0  0  0  0  0  0  0  0  0
  160.1070  211.3420  152.4320 N   0  0  0  0  0  0  0  0  0  0  0  0
  160.6660  213.0890  149.4090 C   0  0  0  0  0  0  0  0  0  0  0  0
  161.6010  211.3900  150.4650 O   0  0  0  0  0  0  0  0  0  0  0  0
  160.5820  211.8540  151.1790 C   0  0  0  0  0  0  0  0  0  0  0  0
  159.9630  212.9230  150.5670 C   0  0  0  0  0  0  0  0  0  0  0  0
  159.6350  212.7170  154.3360 N   0  0  0  0  0  1  0  0  0  0  0  0
  162.5400  212.2510  148.0030 S   0  0  0  0  0  0  0  0  0  0  0  0
  161.5690  213.5710  147.4720 C   0  0  0  0  0  0  0  0  0  0  0  0
  161.7680  214.2640  146.1700 C   0  0  0  0  0  2  0  0  0  0  0  0
  162.3960  213.4040  145.2700 O   0  0  0  0  0  1  0  0  0  0  0  0
  162.0740  210.3830  153.5400 C   0  0  0  0  0  2  0  0  0  0  0  0
  161.4970  209.5610  155.5110 C   0  0  0  0  0  1  0  0  0  0  0  0
  162.0380  210.6920  154.9000 O   0  0  0  0  0  0  0  0  0  0  0  0
  160.5970  208.9720  152.0360 C   0  0  0  0  0  2  0  0  0  0  0  0
  161.8960  208.1850  151.9950 C   0  0  0  0  0  2  0  0  0  0  0  0
  161.6390  206.8000  152.3540 N   0  0  0  0  0  2  0  0  0  0  0  0
  161.9010  206.0590  151.2470 O   0  0  0  0  0  0  0  0  0  0  0  0
  160.6490  205.8660  150.6590 C   0  0  0  0  0  2  0  0  0  0  0  0
  160.6910  204.6700  149.7210 C   0  0  1  0  0  3  0  0  0  0  0  0
  161.5640  204.1650  147.5020 C   0  0  0  0  0  3  0  0  0  0  0  0
  161.3680  206.4620  148.1190 O   0  0  0  0  0  1  0  0  0  0  0  0
  161.2280  205.1030  148.3930 C   0  0  0  0  0  0  0  0  0  0  0  0
  162.0470  204.4200  146.1720 N   0  0  0  0  0  0  0  0  0  0  0  0
  163.4620  204.6930  146.0060 C   0  0  0  0  0  1  0  0  0  0  0  0
  160.8140  205.7630  144.5490 C   0  0  0  0  0  1  0  0  0  0  0  0
  161.2150  204.3640  144.9740 C   0  0  0  0  0  2  0  0  0  0  0  0
  161.5550  203.5690  150.3220 C   0  0  0  0  0  2  0  0  0  0  0  0
  161.0400  202.8430  152.4970 O   0  0  0  0  0  0  0  0  0  0  0  0
  160.7750  202.7680  151.3110 C   0  0  0  0  0  3  0  0  0  0  0  0
  1 20  1  6  0  0  0
  1 17  1  0  0  0  0
  2  3  2  0  0  0  0
  3  5  1  0  0  0  0
  4  8  1  0  0  0  0
  5 12  1  1  0  0  0
  6  8  2  0  0  0  0
  6  9  1  0  0  0  0
  7  1  1  0  0  0  0
  7  5  1  0  0  0  0
  8 11  1  0  0  0  0
  9 10  1  0  0  0  0
 10  7  1  0  0  0  0
 11  2  1  0  0  0  0
 11 10  2  0  0  0  0
 13  6  1  0  0  0  0
 14 13  1  0  0  0  0
 14  4  2  0  0  0  0
 15 14  1  0  0  0  0
 16 15  1  0  0  0  0
 17 19  1  0  0  0  0
 19 18  1  0  0  0  0
 21 20  1  0  0  0  0
 21 22  1  0  0  0  0
 23 22  1  0  0  0  0
 24 23  1  0  0  0  0
 25 33  1  1  0  0  0
 25 24  1  0  0  0  0
 26 28  2  0  0  0  0
 27 28  1  0  0  0  0
 28 25  1  0  0  0  0
 29 26  1  0  0  0  0
 30 29  1  0  0  0  0
 31 32  1  0  0  0  0
 32 29  1  0  0  0  0
 33 35  1  0  0  0  0
 35 34  2  0  0  0  0
M  END
>  <MODEL>
8

>  <REMARK>
 VINA RESULT:      -5.4      3.110      5.805
  Name = 
  15 active torsions:
  status: ('A' for Active; 'I' for Inactive)
    1  A    between atoms: N_3  and  C_25
    2  A    between atoms: N_3  and  O_34
    3  A    between atoms: C_6  and  N_10
    4  A    between atoms: C_8  and  C_16
    5  A    between atoms: C_8  and  O_17
    6  A    between atoms: C_9  and  C_35
    7  A    between atoms: N_10  and  C_30
    8  A    between atoms: C_12  and  C_15
    9  A    between atoms: C_15  and  C_21
   10  A    between atoms: C_16  and  N_18
   11  A    between atoms: C_16  and  C_32
   12  A    between atoms: C_21  and  C_29
   13  A    between atoms: C_21  and  C_31
   14  A    between atoms: C_25  and  C_32
   15  A    between atoms: C_31  and  O_34
                            x       y       z     vdW  Elec       q    Type
                         _______ _______ _______ _____ _____    ______ ____

>  <TORSDO>
F 15

$$$$
=
 OpenBabel11052410293D

 35 37  0  0  1  0  0  0  0  0999 V2000
  161.1940  208.9330  151.7340 C   0  0  2  0  0  3  0  0  0  0  0  0
  161.9710  204.6640  151.3580 C   0  0  0  0  0  3  0  0  0  0  0  0
  162.0280  205.2500  152.5650 C   0  0  0  0  0  3  0  0  0  0  0  0
  161.4630  204.1230  148.1120 N   0  0  0  0  0  0  0  0  0  0  0  0
  161.5800  206.6860  152.8330 C   0  0  1  0  0  3  0  0  0  0  0  0
  160.9660  206.3610  148.3290 C   0  0  0  0  0  0  0  0  0  0  0  0
  161.3460  207.4850  151.6100 N   0  0  0  0  0  0  0  0  0  0  0  0
  161.3300  205.2090  148.9040 C   0  0  0  0  0  0  0  0  0  0  0  0
  160.8990  207.3570  149.1840 O   0  0  0  0  0  0  0  0  0  0  0  0
  161.2360  206.8130  150.3480 C   0  0  0  0  0  0  0  0  0  0  0  0
  161.5110  205.4670  150.2310 C   0  0  0  0  0  0  0  0  0  0  0  0
  160.3720  206.6670  153.6410 N   0  0  0  0  0  1  0  0  0  0  0  0
  160.7400  206.1680  146.6850 S   0  0  0  0  0  0  0  0  0  0  0  0
  161.1580  204.5030  146.8370 C   0  0  0  0  0  0  0  0  0  0  0  0
  161.2090  203.5620  145.6850 C   0  0  0  0  0  2  0  0  0  0  0  0
  160.8630  204.2340  144.5130 O   0  0  0  0  0  1  0  0  0  0  0  0
  162.3370  209.6500  151.0230 C   0  0  0  0  0  2  0  0  0  0  0  0
  162.1840  210.5950  149.0290 C   0  0  0  0  0  1  0  0  0  0  0  0
  161.8470  210.7810  150.3690 O   0  0  0  0  0  0  0  0  0  0  0  0
  161.0880  209.3290  153.2070 C   0  0  0  0  0  2  0  0  0  0  0  0
  159.9790  210.3390  153.4470 C   0  0  0  0  0  2  0  0  0  0  0  0
  160.3960  211.2880  154.4660 N   0  0  0  0  0  2  0  0  0  0  0  0
  159.8140  212.4730  154.1510 O   0  0  0  0  0  0  0  0  0  0  0  0
  158.6020  212.1140  153.5590 C   0  0  0  0  0  2  0  0  0  0  0  0
  157.6590  213.3080  153.5310 C   0  0  1  0  0  3  0  0  0  0  0  0
  158.3410  213.4460  151.1950 C   0  0  0  0  0  3  0  0  0  0  0  0
  156.1930  214.3080  151.7740 O   0  0  0  0  0  1  0  0  0  0  0  0
  157.3980  213.6960  152.1090 C   0  0  0  0  0  0  0  0  0  0  0  0
  158.2220  213.7140  149.7870 N   0  0  0  0  0  0  0  0  0  0  0  0
  157.0160  213.2710  149.1130 C   0  0  0  0  0  1  0  0  0  0  0  0
  160.6050  214.1750  149.5330 C   0  0  0  0  0  1  0  0  0  0  0  0
  159.2110  214.4530  149.0080 C   0  0  0  0  0  2  0  0  0  0  0  0
  156.3600  212.9600  154.2460 C   0  0  0  0  0  2  0  0  0  0  0  0
  157.0170  213.2660  156.4810 O   0  0  0  0  0  0  0  0  0  0  0  0
  156.6350  212.4800  155.6320 C   0  0  0  0  0  3  0  0  0  0  0  0
  1 17  1  1  0  0  0
  1 20  1  0  0  0  0
  2  3  2  0  0  0  0
  3  5  1  0  0  0  0
  4  8  1  0  0  0  0
  5 12  1  6  0  0  0
  6  8  2  0  0  0  0
  6  9  1  0  0  0  0
  7  1  1  0  0  0  0
  7  5  1  0  0  0  0
  8 11  1  0  0  0  0
  9 10  1  0  0  0  0
 10  7  1  0  0  0  0
 11 10  2  0  0  0  0
 11  2  1  0  0  0  0
 13 14  1  0  0  0  0
 13  6  1  0  0  0  0
 14  4  2  0  0  0  0
 15 14  1  0  0  0  0
 16 15  1  0  0  0  0
 18 19  1  0  0  0  0
 19 17  1  0  0  0  0
 20 21  1  0  0  0  0
 21 22  1  0  0  0  0
 23 22  1  0  0  0  0
 24 23  1  0  0  0  0
 25 24  1  6  0  0  0
 25 33  1  0  0  0  0
 26 28  2  0  0  0  0
 27 28  1  0  0  0  0
 28 25  1  0  0  0  0
 29 26  1  0  0  0  0
 30 29  1  0  0  0  0
 32 31  1  0  0  0  0
 32 29  1  0  0  0  0
 33 35  1  0  0  0  0
 35 34  2  0  0  0  0
M  END
>  <MODEL>
9

>  <REMARK>
 VINA RESULT:      -5.4      3.039      9.673
  Name = 
  15 active torsions:
  status: ('A' for Active; 'I' for Inactive)
    1  A    between atoms: N_3  and  C_25
    2  A    between atoms: N_3  and  O_34
    3  A    between atoms: C_6  and  N_10
    4  A    between atoms: C_8  and  C_16
    5  A    between atoms: C_8  and  O_17
    6  A    between atoms: C_9  and  C_35
    7  A    between atoms: N_10  and  C_30
    8  A    between atoms: C_12  and  C_15
    9  A    between atoms: C_15  and  C_21
   10  A    between atoms: C_16  and  N_18
   11  A    between atoms: C_16  and  C_32
   12  A    between atoms: C_21  and  C_29
   13  A    between atoms: C_21  and  C_31
   14  A    between atoms: C_25  and  C_32
   15  A    between atoms: C_31  and  O_34
                            x       y       z     vdW  Elec       q    Type
                         _______ _______ _______ _____ _____    ______ ____

>  <TORSDO>
F 15

$$$$
