=
 OpenBabel11052409393D

 38 41  0  0  1  0  0  0  0  0999 V2000
  162.6280  210.4940  150.2620 O   0  0  0  0  0  0  0  0  0  0  0  0
  162.5340  209.2780  150.9660 C   0  0  0  0  0  2  0  0  0  0  0  0
  162.9190  205.9450  152.0980 C   0  0  0  0  0  1  0  0  0  0  0  0
  162.3000  210.2330  148.9100 C   0  0  1  0  0  3  0  0  0  0  0  0
  162.1540  208.1360  147.7990 O   0  0  0  0  0  1  0  0  0  0  0  0
  161.5570  208.9130  148.7920 C   0  0  1  0  0  3  0  0  0  0  0  0
  160.6660  205.1330  151.1300 C   0  0  2  0  0  3  0  0  0  0  0  0
  160.6180  205.9640  149.8910 C   0  0  0  0  0  2  0  0  0  0  0  0
  161.3890  207.1230  150.5020 C   0  0  0  0  0  0  0  0  0  0  0  0
  161.4510  206.2650  151.7560 C   0  0  2  0  0  0  0  0  0  0  0  0
  161.8070  208.3290  150.1070 C   0  0  0  0  0  0  0  0  0  0  0  0
  160.6200  206.9170  152.8840 C   0  0  2  0  0  3  0  0  0  0  0  0
  161.3570  208.0250  153.6250 C   0  0  2  0  0  3  0  0  0  0  0  0
  160.0360  208.3600  155.4300 C   0  0  1  0  0  3  0  0  0  0  0  0
  161.2100  206.6550  154.2610 C   0  0  1  0  0  3  0  0  0  0  0  0
  160.4270  208.9160  154.1990 O   0  0  0  0  0  0  0  0  0  0  0  0
  160.1790  206.8610  155.3310 C   0  0  0  0  0  2  0  0  0  0  0  0
  160.8570  208.8490  156.4520 O   0  0  0  0  0  0  0  0  0  0  0  0
  160.1170  209.8720  157.0480 C   0  0  0  0  0  2  0  0  0  0  0  0
  160.9500  211.1440  157.1160 C   0  0  0  0  0  2  0  0  0  0  0  0
  160.3610  212.0790  155.0270 O   0  0  0  0  0  0  0  0  0  0  0  0
  160.3710  212.2110  156.2410 C   0  0  0  0  0  3  0  0  0  0  0  0
  161.4800  211.3140  148.3870 N   0  0  0  0  0  2  0  0  0  0  0  0
  162.3730  212.3870  147.9800 C   0  0  0  0  0  2  0  0  0  0  0  0
  161.7640  213.1550  146.9070 N   0  0  0  0  0  2  0  0  0  0  0  0
  160.3050  212.6160  145.0390 C   0  0  0  0  0  1  0  0  0  0  0  0
  160.5430  212.4650  146.5280 C   0  0  0  0  0  2  0  0  0  0  0  0
  161.4520  203.8520  150.8580 C   0  0  0  0  0  2  0  0  0  0  0  0
  160.5840  201.6470  150.5540 O   0  0  0  0  0  1  0  0  0  0  0  0
  160.6470  202.9130  149.9720 C   0  0  2  0  0  3  0  0  0  0  0  0
  161.3000  202.7990  148.6000 C   0  0  0  0  0  2  0  0  0  0  0  0
  161.5280  200.4720  148.0300 O   0  0  0  0  0  1  0  0  0  0  0  0
  160.7690  201.6170  147.7830 C   0  0  2  0  0  3  0  0  0  0  0  0
  160.7410  201.9080  146.2870 C   0  0  0  0  0  2  0  0  0  0  0  0
  161.4520  203.2140  145.9640 C   0  0  0  0  0  2  0  0  0  0  0  0
  160.8620  203.8230  144.8570 O   0  0  0  0  0  0  0  0  0  0  0  0
  161.2330  205.1620  144.9530 C   0  0  0  0  0  2  0  0  0  0  0  0
  162.5500  205.2690  145.6910 C   0  0  0  0  0  1  0  0  0  0  0  0
  1  2  1  0  0  0  0
  4 23  1  1  0  0  0
  4  1  1  0  0  0  0
  6  5  1  6  0  0  0
  6  4  1  0  0  0  0
  6 11  1  0  0  0  0
  7 28  1  6  0  0  0
  7 10  1  0  0  0  0
  8  9  1  0  0  0  0
  8  7  1  0  0  0  0
  9 10  1  0  0  0  0
 10  3  1  1  0  0  0
 11  9  2  0  0  0  0
 11  2  1  0  0  0  0
 12 10  1  6  0  0  0
 12 13  1  0  0  0  0
 12 15  1  0  0  0  0
 13 16  1  1  0  0  0
 13 15  1  0  0  0  0
 14 18  1  1  0  0  0
 15 17  1  1  0  0  0
 16 14  1  0  0  0  0
 17 14  1  0  0  0  0
 18 19  1  0  0  0  0
 19 20  1  0  0  0  0
 21 22  2  0  0  0  0
 22 20  1  0  0  0  0
 24 23  1  0  0  0  0
 25 24  1  0  0  0  0
 26 27  1  0  0  0  0
 27 25  1  0  0  0  0
 30 29  1  1  0  0  0
 30 28  1  0  0  0  0
 31 30  1  0  0  0  0
 33 32  1  6  0  0  0
 33 31  1  0  0  0  0
 34 33  1  0  0  0  0
 35 34  1  0  0  0  0
 36 37  1  0  0  0  0
 36 35  1  0  0  0  0
 37 38  1  0  0  0  0
M  END
>  <MODEL>
1

>  <REMARK>
 VINA RESULT:      -7.0      0.000      0.000
  Name = 
  17 active torsions:
  status: ('A' for Active; 'I' for Inactive)
    1  A    between atoms: C_3  and  C_5
    2  A    between atoms: C_3  and  C_30
    3  A    between atoms: C_4  and  N_31
    4  A    between atoms: C_4  and  N_33
    5  A    between atoms: C_5  and  O_11
    6  A    between atoms: C_6  and  C_20
    7  A    between atoms: C_6  and  C_24
    8  A    between atoms: C_9  and  C_37
    9  A    between atoms: C_10  and  C_35
   10  A    between atoms: O_11  and  C_15
   11  A    between atoms: C_16  and  O_26
   12  A    between atoms: C_16  and  C_35
   13  A    between atoms: C_17  and  N_33
   14  A    between atoms: C_23  and  O_26
   15  A    between atoms: C_24  and  C_34
   16  A    between atoms: C_28  and  N_31
   17  A    between atoms: C_30  and  C_34
                            x       y       z     vdW  Elec       q    Type
                         _______ _______ _______ _____ _____    ______ ____

>  <TORSDO>
F 17

$$$$
=
 OpenBabel11052409393D

 38 41  0  0  1  0  0  0  0  0999 V2000
  162.3010  204.1630  147.2040 O   0  0  0  0  0  0  0  0  0  0  0  0
  162.4450  204.9970  148.3290 C   0  0  0  0  0  2  0  0  0  0  0  0
  163.1630  206.3190  151.5350 C   0  0  0  0  0  1  0  0  0  0  0  0
  161.5170  203.0500  147.5930 C   0  0  1  0  0  3  0  0  0  0  0  0
  160.9660  202.3200  149.7880 O   0  0  0  0  0  1  0  0  0  0  0  0
  160.7650  203.3570  148.8760 C   0  0  1  0  0  3  0  0  0  0  0  0
  160.7050  206.2970  152.3270 C   0  0  2  0  0  3  0  0  0  0  0  0
  160.2350  205.0600  151.6340 C   0  0  0  0  0  2  0  0  0  0  0  0
  161.1850  205.2220  150.4590 C   0  0  0  0  0  0  0  0  0  0  0  0
  161.6730  206.4710  151.1760 C   0  0  2  0  0  0  0  0  0  0  0  0
  161.4530  204.5640  149.3260 C   0  0  0  0  0  0  0  0  0  0  0  0
  161.2970  207.7290  150.3620 C   0  0  2  0  0  3  0  0  0  0  0  0
  162.3440  208.1250  149.3300 C   0  0  2  0  0  3  0  0  0  0  0  0
  161.6700  210.1990  148.7290 C   0  0  1  0  0  3  0  0  0  0  0  0
  162.2360  208.8940  150.6340 C   0  0  1  0  0  3  0  0  0  0  0  0
  161.7370  208.8640  148.2940 O   0  0  0  0  0  0  0  0  0  0  0  0
  161.6020  210.1940  150.2370 C   0  0  0  0  0  2  0  0  0  0  0  0
  162.8090  210.8930  148.3080 O   0  0  0  0  0  0  0  0  0  0  0  0
  162.4540  212.2420  148.3810 C   0  0  0  0  0  2  0  0  0  0  0  0
  162.6490  212.9050  147.0240 C   0  0  0  0  0  2  0  0  0  0  0  0
  160.2950  212.7740  146.8710 O   0  0  0  0  0  0  0  0  0  0  0  0
  161.3330  213.1640  146.3610 C   0  0  0  0  0  3  0  0  0  0  0  0
  160.5780  202.7170  146.5330 N   0  0  0  0  0  2  0  0  0  0  0  0
  161.1810  203.1130  145.2710 C   0  0  0  0  0  2  0  0  0  0  0  0
  160.2560  203.9500  144.5240 N   0  0  0  0  0  2  0  0  0  0  0  0
  160.3350  206.2180  145.3940 C   0  0  0  0  0  1  0  0  0  0  0  0
  160.8870  205.2490  144.3670 C   0  0  0  0  0  2  0  0  0  0  0  0
  161.3310  205.9260  153.6690 C   0  0  0  0  0  2  0  0  0  0  0  0
  160.3560  206.7370  155.6950 O   0  0  0  0  0  1  0  0  0  0  0  0
  161.2120  207.0840  154.6490 C   0  0  2  0  0  3  0  0  0  0  0  0
  160.6590  208.3150  153.9400 C   0  0  0  0  0  2  0  0  0  0  0  0
  159.8160  209.8560  155.5860 O   0  0  0  0  0  1  0  0  0  0  0  0
  160.8880  209.6090  154.7270 C   0  0  2  0  0  3  0  0  0  0  0  0
  161.1110  210.8120  153.8170 C   0  0  0  0  0  2  0  0  0  0  0  0
  159.8140  211.2510  153.1530 C   0  0  0  0  0  2  0  0  0  0  0  0
  159.7610  212.6420  153.0740 O   0  0  0  0  0  0  0  0  0  0  0  0
  158.9810  212.9000  151.9480 C   0  0  0  0  0  2  0  0  0  0  0  0
  159.8590  213.4370  150.8380 C   0  0  0  0  0  1  0  0  0  0  0  0
  1  4  1  0  0  0  0
  1  2  1  0  0  0  0
  2 11  1  0  0  0  0
  4 23  1  6  0  0  0
  4  6  1  0  0  0  0
  6 11  1  0  0  0  0
  6  5  1  1  0  0  0
  7 28  1  1  0  0  0
  8  7  1  0  0  0  0
  9 10  1  0  0  0  0
  9  8  1  0  0  0  0
 10  3  1  1  0  0  0
 10  7  1  0  0  0  0
 11  9  2  0  0  0  0
 12 15  1  0  0  0  0
 12 10  1  1  0  0  0
 13 16  1  6  0  0  0
 13 12  1  0  0  0  0
 13 15  1  0  0  0  0
 14 18  1  1  0  0  0
 14 17  1  0  0  0  0
 15 17  1  6  0  0  0
 16 14  1  0  0  0  0
 18 19  1  0  0  0  0
 20 19  1  0  0  0  0
 22 21  2  0  0  0  0
 22 20  1  0  0  0  0
 24 23  1  0  0  0  0
 25 24  1  0  0  0  0
 27 25  1  0  0  0  0
 27 26  1  0  0  0  0
 28 30  1  0  0  0  0
 30 29  1  1  0  0  0
 31 30  1  0  0  0  0
 31 33  1  0  0  0  0
 33 32  1  6  0  0  0
 34 33  1  0  0  0  0
 35 34  1  0  0  0  0
 36 35  1  0  0  0  0
 37 36  1  0  0  0  0
 38 37  1  0  0  0  0
M  END
>  <MODEL>
2

>  <REMARK>
 VINA RESULT:      -6.1      2.719      7.672
  Name = 
  17 active torsions:
  status: ('A' for Active; 'I' for Inactive)
    1  A    between atoms: C_3  and  C_5
    2  A    between atoms: C_3  and  C_30
    3  A    between atoms: C_4  and  N_31
    4  A    between atoms: C_4  and  N_33
    5  A    between atoms: C_5  and  O_11
    6  A    between atoms: C_6  and  C_20
    7  A    between atoms: C_6  and  C_24
    8  A    between atoms: C_9  and  C_37
    9  A    between atoms: C_10  and  C_35
   10  A    between atoms: O_11  and  C_15
   11  A    between atoms: C_16  and  O_26
   12  A    between atoms: C_16  and  C_35
   13  A    between atoms: C_17  and  N_33
   14  A    between atoms: C_23  and  O_26
   15  A    between atoms: C_24  and  C_34
   16  A    between atoms: C_28  and  N_31
   17  A    between atoms: C_30  and  C_34
                            x       y       z     vdW  Elec       q    Type
                         _______ _______ _______ _____ _____    ______ ____

>  <TORSDO>
F 17

$$$$
=
 OpenBabel11052409393D

 38 41  0  0  1  0  0  0  0  0999 V2000
  162.6060  210.9220  150.3910 O   0  0  0  0  0  0  0  0  0  0  0  0
  162.5170  209.7040  151.0930 C   0  0  0  0  0  2  0  0  0  0  0  0
  162.9260  206.3760  152.2290 C   0  0  0  0  0  1  0  0  0  0  0  0
  162.3050  210.6580  149.0340 C   0  0  1  0  0  3  0  0  0  0  0  0
  162.2050  208.5600  147.9190 O   0  0  0  0  0  1  0  0  0  0  0  0
  161.5820  209.3290  148.9030 C   0  0  1  0  0  3  0  0  0  0  0  0
  160.7010  205.5350  151.2230 C   0  0  2  0  0  3  0  0  0  0  0  0
  160.6630  206.3660  149.9840 C   0  0  0  0  0  2  0  0  0  0  0  0
  161.4090  207.5340  150.6080 C   0  0  0  0  0  0  0  0  0  0  0  0
  161.4600  206.6770  151.8630 C   0  0  2  0  0  0  0  0  0  0  0  0
  161.8170  208.7470  150.2220 C   0  0  0  0  0  0  0  0  0  0  0  0
  160.6020  207.3170  152.9770 C   0  0  2  0  0  3  0  0  0  0  0  0
  161.3430  208.3670  153.7930 C   0  0  2  0  0  3  0  0  0  0  0  0
  159.9530  208.6840  155.5490 C   0  0  1  0  0  3  0  0  0  0  0  0
  161.1170  206.9810  154.3680 C   0  0  1  0  0  3  0  0  0  0  0  0
  160.4200  209.2700  154.3600 O   0  0  0  0  0  0  0  0  0  0  0  0
  160.0460  207.1850  155.3970 C   0  0  0  0  0  2  0  0  0  0  0  0
  160.7430  209.1020  156.6250 O   0  0  0  0  0  0  0  0  0  0  0  0
  160.3130  210.4020  156.9010 C   0  0  0  0  0  2  0  0  0  0  0  0
  161.5140  211.3210  157.0730 C   0  0  0  0  0  2  0  0  0  0  0  0
  163.2530  210.7690  155.5720 O   0  0  0  0  0  0  0  0  0  0  0  0
  162.7810  210.6240  156.6880 C   0  0  0  0  0  3  0  0  0  0  0  0
  161.4790  211.7290  148.4970 N   0  0  0  0  0  2  0  0  0  0  0  0
  161.1460  212.6190  149.5980 C   0  0  0  0  0  2  0  0  0  0  0  0
  159.8600  213.2510  149.3480 N   0  0  0  0  0  2  0  0  0  0  0  0
  159.4560  213.6700  151.7070 C   0  0  0  0  0  1  0  0  0  0  0  0
  159.6970  214.2930  150.3460 C   0  0  0  0  0  2  0  0  0  0  0  0
  161.5080  204.2650  150.9640 C   0  0  0  0  0  2  0  0  0  0  0  0
  161.1790  201.8990  150.8820 O   0  0  0  0  0  1  0  0  0  0  0  0
  160.5870  203.1220  150.5640 C   0  0  2  0  0  3  0  0  0  0  0  0
  160.3130  203.1690  149.0660 C   0  0  0  0  0  2  0  0  0  0  0  0
  161.3840  204.5910  147.4450 O   0  0  0  0  0  1  0  0  0  0  0  0
  161.5700  203.4580  148.2390 C   0  0  2  0  0  3  0  0  0  0  0  0
  161.9800  202.2760  147.3690 C   0  0  0  0  0  2  0  0  0  0  0  0
  160.8050  201.3430  147.1150 C   0  0  0  0  0  2  0  0  0  0  0  0
  161.2080  200.2640  146.3270 O   0  0  0  0  0  0  0  0  0  0  0  0
  160.3370  200.2790  145.2400 C   0  0  0  0  0  2  0  0  0  0  0  0
  159.8080  201.6830  145.0370 C   0  0  0  0  0  1  0  0  0  0  0  0
  1  2  1  0  0  0  0
  4 23  1  1  0  0  0
  4  1  1  0  0  0  0
  6  5  1  6  0  0  0
  6  4  1  0  0  0  0
  6 11  1  0  0  0  0
  7 28  1  6  0  0  0
  7 10  1  0  0  0  0
  8  9  1  0  0  0  0
  8  7  1  0  0  0  0
  9 10  1  0  0  0  0
 10  3  1  1  0  0  0
 11  9  2  0  0  0  0
 11  2  1  0  0  0  0
 12 10  1  6  0  0  0
 12 13  1  0  0  0  0
 12 15  1  0  0  0  0
 13 16  1  1  0  0  0
 13 15  1  0  0  0  0
 14 18  1  1  0  0  0
 15 17  1  1  0  0  0
 16 14  1  0  0  0  0
 17 14  1  0  0  0  0
 18 19  1  0  0  0  0
 19 20  1  0  0  0  0
 21 22  2  0  0  0  0
 22 20  1  0  0  0  0
 23 24  1  0  0  0  0
 25 24  1  0  0  0  0
 25 27  1  0  0  0  0
 27 26  1  0  0  0  0
 30 29  1  6  0  0  0
 30 28  1  0  0  0  0
 31 30  1  0  0  0  0
 33 32  1  6  0  0  0
 33 31  1  0  0  0  0
 34 33  1  0  0  0  0
 35 34  1  0  0  0  0
 36 35  1  0  0  0  0
 37 36  1  0  0  0  0
 38 37  1  0  0  0  0
M  END
>  <MODEL>
3

>  <REMARK>
 VINA RESULT:      -5.1      1.595      2.260
  Name = 
  17 active torsions:
  status: ('A' for Active; 'I' for Inactive)
    1  A    between atoms: C_3  and  C_5
    2  A    between atoms: C_3  and  C_30
    3  A    between atoms: C_4  and  N_31
    4  A    between atoms: C_4  and  N_33
    5  A    between atoms: C_5  and  O_11
    6  A    between atoms: C_6  and  C_20
    7  A    between atoms: C_6  and  C_24
    8  A    between atoms: C_9  and  C_37
    9  A    between atoms: C_10  and  C_35
   10  A    between atoms: O_11  and  C_15
   11  A    between atoms: C_16  and  O_26
   12  A    between atoms: C_16  and  C_35
   13  A    between atoms: C_17  and  N_33
   14  A    between atoms: C_23  and  O_26
   15  A    between atoms: C_24  and  C_34
   16  A    between atoms: C_28  and  N_31
   17  A    between atoms: C_30  and  C_34
                            x       y       z     vdW  Elec       q    Type
                         _______ _______ _______ _____ _____    ______ ____

>  <TORSDO>
F 17

$$$$
=
 OpenBabel11052409393D

 38 41  0  0  1  0  0  0  0  0999 V2000
  160.1840  209.8380  154.3810 O   0  0  0  0  0  0  0  0  0  0  0  0
  160.2480  208.9550  153.2860 C   0  0  0  0  0  2  0  0  0  0  0  0
  159.8000  206.2480  151.0480 C   0  0  0  0  0  1  0  0  0  0  0  0
  160.5410  209.1110  155.5410 C   0  0  1  0  0  3  0  0  0  0  0  0
  160.6930  206.7540  155.8250 O   0  0  0  0  0  1  0  0  0  0  0  0
  161.2730  207.8360  155.1590 C   0  0  1  0  0  3  0  0  0  0  0  0
  162.0670  205.1410  151.6010 C   0  0  2  0  0  3  0  0  0  0  0  0
  162.1540  205.4730  153.0540 C   0  0  0  0  0  2  0  0  0  0  0  0
  161.3810  206.7750  152.9190 C   0  0  0  0  0  0  0  0  0  0  0  0
  161.2790  206.4230  151.4430 C   0  0  2  0  0  0  0  0  0  0  0  0
  160.9850  207.7610  153.7290 C   0  0  0  0  0  0  0  0  0  0  0  0
  162.0900  207.4350  150.6010 C   0  0  2  0  0  3  0  0  0  0  0  0
  161.4040  208.7840  150.4390 C   0  0  2  0  0  3  0  0  0  0  0  0
  162.6310  209.7580  148.8080 C   0  0  1  0  0  3  0  0  0  0  0  0
  161.3940  207.7870  149.2960 C   0  0  1  0  0  3  0  0  0  0  0  0
  162.3670  209.7820  150.1890 O   0  0  0  0  0  0  0  0  0  0  0  0
  162.3690  208.3580  148.3090 C   0  0  0  0  0  2  0  0  0  0  0  0
  161.7910  210.6620  148.1490 O   0  0  0  0  0  0  0  0  0  0  0  0
  162.4410  211.8940  148.2510 C   0  0  0  0  0  2  0  0  0  0  0  0
  161.4940  212.9340  148.8330 C   0  0  0  0  0  2  0  0  0  0  0  0
  160.8220  213.3900  146.6140 O   0  0  0  0  0  0  0  0  0  0  0  0
  160.9300  213.8070  147.7560 C   0  0  0  0  0  3  0  0  0  0  0  0
  161.3860  209.9320  156.3950 N   0  0  0  0  0  2  0  0  0  0  0  0
  160.5270  210.8920  157.0690 C   0  0  0  0  0  2  0  0  0  0  0  0
  160.9690  212.2440  156.7690 N   0  0  0  0  0  2  0  0  0  0  0  0
  158.5470  212.2200  156.5650 C   0  0  0  0  0  1  0  0  0  0  0  0
  159.8280  212.9520  156.2140 C   0  0  0  0  0  2  0  0  0  0  0  0
  161.2750  203.8490  151.4180 C   0  0  0  0  0  2  0  0  0  0  0  0
  161.3390  204.3770  149.0880 O   0  0  0  0  0  1  0  0  0  0  0  0
  161.4350  203.3240  149.9980 C   0  0  2  0  0  3  0  0  0  0  0  0
  160.3490  202.3000  149.6930 C   0  0  0  0  0  2  0  0  0  0  0  0
  161.6130  200.4960  148.7230 O   0  0  0  0  0  1  0  0  0  0  0  0
  160.6490  201.4660  148.4440 C   0  0  2  0  0  3  0  0  0  0  0  0
  161.1020  202.3230  147.2660 C   0  0  0  0  0  2  0  0  0  0  0  0
  160.6960  201.6970  145.9400 C   0  0  0  0  0  2  0  0  0  0  0  0
  160.5340  202.6870  144.9710 O   0  0  0  0  0  0  0  0  0  0  0  0
  161.3740  203.7200  145.3810 C   0  0  0  0  0  2  0  0  0  0  0  0
  160.9750  205.0020  144.6810 C   0  0  0  0  0  1  0  0  0  0  0  0
  1  4  1  0  0  0  0
  2 11  1  0  0  0  0
  2  1  1  0  0  0  0
  4 23  1  1  0  0  0
  6  4  1  0  0  0  0
  6  5  1  1  0  0  0
  7 28  1  1  0  0  0
  7  8  1  0  0  0  0
  9  8  1  0  0  0  0
  9 11  2  0  0  0  0
 10  3  1  6  0  0  0
 10  7  1  0  0  0  0
 10  9  1  0  0  0  0
 11  6  1  0  0  0  0
 12 10  1  1  0  0  0
 13 16  1  6  0  0  0
 13 12  1  0  0  0  0
 14 18  1  6  0  0  0
 14 16  1  0  0  0  0
 15 17  1  6  0  0  0
 15 13  1  0  0  0  0
 15 12  1  0  0  0  0
 17 14  1  0  0  0  0
 18 19  1  0  0  0  0
 19 20  1  0  0  0  0
 21 22  2  0  0  0  0
 22 20  1  0  0  0  0
 23 24  1  0  0  0  0
 25 24  1  0  0  0  0
 27 26  1  0  0  0  0
 27 25  1  0  0  0  0
 30 29  1  6  0  0  0
 30 28  1  0  0  0  0
 31 30  1  0  0  0  0
 33 32  1  1  0  0  0
 33 31  1  0  0  0  0
 34 33  1  0  0  0  0
 35 34  1  0  0  0  0
 36 37  1  0  0  0  0
 36 35  1  0  0  0  0
 38 37  1  0  0  0  0
M  END
>  <MODEL>
4

>  <REMARK>
 VINA RESULT:      -4.9      2.459      5.853
  Name = 
  17 active torsions:
  status: ('A' for Active; 'I' for Inactive)
    1  A    between atoms: C_3  and  C_5
    2  A    between atoms: C_3  and  C_30
    3  A    between atoms: C_4  and  N_31
    4  A    between atoms: C_4  and  N_33
    5  A    between atoms: C_5  and  O_11
    6  A    between atoms: C_6  and  C_20
    7  A    between atoms: C_6  and  C_24
    8  A    between atoms: C_9  and  C_37
    9  A    between atoms: C_10  and  C_35
   10  A    between atoms: O_11  and  C_15
   11  A    between atoms: C_16  and  O_26
   12  A    between atoms: C_16  and  C_35
   13  A    between atoms: C_17  and  N_33
   14  A    between atoms: C_23  and  O_26
   15  A    between atoms: C_24  and  C_34
   16  A    between atoms: C_28  and  N_31
   17  A    between atoms: C_30  and  C_34
                            x       y       z     vdW  Elec       q    Type
                         _______ _______ _______ _____ _____    ______ ____

>  <TORSDO>
F 17

$$$$
=
 OpenBabel11052409393D

 38 41  0  0  1  0  0  0  0  0999 V2000
  159.9620  209.5070  155.9330 O   0  0  0  0  0  0  0  0  0  0  0  0
  160.6830  209.3690  154.7310 C   0  0  0  0  0  2  0  0  0  0  0  0
  162.9260  209.7870  152.0230 C   0  0  0  0  0  1  0  0  0  0  0  0
  159.3750  210.7950  155.9360 C   0  0  1  0  0  3  0  0  0  0  0  0
  159.8740  212.6540  154.5400 O   0  0  0  0  0  1  0  0  0  0  0  0
  159.3430  211.3630  154.5280 C   0  0  1  0  0  3  0  0  0  0  0  0
  161.1390  210.7300  150.4140 C   0  0  2  0  0  3  0  0  0  0  0  0
  160.3080  211.4940  151.3910 C   0  0  0  0  0  2  0  0  0  0  0  0
  160.5990  210.5510  152.5480 C   0  0  0  0  0  0  0  0  0  0  0  0
  161.4580  209.7870  151.5530 C   0  0  2  0  0  0  0  0  0  0  0  0
  160.2500  210.4520  153.8340 C   0  0  0  0  0  0  0  0  0  0  0  0
  160.8370  208.3990  151.2740 C   0  0  2  0  0  3  0  0  0  0  0  0
  161.6660  207.2390  151.8070 C   0  0  2  0  0  3  0  0  0  0  0  0
  160.7040  205.4550  150.8030 C   0  0  1  0  0  3  0  0  0  0  0  0
  161.6860  207.5670  150.3260 C   0  0  1  0  0  3  0  0  0  0  0  0
  160.8350  206.1230  152.0340 O   0  0  0  0  0  0  0  0  0  0  0  0
  160.8720  206.4730  149.7010 C   0  0  0  0  0  2  0  0  0  0  0  0
  161.6890  204.4680  150.6920 O   0  0  0  0  0  0  0  0  0  0  0  0
  160.9900  203.2600  150.7330 C   0  0  0  0  0  2  0  0  0  0  0  0
  160.8260  202.7060  149.3240 C   0  0  0  0  0  2  0  0  0  0  0  0
  161.3980  200.6190  148.3760 O   0  0  0  0  0  0  0  0  0  0  0  0
  160.9070  201.2120  149.3230 C   0  0  0  0  0  3  0  0  0  0  0  0
  158.0250  210.7170  156.4720 N   0  0  0  0  0  2  0  0  0  0  0  0
  157.6170  212.0650  156.8330 C   0  0  0  0  0  2  0  0  0  0  0  0
  156.3960  212.4160  156.1270 N   0  0  0  0  0  2  0  0  0  0  0  0
  155.1520  214.3020  155.2310 C   0  0  0  0  0  1  0  0  0  0  0  0
  156.4580  213.8400  155.8470 C   0  0  0  0  0  2  0  0  0  0  0  0
  162.2950  211.6030  149.9320 C   0  0  0  0  0  2  0  0  0  0  0  0
  163.2200  212.1610  147.8010 O   0  0  0  0  0  1  0  0  0  0  0  0
  162.0270  212.1090  148.5220 C   0  0  2  0  0  3  0  0  0  0  0  0
  161.4140  213.5040  148.5740 C   0  0  0  0  0  2  0  0  0  0  0  0
  159.0100  213.4530  148.6840 O   0  0  0  0  0  1  0  0  0  0  0  0
  160.0900  213.6010  147.8110 C   0  0  2  0  0  3  0  0  0  0  0  0
  159.9900  212.5800  146.6840 C   0  0  0  0  0  2  0  0  0  0  0  0
  159.6850  213.2540  145.3540 C   0  0  0  0  0  2  0  0  0  0  0  0
  158.9690  212.3860  144.5280 O   0  0  0  0  0  0  0  0  0  0  0  0
  159.3590  212.7320  143.2350 C   0  0  0  0  0  2  0  0  0  0  0  0
  160.4760  211.8160  142.7830 C   0  0  0  0  0  1  0  0  0  0  0  0
  1  4  1  0  0  0  0
  2  1  1  0  0  0  0
  4 23  1  6  0  0  0
  6  5  1  1  0  0  0
  6  4  1  0  0  0  0
  7 28  1  1  0  0  0
  7  8  1  0  0  0  0
  7 10  1  0  0  0  0
  8  9  1  0  0  0  0
  9 11  2  0  0  0  0
 10  3  1  1  0  0  0
 10  9  1  0  0  0  0
 11  6  1  0  0  0  0
 11  2  1  0  0  0  0
 12 10  1  1  0  0  0
 12 13  1  0  0  0  0
 13 16  1  6  0  0  0
 14 18  1  6  0  0  0
 14 16  1  0  0  0  0
 15 17  1  6  0  0  0
 15 12  1  0  0  0  0
 15 13  1  0  0  0  0
 17 14  1  0  0  0  0
 18 19  1  0  0  0  0
 20 19  1  0  0  0  0
 21 22  2  0  0  0  0
 22 20  1  0  0  0  0
 23 24  1  0  0  0  0
 25 24  1  0  0  0  0
 26 27  1  0  0  0  0
 27 25  1  0  0  0  0
 30 29  1  6  0  0  0
 30 31  1  0  0  0  0
 30 28  1  0  0  0  0
 33 31  1  0  0  0  0
 33 32  1  1  0  0  0
 34 33  1  0  0  0  0
 35 34  1  0  0  0  0
 36 35  1  0  0  0  0
 37 36  1  0  0  0  0
 38 37  1  0  0  0  0
M  END
>  <MODEL>
5

>  <REMARK>
 VINA RESULT:      -4.5      3.201      8.480
  Name = 
  17 active torsions:
  status: ('A' for Active; 'I' for Inactive)
    1  A    between atoms: C_3  and  C_5
    2  A    between atoms: C_3  and  C_30
    3  A    between atoms: C_4  and  N_31
    4  A    between atoms: C_4  and  N_33
    5  A    between atoms: C_5  and  O_11
    6  A    between atoms: C_6  and  C_20
    7  A    between atoms: C_6  and  C_24
    8  A    between atoms: C_9  and  C_37
    9  A    between atoms: C_10  and  C_35
   10  A    between atoms: O_11  and  C_15
   11  A    between atoms: C_16  and  O_26
   12  A    between atoms: C_16  and  C_35
   13  A    between atoms: C_17  and  N_33
   14  A    between atoms: C_23  and  O_26
   15  A    between atoms: C_24  and  C_34
   16  A    between atoms: C_28  and  N_31
   17  A    between atoms: C_30  and  C_34
                            x       y       z     vdW  Elec       q    Type
                         _______ _______ _______ _____ _____    ______ ____

>  <TORSDO>
F 17

$$$$
=
 OpenBabel11052409393D

 38 41  0  0  1  0  0  0  0  0999 V2000
  161.4910  210.8070  147.6360 O   0  0  0  0  0  0  0  0  0  0  0  0
  161.2040  209.4920  148.0520 C   0  0  0  0  0  2  0  0  0  0  0  0
  159.9770  206.6340  149.7430 C   0  0  0  0  0  1  0  0  0  0  0  0
  162.0550  211.4920  148.7380 C   0  0  1  0  0  3  0  0  0  0  0  0
  162.0570  210.8630  151.0310 O   0  0  0  0  0  1  0  0  0  0  0  0
  162.5510  210.5020  149.7770 C   0  0  1  0  0  3  0  0  0  0  0  0
  162.2010  206.1400  150.9620 C   0  0  2  0  0  3  0  0  0  0  0  0
  162.6710  207.5390  151.1890 C   0  0  0  0  0  2  0  0  0  0  0  0
  162.0090  208.0860  149.9350 C   0  0  0  0  0  0  0  0  0  0  0  0
  161.5180  206.6630  149.7170 C   0  0  2  0  0  0  0  0  0  0  0  0
  161.9160  209.2690  149.3200 C   0  0  0  0  0  0  0  0  0  0  0  0
  162.1850  206.0600  148.4610 C   0  0  2  0  0  3  0  0  0  0  0  0
  161.3220  206.1420  147.2090 C   0  0  2  0  0  3  0  0  0  0  0  0
  162.4110  204.7690  145.7790 C   0  0  1  0  0  3  0  0  0  0  0  0
  161.4530  204.8260  147.9550 C   0  0  1  0  0  3  0  0  0  0  0  0
  162.1400  206.1200  146.0620 O   0  0  0  0  0  0  0  0  0  0  0  0
  162.3450  204.0000  147.0760 C   0  0  0  0  0  2  0  0  0  0  0  0
  161.4580  204.2730  144.8840 O   0  0  0  0  0  0  0  0  0  0  0  0
  161.2750  202.9400  145.2580 C   0  0  0  0  0  2  0  0  0  0  0  0
  159.9090  202.4520  144.7940 C   0  0  0  0  0  2  0  0  0  0  0  0
  160.6200  200.3140  145.5060 O   0  0  0  0  0  0  0  0  0  0  0  0
  159.8330  200.9580  144.8300 C   0  0  0  0  0  3  0  0  0  0  0  0
  163.1540  212.3310  148.2850 N   0  0  0  0  0  2  0  0  0  0  0  0
  162.5780  213.5350  147.7080 C   0  0  0  0  0  2  0  0  0  0  0  0
  161.5840  214.0880  148.6140 N   0  0  0  0  0  2  0  0  0  0  0  0
  160.7500  214.2720  146.3390 C   0  0  0  0  0  1  0  0  0  0  0  0
  160.4300  214.4510  147.8100 C   0  0  0  0  0  2  0  0  0  0  0  0
  161.2730  205.7200  152.1000 C   0  0  0  0  0  2  0  0  0  0  0  0
  161.5030  205.7570  154.4780 O   0  0  0  0  0  1  0  0  0  0  0  0
  161.5390  206.5620  153.3400 C   0  0  2  0  0  3  0  0  0  0  0  0
  160.4840  207.6540  153.4670 C   0  0  0  0  0  2  0  0  0  0  0  0
  160.6260  208.7310  155.6150 O   0  0  0  0  0  1  0  0  0  0  0  0
  160.9720  208.8640  154.2700 C   0  0  2  0  0  3  0  0  0  0  0  0
  160.4330  210.1820  153.7240 C   0  0  0  0  0  2  0  0  0  0  0  0
  160.4010  211.2540  154.8030 C   0  0  0  0  0  2  0  0  0  0  0  0
  159.2400  212.0180  154.6880 O   0  0  0  0  0  0  0  0  0  0  0  0
  158.2250  211.1860  155.1570 C   0  0  0  0  0  2  0  0  0  0  0  0
  156.8800  211.8160  154.8650 C   0  0  0  0  0  1  0  0  0  0  0  0
  1  2  1  0  0  0  0
  1  4  1  0  0  0  0
  2 11  1  0  0  0  0
  4 23  1  6  0  0  0
  4  6  1  0  0  0  0
  6  5  1  1  0  0  0
  7  8  1  0  0  0  0
  7 28  1  1  0  0  0
  9  8  1  0  0  0  0
 10  3  1  1  0  0  0
 10  9  1  0  0  0  0
 10  7  1  0  0  0  0
 11  6  1  0  0  0  0
 11  9  2  0  0  0  0
 12 10  1  1  0  0  0
 13 16  1  6  0  0  0
 13 15  1  0  0  0  0
 13 12  1  0  0  0  0
 14 18  1  6  0  0  0
 14 16  1  0  0  0  0
 14 17  1  0  0  0  0
 15 17  1  6  0  0  0
 15 12  1  0  0  0  0
 18 19  1  0  0  0  0
 20 22  1  0  0  0  0
 20 19  1  0  0  0  0
 22 21  2  0  0  0  0
 24 23  1  0  0  0  0
 24 25  1  0  0  0  0
 26 27  1  0  0  0  0
 27 25  1  0  0  0  0
 28 30  1  0  0  0  0
 30 31  1  0  0  0  0
 30 29  1  1  0  0  0
 31 33  1  0  0  0  0
 33 32  1  1  0  0  0
 34 33  1  0  0  0  0
 34 35  1  0  0  0  0
 36 35  1  0  0  0  0
 36 37  1  0  0  0  0
 38 37  1  0  0  0  0
M  END
>  <MODEL>
6

>  <REMARK>
 VINA RESULT:      -4.5      1.860      8.288
  Name = 
  17 active torsions:
  status: ('A' for Active; 'I' for Inactive)
    1  A    between atoms: C_3  and  C_5
    2  A    between atoms: C_3  and  C_30
    3  A    between atoms: C_4  and  N_31
    4  A    between atoms: C_4  and  N_33
    5  A    between atoms: C_5  and  O_11
    6  A    between atoms: C_6  and  C_20
    7  A    between atoms: C_6  and  C_24
    8  A    between atoms: C_9  and  C_37
    9  A    between atoms: C_10  and  C_35
   10  A    between atoms: O_11  and  C_15
   11  A    between atoms: C_16  and  O_26
   12  A    between atoms: C_16  and  C_35
   13  A    between atoms: C_17  and  N_33
   14  A    between atoms: C_23  and  O_26
   15  A    between atoms: C_24  and  C_34
   16  A    between atoms: C_28  and  N_31
   17  A    between atoms: C_30  and  C_34
                            x       y       z     vdW  Elec       q    Type
                         _______ _______ _______ _____ _____    ______ ____

>  <TORSDO>
F 17

$$$$
=
 OpenBabel11052409393D

 38 41  0  0  1  0  0  0  0  0999 V2000
  161.1550  207.5640  156.1420 O   0  0  0  0  0  0  0  0  0  0  0  0
  161.5740  207.1010  154.8800 C   0  0  0  0  0  2  0  0  0  0  0  0
  163.2290  206.6430  151.7830 C   0  0  0  0  0  1  0  0  0  0  0  0
  160.7920  208.9250  156.0000 C   0  0  1  0  0  3  0  0  0  0  0  0
  161.2690  210.4070  154.2030 O   0  0  0  0  0  1  0  0  0  0  0  0
  160.5520  209.2580  154.5380 C   0  0  1  0  0  3  0  0  0  0  0  0
  161.3130  207.6440  150.3700 C   0  0  2  0  0  3  0  0  0  0  0  0
  160.8380  208.6990  151.3140 C   0  0  0  0  0  2  0  0  0  0  0  0
  161.2160  207.9140  152.5600 C   0  0  0  0  0  0  0  0  0  0  0  0
  161.7140  206.8500  151.5940 C   0  0  2  0  0  0  0  0  0  0  0  0
  161.1360  208.0900  153.8820 C   0  0  0  0  0  0  0  0  0  0  0  0
  160.8380  205.5820  151.7070 C   0  0  2  0  0  3  0  0  0  0  0  0
  161.6390  204.2930  151.8240 C   0  0  2  0  0  3  0  0  0  0  0  0
  160.0610  202.7090  151.4820 C   0  0  1  0  0  3  0  0  0  0  0  0
  160.9920  204.6660  150.5030 C   0  0  1  0  0  3  0  0  0  0  0  0
  160.8650  203.3060  152.4690 O   0  0  0  0  0  0  0  0  0  0  0  0
  159.8270  203.7280  150.3940 C   0  0  0  0  0  2  0  0  0  0  0  0
  160.7120  201.5900  150.9530 O   0  0  0  0  0  0  0  0  0  0  0  0
  160.0770  201.3500  149.7330 C   0  0  0  0  0  2  0  0  0  0  0  0
  161.0680  201.5170  148.5890 C   0  0  0  0  0  2  0  0  0  0  0  0
  161.5750  199.8030  147.0430 O   0  0  0  0  0  0  0  0  0  0  0  0
  161.6570  200.1990  148.1950 C   0  0  0  0  0  3  0  0  0  0  0  0
  159.5910  209.1950  156.7750 N   0  0  0  0  0  2  0  0  0  0  0  0
  159.3710  210.6320  156.7590 C   0  0  0  0  0  2  0  0  0  0  0  0
  157.9580  210.9120  156.5600 N   0  0  0  0  0  2  0  0  0  0  0  0
  159.1550  212.8330  155.6730 C   0  0  0  0  0  1  0  0  0  0  0  0
  157.8710  212.0280  155.6330 C   0  0  0  0  0  2  0  0  0  0  0  0
  162.4630  208.1900  149.5280 C   0  0  0  0  0  2  0  0  0  0  0  0
  161.5900  209.3190  147.6110 O   0  0  0  0  0  1  0  0  0  0  0  0
  162.1230  208.1060  148.0460 C   0  0  2  0  0  3  0  0  0  0  0  0
  161.1050  206.9980  147.8050 C   0  0  0  0  0  2  0  0  0  0  0  0
  163.0550  205.7590  147.1320 O   0  0  0  0  0  1  0  0  0  0  0  0
  161.6700  205.8390  146.9790 C   0  0  2  0  0  3  0  0  0  0  0  0
  161.3170  205.9500  145.5000 C   0  0  0  0  0  2  0  0  0  0  0  0
  160.8250  204.6200  144.9480 C   0  0  0  0  0  2  0  0  0  0  0  0
  161.2090  203.5770  145.7920 O   0  0  0  0  0  0  0  0  0  0  0  0
  160.5900  202.4480  145.2590 C   0  0  0  0  0  2  0  0  0  0  0  0
  159.3430  202.8640  144.5080 C   0  0  0  0  0  1  0  0  0  0  0  0
  2  1  1  0  0  0  0
  4  1  1  0  0  0  0
  4 23  1  1  0  0  0
  6  5  1  6  0  0  0
  6  4  1  0  0  0  0
  7 28  1  6  0  0  0
  7  8  1  0  0  0  0
  7 10  1  0  0  0  0
  8  9  1  0  0  0  0
  9 11  2  0  0  0  0
 10  3  1  1  0  0  0
 10  9  1  0  0  0  0
 11  6  1  0  0  0  0
 11  2  1  0  0  0  0
 12 10  1  6  0  0  0
 12 13  1  0  0  0  0
 13 16  1  1  0  0  0
 14 18  1  6  0  0  0
 14 16  1  0  0  0  0
 15 17  1  1  0  0  0
 15 12  1  0  0  0  0
 15 13  1  0  0  0  0
 17 14  1  0  0  0  0
 19 18  1  0  0  0  0
 20 19  1  0  0  0  0
 21 22  2  0  0  0  0
 22 20  1  0  0  0  0
 24 23  1  0  0  0  0
 25 24  1  0  0  0  0
 27 26  1  0  0  0  0
 27 25  1  0  0  0  0
 30 29  1  1  0  0  0
 30 28  1  0  0  0  0
 31 30  1  0  0  0  0
 33 32  1  6  0  0  0
 33 31  1  0  0  0  0
 34 33  1  0  0  0  0
 35 34  1  0  0  0  0
 35 36  1  0  0  0  0
 37 36  1  0  0  0  0
 38 37  1  0  0  0  0
M  END
>  <MODEL>
7

>  <REMARK>
 VINA RESULT:      -4.4      2.929      7.107
  Name = 
  17 active torsions:
  status: ('A' for Active; 'I' for Inactive)
    1  A    between atoms: C_3  and  C_5
    2  A    between atoms: C_3  and  C_30
    3  A    between atoms: C_4  and  N_31
    4  A    between atoms: C_4  and  N_33
    5  A    between atoms: C_5  and  O_11
    6  A    between atoms: C_6  and  C_20
    7  A    between atoms: C_6  and  C_24
    8  A    between atoms: C_9  and  C_37
    9  A    between atoms: C_10  and  C_35
   10  A    between atoms: O_11  and  C_15
   11  A    between atoms: C_16  and  O_26
   12  A    between atoms: C_16  and  C_35
   13  A    between atoms: C_17  and  N_33
   14  A    between atoms: C_23  and  O_26
   15  A    between atoms: C_24  and  C_34
   16  A    between atoms: C_28  and  N_31
   17  A    between atoms: C_30  and  C_34
                            x       y       z     vdW  Elec       q    Type
                         _______ _______ _______ _____ _____    ______ ____

>  <TORSDO>
F 17

$$$$
=
 OpenBabel11052409393D

 38 41  0  0  1  0  0  0  0  0999 V2000
  161.4470  211.0020  147.6980 O   0  0  0  0  0  0  0  0  0  0  0  0
  161.1590  209.6420  147.9260 C   0  0  0  0  0  2  0  0  0  0  0  0
  159.8990  206.5790  149.1770 C   0  0  0  0  0  1  0  0  0  0  0  0
  161.9560  211.5410  148.9030 C   0  0  1  0  0  3  0  0  0  0  0  0
  161.8720  210.6170  151.0930 O   0  0  0  0  0  1  0  0  0  0  0  0
  162.4220  210.4270  149.8240 C   0  0  1  0  0  3  0  0  0  0  0  0
  162.0760  205.9450  150.4140 C   0  0  2  0  0  3  0  0  0  0  0  0
  162.5200  207.3050  150.8410 C   0  0  0  0  0  2  0  0  0  0  0  0
  161.9040  208.0070  149.6420 C   0  0  0  0  0  0  0  0  0  0  0  0
  161.4390  206.6220  149.2200 C   0  0  2  0  0  0  0  0  0  0  0  0
  161.8210  209.2600  149.1840 C   0  0  0  0  0  0  0  0  0  0  0  0
  162.1650  206.1920  147.9250 C   0  0  2  0  0  3  0  0  0  0  0  0
  161.3160  206.3420  146.6700 C   0  0  2  0  0  3  0  0  0  0  0  0
  162.5170  205.1940  145.1350 C   0  0  1  0  0  3  0  0  0  0  0  0
  161.5260  204.9700  147.2850 C   0  0  1  0  0  3  0  0  0  0  0  0
  162.1510  206.4880  145.5440 O   0  0  0  0  0  0  0  0  0  0  0  0
  162.4840  204.2960  146.3480 C   0  0  0  0  0  2  0  0  0  0  0  0
  161.6130  204.7270  144.1750 O   0  0  0  0  0  0  0  0  0  0  0  0
  161.3510  205.8330  143.3630 C   0  0  0  0  0  2  0  0  0  0  0  0
  162.2140  205.7730  142.1100 C   0  0  0  0  0  2  0  0  0  0  0  0
  161.8180  206.8060  140.0220 O   0  0  0  0  0  0  0  0  0  0  0  0
  161.9560  206.9530  141.2260 C   0  0  0  0  0  3  0  0  0  0  0  0
  163.0630  212.4390  148.6090 N   0  0  0  0  0  2  0  0  0  0  0  0
  162.4980  213.7290  148.2480 C   0  0  0  0  0  2  0  0  0  0  0  0
  162.7180  213.9840  146.8340 N   0  0  0  0  0  2  0  0  0  0  0  0
  161.2980  213.3310  144.9720 C   0  0  0  0  0  1  0  0  0  0  0  0
  161.4130  214.1760  146.2260 C   0  0  0  0  0  2  0  0  0  0  0  0
  161.1090  205.3740  151.4480 C   0  0  0  0  0  2  0  0  0  0  0  0
  162.3400  203.3970  151.9840 O   0  0  0  0  0  1  0  0  0  0  0  0
  161.1450  203.8520  151.4260 C   0  0  2  0  0  3  0  0  0  0  0  0
  161.0400  203.3470  149.9920 C   0  0  0  0  0  2  0  0  0  0  0  0
  161.2000  201.0100  150.5480 O   0  0  0  0  0  1  0  0  0  0  0  0
  160.4060  201.9560  149.8960 C   0  0  2  0  0  3  0  0  0  0  0  0
  160.1650  201.5240  148.4540 C   0  0  0  0  0  2  0  0  0  0  0  0
  161.2630  200.5900  147.9660 C   0  0  0  0  0  2  0  0  0  0  0  0
  161.2100  200.4690  146.5770 O   0  0  0  0  0  0  0  0  0  0  0  0
  160.5480  201.6190  146.1500 C   0  0  0  0  0  2  0  0  0  0  0  0
  159.7750  201.3160  144.8850 C   0  0  0  0  0  1  0  0  0  0  0  0
  1  2  1  0  0  0  0
  1  4  1  0  0  0  0
  2 11  1  0  0  0  0
  4 23  1  6  0  0  0
  4  6  1  0  0  0  0
  6  5  1  1  0  0  0
  7  8  1  0  0  0  0
  7 28  1  1  0  0  0
  9  8  1  0  0  0  0
 10  3  1  6  0  0  0
 10  9  1  0  0  0  0
 10  7  1  0  0  0  0
 11  9  2  0  0  0  0
 11  6  1  0  0  0  0
 12 10  1  1  0  0  0
 13 16  1  6  0  0  0
 13 15  1  0  0  0  0
 13 12  1  0  0  0  0
 14 18  1  6  0  0  0
 14 16  1  0  0  0  0
 14 17  1  0  0  0  0
 15 17  1  6  0  0  0
 15 12  1  0  0  0  0
 19 18  1  0  0  0  0
 20 19  1  0  0  0  0
 21 22  2  0  0  0  0
 22 20  1  0  0  0  0
 24 23  1  0  0  0  0
 25 24  1  0  0  0  0
 26 27  1  0  0  0  0
 27 25  1  0  0  0  0
 30 28  1  0  0  0  0
 30 29  1  6  0  0  0
 31 30  1  0  0  0  0
 33 31  1  0  0  0  0
 33 32  1  6  0  0  0
 34 33  1  0  0  0  0
 35 34  1  0  0  0  0
 36 35  1  0  0  0  0
 37 36  1  0  0  0  0
 38 37  1  0  0  0  0
M  END
>  <MODEL>
8

>  <REMARK>
 VINA RESULT:      -4.2      2.979      6.802
  Name = 
  17 active torsions:
  status: ('A' for Active; 'I' for Inactive)
    1  A    between atoms: C_3  and  C_5
    2  A    between atoms: C_3  and  C_30
    3  A    between atoms: C_4  and  N_31
    4  A    between atoms: C_4  and  N_33
    5  A    between atoms: C_5  and  O_11
    6  A    between atoms: C_6  and  C_20
    7  A    between atoms: C_6  and  C_24
    8  A    between atoms: C_9  and  C_37
    9  A    between atoms: C_10  and  C_35
   10  A    between atoms: O_11  and  C_15
   11  A    between atoms: C_16  and  O_26
   12  A    between atoms: C_16  and  C_35
   13  A    between atoms: C_17  and  N_33
   14  A    between atoms: C_23  and  O_26
   15  A    between atoms: C_24  and  C_34
   16  A    between atoms: C_28  and  N_31
   17  A    between atoms: C_30  and  C_34
                            x       y       z     vdW  Elec       q    Type
                         _______ _______ _______ _____ _____    ______ ____

>  <TORSDO>
F 17

$$$$
