=
 OpenBabel11042422033D

 59 61  0  0  1  0  0  0  0  0999 V2000
  161.0010  213.6510  149.4810 C   0  0  2  0  0  3  0  0  0  0  0  0
  160.0150  213.1580  147.1190 C   0  0  1  0  0  3  0  0  0  0  0  0
  159.5100  213.6340  149.4260 C   0  0  0  0  0  0  0  0  0  0  0  0
  161.5860  213.8070  147.7660 S   0  0  0  0  0  0  0  0  0  0  0  0
  158.9020  213.5230  148.0800 C   0  0  0  0  0  2  0  0  0  0  0  0
  158.7620  213.7280  150.4810 N   0  0  0  0  0  0  0  0  0  0  0  0
  161.1030  212.2120  144.6620 O   0  0  0  0  0  0  0  0  0  0  0  0
  160.2910  213.1760  144.6090 C   0  0  0  0  0  0  0  0  0  0  0  0
  159.9090  213.7280  143.3500 N   0  0  0  0  0  2  0  0  0  0  0  0
  159.7480  213.7270  145.8090 N   0  0  0  0  0  2  0  0  0  0  0  0
  160.6470  214.4530  141.1390 C   0  0  0  0  0  1  0  0  0  0  0  0
  160.5070  213.2830  142.0980 C   0  0  2  0  0  3  0  0  0  0  0  0
  159.7070  212.1420  141.4740 C   0  0  0  0  0  2  0  0  0  0  0  0
  160.5290  211.2630  140.5890 C   0  0  0  0  0  0  0  0  0  0  0  0
  160.2820  211.1940  139.3610 O   0  0  0  0  0  0  0  0  0  0  0  0
  161.5650  210.5180  141.1340 O   0  0  0  0  0  1  0  0  0  0  0  0
  161.4650  212.4540  150.0370 O   0  0  0  0  0  0  0  0  0  0  0  0
  162.2660  211.8740  149.0490 C   0  0  0  0  0  2  0  0  0  0  0  0
  162.7990  209.7900  147.8060 C   0  0  0  0  0  1  0  0  0  0  0  0
  162.0540  210.3630  149.0090 C   0  0  1  0  0  3  0  0  0  0  0  0
  162.5410  209.7100  150.3060 C   0  0  1  0  0  3  0  0  0  0  0  0
  161.8660  210.3500  151.5090 C   0  0  0  0  0  1  0  0  0  0  0  0
  162.2160  208.2180  150.3120 C   0  0  0  0  0  2  0  0  0  0  0  0
  160.8830  207.9330  149.6250 C   0  0  0  0  0  2  0  0  0  0  0  0
  160.1230  205.6340  150.1710 C   0  0  0  0  0  2  0  0  0  0  0  0
  160.3950  203.8740  148.0400 O   0  0  0  0  0  0  0  0  0  0  0  0
  160.7790  206.5330  149.2220 N   0  0  0  0  0  0  0  0  0  0  0  0
  160.9530  204.3840  150.4080 C   0  0  0  0  0  2  0  0  0  0  0  0
  161.3090  206.0970  147.9500 C   0  0  0  0  0  0  0  0  0  0  0  0
  161.7020  206.9650  147.1180 O   0  0  0  0  0  0  0  0  0  0  0  0
  160.6240  203.3430  149.3340 C   0  0  2  0  0  3  0  0  0  0  0  0
  161.5110  204.6280  147.6430 C   0  0  2  0  0  3  0  0  0  0  0  0
  163.5270  204.1200  145.6490 O   0  0  0  0  0  1  0  0  0  0  0  0
  161.1530  203.0440  145.4460 O   0  0  0  0  0  0  0  0  0  0  0  0
  161.8580  204.3090  145.8760 P   0  0  1  0  0  0  0  0  0  0  0  0
  160.5000  205.0500  144.0430 O   0  0  0  0  0  1  0  0  0  0  0  0
  161.2960  205.6010  144.9360 O   0  0  0  0  0  0  0  0  0  0  0  0
  161.5020  202.0790  149.3720 C   0  0  1  0  0  3  0  0  0  0  0  0
  161.1430  201.2910  150.4620 O   0  0  0  0  0  1  0  0  0  0  0  0
  161.4360  201.2420  148.0960 C   0  0  0  0  0  2  0  0  0  0  0  0
  162.2510  200.1150  148.2210 O   0  0  0  0  0  1  0  0  0  0  0  0
  159.3110  213.8380  151.7670 N   0  0  0  0  0  2  0  0  0  0  0  0
  159.3100  212.7720  152.6820 N   0  0  0  0  0  2  0  0  0  0  0  0
  159.0690  212.8880  154.0900 C   0  0  0  0  0  0  0  0  0  0  0  0
  158.2350  213.7980  154.5850 C   0  0  0  0  0  2  0  0  0  0  0  0
  159.9580  212.1330  155.0230 C   0  0  0  0  0  2  0  0  0  0  0  0
  159.6050  212.3910  156.4830 C   0  0  1  0  0  3  0  0  0  0  0  0
  159.7310  209.7000  156.6600 C   0  0  0  0  0  2  0  0  0  0  0  0
  158.8700  210.9250  157.2590 S   0  0  0  0  0  0  0  0  0  0  0  0
  159.4430  208.3600  157.0650 N   0  0  0  0  0  2  0  0  0  0  0  0
  159.8450  207.4840  155.9690 C   0  0  2  0  0  3  0  0  0  0  0  0
  160.9140  206.5320  156.4590 C   0  0  0  0  0  1  0  0  0  0  0  0
  160.3670  208.2310  154.7280 C   0  0  2  0  0  3  0  0  0  0  0  0
  161.0410  207.1160  153.4210 S   0  0  0  0  0  0  0  0  0  0  0  0
  161.8280  208.2270  154.6620 C   0  0  0  0  0  2  0  0  0  0  0  0
  160.8170  212.9140  157.2580 C   0  0  0  0  0  2  0  0  0  0  0  0
  162.0110  211.9580  157.2560 C   0  0  0  0  0  2  0  0  0  0  0  0
  162.1820  211.3910  155.9890 O   0  0  0  0  0  0  0  0  0  0  0  0
  163.4680  211.1100  155.9230 O   0  0  0  0  0  1  0  0  0  0  0  0
  1 17  1  6  0  0  0
  2 10  1  6  0  0  0
  2  4  1  0  0  0  0
  2  5  1  0  0  0  0
  3  1  1  0  0  0  0
  3  6  2  0  0  0  0
  4  1  1  0  0  0  0
  5  3  1  0  0  0  0
  6 42  1  0  0  0  0
  8  7  2  0  0  0  0
  8 10  1  0  0  0  0
  9  8  1  0  0  0  0
 12 11  1  6  0  0  0
 12  9  1  0  0  0  0
 13 12  1  0  0  0  0
 14 16  1  0  0  0  0
 14 13  1  0  0  0  0
 15 14  2  0  0  0  0
 18 17  1  0  0  0  0
 20 19  1  6  0  0  0
 20 18  1  0  0  0  0
 20 21  1  0  0  0  0
 21 23  1  0  0  0  0
 21 22  1  1  0  0  0
 24 23  1  0  0  0  0
 25 28  1  0  0  0  0
 26 31  1  0  0  0  0
 27 24  1  0  0  0  0
 27 25  1  0  0  0  0
 29 27  1  0  0  0  0
 30 29  2  0  0  0  0
 31 38  1  6  0  0  0
 31 28  1  0  0  0  0
 32 35  1  6  0  0  0
 32 29  1  0  0  0  0
 32 26  1  0  0  0  0
 33 35  1  0  0  0  0
 35 34  2  6  0  0  0
 36 37  1  0  0  0  0
 37 35  1  0  0  0  0
 38 39  1  1  0  0  0
 40 41  1  0  0  0  0
 40 38  1  0  0  0  0
 42 43  1  0  0  0  0
 43 44  1  0  0  0  0
 44 45  2  0  0  0  0
 44 46  1  0  0  0  0
 47 46  1  6  0  0  0
 47 56  1  0  0  0  0
 47 49  1  0  0  0  0
 48 50  1  0  0  0  0
 48 49  1  0  0  0  0
 51 52  1  1  0  0  0
 51 50  1  0  0  0  0
 53 51  1  1  0  0  0
 54 55  1  0  0  0  0
 54 53  1  0  0  0  0
 55 53  1  0  0  0  0
 57 56  1  0  0  0  0
 58 57  1  0  0  0  0
 59 58  1  0  0  0  0
M  END
>  <MODEL>
1

>  <REMARK>
 VINA RESULT:      -3.0      0.000      0.000
  Name = 
  27 active torsions:
  status: ('A' for Active; 'I' for Inactive)
    1  A    between atoms: C_1  and  C_3
    2  A    between atoms: C_1  and  C_49
    3  A    between atoms: C_4  and  C_10
    4  A    between atoms: C_4  and  C_55
    5  A    between atoms: C_5  and  O_32
    6  A    between atoms: N_8  and  N_22
    7  A    between atoms: N_8  and  N_36
    8  A    between atoms: C_11  and  C_14
    9  A    between atoms: C_11  and  O_21
   10  A    between atoms: C_13  and  N_50
   11  A    between atoms: C_14  and  C_26
   12  A    between atoms: C_15  and  N_38
   13  A    between atoms: C_16  and  N_22
   14  A    between atoms: C_16  and  C_37
   15  A    between atoms: C_19  and  C_43
   16  A    between atoms: C_19  and  C_53
   17  A    between atoms: C_23  and  C_28
   18  A    between atoms: C_23  and  C_43
   19  A    between atoms: C_26  and  S_29
   20  A    between atoms: C_26  and  C_37
   21  A    between atoms: C_28  and  O_32
   22  A    between atoms: C_31  and  C_33
   23  A    between atoms: C_33  and  N_38
   24  A    between atoms: N_40  and  C_53
   25  A    between atoms: N_42  and  C_49
   26  A    between atoms: C_57  and  P_58
   27  A    between atoms: P_58  and  O_59
                            x       y       z     vdW  Elec       q    Type
                         _______ _______ _______ _____ _____    ______ ____

>  <TORSDO>
F 27

$$$$
=
 OpenBabel11042422033D

 59 61  0  0  1  0  0  0  0  0999 V2000
  162.3450  206.1530  147.0600 C   0  0  2  0  0  3  0  0  0  0  0  0
  161.0140  205.2230  145.0210 C   0  0  1  0  0  3  0  0  0  0  0  0
  161.3180  207.0880  146.5150 C   0  0  0  0  0  0  0  0  0  0  0  0
  162.6300  204.8880  145.7850 S   0  0  0  0  0  0  0  0  0  0  0  0
  160.6530  206.6750  145.2590 C   0  0  0  0  0  2  0  0  0  0  0  0
  161.0190  208.2170  147.0790 N   0  0  0  0  0  0  0  0  0  0  0  0
  161.8400  207.0840  143.0280 O   0  0  0  0  0  0  0  0  0  0  0  0
  161.5430  205.9170  142.6510 C   0  0  0  0  0  0  0  0  0  0  0  0
  161.6680  205.5500  141.2780 N   0  0  0  0  0  2  0  0  0  0  0  0
  161.0760  204.9520  143.5950 N   0  0  0  0  0  2  0  0  0  0  0  0
  163.5360  206.7580  140.2730 C   0  0  0  0  0  1  0  0  0  0  0  0
  162.0350  206.5150  140.2510 C   0  0  2  0  0  3  0  0  0  0  0  0
  161.2570  207.8200  140.4100 C   0  0  0  0  0  2  0  0  0  0  0  0
  160.9880  208.5050  139.1110 C   0  0  0  0  0  0  0  0  0  0  0  0
  161.9400  208.8740  138.3820 O   0  0  0  0  0  0  0  0  0  0  0  0
  159.6780  208.7380  138.7170 O   0  0  0  0  0  1  0  0  0  0  0  0
  161.8620  205.5540  148.2280 O   0  0  0  0  0  0  0  0  0  0  0  0
  162.0380  204.1800  148.0380 C   0  0  0  0  0  2  0  0  0  0  0  0
  160.8160  202.0260  147.8300 C   0  0  0  0  0  1  0  0  0  0  0  0
  160.7830  203.4170  148.4560 C   0  0  1  0  0  3  0  0  0  0  0  0
  160.6870  203.3200  149.9810 C   0  0  1  0  0  3  0  0  0  0  0  0
  160.9930  201.9040  150.4440 C   0  0  0  0  0  1  0  0  0  0  0  0
  161.6850  204.2670  150.6440 C   0  0  0  0  0  2  0  0  0  0  0  0
  161.3880  204.4390  152.1320 C   0  0  0  0  0  2  0  0  0  0  0  0
  160.9260  206.7430  151.3320 C   0  0  0  0  0  2  0  0  0  0  0  0
  160.2340  208.4790  153.3860 O   0  0  0  0  0  0  0  0  0  0  0  0
  161.1100  205.8340  152.4630 N   0  0  0  0  0  0  0  0  0  0  0  0
  161.7690  207.9970  151.4910 C   0  0  0  0  0  2  0  0  0  0  0  0
  161.0320  206.2560  153.8430 C   0  0  0  0  0  0  0  0  0  0  0  0
  161.0290  205.3790  154.7550 O   0  0  0  0  0  0  0  0  0  0  0  0
  160.9990  209.0250  152.3250 C   0  0  2  0  0  3  0  0  0  0  0  0
  161.0710  207.7220  154.2220 C   0  0  2  0  0  3  0  0  0  0  0  0
  159.2800  207.0600  156.3780 O   0  0  0  0  0  0  0  0  0  0  0  0
  161.7780  207.6610  156.8600 O   0  0  0  0  0  1  0  0  0  0  0  0
  160.6140  208.0210  155.9670 P   0  0  1  0  0  0  0  0  0  0  0  0
  159.0220  209.7940  155.6900 O   0  0  0  0  0  1  0  0  0  0  0  0
  160.2320  209.6560  156.1900 O   0  0  0  0  0  0  0  0  0  0  0  0
  161.7980  210.2910  152.6860 C   0  0  1  0  0  3  0  0  0  0  0  0
  162.8350  210.4660  151.7730 O   0  0  0  0  0  1  0  0  0  0  0  0
  160.9530  211.5610  152.7450 C   0  0  0  0  0  2  0  0  0  0  0  0
  159.7580  211.3740  152.0490 O   0  0  0  0  0  1  0  0  0  0  0  0
  161.6360  208.6350  148.2660 N   0  0  0  0  0  2  0  0  0  0  0  0
  161.3480  209.8680  148.8740 N   0  0  0  0  0  2  0  0  0  0  0  0
  161.9870  211.1140  148.5650 C   0  0  0  0  0  0  0  0  0  0  0  0
  163.2540  211.1710  148.1650 C   0  0  0  0  0  2  0  0  0  0  0  0
  161.2840  212.3790  148.9370 C   0  0  0  0  0  2  0  0  0  0  0  0
  161.3450  213.4150  147.8210 C   0  0  1  0  0  3  0  0  0  0  0  0
  161.5900  213.5720  145.1370 C   0  0  0  0  0  2  0  0  0  0  0  0
  162.2550  212.7900  146.3810 S   0  0  0  0  0  0  0  0  0  0  0  0
  162.0690  213.3430  143.8110 N   0  0  0  0  0  2  0  0  0  0  0  0
  160.9530  212.8100  143.0360 C   0  0  2  0  0  3  0  0  0  0  0  0
  159.9240  212.2260  143.9790 C   0  0  0  0  0  1  0  0  0  0  0  0
  161.3570  211.7400  142.0060 C   0  0  2  0  0  3  0  0  0  0  0  0
  161.7530  212.4260  140.3390 S   0  0  0  0  0  0  0  0  0  0  0  0
  160.3050  211.5090  141.0160 C   0  0  0  0  0  2  0  0  0  0  0  0
  159.9440  213.9100  147.4530 C   0  0  0  0  0  2  0  0  0  0  0  0
  158.8800  212.8120  147.4500 C   0  0  0  0  0  2  0  0  0  0  0  0
  157.8090  213.1710  146.6250 O   0  0  0  0  0  0  0  0  0  0  0  0
  157.1230  212.0570  146.4690 O   0  0  0  0  0  1  0  0  0  0  0  0
  1 17  1  1  0  0  0
  2 10  1  6  0  0  0
  2  5  1  0  0  0  0
  2  4  1  0  0  0  0
  3  1  1  0  0  0  0
  3  6  2  0  0  0  0
  4  1  1  0  0  0  0
  5  3  1  0  0  0  0
  6 42  1  0  0  0  0
  8  7  2  0  0  0  0
  8 10  1  0  0  0  0
  9  8  1  0  0  0  0
 12 11  1  1  0  0  0
 12 13  1  0  0  0  0
 12  9  1  0  0  0  0
 14 13  1  0  0  0  0
 15 14  2  0  0  0  0
 16 14  1  0  0  0  0
 18 17  1  0  0  0  0
 18 20  1  0  0  0  0
 20 19  1  6  0  0  0
 20 21  1  0  0  0  0
 21 22  1  6  0  0  0
 21 23  1  0  0  0  0
 23 24  1  0  0  0  0
 24 27  1  0  0  0  0
 25 28  1  0  0  0  0
 25 27  1  0  0  0  0
 26 32  1  0  0  0  0
 27 29  1  0  0  0  0
 28 31  1  0  0  0  0
 29 32  1  0  0  0  0
 29 30  2  0  0  0  0
 31 38  1  1  0  0  0
 31 26  1  0  0  0  0
 32 35  1  1  0  0  0
 35 37  1  0  0  0  0
 35 33  2  1  0  0  0
 35 34  1  0  0  0  0
 36 37  1  0  0  0  0
 38 39  1  6  0  0  0
 38 40  1  0  0  0  0
 41 40  1  0  0  0  0
 42 43  1  0  0  0  0
 44 43  1  0  0  0  0
 44 46  1  0  0  0  0
 45 44  2  0  0  0  0
 47 56  1  6  0  0  0
 47 46  1  0  0  0  0
 48 49  1  0  0  0  0
 49 47  1  0  0  0  0
 50 48  1  0  0  0  0
 51 50  1  0  0  0  0
 51 52  1  1  0  0  0
 53 51  1  1  0  0  0
 54 55  1  0  0  0  0
 54 53  1  0  0  0  0
 55 53  1  0  0  0  0
 57 56  1  0  0  0  0
 58 57  1  0  0  0  0
 59 58  1  0  0  0  0
M  END
>  <MODEL>
2

>  <REMARK>
 VINA RESULT:      -2.1      3.611      9.024
  Name = 
  27 active torsions:
  status: ('A' for Active; 'I' for Inactive)
    1  A    between atoms: C_1  and  C_3
    2  A    between atoms: C_1  and  C_49
    3  A    between atoms: C_4  and  C_10
    4  A    between atoms: C_4  and  C_55
    5  A    between atoms: C_5  and  O_32
    6  A    between atoms: N_8  and  N_22
    7  A    between atoms: N_8  and  N_36
    8  A    between atoms: C_11  and  C_14
    9  A    between atoms: C_11  and  O_21
   10  A    between atoms: C_13  and  N_50
   11  A    between atoms: C_14  and  C_26
   12  A    between atoms: C_15  and  N_38
   13  A    between atoms: C_16  and  N_22
   14  A    between atoms: C_16  and  C_37
   15  A    between atoms: C_19  and  C_43
   16  A    between atoms: C_19  and  C_53
   17  A    between atoms: C_23  and  C_28
   18  A    between atoms: C_23  and  C_43
   19  A    between atoms: C_26  and  S_29
   20  A    between atoms: C_26  and  C_37
   21  A    between atoms: C_28  and  O_32
   22  A    between atoms: C_31  and  C_33
   23  A    between atoms: C_33  and  N_38
   24  A    between atoms: N_40  and  C_53
   25  A    between atoms: N_42  and  C_49
   26  A    between atoms: C_57  and  P_58
   27  A    between atoms: P_58  and  O_59
                            x       y       z     vdW  Elec       q    Type
                         _______ _______ _______ _____ _____    ______ ____

>  <TORSDO>
F 27

$$$$
=
 OpenBabel11042422033D

 59 61  0  0  1  0  0  0  0  0999 V2000
  160.8910  213.5970  149.5330 C   0  0  2  0  0  3  0  0  0  0  0  0
  159.7690  213.2240  147.2100 C   0  0  1  0  0  3  0  0  0  0  0  0
  159.4020  213.5240  149.5710 C   0  0  0  0  0  0  0  0  0  0  0  0
  161.3550  213.8900  147.7990 S   0  0  0  0  0  0  0  0  0  0  0  0
  158.7100  213.4790  148.2630 C   0  0  0  0  0  2  0  0  0  0  0  0
  158.7230  213.5180  150.6760 N   0  0  0  0  0  0  0  0  0  0  0  0
  160.4720  212.3000  144.6080 O   0  0  0  0  0  0  0  0  0  0  0  0
  159.7430  213.3270  144.6870 C   0  0  0  0  0  0  0  0  0  0  0  0
  159.2600  213.9610  143.5030 N   0  0  0  0  0  2  0  0  0  0  0  0
  159.3950  213.8670  145.9620 N   0  0  0  0  0  2  0  0  0  0  0  0
  158.4650  213.4990  141.2420 C   0  0  0  0  0  1  0  0  0  0  0  0
  159.6650  213.5230  142.1740 C   0  0  2  0  0  3  0  0  0  0  0  0
  160.3600  212.1640  142.2230 C   0  0  0  0  0  2  0  0  0  0  0  0
  161.4700  212.0360  141.2310 C   0  0  0  0  0  0  0  0  0  0  0  0
  162.0220  210.9250  141.0410 O   0  0  0  0  0  1  0  0  0  0  0  0
  161.8910  213.1530  140.5250 O   0  0  0  0  0  0  0  0  0  0  0  0
  161.4330  212.3860  149.9740 O   0  0  0  0  0  0  0  0  0  0  0  0
  161.8760  211.7370  148.8180 C   0  0  0  0  0  2  0  0  0  0  0  0
  161.2080  209.8560  147.3380 C   0  0  0  0  0  1  0  0  0  0  0  0
  161.3760  210.2940  148.7900 C   0  0  1  0  0  3  0  0  0  0  0  0
  162.3470  209.3660  149.5250 C   0  0  1  0  0  3  0  0  0  0  0  0
  162.4090  209.7240  151.0020 C   0  0  0  0  0  1  0  0  0  0  0  0
  161.8980  207.9120  149.4020 C   0  0  0  0  0  2  0  0  0  0  0  0
  161.5110  207.5650  147.9670 C   0  0  0  0  0  2  0  0  0  0  0  0
  162.0410  205.7010  146.4160 C   0  0  0  0  0  2  0  0  0  0  0  0
  161.9050  203.2100  147.6370 O   0  0  0  0  0  0  0  0  0  0  0  0
  161.5660  206.1250  147.7320 N   0  0  0  0  0  0  0  0  0  0  0  0
  161.1060  204.6780  145.7960 C   0  0  0  0  0  2  0  0  0  0  0  0
  161.1620  205.2000  148.7670 C   0  0  0  0  0  0  0  0  0  0  0  0
  160.9310  205.6410  149.9300 O   0  0  0  0  0  0  0  0  0  0  0  0
  161.4880  203.2770  146.2830 C   0  0  2  0  0  3  0  0  0  0  0  0
  160.8980  203.7410  148.4600 C   0  0  2  0  0  3  0  0  0  0  0  0
  161.6510  203.3960  151.2180 O   0  0  0  0  0  1  0  0  0  0  0  0
  159.2910  202.6480  150.3800 O   0  0  0  0  0  0  0  0  0  0  0  0
  160.7420  202.7120  149.9630 P   0  0  1  0  0  0  0  0  0  0  0  0
  161.8540  200.7460  150.7700 O   0  0  0  0  0  1  0  0  0  0  0  0
  161.2930  201.1410  149.6460 O   0  0  0  0  0  0  0  0  0  0  0  0
  160.5270  202.1580  145.8440 C   0  0  1  0  0  3  0  0  0  0  0  0
  159.9750  202.4730  144.6050 O   0  0  0  0  0  1  0  0  0  0  0  0
  161.1760  200.7770  145.7740 C   0  0  0  0  0  2  0  0  0  0  0  0
  160.3170  199.8760  145.1440 O   0  0  0  0  0  1  0  0  0  0  0  0
  159.3500  213.5640  151.9290 N   0  0  0  0  0  2  0  0  0  0  0  0
  159.4810  212.4320  152.7500 N   0  0  0  0  0  2  0  0  0  0  0  0
  159.3580  212.4240  154.1790 C   0  0  0  0  0  0  0  0  0  0  0  0
  158.4730  213.1930  154.8080 C   0  0  0  0  0  2  0  0  0  0  0  0
  160.4070  211.7220  154.9750 C   0  0  0  0  0  2  0  0  0  0  0  0
  160.1760  211.8610  156.4740 C   0  0  1  0  0  3  0  0  0  0  0  0
  159.4010  209.3250  155.9710 C   0  0  0  0  0  2  0  0  0  0  0  0
  159.7400  210.2710  157.2320 S   0  0  0  0  0  0  0  0  0  0  0  0
  159.0220  207.9630  156.1810 N   0  0  0  0  0  2  0  0  0  0  0  0
  160.0720  207.1310  155.6010 C   0  0  2  0  0  3  0  0  0  0  0  0
  161.3280  207.2590  156.4360 C   0  0  0  0  0  1  0  0  0  0  0  0
  160.4040  207.4690  154.1370 C   0  0  2  0  0  3  0  0  0  0  0  0
  161.6850  206.3680  153.3940 S   0  0  0  0  0  0  0  0  0  0  0  0
  161.7150  208.1050  154.0070 C   0  0  0  0  0  2  0  0  0  0  0  0
  161.3770  212.5200  157.1580 C   0  0  0  0  0  2  0  0  0  0  0  0
  162.6050  211.6150  157.2590 C   0  0  0  0  0  2  0  0  0  0  0  0
  163.4480  211.8090  156.1590 O   0  0  0  0  0  0  0  0  0  0  0  0
  164.0270  210.6390  155.9760 O   0  0  0  0  0  1  0  0  0  0  0  0
  1  3  1  0  0  0  0
  1 17  1  6  0  0  0
  2 10  1  6  0  0  0
  2  4  1  0  0  0  0
  2  5  1  0  0  0  0
  3  6  2  0  0  0  0
  4  1  1  0  0  0  0
  5  3  1  0  0  0  0
  6 42  1  0  0  0  0
  7  8  2  0  0  0  0
  8 10  1  0  0  0  0
  9  8  1  0  0  0  0
 12 11  1  6  0  0  0
 12 13  1  0  0  0  0
 12  9  1  0  0  0  0
 14 13  1  0  0  0  0
 15 14  1  0  0  0  0
 16 14  2  0  0  0  0
 18 17  1  0  0  0  0
 20 19  1  6  0  0  0
 20 18  1  0  0  0  0
 20 21  1  0  0  0  0
 21 22  1  1  0  0  0
 23 21  1  0  0  0  0
 24 23  1  0  0  0  0
 25 27  1  0  0  0  0
 26 32  1  0  0  0  0
 27 24  1  0  0  0  0
 27 29  1  0  0  0  0
 28 31  1  0  0  0  0
 28 25  1  0  0  0  0
 29 30  2  0  0  0  0
 31 38  1  1  0  0  0
 31 26  1  0  0  0  0
 32 29  1  0  0  0  0
 32 35  1  1  0  0  0
 35 34  2  1  0  0  0
 35 33  1  0  0  0  0
 37 35  1  0  0  0  0
 37 36  1  0  0  0  0
 38 39  1  6  0  0  0
 40 38  1  0  0  0  0
 41 40  1  0  0  0  0
 42 43  1  0  0  0  0
 43 44  1  0  0  0  0
 44 45  2  0  0  0  0
 44 46  1  0  0  0  0
 47 46  1  6  0  0  0
 47 56  1  0  0  0  0
 47 49  1  0  0  0  0
 48 50  1  0  0  0  0
 48 49  1  0  0  0  0
 51 50  1  0  0  0  0
 51 52  1  1  0  0  0
 53 51  1  1  0  0  0
 54 55  1  0  0  0  0
 54 53  1  0  0  0  0
 55 53  1  0  0  0  0
 56 57  1  0  0  0  0
 58 57  1  0  0  0  0
 59 58  1  0  0  0  0
M  END
>  <MODEL>
3

>  <REMARK>
 VINA RESULT:      -1.6      1.449      2.521
  Name = 
  27 active torsions:
  status: ('A' for Active; 'I' for Inactive)
    1  A    between atoms: C_1  and  C_3
    2  A    between atoms: C_1  and  C_49
    3  A    between atoms: C_4  and  C_10
    4  A    between atoms: C_4  and  C_55
    5  A    between atoms: C_5  and  O_32
    6  A    between atoms: N_8  and  N_22
    7  A    between atoms: N_8  and  N_36
    8  A    between atoms: C_11  and  C_14
    9  A    between atoms: C_11  and  O_21
   10  A    between atoms: C_13  and  N_50
   11  A    between atoms: C_14  and  C_26
   12  A    between atoms: C_15  and  N_38
   13  A    between atoms: C_16  and  N_22
   14  A    between atoms: C_16  and  C_37
   15  A    between atoms: C_19  and  C_43
   16  A    between atoms: C_19  and  C_53
   17  A    between atoms: C_23  and  C_28
   18  A    between atoms: C_23  and  C_43
   19  A    between atoms: C_26  and  S_29
   20  A    between atoms: C_26  and  C_37
   21  A    between atoms: C_28  and  O_32
   22  A    between atoms: C_31  and  C_33
   23  A    between atoms: C_33  and  N_38
   24  A    between atoms: N_40  and  C_53
   25  A    between atoms: N_42  and  C_49
   26  A    between atoms: C_57  and  P_58
   27  A    between atoms: P_58  and  O_59
                            x       y       z     vdW  Elec       q    Type
                         _______ _______ _______ _____ _____    ______ ____

>  <TORSDO>
F 27

$$$$
=
 OpenBabel11042422033D

 59 62  0  0  1  0  0  0  0  0999 V2000
  160.6500  206.6840  150.9210 C   0  0  2  0  0  3  0  0  0  0  0  0
  162.1480  208.8010  150.6550 C   0  0  1  0  0  3  0  0  0  0  0  0
  161.5130  206.6810  149.7050 C   0  0  0  0  0  0  0  0  0  0  0  0
  160.6000  208.4000  151.5220 S   0  0  2  0  0  3  0  0  0  0  0  0
  162.2560  207.9290  149.4210 C   0  0  0  0  0  2  0  0  0  0  0  0
  161.6100  205.6610  148.9090 N   0  0  0  0  0  0  0  0  0  0  0  0
  161.9800  209.7840  147.9870 O   0  0  0  0  0  0  0  0  0  0  0  0
  162.0200  210.6320  148.9200 C   0  0  0  0  0  0  0  0  0  0  0  0
  161.9350  212.0270  148.6320 N   0  0  0  0  0  2  0  0  0  0  0  0
  162.1520  210.2040  150.2760 N   0  0  0  0  0  2  0  0  0  0  0  0
  163.2860  213.0260  146.8610 C   0  0  0  0  0  1  0  0  0  0  0  0
  161.9070  212.5320  147.2660 C   0  0  2  0  0  3  0  0  0  0  0  0
  160.8520  213.6230  147.0990 C   0  0  0  0  0  2  0  0  0  0  0  0
  159.4670  213.1540  147.4030 C   0  0  0  0  0  0  0  0  0  0  0  0
  159.0160  212.1180  146.8560 O   0  0  0  0  0  0  0  0  0  0  0  0
  158.6770  213.8730  148.2890 O   0  0  0  0  0  1  0  0  0  0  0  0
  161.2100  205.8530  151.8970 O   0  0  0  0  0  0  0  0  0  0  0  0
  160.5150  206.1450  153.0750 C   0  0  0  0  0  2  0  0  0  0  0  0
  162.9000  206.3750  153.7320 C   0  0  0  0  0  1  0  0  0  0  0  0
  161.4640  206.7080  154.1290 C   0  0  1  0  0  3  0  0  0  0  0  0
  161.2820  208.2210  154.2740 C   0  0  1  0  0  3  0  0  0  0  0  0
  160.0570  208.6860  153.5020 C   0  0  0  0  0  2  0  0  0  0  0  0
  161.0960  208.6030  155.7410 C   0  0  0  0  0  2  0  0  0  0  0  0
  161.4710  210.0620  155.9910 C   0  0  0  0  0  2  0  0  0  0  0  0
  159.5340  210.9570  157.2590 C   0  0  0  0  0  2  0  0  0  0  0  0
  158.1820  212.9610  155.8920 O   0  0  0  0  0  0  0  0  0  0  0  0
  160.2900  210.9200  156.0080 N   0  0  0  0  0  0  0  0  0  0  0  0
  158.0500  210.7460  157.0120 C   0  0  0  0  0  2  0  0  0  0  0  0
  159.9180  211.6750  154.8320 C   0  0  0  0  0  0  0  0  0  0  0  0
  160.7180  211.7230  153.8540 O   0  0  0  0  0  0  0  0  0  0  0  0
  157.3920  212.0890  156.6830 C   0  0  2  0  0  3  0  0  0  0  0  0
  158.5480  212.3070  154.7030 C   0  0  2  0  0  3  0  0  0  0  0  0
  156.9770  214.3450  153.4080 O   0  0  0  0  0  1  0  0  0  0  0  0
  159.5890  214.4530  153.3720 O   0  0  0  0  0  0  0  0  0  0  0  0
  158.4330  213.4830  153.3080 P   0  0  1  0  0  0  0  0  0  0  0  0
  157.5290  213.1550  151.1100 O   0  0  0  0  0  1  0  0  0  0  0  0
  158.4990  212.6420  151.8380 O   0  0  0  0  0  0  0  0  0  0  0  0
  155.9130  211.9980  156.2680 C   0  0  1  0  0  3  0  0  0  0  0  0
  155.8020  212.1550  154.8890 O   0  0  0  0  0  1  0  0  0  0  0  0
  155.2310  210.6980  156.6880 C   0  0  0  0  0  2  0  0  0  0  0  0
  154.7400  210.0310  155.5650 O   0  0  0  0  0  1  0  0  0  0  0  0
  160.9140  204.4680  149.1510 N   0  0  0  0  0  0  0  0  0  0  0  0
  161.5670  203.2400  149.3520 N   0  0  0  0  0  0  0  0  0  0  0  0
  160.9180  201.9800  149.5650 C   0  0  0  0  0  0  0  0  0  0  0  0
  160.1130  201.7750  150.6040 C   0  0  0  0  0  2  0  0  0  0  0  0
  161.3490  200.8150  148.7380 C   0  0  0  0  0  2  0  0  0  0  0  0
  160.7210  200.8350  147.3500 C   0  0  1  0  0  3  0  0  0  0  0  0
  160.6450  202.6290  145.3340 C   0  0  0  0  0  2  0  0  0  0  0  0
  160.2000  202.5090  146.8800 S   0  0  0  0  0  0  0  0  0  0  0  0
  160.3790  203.8300  144.6070 N   0  0  0  0  0  2  0  0  0  0  0  0
  160.8430  204.9430  145.4300 C   0  0  2  0  0  3  0  0  0  0  0  0
  159.9100  206.1210  145.2470 C   0  0  0  0  0  1  0  0  0  0  0  0
  162.2840  205.3910  145.1260 C   0  0  2  0  0  3  0  0  0  0  0  0
  163.5600  204.5100  146.1260 S   0  0  0  0  0  0  0  0  0  0  0  0
  162.8420  206.2060  146.2050 C   0  0  0  0  0  2  0  0  0  0  0  0
  161.6550  200.2040  146.3140 C   0  0  0  0  0  2  0  0  0  0  0  0
  161.4720  198.6940  146.1540 C   0  0  0  0  0  2  0  0  0  0  0  0
  161.0660  198.3860  144.8520 O   0  0  0  0  0  0  0  0  0  0  0  0
  161.6470  197.2330  144.5890 O   0  0  0  0  0  1  0  0  0  0  0  0
  1  3  1  6  0  0  0
  1  4  1  0  0  0  0
  1 17  1  0  0  0  0
  2 10  1  6  0  0  0
  2  4  1  0  0  0  0
  4 22  1  1  0  0  0
  5  3  1  0  0  0  0
  5  2  1  0  0  0  0
  6 42  1  0  0  0  0
  6  3  2  0  0  0  0
  7  8  2  0  0  0  0
  8 10  1  0  0  0  0
  9  8  1  0  0  0  0
 12 11  1  1  0  0  0
 12  9  1  0  0  0  0
 13 12  1  0  0  0  0
 13 14  1  0  0  0  0
 14 16  1  0  0  0  0
 15 14  2  0  0  0  0
 17 18  1  0  0  0  0
 18 20  1  0  0  0  0
 20 19  1  6  0  0  0
 20 21  1  0  0  0  0
 21 23  1  1  0  0  0
 22 21  1  0  0  0  0
 23 24  1  0  0  0  0
 24 27  1  0  0  0  0
 26 31  1  0  0  0  0
 27 25  1  0  0  0  0
 28 25  1  0  0  0  0
 29 27  1  0  0  0  0
 30 29  2  0  0  0  0
 31 38  1  6  0  0  0
 31 28  1  0  0  0  0
 32 35  1  6  0  0  0
 32 29  1  0  0  0  0
 32 26  1  0  0  0  0
 35 34  2  1  0  0  0
 35 33  1  0  0  0  0
 36 37  1  0  0  0  0
 37 35  1  0  0  0  0
 38 39  1  6  0  0  0
 38 40  1  0  0  0  0
 41 40  1  0  0  0  0
 42 43  2  0  0  0  0
 43 44  1  0  0  0  0
 44 45  2  0  0  0  0
 46 44  1  0  0  0  0
 47 56  1  6  0  0  0
 47 46  1  0  0  0  0
 48 49  1  0  0  0  0
 49 47  1  0  0  0  0
 50 48  1  0  0  0  0
 50 51  1  0  0  0  0
 51 52  1  6  0  0  0
 53 51  1  1  0  0  0
 53 54  1  0  0  0  0
 53 55  1  0  0  0  0
 54 55  1  0  0  0  0
 57 56  1  0  0  0  0
 58 57  1  0  0  0  0
 59 58  1  0  0  0  0
M  END
>  <MODEL>
4

>  <REMARK>
 VINA RESULT:      -0.7      3.934     10.464
  Name = 
  27 active torsions:
  status: ('A' for Active; 'I' for Inactive)
    1  A    between atoms: C_1  and  C_3
    2  A    between atoms: C_1  and  C_49
    3  A    between atoms: C_4  and  C_10
    4  A    between atoms: C_4  and  C_55
    5  A    between atoms: C_5  and  O_32
    6  A    between atoms: N_8  and  N_22
    7  A    between atoms: N_8  and  N_36
    8  A    between atoms: C_11  and  C_14
    9  A    between atoms: C_11  and  O_21
   10  A    between atoms: C_13  and  N_50
   11  A    between atoms: C_14  and  C_26
   12  A    between atoms: C_15  and  N_38
   13  A    between atoms: C_16  and  N_22
   14  A    between atoms: C_16  and  C_37
   15  A    between atoms: C_19  and  C_43
   16  A    between atoms: C_19  and  C_53
   17  A    between atoms: C_23  and  C_28
   18  A    between atoms: C_23  and  C_43
   19  A    between atoms: C_26  and  S_29
   20  A    between atoms: C_26  and  C_37
   21  A    between atoms: C_28  and  O_32
   22  A    between atoms: C_31  and  C_33
   23  A    between atoms: C_33  and  N_38
   24  A    between atoms: N_40  and  C_53
   25  A    between atoms: N_42  and  C_49
   26  A    between atoms: C_57  and  P_58
   27  A    between atoms: P_58  and  O_59
                            x       y       z     vdW  Elec       q    Type
                         _______ _______ _______ _____ _____    ______ ____

>  <TORSDO>
F 27

$$$$
=
 OpenBabel11042422033D

 59 61  0  0  1  0  0  0  0  0999 V2000
  160.6500  206.1000  146.0290 C   0  0  2  0  0  3  0  0  0  0  0  0
  162.2600  206.9820  147.8800 C   0  0  1  0  0  3  0  0  0  0  0  0
  162.0020  206.4890  145.5360 C   0  0  0  0  0  0  0  0  0  0  0  0
  160.4580  206.8500  147.6750 S   0  0  0  0  0  0  0  0  0  0  0  0
  162.8960  207.1490  146.5140 C   0  0  0  0  0  2  0  0  0  0  0  0
  162.3940  206.2900  144.3160 N   0  0  0  0  0  0  0  0  0  0  0  0
  161.3330  209.6430  147.4640 O   0  0  0  0  0  0  0  0  0  0  0  0
  162.0440  209.4250  148.4820 C   0  0  0  0  0  0  0  0  0  0  0  0
  162.3240  210.4760  149.4050 N   0  0  0  0  0  2  0  0  0  0  0  0
  162.5800  208.1230  148.7210 N   0  0  0  0  0  2  0  0  0  0  0  0
  160.6410  212.1550  149.9610 C   0  0  0  0  0  1  0  0  0  0  0  0
  161.8980  211.8480  149.1640 C   0  0  2  0  0  3  0  0  0  0  0  0
  161.6920  212.1130  147.6740 C   0  0  0  0  0  2  0  0  0  0  0  0
  162.6180  213.1490  147.1270 C   0  0  0  0  0  0  0  0  0  0  0  0
  162.6460  214.2990  147.6280 O   0  0  0  0  0  1  0  0  0  0  0  0
  163.4450  212.8350  146.0580 O   0  0  0  0  0  0  0  0  0  0  0  0
  160.5670  204.7070  146.1270 O   0  0  0  0  0  0  0  0  0  0  0  0
  160.1430  204.4530  147.4340 C   0  0  0  0  0  2  0  0  0  0  0  0
  162.4180  203.5060  147.7490 C   0  0  0  0  0  1  0  0  0  0  0  0
  160.9350  203.2950  148.0380 C   0  0  1  0  0  3  0  0  0  0  0  0
  160.6880  203.1940  149.5460 C   0  0  1  0  0  3  0  0  0  0  0  0
  161.1510  201.8430  150.0700 C   0  0  0  0  0  1  0  0  0  0  0  0
  161.4540  204.2850  150.2910 C   0  0  0  0  0  2  0  0  0  0  0  0
  160.5430  205.4510  150.6650 C   0  0  0  0  0  2  0  0  0  0  0  0
  161.4160  205.1800  152.9730 C   0  0  0  0  0  2  0  0  0  0  0  0
  162.0810  207.5990  154.1650 O   0  0  0  0  0  0  0  0  0  0  0  0
  160.9680  206.0810  151.9120 N   0  0  0  0  0  0  0  0  0  0  0  0
  160.7430  205.5080  154.2940 C   0  0  0  0  0  2  0  0  0  0  0  0
  160.9310  207.5190  152.0530 C   0  0  0  0  0  0  0  0  0  0  0  0
  160.6970  208.2320  151.0340 O   0  0  0  0  0  0  0  0  0  0  0  0
  161.5370  206.6010  155.0130 C   0  0  2  0  0  3  0  0  0  0  0  0
  161.0480  208.1800  153.4110 C   0  0  2  0  0  3  0  0  0  0  0  0
  162.6410  210.3030  152.2900 O   0  0  0  0  0  0  0  0  0  0  0  0
  160.0880  210.6470  152.7350 O   0  0  0  0  0  1  0  0  0  0  0  0
  161.3210  209.9850  153.3050 P   0  0  1  0  0  0  0  0  0  0  0  0
  160.7850  211.6240  154.9720 O   0  0  0  0  0  1  0  0  0  0  0  0
  161.6210  210.6150  154.8480 O   0  0  0  0  0  0  0  0  0  0  0  0
  160.8830  207.1320  156.3020 C   0  0  1  0  0  3  0  0  0  0  0  0
  161.5650  208.2630  156.7430 O   0  0  0  0  0  1  0  0  0  0  0  0
  159.3990  207.4590  156.1540 C   0  0  0  0  0  2  0  0  0  0  0  0
  159.2250  208.8360  156.0100 O   0  0  0  0  0  1  0  0  0  0  0  0
  161.5680  205.6710  143.3670 N   0  0  0  0  0  2  0  0  0  0  0  0
  161.9890  205.4140  142.0520 N   0  0  0  0  0  2  0  0  0  0  0  0
  162.0950  206.3910  141.0080 C   0  0  0  0  0  0  0  0  0  0  0  0
  162.8490  206.1850  139.9320 C   0  0  0  0  0  2  0  0  0  0  0  0
  161.5400  207.7540  141.2580 C   0  0  0  0  0  2  0  0  0  0  0  0
  161.7970  208.6980  140.0900 C   0  0  1  0  0  3  0  0  0  0  0  0
  159.7400  209.2400  138.4280 C   0  0  0  0  0  2  0  0  0  0  0  0
  160.9240  208.1580  138.5930 S   0  0  0  0  0  0  0  0  0  0  0  0
  158.8340  209.1440  137.3260 N   0  0  0  0  0  2  0  0  0  0  0  0
  157.5750  209.7470  137.7510 C   0  0  2  0  0  3  0  0  0  0  0  0
  156.4370  208.8010  137.4350 C   0  0  0  0  0  1  0  0  0  0  0  0
  157.2860  211.1150  137.1070 C   0  0  2  0  0  3  0  0  0  0  0  0
  158.0720  212.5320  137.9910 S   0  0  0  0  0  0  0  0  0  0  0  0
  156.3420  211.9040  137.8990 C   0  0  0  0  0  2  0  0  0  0  0  0
  161.4640  210.1440  140.4670 C   0  0  0  0  0  2  0  0  0  0  0  0
  162.3440  211.1830  139.7710 C   0  0  0  0  0  2  0  0  0  0  0  0
  162.7060  212.1950  140.6660 O   0  0  0  0  0  0  0  0  0  0  0  0
  161.9590  211.9790  141.7300 O   0  0  0  0  0  1  0  0  0  0  0  0
  1 17  1  1  0  0  0
  1  4  1  0  0  0  0
  2 10  1  1  0  0  0
  3  1  1  0  0  0  0
  3  5  1  0  0  0  0
  4  2  1  0  0  0  0
  5  2  1  0  0  0  0
  6  3  2  0  0  0  0
  7  8  2  0  0  0  0
  8 10  1  0  0  0  0
  8  9  1  0  0  0  0
 12  9  1  0  0  0  0
 12 11  1  1  0  0  0
 13 12  1  0  0  0  0
 14 15  1  0  0  0  0
 14 13  1  0  0  0  0
 16 14  2  0  0  0  0
 17 18  1  0  0  0  0
 18 20  1  0  0  0  0
 20 19  1  1  0  0  0
 20 21  1  0  0  0  0
 21 22  1  1  0  0  0
 21 23  1  0  0  0  0
 23 24  1  0  0  0  0
 24 27  1  0  0  0  0
 25 28  1  0  0  0  0
 26 31  1  0  0  0  0
 27 29  1  0  0  0  0
 27 25  1  0  0  0  0
 28 31  1  0  0  0  0
 29 32  1  0  0  0  0
 30 29  2  0  0  0  0
 31 38  1  1  0  0  0
 32 35  1  6  0  0  0
 32 26  1  0  0  0  0
 34 35  1  0  0  0  0
 35 33  2  6  0  0  0
 35 37  1  0  0  0  0
 37 36  1  0  0  0  0
 38 39  1  6  0  0  0
 40 38  1  0  0  0  0
 41 40  1  0  0  0  0
 42  6  1  0  0  0  0
 43 42  1  0  0  0  0
 44 46  1  0  0  0  0
 44 43  1  0  0  0  0
 45 44  2  0  0  0  0
 47 56  1  1  0  0  0
 47 46  1  0  0  0  0
 48 49  1  0  0  0  0
 49 47  1  0  0  0  0
 50 51  1  0  0  0  0
 50 48  1  0  0  0  0
 51 52  1  6  0  0  0
 53 51  1  1  0  0  0
 53 55  1  0  0  0  0
 53 54  1  0  0  0  0
 55 54  1  0  0  0  0
 57 56  1  0  0  0  0
 57 58  1  0  0  0  0
 58 59  1  0  0  0  0
M  END
>  <MODEL>
5

>  <REMARK>
 VINA RESULT:      -0.1      3.979     11.334
  Name = 
  27 active torsions:
  status: ('A' for Active; 'I' for Inactive)
    1  A    between atoms: C_1  and  C_3
    2  A    between atoms: C_1  and  C_49
    3  A    between atoms: C_4  and  C_10
    4  A    between atoms: C_4  and  C_55
    5  A    between atoms: C_5  and  O_32
    6  A    between atoms: N_8  and  N_22
    7  A    between atoms: N_8  and  N_36
    8  A    between atoms: C_11  and  C_14
    9  A    between atoms: C_11  and  O_21
   10  A    between atoms: C_13  and  N_50
   11  A    between atoms: C_14  and  C_26
   12  A    between atoms: C_15  and  N_38
   13  A    between atoms: C_16  and  N_22
   14  A    between atoms: C_16  and  C_37
   15  A    between atoms: C_19  and  C_43
   16  A    between atoms: C_19  and  C_53
   17  A    between atoms: C_23  and  C_28
   18  A    between atoms: C_23  and  C_43
   19  A    between atoms: C_26  and  S_29
   20  A    between atoms: C_26  and  C_37
   21  A    between atoms: C_28  and  O_32
   22  A    between atoms: C_31  and  C_33
   23  A    between atoms: C_33  and  N_38
   24  A    between atoms: N_40  and  C_53
   25  A    between atoms: N_42  and  C_49
   26  A    between atoms: C_57  and  P_58
   27  A    between atoms: P_58  and  O_59
                            x       y       z     vdW  Elec       q    Type
                         _______ _______ _______ _____ _____    ______ ____

>  <TORSDO>
F 27

$$$$
