=
 OpenBabel11042421103D

 28 32  0  0  1  0  0  0  0  0999 V2000
  161.2280  209.7560  152.0180 C   0  0  0  0  0  2  0  0  0  0  0  0
  161.9960  207.1980  150.8310 C   0  0  1  0  0  3  0  0  0  0  0  0
  161.8900  208.4760  150.0370 C   0  0  0  0  0  0  0  0  0  0  0  0
  160.6530  201.2290  148.5240 C   0  0  0  0  0  3  0  0  0  0  0  0
  161.6770  204.6990  146.4290 C   0  0  0  0  0  0  0  0  0  0  0  0
  161.3540  204.7880  150.6380 O   0  0  0  0  0  0  0  0  0  0  0  0
  162.0270  205.8350  145.6440 N   0  0  0  0  0  1  0  0  0  0  0  0
  161.5770  208.5240  152.8600 C   0  0  2  0  0  3  0  0  0  0  0  0
  160.5430  201.2520  149.9180 C   0  0  0  0  0  3  0  0  0  0  0  0
  161.6280  209.6130  150.6130 N   0  0  0  0  0  0  0  0  0  0  0  0
  162.1550  208.4360  148.6340 N   0  0  0  0  0  0  0  0  0  0  0  0
  160.7760  202.4380  150.6210 C   0  0  0  0  0  3  0  0  0  0  0  0
  162.1280  207.3150  147.9790 C   0  0  0  0  0  3  0  0  0  0  0  0
  161.1680  207.2690  152.1060 C   0  0  0  0  0  2  0  0  0  0  0  0
  161.8030  206.0260  148.6380 C   0  0  0  0  0  0  0  0  0  0  0  0
  161.1100  202.3840  146.4480 C   0  0  0  0  0  3  0  0  0  0  0  0
  161.4450  203.5210  145.7870 N   0  0  0  0  0  0  0  0  0  0  0  0
  161.2300  203.5930  148.5340 C   0  0  0  0  0  0  0  0  0  0  0  0
  160.9960  202.3940  147.8320 C   0  0  0  0  0  0  0  0  0  0  0  0
  161.5740  204.7730  147.8430 C   0  0  0  0  0  0  0  0  0  0  0  0
  161.1180  203.6060  149.9340 C   0  0  0  0  0  0  0  0  0  0  0  0
  161.6880  205.9850  149.9890 C   0  0  0  0  0  0  0  0  0  0  0  0
  160.8490  208.5760  154.1900 C   0  0  0  0  0  2  0  0  0  0  0  0
  160.4940  209.9510  154.5090 N   0  0  0  0  0  2  0  0  0  0  0  0
  161.1760  210.7060  155.5110 C   0  0  0  0  0  0  0  0  0  0  0  0
  160.8170  211.8890  155.7460 O   0  0  0  0  0  0  0  0  0  0  0  0
  162.2860  210.1080  156.3100 C   0  0  0  0  0  2  0  0  0  0  0  0
  163.4660  210.8110  156.0710 O   0  0  0  0  0  1  0  0  0  0  0  0
  1  8  1  0  0  0  0
  2 14  1  1  0  0  0
  3 10  2  0  0  0  0
  3  2  1  0  0  0  0
  4  9  1  0  0  0  0
  5 20  2  0  0  0  0
  7  5  1  0  0  0  0
  8 23  1  1  0  0  0
  9 12  2  0  0  0  0
 10  1  1  0  0  0  0
 11  3  1  0  0  0  0
 13 11  2  0  0  0  0
 13 15  1  0  0  0  0
 14  8  1  0  0  0  0
 15 22  2  0  0  0  0
 16 19  1  0  0  0  0
 17  5  1  0  0  0  0
 17 16  2  0  0  0  0
 18 21  2  0  0  0  0
 19  4  2  0  0  0  0
 19 18  1  0  0  0  0
 20 18  1  0  0  0  0
 20 15  1  0  0  0  0
 21 12  1  0  0  0  0
 21  6  1  0  0  0  0
 22  6  1  0  0  0  0
 22  2  1  0  0  0  0
 23 24  1  0  0  0  0
 24 25  1  0  0  0  0
 25 26  2  0  0  0  0
 25 27  1  0  0  0  0
 28 27  1  0  0  0  0
M  END
>  <MODEL>
1

>  <REMARK>
 VINA RESULT:     -10.6      0.000      0.000
  Name = 
  3 active torsions:
  status: ('A' for Active; 'I' for Inactive)
    1  A    between atoms: C_8  and  C_22
    2  A    between atoms: N_10  and  C_22
    3  A    between atoms: C_11  and  C_24
                            x       y       z     vdW  Elec       q    Type
                         _______ _______ _______ _____ _____    ______ ____

>  <TORSDO>
F 3

$$$$
=
 OpenBabel11042421103D

 28 32  0  0  1  0  0  0  0  0999 V2000
  161.8590  207.3620  153.6320 C   0  0  0  0  0  2  0  0  0  0  0  0
  160.7960  206.1870  151.1760 C   0  0  1  0  0  3  0  0  0  0  0  0
  161.1220  205.3750  152.4040 C   0  0  0  0  0  0  0  0  0  0  0  0
  161.3930  204.0760  145.0170 C   0  0  0  0  0  3  0  0  0  0  0  0
  160.9760  201.8600  148.5380 C   0  0  0  0  0  0  0  0  0  0  0  0
  161.1000  206.0780  148.6950 O   0  0  0  0  0  0  0  0  0  0  0  0
  160.8300  201.0350  149.6890 N   0  0  0  0  0  1  0  0  0  0  0  0
  161.2980  208.2090  152.4860 C   0  0  2  0  0  3  0  0  0  0  0  0
  161.4360  205.4730  145.0630 C   0  0  0  0  0  3  0  0  0  0  0  0
  161.5130  205.9410  153.5080 N   0  0  0  0  0  0  0  0  0  0  0  0
  160.9230  203.9610  152.3630 N   0  0  0  0  0  0  0  0  0  0  0  0
  161.3390  206.1390  146.2890 C   0  0  0  0  0  3  0  0  0  0  0  0
  160.8230  203.3310  151.2330 C   0  0  0  0  0  3  0  0  0  0  0  0
  161.5610  207.5030  151.1650 C   0  0  0  0  0  2  0  0  0  0  0  0
  160.9290  204.0320  149.9290 C   0  0  0  0  0  0  0  0  0  0  0  0
  161.2080  201.9550  146.1670 C   0  0  0  0  0  3  0  0  0  0  0  0
  161.0700  201.2550  147.3220 N   0  0  0  0  0  0  0  0  0  0  0  0
  161.1570  204.0080  147.4380 C   0  0  0  0  0  0  0  0  0  0  0  0
  161.2530  203.3440  146.1990 C   0  0  0  0  0  0  0  0  0  0  0  0
  161.0180  203.2760  148.6350 C   0  0  0  0  0  0  0  0  0  0  0  0
  161.2000  205.4110  147.4740 C   0  0  0  0  0  0  0  0  0  0  0  0
  160.9710  205.3880  149.9090 C   0  0  0  0  0  0  0  0  0  0  0  0
  161.9590  209.5740  152.4710 C   0  0  0  0  0  2  0  0  0  0  0  0
  161.7390  210.2470  153.7430 N   0  0  0  0  0  2  0  0  0  0  0  0
  160.7830  211.2960  153.9000 C   0  0  0  0  0  0  0  0  0  0  0  0
  160.6450  211.8440  155.0240 O   0  0  0  0  0  0  0  0  0  0  0  0
  159.9670  211.7790  152.7470 C   0  0  0  0  0  2  0  0  0  0  0  0
  158.7390  211.1200  152.7320 O   0  0  0  0  0  1  0  0  0  0  0  0
  2 14  1  6  0  0  0
  2  3  1  0  0  0  0
  3 10  2  0  0  0  0
  4  9  2  0  0  0  0
  4 19  1  0  0  0  0
  5 20  1  0  0  0  0
  5  7  1  0  0  0  0
  6 22  1  0  0  0  0
  8 23  1  6  0  0  0
  8  1  1  0  0  0  0
  9 12  1  0  0  0  0
 10  1  1  0  0  0  0
 11  3  1  0  0  0  0
 12 21  2  0  0  0  0
 13 11  2  0  0  0  0
 14  8  1  0  0  0  0
 15 13  1  0  0  0  0
 16 19  2  0  0  0  0
 16 17  1  0  0  0  0
 17  5  2  0  0  0  0
 18 21  1  0  0  0  0
 18 20  2  0  0  0  0
 19 18  1  0  0  0  0
 20 15  1  0  0  0  0
 21  6  1  0  0  0  0
 22 15  2  0  0  0  0
 22  2  1  0  0  0  0
 23 24  1  0  0  0  0
 24 25  1  0  0  0  0
 25 26  2  0  0  0  0
 27 25  1  0  0  0  0
 28 27  1  0  0  0  0
M  END
>  <MODEL>
2

>  <REMARK>
 VINA RESULT:     -10.2      2.211      3.623
  Name = 
  3 active torsions:
  status: ('A' for Active; 'I' for Inactive)
    1  A    between atoms: C_8  and  C_22
    2  A    between atoms: N_10  and  C_22
    3  A    between atoms: C_11  and  C_24
                            x       y       z     vdW  Elec       q    Type
                         _______ _______ _______ _____ _____    ______ ____

>  <TORSDO>
F 3

$$$$
=
 OpenBabel11042421103D

 28 32  0  0  1  0  0  0  0  0999 V2000
  161.9100  208.3690  152.9540 C   0  0  0  0  0  2  0  0  0  0  0  0
  160.7970  206.7080  150.8220 C   0  0  1  0  0  3  0  0  0  0  0  0
  161.1940  206.1610  152.1700 C   0  0  0  0  0  0  0  0  0  0  0  0
  161.2350  203.4420  145.1750 C   0  0  0  0  0  3  0  0  0  0  0  0
  161.0210  201.9520  149.0760 C   0  0  0  0  0  0  0  0  0  0  0  0
  161.0120  206.1200  148.4000 O   0  0  0  0  0  0  0  0  0  0  0  0
  160.9450  201.3660  150.3720 N   0  0  0  0  0  1  0  0  0  0  0  0
  161.2800  208.9590  151.6890 C   0  0  2  0  0  3  0  0  0  0  0  0
  161.2340  204.8210  144.9450 C   0  0  0  0  0  3  0  0  0  0  0  0
  161.6070  206.9430  153.1250 N   0  0  0  0  0  0  0  0  0  0  0  0
  161.0410  204.7630  152.4150 N   0  0  0  0  0  0  0  0  0  0  0  0
  161.1610  205.7120  146.0200 C   0  0  0  0  0  3  0  0  0  0  0  0
  160.9200  203.9200  151.4350 C   0  0  0  0  0  3  0  0  0  0  0  0
  161.5180  208.0150  150.5220 C   0  0  0  0  0  2  0  0  0  0  0  0
  160.9550  204.3540  150.0160 C   0  0  0  0  0  0  0  0  0  0  0  0
  161.1620  201.5850  146.7250 C   0  0  0  0  0  3  0  0  0  0  0  0
  161.0900  201.1230  147.9990 N   0  0  0  0  0  0  0  0  0  0  0  0
  161.0920  203.8450  147.5700 C   0  0  0  0  0  0  0  0  0  0  0  0
  161.1640  202.9530  146.4820 C   0  0  0  0  0  0  0  0  0  0  0  0
  161.0210  203.3600  148.8920 C   0  0  0  0  0  0  0  0  0  0  0  0
  161.0890  205.2280  147.3290 C   0  0  0  0  0  0  0  0  0  0  0  0
  160.9510  205.6800  149.7300 C   0  0  0  0  0  0  0  0  0  0  0  0
  161.8950  210.3110  151.3790 C   0  0  0  0  0  2  0  0  0  0  0  0
  162.2190  210.3980  149.9630 N   0  0  0  0  0  2  0  0  0  0  0  0
  161.8450  211.5160  149.1570 C   0  0  0  0  0  0  0  0  0  0  0  0
  162.1470  211.5270  147.9360 O   0  0  0  0  0  0  0  0  0  0  0  0
  161.0690  212.6560  149.7280 C   0  0  0  0  0  2  0  0  0  0  0  0
  161.2250  213.7800  148.9180 O   0  0  0  0  0  1  0  0  0  0  0  0
  1 10  1  0  0  0  0
  2 14  1  6  0  0  0
  2  3  1  0  0  0  0
  3 11  1  0  0  0  0
  3 10  2  0  0  0  0
  4 19  1  0  0  0  0
  5  7  1  0  0  0  0
  6 22  1  0  0  0  0
  8 23  1  6  0  0  0
  8  1  1  0  0  0  0
  9  4  2  0  0  0  0
  9 12  1  0  0  0  0
 12 21  2  0  0  0  0
 13 11  2  0  0  0  0
 14  8  1  0  0  0  0
 15 13  1  0  0  0  0
 16 17  1  0  0  0  0
 17  5  2  0  0  0  0
 18 20  2  0  0  0  0
 19 16  2  0  0  0  0
 19 18  1  0  0  0  0
 20  5  1  0  0  0  0
 20 15  1  0  0  0  0
 21 18  1  0  0  0  0
 21  6  1  0  0  0  0
 22 15  2  0  0  0  0
 22  2  1  0  0  0  0
 24 23  1  0  0  0  0
 25 27  1  0  0  0  0
 25 24  1  0  0  0  0
 26 25  2  0  0  0  0
 28 27  1  0  0  0  0
M  END
>  <MODEL>
3

>  <REMARK>
 VINA RESULT:      -9.6      2.884      4.349
  Name = 
  3 active torsions:
  status: ('A' for Active; 'I' for Inactive)
    1  A    between atoms: C_8  and  C_22
    2  A    between atoms: N_10  and  C_22
    3  A    between atoms: C_11  and  C_24
                            x       y       z     vdW  Elec       q    Type
                         _______ _______ _______ _____ _____    ______ ____

>  <TORSDO>
F 3

$$$$
=
 OpenBabel11042421103D

 28 32  0  0  1  0  0  0  0  0999 V2000
  161.1350  210.5970  152.2980 C   0  0  0  0  0  2  0  0  0  0  0  0
  161.9550  207.9750  151.3000 C   0  0  1  0  0  3  0  0  0  0  0  0
  161.8280  209.1900  150.4160 C   0  0  0  0  0  0  0  0  0  0  0  0
  160.7340  201.8300  149.4270 C   0  0  0  0  0  3  0  0  0  0  0  0
  161.7000  205.1600  147.0900 C   0  0  0  0  0  0  0  0  0  0  0  0
  161.3590  205.5450  151.2800 O   0  0  0  0  0  0  0  0  0  0  0  0
  162.0320  206.2420  146.2250 N   0  0  0  0  0  1  0  0  0  0  0  0
  161.5030  209.4360  153.2270 C   0  0  2  0  0  3  0  0  0  0  0  0
  160.6180  201.9520  150.8150 C   0  0  0  0  0  3  0  0  0  0  0  0
  161.5420  210.3600  150.9080 N   0  0  0  0  0  0  0  0  0  0  0  0
  162.0990  209.0540  149.0200 N   0  0  0  0  0  0  0  0  0  0  0  0
  160.8250  203.1900  151.4320 C   0  0  0  0  0  3  0  0  0  0  0  0
  162.0960  207.8890  148.4480 C   0  0  0  0  0  3  0  0  0  0  0  0
  161.1210  208.1220  152.5650 C   0  0  0  0  0  2  0  0  0  0  0  0
  161.7930  206.6440  149.1980 C   0  0  0  0  0  0  0  0  0  0  0  0
  161.1770  202.8410  147.2740 C   0  0  0  0  0  3  0  0  0  0  0  0
  161.4930  203.9340  146.5340 N   0  0  0  0  0  0  0  0  0  0  0  0
  161.2650  204.2000  149.2680 C   0  0  0  0  0  0  0  0  0  0  0  0
  161.0570  202.9490  148.6540 C   0  0  0  0  0  0  0  0  0  0  0  0
  161.5900  205.3330  148.4940 C   0  0  0  0  0  0  0  0  0  0  0  0
  161.1480  204.3120  150.6620 C   0  0  0  0  0  0  0  0  0  0  0  0
  161.6730  206.6990  150.5470 C   0  0  0  0  0  0  0  0  0  0  0  0
  160.7690  209.5700  154.5480 C   0  0  0  0  0  2  0  0  0  0  0  0
  160.6350  210.9750  154.9030 N   0  0  0  0  0  2  0  0  0  0  0  0
  159.4620  211.5010  155.5230 C   0  0  0  0  0  0  0  0  0  0  0  0
  159.4050  212.7280  155.7980 O   0  0  0  0  0  0  0  0  0  0  0  0
  158.2860  210.6320  155.8200 C   0  0  0  0  0  2  0  0  0  0  0  0
  157.2110  211.0080  155.0170 O   0  0  0  0  0  1  0  0  0  0  0  0
  1  8  1  0  0  0  0
  2 14  1  1  0  0  0
  3 10  2  0  0  0  0
  3  2  1  0  0  0  0
  4  9  1  0  0  0  0
  5 20  2  0  0  0  0
  7  5  1  0  0  0  0
  8 23  1  1  0  0  0
  9 12  2  0  0  0  0
 10  1  1  0  0  0  0
 11  3  1  0  0  0  0
 13 11  2  0  0  0  0
 13 15  1  0  0  0  0
 14  8  1  0  0  0  0
 15 22  2  0  0  0  0
 16 19  1  0  0  0  0
 17  5  1  0  0  0  0
 17 16  2  0  0  0  0
 18 21  2  0  0  0  0
 19 18  1  0  0  0  0
 19  4  2  0  0  0  0
 20 15  1  0  0  0  0
 20 18  1  0  0  0  0
 21  6  1  0  0  0  0
 21 12  1  0  0  0  0
 22  6  1  0  0  0  0
 22  2  1  0  0  0  0
 23 24  1  0  0  0  0
 24 25  1  0  0  0  0
 25 26  2  0  0  0  0
 25 27  1  0  0  0  0
 28 27  1  0  0  0  0
M  END
>  <MODEL>
4

>  <REMARK>
 VINA RESULT:      -9.6      1.312      1.732
  Name = 
  3 active torsions:
  status: ('A' for Active; 'I' for Inactive)
    1  A    between atoms: C_8  and  C_22
    2  A    between atoms: N_10  and  C_22
    3  A    between atoms: C_11  and  C_24
                            x       y       z     vdW  Elec       q    Type
                         _______ _______ _______ _____ _____    ______ ____

>  <TORSDO>
F 3

$$$$
=
 OpenBabel11042421103D

 28 32  0  0  1  0  0  0  0  0999 V2000
  160.3360  201.8570  148.7670 C   0  0  0  0  0  2  0  0  0  0  0  0
  161.5920  204.2800  149.8130 C   0  0  1  0  0  3  0  0  0  0  0  0
  160.8680  203.2860  150.6850 C   0  0  0  0  0  0  0  0  0  0  0  0
  161.7940  210.7320  150.8550 C   0  0  0  0  0  3  0  0  0  0  0  0
  161.0340  207.6420  153.5680 C   0  0  0  0  0  0  0  0  0  0  0  0
  161.7690  206.7570  149.5060 O   0  0  0  0  0  0  0  0  0  0  0  0
  160.7730  206.6480  154.5540 N   0  0  0  0  0  1  0  0  0  0  0  0
  161.2770  202.7290  147.9300 C   0  0  2  0  0  3  0  0  0  0  0  0
  162.0370  210.4450  149.5080 C   0  0  0  0  0  3  0  0  0  0  0  0
  160.3930  202.1760  150.1980 N   0  0  0  0  0  0  0  0  0  0  0  0
  160.7690  203.5460  152.0850 N   0  0  0  0  0  0  0  0  0  0  0  0
  162.0270  209.1200  149.0600 C   0  0  0  0  0  3  0  0  0  0  0  0
  160.9560  204.7400  152.5600 C   0  0  0  0  0  3  0  0  0  0  0  0
  161.1380  204.1790  148.3640 C   0  0  0  0  0  2  0  0  0  0  0  0
  161.2590  205.8970  151.6820 C   0  0  0  0  0  0  0  0  0  0  0  0
  161.3000  209.9640  153.0960 C   0  0  0  0  0  3  0  0  0  0  0  0
  161.0560  208.9460  153.9600 N   0  0  0  0  0  0  0  0  0  0  0  0
  161.5270  208.3560  151.3090 C   0  0  0  0  0  0  0  0  0  0  0  0
  161.5410  209.6930  151.7550 C   0  0  0  0  0  0  0  0  0  0  0  0
  161.2700  207.3020  152.2100 C   0  0  0  0  0  0  0  0  0  0  0  0
  161.7740  208.0780  149.9550 C   0  0  0  0  0  0  0  0  0  0  0  0
  161.5070  205.6810  150.3660 C   0  0  0  0  0  0  0  0  0  0  0  0
  160.9330  202.6060  146.4570 C   0  0  0  0  0  2  0  0  0  0  0  0
  161.8610  203.3950  145.6610 N   0  0  0  0  0  2  0  0  0  0  0  0
  161.4590  204.5650  144.9490 C   0  0  0  0  0  0  0  0  0  0  0  0
  162.3090  205.2000  144.2710 O   0  0  0  0  0  0  0  0  0  0  0  0
  160.0410  205.0300  144.9620 C   0  0  0  0  0  2  0  0  0  0  0  0
  159.9830  206.3410  145.4330 O   0  0  0  0  0  1  0  0  0  0  0  0
  1 10  1  0  0  0  0
  2 14  1  6  0  0  0
  2 22  1  0  0  0  0
  2  3  1  0  0  0  0
  3 11  1  0  0  0  0
  4 19  1  0  0  0  0
  5 17  1  0  0  0  0
  5  7  1  0  0  0  0
  6 21  1  0  0  0  0
  6 22  1  0  0  0  0
  8 23  1  6  0  0  0
  8 14  1  0  0  0  0
  8  1  1  0  0  0  0
  9  4  2  0  0  0  0
 10  3  2  0  0  0  0
 11 13  2  0  0  0  0
 12  9  1  0  0  0  0
 12 21  2  0  0  0  0
 15 20  1  0  0  0  0
 15 13  1  0  0  0  0
 16 17  2  0  0  0  0
 18 19  2  0  0  0  0
 18 20  1  0  0  0  0
 19 16  1  0  0  0  0
 20  5  2  0  0  0  0
 21 18  1  0  0  0  0
 22 15  2  0  0  0  0
 24 23  1  0  0  0  0
 25 27  1  0  0  0  0
 25 24  1  0  0  0  0
 26 25  2  0  0  0  0
 27 28  1  0  0  0  0
M  END
>  <MODEL>
5

>  <REMARK>
 VINA RESULT:      -9.4      2.812      8.241
  Name = 
  3 active torsions:
  status: ('A' for Active; 'I' for Inactive)
    1  A    between atoms: C_8  and  C_22
    2  A    between atoms: N_10  and  C_22
    3  A    between atoms: C_11  and  C_24
                            x       y       z     vdW  Elec       q    Type
                         _______ _______ _______ _____ _____    ______ ____

>  <TORSDO>
F 3

$$$$
=
 OpenBabel11042421103D

 28 32  0  0  1  0  0  0  0  0999 V2000
  160.9610  204.5380  149.7410 C   0  0  0  0  0  2  0  0  0  0  0  0
  161.4610  206.8640  151.4370 C   0  0  1  0  0  3  0  0  0  0  0  0
  161.2510  205.4750  151.9850 C   0  0  0  0  0  0  0  0  0  0  0  0
  159.6190  212.3880  154.4120 C   0  0  0  0  0  3  0  0  0  0  0  0
  160.3520  208.6180  156.0640 C   0  0  0  0  0  0  0  0  0  0  0  0
  160.7430  209.2150  151.9030 O   0  0  0  0  0  0  0  0  0  0  0  0
  160.5900  207.3680  156.7050 N   0  0  0  0  0  1  0  0  0  0  0  0
  161.4190  205.8870  149.1800 C   0  0  2  0  0  3  0  0  0  0  0  0
  159.7450  212.5910  153.0340 C   0  0  0  0  0  3  0  0  0  0  0  0
  161.1150  204.4490  151.1980 N   0  0  0  0  0  0  0  0  0  0  0  0
  161.2760  205.2860  153.4000 N   0  0  0  0  0  0  0  0  0  0  0  0
  160.1190  211.5340  152.1990 C   0  0  0  0  0  3  0  0  0  0  0  0
  161.1150  206.2850  154.2130 C   0  0  0  0  0  3  0  0  0  0  0  0
  160.8620  207.0060  150.0450 C   0  0  0  0  0  2  0  0  0  0  0  0
  160.8770  207.6670  153.7240 C   0  0  0  0  0  0  0  0  0  0  0  0
  159.7450  210.9090  156.3230 C   0  0  0  0  0  3  0  0  0  0  0  0
  159.9890  209.6770  156.8380 N   0  0  0  0  0  0  0  0  0  0  0  0
  160.2400  210.0530  154.1200 C   0  0  0  0  0  0  0  0  0  0  0  0
  159.8660  211.1240  154.9550 C   0  0  0  0  0  0  0  0  0  0  0  0
  160.4890  208.7750  154.6600 C   0  0  0  0  0  0  0  0  0  0  0  0
  160.3660  210.2680  152.7380 C   0  0  0  0  0  0  0  0  0  0  0  0
  160.9890  207.9270  152.3980 C   0  0  0  0  0  0  0  0  0  0  0  0
  160.9260  206.0560  147.7540 C   0  0  0  0  0  2  0  0  0  0  0  0
  162.0420  205.9510  146.8260 N   0  0  0  0  0  2  0  0  0  0  0  0
  162.3300  204.7540  146.1050 C   0  0  0  0  0  0  0  0  0  0  0  0
  163.3160  204.7240  145.3230 O   0  0  0  0  0  0  0  0  0  0  0  0
  161.5060  203.5230  146.2870 C   0  0  0  0  0  2  0  0  0  0  0  0
  160.8560  203.2130  145.0940 O   0  0  0  0  0  1  0  0  0  0  0  0
  1 10  1  0  0  0  0
  2 14  1  6  0  0  0
  2  3  1  0  0  0  0
  2 22  1  0  0  0  0
  3 11  1  0  0  0  0
  4 19  1  0  0  0  0
  5  7  1  0  0  0  0
  5 17  1  0  0  0  0
  6 22  1  0  0  0  0
  6 21  1  0  0  0  0
  8 23  1  6  0  0  0
  8  1  1  0  0  0  0
  8 14  1  0  0  0  0
  9  4  2  0  0  0  0
 10  3  2  0  0  0  0
 11 13  2  0  0  0  0
 12 21  2  0  0  0  0
 12  9  1  0  0  0  0
 15 13  1  0  0  0  0
 15 20  1  0  0  0  0
 16 17  2  0  0  0  0
 18 20  1  0  0  0  0
 18 19  2  0  0  0  0
 19 16  1  0  0  0  0
 20  5  2  0  0  0  0
 21 18  1  0  0  0  0
 22 15  2  0  0  0  0
 24 23  1  0  0  0  0
 25 27  1  0  0  0  0
 25 24  1  0  0  0  0
 26 25  2  0  0  0  0
 28 27  1  0  0  0  0
M  END
>  <MODEL>
6

>  <REMARK>
 VINA RESULT:      -8.9      2.711      8.973
  Name = 
  3 active torsions:
  status: ('A' for Active; 'I' for Inactive)
    1  A    between atoms: C_8  and  C_22
    2  A    between atoms: N_10  and  C_22
    3  A    between atoms: C_11  and  C_24
                            x       y       z     vdW  Elec       q    Type
                         _______ _______ _______ _____ _____    ______ ____

>  <TORSDO>
F 3

$$$$
=
 OpenBabel11042421103D

 28 32  0  0  1  0  0  0  0  0999 V2000
  162.2880  204.6050  146.6440 C   0  0  0  0  0  2  0  0  0  0  0  0
  161.0830  206.0510  148.8800 C   0  0  1  0  0  3  0  0  0  0  0  0
  161.8930  206.7270  147.8030 C   0  0  0  0  0  0  0  0  0  0  0  0
  160.8620  207.9270  155.1400 C   0  0  0  0  0  3  0  0  0  0  0  0
  161.8950  210.1510  151.7530 C   0  0  0  0  0  0  0  0  0  0  0  0
  160.8410  206.0800  151.3700 O   0  0  0  0  0  0  0  0  0  0  0  0
  162.2530  210.9770  150.6490 N   0  0  0  0  0  1  0  0  0  0  0  0
  161.2660  203.9650  147.5890 C   0  0  2  0  0  3  0  0  0  0  0  0
  160.5140  206.5780  155.0190 C   0  0  0  0  0  3  0  0  0  0  0  0
  162.3440  206.0660  146.7770 N   0  0  0  0  0  0  0  0  0  0  0  0
  162.1030  208.1370  147.8860 N   0  0  0  0  0  0  0  0  0  0  0  0
  160.5080  205.9640  153.7630 C   0  0  0  0  0  3  0  0  0  0  0  0
  161.9370  208.7750  149.0040 C   0  0  0  0  0  3  0  0  0  0  0  0
  161.4180  204.5700  148.9760 C   0  0  0  0  0  2  0  0  0  0  0  0
  161.5430  208.0800  150.2550 C   0  0  0  0  0  0  0  0  0  0  0  0
  161.5530  210.0040  154.1070 C   0  0  0  0  0  3  0  0  0  0  0  0
  161.8830  210.7070  152.9950 N   0  0  0  0  0  0  0  0  0  0  0  0
  161.2050  208.0490  152.7340 C   0  0  0  0  0  0  0  0  0  0  0  0
  161.2060  208.6620  154.0020 C   0  0  0  0  0  0  0  0  0  0  0  0
  161.5520  208.7840  151.5810 C   0  0  0  0  0  0  0  0  0  0  0  0
  160.8520  206.6950  152.6230 C   0  0  0  0  0  0  0  0  0  0  0  0
  161.1900  206.7710  150.2010 C   0  0  0  0  0  0  0  0  0  0  0  0
  161.4900  202.4660  147.6630 C   0  0  0  0  0  2  0  0  0  0  0  0
  160.2720  201.8030  148.1060 N   0  0  0  0  0  2  0  0  0  0  0  0
  160.1000  201.3280  149.4420 C   0  0  0  0  0  0  0  0  0  0  0  0
  159.0260  200.7550  149.7610 O   0  0  0  0  0  0  0  0  0  0  0  0
  161.1830  201.4660  150.4580 C   0  0  0  0  0  2  0  0  0  0  0  0
  160.8360  202.4500  151.3830 O   0  0  0  0  0  1  0  0  0  0  0  0
  1 10  1  0  0  0  0
  1  8  1  0  0  0  0
  2 14  1  1  0  0  0
  2 22  1  0  0  0  0
  3 11  1  0  0  0  0
  3  2  1  0  0  0  0
  5 17  1  0  0  0  0
  6 21  1  0  0  0  0
  7  5  1  0  0  0  0
  8 23  1  1  0  0  0
  8 14  1  0  0  0  0
  9  4  1  0  0  0  0
 10  3  2  0  0  0  0
 11 13  2  0  0  0  0
 12  9  2  0  0  0  0
 13 15  1  0  0  0  0
 15 20  1  0  0  0  0
 17 16  2  0  0  0  0
 18 19  1  0  0  0  0
 19 16  1  0  0  0  0
 19  4  2  0  0  0  0
 20  5  2  0  0  0  0
 20 18  1  0  0  0  0
 21 18  2  0  0  0  0
 21 12  1  0  0  0  0
 22 15  2  0  0  0  0
 22  6  1  0  0  0  0
 23 24  1  0  0  0  0
 24 25  1  0  0  0  0
 25 26  2  0  0  0  0
 25 27  1  0  0  0  0
 27 28  1  0  0  0  0
M  END
>  <MODEL>
7

>  <REMARK>
 VINA RESULT:      -8.1      2.286      7.372
  Name = 
  3 active torsions:
  status: ('A' for Active; 'I' for Inactive)
    1  A    between atoms: C_8  and  C_22
    2  A    between atoms: N_10  and  C_22
    3  A    between atoms: C_11  and  C_24
                            x       y       z     vdW  Elec       q    Type
                         _______ _______ _______ _____ _____    ______ ____

>  <TORSDO>
F 3

$$$$
=
 OpenBabel11042421103D

 28 32  0  0  1  0  0  0  0  0999 V2000
  160.3940  201.8980  149.8820 C   0  0  0  0  0  2  0  0  0  0  0  0
  161.6570  204.4760  150.4290 C   0  0  1  0  0  3  0  0  0  0  0  0
  161.0070  203.6350  151.4980 C   0  0  0  0  0  0  0  0  0  0  0  0
  161.7840  211.0140  150.3620 C   0  0  0  0  0  3  0  0  0  0  0  0
  161.2500  208.4160  153.5950 C   0  0  0  0  0  0  0  0  0  0  0  0
  161.7630  206.8680  149.7010 O   0  0  0  0  0  0  0  0  0  0  0  0
  161.0690  207.6000  154.7490 N   0  0  0  0  0  1  0  0  0  0  0  0
  161.2650  202.6270  148.8550 C   0  0  2  0  0  3  0  0  0  0  0  0
  161.9530  210.5060  149.0700 C   0  0  0  0  0  3  0  0  0  0  0  0
  160.5290  202.4540  151.2340 N   0  0  0  0  0  0  0  0  0  0  0  0
  160.9850  204.1260  152.8380 N   0  0  0  0  0  0  0  0  0  0  0  0
  161.9440  209.1250  148.8510 C   0  0  0  0  0  3  0  0  0  0  0  0
  161.1750  205.3850  153.0940 C   0  0  0  0  0  3  0  0  0  0  0  0
  161.1210  204.1280  149.0480 C   0  0  0  0  0  2  0  0  0  0  0  0
  161.4010  206.3810  152.0180 C   0  0  0  0  0  0  0  0  0  0  0  0
  161.4390  210.6280  152.7260 C   0  0  0  0  0  3  0  0  0  0  0  0
  161.2680  209.7670  153.7620 N   0  0  0  0  0  0  0  0  0  0  0  0
  161.5940  208.7450  151.2230 C   0  0  0  0  0  0  0  0  0  0  0  0
  161.6060  210.1380  151.4370 C   0  0  0  0  0  0  0  0  0  0  0  0
  161.4140  207.8550  152.3020 C   0  0  0  0  0  0  0  0  0  0  0  0
  161.7660  208.2460  149.9220 C   0  0  0  0  0  0  0  0  0  0  0  0
  161.5760  205.9490  150.7440 C   0  0  0  0  0  0  0  0  0  0  0  0
  160.8370  202.2540  147.4470 C   0  0  0  0  0  2  0  0  0  0  0  0
  161.2050  200.8750  147.1650 N   0  0  0  0  0  2  0  0  0  0  0  0
  160.8630  200.2250  145.9400 C   0  0  0  0  0  0  0  0  0  0  0  0
  161.2040  199.0270  145.7590 O   0  0  0  0  0  0  0  0  0  0  0  0
  160.0770  200.9270  144.8840 C   0  0  0  0  0  2  0  0  0  0  0  0
  160.3940  202.2850  144.8900 O   0  0  0  0  0  1  0  0  0  0  0  0
  1 10  1  0  0  0  0
  2 14  1  6  0  0  0
  2 22  1  0  0  0  0
  2  3  1  0  0  0  0
  3 11  1  0  0  0  0
  4 19  1  0  0  0  0
  5 17  1  0  0  0  0
  5  7  1  0  0  0  0
  6 21  1  0  0  0  0
  6 22  1  0  0  0  0
  8 23  1  6  0  0  0
  8 14  1  0  0  0  0
  8  1  1  0  0  0  0
  9  4  2  0  0  0  0
 10  3  2  0  0  0  0
 11 13  2  0  0  0  0
 12  9  1  0  0  0  0
 12 21  2  0  0  0  0
 15 20  1  0  0  0  0
 15 13  1  0  0  0  0
 16 17  2  0  0  0  0
 18 19  2  0  0  0  0
 18 20  1  0  0  0  0
 19 16  1  0  0  0  0
 20  5  2  0  0  0  0
 21 18  1  0  0  0  0
 22 15  2  0  0  0  0
 24 23  1  0  0  0  0
 25 24  1  0  0  0  0
 26 25  2  0  0  0  0
 27 28  1  0  0  0  0
 27 25  1  0  0  0  0
M  END
>  <MODEL>
8

>  <REMARK>
 VINA RESULT:      -8.0      3.000      8.834
  Name = 
  3 active torsions:
  status: ('A' for Active; 'I' for Inactive)
    1  A    between atoms: C_8  and  C_22
    2  A    between atoms: N_10  and  C_22
    3  A    between atoms: C_11  and  C_24
                            x       y       z     vdW  Elec       q    Type
                         _______ _______ _______ _____ _____    ______ ____

>  <TORSDO>
F 3

$$$$
