=
 OpenBabel11042421293D

 69 75  0  0  1  0  0  0  0  0999 V2000
  161.1690  210.3600  152.3190 C   0  0  0  0  0  0  0  0  0  0  0  0
  161.4550  208.2800  149.4400 C   0  0  2  0  0  3  0  0  0  0  0  0
  161.4640  207.0630  151.6880 C   0  0  1  0  0  3  0  0  0  0  0  0
  158.5110  214.2790  155.2540 F   0  0  0  0  0  0  0  0  0  0  0  0
  160.7500  211.4310  153.0410 C   0  0  0  0  0  0  0  0  0  0  0  0
  159.9720  212.4340  155.2620 C   0  0  0  0  0  0  0  0  0  0  0  0
  161.8380  209.1790  152.9700 C   0  0  0  0  0  2  0  0  0  0  0  0
  160.8520  211.5100  154.5210 C   0  0  0  0  0  0  0  0  0  0  0  0
  161.9390  209.6090  150.0310 C   0  0  1  0  0  3  0  0  0  0  0  0
  160.1390  212.6080  152.3570 C   0  0  0  0  0  0  0  0  0  0  0  0
  159.6720  213.7790  153.1790 C   0  0  0  0  0  2  0  0  0  0  0  0
  159.3500  213.4380  154.6070 C   0  0  0  0  0  0  0  0  0  0  0  0
  161.5860  211.7640  149.1180 C   0  0  1  0  0  3  0  0  0  0  0  0
  160.7200  211.6030  150.2670 N   0  0  0  0  0  0  0  0  0  0  0  0
  159.7250  213.9330  150.3030 C   0  0  0  0  0  1  0  0  0  0  0  0
  162.3310  210.5150  148.9460 N   0  0  0  0  0  2  0  0  0  0  0  0
  160.6690  207.4070  150.4320 C   0  0  0  0  0  2  0  0  0  0  0  0
  160.8450  210.2880  150.8400 C   0  0  2  0  0  3  0  0  0  0  0  0
  161.6770  210.8040  155.1590 O   0  0  0  0  0  0  0  0  0  0  0  0
  160.1840  212.7000  151.0170 C   0  0  0  0  0  0  0  0  0  0  0  0
  161.0010  207.9130  152.8660 C   0  0  0  0  0  2  0  0  0  0  0  0
  162.3930  206.6210  147.9180 C   0  0  0  0  0  0  0  0  0  0  0  0
  162.1760  205.7120  147.0060 C   0  0  0  0  0  3  0  0  0  0  0  0
  162.5980  207.5260  148.8350 C   0  0  0  0  0  3  0  0  0  0  0  0
  163.2910  205.1500  146.1880 C   0  0  1  0  0  3  0  0  0  0  0  0
  165.3040  203.8290  146.3640 O   0  0  0  0  0  1  0  0  0  0  0  0
  164.4510  204.6790  147.0710 C   0  0  0  0  0  2  0  0  0  0  0  0
  162.7530  204.0230  145.3150 C   0  0  0  0  0  2  0  0  0  0  0  0
  160.5670  204.5190  144.3050 O   0  0  0  0  0  0  0  0  0  0  0  0
  160.6460  205.1860  145.4730 O   0  0  0  0  0  0  0  0  0  0  0  0
  161.2340  203.9460  145.3650 C   0  0  0  0  0  0  0  0  0  0  0  0
  160.5060  202.8600  146.1730 C   0  0  1  0  0  3  0  0  0  0  0  0
  158.9260  201.4930  145.4180 C   0  0  0  0  0  1  0  0  0  0  0  0
  160.3020  201.7290  145.3710 O   0  0  0  0  0  0  0  0  0  0  0  0
  161.8820  201.1220  147.4180 C   0  0  0  0  0  1  0  0  0  0  0  0
  161.2290  202.4980  147.4810 C   0  0  2  0  0  3  0  0  0  0  0  0
  159.5910  201.3790  148.8620 O   0  0  0  0  0  1  0  0  0  0  0  0
  160.2580  202.5940  148.6620 C   0  0  1  0  0  3  0  0  0  0  0  0
  160.9880  203.0310  149.9260 C   0  0  0  0  0  2  0  0  0  0  0  0
  162.0220  202.0630  151.8620 O   0  0  0  0  0  1  0  0  0  0  0  0
  160.9170  201.9670  151.0110 C   0  0  0  0  0  2  0  0  0  0  0  0
  161.3550  205.1390  153.2580 C   0  0  0  0  0  2  0  0  0  0  0  0
  161.3540  205.5990  152.0060 C   0  0  0  0  0  3  0  0  0  0  0  0
  160.7580  212.0390  147.8710 C   0  0  0  0  0  2  0  0  0  0  0  0
  162.5850  213.5380  147.5110 O   0  0  0  0  0  1  0  0  0  0  0  0
  161.2500  213.2920  147.1700 C   0  0  1  0  0  3  0  0  0  0  0  0
  161.1320  213.0950  145.6710 C   0  0  0  0  0  2  0  0  0  0  0  0
  159.7420  213.4910  145.2000 C   0  0  1  0  0  3  0  0  0  0  0  0
  159.1380  214.4390  146.2250 C   0  0  0  0  0  1  0  0  0  0  0  0
  162.3280  213.4330  141.1850 C   0  0  0  0  0  2  0  0  0  0  0  0
  160.9200  211.3160  141.1250 N   0  0  0  0  0  2  0  0  0  0  0  0
  159.6300  213.3840  141.6540 C   0  0  2  0  0  3  0  0  0  0  0  0
  159.8110  214.1520  143.8180 C   0  0  2  0  0  3  0  0  0  0  0  0
  161.8160  213.7410  142.6040 C   0  0  0  0  0  2  0  0  0  0  0  0
  158.4090  214.4150  143.2870 C   0  0  0  0  0  2  0  0  0  0  0  0
  160.4480  213.2620  142.8580 N   0  0  2  0  0  0  0  0  0  0  0  0
  158.2630  213.6570  142.0570 N   0  0  0  0  0  2  0  0  0  0  0  0
  159.7160  212.1080  140.8130 C   0  0  1  0  0  3  0  0  0  0  0  0
  162.1930  211.9620  140.7550 C   0  0  0  0  0  2  0  0  0  0  0  0
  159.6070  212.4290  139.3280 C   0  0  0  0  0  2  0  0  0  0  0  0
  159.3030  211.1660  138.5400 C   0  0  0  0  0  2  0  0  0  0  0  0
  157.8030  210.9190  138.4850 C   0  0  0  0  0  2  0  0  0  0  0  0
  158.3400  209.1210  137.0110 O   0  0  0  0  0  0  0  0  0  0  0  0
  156.3210  208.9520  138.0810 O   0  0  0  0  0  1  0  0  0  0  0  0
  157.5030  209.6240  137.8040 C   0  0  0  0  0  0  0  0  0  0  0  0
  159.7700  212.1840  156.6640 N   0  0  0  0  0  2  0  0  0  0  0  0
  158.7040  211.3790  157.2500 C   0  0  0  0  0  2  0  0  0  0  0  0
  156.5530  211.4130  156.1140 N   0  0  0  0  0  1  0  0  0  0  0  0
  157.8480  210.7590  156.1590 C   0  0  0  0  0  2  0  0  0  0  0  0
  1  7  1  0  0  0  0
  1  5  2  0  0  0  0
  2 24  1  1  0  0  0
  2  9  1  0  0  0  0
  2 17  1  0  0  0  0
  3 43  1  1  0  0  0
  3 21  1  0  0  0  0
  5  8  1  0  0  0  0
  6 66  1  0  0  0  0
  8 19  2  0  0  0  0
  8  6  1  0  0  0  0
  9 16  1  6  0  0  0
  9 18  1  0  0  0  0
 10  5  1  0  0  0  0
 10 11  1  0  0  0  0
 11 12  1  0  0  0  0
 12  4  1  0  0  0  0
 12  6  2  0  0  0  0
 13 44  1  6  0  0  0
 13 14  1  0  0  0  0
 14 18  1  0  0  0  0
 14 20  1  0  0  0  0
 15 20  1  0  0  0  0
 16 13  1  0  0  0  0
 17  3  1  0  0  0  0
 18  1  1  1  0  0  0
 20 10  2  0  0  0  0
 21  7  1  0  0  0  0
 22 24  2  0  0  0  0
 23 22  2  0  0  0  0
 25 28  1  1  0  0  0
 25 23  1  0  0  0  0
 25 27  1  0  0  0  0
 26 27  1  0  0  0  0
 28 31  1  0  0  0  0
 29 31  1  0  0  0  0
 29 30  1  0  0  0  0
 31 30  1  0  0  0  0
 31 32  1  0  0  0  0
 32 34  1  6  0  0  0
 32 36  1  0  0  0  0
 34 33  1  0  0  0  0
 36 35  1  6  0  0  0
 36 38  1  0  0  0  0
 38 37  1  1  0  0  0
 38 39  1  0  0  0  0
 39 41  1  0  0  0  0
 41 40  1  0  0  0  0
 43 42  2  0  0  0  0
 46 45  1  6  0  0  0
 46 44  1  0  0  0  0
 47 46  1  0  0  0  0
 48 47  1  0  0  0  0
 48 49  1  1  0  0  0
 50 54  1  0  0  0  0
 52 57  1  1  0  0  0
 52 56  1  0  0  0  0
 53 48  1  1  0  0  0
 55 53  1  0  0  0  0
 56 54  1  6  0  0  0
 56 53  1  0  0  0  0
 57 55  1  0  0  0  0
 58 60  1  6  0  0  0
 58 51  1  0  0  0  0
 58 52  1  0  0  0  0
 59 51  1  0  0  0  0
 59 50  1  0  0  0  0
 61 60  1  0  0  0  0
 62 61  1  0  0  0  0
 63 65  2  0  0  0  0
 65 64  1  0  0  0  0
 65 62  1  0  0  0  0
 66 67  1  0  0  0  0
 68 69  1  0  0  0  0
 69 67  1  0  0  0  0
M  END
>  <MODEL>
1

>  <REMARK>
 VINA RESULT:      -2.8      0.000      0.000
  Name = 
  24 active torsions:
  status: ('A' for Active; 'I' for Inactive)
    1  A    between atoms: C_3  and  C_53
    2  A    between atoms: C_5  and  C_13
    3  A    between atoms: C_7  and  C_43
    4  A    between atoms: C_7  and  C_67
    5  A    between atoms: C_11  and  N_26
    6  A    between atoms: C_21  and  C_43
    7  A    between atoms: N_26  and  C_27
    8  A    between atoms: C_27  and  C_48
    9  A    between atoms: C_28  and  C_41
   10  A    between atoms: C_30  and  C_35
   11  A    between atoms: C_30  and  C_38
   12  A    between atoms: C_32  and  C_44
   13  A    between atoms: C_32  and  C_55
   14  A    between atoms: C_33  and  C_35
   15  A    between atoms: C_33  and  C_41
   16  A    between atoms: C_37  and  O_40
   17  A    between atoms: C_37  and  C_66
   18  A    between atoms: C_37  and  C_67
   19  A    between atoms: C_43  and  C_65
   20  A    between atoms: C_44  and  C_51
   21  A    between atoms: C_51  and  C_62
   22  A    between atoms: C_59  and  C_60
   23  A    between atoms: C_59  and  C_66
   24  A    between atoms: C_60  and  C_69
                            x       y       z     vdW  Elec       q    Type
                         _______ _______ _______ _____ _____    ______ ____

>  <TORSDO>
F 24

$$$$
=
 OpenBabel11042421293D

 69 75  0  0  1  0  0  0  0  0999 V2000
  161.3450  209.9780  152.0770 C   0  0  0  0  0  0  0  0  0  0  0  0
  161.4800  208.2820  148.9470 C   0  0  2  0  0  3  0  0  0  0  0  0
  161.6040  206.7900  151.0180 C   0  0  1  0  0  3  0  0  0  0  0  0
  158.8450  213.4780  155.6190 F   0  0  0  0  0  0  0  0  0  0  0  0
  160.9640  210.9470  152.9500 C   0  0  0  0  0  0  0  0  0  0  0  0
  160.3020  211.6550  155.3170 C   0  0  0  0  0  0  0  0  0  0  0  0
  162.0450  208.7280  152.5380 C   0  0  0  0  0  2  0  0  0  0  0  0
  161.1430  210.8380  154.4210 C   0  0  0  0  0  0  0  0  0  0  0  0
  161.9950  209.5290  149.6760 C   0  0  1  0  0  3  0  0  0  0  0  0
  160.3210  212.1980  152.4530 C   0  0  0  0  0  0  0  0  0  0  0  0
  159.8980  213.2520  153.4410 C   0  0  0  0  0  2  0  0  0  0  0  0
  159.6480  212.7300  154.8280 C   0  0  0  0  0  0  0  0  0  0  0  0
  161.5980  211.7800  149.0640 C   0  0  1  0  0  3  0  0  0  0  0  0
  160.7920  211.4690  150.2250 N   0  0  0  0  0  0  0  0  0  0  0  0
  159.8020  213.7700  150.6090 C   0  0  0  0  0  1  0  0  0  0  0  0
  162.3310  210.5680  148.6960 N   0  0  0  0  0  2  0  0  0  0  0  0
  160.7450  207.2860  149.8580 C   0  0  0  0  0  2  0  0  0  0  0  0
  160.9450  210.0930  150.6200 C   0  0  2  0  0  3  0  0  0  0  0  0
  161.9990  210.0610  154.9210 O   0  0  0  0  0  0  0  0  0  0  0  0
  160.2960  212.4590  151.1350 C   0  0  0  0  0  0  0  0  0  0  0  0
  161.2030  207.4810  152.3160 C   0  0  0  0  0  2  0  0  0  0  0  0
  162.3540  206.5960  147.4170 C   0  0  0  0  0  0  0  0  0  0  0  0
  162.1100  205.5690  146.6490 C   0  0  0  0  0  3  0  0  0  0  0  0
  162.5900  207.6180  148.1930 C   0  0  0  0  0  3  0  0  0  0  0  0
  163.1230  205.0650  145.6760 C   0  0  1  0  0  3  0  0  0  0  0  0
  163.8150  203.5400  147.4160 O   0  0  0  0  0  1  0  0  0  0  0  0
  164.2840  204.3640  146.3900 C   0  0  0  0  0  2  0  0  0  0  0  0
  162.4410  204.1460  144.6720 C   0  0  0  0  0  2  0  0  0  0  0  0
  160.2640  205.0590  143.9850 O   0  0  0  0  0  0  0  0  0  0  0  0
  160.4670  205.3920  145.2750 O   0  0  0  0  0  0  0  0  0  0  0  0
  160.9260  204.1800  144.8130 C   0  0  0  0  0  0  0  0  0  0  0  0
  160.1400  202.9830  145.3710 C   0  0  1  0  0  3  0  0  0  0  0  0
  158.2630  203.0650  144.1850 C   0  0  0  0  0  1  0  0  0  0  0  0
  159.4500  202.3430  144.3330 O   0  0  0  0  0  0  0  0  0  0  0  0
  160.8490  200.5600  145.6700 C   0  0  0  0  0  1  0  0  0  0  0  0
  161.0210  201.9960  146.1530 C   0  0  2  0  0  3  0  0  0  0  0  0
  159.3590  202.1060  147.9030 O   0  0  0  0  0  1  0  0  0  0  0  0
  160.7360  202.1100  147.6530 C   0  0  1  0  0  3  0  0  0  0  0  0
  161.4350  200.9940  148.4210 C   0  0  0  0  0  2  0  0  0  0  0  0
  161.5350  201.6000  150.7410 O   0  0  0  0  0  1  0  0  0  0  0  0
  160.8440  200.8160  149.8120 C   0  0  0  0  0  2  0  0  0  0  0  0
  161.0400  204.7090  152.2540 C   0  0  0  0  0  2  0  0  0  0  0  0
  161.5090  205.2970  151.1520 C   0  0  0  0  0  3  0  0  0  0  0  0
  160.7070  212.2060  147.9060 C   0  0  0  0  0  2  0  0  0  0  0  0
  162.3570  213.0270  146.3830 O   0  0  0  0  0  1  0  0  0  0  0  0
  161.2910  213.4170  147.2020 C   0  0  1  0  0  3  0  0  0  0  0  0
  160.2090  214.0660  146.3610 C   0  0  0  0  0  2  0  0  0  0  0  0
  159.8170  213.1470  145.2150 C   0  0  1  0  0  3  0  0  0  0  0  0
  158.3510  212.7740  145.3750 C   0  0  0  0  0  1  0  0  0  0  0  0
  162.6250  212.8610  141.3610 C   0  0  0  0  0  2  0  0  0  0  0  0
  160.9520  210.9580  141.1340 N   0  0  0  0  0  2  0  0  0  0  0  0
  159.9200  213.1660  141.6670 C   0  0  2  0  0  3  0  0  0  0  0  0
  160.0620  213.8340  143.8660 C   0  0  2  0  0  3  0  0  0  0  0  0
  162.0680  213.1920  142.7580 C   0  0  0  0  0  2  0  0  0  0  0  0
  158.7460  214.3020  143.2640 C   0  0  0  0  0  2  0  0  0  0  0  0
  160.6350  212.8960  142.9110 N   0  0  2  0  0  0  0  0  0  0  0  0
  158.5780  213.6100  141.9980 N   0  0  0  0  0  2  0  0  0  0  0  0
  159.8880  211.9170  140.7830 C   0  0  1  0  0  3  0  0  0  0  0  0
  162.3210  211.4360  140.8660 C   0  0  0  0  0  2  0  0  0  0  0  0
  159.9180  212.2960  139.3080 C   0  0  0  0  0  2  0  0  0  0  0  0
  158.8890  211.4860  138.5370 C   0  0  0  0  0  2  0  0  0  0  0  0
  157.4970  211.7040  139.1120 C   0  0  0  0  0  2  0  0  0  0  0  0
  157.0800  213.2510  137.3430 O   0  0  0  0  0  0  0  0  0  0  0  0
  156.0380  213.7170  139.3300 O   0  0  0  0  0  1  0  0  0  0  0  0
  156.8770  212.9390  138.5450 C   0  0  0  0  0  0  0  0  0  0  0  0
  160.1740  211.2280  156.6840 N   0  0  0  0  0  2  0  0  0  0  0  0
  160.7290  210.0080  157.2610 C   0  0  0  0  0  2  0  0  0  0  0  0
  160.3560  207.7090  156.5580 N   0  0  0  0  0  1  0  0  0  0  0  0
  159.7270  208.8710  157.1590 C   0  0  0  0  0  2  0  0  0  0  0  0
  1  7  1  0  0  0  0
  1  5  2  0  0  0  0
  2 24  1  1  0  0  0
  2  9  1  0  0  0  0
  2 17  1  0  0  0  0
  3 43  1  1  0  0  0
  3 21  1  0  0  0  0
  5  8  1  0  0  0  0
  6 66  1  0  0  0  0
  8 19  2  0  0  0  0
  8  6  1  0  0  0  0
  9 16  1  6  0  0  0
  9 18  1  0  0  0  0
 10  5  1  0  0  0  0
 10 11  1  0  0  0  0
 11 12  1  0  0  0  0
 12  6  2  0  0  0  0
 12  4  1  0  0  0  0
 13 44  1  6  0  0  0
 13 14  1  0  0  0  0
 14 18  1  0  0  0  0
 14 20  1  0  0  0  0
 15 20  1  0  0  0  0
 16 13  1  0  0  0  0
 17  3  1  0  0  0  0
 18  1  1  1  0  0  0
 20 10  2  0  0  0  0
 21  7  1  0  0  0  0
 22 24  2  0  0  0  0
 23 22  2  0  0  0  0
 25 28  1  6  0  0  0
 25 27  1  0  0  0  0
 25 23  1  0  0  0  0
 27 26  1  0  0  0  0
 28 31  1  0  0  0  0
 29 31  1  0  0  0  0
 29 30  1  0  0  0  0
 31 30  1  0  0  0  0
 31 32  1  0  0  0  0
 32 34  1  6  0  0  0
 32 36  1  0  0  0  0
 33 34  1  0  0  0  0
 36 35  1  6  0  0  0
 36 38  1  0  0  0  0
 38 37  1  6  0  0  0
 38 39  1  0  0  0  0
 39 41  1  0  0  0  0
 41 40  1  0  0  0  0
 43 42  2  0  0  0  0
 46 45  1  6  0  0  0
 46 44  1  0  0  0  0
 47 46  1  0  0  0  0
 48 49  1  1  0  0  0
 48 47  1  0  0  0  0
 50 54  1  0  0  0  0
 52 57  1  1  0  0  0
 52 56  1  0  0  0  0
 53 48  1  1  0  0  0
 55 53  1  0  0  0  0
 56 54  1  6  0  0  0
 56 53  1  0  0  0  0
 57 55  1  0  0  0  0
 58 60  1  6  0  0  0
 58 51  1  0  0  0  0
 58 52  1  0  0  0  0
 59 51  1  0  0  0  0
 59 50  1  0  0  0  0
 61 62  1  0  0  0  0
 61 60  1  0  0  0  0
 63 65  2  0  0  0  0
 65 62  1  0  0  0  0
 65 64  1  0  0  0  0
 66 67  1  0  0  0  0
 68 69  1  0  0  0  0
 69 67  1  0  0  0  0
M  END
>  <MODEL>
2

>  <REMARK>
 VINA RESULT:      -2.5      1.361      1.496
  Name = 
  24 active torsions:
  status: ('A' for Active; 'I' for Inactive)
    1  A    between atoms: C_3  and  C_53
    2  A    between atoms: C_5  and  C_13
    3  A    between atoms: C_7  and  C_43
    4  A    between atoms: C_7  and  C_67
    5  A    between atoms: C_11  and  N_26
    6  A    between atoms: C_21  and  C_43
    7  A    between atoms: N_26  and  C_27
    8  A    between atoms: C_27  and  C_48
    9  A    between atoms: C_28  and  C_41
   10  A    between atoms: C_30  and  C_35
   11  A    between atoms: C_30  and  C_38
   12  A    between atoms: C_32  and  C_44
   13  A    between atoms: C_32  and  C_55
   14  A    between atoms: C_33  and  C_35
   15  A    between atoms: C_33  and  C_41
   16  A    between atoms: C_37  and  O_40
   17  A    between atoms: C_37  and  C_66
   18  A    between atoms: C_37  and  C_67
   19  A    between atoms: C_43  and  C_65
   20  A    between atoms: C_44  and  C_51
   21  A    between atoms: C_51  and  C_62
   22  A    between atoms: C_59  and  C_60
   23  A    between atoms: C_59  and  C_66
   24  A    between atoms: C_60  and  C_69
                            x       y       z     vdW  Elec       q    Type
                         _______ _______ _______ _____ _____    ______ ____

>  <TORSDO>
F 24

$$$$
=
 OpenBabel11042421293D

 69 75  0  0  1  0  0  0  0  0999 V2000
  160.9550  210.7830  152.3180 C   0  0  0  0  0  0  0  0  0  0  0  0
  161.4080  208.8860  149.3370 C   0  0  2  0  0  3  0  0  0  0  0  0
  161.3830  207.5400  151.5090 C   0  0  1  0  0  3  0  0  0  0  0  0
  158.0690  214.4370  155.3780 F   0  0  0  0  0  0  0  0  0  0  0  0
  160.4760  211.7960  153.0860 C   0  0  0  0  0  0  0  0  0  0  0  0
  159.5890  212.6410  155.3310 C   0  0  0  0  0  0  0  0  0  0  0  0
  161.6410  209.5880  152.9240 C   0  0  0  0  0  2  0  0  0  0  0  0
  160.5250  211.7910  154.5710 C   0  0  0  0  0  0  0  0  0  0  0  0
  161.8270  210.1930  150.0200 C   0  0  1  0  0  3  0  0  0  0  0  0
  159.8500  212.9910  152.4490 C   0  0  0  0  0  0  0  0  0  0  0  0
  159.3160  214.0960  153.3210 C   0  0  0  0  0  2  0  0  0  0  0  0
  158.9560  213.6620  154.7140 C   0  0  0  0  0  0  0  0  0  0  0  0
  161.4330  212.3860  149.2220 C   0  0  1  0  0  3  0  0  0  0  0  0
  160.5350  212.1300  150.3270 N   0  0  0  0  0  0  0  0  0  0  0  0
  159.4610  214.4210  150.4620 C   0  0  0  0  0  1  0  0  0  0  0  0
  162.2250  211.1740  149.0040 N   0  0  0  0  0  2  0  0  0  0  0  0
  160.6190  207.9320  150.2470 C   0  0  0  0  0  2  0  0  0  0  0  0
  160.6840  210.7880  150.8270 C   0  0  2  0  0  3  0  0  0  0  0  0
  161.3510  211.0750  155.1960 O   0  0  0  0  0  0  0  0  0  0  0  0
  159.9360  213.1640  151.1190 C   0  0  0  0  0  0  0  0  0  0  0  0
  160.8510  208.3040  152.7160 C   0  0  0  0  0  2  0  0  0  0  0  0
  162.4470  207.1910  147.9250 C   0  0  0  0  0  0  0  0  0  0  0  0
  162.2880  206.1700  147.1260 C   0  0  0  0  0  3  0  0  0  0  0  0
  162.5960  208.2060  148.7300 C   0  0  0  0  0  3  0  0  0  0  0  0
  163.4120  205.6530  146.2910 C   0  0  1  0  0  3  0  0  0  0  0  0
  164.3600  203.4730  145.8630 O   0  0  0  0  0  1  0  0  0  0  0  0
  163.9970  204.3630  146.8770 C   0  0  0  0  0  2  0  0  0  0  0  0
  162.9240  205.4520  144.8630 C   0  0  0  0  0  2  0  0  0  0  0  0
  160.9260  204.8490  143.5640 O   0  0  0  0  0  0  0  0  0  0  0  0
  160.6590  205.9880  144.2310 O   0  0  0  0  0  0  0  0  0  0  0  0
  161.4610  205.0360  144.8180 C   0  0  0  0  0  0  0  0  0  0  0  0
  160.7870  204.3270  146.0040 C   0  0  1  0  0  3  0  0  0  0  0  0
  159.4310  206.0660  146.2720 C   0  0  0  0  0  1  0  0  0  0  0  0
  159.4330  204.6850  146.0630 O   0  0  0  0  0  0  0  0  0  0  0  0
  159.7800  202.0970  145.3120 C   0  0  0  0  0  1  0  0  0  0  0  0
  160.9620  202.8000  145.9700 C   0  0  2  0  0  3  0  0  0  0  0  0
  160.4850  203.0110  148.3290 O   0  0  0  0  0  1  0  0  0  0  0  0
  161.2020  202.2670  147.3860 C   0  0  1  0  0  3  0  0  0  0  0  0
  160.8470  200.7870  147.4720 C   0  0  0  0  0  2  0  0  0  0  0  0
  160.7610  199.4150  145.5060 O   0  0  0  0  0  1  0  0  0  0  0  0
  161.6260  199.9630  146.4570 C   0  0  0  0  0  2  0  0  0  0  0  0
  162.0380  205.1910  151.0320 C   0  0  0  0  0  2  0  0  0  0  0  0
  161.3100  206.0580  151.7370 C   0  0  0  0  0  3  0  0  0  0  0  0
  160.6400  212.7080  147.9630 C   0  0  0  0  0  2  0  0  0  0  0  0
  160.4830  210.8800  146.4300 O   0  0  0  0  0  1  0  0  0  0  0  0
  161.2430  212.0080  146.7590 C   0  0  1  0  0  3  0  0  0  0  0  0
  161.2600  212.9730  145.5890 C   0  0  0  0  0  2  0  0  0  0  0  0
  160.0320  212.7610  144.7190 C   0  0  1  0  0  3  0  0  0  0  0  0
  158.8240  213.3370  145.4430 C   0  0  0  0  0  1  0  0  0  0  0  0
  162.7630  212.5030  140.8090 C   0  0  0  0  0  2  0  0  0  0  0  0
  161.1620  210.5320  140.6600 N   0  0  0  0  0  2  0  0  0  0  0  0
  160.0550  212.7080  141.1700 C   0  0  2  0  0  3  0  0  0  0  0  0
  160.2200  213.4290  143.3520 C   0  0  2  0  0  3  0  0  0  0  0  0
  162.2240  212.8420  142.2120 C   0  0  0  0  0  2  0  0  0  0  0  0
  158.8720  213.8310  142.7700 C   0  0  0  0  0  2  0  0  0  0  0  0
  160.8080  212.4930  142.4030 N   0  0  2  0  0  0  0  0  0  0  0  0
  158.7050  213.1060  141.5230 N   0  0  0  0  0  2  0  0  0  0  0  0
  160.0540  211.4400  140.3140 C   0  0  1  0  0  3  0  0  0  0  0  0
  162.5060  211.0580  140.3510 C   0  0  0  0  0  2  0  0  0  0  0  0
  160.0360  211.7880  138.8310 C   0  0  0  0  0  2  0  0  0  0  0  0
  158.6280  211.6490  138.2760 C   0  0  0  0  0  2  0  0  0  0  0  0
  157.9720  210.3780  138.7960 C   0  0  0  0  0  2  0  0  0  0  0  0
  159.1350  208.6280  137.6660 O   0  0  0  0  0  1  0  0  0  0  0  0
  156.9620  208.9510  137.0150 O   0  0  0  0  0  0  0  0  0  0  0  0
  158.0670  209.2810  137.7870 C   0  0  0  0  0  0  0  0  0  0  0  0
  159.3490  212.3020  156.7080 N   0  0  0  0  0  2  0  0  0  0  0  0
  158.1800  211.6040  157.2320 C   0  0  0  0  0  2  0  0  0  0  0  0
  156.1840  211.4790  155.8470 N   0  0  0  0  0  1  0  0  0  0  0  0
  157.4670  210.8570  156.1170 C   0  0  0  0  0  2  0  0  0  0  0  0
  1  7  1  0  0  0  0
  1  5  2  0  0  0  0
  2 24  1  1  0  0  0
  2  9  1  0  0  0  0
  2 17  1  0  0  0  0
  3 43  1  1  0  0  0
  3 21  1  0  0  0  0
  5  8  1  0  0  0  0
  6 66  1  0  0  0  0
  8 19  2  0  0  0  0
  8  6  1  0  0  0  0
  9 16  1  6  0  0  0
  9 18  1  0  0  0  0
 10  5  1  0  0  0  0
 10 11  1  0  0  0  0
 11 12  1  0  0  0  0
 12  6  2  0  0  0  0
 12  4  1  0  0  0  0
 13 44  1  6  0  0  0
 13 14  1  0  0  0  0
 14 18  1  0  0  0  0
 14 20  1  0  0  0  0
 15 20  1  0  0  0  0
 16 13  1  0  0  0  0
 17  3  1  0  0  0  0
 18  1  1  1  0  0  0
 20 10  2  0  0  0  0
 21  7  1  0  0  0  0
 22 24  2  0  0  0  0
 23 22  2  0  0  0  0
 25 28  1  6  0  0  0
 25 27  1  0  0  0  0
 25 23  1  0  0  0  0
 26 27  1  0  0  0  0
 29 30  1  0  0  0  0
 29 31  1  0  0  0  0
 30 31  1  0  0  0  0
 31 28  1  0  0  0  0
 31 32  1  0  0  0  0
 32 34  1  6  0  0  0
 34 33  1  0  0  0  0
 36 35  1  1  0  0  0
 36 32  1  0  0  0  0
 36 38  1  0  0  0  0
 38 39  1  0  0  0  0
 38 37  1  1  0  0  0
 40 41  1  0  0  0  0
 41 39  1  0  0  0  0
 42 43  2  0  0  0  0
 46 45  1  6  0  0  0
 46 44  1  0  0  0  0
 47 46  1  0  0  0  0
 48 49  1  1  0  0  0
 48 47  1  0  0  0  0
 50 54  1  0  0  0  0
 52 57  1  1  0  0  0
 52 56  1  0  0  0  0
 53 48  1  1  0  0  0
 55 53  1  0  0  0  0
 56 54  1  6  0  0  0
 56 53  1  0  0  0  0
 57 55  1  0  0  0  0
 58 60  1  6  0  0  0
 58 51  1  0  0  0  0
 58 52  1  0  0  0  0
 59 51  1  0  0  0  0
 59 50  1  0  0  0  0
 61 62  1  0  0  0  0
 61 60  1  0  0  0  0
 63 65  1  0  0  0  0
 64 65  2  0  0  0  0
 65 62  1  0  0  0  0
 66 67  1  0  0  0  0
 68 69  1  0  0  0  0
 69 67  1  0  0  0  0
M  END
>  <MODEL>
3

>  <REMARK>
 VINA RESULT:      -0.1      1.199      1.671
  Name = 
  24 active torsions:
  status: ('A' for Active; 'I' for Inactive)
    1  A    between atoms: C_3  and  C_53
    2  A    between atoms: C_5  and  C_13
    3  A    between atoms: C_7  and  C_43
    4  A    between atoms: C_7  and  C_67
    5  A    between atoms: C_11  and  N_26
    6  A    between atoms: C_21  and  C_43
    7  A    between atoms: N_26  and  C_27
    8  A    between atoms: C_27  and  C_48
    9  A    between atoms: C_28  and  C_41
   10  A    between atoms: C_30  and  C_35
   11  A    between atoms: C_30  and  C_38
   12  A    between atoms: C_32  and  C_44
   13  A    between atoms: C_32  and  C_55
   14  A    between atoms: C_33  and  C_35
   15  A    between atoms: C_33  and  C_41
   16  A    between atoms: C_37  and  O_40
   17  A    between atoms: C_37  and  C_66
   18  A    between atoms: C_37  and  C_67
   19  A    between atoms: C_43  and  C_65
   20  A    between atoms: C_44  and  C_51
   21  A    between atoms: C_51  and  C_62
   22  A    between atoms: C_59  and  C_60
   23  A    between atoms: C_59  and  C_66
   24  A    between atoms: C_60  and  C_69
                            x       y       z     vdW  Elec       q    Type
                         _______ _______ _______ _____ _____    ______ ____

>  <TORSDO>
F 24

$$$$
