=
 OpenBabel11052410523D

 28 31  0  0  1  0  0  0  0  0999 V2000
  159.3350  211.3890  153.3760 N   0  0  0  0  0  0  0  0  0  0  0  0
  160.4940  210.9200  152.5560 C   0  0  1  0  0  3  0  0  0  0  0  0
  160.7580  211.4090  153.8360 C   0  0  2  0  0  3  0  0  0  0  0  0
  162.4320  210.6890  156.5590 C   0  0  0  0  0  0  0  0  0  0  0  0
  162.3480  210.3050  155.3330 N   0  0  0  0  0  0  0  0  0  0  0  0
  161.1990  211.0660  157.1440 N   0  0  0  0  0  0  0  0  0  0  0  0
  160.9420  210.3880  154.9630 C   0  0  1  0  0  3  0  0  0  0  0  0
  160.3120  210.8970  156.2220 C   0  0  0  0  0  3  0  0  0  0  0  0
  163.6680  210.7400  157.2610 N   0  0  0  0  0  1  0  0  0  0  0  0
  161.1850  208.8110  151.5120 C   0  0  0  0  0  3  0  0  0  0  0  0
  160.4270  209.4320  152.4050 C   0  0  0  0  0  3  0  0  0  0  0  0
  161.1580  207.3890  151.3200 N   0  0  0  0  0  0  0  0  0  0  0  0
  161.0680  202.8860  151.7080 N   0  0  0  0  0  0  0  0  0  0  0  0
  161.1580  206.6770  150.1600 C   0  0  0  0  0  0  0  0  0  0  0  0
  161.1250  204.2180  148.1830 C   0  0  0  0  0  1  0  0  0  0  0  0
  161.1090  204.1750  149.6720 C   0  0  0  0  0  0  0  0  0  0  0  0
  161.1180  205.2450  151.8320 C   0  0  0  0  0  0  0  0  0  0  0  0
  161.0870  204.0130  152.4760 C   0  0  0  0  0  3  0  0  0  0  0  0
  161.1280  205.3280  150.4640 C   0  0  0  0  0  0  0  0  0  0  0  0
  161.1360  206.5190  152.3560 C   0  0  0  0  0  3  0  0  0  0  0  0
  161.0790  202.9380  150.3390 C   0  0  0  0  0  3  0  0  0  0  0  0
  161.1360  207.2610  148.7810 C   0  0  0  0  0  2  0  0  0  0  0  0
  162.5490  207.5710  148.3270 C   0  0  0  0  0  1  0  0  0  0  0  0
  157.5600  212.1620  154.6390 N   0  0  0  0  0  0  0  0  0  0  0  0
  157.9670  211.6020  153.5760 N   0  0  0  0  0  0  0  0  0  0  0  0
  155.4020  213.0510  153.9080 O   0  0  0  0  0  0  0  0  0  0  0  0
  156.1690  212.3900  154.8610 C   0  0  0  0  0  0  0  0  0  0  0  0
  155.6330  211.9910  155.9260 O   0  0  0  0  0  1  0  0  0  0  0  0
  1 25  1  0  0  0  0
  2 11  1  1  0  0  0
  2  1  1  0  0  0  0
  2  3  1  0  0  0  0
  3  1  1  1  0  0  0
  3  7  1  0  0  0  0
  4  6  1  0  0  0  0
  4  9  1  0  0  0  0
  5  4  2  0  0  0  0
  7  5  1  0  0  0  0
  7  8  1  1  0  0  0
  8  6  2  0  0  0  0
 10 11  2  0  0  0  0
 12 10  1  0  0  0  0
 12 20  1  0  0  0  0
 13 18  2  0  0  0  0
 14 19  2  0  0  0  0
 14 12  1  0  0  0  0
 15 16  1  0  0  0  0
 16 21  2  0  0  0  0
 16 19  1  0  0  0  0
 17 20  2  0  0  0  0
 17 18  1  0  0  0  0
 19 17  1  0  0  0  0
 21 13  1  0  0  0  0
 22 14  1  0  0  0  0
 23 22  1  0  0  0  0
 24 27  1  0  0  0  0
 25 24  2  0  0  0  0
 26 27  2  0  0  0  0
 27 28  1  0  0  0  0
M  END
>  <MODEL>
1

>  <REMARK>
 VINA RESULT:      -7.8      0.000      0.000
  Name = 
  6 active torsions:
  status: ('A' for Active; 'I' for Inactive)
    1  A    between atoms: C_1  and  C_9
    2  A    between atoms: N_4  and  C_8
    3  A    between atoms: C_12  and  C_28
    4  A    between atoms: C_13  and  N_15
    5  A    between atoms: N_16  and  N_17
    6  A    between atoms: C_20  and  C_23
                            x       y       z     vdW  Elec       q    Type
                         _______ _______ _______ _____ _____    ______ ____

>  <TORSDO>
F 6

$$$$
=
 OpenBabel11052410523D

 28 31  0  0  1  0  0  0  0  0999 V2000
  159.8020  211.4790  152.6490 N   0  0  0  0  0  0  0  0  0  0  0  0
  161.0850  210.7490  152.4070 C   0  0  1  0  0  3  0  0  0  0  0  0
  160.7750  211.1010  153.7200 C   0  0  2  0  0  3  0  0  0  0  0  0
  161.1870  209.2790  156.4120 C   0  0  0  0  0  0  0  0  0  0  0  0
  161.1890  209.1450  155.1320 N   0  0  0  0  0  0  0  0  0  0  0  0
  160.2320  210.2000  156.9070 N   0  0  0  0  0  0  0  0  0  0  0  0
  160.1510  210.0250  154.6160 C   0  0  1  0  0  3  0  0  0  0  0  0
  159.6150  210.6500  155.8670 C   0  0  0  0  0  3  0  0  0  0  0  0
  162.0810  208.5650  157.2570 N   0  0  0  0  0  1  0  0  0  0  0  0
  161.7710  208.4970  151.7150 C   0  0  0  0  0  3  0  0  0  0  0  0
  160.7860  209.3390  152.0000 C   0  0  0  0  0  3  0  0  0  0  0  0
  161.5430  207.1380  151.3150 N   0  0  0  0  0  0  0  0  0  0  0  0
  160.8800  202.6750  151.0260 N   0  0  0  0  0  0  0  0  0  0  0  0
  161.3720  206.6270  150.0640 C   0  0  0  0  0  0  0  0  0  0  0  0
  160.8850  204.5380  147.7500 C   0  0  0  0  0  1  0  0  0  0  0  0
  160.9590  204.2600  149.2110 C   0  0  0  0  0  0  0  0  0  0  0  0
  161.2510  204.9610  151.4990 C   0  0  0  0  0  0  0  0  0  0  0  0
  161.0980  203.6550  151.9510 C   0  0  0  0  0  3  0  0  0  0  0  0
  161.1830  205.2600  150.1640 C   0  0  0  0  0  0  0  0  0  0  0  0
  161.4720  206.1220  152.2060 C   0  0  0  0  0  3  0  0  0  0  0  0
  160.8090  202.9440  149.6840 C   0  0  0  0  0  3  0  0  0  0  0  0
  161.3380  207.4230  148.7970 C   0  0  0  0  0  2  0  0  0  0  0  0
  162.7500  207.6530  148.2910 C   0  0  0  0  0  1  0  0  0  0  0  0
  158.2500  213.1910  152.6210 N   0  0  0  0  0  0  0  0  0  0  0  0
  158.5980  212.0410  152.2120 N   0  0  0  0  0  0  0  0  0  0  0  0
  156.0100  214.0510  153.0950 O   0  0  0  0  0  1  0  0  0  0  0  0
  157.0270  213.7830  152.1860 C   0  0  0  0  0  0  0  0  0  0  0  0
  156.8680  214.0640  150.9710 O   0  0  0  0  0  0  0  0  0  0  0  0
  2 11  1  1  0  0  0
  2  1  1  0  0  0  0
  2  3  1  0  0  0  0
  3  1  1  6  0  0  0
  3  7  1  0  0  0  0
  4  6  1  0  0  0  0
  4  9  1  0  0  0  0
  5  4  2  0  0  0  0
  7  5  1  0  0  0  0
  7  8  1  1  0  0  0
  8  6  2  0  0  0  0
 10 11  2  0  0  0  0
 12 10  1  0  0  0  0
 12 20  1  0  0  0  0
 13 18  2  0  0  0  0
 14 19  2  0  0  0  0
 14 12  1  0  0  0  0
 15 16  1  0  0  0  0
 16 21  2  0  0  0  0
 16 19  1  0  0  0  0
 17 18  1  0  0  0  0
 17 20  2  0  0  0  0
 19 17  1  0  0  0  0
 21 13  1  0  0  0  0
 22 14  1  0  0  0  0
 23 22  1  0  0  0  0
 25 24  2  0  0  0  0
 25  1  1  0  0  0  0
 27 24  1  0  0  0  0
 27 26  1  0  0  0  0
 28 27  2  0  0  0  0
M  END
>  <MODEL>
2

>  <REMARK>
 VINA RESULT:      -7.3      1.392      1.606
  Name = 
  6 active torsions:
  status: ('A' for Active; 'I' for Inactive)
    1  A    between atoms: C_1  and  C_9
    2  A    between atoms: N_4  and  C_8
    3  A    between atoms: C_12  and  C_28
    4  A    between atoms: C_13  and  N_15
    5  A    between atoms: N_16  and  N_17
    6  A    between atoms: C_20  and  C_23
                            x       y       z     vdW  Elec       q    Type
                         _______ _______ _______ _____ _____    ______ ____

>  <TORSDO>
F 6

$$$$
=
 OpenBabel11052410523D

 28 31  0  0  1  0  0  0  0  0999 V2000
  159.8700  211.6100  152.7260 N   0  0  0  0  0  0  0  0  0  0  0  0
  161.1630  210.9230  152.4230 C   0  0  1  0  0  3  0  0  0  0  0  0
  160.8330  211.1270  153.7620 C   0  0  2  0  0  3  0  0  0  0  0  0
  161.1240  209.1690  156.3730 C   0  0  0  0  0  0  0  0  0  0  0  0
  161.2590  209.1190  155.0940 N   0  0  0  0  0  0  0  0  0  0  0  0
  160.0600  209.9880  156.8220 N   0  0  0  0  0  0  0  0  0  0  0  0
  160.2110  209.9560  154.5290 C   0  0  1  0  0  3  0  0  0  0  0  0
  159.5120  210.4600  155.7530 C   0  0  0  0  0  3  0  0  0  0  0  0
  161.9850  208.4670  157.2610 N   0  0  0  0  0  1  0  0  0  0  0  0
  161.8380  208.8810  151.2430 C   0  0  0  0  0  3  0  0  0  0  0  0
  160.8840  209.5630  151.8620 C   0  0  0  0  0  3  0  0  0  0  0  0
  161.6260  207.5770  150.6820 N   0  0  0  0  0  0  0  0  0  0  0  0
  160.8380  203.9730  148.0690 N   0  0  0  0  0  0  0  0  0  0  0  0
  161.6340  206.3630  151.2980 C   0  0  0  0  0  0  0  0  0  0  0  0
  161.4510  203.2410  151.7140 C   0  0  0  0  0  1  0  0  0  0  0  0
  161.2800  203.9890  150.4380 C   0  0  0  0  0  0  0  0  0  0  0  0
  161.2090  206.0340  149.1630 C   0  0  0  0  0  0  0  0  0  0  0  0
  160.9350  205.3320  147.9950 C   0  0  0  0  0  3  0  0  0  0  0  0
  161.3780  205.3820  150.3570 C   0  0  0  0  0  0  0  0  0  0  0  0
  161.3620  207.3880  149.3680 C   0  0  0  0  0  3  0  0  0  0  0  0
  161.0010  203.2950  149.2480 C   0  0  0  0  0  3  0  0  0  0  0  0
  161.9290  206.1260  152.7470 C   0  0  0  0  0  2  0  0  0  0  0  0
  160.6540  206.2390  153.5610 C   0  0  0  0  0  1  0  0  0  0  0  0
  158.1260  213.0860  153.0740 N   0  0  0  0  0  0  0  0  0  0  0  0
  158.6650  212.2060  152.3370 N   0  0  0  0  0  0  0  0  0  0  0  0
  155.7700  213.5890  153.4980 O   0  0  0  0  0  1  0  0  0  0  0  0
  156.8990  213.7070  152.6950 C   0  0  0  0  0  0  0  0  0  0  0  0
  156.8380  214.3670  151.6260 O   0  0  0  0  0  0  0  0  0  0  0  0
  2 11  1  1  0  0  0
  2  1  1  0  0  0  0
  2  3  1  0  0  0  0
  3  1  1  6  0  0  0
  3  7  1  0  0  0  0
  4  6  1  0  0  0  0
  4  9  1  0  0  0  0
  5  4  2  0  0  0  0
  7  5  1  0  0  0  0
  7  8  1  1  0  0  0
  8  6  2  0  0  0  0
 10 11  2  0  0  0  0
 12 10  1  0  0  0  0
 12 14  1  0  0  0  0
 13 21  1  0  0  0  0
 14 22  1  0  0  0  0
 16 15  1  0  0  0  0
 17 20  2  0  0  0  0
 17 19  1  0  0  0  0
 18 13  2  0  0  0  0
 18 17  1  0  0  0  0
 19 16  1  0  0  0  0
 19 14  2  0  0  0  0
 20 12  1  0  0  0  0
 21 16  2  0  0  0  0
 22 23  1  0  0  0  0
 25  1  1  0  0  0  0
 25 24  2  0  0  0  0
 27 24  1  0  0  0  0
 27 26  1  0  0  0  0
 28 27  2  0  0  0  0
M  END
>  <MODEL>
3

>  <REMARK>
 VINA RESULT:      -7.2      1.582      2.555
  Name = 
  6 active torsions:
  status: ('A' for Active; 'I' for Inactive)
    1  A    between atoms: C_1  and  C_9
    2  A    between atoms: N_4  and  C_8
    3  A    between atoms: C_12  and  C_28
    4  A    between atoms: C_13  and  N_15
    5  A    between atoms: N_16  and  N_17
    6  A    between atoms: C_20  and  C_23
                            x       y       z     vdW  Elec       q    Type
                         _______ _______ _______ _____ _____    ______ ____

>  <TORSDO>
F 6

$$$$
=
 OpenBabel11052410523D

 28 31  0  0  1  0  0  0  0  0999 V2000
  162.1130  213.4650  147.1690 N   0  0  0  0  0  0  0  0  0  0  0  0
  162.1580  212.8760  148.5430 C   0  0  1  0  0  3  0  0  0  0  0  0
  161.1120  213.7480  148.2430 C   0  0  2  0  0  3  0  0  0  0  0  0
  157.8580  214.0590  148.4670 C   0  0  0  0  0  0  0  0  0  0  0  0
  158.8040  213.3210  148.9350 N   0  0  0  0  0  0  0  0  0  0  0  0
  158.0300  214.4530  147.1180 N   0  0  0  0  0  0  0  0  0  0  0  0
  159.7630  213.1340  147.8560 C   0  0  1  0  0  3  0  0  0  0  0  0
  159.1450  213.9210  146.7420 C   0  0  0  0  0  3  0  0  0  0  0  0
  156.7380  214.4530  149.2500 N   0  0  0  0  0  1  0  0  0  0  0  0
  162.2180  210.5970  149.4480 C   0  0  0  0  0  3  0  0  0  0  0  0
  161.8550  211.4110  148.4660 C   0  0  0  0  0  3  0  0  0  0  0  0
  161.9580  209.1850  149.4250 N   0  0  0  0  0  0  0  0  0  0  0  0
  161.1950  204.8560  148.3710 N   0  0  0  0  0  0  0  0  0  0  0  0
  161.7580  208.3300  150.4660 C   0  0  0  0  0  0  0  0  0  0  0  0
  161.2080  205.6590  152.0530 C   0  0  0  0  0  1  0  0  0  0  0  0
  161.2960  205.8250  150.5760 C   0  0  0  0  0  0  0  0  0  0  0  0
  161.6100  207.1710  148.6000 C   0  0  0  0  0  0  0  0  0  0  0  0
  161.4360  206.0620  147.7800 C   0  0  0  0  0  3  0  0  0  0  0  0
  161.5430  207.0590  149.9640 C   0  0  0  0  0  0  0  0  0  0  0  0
  161.8660  208.4840  148.2710 C   0  0  0  0  0  3  0  0  0  0  0  0
  161.1210  204.7140  149.7320 C   0  0  0  0  0  3  0  0  0  0  0  0
  161.8200  208.6970  151.9160 C   0  0  0  0  0  2  0  0  0  0  0  0
  160.5030  209.3120  152.3520 C   0  0  0  0  0  1  0  0  0  0  0  0
  162.0850  212.9420  144.9170 N   0  0  0  0  0  0  0  0  0  0  0  0
  162.6050  213.6050  145.8660 N   0  0  0  0  0  0  0  0  0  0  0  0
  163.4100  214.1250  143.2360 O   0  0  0  0  0  1  0  0  0  0  0  0
  162.5700  213.0720  143.5820 C   0  0  0  0  0  0  0  0  0  0  0  0
  162.2360  212.2290  142.7120 O   0  0  0  0  0  0  0  0  0  0  0  0
  1  2  1  0  0  0  0
  2 11  1  6  0  0  0
  3  1  1  6  0  0  0
  3  2  1  0  0  0  0
  4  5  2  0  0  0  0
  4  9  1  0  0  0  0
  6  4  1  0  0  0  0
  7  8  1  6  0  0  0
  7  3  1  0  0  0  0
  7  5  1  0  0  0  0
  8  6  2  0  0  0  0
 11 10  2  0  0  0  0
 12 10  1  0  0  0  0
 12 14  1  0  0  0  0
 13 21  1  0  0  0  0
 14 22  1  0  0  0  0
 16 15  1  0  0  0  0
 17 19  1  0  0  0  0
 18 13  2  0  0  0  0
 18 17  1  0  0  0  0
 19 14  2  0  0  0  0
 19 16  1  0  0  0  0
 20 17  2  0  0  0  0
 20 12  1  0  0  0  0
 21 16  2  0  0  0  0
 22 23  1  0  0  0  0
 24 25  2  0  0  0  0
 25  1  1  0  0  0  0
 26 27  1  0  0  0  0
 27 24  1  0  0  0  0
 28 27  2  0  0  0  0
M  END
>  <MODEL>
4

>  <REMARK>
 VINA RESULT:      -7.1      5.699      7.620
  Name = 
  6 active torsions:
  status: ('A' for Active; 'I' for Inactive)
    1  A    between atoms: C_1  and  C_9
    2  A    between atoms: N_4  and  C_8
    3  A    between atoms: C_12  and  C_28
    4  A    between atoms: C_13  and  N_15
    5  A    between atoms: N_16  and  N_17
    6  A    between atoms: C_20  and  C_23
                            x       y       z     vdW  Elec       q    Type
                         _______ _______ _______ _____ _____    ______ ____

>  <TORSDO>
F 6

$$$$
=
 OpenBabel11052410523D

 28 31  0  0  1  0  0  0  0  0999 V2000
  160.0890  212.4780  153.0390 N   0  0  0  0  0  0  0  0  0  0  0  0
  160.8260  211.3380  153.6680 C   0  0  1  0  0  3  0  0  0  0  0  0
  159.7360  211.8680  154.3580 C   0  0  2  0  0  3  0  0  0  0  0  0
  156.7450  211.5190  155.6480 C   0  0  0  0  0  0  0  0  0  0  0  0
  157.8540  210.8710  155.5630 N   0  0  0  0  0  0  0  0  0  0  0  0
  156.4060  212.2630  154.4920 N   0  0  0  0  0  0  0  0  0  0  0  0
  158.3950  211.1380  154.2380 C   0  0  1  0  0  3  0  0  0  0  0  0
  157.3650  212.0530  153.6530 C   0  0  0  0  0  3  0  0  0  0  0  0
  155.9320  211.4940  156.8160 N   0  0  0  0  0  1  0  0  0  0  0  0
  161.5880  209.2960  152.5430 C   0  0  0  0  0  3  0  0  0  0  0  0
  160.5800  210.0910  152.8790 C   0  0  0  0  0  3  0  0  0  0  0  0
  161.4110  208.0920  151.7830 N   0  0  0  0  0  0  0  0  0  0  0  0
  160.7900  204.9190  148.6220 N   0  0  0  0  0  0  0  0  0  0  0  0
  161.3800  206.8000  152.2130 C   0  0  0  0  0  0  0  0  0  0  0  0
  161.1690  203.6520  152.1510 C   0  0  0  0  0  1  0  0  0  0  0  0
  161.0810  204.5820  150.9910 C   0  0  0  0  0  0  0  0  0  0  0  0
  161.0910  206.7930  150.0300 C   0  0  0  0  0  0  0  0  0  0  0  0
  160.8920  206.2740  148.7560 C   0  0  0  0  0  3  0  0  0  0  0  0
  161.1840  205.9710  151.1230 C   0  0  0  0  0  0  0  0  0  0  0  0
  161.2320  208.1000  150.4420 C   0  0  0  0  0  3  0  0  0  0  0  0
  160.8780  204.0730  149.6960 C   0  0  0  0  0  3  0  0  0  0  0  0
  161.5820  206.3490  153.6270 C   0  0  0  0  0  2  0  0  0  0  0  0
  160.4440  206.8470  154.4970 C   0  0  0  0  0  1  0  0  0  0  0  0
  159.8620  212.9790  150.7940 N   0  0  0  0  0  0  0  0  0  0  0  0
  159.8710  213.3850  151.9970 N   0  0  0  0  0  0  0  0  0  0  0  0
  160.7050  214.3600  148.9600 O   0  0  0  0  0  0  0  0  0  0  0  0
  159.6390  213.8870  149.7170 C   0  0  0  0  0  0  0  0  0  0  0  0
  158.4690  214.2620  149.4490 O   0  0  0  0  0  1  0  0  0  0  0  0
  1  2  1  0  0  0  0
  2 11  1  6  0  0  0
  2  3  1  0  0  0  0
  3  1  1  6  0  0  0
  4  9  1  0  0  0  0
  5  4  2  0  0  0  0
  6  4  1  0  0  0  0
  7  8  1  6  0  0  0
  7  3  1  0  0  0  0
  7  5  1  0  0  0  0
  8  6  2  0  0  0  0
 10 11  2  0  0  0  0
 12 14  1  0  0  0  0
 12 10  1  0  0  0  0
 13 18  2  0  0  0  0
 13 21  1  0  0  0  0
 14 22  1  0  0  0  0
 16 19  1  0  0  0  0
 16 15  1  0  0  0  0
 17 20  2  0  0  0  0
 17 19  1  0  0  0  0
 18 17  1  0  0  0  0
 19 14  2  0  0  0  0
 20 12  1  0  0  0  0
 21 16  2  0  0  0  0
 22 23  1  0  0  0  0
 24 25  2  0  0  0  0
 25  1  1  0  0  0  0
 26 27  2  0  0  0  0
 27 24  1  0  0  0  0
 28 27  1  0  0  0  0
M  END
>  <MODEL>
5

>  <REMARK>
 VINA RESULT:      -6.9      2.708      4.207
  Name = 
  6 active torsions:
  status: ('A' for Active; 'I' for Inactive)
    1  A    between atoms: C_1  and  C_9
    2  A    between atoms: N_4  and  C_8
    3  A    between atoms: C_12  and  C_28
    4  A    between atoms: C_13  and  N_15
    5  A    between atoms: N_16  and  N_17
    6  A    between atoms: C_20  and  C_23
                            x       y       z     vdW  Elec       q    Type
                         _______ _______ _______ _____ _____    ______ ____

>  <TORSDO>
F 6

$$$$
=
 OpenBabel11052410523D

 28 31  0  0  1  0  0  0  0  0999 V2000
  161.6270  210.6630  151.0240 N   0  0  0  0  0  0  0  0  0  0  0  0
  162.4170  209.6860  151.8350 C   0  0  1  0  0  3  0  0  0  0  0  0
  161.5640  210.5560  152.5140 C   0  0  2  0  0  3  0  0  0  0  0  0
  159.2520  210.6080  154.8350 C   0  0  0  0  0  0  0  0  0  0  0  0
  160.1500  209.8120  154.3670 N   0  0  0  0  0  0  0  0  0  0  0  0
  158.6120  211.4130  153.8610 N   0  0  0  0  0  0  0  0  0  0  0  0
  160.1880  210.0240  152.9280 C   0  0  1  0  0  3  0  0  0  0  0  0
  159.1500  211.0850  152.7350 C   0  0  0  0  0  3  0  0  0  0  0  0
  158.9390  210.6780  156.2210 N   0  0  0  0  0  1  0  0  0  0  0  0
  162.4140  207.5640  150.6060 C   0  0  0  0  0  3  0  0  0  0  0  0
  161.9050  208.3020  151.5840 C   0  0  0  0  0  3  0  0  0  0  0  0
  161.9590  206.2340  150.3170 N   0  0  0  0  0  0  0  0  0  0  0  0
  160.4270  201.9810  150.3890 N   0  0  0  0  0  0  0  0  0  0  0  0
  161.8360  205.6090  149.1130 C   0  0  0  0  0  0  0  0  0  0  0  0
  161.2050  203.3760  146.9760 C   0  0  0  0  0  1  0  0  0  0  0  0
  161.0460  203.2760  148.4530 C   0  0  0  0  0  0  0  0  0  0  0  0
  161.2030  204.1940  150.6770 C   0  0  0  0  0  0  0  0  0  0  0  0
  160.7320  203.0100  151.2320 C   0  0  0  0  0  3  0  0  0  0  0  0
  161.3570  204.3280  149.3220 C   0  0  0  0  0  0  0  0  0  0  0  0
  161.5750  205.3720  151.2870 C   0  0  0  0  0  3  0  0  0  0  0  0
  160.5720  202.0850  149.0310 C   0  0  0  0  0  3  0  0  0  0  0  0
  162.1170  206.2290  147.7790 C   0  0  0  0  0  2  0  0  0  0  0  0
  160.8280  206.7370  147.1620 C   0  0  0  0  0  1  0  0  0  0  0  0
  162.0730  211.7930  149.0570 N   0  0  0  0  0  0  0  0  0  0  0  0
  161.2230  211.2170  149.8040 N   0  0  0  0  0  0  0  0  0  0  0  0
  162.6270  212.9510  146.9760 O   0  0  0  0  0  0  0  0  0  0  0  0
  161.6820  212.3630  147.8090 C   0  0  0  0  0  0  0  0  0  0  0  0
  160.4750  212.3310  147.4600 O   0  0  0  0  0  1  0  0  0  0  0  0
  1  2  1  0  0  0  0
  2 11  1  6  0  0  0
  2  3  1  0  0  0  0
  3  1  1  6  0  0  0
  3  7  1  0  0  0  0
  4  9  1  0  0  0  0
  5  4  2  0  0  0  0
  6  4  1  0  0  0  0
  7  8  1  1  0  0  0
  7  5  1  0  0  0  0
  8  6  2  0  0  0  0
 10 11  2  0  0  0  0
 12 10  1  0  0  0  0
 12 20  1  0  0  0  0
 13 18  2  0  0  0  0
 14 19  2  0  0  0  0
 14 12  1  0  0  0  0
 15 16  1  0  0  0  0
 16 21  2  0  0  0  0
 16 19  1  0  0  0  0
 17 18  1  0  0  0  0
 17 20  2  0  0  0  0
 19 17  1  0  0  0  0
 21 13  1  0  0  0  0
 22 14  1  0  0  0  0
 23 22  1  0  0  0  0
 24 25  2  0  0  0  0
 25  1  1  0  0  0  0
 26 27  2  0  0  0  0
 27 24  1  0  0  0  0
 28 27  1  0  0  0  0
M  END
>  <MODEL>
6

>  <REMARK>
 VINA RESULT:      -6.8      3.219      4.196
  Name = 
  6 active torsions:
  status: ('A' for Active; 'I' for Inactive)
    1  A    between atoms: C_1  and  C_9
    2  A    between atoms: N_4  and  C_8
    3  A    between atoms: C_12  and  C_28
    4  A    between atoms: C_13  and  N_15
    5  A    between atoms: N_16  and  N_17
    6  A    between atoms: C_20  and  C_23
                            x       y       z     vdW  Elec       q    Type
                         _______ _______ _______ _____ _____    ______ ____

>  <TORSDO>
F 6

$$$$
=
 OpenBabel11052410523D

 28 31  0  0  1  0  0  0  0  0999 V2000
  160.2750  212.0230  152.0740 N   0  0  0  0  0  0  0  0  0  0  0  0
  161.1540  211.0680  152.8180 C   0  0  1  0  0  3  0  0  0  0  0  0
  160.1730  211.7470  153.5400 C   0  0  2  0  0  3  0  0  0  0  0  0
  157.6600  211.4490  155.6220 C   0  0  0  0  0  0  0  0  0  0  0  0
  158.7130  210.8010  155.2620 N   0  0  0  0  0  0  0  0  0  0  0  0
  157.0040  212.1380  154.5740 N   0  0  0  0  0  0  0  0  0  0  0  0
  158.8620  211.0080  153.8290 C   0  0  1  0  0  3  0  0  0  0  0  0
  157.6960  211.8920  153.5120 C   0  0  0  0  0  3  0  0  0  0  0  0
  157.2030  211.4760  156.9690 N   0  0  0  0  0  1  0  0  0  0  0  0
  161.8030  208.7920  152.1770 C   0  0  0  0  0  3  0  0  0  0  0  0
  160.8320  209.6670  152.4000 C   0  0  0  0  0  3  0  0  0  0  0  0
  161.5540  207.4380  151.7700 N   0  0  0  0  0  0  0  0  0  0  0  0
  160.8300  202.9870  151.4560 N   0  0  0  0  0  0  0  0  0  0  0  0
  161.3660  206.9380  150.5170 C   0  0  0  0  0  0  0  0  0  0  0  0
  160.8310  204.8720  148.1930 C   0  0  0  0  0  1  0  0  0  0  0  0
  160.9140  204.5820  149.6510 C   0  0  0  0  0  0  0  0  0  0  0  0
  161.2350  205.2630  151.9410 C   0  0  0  0  0  0  0  0  0  0  0  0
  161.0690  203.9570  152.3860 C   0  0  0  0  0  3  0  0  0  0  0  0
  161.1590  205.5730  150.6090 C   0  0  0  0  0  0  0  0  0  0  0  0
  161.4780  206.4170  152.6550 C   0  0  0  0  0  3  0  0  0  0  0  0
  160.7500  203.2660  150.1170 C   0  0  0  0  0  3  0  0  0  0  0  0
  161.3310  207.7430  149.2550 C   0  0  0  0  0  2  0  0  0  0  0  0
  162.7040  207.7540  148.6100 C   0  0  0  0  0  1  0  0  0  0  0  0
  160.6660  212.8410  149.9480 N   0  0  0  0  0  0  0  0  0  0  0  0
  159.8480  212.6530  150.9010 N   0  0  0  0  0  0  0  0  0  0  0  0
  158.9000  213.6880  148.4830 O   0  0  0  0  0  1  0  0  0  0  0  0
  160.2500  213.4790  148.7420 C   0  0  0  0  0  0  0  0  0  0  0  0
  161.1110  213.8570  147.9070 O   0  0  0  0  0  0  0  0  0  0  0  0
  1  2  1  0  0  0  0
  2 11  1  6  0  0  0
  2  3  1  0  0  0  0
  3  1  1  6  0  0  0
  3  7  1  0  0  0  0
  4  9  1  0  0  0  0
  5  4  2  0  0  0  0
  6  4  1  0  0  0  0
  7  8  1  1  0  0  0
  7  5  1  0  0  0  0
  8  6  2  0  0  0  0
 10 11  2  0  0  0  0
 12 10  1  0  0  0  0
 12 20  1  0  0  0  0
 13 18  2  0  0  0  0
 14 19  2  0  0  0  0
 14 12  1  0  0  0  0
 15 16  1  0  0  0  0
 16 21  2  0  0  0  0
 16 19  1  0  0  0  0
 17 18  1  0  0  0  0
 17 20  2  0  0  0  0
 19 17  1  0  0  0  0
 21 13  1  0  0  0  0
 22 14  1  0  0  0  0
 23 22  1  0  0  0  0
 24 25  2  0  0  0  0
 25  1  1  0  0  0  0
 26 27  1  0  0  0  0
 27 24  1  0  0  0  0
 28 27  2  0  0  0  0
M  END
>  <MODEL>
7

>  <REMARK>
 VINA RESULT:      -6.7      2.701      3.652
  Name = 
  6 active torsions:
  status: ('A' for Active; 'I' for Inactive)
    1  A    between atoms: C_1  and  C_9
    2  A    between atoms: N_4  and  C_8
    3  A    between atoms: C_12  and  C_28
    4  A    between atoms: C_13  and  N_15
    5  A    between atoms: N_16  and  N_17
    6  A    between atoms: C_20  and  C_23
                            x       y       z     vdW  Elec       q    Type
                         _______ _______ _______ _____ _____    ______ ____

>  <TORSDO>
F 6

$$$$
=
 OpenBabel11052410523D

 28 31  0  0  1  0  0  0  0  0999 V2000
  161.3830  211.4060  150.6440 N   0  0  0  0  0  0  0  0  0  0  0  0
  162.1970  210.3130  151.2600 C   0  0  1  0  0  3  0  0  0  0  0  0
  161.3820  211.0700  152.1010 C   0  0  2  0  0  3  0  0  0  0  0  0
  159.1960  210.7270  154.5180 C   0  0  0  0  0  0  0  0  0  0  0  0
  160.0520  210.0190  153.8660 N   0  0  0  0  0  0  0  0  0  0  0  0
  158.5230  211.7000  153.7410 N   0  0  0  0  0  0  0  0  0  0  0  0
  160.0200  210.4860  152.4880 C   0  0  1  0  0  3  0  0  0  0  0  0
  158.9940  211.5750  152.5460 C   0  0  0  0  0  3  0  0  0  0  0  0
  158.9580  210.5480  155.9090 N   0  0  0  0  0  1  0  0  0  0  0  0
  162.4070  207.8940  150.9090 C   0  0  0  0  0  3  0  0  0  0  0  0
  161.6590  208.9860  150.8200 C   0  0  0  0  0  3  0  0  0  0  0  0
  161.9460  206.5990  150.4980 N   0  0  0  0  0  0  0  0  0  0  0  0
  160.5260  202.9140  148.2970 N   0  0  0  0  0  0  0  0  0  0  0  0
  161.6650  205.5040  151.2590 C   0  0  0  0  0  0  0  0  0  0  0  0
  160.7970  202.5730  152.0400 C   0  0  0  0  0  1  0  0  0  0  0  0
  160.8510  203.1600  150.6730 C   0  0  0  0  0  0  0  0  0  0  0  0
  161.2790  204.9830  149.1540 C   0  0  0  0  0  0  0  0  0  0  0  0
  160.9160  204.2010  148.0640 C   0  0  0  0  0  3  0  0  0  0  0  0
  161.2490  204.4790  150.4280 C   0  0  0  0  0  0  0  0  0  0  0  0
  161.7100  206.2910  149.2020 C   0  0  0  0  0  3  0  0  0  0  0  0
  160.4850  202.3830  149.5600 C   0  0  0  0  0  3  0  0  0  0  0  0
  161.8350  205.4100  152.7430 C   0  0  0  0  0  2  0  0  0  0  0  0
  160.8970  206.3820  153.4340 C   0  0  0  0  0  1  0  0  0  0  0  0
  161.5820  212.1150  148.4530 N   0  0  0  0  0  0  0  0  0  0  0  0
  160.9340  212.1450  149.5440 N   0  0  0  0  0  0  0  0  0  0  0  0
  162.0160  213.1490  146.2800 O   0  0  0  0  0  0  0  0  0  0  0  0
  161.1400  212.8580  147.3190 C   0  0  0  0  0  0  0  0  0  0  0  0
  159.9470  213.2530  147.2580 O   0  0  0  0  0  1  0  0  0  0  0  0
  1  2  1  0  0  0  0
  2 11  1  6  0  0  0
  2  3  1  0  0  0  0
  3  1  1  6  0  0  0
  3  7  1  0  0  0  0
  4  9  1  0  0  0  0
  5  4  2  0  0  0  0
  6  4  1  0  0  0  0
  7  8  1  1  0  0  0
  7  5  1  0  0  0  0
  8  6  2  0  0  0  0
 11 10  2  0  0  0  0
 12 10  1  0  0  0  0
 12 14  1  0  0  0  0
 13 21  1  0  0  0  0
 14 22  1  0  0  0  0
 16 15  1  0  0  0  0
 17 20  2  0  0  0  0
 17 19  1  0  0  0  0
 18 13  2  0  0  0  0
 18 17  1  0  0  0  0
 19 16  1  0  0  0  0
 19 14  2  0  0  0  0
 20 12  1  0  0  0  0
 21 16  2  0  0  0  0
 22 23  1  0  0  0  0
 24 25  2  0  0  0  0
 25  1  1  0  0  0  0
 26 27  2  0  0  0  0
 27 24  1  0  0  0  0
 28 27  1  0  0  0  0
M  END
>  <MODEL>
8

>  <REMARK>
 VINA RESULT:      -6.3      3.298      4.627
  Name = 
  6 active torsions:
  status: ('A' for Active; 'I' for Inactive)
    1  A    between atoms: C_1  and  C_9
    2  A    between atoms: N_4  and  C_8
    3  A    between atoms: C_12  and  C_28
    4  A    between atoms: C_13  and  N_15
    5  A    between atoms: N_16  and  N_17
    6  A    between atoms: C_20  and  C_23
                            x       y       z     vdW  Elec       q    Type
                         _______ _______ _______ _____ _____    ______ ____

>  <TORSDO>
F 6

$$$$
=
 OpenBabel11052410523D

 28 31  0  0  1  0  0  0  0  0999 V2000
  161.5770  209.8670  154.7590 N   0  0  0  0  0  0  0  0  0  0  0  0
  160.7040  208.6800  154.5010 C   0  0  1  0  0  3  0  0  0  0  0  0
  160.0820  209.8970  154.7730 C   0  0  2  0  0  3  0  0  0  0  0  0
  157.9730  212.2130  153.8100 C   0  0  0  0  0  0  0  0  0  0  0  0
  158.1450  210.9410  153.7010 N   0  0  0  0  0  0  0  0  0  0  0  0
  159.1670  212.9730  153.7920 N   0  0  0  0  0  0  0  0  0  0  0  0
  159.5790  210.7210  153.5830 C   0  0  1  0  0  3  0  0  0  0  0  0
  160.1220  212.1140  153.6600 C   0  0  0  0  0  3  0  0  0  0  0  0
  156.6850  212.8010  153.9480 N   0  0  0  0  0  1  0  0  0  0  0  0
  161.1010  207.0380  152.7220 C   0  0  0  0  0  3  0  0  0  0  0  0
  160.8130  208.2880  153.0600 C   0  0  0  0  0  3  0  0  0  0  0  0
  161.2230  206.6070  151.3580 N   0  0  0  0  0  0  0  0  0  0  0  0
  161.8450  206.1990  146.8990 N   0  0  0  0  0  0  0  0  0  0  0  0
  161.0230  205.3700  150.8250 C   0  0  0  0  0  0  0  0  0  0  0  0
  160.8360  203.0460  148.7000 C   0  0  0  0  0  1  0  0  0  0  0  0
  161.2040  204.4670  148.4480 C   0  0  0  0  0  0  0  0  0  0  0  0
  161.5940  206.7280  149.1880 C   0  0  0  0  0  0  0  0  0  0  0  0
  161.8950  207.1330  147.8930 C   0  0  0  0  0  3  0  0  0  0  0  0
  161.2560  205.4280  149.4630 C   0  0  0  0  0  0  0  0  0  0  0  0
  161.5720  207.4520  150.3600 C   0  0  0  0  0  3  0  0  0  0  0  0
  161.5100  204.8930  147.1440 C   0  0  0  0  0  3  0  0  0  0  0  0
  160.6650  204.1390  151.5980 C   0  0  0  0  0  2  0  0  0  0  0  0
  161.8560  203.2000  151.6560 C   0  0  0  0  0  1  0  0  0  0  0  0
  163.2720  210.8310  156.0000 N   0  0  0  0  0  0  0  0  0  0  0  0
  162.8280  210.4830  154.8630 N   0  0  0  0  0  0  0  0  0  0  0  0
  165.3470  211.6640  155.0090 O   0  0  0  0  0  0  0  0  0  0  0  0
  164.5470  211.4580  156.1270 C   0  0  0  0  0  0  0  0  0  0  0  0
  164.9500  211.8280  157.2600 O   0  0  0  0  0  1  0  0  0  0  0  0
  1 25  1  0  0  0  0
  2 11  1  6  0  0  0
  2  1  1  0  0  0  0
  2  3  1  0  0  0  0
  3  1  1  6  0  0  0
  4  9  1  0  0  0  0
  5  4  2  0  0  0  0
  6  4  1  0  0  0  0
  7  8  1  1  0  0  0
  7  5  1  0  0  0  0
  7  3  1  0  0  0  0
  8  6  2  0  0  0  0
 10 11  2  0  0  0  0
 12 10  1  0  0  0  0
 13 21  1  0  0  0  0
 13 18  2  0  0  0  0
 14 12  1  0  0  0  0
 14 22  1  0  0  0  0
 16 15  1  0  0  0  0
 16 19  1  0  0  0  0
 17 19  1  0  0  0  0
 17 20  2  0  0  0  0
 18 17  1  0  0  0  0
 19 14  2  0  0  0  0
 20 12  1  0  0  0  0
 21 16  2  0  0  0  0
 22 23  1  0  0  0  0
 24 27  1  0  0  0  0
 25 24  2  0  0  0  0
 26 27  2  0  0  0  0
 27 28  1  0  0  0  0
M  END
>  <MODEL>
9

>  <REMARK>
 VINA RESULT:      -6.2      2.972      4.819
  Name = 
  6 active torsions:
  status: ('A' for Active; 'I' for Inactive)
    1  A    between atoms: C_1  and  C_9
    2  A    between atoms: N_4  and  C_8
    3  A    between atoms: C_12  and  C_28
    4  A    between atoms: C_13  and  N_15
    5  A    between atoms: N_16  and  N_17
    6  A    between atoms: C_20  and  C_23
                            x       y       z     vdW  Elec       q    Type
                         _______ _______ _______ _____ _____    ______ ____

>  <TORSDO>
F 6

$$$$
