=
 OpenBabel11042421073D

 36 40  0  0  1  0  0  0  0  0999 V2000
  161.5070  209.8540  151.1140 C   0  0  0  0  0  0  0  0  0  0  0  0
  161.4400  208.5250  150.8210 N   0  0  0  0  0  0  0  0  0  0  0  0
  161.3420  207.9060  152.0100 C   0  0  0  0  0  0  0  0  0  0  0  0
  161.4590  210.0720  152.5010 C   0  0  0  0  0  3  0  0  0  0  0  0
  161.2480  208.3520  154.3420 C   0  0  0  0  0  0  0  0  0  0  0  0
  161.1130  206.1240  153.5080 C   0  0  0  0  0  3  0  0  0  0  0  0
  161.1310  207.0100  154.5550 N   0  0  0  0  0  0  0  0  0  0  0  0
  161.3570  208.8010  153.0320 C   0  0  0  0  0  0  0  0  0  0  0  0
  161.2520  209.1550  155.3110 O   0  0  0  0  0  0  0  0  0  0  0  0
  161.2160  206.5710  152.2210 N   0  0  0  0  0  2  0  0  0  0  0  0
  161.5930  210.9520  150.1200 C   0  0  0  0  0  0  0  0  0  0  0  0
  162.5110  211.9030  148.0760 C   0  0  0  0  0  3  0  0  0  0  0  0
  160.8260  212.1150  150.2940 C   0  0  0  0  0  3  0  0  0  0  0  0
  162.4410  210.8610  149.0050 C   0  0  0  0  0  3  0  0  0  0  0  0
  160.8930  213.1580  149.3650 C   0  0  0  0  0  3  0  0  0  0  0  0
  161.7310  213.0490  148.2510 C   0  0  0  0  0  0  0  0  0  0  0  0
  161.8130  214.1580  147.2640 C   0  0  0  0  0  2  0  0  0  0  0  0
  160.6820  214.0880  146.3400 N   0  0  0  0  0  2  0  0  0  0  0  0
  161.1400  214.1000  144.9470 C   0  0  0  0  0  3  0  0  0  0  0  0
  162.1230  212.5950  143.3440 C   0  0  0  0  0  2  0  0  0  0  0  0
  162.6190  214.4530  144.8240 C   0  0  0  0  0  2  0  0  0  0  0  0
  163.2590  213.3280  144.0280 C   0  0  0  0  0  2  0  0  0  0  0  0
  160.9250  212.7640  144.2530 C   0  0  0  0  0  2  0  0  0  0  0  0
  162.7310  207.4120  149.0330 C   0  0  0  0  0  2  0  0  0  0  0  0
  162.6200  206.7840  147.6470 C   0  0  0  0  0  2  0  0  0  0  0  0
  160.3360  206.7690  149.4990 C   0  0  0  0  0  2  0  0  0  0  0  0
  161.3590  207.9060  149.4980 C   0  0  1  0  0  3  0  0  0  0  0  0
  160.2450  206.1450  148.1100 C   0  0  0  0  0  2  0  0  0  0  0  0
  161.6170  205.6330  147.6690 C   0  0  1  0  0  3  0  0  0  0  0  0
  161.5240  205.0170  146.2830 C   0  0  0  0  0  2  0  0  0  0  0  0
  161.5450  203.5670  146.3760 N   0  0  0  0  0  2  0  0  0  0  0  0
  161.7340  203.2330  147.7800 C   0  0  0  0  0  2  0  0  0  0  0  0
  162.0790  201.0250  148.6010 F   0  0  0  0  0  0  0  0  0  0  0  0
  160.0030  202.0390  149.1270 C   0  0  0  0  0  1  0  0  0  0  0  0
  160.5340  201.2900  146.8380 C   0  0  0  0  0  1  0  0  0  0  0  0
  161.1130  201.8820  148.1050 C   0  0  0  0  0  0  0  0  0  0  0  0
  1  4  2  0  0  0  0
  2  1  1  0  0  0  0
  2  3  1  0  0  0  0
  3 10  1  0  0  0  0
  3  8  2  0  0  0  0
  4  8  1  0  0  0  0
  5  7  1  0  0  0  0
  5  9  2  0  0  0  0
  6  7  2  0  0  0  0
  8  5  1  0  0  0  0
 10  6  1  0  0  0  0
 11 13  1  0  0  0  0
 11  1  1  0  0  0  0
 12 16  2  0  0  0  0
 12 14  1  0  0  0  0
 14 11  2  0  0  0  0
 15 13  2  0  0  0  0
 16 15  1  0  0  0  0
 17 16  1  0  0  0  0
 18 17  1  0  0  0  0
 19 18  1  0  0  0  0
 20 22  1  0  0  0  0
 20 23  1  0  0  0  0
 21 19  1  0  0  0  0
 22 21  1  0  0  0  0
 23 19  1  0  0  0  0
 25 29  1  0  0  0  0
 25 24  1  0  0  0  0
 27 24  1  1  0  0  0
 27 26  1  0  0  0  0
 27  2  1  0  0  0  0
 28 26  1  0  0  0  0
 29 30  1  6  0  0  0
 29 28  1  0  0  0  0
 30 31  1  0  0  0  0
 31 32  1  0  0  0  0
 32 36  1  0  0  0  0
 35 36  1  0  0  0  0
 36 33  1  0  0  0  0
 36 34  1  0  0  0  0
M  END
>  <MODEL>
1

>  <REMARK>
 VINA RESULT:      -7.4      0.000      0.000
  Name = 
  9 active torsions:
  status: ('A' for Active; 'I' for Inactive)
    1  A    between atoms: C_1  and  C_3
    2  A    between atoms: N_2  and  C_20
    3  A    between atoms: N_4  and  C_10
    4  A    between atoms: N_4  and  C_15
    5  A    between atoms: C_8  and  N_27
    6  A    between atoms: C_8  and  C_33
    7  A    between atoms: C_10  and  C_34
    8  A    between atoms: C_24  and  N_27
    9  A    between atoms: C_24  and  C_36
                            x       y       z     vdW  Elec       q    Type
                         _______ _______ _______ _____ _____    ______ ____

>  <TORSDO>
F 9

$$$$
=
 OpenBabel11042421073D

 36 40  0  0  1  0  0  0  0  0999 V2000
  161.0350  209.9010  153.0250 C   0  0  0  0  0  0  0  0  0  0  0  0
  161.1900  208.5650  153.2460 N   0  0  0  0  0  0  0  0  0  0  0  0
  160.8820  208.3820  154.5410 C   0  0  0  0  0  0  0  0  0  0  0  0
  160.6330  210.5660  154.1960 C   0  0  0  0  0  3  0  0  0  0  0  0
  160.1840  209.5720  156.4770 C   0  0  0  0  0  0  0  0  0  0  0  0
  160.5050  207.2110  156.5310 C   0  0  0  0  0  3  0  0  0  0  0  0
  160.1730  208.3870  157.1530 N   0  0  0  0  0  0  0  0  0  0  0  0
  160.5510  209.5580  155.1380 C   0  0  0  0  0  0  0  0  0  0  0  0
  159.8660  210.6420  157.0580 O   0  0  0  0  0  0  0  0  0  0  0  0
  160.8600  207.2030  155.2120 N   0  0  0  0  0  2  0  0  0  0  0  0
  161.2300  210.5880  151.7250 C   0  0  0  0  0  0  0  0  0  0  0  0
  162.3050  210.7510  149.5480 C   0  0  0  0  0  3  0  0  0  0  0  0
  160.5160  211.7620  151.4400 C   0  0  0  0  0  3  0  0  0  0  0  0
  162.1310  210.0940  150.7690 C   0  0  0  0  0  3  0  0  0  0  0  0
  160.6860  212.4200  150.2190 C   0  0  0  0  0  3  0  0  0  0  0  0
  161.5770  211.9100  149.2680 C   0  0  0  0  0  0  0  0  0  0  0  0
  161.7690  212.6100  147.9700 C   0  0  0  0  0  2  0  0  0  0  0  0
  161.0060  213.8570  147.9580 N   0  0  0  0  0  2  0  0  0  0  0  0
  160.0900  213.9000  146.8130 C   0  0  0  0  0  3  0  0  0  0  0  0
  158.3950  212.5300  145.7880 C   0  0  0  0  0  2  0  0  0  0  0  0
  160.6940  213.2740  145.5610 C   0  0  0  0  0  2  0  0  0  0  0  0
  159.7070  212.2160  145.0970 C   0  0  0  0  0  2  0  0  0  0  0  0
  158.7730  213.1930  147.0940 C   0  0  0  0  0  2  0  0  0  0  0  0
  161.5580  206.1450  152.9150 C   0  0  0  0  0  2  0  0  0  0  0  0
  161.8920  205.0850  151.8700 C   0  0  0  0  0  2  0  0  0  0  0  0
  160.4790  207.5520  151.1200 C   0  0  0  0  0  2  0  0  0  0  0  0
  161.4970  207.5280  152.2610 C   0  0  1  0  0  3  0  0  0  0  0  0
  160.8210  206.4810  150.0900 C   0  0  0  0  0  2  0  0  0  0  0  0
  160.8530  205.1030  150.7520 C   0  0  1  0  0  3  0  0  0  0  0  0
  161.1990  204.0380  149.7230 C   0  0  0  0  0  2  0  0  0  0  0  0
  160.9830  204.5480  148.3800 N   0  0  0  0  0  2  0  0  0  0  0  0
  161.9330  203.8720  147.5100 C   0  0  0  0  0  2  0  0  0  0  0  0
  163.7530  204.6460  146.1840 F   0  0  0  0  0  0  0  0  0  0  0  0
  161.6510  204.4820  145.1050 C   0  0  0  0  0  1  0  0  0  0  0  0
  162.1100  206.2280  146.7860 C   0  0  0  0  0  1  0  0  0  0  0  0
  162.3940  204.7950  146.3900 C   0  0  0  0  0  0  0  0  0  0  0  0
  1  2  1  0  0  0  0
  1  4  2  0  0  0  0
  2  3  1  0  0  0  0
  3  8  2  0  0  0  0
  3 10  1  0  0  0  0
  4  8  1  0  0  0  0
  5  9  2  0  0  0  0
  5  7  1  0  0  0  0
  6  7  2  0  0  0  0
  8  5  1  0  0  0  0
 10  6  1  0  0  0  0
 11  1  1  0  0  0  0
 12 14  1  0  0  0  0
 13 11  1  0  0  0  0
 14 11  2  0  0  0  0
 15 13  2  0  0  0  0
 16 12  2  0  0  0  0
 16 15  1  0  0  0  0
 17 16  1  0  0  0  0
 18 17  1  0  0  0  0
 19 23  1  0  0  0  0
 19 18  1  0  0  0  0
 20 23  1  0  0  0  0
 21 19  1  0  0  0  0
 22 21  1  0  0  0  0
 22 20  1  0  0  0  0
 25 24  1  0  0  0  0
 27 26  1  6  0  0  0
 27 24  1  0  0  0  0
 27  2  1  0  0  0  0
 28 29  1  0  0  0  0
 28 26  1  0  0  0  0
 29 30  1  6  0  0  0
 29 25  1  0  0  0  0
 31 30  1  0  0  0  0
 32 31  1  0  0  0  0
 33 36  1  0  0  0  0
 34 36  1  0  0  0  0
 36 35  1  0  0  0  0
 36 32  1  0  0  0  0
M  END
>  <MODEL>
2

>  <REMARK>
 VINA RESULT:      -7.0      1.857      2.980
  Name = 
  9 active torsions:
  status: ('A' for Active; 'I' for Inactive)
    1  A    between atoms: C_1  and  C_3
    2  A    between atoms: N_2  and  C_20
    3  A    between atoms: N_4  and  C_10
    4  A    between atoms: N_4  and  C_15
    5  A    between atoms: C_8  and  N_27
    6  A    between atoms: C_8  and  C_33
    7  A    between atoms: C_10  and  C_34
    8  A    between atoms: C_24  and  N_27
    9  A    between atoms: C_24  and  C_36
                            x       y       z     vdW  Elec       q    Type
                         _______ _______ _______ _____ _____    ______ ____

>  <TORSDO>
F 9

$$$$
=
 OpenBabel11042421073D

 36 40  0  0  1  0  0  0  0  0999 V2000
  161.0110  206.5360  153.0830 C   0  0  0  0  0  0  0  0  0  0  0  0
  161.3600  207.8490  152.9820 N   0  0  0  0  0  0  0  0  0  0  0  0
  161.1660  208.3620  154.2090 C   0  0  0  0  0  0  0  0  0  0  0  0
  160.5840  206.2220  154.3840 C   0  0  0  0  0  3  0  0  0  0  0  0
  160.4500  207.7540  156.3920 C   0  0  0  0  0  0  0  0  0  0  0  0
  161.1670  209.9730  155.9050 C   0  0  0  0  0  3  0  0  0  0  0  0
  160.6880  209.0380  156.7860 N   0  0  0  0  0  0  0  0  0  0  0  0
  160.6970  207.4180  155.0670 C   0  0  0  0  0  0  0  0  0  0  0  0
  160.0210  206.9020  157.2140 O   0  0  0  0  0  0  0  0  0  0  0  0
  161.4130  209.6370  154.6040 N   0  0  0  0  0  2  0  0  0  0  0  0
  161.0850  205.5380  151.9880 C   0  0  0  0  0  0  0  0  0  0  0  0
  160.4890  204.7900  149.7500 C   0  0  0  0  0  3  0  0  0  0  0  0
  161.8300  204.3620  152.1630 C   0  0  0  0  0  3  0  0  0  0  0  0
  160.4100  205.7380  150.7730 C   0  0  0  0  0  3  0  0  0  0  0  0
  161.9130  203.4120  151.1400 C   0  0  0  0  0  3  0  0  0  0  0  0
  161.2480  203.6290  149.9300 C   0  0  0  0  0  0  0  0  0  0  0  0
  161.3250  202.6190  148.8400 C   0  0  0  0  0  2  0  0  0  0  0  0
  160.7070  203.1480  147.6260 N   0  0  0  0  0  2  0  0  0  0  0  0
  161.7260  203.5810  146.6640 C   0  0  0  0  0  3  0  0  0  0  0  0
  162.4030  205.5850  145.5110 C   0  0  0  0  0  2  0  0  0  0  0  0
  161.2470  203.4710  145.2210 C   0  0  0  0  0  2  0  0  0  0  0  0
  161.4430  204.8450  144.6030 C   0  0  0  0  0  2  0  0  0  0  0  0
  162.1700  205.0170  146.8950 C   0  0  0  0  0  2  0  0  0  0  0  0
  161.2460  208.1210  150.5300 C   0  0  0  0  0  2  0  0  0  0  0  0
  161.8840  208.8340  149.3420 C   0  0  0  0  0  2  0  0  0  0  0  0
  161.9060  210.0470  152.0200 C   0  0  0  0  0  2  0  0  0  0  0  0
  161.9470  208.5300  151.8280 C   0  0  1  0  0  3  0  0  0  0  0  0
  162.5390  210.7440  150.8210 C   0  0  0  0  0  2  0  0  0  0  0  0
  161.8130  210.3460  149.5350 C   0  0  1  0  0  3  0  0  0  0  0  0
  162.4480  211.0390  148.3400 C   0  0  0  0  0  2  0  0  0  0  0  0
  162.3530  212.4820  148.4880 N   0  0  0  0  0  2  0  0  0  0  0  0
  161.8800  213.0090  147.2160 C   0  0  0  0  0  2  0  0  0  0  0  0
  159.6460  212.2280  146.9530 F   0  0  0  0  0  0  0  0  0  0  0  0
  160.0200  213.8060  148.6800 C   0  0  0  0  0  1  0  0  0  0  0  0
  160.0950  214.4510  146.3010 C   0  0  0  0  0  1  0  0  0  0  0  0
  160.3960  213.3410  147.2850 C   0  0  0  0  0  0  0  0  0  0  0  0
  1  4  2  0  0  0  0
  2  1  1  0  0  0  0
  2  3  1  0  0  0  0
  3 10  1  0  0  0  0
  3  8  2  0  0  0  0
  4  8  1  0  0  0  0
  5  7  1  0  0  0  0
  5  9  2  0  0  0  0
  6  7  2  0  0  0  0
  8  5  1  0  0  0  0
 10  6  1  0  0  0  0
 11 13  1  0  0  0  0
 11  1  1  0  0  0  0
 12 16  2  0  0  0  0
 12 14  1  0  0  0  0
 14 11  2  0  0  0  0
 15 13  2  0  0  0  0
 16 15  1  0  0  0  0
 17 16  1  0  0  0  0
 18 17  1  0  0  0  0
 19 23  1  0  0  0  0
 19 18  1  0  0  0  0
 20 23  1  0  0  0  0
 21 19  1  0  0  0  0
 22 21  1  0  0  0  0
 22 20  1  0  0  0  0
 25 29  1  0  0  0  0
 25 24  1  0  0  0  0
 27 24  1  6  0  0  0
 27 26  1  0  0  0  0
 27  2  1  0  0  0  0
 28 26  1  0  0  0  0
 29 30  1  6  0  0  0
 29 28  1  0  0  0  0
 30 31  1  0  0  0  0
 32 36  1  0  0  0  0
 32 31  1  0  0  0  0
 33 36  1  0  0  0  0
 35 36  1  0  0  0  0
 36 34  1  0  0  0  0
M  END
>  <MODEL>
3

>  <REMARK>
 VINA RESULT:      -6.4      2.673      7.604
  Name = 
  9 active torsions:
  status: ('A' for Active; 'I' for Inactive)
    1  A    between atoms: C_1  and  C_3
    2  A    between atoms: N_2  and  C_20
    3  A    between atoms: N_4  and  C_10
    4  A    between atoms: N_4  and  C_15
    5  A    between atoms: C_8  and  N_27
    6  A    between atoms: C_8  and  C_33
    7  A    between atoms: C_10  and  C_34
    8  A    between atoms: C_24  and  N_27
    9  A    between atoms: C_24  and  C_36
                            x       y       z     vdW  Elec       q    Type
                         _______ _______ _______ _____ _____    ______ ____

>  <TORSDO>
F 9

$$$$
=
 OpenBabel11042421073D

 36 40  0  0  1  0  0  0  0  0999 V2000
  161.4870  206.9920  150.1590 C   0  0  0  0  0  0  0  0  0  0  0  0
  161.3250  206.5370  151.4340 N   0  0  0  0  0  0  0  0  0  0  0  0
  161.1460  205.2110  151.3150 C   0  0  0  0  0  0  0  0  0  0  0  0
  161.4000  205.9420  149.2300 C   0  0  0  0  0  3  0  0  0  0  0  0
  161.0280  203.4840  149.6870 C   0  0  0  0  0  0  0  0  0  0  0  0
  160.8220  203.0010  152.0110 C   0  0  0  0  0  3  0  0  0  0  0  0
  160.8470  202.5910  150.7030 N   0  0  0  0  0  2  0  0  0  0  0  0
  161.1790  204.8250  150.0120 C   0  0  0  0  0  0  0  0  0  0  0  0
  161.0600  203.0920  148.4910 O   0  0  0  0  0  0  0  0  0  0  0  0
  160.9760  204.3220  152.3260 N   0  0  0  0  0  0  0  0  0  0  0  0
  161.7500  208.4010  149.7740 C   0  0  0  0  0  0  0  0  0  0  0  0
  162.3300  210.6910  150.3570 C   0  0  0  0  0  3  0  0  0  0  0  0
  161.6510  208.7880  148.4290 C   0  0  0  0  0  3  0  0  0  0  0  0
  162.0850  209.3680  150.7340 C   0  0  0  0  0  3  0  0  0  0  0  0
  161.8980  210.1100  148.0480 C   0  0  0  0  0  3  0  0  0  0  0  0
  162.2450  211.0610  149.0120 C   0  0  0  0  0  0  0  0  0  0  0  0
  162.5010  212.4720  148.6160 C   0  0  0  0  0  2  0  0  0  0  0  0
  161.2820  213.2630  148.7750 N   0  0  0  0  0  2  0  0  0  0  0  0
  160.7580  213.6890  147.4730 C   0  0  0  0  0  3  0  0  0  0  0  0
  159.9320  212.7040  145.4360 C   0  0  0  0  0  2  0  0  0  0  0  0
  161.8530  213.8160  146.4190 C   0  0  0  0  0  2  0  0  0  0  0  0
  161.4140  212.9530  145.2470 C   0  0  0  0  0  2  0  0  0  0  0  0
  159.7030  212.7370  146.9320 C   0  0  0  0  0  2  0  0  0  0  0  0
  160.4560  208.4630  152.7120 C   0  0  0  0  0  2  0  0  0  0  0  0
  160.6160  209.2480  154.0110 C   0  0  0  0  0  2  0  0  0  0  0  0
  161.2720  206.3850  153.8880 C   0  0  0  0  0  2  0  0  0  0  0  0
  161.4500  207.3000  152.6760 C   0  0  1  0  0  3  0  0  0  0  0  0
  161.4250  207.1870  155.1760 C   0  0  0  0  0  2  0  0  0  0  0  0
  160.4090  208.3290  155.2120 C   0  0  1  0  0  3  0  0  0  0  0  0
  160.5670  209.1300  156.4940 C   0  0  0  0  0  2  0  0  0  0  0  0
  160.4660  210.5530  156.2140 N   0  0  0  0  0  2  0  0  0  0  0  0
  159.3140  211.0500  156.9510 C   0  0  0  0  0  2  0  0  0  0  0  0
  157.6590  210.3570  155.3870 F   0  0  0  0  0  0  0  0  0  0  0  0
  157.1140  212.2150  156.7520 C   0  0  0  0  0  1  0  0  0  0  0  0
  158.7800  212.3840  154.9410 C   0  0  0  0  0  1  0  0  0  0  0  0
  158.2020  211.4700  156.0000 C   0  0  0  0  0  0  0  0  0  0  0  0
  1  2  1  0  0  0  0
  3  2  1  0  0  0  0
  3 10  1  0  0  0  0
  4  8  1  0  0  0  0
  4  1  2  0  0  0  0
  5  8  1  0  0  0  0
  5  7  1  0  0  0  0
  6 10  2  0  0  0  0
  7  6  1  0  0  0  0
  8  3  2  0  0  0  0
  9  5  2  0  0  0  0
 11  1  1  0  0  0  0
 11 14  1  0  0  0  0
 12 14  2  0  0  0  0
 13 11  2  0  0  0  0
 15 13  1  0  0  0  0
 15 16  2  0  0  0  0
 16 12  1  0  0  0  0
 17 18  1  0  0  0  0
 17 16  1  0  0  0  0
 19 18  1  0  0  0  0
 20 23  1  0  0  0  0
 21 19  1  0  0  0  0
 22 20  1  0  0  0  0
 22 21  1  0  0  0  0
 23 19  1  0  0  0  0
 24 25  1  0  0  0  0
 25 29  1  0  0  0  0
 26 28  1  0  0  0  0
 27  2  1  6  0  0  0
 27 24  1  0  0  0  0
 27 26  1  0  0  0  0
 28 29  1  0  0  0  0
 29 30  1  1  0  0  0
 31 30  1  0  0  0  0
 31 32  1  0  0  0  0
 33 36  1  0  0  0  0
 35 36  1  0  0  0  0
 36 34  1  0  0  0  0
 36 32  1  0  0  0  0
M  END
>  <MODEL>
4

>  <REMARK>
 VINA RESULT:      -6.4      3.481      6.804
  Name = 
  9 active torsions:
  status: ('A' for Active; 'I' for Inactive)
    1  A    between atoms: C_1  and  C_3
    2  A    between atoms: N_2  and  C_20
    3  A    between atoms: N_4  and  C_10
    4  A    between atoms: N_4  and  C_15
    5  A    between atoms: C_8  and  N_27
    6  A    between atoms: C_8  and  C_33
    7  A    between atoms: C_10  and  C_34
    8  A    between atoms: C_24  and  N_27
    9  A    between atoms: C_24  and  C_36
                            x       y       z     vdW  Elec       q    Type
                         _______ _______ _______ _____ _____    ______ ____

>  <TORSDO>
F 9

$$$$
=
 OpenBabel11042421073D

 36 40  0  0  1  0  0  0  0  0999 V2000
  160.8310  207.8770  153.0150 C   0  0  0  0  0  0  0  0  0  0  0  0
  160.4590  209.1690  153.2370 N   0  0  0  0  0  0  0  0  0  0  0  0
  160.5310  209.3330  154.5690 C   0  0  0  0  0  0  0  0  0  0  0  0
  161.1320  207.2200  154.2190 C   0  0  0  0  0  3  0  0  0  0  0  0
  161.0730  208.1620  156.5650 C   0  0  0  0  0  0  0  0  0  0  0  0
  160.4240  210.4540  156.6190 C   0  0  0  0  0  3  0  0  0  0  0  0
  160.8130  209.3070  157.2610 N   0  0  0  0  0  0  0  0  0  0  0  0
  160.9240  208.1870  155.1840 C   0  0  0  0  0  0  0  0  0  0  0  0
  161.4410  207.1190  157.1650 O   0  0  0  0  0  0  0  0  0  0  0  0
  160.2830  210.4740  155.2600 N   0  0  0  0  0  2  0  0  0  0  0  0
  160.9400  207.2290  151.6850 C   0  0  0  0  0  0  0  0  0  0  0  0
  160.9800  207.3560  149.2550 C   0  0  0  0  0  3  0  0  0  0  0  0
  161.0990  205.8370  151.5960 C   0  0  0  0  0  3  0  0  0  0  0  0
  160.8750  207.9800  150.5000 C   0  0  0  0  0  3  0  0  0  0  0  0
  161.2060  205.2110  150.3510 C   0  0  0  0  0  3  0  0  0  0  0  0
  161.1540  205.9710  149.1790 C   0  0  0  0  0  0  0  0  0  0  0  0
  161.2580  205.3110  147.8500 C   0  0  0  0  0  2  0  0  0  0  0  0
  161.9180  204.0140  147.9900 N   0  0  0  0  0  2  0  0  0  0  0  0
  160.9340  202.9290  148.0600 C   0  0  0  0  0  3  0  0  0  0  0  0
  160.6550  200.7960  149.1430 C   0  0  0  0  0  2  0  0  0  0  0  0
  161.1900  201.8430  147.0200 C   0  0  0  0  0  2  0  0  0  0  0  0
  161.2770  200.5340  147.7870 C   0  0  0  0  0  2  0  0  0  0  0  0
  160.9010  202.2620  149.4260 C   0  0  0  0  0  2  0  0  0  0  0  0
  159.0920  211.1640  152.7370 C   0  0  0  0  0  2  0  0  0  0  0  0
  158.8010  212.2190  151.6740 C   0  0  0  0  0  2  0  0  0  0  0  0
  161.4470  210.9500  151.8570 C   0  0  0  0  0  2  0  0  0  0  0  0
  160.1700  210.1990  152.2390 C   0  0  1  0  0  3  0  0  0  0  0  0
  161.1370  212.0060  150.8020 C   0  0  0  0  0  2  0  0  0  0  0  0
  160.0770  212.9780  151.3220 C   0  0  1  0  0  3  0  0  0  0  0  0
  159.7670  214.0270  150.2660 C   0  0  0  0  0  2  0  0  0  0  0  0
  159.0630  213.4210  149.1480 N   0  0  0  0  0  2  0  0  0  0  0  0
  159.3630  214.2230  147.9720 C   0  0  0  0  0  2  0  0  0  0  0  0
  161.7370  214.0470  147.9880 F   0  0  0  0  0  0  0  0  0  0  0  0
  160.5440  212.1970  147.1120 C   0  0  0  0  0  1  0  0  0  0  0  0
  160.6930  214.3360  145.8920 C   0  0  0  0  0  1  0  0  0  0  0  0
  160.6090  213.7050  147.2660 C   0  0  0  0  0  0  0  0  0  0  0  0
  1  2  1  0  0  0  0
  1  4  2  0  0  0  0
  2  3  1  0  0  0  0
  3  8  2  0  0  0  0
  3 10  1  0  0  0  0
  4  8  1  0  0  0  0
  5  9  2  0  0  0  0
  5  7  1  0  0  0  0
  6  7  2  0  0  0  0
  8  5  1  0  0  0  0
 10  6  1  0  0  0  0
 11  1  1  0  0  0  0
 12 14  1  0  0  0  0
 13 11  1  0  0  0  0
 14 11  2  0  0  0  0
 15 13  2  0  0  0  0
 16 12  2  0  0  0  0
 16 15  1  0  0  0  0
 17 18  1  0  0  0  0
 17 16  1  0  0  0  0
 18 19  1  0  0  0  0
 19 23  1  0  0  0  0
 20 23  1  0  0  0  0
 21 22  1  0  0  0  0
 21 19  1  0  0  0  0
 22 20  1  0  0  0  0
 25 24  1  0  0  0  0
 27 26  1  1  0  0  0
 27 24  1  0  0  0  0
 27  2  1  0  0  0  0
 28 29  1  0  0  0  0
 28 26  1  0  0  0  0
 29 30  1  6  0  0  0
 29 25  1  0  0  0  0
 31 30  1  0  0  0  0
 32 31  1  0  0  0  0
 34 36  1  0  0  0  0
 35 36  1  0  0  0  0
 36 32  1  0  0  0  0
 36 33  1  0  0  0  0
M  END
>  <MODEL>
5

>  <REMARK>
 VINA RESULT:      -6.4      2.866      8.315
  Name = 
  9 active torsions:
  status: ('A' for Active; 'I' for Inactive)
    1  A    between atoms: C_1  and  C_3
    2  A    between atoms: N_2  and  C_20
    3  A    between atoms: N_4  and  C_10
    4  A    between atoms: N_4  and  C_15
    5  A    between atoms: C_8  and  N_27
    6  A    between atoms: C_8  and  C_33
    7  A    between atoms: C_10  and  C_34
    8  A    between atoms: C_24  and  N_27
    9  A    between atoms: C_24  and  C_36
                            x       y       z     vdW  Elec       q    Type
                         _______ _______ _______ _____ _____    ______ ____

>  <TORSDO>
F 9

$$$$
=
 OpenBabel11042421073D

 36 40  0  0  1  0  0  0  0  0999 V2000
  161.0630  206.3310  151.9560 C   0  0  0  0  0  0  0  0  0  0  0  0
  161.2450  206.7210  150.6630 N   0  0  0  0  0  0  0  0  0  0  0  0
  161.2570  205.5820  149.9490 C   0  0  0  0  0  0  0  0  0  0  0  0
  160.9690  204.9330  152.0570 C   0  0  0  0  0  3  0  0  0  0  0  0
  161.0730  203.2260  150.1950 C   0  0  0  0  0  0  0  0  0  0  0  0
  161.3560  204.2220  148.0490 C   0  0  0  0  0  3  0  0  0  0  0  0
  161.2050  203.1130  148.8410 N   0  0  0  0  0  0  0  0  0  0  0  0
  161.1020  204.4970  150.7530 C   0  0  0  0  0  0  0  0  0  0  0  0
  160.9240  202.2010  150.9090 O   0  0  0  0  0  0  0  0  0  0  0  0
  161.3800  205.4710  148.6020 N   0  0  0  0  0  2  0  0  0  0  0  0
  160.9480  207.2410  153.1220 C   0  0  0  0  0  0  0  0  0  0  0  0
  161.0980  207.6580  155.5150 C   0  0  0  0  0  3  0  0  0  0  0  0
  160.5590  208.5750  152.9330 C   0  0  0  0  0  3  0  0  0  0  0  0
  161.2100  206.7910  154.4260 C   0  0  0  0  0  3  0  0  0  0  0  0
  160.4490  209.4470  154.0200 C   0  0  0  0  0  3  0  0  0  0  0  0
  160.7250  208.9900  155.3120 C   0  0  0  0  0  0  0  0  0  0  0  0
  160.6020  209.9090  156.4750 C   0  0  0  0  0  2  0  0  0  0  0  0
  160.9300  211.2740  156.0690 N   0  0  0  0  0  2  0  0  0  0  0  0
  159.7800  212.1660  156.2470 C   0  0  0  0  0  3  0  0  0  0  0  0
  157.3750  212.0690  156.1710 C   0  0  0  0  0  2  0  0  0  0  0  0
  159.3300  212.8050  154.9380 C   0  0  0  0  0  2  0  0  0  0  0  0
  157.8520  212.4840  154.7950 C   0  0  0  0  0  2  0  0  0  0  0  0
  158.5790  211.4530  156.8500 C   0  0  0  0  0  2  0  0  0  0  0  0
  162.3180  208.9330  150.8870 C   0  0  0  0  0  2  0  0  0  0  0  0
  162.3310  210.3550  150.3310 C   0  0  0  0  0  2  0  0  0  0  0  0
  161.5620  208.0790  148.6360 C   0  0  0  0  0  2  0  0  0  0  0  0
  161.2850  208.0870  150.1400 C   0  0  1  0  0  3  0  0  0  0  0  0
  161.5810  209.5060  148.1000 C   0  0  0  0  0  2  0  0  0  0  0  0
  162.6360  210.3340  148.8360 C   0  0  1  0  0  3  0  0  0  0  0  0
  162.6490  211.7570  148.3020 C   0  0  0  0  0  2  0  0  0  0  0  0
  161.3050  212.3100  148.3140 N   0  0  0  0  0  2  0  0  0  0  0  0
  161.3060  213.4500  147.4100 C   0  0  0  0  0  2  0  0  0  0  0  0
  160.0810  211.8280  146.1710 F   0  0  0  0  0  0  0  0  0  0  0  0
  159.4550  214.0920  145.8610 C   0  0  0  0  0  1  0  0  0  0  0  0
  161.5730  213.2020  144.9660 C   0  0  0  0  0  1  0  0  0  0  0  0
  160.5870  213.1130  146.1110 C   0  0  0  0  0  0  0  0  0  0  0  0
  1  4  2  0  0  0  0
  1 11  1  0  0  0  0
  2  1  1  0  0  0  0
  3  2  1  0  0  0  0
  3  8  2  0  0  0  0
  5  8  1  0  0  0  0
  5  9  2  0  0  0  0
  6 10  1  0  0  0  0
  6  7  2  0  0  0  0
  7  5  1  0  0  0  0
  8  4  1  0  0  0  0
 10  3  1  0  0  0  0
 11 14  1  0  0  0  0
 13 11  2  0  0  0  0
 13 15  1  0  0  0  0
 14 12  2  0  0  0  0
 15 16  2  0  0  0  0
 16 12  1  0  0  0  0
 16 17  1  0  0  0  0
 18 19  1  0  0  0  0
 18 17  1  0  0  0  0
 19 23  1  0  0  0  0
 20 23  1  0  0  0  0
 21 19  1  0  0  0  0
 22 21  1  0  0  0  0
 22 20  1  0  0  0  0
 25 24  1  0  0  0  0
 27 26  1  6  0  0  0
 27  2  1  0  0  0  0
 27 24  1  0  0  0  0
 28 26  1  0  0  0  0
 28 29  1  0  0  0  0
 29 30  1  6  0  0  0
 29 25  1  0  0  0  0
 30 31  1  0  0  0  0
 32 31  1  0  0  0  0
 34 36  1  0  0  0  0
 35 36  1  0  0  0  0
 36 33  1  0  0  0  0
 36 32  1  0  0  0  0
M  END
>  <MODEL>
6

>  <REMARK>
 VINA RESULT:      -6.2      3.375      8.116
  Name = 
  9 active torsions:
  status: ('A' for Active; 'I' for Inactive)
    1  A    between atoms: C_1  and  C_3
    2  A    between atoms: N_2  and  C_20
    3  A    between atoms: N_4  and  C_10
    4  A    between atoms: N_4  and  C_15
    5  A    between atoms: C_8  and  N_27
    6  A    between atoms: C_8  and  C_33
    7  A    between atoms: C_10  and  C_34
    8  A    between atoms: C_24  and  N_27
    9  A    between atoms: C_24  and  C_36
                            x       y       z     vdW  Elec       q    Type
                         _______ _______ _______ _____ _____    ______ ____

>  <TORSDO>
F 9

$$$$
=
 OpenBabel11042421073D

 36 40  0  0  1  0  0  0  0  0999 V2000
  161.0580  206.6880  152.9870 C   0  0  0  0  0  0  0  0  0  0  0  0
  160.9960  207.7870  152.1820 N   0  0  0  0  0  0  0  0  0  0  0  0
  160.9120  208.8340  153.0190 C   0  0  0  0  0  0  0  0  0  0  0  0
  161.0030  207.0490  154.3430 C   0  0  0  0  0  3  0  0  0  0  0  0
  160.8410  209.3700  155.3330 C   0  0  0  0  0  0  0  0  0  0  0  0
  160.7930  211.0770  153.6710 C   0  0  0  0  0  3  0  0  0  0  0  0
  160.7810  210.6880  154.9860 N   0  0  0  0  0  0  0  0  0  0  0  0
  160.9070  208.4270  154.3160 C   0  0  0  0  0  0  0  0  0  0  0  0
  160.8420  209.0280  156.5440 O   0  0  0  0  0  0  0  0  0  0  0  0
  160.8610  210.1460  152.6740 N   0  0  0  0  0  2  0  0  0  0  0  0
  161.1930  205.2860  152.5220 C   0  0  0  0  0  0  0  0  0  0  0  0
  162.5280  203.4700  151.6050 C   0  0  0  0  0  3  0  0  0  0  0  0
  160.0810  204.4300  152.5500 C   0  0  0  0  0  3  0  0  0  0  0  0
  162.4150  204.7930  152.0390 C   0  0  0  0  0  3  0  0  0  0  0  0
  160.1910  203.1050  152.1180 C   0  0  0  0  0  3  0  0  0  0  0  0
  161.4180  202.6220  151.6520 C   0  0  0  0  0  0  0  0  0  0  0  0
  161.5410  201.2150  151.1840 C   0  0  0  0  0  2  0  0  0  0  0  0
  160.5860  200.9640  150.1070 N   0  0  0  0  0  2  0  0  0  0  0  0
  161.1450  201.3510  148.8080 C   0  0  0  0  0  3  0  0  0  0  0  0
  160.5120  201.3550  146.4840 C   0  0  0  0  0  2  0  0  0  0  0  0
  161.8790  200.2030  148.1240 C   0  0  0  0  0  2  0  0  0  0  0  0
  161.2570  200.0620  146.7450 C   0  0  0  0  0  2  0  0  0  0  0  0
  160.0830  201.8580  147.8450 C   0  0  0  0  0  2  0  0  0  0  0  0
  162.5950  207.9400  150.3060 C   0  0  0  0  0  2  0  0  0  0  0  0
  162.7020  208.0000  148.7850 C   0  0  0  0  0  2  0  0  0  0  0  0
  160.4590  206.6150  150.0860 C   0  0  0  0  0  2  0  0  0  0  0  0
  161.1270  207.8330  150.7250 C   0  0  1  0  0  3  0  0  0  0  0  0
  160.5840  206.6860  148.5680 C   0  0  0  0  0  2  0  0  0  0  0  0
  162.0560  206.7660  148.1620 C   0  0  1  0  0  3  0  0  0  0  0  0
  162.1770  206.8410  146.6490 C   0  0  0  0  0  2  0  0  0  0  0  0
  162.6990  205.5900  146.1240 N   0  0  0  0  0  2  0  0  0  0  0  0
  161.5800  204.6630  146.0410 C   0  0  0  0  0  2  0  0  0  0  0  0
  159.8120  206.0490  145.2530 F   0  0  0  0  0  0  0  0  0  0  0  0
  161.4750  205.4540  143.6750 C   0  0  0  0  0  1  0  0  0  0  0  0
  159.8390  203.8090  144.5110 C   0  0  0  0  0  1  0  0  0  0  0  0
  160.6620  205.0240  144.8810 C   0  0  0  0  0  0  0  0  0  0  0  0
  1  4  2  0  0  0  0
  2  1  1  0  0  0  0
  2  3  1  0  0  0  0
  3  8  2  0  0  0  0
  5  9  2  0  0  0  0
  6  7  2  0  0  0  0
  7  5  1  0  0  0  0
  8  4  1  0  0  0  0
  8  5  1  0  0  0  0
 10  3  1  0  0  0  0
 10  6  1  0  0  0  0
 11 13  1  0  0  0  0
 11  1  1  0  0  0  0
 12 16  2  0  0  0  0
 12 14  1  0  0  0  0
 14 11  2  0  0  0  0
 15 13  2  0  0  0  0
 16 15  1  0  0  0  0
 17 16  1  0  0  0  0
 18 17  1  0  0  0  0
 19 18  1  0  0  0  0
 20 22  1  0  0  0  0
 20 23  1  0  0  0  0
 21 19  1  0  0  0  0
 22 21  1  0  0  0  0
 23 19  1  0  0  0  0
 24 27  1  0  0  0  0
 25 24  1  0  0  0  0
 27 26  1  6  0  0  0
 27  2  1  0  0  0  0
 28 26  1  0  0  0  0
 29 30  1  6  0  0  0
 29 28  1  0  0  0  0
 29 25  1  0  0  0  0
 31 30  1  0  0  0  0
 32 31  1  0  0  0  0
 34 36  1  0  0  0  0
 35 36  1  0  0  0  0
 36 33  1  0  0  0  0
 36 32  1  0  0  0  0
M  END
>  <MODEL>
7

>  <REMARK>
 VINA RESULT:      -6.0      3.808      7.287
  Name = 
  9 active torsions:
  status: ('A' for Active; 'I' for Inactive)
    1  A    between atoms: C_1  and  C_3
    2  A    between atoms: N_2  and  C_20
    3  A    between atoms: N_4  and  C_10
    4  A    between atoms: N_4  and  C_15
    5  A    between atoms: C_8  and  N_27
    6  A    between atoms: C_8  and  C_33
    7  A    between atoms: C_10  and  C_34
    8  A    between atoms: C_24  and  N_27
    9  A    between atoms: C_24  and  C_36
                            x       y       z     vdW  Elec       q    Type
                         _______ _______ _______ _____ _____    ______ ____

>  <TORSDO>
F 9

$$$$
=
 OpenBabel11042421073D

 36 40  0  0  1  0  0  0  0  0999 V2000
  161.2180  205.6460  150.5310 C   0  0  0  0  0  0  0  0  0  0  0  0
  161.3460  206.4360  149.4280 N   0  0  0  0  0  0  0  0  0  0  0  0
  161.3800  205.5870  148.3870 C   0  0  0  0  0  0  0  0  0  0  0  0
  161.1800  204.2860  150.1800 C   0  0  0  0  0  3  0  0  0  0  0  0
  161.2920  203.2700  147.8670 C   0  0  0  0  0  0  0  0  0  0  0  0
  161.4730  204.9110  146.1490 C   0  0  0  0  0  3  0  0  0  0  0  0
  161.3880  203.6010  146.5480 N   0  0  0  0  0  2  0  0  0  0  0  0
  161.2900  204.2960  148.8030 C   0  0  0  0  0  0  0  0  0  0  0  0
  161.2030  202.0640  148.2180 O   0  0  0  0  0  0  0  0  0  0  0  0
  161.4660  205.9170  147.0730 N   0  0  0  0  0  0  0  0  0  0  0  0
  161.1040  206.1300  151.9280 C   0  0  0  0  0  0  0  0  0  0  0  0
  160.7250  207.9180  153.5350 C   0  0  0  0  0  3  0  0  0  0  0  0
  161.2840  205.2350  152.9950 C   0  0  0  0  0  3  0  0  0  0  0  0
  160.8300  207.4770  152.2140 C   0  0  0  0  0  3  0  0  0  0  0  0
  161.1760  205.6730  154.3180 C   0  0  0  0  0  3  0  0  0  0  0  0
  160.8900  207.0150  154.5890 C   0  0  0  0  0  0  0  0  0  0  0  0
  160.7830  207.4900  155.9940 C   0  0  0  0  0  2  0  0  0  0  0  0
  159.5810  208.3070  156.1540 N   0  0  0  0  0  2  0  0  0  0  0  0
  159.9260  209.6780  156.5430 C   0  0  0  0  0  3  0  0  0  0  0  0
  160.4480  211.7870  155.5030 C   0  0  0  0  0  2  0  0  0  0  0  0
  161.4320  209.8900  156.6530 C   0  0  0  0  0  2  0  0  0  0  0  0
  161.7600  211.0750  155.7590 C   0  0  0  0  0  2  0  0  0  0  0  0
  159.3840  210.7130  155.5700 C   0  0  0  0  0  2  0  0  0  0  0  0
  162.3400  208.5080  150.3330 C   0  0  0  0  0  2  0  0  0  0  0  0
  162.2820  210.0310  150.2620 C   0  0  0  0  0  2  0  0  0  0  0  0
  161.5540  208.3830  147.9380 C   0  0  0  0  0  2  0  0  0  0  0  0
  161.3190  207.8980  149.3690 C   0  0  1  0  0  3  0  0  0  0  0  0
  161.5030  209.9060  147.8870 C   0  0  0  0  0  2  0  0  0  0  0  0
  162.5460  210.5020  148.8340 C   0  0  1  0  0  3  0  0  0  0  0  0
  162.4890  212.0210  148.7840 C   0  0  0  0  0  2  0  0  0  0  0  0
  162.5370  212.4800  147.4060 N   0  0  0  0  0  2  0  0  0  0  0  0
  161.3910  213.3540  147.2090 C   0  0  0  0  0  2  0  0  0  0  0  0
  160.2020  212.0970  145.5740 F   0  0  0  0  0  0  0  0  0  0  0  0
  159.9820  214.4530  145.4640 C   0  0  0  0  0  1  0  0  0  0  0  0
  162.0800  213.3200  144.8370 C   0  0  0  0  0  1  0  0  0  0  0  0
  160.8910  213.2790  145.7730 C   0  0  0  0  0  0  0  0  0  0  0  0
  1 11  1  0  0  0  0
  2  1  1  0  0  0  0
  3  8  2  0  0  0  0
  3  2  1  0  0  0  0
  4  1  2  0  0  0  0
  5  9  2  0  0  0  0
  5  8  1  0  0  0  0
  6  7  1  0  0  0  0
  6 10  2  0  0  0  0
  7  5  1  0  0  0  0
  8  4  1  0  0  0  0
 10  3  1  0  0  0  0
 11 14  2  0  0  0  0
 11 13  1  0  0  0  0
 12 16  2  0  0  0  0
 13 15  2  0  0  0  0
 14 12  1  0  0  0  0
 15 16  1  0  0  0  0
 16 17  1  0  0  0  0
 17 18  1  0  0  0  0
 18 19  1  0  0  0  0
 19 21  1  0  0  0  0
 20 23  1  0  0  0  0
 20 22  1  0  0  0  0
 22 21  1  0  0  0  0
 23 19  1  0  0  0  0
 25 24  1  0  0  0  0
 27 26  1  6  0  0  0
 27  2  1  0  0  0  0
 27 24  1  0  0  0  0
 28 26  1  0  0  0  0
 28 29  1  0  0  0  0
 29 30  1  1  0  0  0
 29 25  1  0  0  0  0
 31 30  1  0  0  0  0
 32 31  1  0  0  0  0
 33 36  1  0  0  0  0
 34 36  1  0  0  0  0
 35 36  1  0  0  0  0
 36 32  1  0  0  0  0
M  END
>  <MODEL>
8

>  <REMARK>
 VINA RESULT:      -6.0      3.126      8.595
  Name = 
  9 active torsions:
  status: ('A' for Active; 'I' for Inactive)
    1  A    between atoms: C_1  and  C_3
    2  A    between atoms: N_2  and  C_20
    3  A    between atoms: N_4  and  C_10
    4  A    between atoms: N_4  and  C_15
    5  A    between atoms: C_8  and  N_27
    6  A    between atoms: C_8  and  C_33
    7  A    between atoms: C_10  and  C_34
    8  A    between atoms: C_24  and  N_27
    9  A    between atoms: C_24  and  C_36
                            x       y       z     vdW  Elec       q    Type
                         _______ _______ _______ _____ _____    ______ ____

>  <TORSDO>
F 9

$$$$
=
 OpenBabel11042421073D

 36 40  0  0  1  0  0  0  0  0999 V2000
  161.0350  204.9680  150.9980 C   0  0  0  0  0  0  0  0  0  0  0  0
  161.4800  205.2100  149.7320 N   0  0  0  0  0  0  0  0  0  0  0  0
  161.2830  204.0620  149.0630 C   0  0  0  0  0  0  0  0  0  0  0  0
  160.5620  203.6520  151.1270 C   0  0  0  0  0  3  0  0  0  0  0  0
  160.4510  201.8540  149.3520 C   0  0  0  0  0  0  0  0  0  0  0  0
  161.2640  202.5980  147.2390 C   0  0  0  0  0  3  0  0  0  0  0  0
  160.7240  201.6210  148.0360 N   0  0  0  0  0  0  0  0  0  0  0  0
  160.7430  203.1100  149.8690 C   0  0  0  0  0  0  0  0  0  0  0  0
  159.9450  200.9530  150.0690 O   0  0  0  0  0  0  0  0  0  0  0  0
  161.5450  203.8320  147.7510 N   0  0  0  0  0  2  0  0  0  0  0  0
  161.0150  205.9530  152.1070 C   0  0  0  0  0  0  0  0  0  0  0  0
  161.3640  206.5270  154.4460 C   0  0  0  0  0  3  0  0  0  0  0  0
  160.6050  207.2730  151.8630 C   0  0  0  0  0  3  0  0  0  0  0  0
  161.3870  205.5890  153.4110 C   0  0  0  0  0  3  0  0  0  0  0  0
  160.5830  208.2140  152.8970 C   0  0  0  0  0  3  0  0  0  0  0  0
  160.9690  207.8430  154.1880 C   0  0  0  0  0  0  0  0  0  0  0  0
  160.9400  208.8370  155.2940 C   0  0  0  0  0  2  0  0  0  0  0  0
  161.5020  210.1070  154.8380 N   0  0  0  0  0  2  0  0  0  0  0  0
  160.4890  211.1670  154.8590 C   0  0  0  0  0  3  0  0  0  0  0  0
  158.1070  211.4110  154.5990 C   0  0  0  0  0  2  0  0  0  0  0  0
  160.2300  211.7530  153.4750 C   0  0  0  0  0  2  0  0  0  0  0  0
  158.7340  211.6380  153.2380 C   0  0  0  0  0  2  0  0  0  0  0  0
  159.1560  210.6870  155.4140 C   0  0  0  0  0  2  0  0  0  0  0  0
  160.8320  207.1910  148.4070 C   0  0  0  0  0  2  0  0  0  0  0  0
  161.3490  208.5060  147.8300 C   0  0  0  0  0  2  0  0  0  0  0  0
  162.5060  207.3760  150.2860 C   0  0  0  0  0  2  0  0  0  0  0  0
  161.9470  206.4810  149.1790 C   0  0  1  0  0  3  0  0  0  0  0  0
  163.0090  208.6890  149.6940 C   0  0  0  0  0  2  0  0  0  0  0  0
  161.8790  209.3990  148.9490 C   0  0  1  0  0  3  0  0  0  0  0  0
  162.3840  210.7050  148.3560 C   0  0  0  0  0  2  0  0  0  0  0  0
  161.4800  211.7920  148.6940 N   0  0  0  0  0  2  0  0  0  0  0  0
  160.8780  212.2470  147.4500 C   0  0  0  0  0  2  0  0  0  0  0  0
  160.2540  214.4000  146.6490 F   0  0  0  0  0  0  0  0  0  0  0  0
  161.9100  214.3380  148.3420 C   0  0  0  0  0  1  0  0  0  0  0  0
  162.3880  213.5990  146.0380 C   0  0  0  0  0  1  0  0  0  0  0  0
  161.3260  213.6620  147.1150 C   0  0  0  0  0  0  0  0  0  0  0  0
  1  4  2  0  0  0  0
  1 11  1  0  0  0  0
  2  1  1  0  0  0  0
  3  2  1  0  0  0  0
  3  8  2  0  0  0  0
  5  8  1  0  0  0  0
  5  9  2  0  0  0  0
  6 10  1  0  0  0  0
  6  7  2  0  0  0  0
  7  5  1  0  0  0  0
  8  4  1  0  0  0  0
 10  3  1  0  0  0  0
 11 14  1  0  0  0  0
 13 11  2  0  0  0  0
 13 15  1  0  0  0  0
 14 12  2  0  0  0  0
 15 16  2  0  0  0  0
 16 12  1  0  0  0  0
 16 17  1  0  0  0  0
 18 19  1  0  0  0  0
 18 17  1  0  0  0  0
 19 23  1  0  0  0  0
 20 23  1  0  0  0  0
 21 19  1  0  0  0  0
 22 21  1  0  0  0  0
 22 20  1  0  0  0  0
 25 24  1  0  0  0  0
 25 29  1  0  0  0  0
 27 24  1  1  0  0  0
 27  2  1  0  0  0  0
 27 26  1  0  0  0  0
 28 26  1  0  0  0  0
 29 30  1  6  0  0  0
 29 28  1  0  0  0  0
 30 31  1  0  0  0  0
 32 31  1  0  0  0  0
 33 36  1  0  0  0  0
 35 36  1  0  0  0  0
 36 32  1  0  0  0  0
 36 34  1  0  0  0  0
M  END
>  <MODEL>
9

>  <REMARK>
 VINA RESULT:      -5.9      3.405      8.125
  Name = 
  9 active torsions:
  status: ('A' for Active; 'I' for Inactive)
    1  A    between atoms: C_1  and  C_3
    2  A    between atoms: N_2  and  C_20
    3  A    between atoms: N_4  and  C_10
    4  A    between atoms: N_4  and  C_15
    5  A    between atoms: C_8  and  N_27
    6  A    between atoms: C_8  and  C_33
    7  A    between atoms: C_10  and  C_34
    8  A    between atoms: C_24  and  N_27
    9  A    between atoms: C_24  and  C_36
                            x       y       z     vdW  Elec       q    Type
                         _______ _______ _______ _____ _____    ______ ____

>  <TORSDO>
F 9

$$$$
