=
 OpenBabel11042423113D

 29 32  0  0  1  0  0  0  0  0999 V2000
  161.2090  209.9710  153.3210 C   0  0  2  0  0  3  0  0  0  0  0  0
  159.7010  209.9000  153.1560 C   0  0  2  0  0  3  0  0  0  0  0  0
  161.3450  211.0150  152.3020 N   0  0  2  0  0  0  0  0  0  0  0  0
  161.9580  208.7430  152.8200 C   0  0  2  0  0  3  0  0  0  0  0  0
  162.1140  208.9100  151.3340 C   0  0  0  0  0  2  0  0  0  0  0  0
  159.8960  210.9900  152.1220 C   0  0  0  0  0  2  0  0  0  0  0  0
  161.9560  210.4050  151.1150 C   0  0  0  0  0  2  0  0  0  0  0  0
  161.1920  207.2820  154.5590 C   0  0  0  0  0  0  0  0  0  0  0  0
  160.9550  207.1630  155.8350 C   0  0  0  0  0  3  0  0  0  0  0  0
  161.4290  207.4050  153.2780 C   0  0  0  0  0  0  0  0  0  0  0  0
  161.2250  204.9360  152.8400 C   0  0  0  0  0  3  0  0  0  0  0  0
  160.9860  203.8560  151.9870 C   0  0  0  0  0  3  0  0  0  0  0  0
  160.6490  205.3880  150.1470 C   0  0  0  0  0  3  0  0  0  0  0  0
  161.1740  206.2580  152.3620 C   0  0  0  0  0  0  0  0  0  0  0  0
  160.4570  203.0110  149.7910 O   0  0  0  0  0  1  0  0  0  0  0  0
  160.6970  204.0820  150.6400 C   0  0  0  0  0  0  0  0  0  0  0  0
  160.8850  206.4670  151.0030 C   0  0  0  0  0  3  0  0  0  0  0  0
  160.9620  208.3690  156.7070 C   0  0  0  0  0  2  0  0  0  0  0  0
  162.3140  210.1740  156.5890 O   0  0  0  0  0  1  0  0  0  0  0  0
  162.3230  208.8490  156.8730 N   0  0  0  0  0  2  0  0  0  0  0  0
  158.8410  209.6650  155.3870 O   0  0  0  0  0  0  0  0  0  0  0  0
  159.0020  210.4120  154.3820 C   0  0  0  0  0  0  0  0  0  0  0  0
  158.2740  214.4530  154.3780 S   0  0  0  0  0  0  0  0  0  0  0  0
  156.8960  213.3750  154.1920 N   0  0  0  0  0  0  0  0  0  0  0  0
  159.3270  212.9890  154.6700 C   0  0  1  0  0  3  0  0  0  0  0  0
  159.8450  212.9910  156.3750 Cl  0  0  0  0  0  0  0  0  0  0  0  0
  157.2220  212.0220  154.1960 N   0  0  0  0  0  0  0  0  0  0  0  0
  158.4720  211.7860  154.4020 C   0  0  0  0  0  0  0  0  0  0  0  0
  155.5360  213.8220  154.4190 C   0  0  0  0  0  1  0  0  0  0  0  0
  2  1  1  0  0  0  0
  2 22  1  0  0  0  0
  3  1  1  0  0  0  0
  4 10  1  0  0  0  0
  4  1  1  0  0  0  0
  5  4  1  0  0  0  0
  6  3  1  0  0  0  0
  6  2  1  0  0  0  0
  7  5  1  0  0  0  0
  7  3  1  0  0  0  0
  8  9  2  0  0  0  0
  9 18  1  0  0  0  0
 10  8  2  0  0  0  0
 12 11  2  0  0  0  0
 13 16  2  0  0  0  0
 13 17  1  0  0  0  0
 14 11  1  0  0  0  0
 14 10  1  0  0  0  0
 15 16  1  0  0  0  0
 16 12  1  0  0  0  0
 17 14  2  0  0  0  0
 18 20  1  0  0  0  0
 19 20  1  0  0  0  0
 22 28  1  0  0  0  0
 22 21  2  0  0  0  0
 23 25  1  0  0  0  0
 24 27  1  0  0  0  0
 24 23  1  0  0  0  0
 24 29  1  0  0  0  0
 25 26  1  0  0  0  0
 27 28  2  0  0  0  0
 28 25  1  0  0  0  0
M  END
>  <MODEL>
1

>  <REMARK>
 VINA RESULT:      -6.2      0.000      0.000
  Name = 
  6 active torsions:
  status: ('A' for Active; 'I' for Inactive)
    1  A    between atoms: C_3  and  C_19
    2  A    between atoms: C_3  and  N_24
    3  A    between atoms: C_6  and  C_9
    4  A    between atoms: C_6  and  C_26
    5  A    between atoms: C_16  and  C_21
    6  A    between atoms: C_17  and  C_21
                            x       y       z     vdW  Elec       q    Type
                         _______ _______ _______ _____ _____    ______ ____

>  <TORSDO>
F 6

$$$$
=
 OpenBabel11042423113D

 29 32  0  0  1  0  0  0  0  0999 V2000
  161.3130  210.8420  153.4660 C   0  0  2  0  0  3  0  0  0  0  0  0
  160.7540  209.5590  152.8740 C   0  0  2  0  0  3  0  0  0  0  0  0
  161.9560  210.1360  154.5770 N   0  0  2  0  0  0  0  0  0  0  0  0
  160.2630  211.7720  154.0620 C   0  0  2  0  0  3  0  0  0  0  0  0
  159.9730  211.2620  155.4460 C   0  0  0  0  0  2  0  0  0  0  0  0
  161.4520  208.8780  154.0340 C   0  0  0  0  0  2  0  0  0  0  0  0
  161.1980  210.4350  155.7970 C   0  0  0  0  0  2  0  0  0  0  0  0
  157.8910  211.7660  153.7200 C   0  0  0  0  0  0  0  0  0  0  0  0
  156.7310  211.4780  154.2390 C   0  0  0  0  0  3  0  0  0  0  0  0
  159.0570  212.0570  153.2010 C   0  0  0  0  0  0  0  0  0  0  0  0
  157.9650  212.9720  151.1260 C   0  0  0  0  0  3  0  0  0  0  0  0
  158.0330  213.5160  149.8420 C   0  0  0  0  0  3  0  0  0  0  0  0
  160.4470  213.3960  149.9210 C   0  0  0  0  0  3  0  0  0  0  0  0
  159.1370  212.6370  151.8300 C   0  0  0  0  0  0  0  0  0  0  0  0
  159.3440  214.2710  147.9640 O   0  0  0  0  0  1  0  0  0  0  0  0
  159.2750  213.7290  149.2390 C   0  0  0  0  0  0  0  0  0  0  0  0
  160.3770  212.8550  151.2080 C   0  0  0  0  0  3  0  0  0  0  0  0
  156.6280  211.1450  155.6860 C   0  0  0  0  0  2  0  0  0  0  0  0
  154.9470  209.7800  155.0450 O   0  0  0  0  0  1  0  0  0  0  0  0
  155.2830  210.6900  155.9920 N   0  0  0  0  0  2  0  0  0  0  0  0
  162.1590  210.0890  151.0000 O   0  0  0  0  0  0  0  0  0  0  0  0
  161.4120  209.2420  151.5630 C   0  0  0  0  0  0  0  0  0  0  0  0
  160.5680  205.3740  150.4730 S   0  0  0  0  0  0  0  0  0  0  0  0
  160.6770  206.5780  149.1940 N   0  0  0  0  0  0  0  0  0  0  0  0
  161.1250  206.6470  151.6600 C   0  0  1  0  0  3  0  0  0  0  0  0
  162.7660  206.2300  152.2140 Cl  0  0  0  0  0  0  0  0  0  0  0  0
  160.9580  207.8650  149.6410 N   0  0  0  0  0  0  0  0  0  0  0  0
  161.1580  207.9460  150.9110 C   0  0  0  0  0  0  0  0  0  0  0  0
  160.8590  206.2070  147.8040 C   0  0  0  0  0  1  0  0  0  0  0  0
  1  4  1  0  0  0  0
  1  3  1  0  0  0  0
  2  1  1  0  0  0  0
  2  6  1  0  0  0  0
  3  7  1  0  0  0  0
  4  5  1  0  0  0  0
  5  7  1  0  0  0  0
  6  3  1  0  0  0  0
  8  9  2  0  0  0  0
  9 18  1  0  0  0  0
 10  8  2  0  0  0  0
 10  4  1  0  0  0  0
 11 14  1  0  0  0  0
 12 11  2  0  0  0  0
 13 17  1  0  0  0  0
 14 10  1  0  0  0  0
 15 16  1  0  0  0  0
 16 12  1  0  0  0  0
 16 13  2  0  0  0  0
 17 14  2  0  0  0  0
 18 20  1  0  0  0  0
 19 20  1  0  0  0  0
 21 22  2  0  0  0  0
 22  2  1  0  0  0  0
 23 25  1  0  0  0  0
 24 27  1  0  0  0  0
 24 23  1  0  0  0  0
 25 26  1  0  0  0  0
 27 28  2  0  0  0  0
 28 22  1  0  0  0  0
 28 25  1  0  0  0  0
 29 24  1  0  0  0  0
M  END
>  <MODEL>
2

>  <REMARK>
 VINA RESULT:      -6.1      3.948      7.086
  Name = 
  6 active torsions:
  status: ('A' for Active; 'I' for Inactive)
    1  A    between atoms: C_3  and  C_19
    2  A    between atoms: C_3  and  N_24
    3  A    between atoms: C_6  and  C_9
    4  A    between atoms: C_6  and  C_26
    5  A    between atoms: C_16  and  C_21
    6  A    between atoms: C_17  and  C_21
                            x       y       z     vdW  Elec       q    Type
                         _______ _______ _______ _____ _____    ______ ____

>  <TORSDO>
F 6

$$$$
=
 OpenBabel11042423113D

 29 32  0  0  1  0  0  0  0  0999 V2000
  160.9880  211.3130  154.4010 C   0  0  2  0  0  3  0  0  0  0  0  0
  160.4210  209.9540  154.0250 C   0  0  2  0  0  3  0  0  0  0  0  0
  161.9310  210.7350  155.3620 N   0  0  2  0  0  0  0  0  0  0  0  0
  160.0290  212.2030  155.1810 C   0  0  2  0  0  3  0  0  0  0  0  0
  160.1140  211.7720  156.6190 C   0  0  0  0  0  2  0  0  0  0  0  0
  161.4260  209.4080  155.0190 C   0  0  0  0  0  2  0  0  0  0  0  0
  161.4550  211.0630  156.7100 C   0  0  0  0  0  2  0  0  0  0  0  0
  158.5350  212.9210  153.4490 C   0  0  0  0  0  0  0  0  0  0  0  0
  158.4390  213.4990  152.2860 C   0  0  0  0  0  3  0  0  0  0  0  0
  158.6350  212.3380  154.6180 C   0  0  0  0  0  0  0  0  0  0  0  0
  156.6680  210.7780  154.7870 C   0  0  0  0  0  3  0  0  0  0  0  0
  155.5190  210.3180  155.4350 C   0  0  0  0  0  3  0  0  0  0  0  0
  155.8130  212.0000  157.1470 C   0  0  0  0  0  3  0  0  0  0  0  0
  157.4100  211.8530  155.3130 C   0  0  0  0  0  0  0  0  0  0  0  0
  153.9520  210.4700  157.2610 O   0  0  0  0  0  1  0  0  0  0  0  0
  155.0920  210.9280  156.6150 C   0  0  0  0  0  0  0  0  0  0  0  0
  156.9640  212.4570  156.5000 C   0  0  0  0  0  3  0  0  0  0  0  0
  159.6630  213.7510  151.4780 C   0  0  0  0  0  2  0  0  0  0  0  0
  160.4910  213.1710  149.4590 O   0  0  0  0  0  1  0  0  0  0  0  0
  159.3600  213.6060  150.0650 N   0  0  0  0  0  2  0  0  0  0  0  0
  160.6100  210.4250  151.6770 O   0  0  0  0  0  0  0  0  0  0  0  0
  160.7810  209.5950  152.6130 C   0  0  0  0  0  0  0  0  0  0  0  0
  162.8170  206.2410  151.4020 S   0  0  0  0  0  0  0  0  0  0  0  0
  161.5280  206.0330  152.5810 N   0  0  0  0  0  0  0  0  0  0  0  0
  162.3380  207.9980  151.2510 C   0  0  1  0  0  3  0  0  0  0  0  0
  161.6230  208.2580  149.6400 Cl  0  0  0  0  0  0  0  0  0  0  0  0
  160.8900  207.2130  152.9480 N   0  0  0  0  0  0  0  0  0  0  0  0
  161.3070  208.2530  152.3110 C   0  0  0  0  0  0  0  0  0  0  0  0
  160.9240  204.7400  152.8370 C   0  0  0  0  0  1  0  0  0  0  0  0
  1  4  1  0  0  0  0
  1  3  1  0  0  0  0
  2  1  1  0  0  0  0
  2  6  1  0  0  0  0
  3  7  1  0  0  0  0
  4  5  1  0  0  0  0
  5  7  1  0  0  0  0
  6  3  1  0  0  0  0
  8 10  2  0  0  0  0
  9  8  2  0  0  0  0
 10  4  1  0  0  0  0
 10 14  1  0  0  0  0
 11 14  2  0  0  0  0
 11 12  1  0  0  0  0
 12 16  2  0  0  0  0
 14 17  1  0  0  0  0
 16 13  1  0  0  0  0
 16 15  1  0  0  0  0
 17 13  2  0  0  0  0
 18  9  1  0  0  0  0
 19 20  1  0  0  0  0
 20 18  1  0  0  0  0
 21 22  2  0  0  0  0
 22  2  1  0  0  0  0
 23 24  1  0  0  0  0
 24 29  1  0  0  0  0
 24 27  1  0  0  0  0
 25 23  1  0  0  0  0
 25 28  1  0  0  0  0
 26 25  1  0  0  0  0
 28 22  1  0  0  0  0
 28 27  2  0  0  0  0
M  END
>  <MODEL>
3

>  <REMARK>
 VINA RESULT:      -5.7      3.793      7.445
  Name = 
  6 active torsions:
  status: ('A' for Active; 'I' for Inactive)
    1  A    between atoms: C_3  and  C_19
    2  A    between atoms: C_3  and  N_24
    3  A    between atoms: C_6  and  C_9
    4  A    between atoms: C_6  and  C_26
    5  A    between atoms: C_16  and  C_21
    6  A    between atoms: C_17  and  C_21
                            x       y       z     vdW  Elec       q    Type
                         _______ _______ _______ _____ _____    ______ ____

>  <TORSDO>
F 6

$$$$
=
 OpenBabel11042423113D

 29 32  0  0  1  0  0  0  0  0999 V2000
  161.2890  212.3340  138.8450 C   0  0  2  0  0  3  0  0  0  0  0  0
  160.6810  212.6030  140.2120 C   0  0  2  0  0  3  0  0  0  0  0  0
  161.5890  213.7500  138.6190 N   0  0  2  0  0  0  0  0  0  0  0  0
  160.2860  211.9040  137.7820 C   0  0  2  0  0  3  0  0  0  0  0  0
  159.6550  213.1610  137.2520 C   0  0  0  0  0  2  0  0  0  0  0  0
  161.0280  214.0510  139.9330 C   0  0  0  0  0  2  0  0  0  0  0  0
  160.6540  214.2500  137.6050 C   0  0  0  0  0  2  0  0  0  0  0  0
  159.8680  209.6590  138.5090 C   0  0  0  0  0  0  0  0  0  0  0  0
  160.4060  208.5220  138.8470 C   0  0  0  0  0  3  0  0  0  0  0  0
  159.3290  210.8040  138.1720 C   0  0  0  0  0  0  0  0  0  0  0  0
  157.2080  211.5940  139.2700 C   0  0  0  0  0  3  0  0  0  0  0  0
  155.8190  211.7460  139.2910 C   0  0  0  0  0  3  0  0  0  0  0  0
  155.6670  210.6270  137.1520 C   0  0  0  0  0  3  0  0  0  0  0  0
  157.8480  210.9620  138.1880 C   0  0  0  0  0  0  0  0  0  0  0  0
  153.6700  211.4150  138.2490 O   0  0  0  0  0  1  0  0  0  0  0  0
  155.0490  211.2630  138.2310 C   0  0  0  0  0  0  0  0  0  0  0  0
  157.0570  210.4790  137.1320 C   0  0  0  0  0  3  0  0  0  0  0  0
  161.8730  208.4350  139.0800 C   0  0  0  0  0  2  0  0  0  0  0  0
  162.2480  206.2080  139.1160 O   0  0  0  0  0  1  0  0  0  0  0  0
  162.1710  207.2920  139.9260 N   0  0  0  0  0  2  0  0  0  0  0  0
  162.4900  211.2480  141.0240 O   0  0  0  0  0  0  0  0  0  0  0  0
  161.5350  212.0240  141.3020 C   0  0  0  0  0  0  0  0  0  0  0  0
  160.0420  212.4940  145.0980 S   0  0  0  0  0  0  0  0  0  0  0  0
  161.7170  212.9500  144.8170 N   0  0  0  0  0  0  0  0  0  0  0  0
  159.8630  212.2050  143.3030 C   0  0  1  0  0  3  0  0  0  0  0  0
  158.7930  213.4590  142.6270 Cl  0  0  0  0  0  0  0  0  0  0  0  0
  162.1540  212.7560  143.5100 N   0  0  0  0  0  0  0  0  0  0  0  0
  161.2350  212.3360  142.7090 C   0  0  0  0  0  0  0  0  0  0  0  0
  162.4430  213.8090  145.7320 C   0  0  0  0  0  1  0  0  0  0  0  0
  1  2  1  0  0  0  0
  2 22  1  0  0  0  0
  3  1  1  0  0  0  0
  3  6  1  0  0  0  0
  4 10  1  0  0  0  0
  4  1  1  0  0  0  0
  5  7  1  0  0  0  0
  5  4  1  0  0  0  0
  6  2  1  0  0  0  0
  7  3  1  0  0  0  0
  8  9  2  0  0  0  0
  9 18  1  0  0  0  0
 10 14  1  0  0  0  0
 10  8  2  0  0  0  0
 11 12  1  0  0  0  0
 13 16  1  0  0  0  0
 14 11  2  0  0  0  0
 16 15  1  0  0  0  0
 16 12  2  0  0  0  0
 17 13  2  0  0  0  0
 17 14  1  0  0  0  0
 18 20  1  0  0  0  0
 19 20  1  0  0  0  0
 21 22  2  0  0  0  0
 22 28  1  0  0  0  0
 24 23  1  0  0  0  0
 24 29  1  0  0  0  0
 25 23  1  0  0  0  0
 26 25  1  0  0  0  0
 27 24  1  0  0  0  0
 28 25  1  0  0  0  0
 28 27  2  0  0  0  0
M  END
>  <MODEL>
4

>  <REMARK>
 VINA RESULT:      -5.6     12.268     14.529
  Name = 
  6 active torsions:
  status: ('A' for Active; 'I' for Inactive)
    1  A    between atoms: C_3  and  C_19
    2  A    between atoms: C_3  and  N_24
    3  A    between atoms: C_6  and  C_9
    4  A    between atoms: C_6  and  C_26
    5  A    between atoms: C_16  and  C_21
    6  A    between atoms: C_17  and  C_21
                            x       y       z     vdW  Elec       q    Type
                         _______ _______ _______ _____ _____    ______ ____

>  <TORSDO>
F 6

$$$$
=
 OpenBabel11042423113D

 29 32  0  0  1  0  0  0  0  0999 V2000
  161.6060  210.1190  152.7200 C   0  0  2  0  0  3  0  0  0  0  0  0
  160.0940  210.2150  152.8420 C   0  0  2  0  0  3  0  0  0  0  0  0
  161.6510  211.0790  151.6140 N   0  0  2  0  0  0  0  0  0  0  0  0
  162.1110  208.7840  152.1870 C   0  0  2  0  0  3  0  0  0  0  0  0
  161.9970  208.8460  150.6900 C   0  0  0  0  0  2  0  0  0  0  0  0
  160.2000  211.2140  151.7070 C   0  0  0  0  0  2  0  0  0  0  0  0
  161.9560  210.3350  150.3870 C   0  0  0  0  0  2  0  0  0  0  0  0
  161.3630  207.6020  154.1340 C   0  0  0  0  0  0  0  0  0  0  0  0
  161.1820  207.6610  155.4230 C   0  0  0  0  0  3  0  0  0  0  0  0
  161.5430  207.5460  152.8380 C   0  0  0  0  0  0  0  0  0  0  0  0
  160.8280  206.3670  150.7340 C   0  0  0  0  0  3  0  0  0  0  0  0
  160.4970  205.2080  150.0280 C   0  0  0  0  0  3  0  0  0  0  0  0
  160.8740  203.8910  152.0210 C   0  0  0  0  0  3  0  0  0  0  0  0
  161.1920  206.3060  152.0920 C   0  0  0  0  0  0  0  0  0  0  0  0
  160.1950  202.8160  149.9710 O   0  0  0  0  0  1  0  0  0  0  0  0
  160.5210  203.9690  150.6720 C   0  0  0  0  0  0  0  0  0  0  0  0
  161.2070  205.0510  152.7240 C   0  0  0  0  0  3  0  0  0  0  0  0
  161.2870  208.9680  156.1280 C   0  0  0  0  0  2  0  0  0  0  0  0
  163.0060  210.0760  157.0870 O   0  0  0  0  0  1  0  0  0  0  0  0
  162.3320  208.9010  157.1360 N   0  0  0  0  0  2  0  0  0  0  0  0
  160.5550  211.0620  155.0420 O   0  0  0  0  0  0  0  0  0  0  0  0
  159.7010  210.8760  154.1310 C   0  0  0  0  0  0  0  0  0  0  0  0
  155.9620  212.5690  154.2310 S   0  0  0  0  0  0  0  0  0  0  0  0
  156.1650  210.9950  154.9880 N   0  0  0  0  0  0  0  0  0  0  0  0
  157.7680  212.6260  153.9590 C   0  0  1  0  0  3  0  0  0  0  0  0
  158.4650  213.8790  155.0170 Cl  0  0  0  0  0  0  0  0  0  0  0  0
  157.4560  210.4820  154.9070 N   0  0  0  0  0  0  0  0  0  0  0  0
  158.3020  211.2790  154.3500 C   0  0  0  0  0  0  0  0  0  0  0  0
  155.2060  210.4710  155.9400 C   0  0  0  0  0  1  0  0  0  0  0  0
  1  2  1  0  0  0  0
  2 22  1  0  0  0  0
  3  6  1  0  0  0  0
  3  1  1  0  0  0  0
  4  1  1  0  0  0  0
  4 10  1  0  0  0  0
  5  4  1  0  0  0  0
  6  2  1  0  0  0  0
  7  5  1  0  0  0  0
  7  3  1  0  0  0  0
  8  9  2  0  0  0  0
  9 18  1  0  0  0  0
 10  8  2  0  0  0  0
 11 14  1  0  0  0  0
 12 16  1  0  0  0  0
 12 11  2  0  0  0  0
 13 17  1  0  0  0  0
 14 17  2  0  0  0  0
 14 10  1  0  0  0  0
 15 16  1  0  0  0  0
 16 13  2  0  0  0  0
 18 20  1  0  0  0  0
 19 20  1  0  0  0  0
 22 28  1  0  0  0  0
 22 21  2  0  0  0  0
 23 24  1  0  0  0  0
 24 29  1  0  0  0  0
 25 23  1  0  0  0  0
 25 28  1  0  0  0  0
 25 26  1  0  0  0  0
 27 24  1  0  0  0  0
 28 27  2  0  0  0  0
M  END
>  <MODEL>
5

>  <REMARK>
 VINA RESULT:      -5.5      1.267      1.613
  Name = 
  6 active torsions:
  status: ('A' for Active; 'I' for Inactive)
    1  A    between atoms: C_3  and  C_19
    2  A    between atoms: C_3  and  N_24
    3  A    between atoms: C_6  and  C_9
    4  A    between atoms: C_6  and  C_26
    5  A    between atoms: C_16  and  C_21
    6  A    between atoms: C_17  and  C_21
                            x       y       z     vdW  Elec       q    Type
                         _______ _______ _______ _____ _____    ______ ____

>  <TORSDO>
F 6

$$$$
=
 OpenBabel11042423113D

 29 32  0  0  1  0  0  0  0  0999 V2000
  162.1880  208.1160  151.2170 C   0  0  2  0  0  3  0  0  0  0  0  0
  160.9370  207.6230  150.5100 C   0  0  2  0  0  3  0  0  0  0  0  0
  162.3210  206.8830  151.9980 N   0  0  2  0  0  0  0  0  0  0  0  0
  161.9490  209.2550  152.2000 C   0  0  2  0  0  3  0  0  0  0  0  0
  161.4750  208.6270  153.4810 C   0  0  0  0  0  2  0  0  0  0  0  0
  161.1300  206.3630  151.3300 C   0  0  0  0  0  2  0  0  0  0  0  0
  161.9590  207.1910  153.3860 C   0  0  0  0  0  2  0  0  0  0  0  0
  160.0860  210.7480  152.4130 C   0  0  0  0  0  0  0  0  0  0  0  0
  159.0520  211.0790  153.1340 C   0  0  0  0  0  3  0  0  0  0  0  0
  161.1260  210.4140  151.6920 C   0  0  0  0  0  0  0  0  0  0  0  0
  160.6690  212.2860  150.0740 C   0  0  0  0  0  3  0  0  0  0  0  0
  160.9580  212.9980  148.9070 C   0  0  0  0  0  3  0  0  0  0  0  0
  162.7890  211.4880  148.4420 C   0  0  0  0  0  3  0  0  0  0  0  0
  161.4390  211.1680  150.4460 C   0  0  0  0  0  0  0  0  0  0  0  0
  162.3070  213.3070  146.9330 O   0  0  0  0  0  1  0  0  0  0  0  0
  162.0180  212.5990  148.0910 C   0  0  0  0  0  0  0  0  0  0  0  0
  162.5000  210.7790  149.6110 C   0  0  0  0  0  3  0  0  0  0  0  0
  158.8830  210.5060  154.4970 C   0  0  0  0  0  2  0  0  0  0  0  0
  157.1990  211.9980  154.2930 O   0  0  0  0  0  1  0  0  0  0  0  0
  157.8320  211.2180  155.2030 N   0  0  0  0  0  2  0  0  0  0  0  0
  161.3260  208.3580  148.2560 O   0  0  0  0  0  0  0  0  0  0  0  0
  161.2040  207.3850  149.0520 C   0  0  0  0  0  0  0  0  0  0  0  0
  161.8730  203.8630  147.0490 S   0  0  0  0  0  0  0  0  0  0  0  0
  161.1810  203.7660  148.6640 N   0  0  0  0  0  0  0  0  0  0  0  0
  161.7170  205.6820  147.1370 C   0  0  1  0  0  3  0  0  0  0  0  0
  160.4570  206.2020  145.9900 Cl  0  0  0  0  0  0  0  0  0  0  0  0
  160.9900  204.9980  149.2810 N   0  0  0  0  0  0  0  0  0  0  0  0
  161.2910  206.0080  148.5390 C   0  0  0  0  0  0  0  0  0  0  0  0
  160.5070  202.5740  149.1390 C   0  0  0  0  0  1  0  0  0  0  0  0
  1  3  1  0  0  0  0
  1  4  1  0  0  0  0
  2  1  1  0  0  0  0
  2  6  1  0  0  0  0
  3  7  1  0  0  0  0
  4  5  1  0  0  0  0
  6  3  1  0  0  0  0
  7  5  1  0  0  0  0
  8  9  2  0  0  0  0
  9 18  1  0  0  0  0
 10  4  1  0  0  0  0
 10  8  2  0  0  0  0
 11 14  1  0  0  0  0
 12 11  2  0  0  0  0
 13 17  1  0  0  0  0
 14 10  1  0  0  0  0
 15 16  1  0  0  0  0
 16 13  2  0  0  0  0
 16 12  1  0  0  0  0
 17 14  2  0  0  0  0
 18 20  1  0  0  0  0
 19 20  1  0  0  0  0
 21 22  2  0  0  0  0
 22  2  1  0  0  0  0
 23 25  1  0  0  0  0
 23 24  1  0  0  0  0
 24 29  1  0  0  0  0
 24 27  1  0  0  0  0
 25 28  1  0  0  0  0
 26 25  1  0  0  0  0
 28 22  1  0  0  0  0
 28 27  2  0  0  0  0
M  END
>  <MODEL>
6

>  <REMARK>
 VINA RESULT:      -5.5      4.836      7.659
  Name = 
  6 active torsions:
  status: ('A' for Active; 'I' for Inactive)
    1  A    between atoms: C_3  and  C_19
    2  A    between atoms: C_3  and  N_24
    3  A    between atoms: C_6  and  C_9
    4  A    between atoms: C_6  and  C_26
    5  A    between atoms: C_16  and  C_21
    6  A    between atoms: C_17  and  C_21
                            x       y       z     vdW  Elec       q    Type
                         _______ _______ _______ _____ _____    ______ ____

>  <TORSDO>
F 6

$$$$
=
 OpenBabel11042423113D

 29 32  0  0  1  0  0  0  0  0999 V2000
  159.0340  211.8270  138.0880 C   0  0  2  0  0  3  0  0  0  0  0  0
  159.1330  211.6390  139.5920 C   0  0  2  0  0  3  0  0  0  0  0  0
  157.5980  211.5400  138.0720 N   0  0  2  0  0  0  0  0  0  0  0  0
  159.7250  210.7440  137.2700 C   0  0  2  0  0  3  0  0  0  0  0  0
  158.7670  209.5890  137.1860 C   0  0  0  0  0  2  0  0  0  0  0  0
  157.6440  211.3660  139.5220 C   0  0  0  0  0  2  0  0  0  0  0  0
  157.4120  210.2170  137.4660 C   0  0  0  0  0  2  0  0  0  0  0  0
  162.0210  211.3570  137.5800 C   0  0  0  0  0  0  0  0  0  0  0  0
  162.9000  212.3150  137.4840 C   0  0  0  0  0  3  0  0  0  0  0  0
  161.1370  210.3970  137.6770 C   0  0  0  0  0  0  0  0  0  0  0  0
  161.9440  208.0500  137.2630 C   0  0  0  0  0  3  0  0  0  0  0  0
  162.3320  206.7880  137.7180 C   0  0  0  0  0  3  0  0  0  0  0  0
  161.9350  207.4890  139.9980 C   0  0  0  0  0  3  0  0  0  0  0  0
  161.5500  209.0530  138.1690 C   0  0  0  0  0  0  0  0  0  0  0  0
  162.7180  205.2550  139.5390 O   0  0  0  0  0  1  0  0  0  0  0  0
  162.3290  206.5080  139.0860 C   0  0  0  0  0  0  0  0  0  0  0  0
  161.5490  208.7520  139.5410 C   0  0  0  0  0  3  0  0  0  0  0  0
  162.4500  213.7130  137.2430 C   0  0  0  0  0  2  0  0  0  0  0  0
  163.6210  214.1930  139.1130 O   0  0  0  0  0  1  0  0  0  0  0  0
  162.4440  214.4510  138.4940 N   0  0  0  0  0  2  0  0  0  0  0  0
  159.1760  214.0380  139.7060 O   0  0  0  0  0  0  0  0  0  0  0  0
  159.4290  212.9420  140.2770 C   0  0  0  0  0  0  0  0  0  0  0  0
  161.7600  213.2890  143.6400 S   0  0  0  0  0  0  0  0  0  0  0  0
  160.0780  212.8190  143.8570 N   0  0  0  0  0  0  0  0  0  0  0  0
  161.5160  213.1700  141.8330 C   0  0  1  0  0  3  0  0  0  0  0  0
  162.4410  211.7740  141.2240 Cl  0  0  0  0  0  0  0  0  0  0  0  0
  159.3510  212.7300  142.6740 N   0  0  0  0  0  0  0  0  0  0  0  0
  160.0500  212.9410  141.6120 C   0  0  0  0  0  0  0  0  0  0  0  0
  159.6060  212.2000  145.0790 C   0  0  0  0  0  1  0  0  0  0  0  0
  1  2  1  0  0  0  0
  2 22  1  0  0  0  0
  3  1  1  0  0  0  0
  3  6  1  0  0  0  0
  4 10  1  0  0  0  0
  4  1  1  0  0  0  0
  5  4  1  0  0  0  0
  5  7  1  0  0  0  0
  6  2  1  0  0  0  0
  7  3  1  0  0  0  0
  8 10  2  0  0  0  0
  9  8  2  0  0  0  0
 10 14  1  0  0  0  0
 11 12  2  0  0  0  0
 11 14  1  0  0  0  0
 12 16  1  0  0  0  0
 14 17  2  0  0  0  0
 16 15  1  0  0  0  0
 16 13  2  0  0  0  0
 17 13  1  0  0  0  0
 18  9  1  0  0  0  0
 18 20  1  0  0  0  0
 20 19  1  0  0  0  0
 21 22  2  0  0  0  0
 22 28  1  0  0  0  0
 23 24  1  0  0  0  0
 24 29  1  0  0  0  0
 25 23  1  0  0  0  0
 26 25  1  0  0  0  0
 27 24  1  0  0  0  0
 28 25  1  0  0  0  0
 28 27  2  0  0  0  0
M  END
>  <MODEL>
7

>  <REMARK>
 VINA RESULT:      -5.4     12.578     14.646
  Name = 
  6 active torsions:
  status: ('A' for Active; 'I' for Inactive)
    1  A    between atoms: C_3  and  C_19
    2  A    between atoms: C_3  and  N_24
    3  A    between atoms: C_6  and  C_9
    4  A    between atoms: C_6  and  C_26
    5  A    between atoms: C_16  and  C_21
    6  A    between atoms: C_17  and  C_21
                            x       y       z     vdW  Elec       q    Type
                         _______ _______ _______ _____ _____    ______ ____

>  <TORSDO>
F 6

$$$$
=
 OpenBabel11042423113D

 29 32  0  0  1  0  0  0  0  0999 V2000
  161.5530  212.9320  139.5510 C   0  0  2  0  0  3  0  0  0  0  0  0
  161.7010  211.5740  140.2160 C   0  0  2  0  0  3  0  0  0  0  0  0
  162.8600  212.8350  138.8960 N   0  0  2  0  0  0  0  0  0  0  0  0
  161.6090  214.1140  140.5100 C   0  0  2  0  0  3  0  0  0  0  0  0
  163.0640  214.3980  140.7600 C   0  0  0  0  0  2  0  0  0  0  0  0
  163.0370  211.5190  139.5030 C   0  0  0  0  0  2  0  0  0  0  0  0
  163.7700  213.7680  139.5710 C   0  0  0  0  0  2  0  0  0  0  0  0
  159.4450  214.0610  141.5380 C   0  0  0  0  0  0  0  0  0  0  0  0
  158.1580  214.1010  141.3360 C   0  0  0  0  0  3  0  0  0  0  0  0
  160.7380  214.0200  141.7390 C   0  0  0  0  0  0  0  0  0  0  0  0
  160.5850  214.4530  144.2130 C   0  0  0  0  0  3  0  0  0  0  0  0
  161.0790  214.3300  145.5130 C   0  0  0  0  0  3  0  0  0  0  0  0
  162.9680  213.0750  144.6730 C   0  0  0  0  0  3  0  0  0  0  0  0
  161.2710  213.8850  143.1230 C   0  0  0  0  0  0  0  0  0  0  0  0
  162.7620  213.5150  147.0360 O   0  0  0  0  0  1  0  0  0  0  0  0
  162.2710  213.6400  145.7440 C   0  0  0  0  0  0  0  0  0  0  0  0
  162.4700  213.1970  143.3730 C   0  0  0  0  0  3  0  0  0  0  0  0
  157.6200  213.9770  139.9540 C   0  0  0  0  0  2  0  0  0  0  0  0
  156.4470  212.0670  139.6750 O   0  0  0  0  0  1  0  0  0  0  0  0
  156.2980  213.3760  139.9930 N   0  0  0  0  0  2  0  0  0  0  0  0
  159.4850  210.8350  139.6560 O   0  0  0  0  0  0  0  0  0  0  0  0
  160.7230  210.5880  139.6470 C   0  0  0  0  0  0  0  0  0  0  0  0
  161.9810  207.3650  137.4360 S   0  0  0  0  0  0  0  0  0  0  0  0
  162.2430  207.3150  139.1740 N   0  0  0  0  0  0  0  0  0  0  0  0
  161.0420  208.9160  137.6640 C   0  0  1  0  0  3  0  0  0  0  0  0
  159.3230  208.5970  137.3210 Cl  0  0  0  0  0  0  0  0  0  0  0  0
  161.7980  208.4440  139.8550 N   0  0  0  0  0  0  0  0  0  0  0  0
  161.2070  209.3080  139.1030 C   0  0  0  0  0  0  0  0  0  0  0  0
  162.5180  206.0750  139.8740 C   0  0  0  0  0  1  0  0  0  0  0  0
  1  2  1  0  0  0  0
  1  4  1  0  0  0  0
  3  6  1  0  0  0  0
  3  1  1  0  0  0  0
  3  7  1  0  0  0  0
  4  5  1  0  0  0  0
  4 10  1  0  0  0  0
  6  2  1  0  0  0  0
  7  5  1  0  0  0  0
  8 10  2  0  0  0  0
  9  8  2  0  0  0  0
 10 14  1  0  0  0  0
 11 12  1  0  0  0  0
 12 16  2  0  0  0  0
 13 16  1  0  0  0  0
 14 17  1  0  0  0  0
 14 11  2  0  0  0  0
 16 15  1  0  0  0  0
 17 13  2  0  0  0  0
 18 20  1  0  0  0  0
 18  9  1  0  0  0  0
 19 20  1  0  0  0  0
 22 21  2  0  0  0  0
 22  2  1  0  0  0  0
 23 25  1  0  0  0  0
 23 24  1  0  0  0  0
 24 27  1  0  0  0  0
 24 29  1  0  0  0  0
 25 28  1  0  0  0  0
 26 25  1  0  0  0  0
 28 22  1  0  0  0  0
 28 27  2  0  0  0  0
M  END
>  <MODEL>
8

>  <REMARK>
 VINA RESULT:      -5.3     11.892     14.811
  Name = 
  6 active torsions:
  status: ('A' for Active; 'I' for Inactive)
    1  A    between atoms: C_3  and  C_19
    2  A    between atoms: C_3  and  N_24
    3  A    between atoms: C_6  and  C_9
    4  A    between atoms: C_6  and  C_26
    5  A    between atoms: C_16  and  C_21
    6  A    between atoms: C_17  and  C_21
                            x       y       z     vdW  Elec       q    Type
                         _______ _______ _______ _____ _____    ______ ____

>  <TORSDO>
F 6

$$$$
=
 OpenBabel11042423113D

 29 32  0  0  1  0  0  0  0  0999 V2000
  161.0970  212.4070  139.2530 C   0  0  2  0  0  3  0  0  0  0  0  0
  160.3720  212.4660  140.5870 C   0  0  2  0  0  3  0  0  0  0  0  0
  160.8910  213.8340  138.9940 N   0  0  2  0  0  0  0  0  0  0  0  0
  160.3580  211.6350  138.1670 C   0  0  2  0  0  3  0  0  0  0  0  0
  159.3510  212.5810  137.5750 C   0  0  0  0  0  2  0  0  0  0  0  0
  160.2010  213.9400  140.2770 C   0  0  0  0  0  2  0  0  0  0  0  0
  159.8870  213.9580  137.9320 C   0  0  0  0  0  2  0  0  0  0  0  0
  158.5370  210.1770  138.7160 C   0  0  0  0  0  0  0  0  0  0  0  0
  157.2470  210.0820  138.8750 C   0  0  0  0  0  3  0  0  0  0  0  0
  159.8320  210.2750  138.5540 C   0  0  0  0  0  0  0  0  0  0  0  0
  161.0790  208.2820  137.6570 C   0  0  0  0  0  3  0  0  0  0  0  0
  161.8910  207.1600  137.8370 C   0  0  0  0  0  3  0  0  0  0  0  0
  161.9570  207.5900  140.2150 C   0  0  0  0  0  3  0  0  0  0  0  0
  160.6980  209.0790  138.7530 C   0  0  0  0  0  0  0  0  0  0  0  0
  163.1400  205.7010  139.2950 O   0  0  0  0  0  1  0  0  0  0  0  0
  162.3310  206.8140  139.1160 C   0  0  0  0  0  0  0  0  0  0  0  0
  161.1470  208.7140  140.0330 C   0  0  0  0  0  3  0  0  0  0  0  0
  156.3610  211.1930  138.4330 C   0  0  0  0  0  2  0  0  0  0  0  0
  154.7300  210.1040  139.5540 O   0  0  0  0  0  1  0  0  0  0  0  0
  155.2540  211.3390  139.3620 N   0  0  0  0  0  2  0  0  0  0  0  0
  162.3630  211.5420  141.5630 O   0  0  0  0  0  0  0  0  0  0  0  0
  161.3250  212.2420  141.7250 C   0  0  0  0  0  0  0  0  0  0  0  0
  160.9610  214.4260  145.1830 S   0  0  0  0  0  0  0  0  0  0  0  0
  159.8780  213.0570  144.9640 N   0  0  0  0  0  0  0  0  0  0  0  0
  161.8330  213.9260  143.6570 C   0  0  1  0  0  3  0  0  0  0  0  0
  163.4530  213.3280  144.0960 Cl  0  0  0  0  0  0  0  0  0  0  0  0
  160.0550  212.3710  143.7660 N   0  0  0  0  0  0  0  0  0  0  0  0
  161.0300  212.8140  143.0490 C   0  0  0  0  0  0  0  0  0  0  0  0
  159.1600  212.4600  146.0730 C   0  0  0  0  0  1  0  0  0  0  0  0
  1  2  1  0  0  0  0
  2 22  1  0  0  0  0
  3  1  1  0  0  0  0
  3  6  1  0  0  0  0
  4 10  1  0  0  0  0
  4  1  1  0  0  0  0
  5  7  1  0  0  0  0
  5  4  1  0  0  0  0
  6  2  1  0  0  0  0
  7  3  1  0  0  0  0
  8  9  2  0  0  0  0
 10  8  2  0  0  0  0
 10 14  1  0  0  0  0
 11 12  2  0  0  0  0
 11 14  1  0  0  0  0
 12 16  1  0  0  0  0
 14 17  2  0  0  0  0
 16 15  1  0  0  0  0
 16 13  2  0  0  0  0
 17 13  1  0  0  0  0
 18  9  1  0  0  0  0
 18 20  1  0  0  0  0
 20 19  1  0  0  0  0
 21 22  2  0  0  0  0
 22 28  1  0  0  0  0
 24 23  1  0  0  0  0
 24 29  1  0  0  0  0
 25 26  1  0  0  0  0
 25 23  1  0  0  0  0
 27 24  1  0  0  0  0
 28 25  1  0  0  0  0
 28 27  2  0  0  0  0
M  END
>  <MODEL>
9

>  <REMARK>
 VINA RESULT:      -5.3     11.653     13.828
  Name = 
  6 active torsions:
  status: ('A' for Active; 'I' for Inactive)
    1  A    between atoms: C_3  and  C_19
    2  A    between atoms: C_3  and  N_24
    3  A    between atoms: C_6  and  C_9
    4  A    between atoms: C_6  and  C_26
    5  A    between atoms: C_16  and  C_21
    6  A    between atoms: C_17  and  C_21
                            x       y       z     vdW  Elec       q    Type
                         _______ _______ _______ _____ _____    ______ ____

>  <TORSDO>
F 6

$$$$
