=
 OpenBabel11042420153D

 25 27  0  0  1  0  0  0  0  0999 V2000
  160.7690  205.7820  148.3230 C   0  0  1  0  0  3  0  0  0  0  0  0
  160.9330  203.0550  151.8940 N   0  0  0  0  0  1  0  0  0  0  0  0
  161.9090  200.1500  148.5510 O   0  0  0  0  0  0  0  0  0  0  0  0
  160.5150  203.3990  147.5310 C   0  0  0  0  0  2  0  0  0  0  0  0
  161.0080  204.2990  148.6610 C   0  0  2  0  0  3  0  0  0  0  0  0
  161.3030  201.2460  148.6680 C   0  0  0  0  0  0  0  0  0  0  0  0
  161.1080  202.9640  150.4560 C   0  0  2  0  0  3  0  0  0  0  0  0
  160.3250  203.9420  149.8340 O   0  0  0  0  0  0  0  0  0  0  0  0
  161.2330  202.1290  147.5410 N   0  0  0  0  0  2  0  0  0  0  0  0
  160.6710  201.5840  149.9830 C   0  0  0  0  0  2  0  0  0  0  0  0
  162.0860  208.9360  150.1440 C   0  0  0  0  0  3  0  0  0  0  0  0
  161.7590  208.0230  149.1960 C   0  0  0  0  0  3  0  0  0  0  0  0
  162.0090  208.8960  151.6570 C   0  0  0  0  0  0  0  0  0  0  0  0
  160.6170  205.6120  152.8140 F   0  0  0  0  0  0  0  0  0  0  0  0
  161.2210  206.6790  149.4480 C   0  0  0  0  0  0  0  0  0  0  0  0
  161.0440  206.3990  150.6900 C   0  0  0  0  0  0  0  0  0  0  0  0
  161.5580  207.8700  152.4240 C   0  0  0  0  0  3  0  0  0  0  0  0
  161.0480  206.5700  151.9590 C   0  0  0  0  0  0  0  0  0  0  0  0
  161.8910  210.4050  153.6190 C   0  0  0  0  0  1  0  0  0  0  0  0
  162.4410  210.0220  152.3660 O   0  0  0  0  0  0  0  0  0  0  0  0
  161.4440  206.1930  146.9990 C   0  0  1  0  0  3  0  0  0  0  0  0
  161.2840  205.6960  144.6850 C   0  0  0  0  0  2  0  0  0  0  0  0
  162.5070  205.3360  146.6750 O   0  0  0  0  0  0  0  0  0  0  0  0
  162.6470  205.4380  145.2830 C   0  0  0  0  0  2  0  0  0  0  0  0
  160.4600  206.1580  145.8470 C   0  0  0  0  0  2  0  0  0  0  0  0
  1 15  1  1  0  0  0
  3  6  2  0  0  0  0
  4  9  1  0  0  0  0
  4  5  1  0  0  0  0
  5  1  1  6  0  0  0
  5  8  1  0  0  0  0
  6 10  1  0  0  0  0
  7  2  1  1  0  0  0
  8  7  1  0  0  0  0
  9  6  1  0  0  0  0
 10  7  1  0  0  0  0
 11 13  1  0  0  0  0
 12 15  1  0  0  0  0
 12 11  2  0  0  0  0
 13 20  1  0  0  0  0
 13 17  2  0  0  0  0
 15 16  2  0  0  0  0
 16 18  2  0  0  0  0
 18 17  1  0  0  0  0
 18 14  1  0  0  0  0
 20 19  1  0  0  0  0
 21  1  1  1  0  0  0
 22 24  1  0  0  0  0
 22 25  1  0  0  0  0
 23 21  1  0  0  0  0
 24 23  1  0  0  0  0
 25 21  1  0  0  0  0
M  END
>  <MODEL>
1

>  <REMARK>
 VINA RESULT:      -8.5      0.000      0.000
  Name = 
  4 active torsions:
  status: ('A' for Active; 'I' for Inactive)
    1  A    between atoms: C_1  and  C_6
    2  A    between atoms: C_1  and  C_13
    3  A    between atoms: C_1  and  C_14
    4  A    between atoms: C_11  and  O_17
                            x       y       z     vdW  Elec       q    Type
                         _______ _______ _______ _____ _____    ______ ____

>  <TORSDO>
F 4

$$$$
=
 OpenBabel11042420153D

 25 27  0  0  1  0  0  0  0  0999 V2000
  160.6590  205.7630  148.1770 C   0  0  1  0  0  3  0  0  0  0  0  0
  160.9410  203.2950  151.9260 N   0  0  0  0  0  1  0  0  0  0  0  0
  161.9240  200.1840  148.7750 O   0  0  0  0  0  0  0  0  0  0  0  0
  160.4430  203.3250  147.5580 C   0  0  0  0  0  2  0  0  0  0  0  0
  160.9350  204.3110  148.6140 C   0  0  2  0  0  3  0  0  0  0  0  0
  161.2960  201.2730  148.8270 C   0  0  0  0  0  0  0  0  0  0  0  0
  161.0940  203.1070  150.4950 C   0  0  2  0  0  3  0  0  0  0  0  0
  160.2790  204.0240  149.8200 O   0  0  0  0  0  0  0  0  0  0  0  0
  161.1890  202.0740  147.6420 N   0  0  0  0  0  2  0  0  0  0  0  0
  160.6780  201.6890  150.1260 C   0  0  0  0  0  2  0  0  0  0  0  0
  161.1260  207.1280  151.7700 C   0  0  0  0  0  3  0  0  0  0  0  0
  160.7840  206.3630  150.7050 C   0  0  0  0  0  3  0  0  0  0  0  0
  161.7530  208.5050  151.8700 C   0  0  0  0  0  0  0  0  0  0  0  0
  162.4380  209.8840  148.4510 F   0  0  0  0  0  0  0  0  0  0  0  0
  160.9530  206.7340  149.2920 C   0  0  0  0  0  0  0  0  0  0  0  0
  161.4950  207.8850  149.1040 C   0  0  0  0  0  0  0  0  0  0  0  0
  162.1340  209.3030  150.8400 C   0  0  0  0  0  3  0  0  0  0  0  0
  162.0220  209.0140  149.4020 C   0  0  0  0  0  0  0  0  0  0  0  0
  160.9760  209.0630  154.1550 C   0  0  0  0  0  1  0  0  0  0  0  0
  161.9750  209.0330  153.1450 O   0  0  0  0  0  0  0  0  0  0  0  0
  161.4390  206.1470  146.9050 C   0  0  1  0  0  3  0  0  0  0  0  0
  161.4380  205.6370  144.5880 C   0  0  0  0  0  2  0  0  0  0  0  0
  162.5010  205.2600  146.6650 O   0  0  0  0  0  0  0  0  0  0  0  0
  162.7460  205.3480  145.2870 C   0  0  0  0  0  2  0  0  0  0  0  0
  160.5430  206.1280  145.6830 C   0  0  0  0  0  2  0  0  0  0  0  0
  1 15  1  1  0  0  0
  3  6  2  0  0  0  0
  4  9  1  0  0  0  0
  4  5  1  0  0  0  0
  5  1  1  6  0  0  0
  5  8  1  0  0  0  0
  6 10  1  0  0  0  0
  7  2  1  1  0  0  0
  8  7  1  0  0  0  0
  9  6  1  0  0  0  0
 10  7  1  0  0  0  0
 11 13  1  0  0  0  0
 12 11  2  0  0  0  0
 13 20  1  0  0  0  0
 14 18  1  0  0  0  0
 15 12  1  0  0  0  0
 16 15  2  0  0  0  0
 16 18  2  0  0  0  0
 17 13  2  0  0  0  0
 18 17  1  0  0  0  0
 20 19  1  0  0  0  0
 21  1  1  1  0  0  0
 22 24  1  0  0  0  0
 22 25  1  0  0  0  0
 23 21  1  0  0  0  0
 24 23  1  0  0  0  0
 25 21  1  0  0  0  0
M  END
>  <MODEL>
2

>  <REMARK>
 VINA RESULT:      -7.9      1.384      1.813
  Name = 
  4 active torsions:
  status: ('A' for Active; 'I' for Inactive)
    1  A    between atoms: C_1  and  C_6
    2  A    between atoms: C_1  and  C_13
    3  A    between atoms: C_1  and  C_14
    4  A    between atoms: C_11  and  O_17
                            x       y       z     vdW  Elec       q    Type
                         _______ _______ _______ _____ _____    ______ ____

>  <TORSDO>
F 4

$$$$
=
 OpenBabel11042420153D

 25 27  0  0  1  0  0  0  0  0999 V2000
  161.1610  207.6900  149.4220 C   0  0  1  0  0  3  0  0  0  0  0  0
  160.6410  203.2260  149.2850 N   0  0  0  0  0  1  0  0  0  0  0  0
  163.1680  203.9090  145.5820 O   0  0  0  0  0  0  0  0  0  0  0  0
  161.6170  206.8960  147.0710 C   0  0  0  0  0  2  0  0  0  0  0  0
  161.5420  206.4870  148.5390 C   0  0  2  0  0  3  0  0  0  0  0  0
  162.3680  204.5790  146.2850 C   0  0  0  0  0  0  0  0  0  0  0  0
  161.2900  204.2620  148.5040 C   0  0  2  0  0  3  0  0  0  0  0  0
  160.5890  205.4640  148.6590 O   0  0  0  0  0  0  0  0  0  0  0  0
  162.5110  206.0050  146.3390 N   0  0  0  0  0  2  0  0  0  0  0  0
  161.2900  203.8590  147.0350 C   0  0  0  0  0  2  0  0  0  0  0  0
  160.7070  208.0040  153.2550 C   0  0  0  0  0  3  0  0  0  0  0  0
  160.7880  208.2740  151.9300 C   0  0  0  0  0  3  0  0  0  0  0  0
  161.0050  206.7490  154.0530 C   0  0  0  0  0  0  0  0  0  0  0  0
  162.1310  203.9870  151.7820 F   0  0  0  0  0  0  0  0  0  0  0  0
  161.2250  207.3350  150.8860 C   0  0  0  0  0  0  0  0  0  0  0  0
  161.5280  206.1620  151.3180 C   0  0  0  0  0  0  0  0  0  0  0  0
  161.4330  205.5560  153.5660 C   0  0  0  0  0  3  0  0  0  0  0  0
  161.7080  205.2160  152.1610 C   0  0  0  0  0  0  0  0  0  0  0  0
  159.6280  207.2560  156.0490 C   0  0  0  0  0  1  0  0  0  0  0  0
  160.8260  206.7960  155.4390 O   0  0  0  0  0  0  0  0  0  0  0  0
  162.0300  208.9280  149.1270 C   0  0  1  0  0  3  0  0  0  0  0  0
  162.2370  211.1780  149.8490 C   0  0  0  0  0  2  0  0  0  0  0  0
  161.4470  209.7440  148.1450 O   0  0  0  0  0  0  0  0  0  0  0  0
  161.9800  211.0220  148.3690 C   0  0  0  0  0  2  0  0  0  0  0  0
  162.2230  209.7740  150.3690 C   0  0  0  0  0  2  0  0  0  0  0  0
  1 15  1  1  0  0  0
  3  6  2  0  0  0  0
  4  5  1  0  0  0  0
  5  8  1  0  0  0  0
  5  1  1  1  0  0  0
  6  9  1  0  0  0  0
  6 10  1  0  0  0  0
  7  8  1  0  0  0  0
  7  2  1  1  0  0  0
  9  4  1  0  0  0  0
 10  7  1  0  0  0  0
 11 13  1  0  0  0  0
 12 11  2  0  0  0  0
 13 20  1  0  0  0  0
 14 18  1  0  0  0  0
 15 16  2  0  0  0  0
 15 12  1  0  0  0  0
 16 18  2  0  0  0  0
 17 13  2  0  0  0  0
 18 17  1  0  0  0  0
 20 19  1  0  0  0  0
 21  1  1  1  0  0  0
 21 25  1  0  0  0  0
 22 25  1  0  0  0  0
 23 24  1  0  0  0  0
 23 21  1  0  0  0  0
 24 22  1  0  0  0  0
M  END
>  <MODEL>
3

>  <REMARK>
 VINA RESULT:      -7.9      2.266      3.894
  Name = 
  4 active torsions:
  status: ('A' for Active; 'I' for Inactive)
    1  A    between atoms: C_1  and  C_6
    2  A    between atoms: C_1  and  C_13
    3  A    between atoms: C_1  and  C_14
    4  A    between atoms: C_11  and  O_17
                            x       y       z     vdW  Elec       q    Type
                         _______ _______ _______ _____ _____    ______ ____

>  <TORSDO>
F 4

$$$$
=
 OpenBabel11042420153D

 25 27  0  0  1  0  0  0  0  0999 V2000
  160.5830  205.8880  149.1010 C   0  0  1  0  0  3  0  0  0  0  0  0
  161.0800  208.3760  152.8130 N   0  0  0  0  0  1  0  0  0  0  0  0
  162.0900  211.4160  149.6020 O   0  0  0  0  0  0  0  0  0  0  0  0
  162.0140  207.8920  148.5450 C   0  0  0  0  0  2  0  0  0  0  0  0
  160.9880  207.3160  149.5160 C   0  0  2  0  0  3  0  0  0  0  0  0
  162.1080  210.1630  149.7200 C   0  0  0  0  0  0  0  0  0  0  0  0
  161.2060  208.5420  151.3770 C   0  0  2  0  0  3  0  0  0  0  0  0
  161.5540  207.3150  150.8000 O   0  0  0  0  0  0  0  0  0  0  0  0
  161.9560  209.3500  148.5490 N   0  0  0  0  0  2  0  0  0  0  0  0
  162.2920  209.5690  151.0820 C   0  0  0  0  0  2  0  0  0  0  0  0
  160.0890  205.8290  145.2610 C   0  0  0  0  0  3  0  0  0  0  0  0
  159.8790  205.9160  146.5970 C   0  0  0  0  0  3  0  0  0  0  0  0
  161.3150  205.4580  144.4500 C   0  0  0  0  0  0  0  0  0  0  0  0
  164.2060  204.7020  146.7140 F   0  0  0  0  0  0  0  0  0  0  0  0
  160.8760  205.6410  147.6420 C   0  0  0  0  0  0  0  0  0  0  0  0
  162.0370  205.3110  147.1990 C   0  0  0  0  0  0  0  0  0  0  0  0
  162.5400  205.1240  144.9310 C   0  0  0  0  0  3  0  0  0  0  0  0
  162.9500  205.0440  146.3420 C   0  0  0  0  0  0  0  0  0  0  0  0
  161.9700  206.3010  142.2140 C   0  0  0  0  0  1  0  0  0  0  0  0
  161.2020  205.4530  143.0560 O   0  0  0  0  0  0  0  0  0  0  0  0
  161.2560  204.8140  149.9770 C   0  0  1  0  0  3  0  0  0  0  0  0
  160.8310  202.6060  150.7350 C   0  0  0  0  0  2  0  0  0  0  0  0
  160.8300  204.8980  151.3120 O   0  0  0  0  0  0  0  0  0  0  0  0
  161.0320  203.6150  151.8420 C   0  0  0  0  0  2  0  0  0  0  0  0
  160.9330  203.4190  149.4810 C   0  0  0  0  0  2  0  0  0  0  0  0
  1 15  1  6  0  0  0
  3  6  2  0  0  0  0
  4  9  1  0  0  0  0
  4  5  1  0  0  0  0
  5  1  1  6  0  0  0
  5  8  1  0  0  0  0
  6 10  1  0  0  0  0
  7  2  1  1  0  0  0
  8  7  1  0  0  0  0
  9  6  1  0  0  0  0
 10  7  1  0  0  0  0
 11 12  2  0  0  0  0
 12 15  1  0  0  0  0
 13 17  2  0  0  0  0
 13 11  1  0  0  0  0
 16 15  2  0  0  0  0
 17 18  1  0  0  0  0
 18 14  1  0  0  0  0
 18 16  2  0  0  0  0
 19 20  1  0  0  0  0
 20 13  1  0  0  0  0
 21  1  1  6  0  0  0
 21 23  1  0  0  0  0
 22 24  1  0  0  0  0
 23 24  1  0  0  0  0
 25 21  1  0  0  0  0
 25 22  1  0  0  0  0
M  END
>  <MODEL>
4

>  <REMARK>
 VINA RESULT:      -7.5      3.013      6.739
  Name = 
  4 active torsions:
  status: ('A' for Active; 'I' for Inactive)
    1  A    between atoms: C_1  and  C_6
    2  A    between atoms: C_1  and  C_13
    3  A    between atoms: C_1  and  C_14
    4  A    between atoms: C_11  and  O_17
                            x       y       z     vdW  Elec       q    Type
                         _______ _______ _______ _____ _____    ______ ____

>  <TORSDO>
F 4

$$$$
=
 OpenBabel11042420153D

 25 27  0  0  1  0  0  0  0  0999 V2000
  161.5820  204.5750  150.5670 C   0  0  1  0  0  3  0  0  0  0  0  0
  162.1890  208.5630  148.5810 N   0  0  0  0  0  1  0  0  0  0  0  0
  160.3780  206.1760  145.1760 O   0  0  0  0  0  0  0  0  0  0  0  0
  161.5800  204.2400  148.0650 C   0  0  0  0  0  2  0  0  0  0  0  0
  161.3900  205.2480  149.1950 C   0  0  2  0  0  3  0  0  0  0  0  0
  161.0240  205.9320  146.2280 C   0  0  0  0  0  0  0  0  0  0  0  0
  161.6790  207.2500  148.2330 C   0  0  2  0  0  3  0  0  0  0  0  0
  162.3200  206.2840  149.0170 O   0  0  0  0  0  0  0  0  0  0  0  0
  160.8510  204.6640  146.8750 N   0  0  0  0  0  2  0  0  0  0  0  0
  161.9560  206.9760  146.7600 C   0  0  0  0  0  2  0  0  0  0  0  0
  161.0300  205.8750  154.1720 C   0  0  0  0  0  3  0  0  0  0  0  0
  161.2060  205.0770  153.0910 C   0  0  0  0  0  3  0  0  0  0  0  0
  160.8470  207.3740  154.3050 C   0  0  0  0  0  0  0  0  0  0  0  0
  160.9540  209.0130  150.9340 F   0  0  0  0  0  0  0  0  0  0  0  0
  161.2560  205.5240  151.6920 C   0  0  0  0  0  0  0  0  0  0  0  0
  161.1360  206.7950  151.5340 C   0  0  0  0  0  0  0  0  0  0  0  0
  160.8310  208.2860  153.2990 C   0  0  0  0  0  3  0  0  0  0  0  0
  160.9820  208.0240  151.8590 C   0  0  0  0  0  0  0  0  0  0  0  0
  160.0970  207.1670  156.6570 C   0  0  0  0  0  1  0  0  0  0  0  0
  160.6770  207.9030  155.5880 O   0  0  0  0  0  0  0  0  0  0  0  0
  160.7620  203.2770  150.6980 C   0  0  1  0  0  3  0  0  0  0  0  0
  161.0190  200.9540  150.2930 C   0  0  0  0  0  2  0  0  0  0  0  0
  160.0810  202.9760  149.5090 O   0  0  0  0  0  0  0  0  0  0  0  0
  159.8680  201.5900  149.5500 C   0  0  0  0  0  2  0  0  0  0  0  0
  161.6510  202.0950  151.0280 C   0  0  0  0  0  2  0  0  0  0  0  0
  1 15  1  1  0  0  0
  3  6  2  0  0  0  0
  4  5  1  0  0  0  0
  5  1  1  1  0  0  0
  6 10  1  0  0  0  0
  6  9  1  0  0  0  0
  7  2  1  1  0  0  0
  7  8  1  0  0  0  0
  8  5  1  0  0  0  0
  9  4  1  0  0  0  0
 10  7  1  0  0  0  0
 11 13  1  0  0  0  0
 12 11  2  0  0  0  0
 13 20  1  0  0  0  0
 14 18  1  0  0  0  0
 15 12  1  0  0  0  0
 16 15  2  0  0  0  0
 16 18  2  0  0  0  0
 17 13  2  0  0  0  0
 18 17  1  0  0  0  0
 20 19  1  0  0  0  0
 21  1  1  6  0  0  0
 21 25  1  0  0  0  0
 22 25  1  0  0  0  0
 23 24  1  0  0  0  0
 23 21  1  0  0  0  0
 24 22  1  0  0  0  0
M  END
>  <MODEL>
5

>  <REMARK>
 VINA RESULT:      -7.5      2.420      4.577
  Name = 
  4 active torsions:
  status: ('A' for Active; 'I' for Inactive)
    1  A    between atoms: C_1  and  C_6
    2  A    between atoms: C_1  and  C_13
    3  A    between atoms: C_1  and  C_14
    4  A    between atoms: C_11  and  O_17
                            x       y       z     vdW  Elec       q    Type
                         _______ _______ _______ _____ _____    ______ ____

>  <TORSDO>
F 4

$$$$
=
 OpenBabel11042420153D

 25 27  0  0  1  0  0  0  0  0999 V2000
  161.9370  205.6880  149.7550 C   0  0  1  0  0  3  0  0  0  0  0  0
  164.0300  204.1500  146.0850 N   0  0  0  0  0  1  0  0  0  0  0  0
  160.6500  206.5260  144.2130 O   0  0  0  0  0  0  0  0  0  0  0  0
  160.3370  205.7990  147.8070 C   0  0  0  0  0  2  0  0  0  0  0  0
  161.8040  205.7260  148.2210 C   0  0  2  0  0  3  0  0  0  0  0  0
  160.8700  205.9470  145.3090 C   0  0  0  0  0  0  0  0  0  0  0  0
  162.8760  204.9690  146.4070 C   0  0  2  0  0  3  0  0  0  0  0  0
  162.3620  204.5730  147.6470 O   0  0  0  0  0  0  0  0  0  0  0  0
  160.2090  206.4170  146.4910 N   0  0  0  0  0  2  0  0  0  0  0  0
  161.8110  204.7830  145.3330 C   0  0  0  0  0  2  0  0  0  0  0  0
  161.0540  208.3660  152.4090 C   0  0  0  0  0  3  0  0  0  0  0  0
  161.2140  207.1930  151.7500 C   0  0  0  0  0  3  0  0  0  0  0  0
  161.2760  209.8050  151.9840 C   0  0  0  0  0  0  0  0  0  0  0  0
  162.5170  209.9520  148.4490 F   0  0  0  0  0  0  0  0  0  0  0  0
  161.6690  207.0430  150.3600 C   0  0  0  0  0  0  0  0  0  0  0  0
  161.9450  208.1500  149.7670 C   0  0  0  0  0  0  0  0  0  0  0  0
  161.7190  210.2390  150.7760 C   0  0  0  0  0  3  0  0  0  0  0  0
  162.0800  209.4140  149.6120 C   0  0  0  0  0  0  0  0  0  0  0  0
  161.4310  210.7500  154.2680 C   0  0  0  0  0  1  0  0  0  0  0  0
  161.0040  210.8120  152.9140 O   0  0  0  0  0  0  0  0  0  0  0  0
  161.0260  204.6210  150.3930 C   0  0  1  0  0  3  0  0  0  0  0  0
  161.2250  202.6800  151.7440 C   0  0  0  0  0  2  0  0  0  0  0  0
  160.8780  203.5040  149.5560 O   0  0  0  0  0  0  0  0  0  0  0  0
  160.5470  202.4450  150.4140 C   0  0  0  0  0  2  0  0  0  0  0  0
  161.5920  204.1320  151.7120 C   0  0  0  0  0  2  0  0  0  0  0  0
  1 15  1  1  0  0  0
  3  6  2  0  0  0  0
  4  5  1  0  0  0  0
  5  1  1  1  0  0  0
  6 10  1  0  0  0  0
  6  9  1  0  0  0  0
  7  2  1  6  0  0  0
  7  8  1  0  0  0  0
  8  5  1  0  0  0  0
  9  4  1  0  0  0  0
 10  7  1  0  0  0  0
 12 11  2  0  0  0  0
 13 11  1  0  0  0  0
 13 20  1  0  0  0  0
 14 18  1  0  0  0  0
 15 12  1  0  0  0  0
 16 15  2  0  0  0  0
 17 13  2  0  0  0  0
 18 16  2  0  0  0  0
 18 17  1  0  0  0  0
 20 19  1  0  0  0  0
 21  1  1  6  0  0  0
 21 25  1  0  0  0  0
 23 21  1  0  0  0  0
 23 24  1  0  0  0  0
 24 22  1  0  0  0  0
 25 22  1  0  0  0  0
M  END
>  <MODEL>
6

>  <REMARK>
 VINA RESULT:      -7.3      2.375      4.447
  Name = 
  4 active torsions:
  status: ('A' for Active; 'I' for Inactive)
    1  A    between atoms: C_1  and  C_6
    2  A    between atoms: C_1  and  C_13
    3  A    between atoms: C_1  and  C_14
    4  A    between atoms: C_11  and  O_17
                            x       y       z     vdW  Elec       q    Type
                         _______ _______ _______ _____ _____    ______ ____

>  <TORSDO>
F 4

$$$$
=
 OpenBabel11042420153D

 25 27  0  0  1  0  0  0  0  0999 V2000
  162.0010  205.4670  149.8870 C   0  0  1  0  0  3  0  0  0  0  0  0
  163.9560  204.2240  146.0330 N   0  0  0  0  0  1  0  0  0  0  0  0
  160.4990  206.7140  144.4770 O   0  0  0  0  0  0  0  0  0  0  0  0
  160.3260  205.7160  148.0150 C   0  0  0  0  0  2  0  0  0  0  0  0
  161.8080  205.6200  148.3660 C   0  0  2  0  0  3  0  0  0  0  0  0
  160.7630  206.0560  145.5160 C   0  0  0  0  0  0  0  0  0  0  0  0
  162.8120  205.0090  146.4600 C   0  0  2  0  0  3  0  0  0  0  0  0
  162.3480  204.5180  147.6860 O   0  0  0  0  0  0  0  0  0  0  0  0
  160.1470  206.4310  146.7550 N   0  0  0  0  0  2  0  0  0  0  0  0
  161.7080  204.8980  145.4160 C   0  0  0  0  0  2  0  0  0  0  0  0
  161.8370  209.2970  150.4350 C   0  0  0  0  0  3  0  0  0  0  0  0
  162.0720  208.0670  149.9150 C   0  0  0  0  0  3  0  0  0  0  0  0
  161.2820  209.7420  151.7730 C   0  0  0  0  0  0  0  0  0  0  0  0
  160.4330  206.7700  153.8960 F   0  0  0  0  0  0  0  0  0  0  0  0
  161.8260  206.7870  150.5950 C   0  0  0  0  0  0  0  0  0  0  0  0
  161.3260  206.8970  151.7750 C   0  0  0  0  0  0  0  0  0  0  0  0
  160.8690  208.9430  152.7910 C   0  0  0  0  0  3  0  0  0  0  0  0
  160.8720  207.4730  152.8240 C   0  0  0  0  0  0  0  0  0  0  0  0
  160.0700  211.6930  152.7020 C   0  0  0  0  0  1  0  0  0  0  0  0
  161.1690  211.1150  152.0120 O   0  0  0  0  0  0  0  0  0  0  0  0
  161.0630  204.4020  150.4880 C   0  0  1  0  0  3  0  0  0  0  0  0
  161.2150  202.3890  151.7340 C   0  0  0  0  0  2  0  0  0  0  0  0
  160.8580  203.3360  149.5980 O   0  0  0  0  0  0  0  0  0  0  0  0
  160.5050  202.2460  150.4090 C   0  0  0  0  0  2  0  0  0  0  0  0
  161.6340  203.8260  151.7680 C   0  0  0  0  0  2  0  0  0  0  0  0
  1 15  1  1  0  0  0
  3  6  2  0  0  0  0
  4  5  1  0  0  0  0
  5  1  1  1  0  0  0
  6  9  1  0  0  0  0
  7  2  1  6  0  0  0
  7  8  1  0  0  0  0
  8  5  1  0  0  0  0
  9  4  1  0  0  0  0
 10  6  1  0  0  0  0
 10  7  1  0  0  0  0
 11 13  1  0  0  0  0
 12 11  2  0  0  0  0
 12 15  1  0  0  0  0
 13 20  1  0  0  0  0
 13 17  2  0  0  0  0
 15 16  2  0  0  0  0
 16 18  2  0  0  0  0
 17 18  1  0  0  0  0
 18 14  1  0  0  0  0
 20 19  1  0  0  0  0
 21  1  1  6  0  0  0
 21 25  1  0  0  0  0
 22 25  1  0  0  0  0
 23 24  1  0  0  0  0
 23 21  1  0  0  0  0
 24 22  1  0  0  0  0
M  END
>  <MODEL>
7

>  <REMARK>
 VINA RESULT:      -7.1      2.017      4.156
  Name = 
  4 active torsions:
  status: ('A' for Active; 'I' for Inactive)
    1  A    between atoms: C_1  and  C_6
    2  A    between atoms: C_1  and  C_13
    3  A    between atoms: C_1  and  C_14
    4  A    between atoms: C_11  and  O_17
                            x       y       z     vdW  Elec       q    Type
                         _______ _______ _______ _____ _____    ______ ____

>  <TORSDO>
F 4

$$$$
=
 OpenBabel11042420153D

 25 27  0  0  1  0  0  0  0  0999 V2000
  160.6660  209.3830  154.1360 C   0  0  1  0  0  3  0  0  0  0  0  0
  159.5220  212.6360  151.2510 N   0  0  0  0  0  1  0  0  0  0  0  0
  157.7250  214.2300  155.0970 O   0  0  0  0  0  0  0  0  0  0  0  0
  158.7470  210.6960  155.1190 C   0  0  0  0  0  2  0  0  0  0  0  0
  159.8920  210.7140  154.1100 C   0  0  2  0  0  3  0  0  0  0  0  0
  158.0460  213.1070  154.6290 C   0  0  0  0  0  0  0  0  0  0  0  0
  159.3540  212.3340  152.6600 C   0  0  2  0  0  3  0  0  0  0  0  0
  159.3490  210.9460  152.8370 O   0  0  0  0  0  0  0  0  0  0  0  0
  158.4100  212.0540  155.5310 N   0  0  0  0  0  2  0  0  0  0  0  0
  158.0310  212.9140  153.1450 C   0  0  0  0  0  2  0  0  0  0  0  0
  161.9710  209.4230  150.4910 C   0  0  0  0  0  3  0  0  0  0  0  0
  161.5610  209.7930  151.7290 C   0  0  0  0  0  3  0  0  0  0  0  0
  161.9750  208.0820  149.7840 C   0  0  0  0  0  0  0  0  0  0  0  0
  160.5910  205.4130  152.0240 F   0  0  0  0  0  0  0  0  0  0  0  0
  160.9750  208.9020  152.7410 C   0  0  0  0  0  0  0  0  0  0  0  0
  160.8820  207.6720  152.3790 C   0  0  0  0  0  0  0  0  0  0  0  0
  161.5490  206.8950  150.2850 C   0  0  0  0  0  3  0  0  0  0  0  0
  160.9850  206.6450  151.6210 C   0  0  0  0  0  0  0  0  0  0  0  0
  162.3420  206.8860  147.6450 C   0  0  0  0  0  1  0  0  0  0  0  0
  162.4670  208.0320  148.4760 O   0  0  0  0  0  0  0  0  0  0  0  0
  161.9560  209.4760  154.9750 C   0  0  1  0  0  3  0  0  0  0  0  0
  162.5980  209.5960  157.2560 C   0  0  0  0  0  2  0  0  0  0  0  0
  162.2960  210.8100  155.2500 O   0  0  0  0  0  0  0  0  0  0  0  0
  163.0780  210.7550  156.4140 C   0  0  0  0  0  2  0  0  0  0  0  0
  161.8030  208.7590  156.3010 C   0  0  0  0  0  2  0  0  0  0  0  0
  1 15  1  6  0  0  0
  4  9  1  0  0  0  0
  5  1  1  6  0  0  0
  5  4  1  0  0  0  0
  6  3  2  0  0  0  0
  6  9  1  0  0  0  0
  7  2  1  6  0  0  0
  7  8  1  0  0  0  0
  7 10  1  0  0  0  0
  8  5  1  0  0  0  0
 10  6  1  0  0  0  0
 11 12  2  0  0  0  0
 12 15  1  0  0  0  0
 13 17  2  0  0  0  0
 13 11  1  0  0  0  0
 16 15  2  0  0  0  0
 17 18  1  0  0  0  0
 18 14  1  0  0  0  0
 18 16  2  0  0  0  0
 19 20  1  0  0  0  0
 20 13  1  0  0  0  0
 21  1  1  1  0  0  0
 21 23  1  0  0  0  0
 21 25  1  0  0  0  0
 23 24  1  0  0  0  0
 24 22  1  0  0  0  0
 25 22  1  0  0  0  0
M  END
>  <MODEL>
8

>  <REMARK>
 VINA RESULT:      -7.1      4.327      8.887
  Name = 
  4 active torsions:
  status: ('A' for Active; 'I' for Inactive)
    1  A    between atoms: C_1  and  C_6
    2  A    between atoms: C_1  and  C_13
    3  A    between atoms: C_1  and  C_14
    4  A    between atoms: C_11  and  O_17
                            x       y       z     vdW  Elec       q    Type
                         _______ _______ _______ _____ _____    ______ ____

>  <TORSDO>
F 4

$$$$
=
 OpenBabel11042420153D

 25 27  0  0  1  0  0  0  0  0999 V2000
  162.0870  208.0490  151.6660 C   0  0  1  0  0  3  0  0  0  0  0  0
  160.7460  211.4380  154.3000 N   0  0  0  0  0  1  0  0  0  0  0  0
  160.1950  207.9090  157.0960 O   0  0  0  0  0  0  0  0  0  0  0  0
  160.6760  207.1090  153.5360 C   0  0  0  0  0  2  0  0  0  0  0  0
  161.5280  208.2910  153.0820 C   0  0  2  0  0  3  0  0  0  0  0  0
  160.2280  208.1010  155.8520 C   0  0  0  0  0  0  0  0  0  0  0  0
  160.8880  209.9960  154.3830 C   0  0  2  0  0  3  0  0  0  0  0  0
  160.7280  209.4430  153.1080 O   0  0  0  0  0  0  0  0  0  0  0  0
  160.6480  207.0320  154.9930 N   0  0  0  0  0  2  0  0  0  0  0  0
  159.8210  209.4390  155.3170 C   0  0  0  0  0  2  0  0  0  0  0  0
  161.8330  204.1860  151.7360 C   0  0  0  0  0  3  0  0  0  0  0  0
  162.1460  205.4730  152.0220 C   0  0  0  0  0  3  0  0  0  0  0  0
  161.0820  203.5600  150.5770 C   0  0  0  0  0  0  0  0  0  0  0  0
  159.9320  206.2010  148.1780 F   0  0  0  0  0  0  0  0  0  0  0  0
  161.8040  206.6430  151.2000 C   0  0  0  0  0  0  0  0  0  0  0  0
  161.1330  206.3710  150.1380 C   0  0  0  0  0  0  0  0  0  0  0  0
  160.5230  204.2070  149.5230 C   0  0  0  0  0  3  0  0  0  0  0  0
  160.5250  205.6560  149.2670 C   0  0  0  0  0  0  0  0  0  0  0  0
  160.4860  201.4470  149.4300 C   0  0  0  0  0  1  0  0  0  0  0  0
  160.9310  202.1690  150.5690 O   0  0  0  0  0  0  0  0  0  0  0  0
  161.5530  209.0750  150.6470 C   0  0  1  0  0  3  0  0  0  0  0  0
  162.2570  210.1320  148.6430 C   0  0  0  0  0  2  0  0  0  0  0  0
  161.9520  210.3800  150.9740 O   0  0  0  0  0  0  0  0  0  0  0  0
  161.9160  211.0870  149.7630 C   0  0  0  0  0  2  0  0  0  0  0  0
  162.0610  208.7770  149.2500 C   0  0  0  0  0  2  0  0  0  0  0  0
  1 15  1  6  0  0  0
  4  9  1  0  0  0  0
  5  1  1  6  0  0  0
  5  8  1  0  0  0  0
  5  4  1  0  0  0  0
  6  3  2  0  0  0  0
  7  2  1  6  0  0  0
  7 10  1  0  0  0  0
  8  7  1  0  0  0  0
  9  6  1  0  0  0  0
 10  6  1  0  0  0  0
 11 12  2  0  0  0  0
 13 11  1  0  0  0  0
 14 18  1  0  0  0  0
 15 12  1  0  0  0  0
 16 15  2  0  0  0  0
 17 13  2  0  0  0  0
 18 17  1  0  0  0  0
 18 16  2  0  0  0  0
 19 20  1  0  0  0  0
 20 13  1  0  0  0  0
 21 23  1  0  0  0  0
 21  1  1  1  0  0  0
 22 25  1  0  0  0  0
 22 24  1  0  0  0  0
 24 23  1  0  0  0  0
 25 21  1  0  0  0  0
M  END
>  <MODEL>
9

>  <REMARK>
 VINA RESULT:      -7.0      3.137      6.820
  Name = 
  4 active torsions:
  status: ('A' for Active; 'I' for Inactive)
    1  A    between atoms: C_1  and  C_6
    2  A    between atoms: C_1  and  C_13
    3  A    between atoms: C_1  and  C_14
    4  A    between atoms: C_11  and  O_17
                            x       y       z     vdW  Elec       q    Type
                         _______ _______ _______ _____ _____    ______ ____

>  <TORSDO>
F 4

$$$$
