=
 OpenBabel11052410143D

 25 27  0  0  1  0  0  0  0  0999 V2000
  161.3940  208.0430  153.4790 C   0  0  0  0  0  2  0  0  0  0  0  0
  162.2860  208.0960  150.7620 C   0  0  0  0  0  3  0  0  0  0  0  0
  161.4860  209.3920  152.7520 C   0  0  1  0  0  3  0  0  0  0  0  0
  161.8880  206.7830  151.3900 C   0  0  1  0  0  3  0  0  0  0  0  0
  160.8910  206.9570  152.5340 C   0  0  0  0  0  2  0  0  0  0  0  0
  162.1420  209.2680  151.3980 C   0  0  0  0  0  3  0  0  0  0  0  0
  161.3980  206.1810  149.1060 N   0  0  0  0  0  0  0  0  0  0  0  0
  161.6140  204.0630  147.9170 C   0  0  2  0  0  3  0  0  0  0  0  0
  161.3720  205.8300  150.3610 C   0  0  0  0  0  0  0  0  0  0  0  0
  162.0910  205.8030  145.7890 C   0  0  0  0  0  2  0  0  0  0  0  0
  160.5970  203.4060  150.2180 C   0  0  0  0  0  3  0  0  0  0  0  0
  160.9580  206.2510  146.7080 C   0  0  0  0  0  2  0  0  0  0  0  0
  160.8740  205.4080  147.9930 C   0  0  2  0  0  3  0  0  0  0  0  0
  161.6990  203.5530  146.5570 N   0  0  0  0  0  0  0  0  0  0  0  0
  161.9430  204.3320  145.5610 C   0  0  0  0  0  3  0  0  0  0  0  0
  160.7880  204.5630  150.8620 C   0  0  0  0  0  3  0  0  0  0  0  0
  160.9530  203.0740  148.8280 C   0  0  0  0  0  0  0  0  0  0  0  0
  160.7150  201.9070  148.4190 O   0  0  0  0  0  0  0  0  0  0  0  0
  160.1060  210.0100  152.5890 C   0  0  0  0  0  2  0  0  0  0  0  0
  159.6820  210.6210  153.8390 N   0  0  0  0  0  2  0  0  0  0  0  0
  160.8030  211.4040  154.3350 C   0  0  0  0  0  2  0  0  0  0  0  0
  160.0270  210.1170  156.2950 C   0  0  0  0  0  1  0  0  0  0  0  0
  160.9680  211.2110  155.8360 C   0  0  1  0  0  3  0  0  0  0  0  0
  162.4440  209.4580  156.5240 O   0  0  0  0  0  1  0  0  0  0  0  0
  162.3950  210.8080  156.1750 C   0  0  0  0  0  2  0  0  0  0  0  0
  2  4  1  0  0  0  0
  2  6  2  0  0  0  0
  3 19  1  6  0  0  0
  3  1  1  0  0  0  0
  4  9  1  6  0  0  0
  4  5  1  0  0  0  0
  5  1  1  0  0  0  0
  6  3  1  0  0  0  0
  7  9  2  0  0  0  0
  8 14  1  6  0  0  0
  8 13  1  0  0  0  0
  8 17  1  0  0  0  0
  9 16  1  0  0  0  0
 10 12  1  0  0  0  0
 11 16  2  0  0  0  0
 13 12  1  6  0  0  0
 13  7  1  0  0  0  0
 15 10  1  0  0  0  0
 15 14  2  0  0  0  0
 17 11  1  0  0  0  0
 18 17  2  0  0  0  0
 19 20  1  0  0  0  0
 20 21  1  0  0  0  0
 21 23  1  0  0  0  0
 23 25  1  0  0  0  0
 23 22  1  6  0  0  0
 25 24  1  0  0  0  0
M  END
>  <MODEL>
1

>  <REMARK>
 VINA RESULT:      -8.0      0.000      0.000
  Name = 
  6 active torsions:
  status: ('A' for Active; 'I' for Inactive)
    1  A    between atoms: C_1  and  C_9
    2  A    between atoms: C_1  and  N_15
    3  A    between atoms: C_5  and  N_15
    4  A    between atoms: C_5  and  C_17
    5  A    between atoms: C_8  and  C_17
    6  A    between atoms: C_11  and  C_12
                            x       y       z     vdW  Elec       q    Type
                         _______ _______ _______ _____ _____    ______ ____

>  <TORSDO>
F 6

$$$$
=
 OpenBabel11052410143D

 25 27  0  0  1  0  0  0  0  0999 V2000
  160.8670  205.7180  144.6250 C   0  0  0  0  0  2  0  0  0  0  0  0
  162.7720  205.3130  146.7200 C   0  0  0  0  0  3  0  0  0  0  0  0
  161.5310  204.3410  144.7720 C   0  0  1  0  0  3  0  0  0  0  0  0
  161.8840  206.5330  146.7460 C   0  0  1  0  0  3  0  0  0  0  0  0
  160.5710  206.3200  145.9940 C   0  0  0  0  0  2  0  0  0  0  0  0
  162.6360  204.3460  145.8010 C   0  0  0  0  0  3  0  0  0  0  0  0
  161.2680  206.1150  149.0400 N   0  0  0  0  0  0  0  0  0  0  0  0
  162.1370  207.0220  151.1320 C   0  0  2  0  0  3  0  0  0  0  0  0
  161.6380  206.9900  148.1470 C   0  0  0  0  0  0  0  0  0  0  0  0
  161.4020  204.4850  152.0320 C   0  0  0  0  0  2  0  0  0  0  0  0
  161.9630  209.0870  149.5600 C   0  0  0  0  0  3  0  0  0  0  0  0
  160.3880  205.1190  151.0850 C   0  0  0  0  0  2  0  0  0  0  0  0
  160.9220  206.4020  150.4220 C   0  0  2  0  0  3  0  0  0  0  0  0
  162.1680  206.7110  152.5520 N   0  0  0  0  0  0  0  0  0  0  0  0
  161.8580  205.5400  152.9910 C   0  0  0  0  0  3  0  0  0  0  0  0
  161.7610  208.4450  148.4030 C   0  0  0  0  0  3  0  0  0  0  0  0
  162.1520  208.5020  150.8990 C   0  0  0  0  0  0  0  0  0  0  0  0
  162.3620  209.2850  151.8610 O   0  0  0  0  0  0  0  0  0  0  0  0
  160.5010  203.2860  145.1430 C   0  0  0  0  0  2  0  0  0  0  0  0
  161.1690  202.0560  145.5430 N   0  0  0  0  0  2  0  0  0  0  0  0
  160.4580  201.5390  146.7010 C   0  0  0  0  0  2  0  0  0  0  0  0
  160.6010  202.9300  148.7360 C   0  0  0  0  0  1  0  0  0  0  0  0
  161.2520  201.7960  147.9750 C   0  0  1  0  0  3  0  0  0  0  0  0
  161.2850  200.9250  150.2030 O   0  0  0  0  0  1  0  0  0  0  0  0
  161.2720  200.5570  148.8570 C   0  0  0  0  0  2  0  0  0  0  0  0
  1  3  1  0  0  0  0
  1  5  1  0  0  0  0
  2  4  1  0  0  0  0
  3 19  1  1  0  0  0
  3  6  1  0  0  0  0
  4  9  1  1  0  0  0
  5  4  1  0  0  0  0
  6  2  2  0  0  0  0
  7 13  1  0  0  0  0
  8 17  1  1  0  0  0
  8 14  1  0  0  0  0
  9 16  1  0  0  0  0
  9  7  2  0  0  0  0
 10 15  1  0  0  0  0
 11 17  1  0  0  0  0
 12 10  1  0  0  0  0
 13 12  1  1  0  0  0
 13  8  1  0  0  0  0
 14 15  2  0  0  0  0
 16 11  2  0  0  0  0
 17 18  2  0  0  0  0
 19 20  1  0  0  0  0
 20 21  1  0  0  0  0
 21 23  1  0  0  0  0
 23 22  1  1  0  0  0
 23 25  1  0  0  0  0
 25 24  1  0  0  0  0
M  END
>  <MODEL>
2

>  <REMARK>
 VINA RESULT:      -7.9      2.926      8.027
  Name = 
  6 active torsions:
  status: ('A' for Active; 'I' for Inactive)
    1  A    between atoms: C_1  and  C_9
    2  A    between atoms: C_1  and  N_15
    3  A    between atoms: C_5  and  N_15
    4  A    between atoms: C_5  and  C_17
    5  A    between atoms: C_8  and  C_17
    6  A    between atoms: C_11  and  C_12
                            x       y       z     vdW  Elec       q    Type
                         _______ _______ _______ _____ _____    ______ ____

>  <TORSDO>
F 6

$$$$
=
 OpenBabel11052410143D

 25 27  0  0  1  0  0  0  0  0999 V2000
  161.3660  208.4150  153.5350 C   0  0  0  0  0  2  0  0  0  0  0  0
  162.3320  208.2790  150.8450 C   0  0  0  0  0  3  0  0  0  0  0  0
  161.5260  209.7150  152.7350 C   0  0  1  0  0  3  0  0  0  0  0  0
  161.8690  207.0190  151.5360 C   0  0  1  0  0  3  0  0  0  0  0  0
  160.8490  207.2940  152.6390 C   0  0  0  0  0  2  0  0  0  0  0  0
  162.2130  209.4900  151.4100 C   0  0  0  0  0  3  0  0  0  0  0  0
  161.3460  206.3360  149.2830 N   0  0  0  0  0  0  0  0  0  0  0  0
  161.5660  204.1810  148.1610 C   0  0  2  0  0  3  0  0  0  0  0  0
  161.3460  206.0260  150.5490 C   0  0  0  0  0  0  0  0  0  0  0  0
  161.9860  205.8540  145.9680 C   0  0  0  0  0  2  0  0  0  0  0  0
  160.5960  203.5900  150.5000 C   0  0  0  0  0  3  0  0  0  0  0  0
  160.8640  206.3200  146.8910 C   0  0  0  0  0  2  0  0  0  0  0  0
  160.8110  205.5200  148.2060 C   0  0  2  0  0  3  0  0  0  0  0  0
  161.6330  203.6260  146.8180 N   0  0  0  0  0  0  0  0  0  0  0  0
  161.8510  204.3740  145.7920 C   0  0  0  0  0  3  0  0  0  0  0  0
  160.7850  204.7710  151.1020 C   0  0  0  0  0  3  0  0  0  0  0  0
  160.9320  203.2160  149.1160 C   0  0  0  0  0  0  0  0  0  0  0  0
  160.7000  202.0340  148.7510 O   0  0  0  0  0  0  0  0  0  0  0  0
  160.1750  210.3700  152.4980 C   0  0  0  0  0  2  0  0  0  0  0  0
  160.2350  211.7800  152.8530 N   0  0  0  0  0  2  0  0  0  0  0  0
  160.1200  211.8620  154.3000 C   0  0  0  0  0  2  0  0  0  0  0  0
  159.2350  210.3230  156.0160 C   0  0  0  0  0  1  0  0  0  0  0  0
  158.8790  211.1230  154.7820 C   0  0  1  0  0  3  0  0  0  0  0  0
  157.0870  212.4890  153.9780 O   0  0  0  0  0  1  0  0  0  0  0  0
  157.7690  212.1010  155.1310 C   0  0  0  0  0  2  0  0  0  0  0  0
  2  6  2  0  0  0  0
  2  4  1  0  0  0  0
  3 19  1  6  0  0  0
  3  1  1  0  0  0  0
  4  9  1  6  0  0  0
  4  5  1  0  0  0  0
  5  1  1  0  0  0  0
  6  3  1  0  0  0  0
  7  9  2  0  0  0  0
  8 14  1  6  0  0  0
  8 13  1  0  0  0  0
  8 17  1  0  0  0  0
  9 16  1  0  0  0  0
 10 12  1  0  0  0  0
 11 16  2  0  0  0  0
 13 12  1  6  0  0  0
 13  7  1  0  0  0  0
 15 10  1  0  0  0  0
 15 14  2  0  0  0  0
 17 11  1  0  0  0  0
 18 17  2  0  0  0  0
 19 20  1  0  0  0  0
 20 21  1  0  0  0  0
 21 23  1  0  0  0  0
 23 25  1  0  0  0  0
 23 22  1  1  0  0  0
 24 25  1  0  0  0  0
M  END
>  <MODEL>
3

>  <REMARK>
 VINA RESULT:      -7.9      1.604      1.785
  Name = 
  6 active torsions:
  status: ('A' for Active; 'I' for Inactive)
    1  A    between atoms: C_1  and  C_9
    2  A    between atoms: C_1  and  N_15
    3  A    between atoms: C_5  and  N_15
    4  A    between atoms: C_5  and  C_17
    5  A    between atoms: C_8  and  C_17
    6  A    between atoms: C_11  and  C_12
                            x       y       z     vdW  Elec       q    Type
                         _______ _______ _______ _____ _____    ______ ____

>  <TORSDO>
F 6

$$$$
=
 OpenBabel11052410143D

 25 27  0  0  1  0  0  0  0  0999 V2000
  160.1870  206.1220  145.3140 C   0  0  0  0  0  2  0  0  0  0  0  0
  162.7160  205.7600  146.6010 C   0  0  0  0  0  3  0  0  0  0  0  0
  161.1500  205.0540  144.7760 C   0  0  1  0  0  3  0  0  0  0  0  0
  161.6380  206.5640  147.2880 C   0  0  1  0  0  3  0  0  0  0  0  0
  160.2330  206.1680  146.8380 C   0  0  0  0  0  2  0  0  0  0  0  0
  162.5020  205.1150  145.4450 C   0  0  0  0  0  3  0  0  0  0  0  0
  161.9450  207.5870  149.4500 N   0  0  0  0  0  0  0  0  0  0  0  0
  160.9500  207.0920  151.6220 C   0  0  2  0  0  3  0  0  0  0  0  0
  161.7740  206.4860  148.7740 C   0  0  0  0  0  0  0  0  0  0  0  0
  161.3020  209.8430  151.9250 C   0  0  0  0  0  2  0  0  0  0  0  0
  161.5200  204.7570  150.6290 C   0  0  0  0  0  3  0  0  0  0  0  0
  162.4780  209.1430  151.2510 C   0  0  0  0  0  2  0  0  0  0  0  0
  162.1630  207.6820  150.8830 C   0  0  2  0  0  3  0  0  0  0  0  0
  160.7270  207.7210  152.9130 N   0  0  0  0  0  0  0  0  0  0  0  0
  160.8580  208.9930  153.0730 C   0  0  0  0  0  3  0  0  0  0  0  0
  161.7800  205.1300  149.3700 C   0  0  0  0  0  3  0  0  0  0  0  0
  161.1200  205.6100  151.7610 C   0  0  0  0  0  0  0  0  0  0  0  0
  160.8890  205.0540  152.8670 O   0  0  0  0  0  0  0  0  0  0  0  0
  160.5620  203.6630  144.9520 C   0  0  0  0  0  2  0  0  0  0  0  0
  161.4030  202.8750  145.8410 N   0  0  0  0  0  2  0  0  0  0  0  0
  160.5300  201.9590  146.5570 C   0  0  0  0  0  2  0  0  0  0  0  0
  160.0090  201.8270  148.9680 C   0  0  0  0  0  1  0  0  0  0  0  0
  161.0990  201.6430  147.9340 C   0  0  1  0  0  3  0  0  0  0  0  0
  161.5690  199.6320  146.7260 O   0  0  0  0  0  1  0  0  0  0  0  0
  161.6000  200.2090  147.9950 C   0  0  0  0  0  2  0  0  0  0  0  0
  1  5  1  0  0  0  0
  2  4  1  0  0  0  0
  3 19  1  1  0  0  0
  3  1  1  0  0  0  0
  3  6  1  0  0  0  0
  4  9  1  1  0  0  0
  5  4  1  0  0  0  0
  6  2  2  0  0  0  0
  7 13  1  0  0  0  0
  8 17  1  1  0  0  0
  8 14  1  0  0  0  0
  9 16  1  0  0  0  0
  9  7  2  0  0  0  0
 10 15  1  0  0  0  0
 11 17  1  0  0  0  0
 12 10  1  0  0  0  0
 13 12  1  1  0  0  0
 13  8  1  0  0  0  0
 14 15  2  0  0  0  0
 16 11  2  0  0  0  0
 17 18  2  0  0  0  0
 19 20  1  0  0  0  0
 20 21  1  0  0  0  0
 21 23  1  0  0  0  0
 23 25  1  0  0  0  0
 23 22  1  1  0  0  0
 24 25  1  0  0  0  0
M  END
>  <MODEL>
4

>  <REMARK>
 VINA RESULT:      -7.9      2.249      8.062
  Name = 
  6 active torsions:
  status: ('A' for Active; 'I' for Inactive)
    1  A    between atoms: C_1  and  C_9
    2  A    between atoms: C_1  and  N_15
    3  A    between atoms: C_5  and  N_15
    4  A    between atoms: C_5  and  C_17
    5  A    between atoms: C_8  and  C_17
    6  A    between atoms: C_11  and  C_12
                            x       y       z     vdW  Elec       q    Type
                         _______ _______ _______ _____ _____    ______ ____

>  <TORSDO>
F 6

$$$$
=
 OpenBabel11052410143D

 25 27  0  0  1  0  0  0  0  0999 V2000
  161.3710  208.3770  153.5510 C   0  0  0  0  0  2  0  0  0  0  0  0
  162.2940  208.3020  150.8440 C   0  0  0  0  0  3  0  0  0  0  0  0
  161.4950  209.6930  152.7710 C   0  0  1  0  0  3  0  0  0  0  0  0
  161.8650  207.0230  151.5210 C   0  0  1  0  0  3  0  0  0  0  0  0
  160.8580  207.2620  152.6450 C   0  0  0  0  0  2  0  0  0  0  0  0
  162.1630  209.5020  151.4310 C   0  0  0  0  0  3  0  0  0  0  0  0
  161.3830  206.3390  149.2590 N   0  0  0  0  0  0  0  0  0  0  0  0
  161.5780  204.1730  148.1550 C   0  0  2  0  0  3  0  0  0  0  0  0
  161.3430  206.0380  150.5270 C   0  0  0  0  0  0  0  0  0  0  0  0
  162.0960  205.8210  145.9650 C   0  0  0  0  0  2  0  0  0  0  0  0
  160.5330  203.6210  150.4720 C   0  0  0  0  0  3  0  0  0  0  0  0
  160.9630  206.3210  146.8560 C   0  0  0  0  0  2  0  0  0  0  0  0
  160.8560  205.5300  148.1730 C   0  0  2  0  0  3  0  0  0  0  0  0
  161.6660  203.6080  146.8180 N   0  0  0  0  0  0  0  0  0  0  0  0
  161.9290  204.3440  145.7940 C   0  0  0  0  0  3  0  0  0  0  0  0
  160.7370  204.8010  151.0720 C   0  0  0  0  0  3  0  0  0  0  0  0
  160.8960  203.2300  149.0990 C   0  0  0  0  0  0  0  0  0  0  0  0
  160.6440  202.0520  148.7350 O   0  0  0  0  0  0  0  0  0  0  0  0
  160.1280  210.3280  152.5660 C   0  0  0  0  0  2  0  0  0  0  0  0
  160.2030  211.7610  152.8060 N   0  0  0  0  0  2  0  0  0  0  0  0
  158.8620  212.2950  152.6320 C   0  0  0  0  0  2  0  0  0  0  0  0
  159.8950  213.3330  150.6440 C   0  0  0  0  0  1  0  0  0  0  0  0
  158.8920  213.5410  151.7580 C   0  0  1  0  0  3  0  0  0  0  0  0
  157.4760  213.3130  149.8430 O   0  0  0  0  0  1  0  0  0  0  0  0
  157.5250  213.8060  151.1470 C   0  0  0  0  0  2  0  0  0  0  0  0
  2  6  2  0  0  0  0
  2  4  1  0  0  0  0
  3 19  1  6  0  0  0
  3  1  1  0  0  0  0
  4  9  1  6  0  0  0
  4  5  1  0  0  0  0
  5  1  1  0  0  0  0
  6  3  1  0  0  0  0
  7  9  2  0  0  0  0
  8 14  1  6  0  0  0
  8 13  1  0  0  0  0
  8 17  1  0  0  0  0
  9 16  1  0  0  0  0
 10 12  1  0  0  0  0
 11 16  2  0  0  0  0
 13 12  1  6  0  0  0
 13  7  1  0  0  0  0
 15 10  1  0  0  0  0
 15 14  2  0  0  0  0
 17 11  1  0  0  0  0
 18 17  2  0  0  0  0
 19 20  1  0  0  0  0
 21 20  1  0  0  0  0
 23 22  1  6  0  0  0
 23 21  1  0  0  0  0
 24 25  1  0  0  0  0
 25 23  1  0  0  0  0
M  END
>  <MODEL>
5

>  <REMARK>
 VINA RESULT:      -7.6      2.431      2.983
  Name = 
  6 active torsions:
  status: ('A' for Active; 'I' for Inactive)
    1  A    between atoms: C_1  and  C_9
    2  A    between atoms: C_1  and  N_15
    3  A    between atoms: C_5  and  N_15
    4  A    between atoms: C_5  and  C_17
    5  A    between atoms: C_8  and  C_17
    6  A    between atoms: C_11  and  C_12
                            x       y       z     vdW  Elec       q    Type
                         _______ _______ _______ _____ _____    ______ ____

>  <TORSDO>
F 6

$$$$
=
 OpenBabel11052410143D

 25 27  0  0  1  0  0  0  0  0999 V2000
  161.1500  203.6560  149.4070 C   0  0  0  0  0  2  0  0  0  0  0  0
  160.3300  206.3930  149.5510 C   0  0  0  0  0  3  0  0  0  0  0  0
  161.2060  204.5180  148.1380 C   0  0  1  0  0  3  0  0  0  0  0  0
  160.5840  205.6230  150.8240 C   0  0  1  0  0  3  0  0  0  0  0  0
  161.5670  204.4700  150.6280 C   0  0  0  0  0  2  0  0  0  0  0  0
  160.5730  205.8730  148.3390 C   0  0  0  0  0  3  0  0  0  0  0  0
  161.0760  207.8160  151.6990 N   0  0  0  0  0  0  0  0  0  0  0  0
  160.6770  208.8010  153.8950 C   0  0  2  0  0  3  0  0  0  0  0  0
  161.0290  206.5330  151.9230 C   0  0  0  0  0  0  0  0  0  0  0  0
  160.4450  211.1050  152.3390 C   0  0  0  0  0  2  0  0  0  0  0  0
  161.5540  206.4090  154.4140 C   0  0  0  0  0  3  0  0  0  0  0  0
  161.5910  210.1900  151.9160 C   0  0  0  0  0  2  0  0  0  0  0  0
  161.5500  208.8270  152.6290 C   0  0  2  0  0  3  0  0  0  0  0  0
  160.5800  210.1060  154.5280 N   0  0  0  0  0  0  0  0  0  0  0  0
  160.4470  211.1830  153.8330 C   0  0  0  0  0  3  0  0  0  0  0  0
  161.4640  205.8880  153.1840 C   0  0  0  0  0  3  0  0  0  0  0  0
  161.2060  207.7720  154.8480 C   0  0  0  0  0  0  0  0  0  0  0  0
  161.3340  208.0560  156.0670 O   0  0  0  0  0  0  0  0  0  0  0  0
  162.6430  204.6970  147.6730 C   0  0  0  0  0  2  0  0  0  0  0  0
  162.6720  205.4100  146.4050 N   0  0  0  0  0  2  0  0  0  0  0  0
  162.7010  204.4090  145.3510 C   0  0  0  0  0  2  0  0  0  0  0  0
  160.4550  203.4930  144.8840 C   0  0  0  0  0  1  0  0  0  0  0  0
  161.4710  204.5330  144.4620 C   0  0  1  0  0  3  0  0  0  0  0  0
  159.6180  205.8270  145.2460 O   0  0  0  0  0  1  0  0  0  0  0  0
  160.8470  205.9140  144.5930 C   0  0  0  0  0  2  0  0  0  0  0  0
  1  5  1  0  0  0  0
  2  4  1  0  0  0  0
  3 19  1  1  0  0  0
  3  6  1  0  0  0  0
  3  1  1  0  0  0  0
  4  9  1  1  0  0  0
  5  4  1  0  0  0  0
  6  2  2  0  0  0  0
  7  9  2  0  0  0  0
  7 13  1  0  0  0  0
  8 14  1  1  0  0  0
  8 17  1  0  0  0  0
  9 16  1  0  0  0  0
 10 15  1  0  0  0  0
 11 17  1  0  0  0  0
 12 10  1  0  0  0  0
 13 12  1  6  0  0  0
 13  8  1  0  0  0  0
 15 14  2  0  0  0  0
 16 11  2  0  0  0  0
 17 18  2  0  0  0  0
 20 19  1  0  0  0  0
 21 20  1  0  0  0  0
 23 25  1  0  0  0  0
 23 22  1  1  0  0  0
 23 21  1  0  0  0  0
 25 24  1  0  0  0  0
M  END
>  <MODEL>
6

>  <REMARK>
 VINA RESULT:      -7.0      1.875      8.257
  Name = 
  6 active torsions:
  status: ('A' for Active; 'I' for Inactive)
    1  A    between atoms: C_1  and  C_9
    2  A    between atoms: C_1  and  N_15
    3  A    between atoms: C_5  and  N_15
    4  A    between atoms: C_5  and  C_17
    5  A    between atoms: C_8  and  C_17
    6  A    between atoms: C_11  and  C_12
                            x       y       z     vdW  Elec       q    Type
                         _______ _______ _______ _____ _____    ______ ____

>  <TORSDO>
F 6

$$$$
=
 OpenBabel11052410143D

 25 27  0  0  1  0  0  0  0  0999 V2000
  162.5450  206.4140  149.0430 C   0  0  0  0  0  2  0  0  0  0  0  0
  160.8300  205.6130  151.1880 C   0  0  0  0  0  3  0  0  0  0  0  0
  161.3890  205.4480  148.7510 C   0  0  1  0  0  3  0  0  0  0  0  0
  161.7610  206.7870  151.3770 C   0  0  1  0  0  3  0  0  0  0  0  0
  162.1190  207.4700  150.0580 C   0  0  0  0  0  2  0  0  0  0  0  0
  160.6970  204.9850  150.0110 C   0  0  0  0  0  3  0  0  0  0  0  0
  160.9940  207.3760  153.5860 N   0  0  0  0  0  0  0  0  0  0  0  0
  161.2600  209.4190  154.8910 C   0  0  2  0  0  3  0  0  0  0  0  0
  161.2020  207.7640  152.3590 C   0  0  0  0  0  0  0  0  0  0  0  0
  161.2040  207.5750  156.9840 C   0  0  0  0  0  2  0  0  0  0  0  0
  160.6900  210.2570  152.4960 C   0  0  0  0  0  3  0  0  0  0  0  0
  160.1840  207.2900  155.8850 C   0  0  0  0  0  2  0  0  0  0  0  0
  160.3940  208.1730  154.6420 C   0  0  2  0  0  3  0  0  0  0  0  0
  161.1900  209.8770  156.2700 N   0  0  0  0  0  0  0  0  0  0  0  0
  161.1890  209.0460  157.2540 C   0  0  0  0  0  3  0  0  0  0  0  0
  160.8480  209.1040  151.8350 C   0  0  0  0  0  3  0  0  0  0  0  0
  160.8620  210.5050  153.9380 C   0  0  0  0  0  0  0  0  0  0  0  0
  160.6960  211.6790  154.3590 O   0  0  0  0  0  0  0  0  0  0  0  0
  160.3700  206.0930  147.8250 C   0  0  0  0  0  2  0  0  0  0  0  0
  161.0260  206.5710  146.6170 N   0  0  0  0  0  2  0  0  0  0  0  0
  160.4940  205.7990  145.5060 C   0  0  0  0  0  2  0  0  0  0  0  0
  162.8890  205.2000  145.4580 C   0  0  0  0  0  1  0  0  0  0  0  0
  161.5020  204.7520  145.0520 C   0  0  1  0  0  3  0  0  0  0  0  0
  160.3680  202.6520  144.8800 O   0  0  0  0  0  1  0  0  0  0  0  0
  161.2100  203.4060  145.6970 C   0  0  0  0  0  2  0  0  0  0  0  0
  1  5  1  0  0  0  0
  2  4  1  0  0  0  0
  3 19  1  6  0  0  0
  3  1  1  0  0  0  0
  3  6  1  0  0  0  0
  4  9  1  1  0  0  0
  5  4  1  0  0  0  0
  6  2  2  0  0  0  0
  7 13  1  0  0  0  0
  8 17  1  6  0  0  0
  8 14  1  0  0  0  0
  9  7  2  0  0  0  0
 10 15  1  0  0  0  0
 11 17  1  0  0  0  0
 12 10  1  0  0  0  0
 13  8  1  0  0  0  0
 13 12  1  1  0  0  0
 14 15  2  0  0  0  0
 16  9  1  0  0  0  0
 16 11  2  0  0  0  0
 17 18  2  0  0  0  0
 20 19  1  0  0  0  0
 21 20  1  0  0  0  0
 23 22  1  1  0  0  0
 23 21  1  0  0  0  0
 23 25  1  0  0  0  0
 24 25  1  0  0  0  0
M  END
>  <MODEL>
7

>  <REMARK>
 VINA RESULT:      -7.0      1.956      8.778
  Name = 
  6 active torsions:
  status: ('A' for Active; 'I' for Inactive)
    1  A    between atoms: C_1  and  C_9
    2  A    between atoms: C_1  and  N_15
    3  A    between atoms: C_5  and  N_15
    4  A    between atoms: C_5  and  C_17
    5  A    between atoms: C_8  and  C_17
    6  A    between atoms: C_11  and  C_12
                            x       y       z     vdW  Elec       q    Type
                         _______ _______ _______ _____ _____    ______ ____

>  <TORSDO>
F 6

$$$$
=
 OpenBabel11052410143D

 25 27  0  0  1  0  0  0  0  0999 V2000
  160.3870  206.2030  147.7340 C   0  0  0  0  0  2  0  0  0  0  0  0
  162.5070  207.7100  148.9260 C   0  0  0  0  0  3  0  0  0  0  0  0
  161.8130  206.0420  147.1880 C   0  0  1  0  0  3  0  0  0  0  0  0
  161.1770  207.6060  149.6330 C   0  0  1  0  0  3  0  0  0  0  0  0
  160.4060  206.3430  149.2520 C   0  0  0  0  0  2  0  0  0  0  0  0
  162.7740  207.0340  147.7980 C   0  0  0  0  0  3  0  0  0  0  0  0
  161.3190  208.8930  151.6670 N   0  0  0  0  0  0  0  0  0  0  0  0
  160.4640  208.4590  153.9100 C   0  0  2  0  0  3  0  0  0  0  0  0
  161.3450  207.7130  151.1130 C   0  0  0  0  0  0  0  0  0  0  0  0
  160.3030  211.2440  153.9190 C   0  0  0  0  0  2  0  0  0  0  0  0
  161.4430  206.1750  153.1430 C   0  0  0  0  0  3  0  0  0  0  0  0
  161.5790  210.7030  153.2810 C   0  0  0  0  0  2  0  0  0  0  0  0
  161.5360  209.1790  153.0750 C   0  0  2  0  0  3  0  0  0  0  0  0
  160.1460  209.1700  155.1380 N   0  0  0  0  0  0  0  0  0  0  0  0
  160.0410  210.4540  155.1620 C   0  0  0  0  0  3  0  0  0  0  0  0
  161.6120  206.4530  151.8450 C   0  0  0  0  0  3  0  0  0  0  0  0
  160.9080  207.0560  154.1950 C   0  0  0  0  0  0  0  0  0  0  0  0
  160.8000  206.5890  155.3590 O   0  0  0  0  0  0  0  0  0  0  0  0
  162.3250  204.6310  147.4280 C   0  0  0  0  0  2  0  0  0  0  0  0
  161.2250  203.6810  147.3500 N   0  0  0  0  0  2  0  0  0  0  0  0
  161.5570  202.5670  148.2240 C   0  0  0  0  0  2  0  0  0  0  0  0
  160.4600  200.9540  149.7380 C   0  0  0  0  0  1  0  0  0  0  0  0
  160.5010  202.4050  149.3090 C   0  0  1  0  0  3  0  0  0  0  0  0
  161.3320  202.4770  151.5510 O   0  0  0  0  0  1  0  0  0  0  0  0
  160.8310  203.2670  150.5170 C   0  0  0  0  0  2  0  0  0  0  0  0
  1  5  1  0  0  0  0
  2  4  1  0  0  0  0
  3 19  1  1  0  0  0
  3  1  1  0  0  0  0
  3  6  1  0  0  0  0
  4  9  1  1  0  0  0
  5  4  1  0  0  0  0
  6  2  2  0  0  0  0
  7 13  1  0  0  0  0
  8 17  1  1  0  0  0
  8 14  1  0  0  0  0
  9  7  2  0  0  0  0
  9 16  1  0  0  0  0
 10 15  1  0  0  0  0
 11 17  1  0  0  0  0
 12 10  1  0  0  0  0
 13 12  1  6  0  0  0
 13  8  1  0  0  0  0
 14 15  2  0  0  0  0
 16 11  2  0  0  0  0
 17 18  2  0  0  0  0
 20 19  1  0  0  0  0
 20 21  1  0  0  0  0
 21 23  1  0  0  0  0
 23 22  1  1  0  0  0
 23 25  1  0  0  0  0
 25 24  1  0  0  0  0
M  END
>  <MODEL>
8

>  <REMARK>
 VINA RESULT:      -7.0      1.701      7.629
  Name = 
  6 active torsions:
  status: ('A' for Active; 'I' for Inactive)
    1  A    between atoms: C_1  and  C_9
    2  A    between atoms: C_1  and  N_15
    3  A    between atoms: C_5  and  N_15
    4  A    between atoms: C_5  and  C_17
    5  A    between atoms: C_8  and  C_17
    6  A    between atoms: C_11  and  C_12
                            x       y       z     vdW  Elec       q    Type
                         _______ _______ _______ _____ _____    ______ ____

>  <TORSDO>
F 6

$$$$
=
 OpenBabel11052410143D

 25 27  0  0  1  0  0  0  0  0999 V2000
  160.9670  205.3140  153.6110 C   0  0  0  0  0  2  0  0  0  0  0  0
  162.5520  205.6970  151.2620 C   0  0  0  0  0  3  0  0  0  0  0  0
  161.6170  206.6820  153.3680 C   0  0  1  0  0  3  0  0  0  0  0  0
  161.6560  204.4880  151.3660 C   0  0  1  0  0  3  0  0  0  0  0  0
  160.4680  204.7150  152.3000 C   0  0  0  0  0  2  0  0  0  0  0  0
  162.5620  206.6650  152.1900 C   0  0  0  0  0  3  0  0  0  0  0  0
  161.2980  204.8590  149.0110 N   0  0  0  0  0  0  0  0  0  0  0  0
  161.5950  203.3900  147.0850 C   0  0  2  0  0  3  0  0  0  0  0  0
  161.2050  204.0340  150.0160 C   0  0  0  0  0  0  0  0  0  0  0  0
  162.1770  205.8290  145.8620 C   0  0  0  0  0  2  0  0  0  0  0  0
  160.4550  201.8830  148.8720 C   0  0  0  0  0  3  0  0  0  0  0  0
  160.9920  205.8900  146.8210 C   0  0  0  0  0  2  0  0  0  0  0  0
  160.8420  204.6040  147.6550 C   0  0  2  0  0  3  0  0  0  0  0  0
  161.7580  203.4660  145.6420 N   0  0  0  0  0  0  0  0  0  0  0  0
  162.0520  204.5750  145.0560 C   0  0  0  0  0  3  0  0  0  0  0  0
  160.6020  202.6830  149.9360 C   0  0  0  0  0  3  0  0  0  0  0  0
  160.8910  202.1300  147.4870 C   0  0  0  0  0  0  0  0  0  0  0  0
  160.6840  201.2280  146.6330 O   0  0  0  0  0  0  0  0  0  0  0  0
  160.5570  207.7500  153.1480 C   0  0  0  0  0  2  0  0  0  0  0  0
  160.9320  208.9740  153.8400 N   0  0  0  0  0  2  0  0  0  0  0  0
  160.5410  208.8170  155.2320 C   0  0  0  0  0  2  0  0  0  0  0  0
  162.1470  210.6430  155.6610 C   0  0  0  0  0  1  0  0  0  0  0  0
  160.7720  210.1100  156.0020 C   0  0  1  0  0  3  0  0  0  0  0  0
  158.4670  210.5700  155.5580 O   0  0  0  0  0  1  0  0  0  0  0  0
  159.7320  211.1540  155.6290 C   0  0  0  0  0  2  0  0  0  0  0  0
  2  4  1  0  0  0  0
  2  6  2  0  0  0  0
  3 19  1  6  0  0  0
  3  1  1  0  0  0  0
  4  9  1  6  0  0  0
  4  5  1  0  0  0  0
  5  1  1  0  0  0  0
  6  3  1  0  0  0  0
  7  9  2  0  0  0  0
  8 14  1  6  0  0  0
  8 17  1  0  0  0  0
  8 13  1  0  0  0  0
 10 12  1  0  0  0  0
 11 16  2  0  0  0  0
 13 12  1  6  0  0  0
 13  7  1  0  0  0  0
 15 14  2  0  0  0  0
 15 10  1  0  0  0  0
 16  9  1  0  0  0  0
 17 11  1  0  0  0  0
 18 17  2  0  0  0  0
 19 20  1  0  0  0  0
 20 21  1  0  0  0  0
 21 23  1  0  0  0  0
 23 22  1  6  0  0  0
 24 25  1  0  0  0  0
 25 23  1  0  0  0  0
M  END
>  <MODEL>
9

>  <REMARK>
 VINA RESULT:      -6.8      1.618      2.120
  Name = 
  6 active torsions:
  status: ('A' for Active; 'I' for Inactive)
    1  A    between atoms: C_1  and  C_9
    2  A    between atoms: C_1  and  N_15
    3  A    between atoms: C_5  and  N_15
    4  A    between atoms: C_5  and  C_17
    5  A    between atoms: C_8  and  C_17
    6  A    between atoms: C_11  and  C_12
                            x       y       z     vdW  Elec       q    Type
                         _______ _______ _______ _____ _____    ______ ____

>  <TORSDO>
F 6

$$$$
