=
 OpenBabel11052410533D

 28 31  0  0  1  0  0  0  0  0999 V2000
  161.5850  206.6380  148.6150 N   0  0  0  0  0  0  0  0  0  0  0  0
  162.0190  210.0000  149.2600 C   0  0  0  0  0  0  0  0  0  0  0  0
  162.2360  209.0570  148.3360 C   0  0  0  0  0  3  0  0  0  0  0  0
  161.6600  209.4460  150.6220 C   0  0  1  0  0  3  0  0  0  0  0  0
  161.7620  207.9980  150.3250 C   0  0  0  0  0  0  0  0  0  0  0  0
  160.9380  206.1530  149.7080 C   0  0  0  0  0  0  0  0  0  0  0  0
  162.1010  207.7980  149.0410 C   0  0  0  0  0  0  0  0  0  0  0  0
  162.7130  209.8320  151.6470 C   0  0  0  0  0  1  0  0  0  0  0  0
  160.9740  207.0000  150.7680 N   0  0  0  0  0  0  0  0  0  0  0  0
  162.2100  205.3370  144.5270 C   0  0  2  0  0  3  0  0  0  0  0  0
  163.6280  204.8780  147.4250 C   0  0  0  0  0  1  0  0  0  0  0  0
  162.1630  204.8160  147.0300 C   0  0  1  0  0  3  0  0  0  0  0  0
  161.0040  206.2100  144.3500 C   0  0  1  0  0  3  0  0  0  0  0  0
  161.4970  206.1950  147.2240 C   0  0  1  0  0  3  0  0  0  0  0  0
  161.2690  205.1160  143.5030 O   0  0  0  0  0  0  0  0  0  0  0  0
  162.0540  204.2570  145.6060 C   0  0  0  0  0  2  0  0  0  0  0  0
  159.8300  205.8610  145.2700 C   0  0  0  0  0  2  0  0  0  0  0  0
  160.0490  206.3130  146.7170 C   0  0  0  0  0  2  0  0  0  0  0  0
  162.0340  211.4040  148.9490 C   0  0  0  0  0  0  0  0  0  0  0  0
  162.0460  212.5330  148.6990 N   0  0  0  0  0  0  0  0  0  0  0  0
  160.1230  204.9000  149.7170 C   0  0  0  0  0  2  0  0  0  0  0  0
  160.7510  203.8250  150.6030 C   0  0  2  0  0  3  0  0  0  0  0  0
  161.8650  204.3570  151.2550 O   0  0  0  0  0  0  0  0  0  0  0  0
  161.5350  204.3590  152.5300 O   0  0  0  0  0  1  0  0  0  0  0  0
  161.1520  201.3140  150.7450 C   0  0  0  0  0  1  0  0  0  0  0  0
  161.1540  202.5450  149.8540 C   0  0  1  0  0  3  0  0  0  0  0  0
  161.0310  201.3320  147.7690 O   0  0  0  0  0  1  0  0  0  0  0  0
  160.4090  202.3160  148.5400 C   0  0  0  0  0  2  0  0  0  0  0  0
  1  7  1  0  0  0  0
  1  6  1  0  0  0  0
  2  4  1  0  0  0  0
  3  7  1  0  0  0  0
  3  2  2  0  0  0  0
  4  8  1  1  0  0  0
  5  4  1  0  0  0  0
  5  9  1  0  0  0  0
  6 21  1  0  0  0  0
  6  9  2  0  0  0  0
  7  5  2  0  0  0  0
 10 16  1  1  0  0  0
 12 14  1  0  0  0  0
 12 11  1  6  0  0  0
 13 10  1  0  0  0  0
 13 17  1  1  0  0  0
 14 18  1  1  0  0  0
 14  1  1  0  0  0  0
 15 13  1  0  0  0  0
 15 10  1  0  0  0  0
 16 12  1  0  0  0  0
 17 18  1  0  0  0  0
 19  2  1  0  0  0  0
 20 19  3  0  0  0  0
 22 21  1  6  0  0  0
 22 23  1  0  0  0  0
 23 24  1  0  0  0  0
 26 22  1  0  0  0  0
 26 25  1  1  0  0  0
 27 28  1  0  0  0  0
 28 26  1  0  0  0  0
M  END
>  <MODEL>
1

>  <REMARK>
 VINA RESULT:      -5.3      0.000      0.000
  Name = 
  7 active torsions:
  status: ('A' for Active; 'I' for Inactive)
    1  A    between atoms: C_1  and  C_4
    2  A    between atoms: O_2  and  C_26
    3  A    between atoms: N_3  and  C_20
    4  A    between atoms: C_5  and  C_15
    5  A    between atoms: C_5  and  C_26
    6  A    between atoms: C_14  and  C_23
    7  A    between atoms: C_14  and  C_26
                            x       y       z     vdW  Elec       q    Type
                         _______ _______ _______ _____ _____    ______ ____

>  <TORSDO>
F 7

$$$$
=
 OpenBabel11052410533D

 28 31  0  0  1  0  0  0  0  0999 V2000
  161.2940  204.5150  149.1090 N   0  0  0  0  0  0  0  0  0  0  0  0
  161.4700  207.1490  151.3320 C   0  0  0  0  0  0  0  0  0  0  0  0
  161.8360  206.7670  150.1030 C   0  0  0  0  0  3  0  0  0  0  0  0
  161.0000  206.0080  152.2090 C   0  0  1  0  0  3  0  0  0  0  0  0
  161.2130  204.8820  151.2690 C   0  0  0  0  0  0  0  0  0  0  0  0
  160.5620  203.5650  149.7510 C   0  0  0  0  0  0  0  0  0  0  0  0
  161.6970  205.3250  150.0980 C   0  0  0  0  0  0  0  0  0  0  0  0
  161.9160  205.8490  153.4110 C   0  0  0  0  0  1  0  0  0  0  0  0
  160.4380  203.7960  151.0830 N   0  0  0  0  0  0  0  0  0  0  0  0
  160.6710  205.4780  144.9290 C   0  0  2  0  0  3  0  0  0  0  0  0
  159.4790  206.4380  147.8070 C   0  0  0  0  0  1  0  0  0  0  0  0
  160.9160  206.2350  147.3590 C   0  0  1  0  0  3  0  0  0  0  0  0
  161.7240  204.4180  144.8060 C   0  0  1  0  0  3  0  0  0  0  0  0
  161.3790  204.7980  147.6770 C   0  0  1  0  0  3  0  0  0  0  0  0
  161.5830  205.4490  143.8560 O   0  0  0  0  0  0  0  0  0  0  0  0
  161.0380  206.6250  145.8800 C   0  0  0  0  0  2  0  0  0  0  0  0
  162.9810  204.6740  145.6450 C   0  0  0  0  0  2  0  0  0  0  0  0
  162.7680  204.4090  147.1380 C   0  0  0  0  0  2  0  0  0  0  0  0
  161.4410  208.5290  151.7360 C   0  0  0  0  0  0  0  0  0  0  0  0
  161.4170  209.6380  152.0610 N   0  0  0  0  0  0  0  0  0  0  0  0
  159.8210  202.4650  149.0610 C   0  0  0  0  0  2  0  0  0  0  0  0
  160.7160  201.2510  148.8120 C   0  0  2  0  0  3  0  0  0  0  0  0
  161.8070  201.2980  149.6810 O   0  0  0  0  0  0  0  0  0  0  0  0
  161.3910  200.6900  150.7720 O   0  0  0  0  0  1  0  0  0  0  0  0
  161.6280  199.7020  147.0090 C   0  0  0  0  0  1  0  0  0  0  0  0
  161.2140  201.1200  147.3640 C   0  0  1  0  0  3  0  0  0  0  0  0
  160.2710  200.9780  145.1450 O   0  0  0  0  0  1  0  0  0  0  0  0
  160.2900  201.7380  146.3160 C   0  0  0  0  0  2  0  0  0  0  0  0
  1  6  1  0  0  0  0
  1  7  1  0  0  0  0
  2 19  1  0  0  0  0
  2  4  1  0  0  0  0
  3  2  2  0  0  0  0
  4  8  1  1  0  0  0
  5  4  1  0  0  0  0
  6  9  2  0  0  0  0
  7  3  1  0  0  0  0
  7  5  2  0  0  0  0
  9  5  1  0  0  0  0
 10 16  1  1  0  0  0
 12 14  1  0  0  0  0
 12 11  1  6  0  0  0
 13 10  1  0  0  0  0
 13 17  1  1  0  0  0
 14 18  1  1  0  0  0
 14  1  1  0  0  0  0
 15 13  1  0  0  0  0
 15 10  1  0  0  0  0
 16 12  1  0  0  0  0
 17 18  1  0  0  0  0
 19 20  3  0  0  0  0
 21  6  1  0  0  0  0
 22 21  1  6  0  0  0
 22 23  1  0  0  0  0
 23 24  1  0  0  0  0
 26 25  1  6  0  0  0
 26 22  1  0  0  0  0
 27 28  1  0  0  0  0
 28 26  1  0  0  0  0
M  END
>  <MODEL>
2

>  <REMARK>
 VINA RESULT:      -5.2      2.127      3.146
  Name = 
  7 active torsions:
  status: ('A' for Active; 'I' for Inactive)
    1  A    between atoms: C_1  and  C_4
    2  A    between atoms: O_2  and  C_26
    3  A    between atoms: N_3  and  C_20
    4  A    between atoms: C_5  and  C_15
    5  A    between atoms: C_5  and  C_26
    6  A    between atoms: C_14  and  C_23
    7  A    between atoms: C_14  and  C_26
                            x       y       z     vdW  Elec       q    Type
                         _______ _______ _______ _____ _____    ______ ____

>  <TORSDO>
F 7

$$$$
=
 OpenBabel11052410533D

 28 31  0  0  1  0  0  0  0  0999 V2000
  161.5070  206.9010  149.7340 N   0  0  0  0  0  0  0  0  0  0  0  0
  161.5590  209.5930  151.8930 C   0  0  0  0  0  0  0  0  0  0  0  0
  161.0930  208.3460  151.7580 C   0  0  0  0  0  3  0  0  0  0  0  0
  162.0660  210.1970  150.6010 C   0  0  1  0  0  3  0  0  0  0  0  0
  161.7580  209.0780  149.6790 C   0  0  0  0  0  0  0  0  0  0  0  0
  162.2630  207.2900  148.6730 C   0  0  0  0  0  0  0  0  0  0  0  0
  161.1980  208.0540  150.3420 C   0  0  0  0  0  0  0  0  0  0  0  0
  161.2400  211.4140  150.2220 C   0  0  0  0  0  1  0  0  0  0  0  0
  162.4910  208.6280  148.6420 N   0  0  0  0  0  0  0  0  0  0  0  0
  161.7850  203.0340  151.6730 C   0  0  2  0  0  3  0  0  0  0  0  0
  162.8160  206.0730  152.2420 C   0  0  0  0  0  1  0  0  0  0  0  0
  161.4470  205.5640  151.8250 C   0  0  1  0  0  3  0  0  0  0  0  0
  160.9880  202.6680  150.4570 C   0  0  1  0  0  3  0  0  0  0  0  0
  161.3220  205.5600  150.2880 C   0  0  1  0  0  3  0  0  0  0  0  0
  160.8720  201.9620  151.6700 O   0  0  0  0  0  0  0  0  0  0  0  0
  161.2020  204.2000  152.4820 C   0  0  0  0  0  2  0  0  0  0  0  0
  159.7300  203.5170  150.2460 C   0  0  0  0  0  2  0  0  0  0  0  0
  160.0380  204.9240  149.7250 C   0  0  0  0  0  2  0  0  0  0  0  0
  161.6500  210.2490  153.1690 C   0  0  0  0  0  0  0  0  0  0  0  0
  161.7230  210.7760  154.1960 N   0  0  0  0  0  0  0  0  0  0  0  0
  162.9250  206.3480  147.7190 C   0  0  0  0  0  2  0  0  0  0  0  0
  162.0860  206.1370  146.4600 C   0  0  2  0  0  3  0  0  0  0  0  0
  160.7620  206.4930  146.7240 O   0  0  0  0  0  0  0  0  0  0  0  0
  160.1610  206.4320  145.5530 O   0  0  0  0  0  1  0  0  0  0  0  0
  163.5130  204.3140  145.4000 C   0  0  0  0  0  1  0  0  0  0  0  0
  162.1330  204.7070  145.9000 C   0  0  1  0  0  3  0  0  0  0  0  0
  161.0930  202.5350  146.0850 O   0  0  0  0  0  1  0  0  0  0  0  0
  161.5200  203.6460  146.8140 C   0  0  0  0  0  2  0  0  0  0  0  0
  1 14  1  0  0  0  0
  1  7  1  0  0  0  0
  2 19  1  0  0  0  0
  3  2  2  0  0  0  0
  4  8  1  6  0  0  0
  4  2  1  0  0  0  0
  5  7  2  0  0  0  0
  5  4  1  0  0  0  0
  6  1  1  0  0  0  0
  7  3  1  0  0  0  0
  9  6  2  0  0  0  0
  9  5  1  0  0  0  0
 10 16  1  1  0  0  0
 12 11  1  6  0  0  0
 12 16  1  0  0  0  0
 13 17  1  1  0  0  0
 13 15  1  0  0  0  0
 13 10  1  0  0  0  0
 14 18  1  1  0  0  0
 14 12  1  0  0  0  0
 15 10  1  0  0  0  0
 18 17  1  0  0  0  0
 19 20  3  0  0  0  0
 21  6  1  0  0  0  0
 22 23  1  0  0  0  0
 22 21  1  1  0  0  0
 24 23  1  0  0  0  0
 26 25  1  1  0  0  0
 26 22  1  0  0  0  0
 26 28  1  0  0  0  0
 27 28  1  0  0  0  0
M  END
>  <MODEL>
3

>  <REMARK>
 VINA RESULT:      -5.1      1.948      4.728
  Name = 
  7 active torsions:
  status: ('A' for Active; 'I' for Inactive)
    1  A    between atoms: C_1  and  C_4
    2  A    between atoms: O_2  and  C_26
    3  A    between atoms: N_3  and  C_20
    4  A    between atoms: C_5  and  C_15
    5  A    between atoms: C_5  and  C_26
    6  A    between atoms: C_14  and  C_23
    7  A    between atoms: C_14  and  C_26
                            x       y       z     vdW  Elec       q    Type
                         _______ _______ _______ _____ _____    ______ ____

>  <TORSDO>
F 7

$$$$
=
 OpenBabel11052410533D

 28 31  0  0  1  0  0  0  0  0999 V2000
  161.5960  206.7330  148.5550 N   0  0  0  0  0  0  0  0  0  0  0  0
  162.0550  210.1000  149.1540 C   0  0  0  0  0  0  0  0  0  0  0  0
  162.2700  209.1410  148.2450 C   0  0  0  0  0  3  0  0  0  0  0  0
  161.6850  209.5680  150.5230 C   0  0  1  0  0  3  0  0  0  0  0  0
  161.7750  208.1160  150.2460 C   0  0  0  0  0  0  0  0  0  0  0  0
  160.9380  206.2690  149.6520 C   0  0  0  0  0  0  0  0  0  0  0  0
  162.1200  207.8940  148.9680 C   0  0  0  0  0  0  0  0  0  0  0  0
  162.7360  209.9600  151.5480 C   0  0  0  0  0  1  0  0  0  0  0  0
  160.9760  207.1310  150.7000 N   0  0  0  0  0  0  0  0  0  0  0  0
  162.2310  205.3950  144.4810 C   0  0  2  0  0  3  0  0  0  0  0  0
  163.6720  205.0030  147.3780 C   0  0  0  0  0  1  0  0  0  0  0  0
  162.2070  204.9040  146.9900 C   0  0  1  0  0  3  0  0  0  0  0  0
  161.0060  206.2390  144.2980 C   0  0  1  0  0  3  0  0  0  0  0  0
  161.5120  206.2700  147.1700 C   0  0  1  0  0  3  0  0  0  0  0  0
  161.2920  205.1410  143.4640 O   0  0  0  0  0  0  0  0  0  0  0  0
  162.1040  204.3250  145.5740 C   0  0  0  0  0  2  0  0  0  0  0  0
  159.8440  205.8760  145.2280 C   0  0  0  0  0  2  0  0  0  0  0  0
  160.0590  206.3510  146.6690 C   0  0  0  0  0  2  0  0  0  0  0  0
  162.0850  211.4990  148.8230 C   0  0  0  0  0  0  0  0  0  0  0  0
  162.1090  212.6240  148.5570 N   0  0  0  0  0  0  0  0  0  0  0  0
  160.1120  205.0230  149.6740 C   0  0  0  0  0  2  0  0  0  0  0  0
  160.9590  203.7900  149.9860 C   0  0  2  0  0  3  0  0  0  0  0  0
  160.4030  202.6770  149.3530 O   0  0  0  0  0  0  0  0  0  0  0  0
  161.3100  202.3090  148.4710 O   0  0  0  0  0  1  0  0  0  0  0  0
  161.5370  202.0660  151.7690 C   0  0  0  0  0  1  0  0  0  0  0  0
  161.1250  203.5010  151.4860 C   0  0  1  0  0  3  0  0  0  0  0  0
  161.2720  205.1180  153.2750 O   0  0  0  0  0  1  0  0  0  0  0  0
  161.9870  204.5150  152.2380 C   0  0  0  0  0  2  0  0  0  0  0  0
  1  7  1  0  0  0  0
  1  6  1  0  0  0  0
  2  4  1  0  0  0  0
  3  7  1  0  0  0  0
  3  2  2  0  0  0  0
  4  8  1  1  0  0  0
  5  4  1  0  0  0  0
  5  9  1  0  0  0  0
  6 21  1  0  0  0  0
  6  9  2  0  0  0  0
  7  5  2  0  0  0  0
 10 16  1  1  0  0  0
 12 14  1  0  0  0  0
 12 11  1  6  0  0  0
 13 10  1  0  0  0  0
 13 17  1  1  0  0  0
 14 18  1  1  0  0  0
 14  1  1  0  0  0  0
 15 13  1  0  0  0  0
 15 10  1  0  0  0  0
 16 12  1  0  0  0  0
 17 18  1  0  0  0  0
 19  2  1  0  0  0  0
 20 19  3  0  0  0  0
 22 21  1  1  0  0  0
 22 26  1  0  0  0  0
 23 22  1  0  0  0  0
 24 23  1  0  0  0  0
 26 25  1  6  0  0  0
 26 28  1  0  0  0  0
 28 27  1  0  0  0  0
M  END
>  <MODEL>
4

>  <REMARK>
 VINA RESULT:      -4.8      0.766      1.900
  Name = 
  7 active torsions:
  status: ('A' for Active; 'I' for Inactive)
    1  A    between atoms: C_1  and  C_4
    2  A    between atoms: O_2  and  C_26
    3  A    between atoms: N_3  and  C_20
    4  A    between atoms: C_5  and  C_15
    5  A    between atoms: C_5  and  C_26
    6  A    between atoms: C_14  and  C_23
    7  A    between atoms: C_14  and  C_26
                            x       y       z     vdW  Elec       q    Type
                         _______ _______ _______ _____ _____    ______ ____

>  <TORSDO>
F 7

$$$$
=
 OpenBabel11052410533D

 28 31  0  0  1  0  0  0  0  0999 V2000
  161.6160  206.2220  149.1150 N   0  0  0  0  0  0  0  0  0  0  0  0
  162.0290  209.6340  149.4280 C   0  0  0  0  0  0  0  0  0  0  0  0
  162.3170  208.5950  148.6350 C   0  0  0  0  0  3  0  0  0  0  0  0
  161.5450  209.2310  150.8050 C   0  0  1  0  0  3  0  0  0  0  0  0
  161.6560  207.7600  150.6760 C   0  0  0  0  0  0  0  0  0  0  0  0
  160.8680  205.8600  150.1920 C   0  0  0  0  0  0  0  0  0  0  0  0
  162.1060  207.4210  149.4580 C   0  0  0  0  0  0  0  0  0  0  0  0
  162.5070  209.7250  151.8720 C   0  0  0  0  0  1  0  0  0  0  0  0
  160.8200  206.8170  151.1530 N   0  0  0  0  0  0  0  0  0  0  0  0
  160.8290  204.4140  145.2540 C   0  0  2  0  0  3  0  0  0  0  0  0
  159.3880  206.5780  147.2190 C   0  0  0  0  0  1  0  0  0  0  0  0
  160.8350  206.4720  146.7720 C   0  0  1  0  0  3  0  0  0  0  0  0
  162.1210  203.7400  145.6080 C   0  0  1  0  0  3  0  0  0  0  0  0
  161.6470  205.6300  147.7770 C   0  0  1  0  0  3  0  0  0  0  0  0
  161.7340  203.9670  144.2720 O   0  0  0  0  0  0  0  0  0  0  0  0
  160.8740  205.9460  145.3310 C   0  0  0  0  0  2  0  0  0  0  0  0
  163.2570  204.7030  145.9720 C   0  0  0  0  0  2  0  0  0  0  0  0
  163.0970  205.3150  147.3670 C   0  0  0  0  0  2  0  0  0  0  0  0
  162.0880  210.9950  148.9700 C   0  0  0  0  0  0  0  0  0  0  0  0
  162.1360  212.0900  148.6020 N   0  0  0  0  0  0  0  0  0  0  0  0
  160.0420  204.6160  150.2640 C   0  0  0  0  0  2  0  0  0  0  0  0
  160.8120  203.4620  150.9040 C   0  0  2  0  0  3  0  0  0  0  0  0
  161.9550  203.9630  151.5310 O   0  0  0  0  0  0  0  0  0  0  0  0
  161.5840  204.1770  152.7760 O   0  0  0  0  0  1  0  0  0  0  0  0
  161.2060  200.9690  150.5660 C   0  0  0  0  0  1  0  0  0  0  0  0
  161.2080  202.3470  149.9240 C   0  0  1  0  0  3  0  0  0  0  0  0
  160.9010  201.3600  147.7410 O   0  0  0  0  0  1  0  0  0  0  0  0
  160.4560  202.3720  148.5940 C   0  0  0  0  0  2  0  0  0  0  0  0
  1  7  1  0  0  0  0
  1  6  1  0  0  0  0
  2  4  1  0  0  0  0
  3  2  2  0  0  0  0
  3  7  1  0  0  0  0
  4  8  1  1  0  0  0
  5  4  1  0  0  0  0
  5  9  1  0  0  0  0
  6 21  1  0  0  0  0
  6  9  2  0  0  0  0
  7  5  2  0  0  0  0
 10 16  1  1  0  0  0
 10 13  1  0  0  0  0
 12 11  1  1  0  0  0
 12 14  1  0  0  0  0
 13 17  1  1  0  0  0
 14 18  1  6  0  0  0
 14  1  1  0  0  0  0
 15 10  1  0  0  0  0
 15 13  1  0  0  0  0
 16 12  1  0  0  0  0
 17 18  1  0  0  0  0
 19  2  1  0  0  0  0
 20 19  3  0  0  0  0
 22 21  1  6  0  0  0
 22 23  1  0  0  0  0
 23 24  1  0  0  0  0
 26 25  1  1  0  0  0
 26 22  1  0  0  0  0
 27 28  1  0  0  0  0
 28 26  1  0  0  0  0
M  END
>  <MODEL>
5

>  <REMARK>
 VINA RESULT:      -4.6      0.708      1.612
  Name = 
  7 active torsions:
  status: ('A' for Active; 'I' for Inactive)
    1  A    between atoms: C_1  and  C_4
    2  A    between atoms: O_2  and  C_26
    3  A    between atoms: N_3  and  C_20
    4  A    between atoms: C_5  and  C_15
    5  A    between atoms: C_5  and  C_26
    6  A    between atoms: C_14  and  C_23
    7  A    between atoms: C_14  and  C_26
                            x       y       z     vdW  Elec       q    Type
                         _______ _______ _______ _____ _____    ______ ____

>  <TORSDO>
F 7

$$$$
=
 OpenBabel11052410533D

 28 31  0  0  1  0  0  0  0  0999 V2000
  161.3540  207.3400  151.2010 N   0  0  0  0  0  0  0  0  0  0  0  0
  160.8650  208.9480  154.2160 C   0  0  0  0  0  0  0  0  0  0  0  0
  160.5450  207.8400  153.5350 C   0  0  0  0  0  3  0  0  0  0  0  0
  161.4720  210.0360  153.3560 C   0  0  1  0  0  3  0  0  0  0  0  0
  161.3960  209.3670  152.0360 C   0  0  0  0  0  0  0  0  0  0  0  0
  162.1980  208.1500  150.5060 C   0  0  0  0  0  0  0  0  0  0  0  0
  160.8580  208.1420  152.1530 C   0  0  0  0  0  0  0  0  0  0  0  0
  160.5860  211.2690  153.3560 C   0  0  0  0  0  1  0  0  0  0  0  0
  162.2960  209.3970  151.0350 N   0  0  0  0  0  0  0  0  0  0  0  0
  161.7430  203.0360  151.5300 C   0  0  2  0  0  3  0  0  0  0  0  0
  162.3250  205.6390  153.4030 C   0  0  0  0  0  1  0  0  0  0  0  0
  161.1060  205.2830  152.5690 C   0  0  1  0  0  3  0  0  0  0  0  0
  161.1990  203.1500  150.1380 C   0  0  1  0  0  3  0  0  0  0  0  0
  161.2320  205.8830  151.1530 C   0  0  1  0  0  3  0  0  0  0  0  0
  160.9670  202.0170  150.9430 O   0  0  0  0  0  0  0  0  0  0  0  0
  160.9110  203.7620  152.5950 C   0  0  0  0  0  2  0  0  0  0  0  0
  159.9050  203.9640  150.0300 C   0  0  0  0  0  2  0  0  0  0  0  0
  160.1350  205.4730  150.1550 C   0  0  0  0  0  2  0  0  0  0  0  0
  160.7270  209.0430  155.6440 C   0  0  0  0  0  0  0  0  0  0  0  0
  160.6170  209.1200  156.7920 N   0  0  0  0  0  0  0  0  0  0  0  0
  163.0650  207.6920  149.3780 C   0  0  0  0  0  2  0  0  0  0  0  0
  162.3310  207.7590  148.0400 C   0  0  2  0  0  3  0  0  0  0  0  0
  161.3000  208.6950  148.1260 O   0  0  0  0  0  0  0  0  0  0  0  0
  161.9040  209.8630  148.0540 O   0  0  0  0  0  1  0  0  0  0  0  0
  160.5550  206.5670  146.6570 C   0  0  0  0  0  1  0  0  0  0  0  0
  161.7670  206.4120  147.5610 C   0  0  1  0  0  3  0  0  0  0  0  0
  162.3190  204.1500  146.9180 O   0  0  0  0  0  1  0  0  0  0  0  0
  162.8090  205.4560  146.9820 C   0  0  0  0  0  2  0  0  0  0  0  0
  1  7  1  0  0  0  0
  2 19  1  0  0  0  0
  3  2  2  0  0  0  0
  4  8  1  6  0  0  0
  4  2  1  0  0  0  0
  5  7  2  0  0  0  0
  5  4  1  0  0  0  0
  6  9  2  0  0  0  0
  6  1  1  0  0  0  0
  7  3  1  0  0  0  0
  9  5  1  0  0  0  0
 10 16  1  1  0  0  0
 12 16  1  0  0  0  0
 12 11  1  1  0  0  0
 13 17  1  1  0  0  0
 13 15  1  0  0  0  0
 13 10  1  0  0  0  0
 14 18  1  6  0  0  0
 14  1  1  0  0  0  0
 14 12  1  0  0  0  0
 15 10  1  0  0  0  0
 17 18  1  0  0  0  0
 19 20  3  0  0  0  0
 21  6  1  0  0  0  0
 22 23  1  0  0  0  0
 22 21  1  1  0  0  0
 24 23  1  0  0  0  0
 26 25  1  6  0  0  0
 26 22  1  0  0  0  0
 27 28  1  0  0  0  0
 28 26  1  0  0  0  0
M  END
>  <MODEL>
6

>  <REMARK>
 VINA RESULT:      -4.4      2.883      5.331
  Name = 
  7 active torsions:
  status: ('A' for Active; 'I' for Inactive)
    1  A    between atoms: C_1  and  C_4
    2  A    between atoms: O_2  and  C_26
    3  A    between atoms: N_3  and  C_20
    4  A    between atoms: C_5  and  C_15
    5  A    between atoms: C_5  and  C_26
    6  A    between atoms: C_14  and  C_23
    7  A    between atoms: C_14  and  C_26
                            x       y       z     vdW  Elec       q    Type
                         _______ _______ _______ _____ _____    ______ ____

>  <TORSDO>
F 7

$$$$
=
 OpenBabel11052410533D

 28 31  0  0  1  0  0  0  0  0999 V2000
  160.8740  210.4340  152.0430 N   0  0  0  0  0  0  0  0  0  0  0  0
  161.1260  207.1550  150.9980 C   0  0  0  0  0  0  0  0  0  0  0  0
  160.8810  207.9140  152.0720 C   0  0  0  0  0  3  0  0  0  0  0  0
  161.7320  207.9190  149.8390 C   0  0  1  0  0  3  0  0  0  0  0  0
  161.8390  209.2570  150.4660 C   0  0  0  0  0  0  0  0  0  0  0  0
  161.0810  211.1760  150.9210 C   0  0  0  0  0  0  0  0  0  0  0  0
  161.3720  209.2320  151.7250 C   0  0  0  0  0  0  0  0  0  0  0  0
  163.1200  207.3900  149.5220 C   0  0  0  0  0  1  0  0  0  0  0  0
  161.6210  210.4600  149.9020 N   0  0  0  0  0  0  0  0  0  0  0  0
  158.9690  210.8170  155.9180 C   0  0  2  0  0  3  0  0  0  0  0  0
  162.0060  210.5810  154.7600 C   0  0  0  0  0  1  0  0  0  0  0  0
  160.8490  211.4540  154.3060 C   0  0  1  0  0  3  0  0  0  0  0  0
  157.7630  210.7980  155.0270 C   0  0  1  0  0  3  0  0  0  0  0  0
  160.0390  210.7400  153.2050 C   0  0  1  0  0  3  0  0  0  0  0  0
  157.7690  211.4660  156.2670 O   0  0  0  0  0  0  0  0  0  0  0  0
  160.0230  211.8630  155.5320 C   0  0  0  0  0  2  0  0  0  0  0  0
  157.7960  211.8330  153.8970 C   0  0  0  0  0  2  0  0  0  0  0  0
  158.7470  211.4490  152.7600 C   0  0  0  0  0  2  0  0  0  0  0  0
  160.7550  205.7680  150.9310 C   0  0  0  0  0  0  0  0  0  0  0  0
  160.4570  204.6520  150.8780 N   0  0  0  0  0  0  0  0  0  0  0  0
  160.6190  212.5870  150.7470 C   0  0  0  0  0  2  0  0  0  0  0  0
  160.5960  212.9950  149.2750 C   0  0  2  0  0  3  0  0  0  0  0  0
  161.6830  213.8300  149.0110 O   0  0  0  0  0  0  0  0  0  0  0  0
  162.3530  213.2130  148.0600 O   0  0  0  0  0  1  0  0  0  0  0  0
  158.8070  213.2050  147.4740 C   0  0  0  0  0  1  0  0  0  0  0  0
  159.2970  213.6840  148.8300 C   0  0  1  0  0  3  0  0  0  0  0  0
  157.0800  212.9540  149.4560 O   0  0  0  0  0  1  0  0  0  0  0  0
  158.1880  213.6900  149.8820 C   0  0  0  0  0  2  0  0  0  0  0  0
  2  3  2  0  0  0  0
  4  8  1  1  0  0  0
  4  5  1  0  0  0  0
  4  2  1  0  0  0  0
  5  7  2  0  0  0  0
  6  1  1  0  0  0  0
  7  1  1  0  0  0  0
  7  3  1  0  0  0  0
  9  5  1  0  0  0  0
  9  6  2  0  0  0  0
 10 16  1  6  0  0  0
 10 15  1  0  0  0  0
 12 11  1  1  0  0  0
 12 16  1  0  0  0  0
 13 17  1  6  0  0  0
 13 10  1  0  0  0  0
 13 15  1  0  0  0  0
 14  1  1  6  0  0  0
 14 12  1  0  0  0  0
 18 14  1  0  0  0  0
 18 17  1  0  0  0  0
 19  2  1  0  0  0  0
 20 19  3  0  0  0  0
 21  6  1  0  0  0  0
 22 21  1  1  0  0  0
 23 22  1  0  0  0  0
 24 23  1  0  0  0  0
 26 25  1  6  0  0  0
 26 22  1  0  0  0  0
 26 28  1  0  0  0  0
 27 28  1  0  0  0  0
M  END
>  <MODEL>
7

>  <REMARK>
 VINA RESULT:      -4.2      4.849      8.984
  Name = 
  7 active torsions:
  status: ('A' for Active; 'I' for Inactive)
    1  A    between atoms: C_1  and  C_4
    2  A    between atoms: O_2  and  C_26
    3  A    between atoms: N_3  and  C_20
    4  A    between atoms: C_5  and  C_15
    5  A    between atoms: C_5  and  C_26
    6  A    between atoms: C_14  and  C_23
    7  A    between atoms: C_14  and  C_26
                            x       y       z     vdW  Elec       q    Type
                         _______ _______ _______ _____ _____    ______ ____

>  <TORSDO>
F 7

$$$$
=
 OpenBabel11052410533D

 28 31  0  0  1  0  0  0  0  0999 V2000
  159.2000  211.1800  139.6230 N   0  0  0  0  0  0  0  0  0  0  0  0
  156.0710  212.5530  139.1400 C   0  0  0  0  0  0  0  0  0  0  0  0
  157.1370  212.5910  139.9480 C   0  0  0  0  0  3  0  0  0  0  0  0
  156.0530  211.3560  138.2120 C   0  0  1  0  0  3  0  0  0  0  0  0
  157.2890  210.6800  138.6730 C   0  0  0  0  0  0  0  0  0  0  0  0
  159.3690  210.3200  138.5820 C   0  0  0  0  0  0  0  0  0  0  0  0
  157.8760  211.3790  139.6580 C   0  0  0  0  0  0  0  0  0  0  0  0
  154.8500  210.4760  138.5030 C   0  0  0  0  0  1  0  0  0  0  0  0
  158.2120  210.0380  137.9310 N   0  0  0  0  0  0  0  0  0  0  0  0
  162.5180  213.6350  140.9470 C   0  0  2  0  0  3  0  0  0  0  0  0
  160.4730  213.5450  138.4110 C   0  0  0  0  0  1  0  0  0  0  0  0
  160.1940  213.4380  139.9000 C   0  0  1  0  0  3  0  0  0  0  0  0
  162.4620  212.6340  142.0630 C   0  0  1  0  0  3  0  0  0  0  0  0
  160.2060  211.9600  140.3430 C   0  0  1  0  0  3  0  0  0  0  0  0
  162.9370  213.9470  142.2550 O   0  0  0  0  0  0  0  0  0  0  0  0
  161.1820  214.3330  140.6580 C   0  0  0  0  0  2  0  0  0  0  0  0
  161.0850  212.4950  142.7200 C   0  0  0  0  0  2  0  0  0  0  0  0
  160.0870  211.7160  141.8580 C   0  0  0  0  0  2  0  0  0  0  0  0
  155.0920  213.6050  139.1030 C   0  0  0  0  0  0  0  0  0  0  0  0
  154.3050  214.4520  139.0730 N   0  0  0  0  0  0  0  0  0  0  0  0
  160.6980  209.8530  138.0830 C   0  0  0  0  0  2  0  0  0  0  0  0
  161.3810  208.9220  139.0850 C   0  0  2  0  0  3  0  0  0  0  0  0
  162.6070  209.4720  139.4640 O   0  0  0  0  0  0  0  0  0  0  0  0
  162.7100  210.5770  138.7540 O   0  0  0  0  0  1  0  0  0  0  0  0
  162.2410  207.4450  137.1970 C   0  0  0  0  0  1  0  0  0  0  0  0
  161.5960  207.4900  138.5710 C   0  0  1  0  0  3  0  0  0  0  0  0
  161.8750  206.8240  140.8770 O   0  0  0  0  0  1  0  0  0  0  0  0
  162.2790  206.5530  139.5680 C   0  0  0  0  0  2  0  0  0  0  0  0
  1  7  1  0  0  0  0
  2  3  2  0  0  0  0
  4  8  1  1  0  0  0
  4  5  1  0  0  0  0
  4  2  1  0  0  0  0
  5  7  2  0  0  0  0
  6  1  1  0  0  0  0
  7  3  1  0  0  0  0
  9  6  2  0  0  0  0
  9  5  1  0  0  0  0
 10 16  1  1  0  0  0
 10 13  1  0  0  0  0
 10 15  1  0  0  0  0
 12 11  1  6  0  0  0
 12 14  1  0  0  0  0
 12 16  1  0  0  0  0
 13 15  1  0  0  0  0
 13 17  1  1  0  0  0
 14  1  1  6  0  0  0
 14 18  1  0  0  0  0
 18 17  1  0  0  0  0
 19  2  1  0  0  0  0
 20 19  3  0  0  0  0
 21  6  1  0  0  0  0
 22 21  1  6  0  0  0
 22 23  1  0  0  0  0
 24 23  1  0  0  0  0
 26 25  1  6  0  0  0
 26 22  1  0  0  0  0
 26 28  1  0  0  0  0
 28 27  1  0  0  0  0
M  END
>  <MODEL>
8

>  <REMARK>
 VINA RESULT:      -4.1      8.870     11.633
  Name = 
  7 active torsions:
  status: ('A' for Active; 'I' for Inactive)
    1  A    between atoms: C_1  and  C_4
    2  A    between atoms: O_2  and  C_26
    3  A    between atoms: N_3  and  C_20
    4  A    between atoms: C_5  and  C_15
    5  A    between atoms: C_5  and  C_26
    6  A    between atoms: C_14  and  C_23
    7  A    between atoms: C_14  and  C_26
                            x       y       z     vdW  Elec       q    Type
                         _______ _______ _______ _____ _____    ______ ____

>  <TORSDO>
F 7

$$$$
=
 OpenBabel11052410533D

 28 31  0  0  1  0  0  0  0  0999 V2000
  161.3110  210.3000  153.1410 N   0  0  0  0  0  0  0  0  0  0  0  0
  161.9560  208.9540  150.0290 C   0  0  0  0  0  0  0  0  0  0  0  0
  162.1060  208.7270  151.3390 C   0  0  0  0  0  3  0  0  0  0  0  0
  161.5780  210.3830  149.6990 C   0  0  1  0  0  3  0  0  0  0  0  0
  161.5870  210.9530  151.0670 C   0  0  0  0  0  0  0  0  0  0  0  0
  160.6450  211.4600  152.8890 C   0  0  0  0  0  0  0  0  0  0  0  0
  161.9010  210.0140  151.9730 C   0  0  0  0  0  0  0  0  0  0  0  0
  162.6630  211.0400  148.8640 C   0  0  0  0  0  1  0  0  0  0  0  0
  160.7440  211.8610  151.5960 N   0  0  0  0  0  0  0  0  0  0  0  0
  161.7780  207.8270  156.6700 C   0  0  2  0  0  3  0  0  0  0  0  0
  162.8500  210.7200  155.6190 C   0  0  0  0  0  1  0  0  0  0  0  0
  161.4490  210.1320  155.6140 C   0  0  1  0  0  3  0  0  0  0  0  0
  160.8730  206.9570  155.8510 C   0  0  1  0  0  3  0  0  0  0  0  0
  161.1810  209.3970  154.2840 C   0  0  1  0  0  3  0  0  0  0  0  0
  160.8720  206.9240  157.2590 O   0  0  0  0  0  0  0  0  0  0  0  0
  161.2700  209.2620  156.8640 C   0  0  0  0  0  2  0  0  0  0  0  0
  159.5990  207.6530  155.3620 C   0  0  0  0  0  2  0  0  0  0  0  0
  159.8530  208.6240  154.2050 C   0  0  0  0  0  2  0  0  0  0  0  0
  162.0540  207.9090  149.0470 C   0  0  0  0  0  0  0  0  0  0  0  0
  162.1340  207.0680  148.2570 N   0  0  0  0  0  0  0  0  0  0  0  0
  159.7550  212.1500  153.8710 C   0  0  0  0  0  2  0  0  0  0  0  0
  158.2780  211.9230  153.5520 C   0  0  2  0  0  3  0  0  0  0  0  0
  157.7040  213.1280  153.1440 O   0  0  0  0  0  0  0  0  0  0  0  0
  157.6340  213.0360  151.8320 O   0  0  0  0  0  1  0  0  0  0  0  0
  158.0720  211.6290  156.0730 C   0  0  0  0  0  1  0  0  0  0  0  0
  157.4640  211.3300  154.7130 C   0  0  1  0  0  3  0  0  0  0  0  0
  155.2120  210.4650  154.5900 O   0  0  0  0  0  1  0  0  0  0  0  0
  155.9680  211.6370  154.6610 C   0  0  0  0  0  2  0  0  0  0  0  0
  2  3  2  0  0  0  0
  3  7  1  0  0  0  0
  4  8  1  6  0  0  0
  4  2  1  0  0  0  0
  4  5  1  0  0  0  0
  5  9  1  0  0  0  0
  5  7  2  0  0  0  0
  6  1  1  0  0  0  0
  6 21  1  0  0  0  0
  7  1  1  0  0  0  0
  9  6  2  0  0  0  0
 10 16  1  1  0  0  0
 10 15  1  0  0  0  0
 12 11  1  6  0  0  0
 12 16  1  0  0  0  0
 13 17  1  1  0  0  0
 13 10  1  0  0  0  0
 13 15  1  0  0  0  0
 14  1  1  6  0  0  0
 14 12  1  0  0  0  0
 18 14  1  0  0  0  0
 18 17  1  0  0  0  0
 19  2  1  0  0  0  0
 20 19  3  0  0  0  0
 22 21  1  1  0  0  0
 22 26  1  0  0  0  0
 23 22  1  0  0  0  0
 24 23  1  0  0  0  0
 26 25  1  1  0  0  0
 27 28  1  0  0  0  0
 28 26  1  0  0  0  0
M  END
>  <MODEL>
9

>  <REMARK>
 VINA RESULT:      -4.1      4.980      8.767
  Name = 
  7 active torsions:
  status: ('A' for Active; 'I' for Inactive)
    1  A    between atoms: C_1  and  C_4
    2  A    between atoms: O_2  and  C_26
    3  A    between atoms: N_3  and  C_20
    4  A    between atoms: C_5  and  C_15
    5  A    between atoms: C_5  and  C_26
    6  A    between atoms: C_14  and  C_23
    7  A    between atoms: C_14  and  C_26
                            x       y       z     vdW  Elec       q    Type
                         _______ _______ _______ _____ _____    ______ ____

>  <TORSDO>
F 7

$$$$
