=
 OpenBabel11042422033D

 59 62  0  0  1  0  0  0  0  0999 V2000
  162.1380  209.7960  149.3710 C   0  0  0  0  0  2  0  0  0  0  0  0
  161.0000  211.7450  150.4670 C   0  0  0  0  0  3  0  0  0  0  0  0
  161.8890  210.0130  151.9270 C   0  0  0  0  0  2  0  0  0  0  0  0
  160.9330  211.1450  151.6590 C   0  0  0  0  0  0  0  0  0  0  0  0
  162.0450  211.3260  149.4730 C   0  0  2  0  0  3  0  0  0  0  0  0
  161.9470  209.0660  150.7170 C   0  0  2  0  0  3  0  0  0  0  0  0
  159.9060  211.5130  152.6740 C   0  0  0  0  0  0  0  0  0  0  0  0
  158.7720  213.2400  151.1740 C   0  0  0  0  0  1  0  0  0  0  0  0
  159.9730  210.8750  153.9210 C   0  0  0  0  0  3  0  0  0  0  0  0
  156.9240  213.6650  153.2610 O   0  0  0  0  0  1  0  0  0  0  0  0
  158.8740  212.4640  152.4520 C   0  0  0  0  0  0  0  0  0  0  0  0
  157.9400  212.7340  153.4690 C   0  0  0  0  0  0  0  0  0  0  0  0
  157.0970  212.3500  155.6980 O   0  0  0  0  0  1  0  0  0  0  0  0
  158.0250  212.0750  154.7010 C   0  0  0  0  0  0  0  0  0  0  0  0
  159.0450  211.1460  154.9340 C   0  0  0  0  0  0  0  0  0  0  0  0
  160.1210  209.5460  156.4880 C   0  0  0  0  0  1  0  0  0  0  0  0
  159.1170  210.5060  156.1760 O   0  0  0  0  0  0  0  0  0  0  0  0
  162.9610  208.1230  150.8910 O   0  0  0  0  0  0  0  0  0  0  0  0
  162.2950  206.9010  151.0480 C   0  0  0  0  0  2  0  0  0  0  0  0
  161.1150  207.0620  151.9920 C   0  0  0  0  0  2  0  0  0  0  0  0
  160.6830  205.7580  152.4700 N   0  0  0  0  0  2  0  0  0  0  0  0
  161.8020  204.8490  152.2830 C   0  0  0  0  0  2  0  0  0  0  0  0
  161.3470  203.6330  151.5350 C   0  0  0  0  0  0  0  0  0  0  0  0
  161.7080  202.5260  151.9020 O   0  0  0  0  0  0  0  0  0  0  0  0
  160.4570  203.7490  150.3340 C   0  0  1  0  0  3  0  0  0  0  0  0
  161.2410  203.9570  149.1230 N   0  0  0  0  0  2  0  0  0  0  0  0
  161.0660  205.0960  148.2750 C   0  0  0  0  0  0  0  0  0  0  0  0
  160.2470  206.0030  148.5760 O   0  0  0  0  0  0  0  0  0  0  0  0
  161.8930  205.2300  147.0420 C   0  0  0  0  0  2  0  0  0  0  0  0
  161.9500  204.5460  144.6430 C   0  0  0  0  0  1  0  0  0  0  0  0
  160.3040  206.2180  145.4200 C   0  0  0  0  0  1  0  0  0  0  0  0
  161.0560  204.9600  145.7990 C   0  0  0  0  0  3  0  0  0  0  0  0
  159.6070  202.5210  150.1920 C   0  0  0  0  0  3  0  0  0  0  0  0
  159.7840  201.6180  149.2150 C   0  0  0  0  0  3  0  0  0  0  0  0
  160.8380  201.7510  148.1560 C   0  0  1  0  0  3  0  0  0  0  0  0
  161.6120  200.4730  148.0480 C   0  0  0  0  0  2  0  0  0  0  0  0
  161.4270  200.0240  146.6800 N   0  0  0  0  0  2  0  0  0  0  0  0
  160.9510  201.1380  145.9620 N   0  0  0  0  0  2  0  0  0  0  0  0
  160.2170  201.9350  146.8600 N   0  0  0  0  0  2  0  0  0  0  0  0
  161.7610  211.8730  148.2210 O   0  0  0  0  0  0  0  0  0  0  0  0
  160.6690  212.7190  148.4400 C   0  0  0  0  0  2  0  0  0  0  0  0
  162.2730  214.4480  148.7200 O   0  0  0  0  0  1  0  0  0  0  0  0
  161.0530  214.1540  148.1060 C   0  0  1  0  0  3  0  0  0  0  0  0
  161.1680  214.3580  146.5920 C   0  0  1  0  0  3  0  0  0  0  0  0
  162.3500  213.7740  146.1250 O   0  0  0  0  0  1  0  0  0  0  0  0
  159.9780  213.7390  145.8480 C   0  0  2  0  0  3  0  0  0  0  0  0
  157.8260  214.3490  146.7360 O   0  0  0  0  0  1  0  0  0  0  0  0
  158.8430  213.3930  146.8100 C   0  0  0  0  0  2  0  0  0  0  0  0
  160.3590  212.5900  145.1430 O   0  0  0  0  0  0  0  0  0  0  0  0
  159.7950  212.7350  143.8690 C   0  0  2  0  0  3  0  0  0  0  0  0
  162.7720  212.7830  143.4410 O   0  0  0  0  0  1  0  0  0  0  0  0
  162.3760  212.3520  141.1300 C   0  0  0  0  0  2  0  0  0  0  0  0
  160.5960  211.0940  140.5700 C   0  0  0  0  0  2  0  0  0  0  0  0
  160.6200  212.0420  142.8650 N   0  0  0  0  0  0  0  0  0  0  0  0
  159.7700  211.6950  141.7200 C   0  0  0  0  0  2  0  0  0  0  0  0
  161.9650  211.0300  140.8880 O   0  0  0  0  0  0  0  0  0  0  0  0
  161.7890  212.8500  142.4560 C   0  0  1  0  0  3  0  0  0  0  0  0
  159.5640  214.2190  143.5710 C   0  0  0  0  0  2  0  0  0  0  0  0
  158.7010  214.3700  142.4840 O   0  0  0  0  0  1  0  0  0  0  0  0
  1  5  1  0  0  0  0
  1  6  1  0  0  0  0
  2  4  2  0  0  0  0
  4  3  1  0  0  0  0
  4  7  1  0  0  0  0
  5 40  1  6  0  0  0
  5  2  1  0  0  0  0
  6 18  1  1  0  0  0
  6  3  1  0  0  0  0
  7  9  1  0  0  0  0
  8 11  1  0  0  0  0
  9 15  2  0  0  0  0
 10 12  1  0  0  0  0
 11  7  2  0  0  0  0
 11 12  1  0  0  0  0
 12 14  2  0  0  0  0
 14 15  1  0  0  0  0
 14 13  1  0  0  0  0
 15 17  1  0  0  0  0
 17 16  1  0  0  0  0
 18 19  1  0  0  0  0
 19 20  1  0  0  0  0
 20 21  1  0  0  0  0
 22 21  1  0  0  0  0
 23 24  2  0  0  0  0
 23 22  1  0  0  0  0
 25 33  1  6  0  0  0
 25 23  1  0  0  0  0
 26 25  1  0  0  0  0
 27 28  2  0  0  0  0
 27 26  1  0  0  0  0
 29 27  1  0  0  0  0
 30 32  1  0  0  0  0
 31 32  1  0  0  0  0
 32 29  1  0  0  0  0
 34 33  2  0  0  0  0
 35 34  1  1  0  0  0
 36 35  1  0  0  0  0
 37 36  1  0  0  0  0
 38 37  1  0  0  0  0
 38 39  1  0  0  0  0
 39 35  1  0  0  0  0
 40 41  1  0  0  0  0
 43 41  1  0  0  0  0
 43 42  1  1  0  0  0
 44 45  1  6  0  0  0
 44 43  1  0  0  0  0
 46 44  1  0  0  0  0
 46 48  1  1  0  0  0
 47 48  1  0  0  0  0
 49 46  1  0  0  0  0
 50 58  1  6  0  0  0
 50 49  1  0  0  0  0
 52 57  1  0  0  0  0
 53 56  1  0  0  0  0
 53 55  1  0  0  0  0
 54 50  1  0  0  0  0
 55 54  1  0  0  0  0
 56 52  1  0  0  0  0
 57 54  1  0  0  0  0
 57 51  1  1  0  0  0
 59 58  1  0  0  0  0
M  END
>  <MODEL>
1

>  <REMARK>
 VINA RESULT:      -6.3      0.000      0.000
  Name = 
  24 active torsions:
  status: ('A' for Active; 'I' for Inactive)
    1  A    between atoms: C_3  and  C_17
    2  A    between atoms: C_6  and  N_24
    3  A    between atoms: C_6  and  C_48
    4  A    between atoms: C_7  and  C_56
    5  A    between atoms: N_10  and  C_43
    6  A    between atoms: C_12  and  C_16
    7  A    between atoms: C_13  and  C_32
    8  A    between atoms: C_14  and  N_24
    9  A    between atoms: C_14  and  C_55
   10  A    between atoms: O_15  and  C_48
   11  A    between atoms: O_15  and  C_52
   12  A    between atoms: C_16  and  O_29
   13  A    between atoms: C_16  and  N_34
   14  A    between atoms: C_21  and  C_33
   15  A    between atoms: C_21  and  C_46
   16  A    between atoms: O_23  and  C_31
   17  A    between atoms: O_23  and  C_40
   18  A    between atoms: O_29  and  C_33
   19  A    between atoms: C_31  and  C_46
   20  A    between atoms: C_32  and  C_58
   21  A    between atoms: C_33  and  C_35
   22  A    between atoms: C_38  and  C_43
   23  A    between atoms: C_43  and  C_55
   24  A    between atoms: C_45  and  O_49
                            x       y       z     vdW  Elec       q    Type
                         _______ _______ _______ _____ _____    ______ ____

>  <TORSDO>
F 24

$$$$
=
 OpenBabel11042422033D

 59 62  0  0  1  0  0  0  0  0999 V2000
  161.2160  211.8670  148.2690 C   0  0  0  0  0  2  0  0  0  0  0  0
  159.8690  213.7490  149.2380 C   0  0  0  0  0  3  0  0  0  0  0  0
  160.9950  212.2660  150.8050 C   0  0  0  0  0  2  0  0  0  0  0  0
  159.9020  213.2470  150.4760 C   0  0  0  0  0  0  0  0  0  0  0  0
  160.9370  213.3780  148.2500 C   0  0  2  0  0  3  0  0  0  0  0  0
  161.1440  211.2350  149.6750 C   0  0  2  0  0  3  0  0  0  0  0  0
  158.8590  213.5720  151.4900 C   0  0  0  0  0  0  0  0  0  0  0  0
  156.9610  213.6530  149.7850 C   0  0  0  0  0  1  0  0  0  0  0  0
  159.2770  213.7270  152.8200 C   0  0  0  0  0  3  0  0  0  0  0  0
  155.2130  214.1860  151.9320 O   0  0  0  0  0  1  0  0  0  0  0  0
  157.4800  213.7330  151.1880 C   0  0  0  0  0  0  0  0  0  0  0  0
  156.5670  214.0260  152.2180 C   0  0  0  0  0  0  0  0  0  0  0  0
  156.0990  214.4530  154.5470 O   0  0  0  0  0  1  0  0  0  0  0  0
  157.0110  214.1640  153.5390 C   0  0  0  0  0  0  0  0  0  0  0  0
  158.3680  214.0200  153.8450 C   0  0  0  0  0  0  0  0  0  0  0  0
  159.3240  213.0960  155.9340 C   0  0  0  0  0  1  0  0  0  0  0  0
  158.7920  214.1720  155.1690 O   0  0  0  0  0  0  0  0  0  0  0  0
  162.2700  210.4390  149.8930 O   0  0  0  0  0  0  0  0  0  0  0  0
  162.6530  209.9960  148.6210 C   0  0  0  0  0  2  0  0  0  0  0  0
  162.1390  208.5870  148.3780 C   0  0  0  0  0  2  0  0  0  0  0  0
  162.9730  207.6280  149.0840 N   0  0  0  0  0  2  0  0  0  0  0  0
  162.3420  207.3860  150.3700 C   0  0  0  0  0  2  0  0  0  0  0  0
  161.1510  206.4950  150.1900 C   0  0  0  0  0  0  0  0  0  0  0  0
  160.5810  206.4580  149.1110 O   0  0  0  0  0  0  0  0  0  0  0  0
  160.6390  205.6470  151.3150 C   0  0  1  0  0  3  0  0  0  0  0  0
  160.2210  204.3370  150.8320 N   0  0  0  0  0  2  0  0  0  0  0  0
  161.0470  203.1740  150.9400 C   0  0  0  0  0  0  0  0  0  0  0  0
  162.1690  203.2320  151.5100 O   0  0  0  0  0  0  0  0  0  0  0  0
  160.5590  201.8700  150.4060 C   0  0  0  0  0  2  0  0  0  0  0  0
  161.3890  200.6690  148.3830 C   0  0  0  0  0  1  0  0  0  0  0  0
  161.2520  203.1370  148.3940 C   0  0  0  0  0  1  0  0  0  0  0  0
  160.5960  201.8630  148.8840 C   0  0  0  0  0  3  0  0  0  0  0  0
  161.6890  205.4930  152.3750 C   0  0  0  0  0  3  0  0  0  0  0  0
  161.6650  206.1710  153.5330 C   0  0  0  0  0  3  0  0  0  0  0  0
  160.5970  207.1640  153.8800 C   0  0  1  0  0  3  0  0  0  0  0  0
  160.5570  207.3690  155.3640 C   0  0  0  0  0  2  0  0  0  0  0  0
  160.8190  208.7820  155.5650 N   0  0  0  0  0  2  0  0  0  0  0  0
  160.6100  209.4020  154.3190 N   0  0  0  0  0  2  0  0  0  0  0  0
  160.9260  208.4610  153.3220 N   0  0  0  0  0  2  0  0  0  0  0  0
  160.5620  213.7790  146.9670 O   0  0  0  0  0  0  0  0  0  0  0  0
  161.0730  212.7910  146.1200 C   0  0  0  0  0  2  0  0  0  0  0  0
  158.7550  212.3190  145.9050 O   0  0  0  0  0  1  0  0  0  0  0  0
  159.9680  212.2650  145.2140 C   0  0  1  0  0  3  0  0  0  0  0  0
  159.8710  213.0880  143.9250 C   0  0  1  0  0  3  0  0  0  0  0  0
  159.8520  214.4520  144.2360 O   0  0  0  0  0  1  0  0  0  0  0  0
  161.0510  212.8070  142.9860 C   0  0  2  0  0  3  0  0  0  0  0  0
  163.2310  213.7780  142.6770 O   0  0  0  0  0  1  0  0  0  0  0  0
  162.3770  213.2130  143.6270 C   0  0  0  0  0  2  0  0  0  0  0  0
  160.8990  213.4740  141.7630 O   0  0  0  0  0  0  0  0  0  0  0  0
  160.2370  212.5660  140.9280 C   0  0  2  0  0  3  0  0  0  0  0  0
  161.5260  209.8870  140.4680 O   0  0  0  0  0  1  0  0  0  0  0  0
  163.3110  211.0150  139.3610 C   0  0  0  0  0  2  0  0  0  0  0  0
  162.8390  212.8960  138.2190 C   0  0  0  0  0  2  0  0  0  0  0  0
  161.1360  212.1180  139.8500 N   0  0  0  0  0  0  0  0  0  0  0  0
  161.7780  213.2980  139.2580 C   0  0  0  0  0  2  0  0  0  0  0  0
  162.9450  211.4980  138.0930 O   0  0  0  0  0  0  0  0  0  0  0  0
  162.1300  211.1350  140.3310 C   0  0  1  0  0  3  0  0  0  0  0  0
  158.9240  213.1800  140.4330 C   0  0  0  0  0  2  0  0  0  0  0  0
  158.7100  214.4220  141.0330 O   0  0  0  0  0  1  0  0  0  0  0  0
  1  6  1  0  0  0  0
  2  4  2  0  0  0  0
  4  3  1  0  0  0  0
  4  7  1  0  0  0  0
  5 40  1  6  0  0  0
  5  1  1  0  0  0  0
  5  2  1  0  0  0  0
  6 18  1  1  0  0  0
  6  3  1  0  0  0  0
  7  9  1  0  0  0  0
  8 11  1  0  0  0  0
  9 15  2  0  0  0  0
 10 12  1  0  0  0  0
 11  7  2  0  0  0  0
 11 12  1  0  0  0  0
 12 14  2  0  0  0  0
 14 15  1  0  0  0  0
 14 13  1  0  0  0  0
 15 17  1  0  0  0  0
 17 16  1  0  0  0  0
 19 18  1  0  0  0  0
 20 19  1  0  0  0  0
 20 21  1  0  0  0  0
 21 22  1  0  0  0  0
 23 22  1  0  0  0  0
 23 25  1  0  0  0  0
 24 23  2  0  0  0  0
 25 33  1  1  0  0  0
 26 27  1  0  0  0  0
 26 25  1  0  0  0  0
 27 28  2  0  0  0  0
 29 27  1  0  0  0  0
 30 32  1  0  0  0  0
 31 32  1  0  0  0  0
 32 29  1  0  0  0  0
 33 34  2  0  0  0  0
 35 34  1  1  0  0  0
 35 36  1  0  0  0  0
 36 37  1  0  0  0  0
 38 37  1  0  0  0  0
 39 35  1  0  0  0  0
 39 38  1  0  0  0  0
 41 40  1  0  0  0  0
 43 42  1  1  0  0  0
 43 41  1  0  0  0  0
 44 45  1  1  0  0  0
 44 43  1  0  0  0  0
 46 48  1  1  0  0  0
 46 44  1  0  0  0  0
 47 48  1  0  0  0  0
 49 46  1  0  0  0  0
 50 58  1  6  0  0  0
 50 49  1  0  0  0  0
 52 57  1  0  0  0  0
 53 55  1  0  0  0  0
 54 57  1  0  0  0  0
 54 50  1  0  0  0  0
 55 54  1  0  0  0  0
 56 53  1  0  0  0  0
 56 52  1  0  0  0  0
 57 51  1  6  0  0  0
 58 59  1  0  0  0  0
M  END
>  <MODEL>
2

>  <REMARK>
 VINA RESULT:      -6.1      2.275      4.567
  Name = 
  24 active torsions:
  status: ('A' for Active; 'I' for Inactive)
    1  A    between atoms: C_3  and  C_17
    2  A    between atoms: C_6  and  N_24
    3  A    between atoms: C_6  and  C_48
    4  A    between atoms: C_7  and  C_56
    5  A    between atoms: N_10  and  C_43
    6  A    between atoms: C_12  and  C_16
    7  A    between atoms: C_13  and  C_32
    8  A    between atoms: C_14  and  N_24
    9  A    between atoms: C_14  and  C_55
   10  A    between atoms: O_15  and  C_48
   11  A    between atoms: O_15  and  C_52
   12  A    between atoms: C_16  and  O_29
   13  A    between atoms: C_16  and  N_34
   14  A    between atoms: C_21  and  C_33
   15  A    between atoms: C_21  and  C_46
   16  A    between atoms: O_23  and  C_31
   17  A    between atoms: O_23  and  C_40
   18  A    between atoms: O_29  and  C_33
   19  A    between atoms: C_31  and  C_46
   20  A    between atoms: C_32  and  C_58
   21  A    between atoms: C_33  and  C_35
   22  A    between atoms: C_38  and  C_43
   23  A    between atoms: C_43  and  C_55
   24  A    between atoms: C_45  and  O_49
                            x       y       z     vdW  Elec       q    Type
                         _______ _______ _______ _____ _____    ______ ____

>  <TORSDO>
F 24

$$$$
=
 OpenBabel11042422033D

 59 62  0  0  1  0  0  0  0  0999 V2000
  161.9490  210.0080  148.8840 C   0  0  0  0  0  2  0  0  0  0  0  0
  161.5790  211.5960  150.7910 C   0  0  0  0  0  3  0  0  0  0  0  0
  161.9770  209.2600  151.3500 C   0  0  0  0  0  2  0  0  0  0  0  0
  161.4150  210.6170  151.6850 C   0  0  0  0  0  0  0  0  0  0  0  0
  162.3570  211.3390  149.5320 C   0  0  2  0  0  3  0  0  0  0  0  0
  161.6370  208.8870  149.8970 C   0  0  2  0  0  3  0  0  0  0  0  0
  160.6400  210.8140  152.9420 C   0  0  0  0  0  0  0  0  0  0  0  0
  162.6260  210.3110  154.4650 C   0  0  0  0  0  1  0  0  0  0  0  0
  159.2780  211.1250  152.8210 C   0  0  0  0  0  3  0  0  0  0  0  0
  160.9260  210.8220  156.6560 O   0  0  0  0  0  1  0  0  0  0  0  0
  161.1990  210.7060  154.2450 C   0  0  0  0  0  0  0  0  0  0  0  0
  160.3880  210.9260  155.3740 C   0  0  0  0  0  0  0  0  0  0  0  0
  158.2430  211.4590  156.3450 O   0  0  0  0  0  1  0  0  0  0  0  0
  159.0330  211.2450  155.2220 C   0  0  0  0  0  0  0  0  0  0  0  0
  158.4710  211.3410  153.9450 C   0  0  0  0  0  0  0  0  0  0  0  0
  156.6390  212.9870  153.6860 C   0  0  0  0  0  1  0  0  0  0  0  0
  157.1130  211.6510  153.8150 O   0  0  0  0  0  0  0  0  0  0  0  0
  162.3070  207.7190  149.5310 O   0  0  0  0  0  0  0  0  0  0  0  0
  162.6810  207.9190  148.1960 C   0  0  0  0  0  2  0  0  0  0  0  0
  161.5910  207.4190  147.2640 C   0  0  0  0  0  2  0  0  0  0  0  0
  161.9520  206.1120  146.7380 N   0  0  0  0  0  2  0  0  0  0  0  0
  162.3690  205.3020  147.8710 C   0  0  0  0  0  2  0  0  0  0  0  0
  161.1660  204.8570  148.6440 C   0  0  0  0  0  0  0  0  0  0  0  0
  160.0620  205.2800  148.3410 O   0  0  0  0  0  0  0  0  0  0  0  0
  161.2920  203.9030  149.7930 C   0  0  1  0  0  3  0  0  0  0  0  0
  161.3070  204.6170  151.0640 N   0  0  0  0  0  2  0  0  0  0  0  0
  161.0740  203.9670  152.3170 C   0  0  0  0  0  0  0  0  0  0  0  0
  160.8920  202.7230  152.3740 O   0  0  0  0  0  0  0  0  0  0  0  0
  161.0860  204.7680  153.5760 C   0  0  0  0  0  2  0  0  0  0  0  0
  162.4130  206.7740  152.9110 C   0  0  0  0  0  1  0  0  0  0  0  0
  160.5230  207.0000  154.4870 C   0  0  0  0  0  1  0  0  0  0  0  0
  161.0300  206.2580  153.2680 C   0  0  0  0  0  3  0  0  0  0  0  0
  160.1680  202.9090  149.7750 C   0  0  0  0  0  3  0  0  0  0  0  0
  160.1270  201.8670  148.9310 C   0  0  0  0  0  3  0  0  0  0  0  0
  161.1900  201.5960  147.9090 C   0  0  1  0  0  3  0  0  0  0  0  0
  161.3630  200.1180  147.7350 C   0  0  0  0  0  2  0  0  0  0  0  0
  161.0740  199.8570  146.3370 N   0  0  0  0  0  2  0  0  0  0  0  0
  161.1440  201.1020  145.6820 N   0  0  0  0  0  2  0  0  0  0  0  0
  160.7670  202.0880  146.6130 N   0  0  0  0  0  2  0  0  0  0  0  0
  162.1680  212.3880  148.6310 O   0  0  0  0  0  0  0  0  0  0  0  0
  161.4920  211.8140  147.5510 C   0  0  0  0  0  2  0  0  0  0  0  0
  159.7030  213.2860  148.0710 O   0  0  0  0  0  1  0  0  0  0  0  0
  160.4610  212.7940  147.0060 C   0  0  1  0  0  3  0  0  0  0  0  0
  161.1380  213.9540  146.2670 C   0  0  1  0  0  3  0  0  0  0  0  0
  162.2150  214.4300  147.0210 O   0  0  0  0  0  1  0  0  0  0  0  0
  161.6470  213.5210  144.8860 C   0  0  2  0  0  3  0  0  0  0  0  0
  163.9830  212.9450  144.8600 O   0  0  0  0  0  1  0  0  0  0  0  0
  163.0810  213.9920  144.6530 C   0  0  0  0  0  2  0  0  0  0  0  0
  160.8230  214.0090  143.8630 O   0  0  0  0  0  0  0  0  0  0  0  0
  160.4210  212.8770  143.1430 C   0  0  2  0  0  3  0  0  0  0  0  0
  161.1870  210.7150  141.1970 O   0  0  0  0  0  1  0  0  0  0  0  0
  162.6460  212.2800  140.1430 C   0  0  0  0  0  2  0  0  0  0  0  0
  162.0510  214.4500  140.1290 C   0  0  0  0  0  2  0  0  0  0  0  0
  160.8760  212.9760  141.7460 N   0  0  0  0  0  0  0  0  0  0  0  0
  161.4260  214.3200  141.5280 C   0  0  0  0  0  2  0  0  0  0  0  0
  161.9530  213.2510  139.3990 O   0  0  0  0  0  0  0  0  0  0  0  0
  161.8530  211.9220  141.4060 C   0  0  1  0  0  3  0  0  0  0  0  0
  158.9100  212.6750  143.2960 C   0  0  0  0  0  2  0  0  0  0  0  0
  158.4140  213.4710  144.3300 O   0  0  0  0  0  1  0  0  0  0  0  0
  1  5  1  0  0  0  0
  1  6  1  0  0  0  0
  2  4  2  0  0  0  0
  3  4  1  0  0  0  0
  4  7  1  0  0  0  0
  5 40  1  6  0  0  0
  5  2  1  0  0  0  0
  6 18  1  6  0  0  0
  6  3  1  0  0  0  0
  7 11  1  0  0  0  0
  9  7  2  0  0  0  0
  9 15  1  0  0  0  0
 11  8  1  0  0  0  0
 11 12  2  0  0  0  0
 12 10  1  0  0  0  0
 14 12  1  0  0  0  0
 14 13  1  0  0  0  0
 15 14  2  0  0  0  0
 16 17  1  0  0  0  0
 17 15  1  0  0  0  0
 19 18  1  0  0  0  0
 20 19  1  0  0  0  0
 21 20  1  0  0  0  0
 21 22  1  0  0  0  0
 22 23  1  0  0  0  0
 23 25  1  0  0  0  0
 24 23  2  0  0  0  0
 25 33  1  1  0  0  0
 25 26  1  0  0  0  0
 26 27  1  0  0  0  0
 27 28  2  0  0  0  0
 27 29  1  0  0  0  0
 30 32  1  0  0  0  0
 32 29  1  0  0  0  0
 32 31  1  0  0  0  0
 34 33  2  0  0  0  0
 35 34  1  1  0  0  0
 36 35  1  0  0  0  0
 37 36  1  0  0  0  0
 38 37  1  0  0  0  0
 38 39  1  0  0  0  0
 39 35  1  0  0  0  0
 41 40  1  0  0  0  0
 43 41  1  0  0  0  0
 43 42  1  1  0  0  0
 44 43  1  0  0  0  0
 44 45  1  1  0  0  0
 46 48  1  6  0  0  0
 46 44  1  0  0  0  0
 48 47  1  0  0  0  0
 49 46  1  0  0  0  0
 50 58  1  6  0  0  0
 50 49  1  0  0  0  0
 52 57  1  0  0  0  0
 53 55  1  0  0  0  0
 54 50  1  0  0  0  0
 55 54  1  0  0  0  0
 56 53  1  0  0  0  0
 56 52  1  0  0  0  0
 57 51  1  6  0  0  0
 57 54  1  0  0  0  0
 58 59  1  0  0  0  0
M  END
>  <MODEL>
3

>  <REMARK>
 VINA RESULT:      -6.0      1.502      3.505
  Name = 
  24 active torsions:
  status: ('A' for Active; 'I' for Inactive)
    1  A    between atoms: C_3  and  C_17
    2  A    between atoms: C_6  and  N_24
    3  A    between atoms: C_6  and  C_48
    4  A    between atoms: C_7  and  C_56
    5  A    between atoms: N_10  and  C_43
    6  A    between atoms: C_12  and  C_16
    7  A    between atoms: C_13  and  C_32
    8  A    between atoms: C_14  and  N_24
    9  A    between atoms: C_14  and  C_55
   10  A    between atoms: O_15  and  C_48
   11  A    between atoms: O_15  and  C_52
   12  A    between atoms: C_16  and  O_29
   13  A    between atoms: C_16  and  N_34
   14  A    between atoms: C_21  and  C_33
   15  A    between atoms: C_21  and  C_46
   16  A    between atoms: O_23  and  C_31
   17  A    between atoms: O_23  and  C_40
   18  A    between atoms: O_29  and  C_33
   19  A    between atoms: C_31  and  C_46
   20  A    between atoms: C_32  and  C_58
   21  A    between atoms: C_33  and  C_35
   22  A    between atoms: C_38  and  C_43
   23  A    between atoms: C_43  and  C_55
   24  A    between atoms: C_45  and  O_49
                            x       y       z     vdW  Elec       q    Type
                         _______ _______ _______ _____ _____    ______ ____

>  <TORSDO>
F 24

$$$$
=
 OpenBabel11042422033D

 59 62  0  0  1  0  0  0  0  0999 V2000
  161.6580  209.5510  148.7050 C   0  0  0  0  0  2  0  0  0  0  0  0
  162.0200  211.2090  150.5520 C   0  0  0  0  0  3  0  0  0  0  0  0
  161.8750  208.8620  151.1790 C   0  0  0  0  0  2  0  0  0  0  0  0
  161.7480  210.3240  151.5160 C   0  0  0  0  0  0  0  0  0  0  0  0
  162.4970  210.7350  149.2100 C   0  0  2  0  0  3  0  0  0  0  0  0
  161.2270  208.5700  149.8160 C   0  0  2  0  0  3  0  0  0  0  0  0
  161.2580  210.7410  152.8600 C   0  0  0  0  0  0  0  0  0  0  0  0
  159.3300  212.1330  151.9310 C   0  0  0  0  0  1  0  0  0  0  0  0
  161.9780  210.2940  153.9770 C   0  0  0  0  0  3  0  0  0  0  0  0
  158.6020  212.6880  154.5980 O   0  0  0  0  0  1  0  0  0  0  0  0
  160.1150  211.5580  153.0700 C   0  0  0  0  0  0  0  0  0  0  0  0
  159.7220  211.8870  154.3810 C   0  0  0  0  0  0  0  0  0  0  0  0
  160.0560  211.7510  156.7680 O   0  0  0  0  0  1  0  0  0  0  0  0
  160.4540  211.4190  155.4780 C   0  0  0  0  0  0  0  0  0  0  0  0
  161.5880  210.6250  155.2810 C   0  0  0  0  0  0  0  0  0  0  0  0
  163.4280  210.8820  156.9190 C   0  0  0  0  0  1  0  0  0  0  0  0
  162.3110  210.1750  156.3910 O   0  0  0  0  0  0  0  0  0  0  0  0
  161.5020  207.2600  149.4220 O   0  0  0  0  0  0  0  0  0  0  0  0
  162.3630  207.3840  148.3240 C   0  0  0  0  0  2  0  0  0  0  0  0
  161.6420  207.0000  147.0440 C   0  0  0  0  0  2  0  0  0  0  0  0
  162.1990  205.7660  146.5130 N   0  0  0  0  0  2  0  0  0  0  0  0
  162.4510  204.8950  147.6490 C   0  0  0  0  0  2  0  0  0  0  0  0
  161.2170  204.1080  147.9660 C   0  0  0  0  0  0  0  0  0  0  0  0
  160.2460  204.1820  147.2290 O   0  0  0  0  0  0  0  0  0  0  0  0
  161.1460  203.2320  149.1800 C   0  0  1  0  0  3  0  0  0  0  0  0
  160.9820  204.0290  150.3900 N   0  0  0  0  0  2  0  0  0  0  0  0
  161.2500  203.5140  151.6970 C   0  0  0  0  0  0  0  0  0  0  0  0
  161.6900  202.3450  151.8510 O   0  0  0  0  0  0  0  0  0  0  0  0
  161.0410  204.3840  152.8890 C   0  0  0  0  0  2  0  0  0  0  0  0
  162.8620  205.9570  152.2280 C   0  0  0  0  0  1  0  0  0  0  0  0
  161.0800  206.6980  153.7730 C   0  0  0  0  0  1  0  0  0  0  0  0
  161.3870  205.8320  152.5680 C   0  0  0  0  0  3  0  0  0  0  0  0
  160.0160  202.2520  149.0540 C   0  0  0  0  0  3  0  0  0  0  0  0
  159.9670  201.3110  148.0990 C   0  0  0  0  0  3  0  0  0  0  0  0
  161.0260  201.1520  147.0490 C   0  0  1  0  0  3  0  0  0  0  0  0
  161.5880  199.7640  147.1010 C   0  0  0  0  0  2  0  0  0  0  0  0
  161.3310  199.1940  145.7910 N   0  0  0  0  0  2  0  0  0  0  0  0
  161.0350  200.2770  144.9420 N   0  0  0  0  0  2  0  0  0  0  0  0
  160.4380  201.2790  145.7300 N   0  0  0  0  0  2  0  0  0  0  0  0
  162.4500  211.7820  148.2890 O   0  0  0  0  0  0  0  0  0  0  0  0
  161.2650  211.5760  147.5740 C   0  0  0  0  0  2  0  0  0  0  0  0
  160.2620  213.4710  148.5950 O   0  0  0  0  0  1  0  0  0  0  0  0
  160.5590  212.9070  147.3520 C   0  0  1  0  0  3  0  0  0  0  0  0
  161.4320  213.8680  146.5380 C   0  0  1  0  0  3  0  0  0  0  0  0
  162.6810  214.0060  147.1520 O   0  0  0  0  0  1  0  0  0  0  0  0
  161.6340  213.3670  145.1030 C   0  0  2  0  0  3  0  0  0  0  0  0
  163.6680  213.9710  143.9670 O   0  0  0  0  0  1  0  0  0  0  0  0
  163.1000  213.0340  144.8340 C   0  0  0  0  0  2  0  0  0  0  0  0
  161.1890  214.3100  144.1660 O   0  0  0  0  0  0  0  0  0  0  0  0
  160.0050  213.7770  143.6420 C   0  0  2  0  0  3  0  0  0  0  0  0
  157.7330  214.1650  141.7080 O   0  0  0  0  0  1  0  0  0  0  0  0
  159.0040  212.9660  140.0850 C   0  0  0  0  0  2  0  0  0  0  0  0
  161.2460  213.1510  140.1360 C   0  0  0  0  0  2  0  0  0  0  0  0
  160.0150  213.8670  142.1710 N   0  0  0  0  0  0  0  0  0  0  0  0
  161.2360  213.2220  141.6730 C   0  0  0  0  0  2  0  0  0  0  0  0
  160.0820  213.7130  139.5800 O   0  0  0  0  0  0  0  0  0  0  0  0
  158.8000  213.2780  141.5720 C   0  0  1  0  0  3  0  0  0  0  0  0
  158.7980  214.4510  144.3000 C   0  0  0  0  0  2  0  0  0  0  0  0
  158.0040  213.5020  144.9490 O   0  0  0  0  0  1  0  0  0  0  0  0
  1  5  1  0  0  0  0
  1  6  1  0  0  0  0
  2  4  2  0  0  0  0
  3  4  1  0  0  0  0
  4  7  1  0  0  0  0
  5 40  1  6  0  0  0
  5  2  1  0  0  0  0
  6 18  1  6  0  0  0
  6  3  1  0  0  0  0
  7 11  2  0  0  0  0
  7  9  1  0  0  0  0
  8 11  1  0  0  0  0
  9 15  2  0  0  0  0
 11 12  1  0  0  0  0
 12 10  1  0  0  0  0
 12 14  2  0  0  0  0
 14 13  1  0  0  0  0
 15 14  1  0  0  0  0
 15 17  1  0  0  0  0
 17 16  1  0  0  0  0
 19 18  1  0  0  0  0
 20 19  1  0  0  0  0
 21 20  1  0  0  0  0
 21 22  1  0  0  0  0
 22 23  1  0  0  0  0
 23 25  1  0  0  0  0
 24 23  2  0  0  0  0
 25 33  1  6  0  0  0
 25 26  1  0  0  0  0
 26 27  1  0  0  0  0
 27 28  2  0  0  0  0
 27 29  1  0  0  0  0
 30 32  1  0  0  0  0
 32 29  1  0  0  0  0
 32 31  1  0  0  0  0
 34 33  2  0  0  0  0
 35 36  1  0  0  0  0
 35 34  1  1  0  0  0
 37 36  1  0  0  0  0
 38 39  1  0  0  0  0
 38 37  1  0  0  0  0
 39 35  1  0  0  0  0
 41 40  1  0  0  0  0
 43 41  1  0  0  0  0
 43 42  1  1  0  0  0
 44 45  1  1  0  0  0
 44 43  1  0  0  0  0
 46 48  1  6  0  0  0
 46 44  1  0  0  0  0
 47 48  1  0  0  0  0
 49 46  1  0  0  0  0
 50 49  1  0  0  0  0
 50 58  1  1  0  0  0
 52 57  1  0  0  0  0
 53 55  1  0  0  0  0
 54 50  1  0  0  0  0
 55 54  1  0  0  0  0
 56 52  1  0  0  0  0
 56 53  1  0  0  0  0
 57 51  1  6  0  0  0
 57 54  1  0  0  0  0
 58 59  1  0  0  0  0
M  END
>  <MODEL>
4

>  <REMARK>
 VINA RESULT:      -5.9      1.666      3.331
  Name = 
  24 active torsions:
  status: ('A' for Active; 'I' for Inactive)
    1  A    between atoms: C_3  and  C_17
    2  A    between atoms: C_6  and  N_24
    3  A    between atoms: C_6  and  C_48
    4  A    between atoms: C_7  and  C_56
    5  A    between atoms: N_10  and  C_43
    6  A    between atoms: C_12  and  C_16
    7  A    between atoms: C_13  and  C_32
    8  A    between atoms: C_14  and  N_24
    9  A    between atoms: C_14  and  C_55
   10  A    between atoms: O_15  and  C_48
   11  A    between atoms: O_15  and  C_52
   12  A    between atoms: C_16  and  O_29
   13  A    between atoms: C_16  and  N_34
   14  A    between atoms: C_21  and  C_33
   15  A    between atoms: C_21  and  C_46
   16  A    between atoms: O_23  and  C_31
   17  A    between atoms: O_23  and  C_40
   18  A    between atoms: O_29  and  C_33
   19  A    between atoms: C_31  and  C_46
   20  A    between atoms: C_32  and  C_58
   21  A    between atoms: C_33  and  C_35
   22  A    between atoms: C_38  and  C_43
   23  A    between atoms: C_43  and  C_55
   24  A    between atoms: C_45  and  O_49
                            x       y       z     vdW  Elec       q    Type
                         _______ _______ _______ _____ _____    ______ ____

>  <TORSDO>
F 24

$$$$
=
 OpenBabel11042422033D

 59 62  0  0  1  0  0  0  0  0999 V2000
  160.9700  212.0100  146.3030 C   0  0  0  0  0  2  0  0  0  0  0  0
  159.1290  213.6110  146.8870 C   0  0  0  0  0  3  0  0  0  0  0  0
  160.6670  212.9870  148.6680 C   0  0  0  0  0  2  0  0  0  0  0  0
  159.3250  213.4880  148.2030 C   0  0  0  0  0  0  0  0  0  0  0  0
  160.2490  213.3140  145.9310 C   0  0  2  0  0  3  0  0  0  0  0  0
  161.1080  211.7810  147.8230 C   0  0  2  0  0  3  0  0  0  0  0  0
  158.2430  213.7560  149.1930 C   0  0  0  0  0  0  0  0  0  0  0  0
  156.4350  214.0540  147.4150 C   0  0  0  0  0  1  0  0  0  0  0  0
  158.5990  213.7760  150.5490 C   0  0  0  0  0  3  0  0  0  0  0  0
  154.5990  214.4510  149.5180 O   0  0  0  0  0  1  0  0  0  0  0  0
  156.8860  213.9900  148.8420 C   0  0  0  0  0  0  0  0  0  0  0  0
  155.9330  214.2200  149.8520 C   0  0  0  0  0  0  0  0  0  0  0  0
  155.3630  214.4520  152.1860 O   0  0  0  0  0  1  0  0  0  0  0  0
  156.3140  214.2240  151.1990 C   0  0  0  0  0  0  0  0  0  0  0  0
  157.6490  214.0070  151.5530 C   0  0  0  0  0  0  0  0  0  0  0  0
  159.1790  213.3750  153.3960 C   0  0  0  0  0  1  0  0  0  0  0  0
  158.0120  214.0250  152.9040 O   0  0  0  0  0  0  0  0  0  0  0  0
  162.4230  211.4320  148.1310 O   0  0  0  0  0  0  0  0  0  0  0  0
  162.3150  210.2860  148.9300 C   0  0  0  0  0  2  0  0  0  0  0  0
  162.3510  209.0370  148.0650 C   0  0  0  0  0  2  0  0  0  0  0  0
  162.3660  207.8520  148.9080 N   0  0  0  0  0  2  0  0  0  0  0  0
  161.4680  208.1160  150.0210 C   0  0  0  0  0  2  0  0  0  0  0  0
  161.9080  207.3340  151.2210 C   0  0  0  0  0  0  0  0  0  0  0  0
  163.0980  207.2260  151.4690 O   0  0  0  0  0  0  0  0  0  0  0  0
  160.9110  206.6730  152.1240 C   0  0  1  0  0  3  0  0  0  0  0  0
  160.2360  205.5760  151.4410 N   0  0  0  0  0  2  0  0  0  0  0  0
  160.9440  204.5480  150.7440 C   0  0  0  0  0  0  0  0  0  0  0  0
  162.2030  204.5250  150.7350 O   0  0  0  0  0  0  0  0  0  0  0  0
  160.1830  203.4670  150.0530 C   0  0  0  0  0  2  0  0  0  0  0  0
  160.2520  201.1230  149.2000 C   0  0  0  0  0  1  0  0  0  0  0  0
  161.3860  201.7100  151.3170 C   0  0  0  0  0  1  0  0  0  0  0  0
  161.0270  202.2060  149.9320 C   0  0  0  0  0  3  0  0  0  0  0  0
  161.5840  206.1680  153.3670 C   0  0  0  0  0  3  0  0  0  0  0  0
  161.5430  206.8210  154.5380 C   0  0  0  0  0  3  0  0  0  0  0  0
  160.8360  208.1310  154.7230 C   0  0  1  0  0  3  0  0  0  0  0  0
  159.9270  208.0530  155.9110 C   0  0  0  0  0  2  0  0  0  0  0  0
  160.3900  209.0860  156.8190 N   0  0  0  0  0  2  0  0  0  0  0  0
  161.2040  209.9440  156.0570 N   0  0  0  0  0  2  0  0  0  0  0  0
  161.7950  209.1700  155.0400 N   0  0  0  0  0  2  0  0  0  0  0  0
  159.7560  213.2340  144.6280 O   0  0  0  0  0  0  0  0  0  0  0  0
  160.8110  213.6720  143.8200 C   0  0  0  0  0  2  0  0  0  0  0  0
  160.3870  211.5320  142.8810 O   0  0  0  0  0  1  0  0  0  0  0  0
  161.3850  212.4970  143.0400 C   0  0  1  0  0  3  0  0  0  0  0  0
  161.9010  212.9440  141.6670 C   0  0  1  0  0  3  0  0  0  0  0  0
  163.2960  212.8530  141.6350 O   0  0  0  0  0  1  0  0  0  0  0  0
  161.3180  212.0850  140.5380 C   0  0  2  0  0  3  0  0  0  0  0  0
  163.1920  211.7630  139.0640 O   0  0  0  0  0  1  0  0  0  0  0  0
  162.3630  211.1180  139.9840 C   0  0  0  0  0  2  0  0  0  0  0  0
  160.8190  212.8800  139.4980 O   0  0  0  0  0  0  0  0  0  0  0  0
  159.7440  212.1570  138.9660 C   0  0  2  0  0  3  0  0  0  0  0  0
  156.9310  211.1870  138.5240 O   0  0  0  0  0  1  0  0  0  0  0  0
  156.1570  213.3350  139.2110 C   0  0  0  0  0  2  0  0  0  0  0  0
  157.3490  214.4530  140.7590 C   0  0  0  0  0  2  0  0  0  0  0  0
  158.4870  212.5630  139.6180 N   0  0  0  0  0  0  0  0  0  0  0  0
  158.6670  213.9050  140.1850 C   0  0  0  0  0  2  0  0  0  0  0  0
  156.2890  213.5420  140.5950 O   0  0  0  0  0  0  0  0  0  0  0  0
  157.3390  212.5090  138.6890 C   0  0  1  0  0  3  0  0  0  0  0  0
  160.0360  210.6560  139.0520 C   0  0  0  0  0  2  0  0  0  0  0  0
  159.7870  210.0400  137.8240 O   0  0  0  0  0  1  0  0  0  0  0  0
  1  6  1  0  0  0  0
  2  4  2  0  0  0  0
  4  3  1  0  0  0  0
  4  7  1  0  0  0  0
  5 40  1  6  0  0  0
  5  1  1  0  0  0  0
  5  2  1  0  0  0  0
  6 18  1  6  0  0  0
  6  3  1  0  0  0  0
  7  9  1  0  0  0  0
  8 11  1  0  0  0  0
  9 15  2  0  0  0  0
 10 12  1  0  0  0  0
 11  7  2  0  0  0  0
 11 12  1  0  0  0  0
 12 14  2  0  0  0  0
 14 15  1  0  0  0  0
 14 13  1  0  0  0  0
 15 17  1  0  0  0  0
 17 16  1  0  0  0  0
 18 19  1  0  0  0  0
 20 21  1  0  0  0  0
 20 19  1  0  0  0  0
 21 22  1  0  0  0  0
 22 23  1  0  0  0  0
 23 24  2  0  0  0  0
 23 25  1  0  0  0  0
 25 33  1  1  0  0  0
 26 25  1  0  0  0  0
 27 26  1  0  0  0  0
 28 27  2  0  0  0  0
 29 27  1  0  0  0  0
 30 32  1  0  0  0  0
 32 29  1  0  0  0  0
 32 31  1  0  0  0  0
 33 34  2  0  0  0  0
 35 34  1  1  0  0  0
 35 39  1  0  0  0  0
 35 36  1  0  0  0  0
 36 37  1  0  0  0  0
 38 37  1  0  0  0  0
 39 38  1  0  0  0  0
 41 40  1  0  0  0  0
 43 42  1  6  0  0  0
 43 41  1  0  0  0  0
 44 45  1  1  0  0  0
 44 43  1  0  0  0  0
 46 48  1  6  0  0  0
 46 44  1  0  0  0  0
 47 48  1  0  0  0  0
 49 46  1  0  0  0  0
 50 58  1  1  0  0  0
 50 49  1  0  0  0  0
 50 54  1  0  0  0  0
 52 56  1  0  0  0  0
 54 55  1  0  0  0  0
 55 53  1  0  0  0  0
 56 53  1  0  0  0  0
 57 51  1  1  0  0  0
 57 52  1  0  0  0  0
 57 54  1  0  0  0  0
 59 58  1  0  0  0  0
M  END
>  <MODEL>
5

>  <REMARK>
 VINA RESULT:      -5.0      2.743      6.011
  Name = 
  24 active torsions:
  status: ('A' for Active; 'I' for Inactive)
    1  A    between atoms: C_3  and  C_17
    2  A    between atoms: C_6  and  N_24
    3  A    between atoms: C_6  and  C_48
    4  A    between atoms: C_7  and  C_56
    5  A    between atoms: N_10  and  C_43
    6  A    between atoms: C_12  and  C_16
    7  A    between atoms: C_13  and  C_32
    8  A    between atoms: C_14  and  N_24
    9  A    between atoms: C_14  and  C_55
   10  A    between atoms: O_15  and  C_48
   11  A    between atoms: O_15  and  C_52
   12  A    between atoms: C_16  and  O_29
   13  A    between atoms: C_16  and  N_34
   14  A    between atoms: C_21  and  C_33
   15  A    between atoms: C_21  and  C_46
   16  A    between atoms: O_23  and  C_31
   17  A    between atoms: O_23  and  C_40
   18  A    between atoms: O_29  and  C_33
   19  A    between atoms: C_31  and  C_46
   20  A    between atoms: C_32  and  C_58
   21  A    between atoms: C_33  and  C_35
   22  A    between atoms: C_38  and  C_43
   23  A    between atoms: C_43  and  C_55
   24  A    between atoms: C_45  and  O_49
                            x       y       z     vdW  Elec       q    Type
                         _______ _______ _______ _____ _____    ______ ____

>  <TORSDO>
F 24

$$$$
=
 OpenBabel11042422033D

 59 62  0  0  1  0  0  0  0  0999 V2000
  161.3570  207.0740  151.7950 C   0  0  0  0  0  2  0  0  0  0  0  0
  161.3950  204.7520  150.8470 C   0  0  0  0  0  3  0  0  0  0  0  0
  162.3080  206.5320  149.4620 C   0  0  0  0  0  2  0  0  0  0  0  0
  161.6860  205.1690  149.6120 C   0  0  0  0  0  0  0  0  0  0  0  0
  161.7460  205.6070  152.0310 C   0  0  2  0  0  3  0  0  0  0  0  0
  161.5720  207.5540  150.3450 C   0  0  2  0  0  3  0  0  0  0  0  0
  161.3460  204.3660  148.4040 C   0  0  0  0  0  0  0  0  0  0  0  0
  161.4390  202.1310  149.6340 C   0  0  0  0  0  1  0  0  0  0  0  0
  161.1660  205.0580  147.1970 C   0  0  0  0  0  3  0  0  0  0  0  0
  160.7110  200.8980  147.2060 O   0  0  0  0  0  1  0  0  0  0  0  0
  161.1970  202.9530  148.4060 C   0  0  0  0  0  0  0  0  0  0  0  0
  160.8590  202.2830  147.2140 C   0  0  0  0  0  0  0  0  0  0  0  0
  160.3430  202.3280  144.8570 O   0  0  0  0  0  1  0  0  0  0  0  0
  160.6760  203.0010  146.0260 C   0  0  0  0  0  0  0  0  0  0  0  0
  160.8330  204.3900  146.0110 C   0  0  0  0  0  0  0  0  0  0  0  0
  160.6950  206.5080  144.7350 C   0  0  0  0  0  1  0  0  0  0  0  0
  160.6540  205.0880  144.8110 O   0  0  0  0  0  0  0  0  0  0  0  0
  162.2550  208.7710  150.3460 O   0  0  0  0  0  0  0  0  0  0  0  0
  162.3440  209.1370  148.9970 C   0  0  0  0  0  2  0  0  0  0  0  0
  162.0150  210.6110  148.8300 C   0  0  0  0  0  2  0  0  0  0  0  0
  160.9950  210.7780  147.8060 N   0  0  0  0  0  2  0  0  0  0  0  0
  160.8310  212.2070  147.6030 C   0  0  0  0  0  2  0  0  0  0  0  0
  160.3420  212.4680  146.2110 C   0  0  0  0  0  0  0  0  0  0  0  0
  160.0340  211.5300  145.4930 O   0  0  0  0  0  0  0  0  0  0  0  0
  160.2280  213.8640  145.6770 C   0  0  1  0  0  3  0  0  0  0  0  0
  160.9590  214.0030  144.4240 N   0  0  0  0  0  2  0  0  0  0  0  0
  162.3650  213.7630  144.3180 C   0  0  0  0  0  0  0  0  0  0  0  0
  163.0270  213.3680  145.3130 O   0  0  0  0  0  0  0  0  0  0  0  0
  163.0470  213.9440  143.0050 C   0  0  0  0  0  2  0  0  0  0  0  0
  160.8970  214.4530  141.8450 C   0  0  0  0  0  1  0  0  0  0  0  0
  161.6850  212.1180  142.0340 C   0  0  0  0  0  1  0  0  0  0  0  0
  162.1230  213.5570  141.8580 C   0  0  0  0  0  3  0  0  0  0  0  0
  158.7870  214.2320  145.4760 C   0  0  0  0  0  3  0  0  0  0  0  0
  157.8440  214.0320  146.4090 C   0  0  0  0  0  3  0  0  0  0  0  0
  158.1270  213.4060  147.7420 C   0  0  1  0  0  3  0  0  0  0  0  0
  158.0770  214.4510  148.8140 C   0  0  0  0  0  2  0  0  0  0  0  0
  157.0360  214.0170  149.7270 N   0  0  0  0  0  2  0  0  0  0  0  0
  156.8050  212.6570  149.4430 N   0  0  0  0  0  2  0  0  0  0  0  0
  157.0820  212.4600  148.0770 N   0  0  0  0  0  2  0  0  0  0  0  0
  161.1120  205.1210  153.1760 O   0  0  0  0  0  0  0  0  0  0  0  0
  161.5510  205.9570  154.2070 C   0  0  0  0  0  2  0  0  0  0  0  0
  159.3680  206.8920  154.2190 O   0  0  0  0  0  1  0  0  0  0  0  0
  160.7220  207.2340  154.2250 C   0  0  1  0  0  3  0  0  0  0  0  0
  161.0410  208.0840  155.4610 C   0  0  1  0  0  3  0  0  0  0  0  0
  162.3650  207.8660  155.8540 O   0  0  0  0  0  1  0  0  0  0  0  0
  160.8410  209.5790  155.1840 C   0  0  2  0  0  3  0  0  0  0  0  0
  162.7880  210.9930  155.1630 O   0  0  0  0  0  1  0  0  0  0  0  0
  161.8190  210.4270  155.9950 C   0  0  0  0  0  2  0  0  0  0  0  0
  159.5290  209.9790  155.4670 O   0  0  0  0  0  0  0  0  0  0  0  0
  159.3590  211.1920  154.7870 C   0  0  2  0  0  3  0  0  0  0  0  0
  157.4140  212.8300  153.1800 O   0  0  0  0  0  1  0  0  0  0  0  0
  156.8140  213.9620  155.1910 C   0  0  0  0  0  2  0  0  0  0  0  0
  156.8800  212.8090  157.1230 C   0  0  0  0  0  2  0  0  0  0  0  0
  158.0940  211.8280  155.1910 N   0  0  0  0  0  0  0  0  0  0  0  0
  158.1110  212.0200  156.6470 C   0  0  0  0  0  2  0  0  0  0  0  0
  156.0400  213.1640  156.0510 O   0  0  0  0  0  0  0  0  0  0  0  0
  157.8580  213.0980  154.4730 C   0  0  1  0  0  3  0  0  0  0  0  0
  159.4900  210.9630  153.2790 C   0  0  0  0  0  2  0  0  0  0  0  0
  160.5610  211.6970  152.7650 O   0  0  0  0  0  1  0  0  0  0  0  0
  1  5  1  0  0  0  0
  2  5  1  0  0  0  0
  3  4  1  0  0  0  0
  3  6  1  0  0  0  0
  4  2  2  0  0  0  0
  5 40  1  1  0  0  0
  6 18  1  1  0  0  0
  6  1  1  0  0  0  0
  7 11  1  0  0  0  0
  7  4  1  0  0  0  0
  9  7  2  0  0  0  0
 10 12  1  0  0  0  0
 11  8  1  0  0  0  0
 12 11  2  0  0  0  0
 13 14  1  0  0  0  0
 14 12  1  0  0  0  0
 15 14  2  0  0  0  0
 15  9  1  0  0  0  0
 16 17  1  0  0  0  0
 17 15  1  0  0  0  0
 19 18  1  0  0  0  0
 20 19  1  0  0  0  0
 21 20  1  0  0  0  0
 22 21  1  0  0  0  0
 23 22  1  0  0  0  0
 24 23  2  0  0  0  0
 25 33  1  6  0  0  0
 25 23  1  0  0  0  0
 26 25  1  0  0  0  0
 27 26  1  0  0  0  0
 27 28  2  0  0  0  0
 29 27  1  0  0  0  0
 30 32  1  0  0  0  0
 32 31  1  0  0  0  0
 32 29  1  0  0  0  0
 33 34  2  0  0  0  0
 35 34  1  6  0  0  0
 35 39  1  0  0  0  0
 35 36  1  0  0  0  0
 36 37  1  0  0  0  0
 38 37  1  0  0  0  0
 39 38  1  0  0  0  0
 40 41  1  0  0  0  0
 41 43  1  0  0  0  0
 43 42  1  1  0  0  0
 43 44  1  0  0  0  0
 44 45  1  6  0  0  0
 46 44  1  0  0  0  0
 46 49  1  0  0  0  0
 46 48  1  1  0  0  0
 47 48  1  0  0  0  0
 50 58  1  6  0  0  0
 50 54  1  0  0  0  0
 50 49  1  0  0  0  0
 52 56  1  0  0  0  0
 54 55  1  0  0  0  0
 55 53  1  0  0  0  0
 56 53  1  0  0  0  0
 57 51  1  6  0  0  0
 57 52  1  0  0  0  0
 57 54  1  0  0  0  0
 59 58  1  0  0  0  0
M  END
>  <MODEL>
6

>  <REMARK>
 VINA RESULT:      -4.6      3.199     10.814
  Name = 
  24 active torsions:
  status: ('A' for Active; 'I' for Inactive)
    1  A    between atoms: C_3  and  C_17
    2  A    between atoms: C_6  and  N_24
    3  A    between atoms: C_6  and  C_48
    4  A    between atoms: C_7  and  C_56
    5  A    between atoms: N_10  and  C_43
    6  A    between atoms: C_12  and  C_16
    7  A    between atoms: C_13  and  C_32
    8  A    between atoms: C_14  and  N_24
    9  A    between atoms: C_14  and  C_55
   10  A    between atoms: O_15  and  C_48
   11  A    between atoms: O_15  and  C_52
   12  A    between atoms: C_16  and  O_29
   13  A    between atoms: C_16  and  N_34
   14  A    between atoms: C_21  and  C_33
   15  A    between atoms: C_21  and  C_46
   16  A    between atoms: O_23  and  C_31
   17  A    between atoms: O_23  and  C_40
   18  A    between atoms: O_29  and  C_33
   19  A    between atoms: C_31  and  C_46
   20  A    between atoms: C_32  and  C_58
   21  A    between atoms: C_33  and  C_35
   22  A    between atoms: C_38  and  C_43
   23  A    between atoms: C_43  and  C_55
   24  A    between atoms: C_45  and  O_49
                            x       y       z     vdW  Elec       q    Type
                         _______ _______ _______ _____ _____    ______ ____

>  <TORSDO>
F 24

$$$$
=
 OpenBabel11042422033D

 59 62  0  0  1  0  0  0  0  0999 V2000
  161.2890  209.4520  152.9760 C   0  0  0  0  0  2  0  0  0  0  0  0
  160.0470  211.5940  152.5730 C   0  0  0  0  0  3  0  0  0  0  0  0
  160.1780  210.8010  154.8700 C   0  0  0  0  0  2  0  0  0  0  0  0
  159.5010  211.6060  153.7920 C   0  0  0  0  0  0  0  0  0  0  0  0
  161.3260  210.8460  152.3300 C   0  0  2  0  0  3  0  0  0  0  0  0
  160.5600  209.4110  154.3350 C   0  0  2  0  0  3  0  0  0  0  0  0
  158.2270  212.3210  154.0830 C   0  0  0  0  0  0  0  0  0  0  0  0
  158.1480  211.5760  156.5230 C   0  0  0  0  0  1  0  0  0  0  0  0
  157.6170  213.0120  153.0250 C   0  0  0  0  0  3  0  0  0  0  0  0
  155.7810  213.0870  156.7850 O   0  0  0  0  0  1  0  0  0  0  0  0
  157.6010  212.3430  155.3580 C   0  0  0  0  0  0  0  0  0  0  0  0
  156.4030  213.0600  155.5380 C   0  0  0  0  0  0  0  0  0  0  0  0
  154.6390  214.4530  154.6570 O   0  0  0  0  0  1  0  0  0  0  0  0
  155.8220  213.7480  154.4660 C   0  0  0  0  0  0  0  0  0  0  0  0
  156.4240  213.7230  153.2040 C   0  0  0  0  0  0  0  0  0  0  0  0
  156.3550  214.4050  150.8250 C   0  0  0  0  0  1  0  0  0  0  0  0
  155.8210  214.4090  152.1440 O   0  0  0  0  0  0  0  0  0  0  0  0
  161.3430  208.7340  155.2710 O   0  0  0  0  0  0  0  0  0  0  0  0
  161.1320  207.3750  155.0040 C   0  0  0  0  0  2  0  0  0  0  0  0
  161.2350  207.1100  153.5120 C   0  0  0  0  0  2  0  0  0  0  0  0
  161.4120  205.6860  153.2740 N   0  0  0  0  0  2  0  0  0  0  0  0
  162.0580  205.5530  151.9790 C   0  0  0  0  0  2  0  0  0  0  0  0
  161.5960  204.2940  151.3100 C   0  0  0  0  0  0  0  0  0  0  0  0
  162.1770  203.2430  151.5310 O   0  0  0  0  0  0  0  0  0  0  0  0
  160.4330  204.3010  150.3640 C   0  0  1  0  0  3  0  0  0  0  0  0
  160.8800  204.4880  148.9890 N   0  0  0  0  0  2  0  0  0  0  0  0
  160.8830  205.7650  148.3460 C   0  0  0  0  0  0  0  0  0  0  0  0
  160.5380  206.8020  148.9700 O   0  0  0  0  0  0  0  0  0  0  0  0
  161.3380  205.8760  146.9300 C   0  0  0  0  0  2  0  0  0  0  0  0
  163.3630  204.5730  146.2750 C   0  0  0  0  0  1  0  0  0  0  0  0
  161.2300  204.2410  145.0720 C   0  0  0  0  0  1  0  0  0  0  0  0
  161.8520  204.5360  146.4210 C   0  0  0  0  0  3  0  0  0  0  0  0
  159.6550  203.0230  150.4820 C   0  0  0  0  0  3  0  0  0  0  0  0
  159.8150  201.9900  149.6400 C   0  0  0  0  0  3  0  0  0  0  0  0
  160.7730  202.0110  148.4870 C   0  0  1  0  0  3  0  0  0  0  0  0
  161.7470  200.8800  148.6150 C   0  0  0  0  0  2  0  0  0  0  0  0
  161.5690  200.0800  147.4170 N   0  0  0  0  0  2  0  0  0  0  0  0
  160.8740  200.8920  146.5020 N   0  0  0  0  0  2  0  0  0  0  0  0
  160.0620  201.7670  147.2480 N   0  0  0  0  0  2  0  0  0  0  0  0
  161.5600  210.7320  150.9590 O   0  0  0  0  0  0  0  0  0  0  0  0
  161.0490  211.9120  150.4100 C   0  0  0  0  0  2  0  0  0  0  0  0
  162.2990  211.5740  148.4190 O   0  0  0  0  0  1  0  0  0  0  0  0
  162.0550  212.5040  149.4320 C   0  0  1  0  0  3  0  0  0  0  0  0
  161.5330  213.8120  148.8270 C   0  0  1  0  0  3  0  0  0  0  0  0
  162.5600  214.4500  148.1230 O   0  0  0  0  0  1  0  0  0  0  0  0
  160.3570  213.5620  147.8740 C   0  0  2  0  0  3  0  0  0  0  0  0
  160.3940  211.6620  146.3980 O   0  0  0  0  0  1  0  0  0  0  0  0
  160.0940  212.0680  147.7000 C   0  0  0  0  0  2  0  0  0  0  0  0
  160.5830  214.1460  146.6210 O   0  0  0  0  0  0  0  0  0  0  0  0
  159.5890  213.6210  145.7860 C   0  0  2  0  0  3  0  0  0  0  0  0
  162.4020  213.3400  144.7580 O   0  0  0  0  0  1  0  0  0  0  0  0
  161.7100  214.4530  142.7660 C   0  0  0  0  0  2  0  0  0  0  0  0
  159.5980  214.1460  142.0520 C   0  0  0  0  0  2  0  0  0  0  0  0
  160.0880  213.5170  144.4040 N   0  0  0  0  0  0  0  0  0  0  0  0
  159.0830  214.0900  143.5000 C   0  0  0  0  0  2  0  0  0  0  0  0
  160.9090  213.6430  141.9430 O   0  0  0  0  0  0  0  0  0  0  0  0
  161.4060  214.1670  144.2420 C   0  0  1  0  0  3  0  0  0  0  0  0
  158.3060  214.4450  145.9260 C   0  0  0  0  0  2  0  0  0  0  0  0
  157.3920  213.7890  146.7530 O   0  0  0  0  0  1  0  0  0  0  0  0
  1  6  1  0  0  0  0
  2  4  2  0  0  0  0
  4  7  1  0  0  0  0
  4  3  1  0  0  0  0
  5 40  1  6  0  0  0
  5  2  1  0  0  0  0
  5  1  1  0  0  0  0
  6  3  1  0  0  0  0
  6 18  1  1  0  0  0
  7 11  1  0  0  0  0
  9 15  1  0  0  0  0
  9  7  2  0  0  0  0
 11 12  2  0  0  0  0
 11  8  1  0  0  0  0
 12 10  1  0  0  0  0
 14 13  1  0  0  0  0
 14 12  1  0  0  0  0
 15 14  2  0  0  0  0
 16 17  1  0  0  0  0
 17 15  1  0  0  0  0
 19 18  1  0  0  0  0
 20 19  1  0  0  0  0
 21 20  1  0  0  0  0
 22 21  1  0  0  0  0
 23 24  2  0  0  0  0
 23 22  1  0  0  0  0
 25 33  1  6  0  0  0
 25 23  1  0  0  0  0
 26 25  1  0  0  0  0
 27 28  2  0  0  0  0
 27 26  1  0  0  0  0
 29 27  1  0  0  0  0
 30 32  1  0  0  0  0
 31 32  1  0  0  0  0
 32 29  1  0  0  0  0
 34 33  2  0  0  0  0
 35 36  1  0  0  0  0
 35 34  1  1  0  0  0
 37 36  1  0  0  0  0
 38 39  1  0  0  0  0
 38 37  1  0  0  0  0
 39 35  1  0  0  0  0
 41 40  1  0  0  0  0
 43 42  1  6  0  0  0
 43 41  1  0  0  0  0
 44 45  1  6  0  0  0
 44 43  1  0  0  0  0
 46 48  1  6  0  0  0
 46 44  1  0  0  0  0
 47 48  1  0  0  0  0
 49 46  1  0  0  0  0
 50 58  1  6  0  0  0
 50 49  1  0  0  0  0
 52 57  1  0  0  0  0
 53 55  1  0  0  0  0
 54 50  1  0  0  0  0
 55 54  1  0  0  0  0
 56 53  1  0  0  0  0
 56 52  1  0  0  0  0
 57 54  1  0  0  0  0
 57 51  1  6  0  0  0
 58 59  1  0  0  0  0
M  END
>  <MODEL>
7

>  <REMARK>
 VINA RESULT:      -4.1      1.535      2.903
  Name = 
  24 active torsions:
  status: ('A' for Active; 'I' for Inactive)
    1  A    between atoms: C_3  and  C_17
    2  A    between atoms: C_6  and  N_24
    3  A    between atoms: C_6  and  C_48
    4  A    between atoms: C_7  and  C_56
    5  A    between atoms: N_10  and  C_43
    6  A    between atoms: C_12  and  C_16
    7  A    between atoms: C_13  and  C_32
    8  A    between atoms: C_14  and  N_24
    9  A    between atoms: C_14  and  C_55
   10  A    between atoms: O_15  and  C_48
   11  A    between atoms: O_15  and  C_52
   12  A    between atoms: C_16  and  O_29
   13  A    between atoms: C_16  and  N_34
   14  A    between atoms: C_21  and  C_33
   15  A    between atoms: C_21  and  C_46
   16  A    between atoms: O_23  and  C_31
   17  A    between atoms: O_23  and  C_40
   18  A    between atoms: O_29  and  C_33
   19  A    between atoms: C_31  and  C_46
   20  A    between atoms: C_32  and  C_58
   21  A    between atoms: C_33  and  C_35
   22  A    between atoms: C_38  and  C_43
   23  A    between atoms: C_43  and  C_55
   24  A    between atoms: C_45  and  O_49
                            x       y       z     vdW  Elec       q    Type
                         _______ _______ _______ _____ _____    ______ ____

>  <TORSDO>
F 24

$$$$
=
 OpenBabel11042422033D

 59 62  0  0  1  0  0  0  0  0999 V2000
  162.0800  206.5510  145.3280 C   0  0  0  0  0  2  0  0  0  0  0  0
  161.1700  204.2240  145.5540 C   0  0  0  0  0  3  0  0  0  0  0  0
  160.9450  205.6980  147.4780 C   0  0  0  0  0  2  0  0  0  0  0  0
  161.0250  204.3180  146.8790 C   0  0  0  0  0  0  0  0  0  0  0  0
  161.1840  205.4660  144.7110 C   0  0  2  0  0  3  0  0  0  0  0  0
  162.0250  206.6070  146.8690 C   0  0  2  0  0  3  0  0  0  0  0  0
  161.0190  203.1190  147.7630 C   0  0  0  0  0  0  0  0  0  0  0  0
  161.1560  201.4610  145.8260 C   0  0  0  0  0  1  0  0  0  0  0  0
  160.9140  203.3340  149.1450 C   0  0  0  0  0  3  0  0  0  0  0  0
  161.2020  199.3990  147.7480 O   0  0  0  0  0  1  0  0  0  0  0  0
  161.1110  201.7820  147.2880 C   0  0  0  0  0  0  0  0  0  0  0  0
  161.1120  200.7130  148.2040 C   0  0  0  0  0  0  0  0  0  0  0  0
  161.0180  199.8940  150.4730 O   0  0  0  0  0  1  0  0  0  0  0  0
  161.0160  200.9580  149.5790 C   0  0  0  0  0  0  0  0  0  0  0  0
  160.9120  202.2690  150.0550 C   0  0  0  0  0  0  0  0  0  0  0  0
  161.0770  203.7560  152.0290 C   0  0  0  0  0  1  0  0  0  0  0  0
  160.8080  202.4920  151.4330 O   0  0  0  0  0  0  0  0  0  0  0  0
  161.8370  207.9250  147.2870 O   0  0  0  0  0  0  0  0  0  0  0  0
  162.6020  208.0470  148.4540 C   0  0  0  0  0  2  0  0  0  0  0  0
  162.0110  209.1120  149.3610 C   0  0  0  0  0  2  0  0  0  0  0  0
  162.0610  208.6670  150.7450 N   0  0  0  0  0  2  0  0  0  0  0  0
  162.1930  209.8580  151.5670 C   0  0  0  0  0  2  0  0  0  0  0  0
  161.0030  209.9870  152.4680 C   0  0  0  0  0  0  0  0  0  0  0  0
  160.0290  209.2720  152.2880 O   0  0  0  0  0  0  0  0  0  0  0  0
  160.9800  210.9840  153.5860 C   0  0  1  0  0  3  0  0  0  0  0  0
  159.6840  210.9910  154.2530 N   0  0  0  0  0  2  0  0  0  0  0  0
  159.2580  212.0590  155.1030 C   0  0  0  0  0  0  0  0  0  0  0  0
  159.9820  213.0740  155.2740 O   0  0  0  0  0  0  0  0  0  0  0  0
  157.9240  211.9860  155.7660 C   0  0  0  0  0  2  0  0  0  0  0  0
  157.2840  212.9560  153.5580 C   0  0  0  0  0  1  0  0  0  0  0  0
  155.6310  212.8440  155.3930 C   0  0  0  0  0  1  0  0  0  0  0  0
  156.8050  212.1390  154.7460 C   0  0  0  0  0  3  0  0  0  0  0  0
  162.0660  210.6850  154.5780 C   0  0  0  0  0  3  0  0  0  0  0  0
  161.9510  209.7400  155.5240 C   0  0  0  0  0  3  0  0  0  0  0  0
  160.7230  208.8990  155.7000 C   0  0  1  0  0  3  0  0  0  0  0  0
  160.9670  207.5240  155.1570 C   0  0  0  0  0  2  0  0  0  0  0  0
  160.7710  206.6260  156.2800 N   0  0  0  0  0  2  0  0  0  0  0  0
  160.0750  207.3630  157.2570 N   0  0  0  0  0  2  0  0  0  0  0  0
  160.4480  208.7120  157.1110 N   0  0  0  0  0  2  0  0  0  0  0  0
  161.6200  205.1620  143.4200 O   0  0  0  0  0  0  0  0  0  0  0  0
  161.2520  206.2690  142.6490 C   0  0  0  0  0  2  0  0  0  0  0  0
  162.1190  205.3520  140.6370 O   0  0  0  0  0  1  0  0  0  0  0  0
  162.2330  206.4460  141.4990 C   0  0  1  0  0  3  0  0  0  0  0  0
  161.9580  207.7450  140.7320 C   0  0  1  0  0  3  0  0  0  0  0  0
  163.1410  208.4810  140.6100 O   0  0  0  0  0  1  0  0  0  0  0  0
  161.3990  207.4650  139.3320 C   0  0  2  0  0  3  0  0  0  0  0  0
  162.0810  206.5930  137.1950 O   0  0  0  0  0  1  0  0  0  0  0  0
  162.5210  207.3150  138.3070 C   0  0  0  0  0  2  0  0  0  0  0  0
  160.5230  208.4790  138.9210 O   0  0  0  0  0  0  0  0  0  0  0  0
  161.2710  209.6610  138.9900 C   0  0  2  0  0  3  0  0  0  0  0  0
  161.8240  211.8790  140.9460 O   0  0  0  0  0  1  0  0  0  0  0  0
  159.4850  211.9610  141.4060 C   0  0  0  0  0  2  0  0  0  0  0  0
  158.0540  211.4800  139.7370 C   0  0  0  0  0  2  0  0  0  0  0  0
  160.4150  210.7790  139.4240 N   0  0  0  0  0  0  0  0  0  0  0  0
  159.0140  210.4170  139.1770 C   0  0  0  0  0  2  0  0  0  0  0  0
  158.7470  212.5360  140.3570 O   0  0  0  0  0  0  0  0  0  0  0  0
  160.6480  211.1380  140.8380 C   0  0  1  0  0  3  0  0  0  0  0  0
  161.9840  209.9010  137.6560 C   0  0  0  0  0  2  0  0  0  0  0  0
  163.0520  210.7840  137.8270 O   0  0  0  0  0  1  0  0  0  0  0  0
  1  6  1  0  0  0  0
  2  4  2  0  0  0  0
  4  3  1  0  0  0  0
  4  7  1  0  0  0  0
  5 40  1  6  0  0  0
  5  1  1  0  0  0  0
  5  2  1  0  0  0  0
  6 18  1  6  0  0  0
  6  3  1  0  0  0  0
  7  9  1  0  0  0  0
  8 11  1  0  0  0  0
  9 15  2  0  0  0  0
 10 12  1  0  0  0  0
 11  7  2  0  0  0  0
 11 12  1  0  0  0  0
 12 14  2  0  0  0  0
 14 15  1  0  0  0  0
 14 13  1  0  0  0  0
 15 17  1  0  0  0  0
 17 16  1  0  0  0  0
 18 19  1  0  0  0  0
 19 20  1  0  0  0  0
 20 21  1  0  0  0  0
 21 22  1  0  0  0  0
 22 23  1  0  0  0  0
 23 25  1  0  0  0  0
 24 23  2  0  0  0  0
 25 26  1  0  0  0  0
 25 33  1  1  0  0  0
 26 27  1  0  0  0  0
 27 28  2  0  0  0  0
 27 29  1  0  0  0  0
 30 32  1  0  0  0  0
 32 31  1  0  0  0  0
 32 29  1  0  0  0  0
 33 34  2  0  0  0  0
 35 34  1  1  0  0  0
 35 39  1  0  0  0  0
 36 35  1  0  0  0  0
 36 37  1  0  0  0  0
 37 38  1  0  0  0  0
 39 38  1  0  0  0  0
 41 40  1  0  0  0  0
 43 42  1  6  0  0  0
 43 41  1  0  0  0  0
 44 45  1  6  0  0  0
 44 43  1  0  0  0  0
 46 48  1  6  0  0  0
 46 44  1  0  0  0  0
 47 48  1  0  0  0  0
 49 50  1  0  0  0  0
 49 46  1  0  0  0  0
 50 58  1  6  0  0  0
 50 54  1  0  0  0  0
 53 56  1  0  0  0  0
 54 57  1  0  0  0  0
 55 54  1  0  0  0  0
 55 53  1  0  0  0  0
 56 52  1  0  0  0  0
 57 51  1  6  0  0  0
 57 52  1  0  0  0  0
 58 59  1  0  0  0  0
M  END
>  <MODEL>
8

>  <REMARK>
 VINA RESULT:      -3.8      3.547      9.204
  Name = 
  24 active torsions:
  status: ('A' for Active; 'I' for Inactive)
    1  A    between atoms: C_3  and  C_17
    2  A    between atoms: C_6  and  N_24
    3  A    between atoms: C_6  and  C_48
    4  A    between atoms: C_7  and  C_56
    5  A    between atoms: N_10  and  C_43
    6  A    between atoms: C_12  and  C_16
    7  A    between atoms: C_13  and  C_32
    8  A    between atoms: C_14  and  N_24
    9  A    between atoms: C_14  and  C_55
   10  A    between atoms: O_15  and  C_48
   11  A    between atoms: O_15  and  C_52
   12  A    between atoms: C_16  and  O_29
   13  A    between atoms: C_16  and  N_34
   14  A    between atoms: C_21  and  C_33
   15  A    between atoms: C_21  and  C_46
   16  A    between atoms: O_23  and  C_31
   17  A    between atoms: O_23  and  C_40
   18  A    between atoms: O_29  and  C_33
   19  A    between atoms: C_31  and  C_46
   20  A    between atoms: C_32  and  C_58
   21  A    between atoms: C_33  and  C_35
   22  A    between atoms: C_38  and  C_43
   23  A    between atoms: C_43  and  C_55
   24  A    between atoms: C_45  and  O_49
                            x       y       z     vdW  Elec       q    Type
                         _______ _______ _______ _____ _____    ______ ____

>  <TORSDO>
F 24

$$$$
=
 OpenBabel11042422033D

 59 62  0  0  1  0  0  0  0  0999 V2000
  162.2450  206.7440  145.4070 C   0  0  0  0  0  2  0  0  0  0  0  0
  161.2150  204.4690  145.6500 C   0  0  0  0  0  3  0  0  0  0  0  0
  161.1550  205.9310  147.5950 C   0  0  0  0  0  2  0  0  0  0  0  0
  161.1320  204.5560  146.9810 C   0  0  0  0  0  0  0  0  0  0  0  0
  161.2640  205.7180  144.8180 C   0  0  2  0  0  3  0  0  0  0  0  0
  162.2570  206.7850  146.9490 C   0  0  2  0  0  3  0  0  0  0  0  0
  161.0950  203.3480  147.8530 C   0  0  0  0  0  0  0  0  0  0  0  0
  160.8370  204.6860  150.0120 C   0  0  0  0  0  1  0  0  0  0  0  0
  161.2370  202.0980  147.2330 C   0  0  0  0  0  3  0  0  0  0  0  0
  160.7240  202.2260  151.3850 O   0  0  0  0  0  1  0  0  0  0  0  0
  160.9260  203.3920  149.2630 C   0  0  0  0  0  0  0  0  0  0  0  0
  160.8890  202.1940  150.0010 C   0  0  0  0  0  0  0  0  0  0  0  0
  160.9850  199.7830  150.0940 O   0  0  0  0  0  1  0  0  0  0  0  0
  161.0230  200.9600  149.3540 C   0  0  0  0  0  0  0  0  0  0  0  0
  161.2020  200.9070  147.9680 C   0  0  0  0  0  0  0  0  0  0  0  0
  161.2050  199.4910  145.9360 C   0  0  0  0  0  1  0  0  0  0  0  0
  161.3440  199.6630  147.3420 O   0  0  0  0  0  0  0  0  0  0  0  0
  162.1610  208.1070  147.3870 O   0  0  0  0  0  0  0  0  0  0  0  0
  162.6980  208.0990  148.6810 C   0  0  0  0  0  2  0  0  0  0  0  0
  162.0090  209.1440  149.5420 C   0  0  0  0  0  2  0  0  0  0  0  0
  161.9830  208.7040  150.9280 N   0  0  0  0  0  2  0  0  0  0  0  0
  162.1710  209.8890  151.7490 C   0  0  0  0  0  2  0  0  0  0  0  0
  160.9160  210.1770  152.5150 C   0  0  0  0  0  0  0  0  0  0  0  0
  159.9210  209.4960  152.3240 O   0  0  0  0  0  0  0  0  0  0  0  0
  160.8550  211.2950  153.5120 C   0  0  1  0  0  3  0  0  0  0  0  0
  159.5070  211.4450  154.0460 N   0  0  0  0  0  2  0  0  0  0  0  0
  158.5230  212.2830  153.4340 C   0  0  0  0  0  0  0  0  0  0  0  0
  158.7740  212.8980  152.3650 O   0  0  0  0  0  0  0  0  0  0  0  0
  157.1690  212.4000  154.0490 C   0  0  0  0  0  2  0  0  0  0  0  0
  157.1730  210.9050  156.0460 C   0  0  0  0  0  1  0  0  0  0  0  0
  156.1150  213.1350  156.1650 C   0  0  0  0  0  1  0  0  0  0  0  0
  157.2590  212.3440  155.5670 C   0  0  0  0  0  3  0  0  0  0  0  0
  161.8260  211.0540  154.6300 C   0  0  0  0  0  3  0  0  0  0  0  0
  161.6480  210.1040  155.5610 C   0  0  0  0  0  3  0  0  0  0  0  0
  160.4550  209.1970  155.5900 C   0  0  1  0  0  3  0  0  0  0  0  0
  160.8070  207.8740  154.9820 C   0  0  0  0  0  2  0  0  0  0  0  0
  160.5760  206.8950  156.0280 N   0  0  0  0  0  2  0  0  0  0  0  0
  159.7750  207.5320  156.9940 N   0  0  0  0  0  2  0  0  0  0  0  0
  160.0890  208.9040  156.9620 N   0  0  0  0  0  2  0  0  0  0  0  0
  161.6280  205.4050  143.5080 O   0  0  0  0  0  0  0  0  0  0  0  0
  161.4330  206.5900  142.7910 C   0  0  0  0  0  2  0  0  0  0  0  0
  161.5720  205.4880  140.6910 O   0  0  0  0  0  1  0  0  0  0  0  0
  162.1530  206.5070  141.4510 C   0  0  1  0  0  3  0  0  0  0  0  0
  162.0670  207.8370  140.6940 C   0  0  1  0  0  3  0  0  0  0  0  0
  163.3550  208.2880  140.3850 O   0  0  0  0  0  1  0  0  0  0  0  0
  161.2630  207.6950  139.3950 C   0  0  2  0  0  3  0  0  0  0  0  0
  161.4790  207.4540  137.0110 O   0  0  0  0  0  1  0  0  0  0  0  0
  162.1700  207.3380  138.2200 C   0  0  0  0  0  2  0  0  0  0  0  0
  160.5590  208.8700  139.1020 O   0  0  0  0  0  0  0  0  0  0  0  0
  161.3970  209.9140  139.5120 C   0  0  2  0  0  3  0  0  0  0  0  0
  158.5780  210.8710  139.9440 O   0  0  0  0  0  1  0  0  0  0  0  0
  159.4540  212.6070  141.3250 C   0  0  0  0  0  2  0  0  0  0  0  0
  161.3090  212.1800  142.5250 C   0  0  0  0  0  2  0  0  0  0  0  0
  160.8010  210.6250  140.6560 N   0  0  0  0  0  0  0  0  0  0  0  0
  161.8740  211.3000  141.3970 C   0  0  0  0  0  2  0  0  0  0  0  0
  159.9030  212.1340  142.5700 O   0  0  0  0  0  0  0  0  0  0  0  0
  159.7480  211.5710  140.2320 C   0  0  1  0  0  3  0  0  0  0  0  0
  161.7250  210.8160  138.3180 C   0  0  0  0  0  2  0  0  0  0  0  0
  162.7370  210.2480  137.5420 O   0  0  0  0  0  1  0  0  0  0  0  0
  1  6  1  0  0  0  0
  2  4  2  0  0  0  0
  4  3  1  0  0  0  0
  4  7  1  0  0  0  0
  5 40  1  6  0  0  0
  5  1  1  0  0  0  0
  5  2  1  0  0  0  0
  6 18  1  6  0  0  0
  6  3  1  0  0  0  0
  7 11  1  0  0  0  0
  9  7  2  0  0  0  0
  9 15  1  0  0  0  0
 11 12  2  0  0  0  0
 11  8  1  0  0  0  0
 12 10  1  0  0  0  0
 14 12  1  0  0  0  0
 14 13  1  0  0  0  0
 15 14  2  0  0  0  0
 16 17  1  0  0  0  0
 17 15  1  0  0  0  0
 18 19  1  0  0  0  0
 19 20  1  0  0  0  0
 20 21  1  0  0  0  0
 21 22  1  0  0  0  0
 22 23  1  0  0  0  0
 23 25  1  0  0  0  0
 24 23  2  0  0  0  0
 25 26  1  0  0  0  0
 25 33  1  1  0  0  0
 27 26  1  0  0  0  0
 27 29  1  0  0  0  0
 28 27  2  0  0  0  0
 29 32  1  0  0  0  0
 32 30  1  0  0  0  0
 32 31  1  0  0  0  0
 33 34  2  0  0  0  0
 35 34  1  1  0  0  0
 35 39  1  0  0  0  0
 36 35  1  0  0  0  0
 36 37  1  0  0  0  0
 37 38  1  0  0  0  0
 39 38  1  0  0  0  0
 41 40  1  0  0  0  0
 43 42  1  6  0  0  0
 43 41  1  0  0  0  0
 44 45  1  6  0  0  0
 44 43  1  0  0  0  0
 46 48  1  6  0  0  0
 46 44  1  0  0  0  0
 47 48  1  0  0  0  0
 49 46  1  0  0  0  0
 49 50  1  0  0  0  0
 50 58  1  6  0  0  0
 50 54  1  0  0  0  0
 52 56  1  0  0  0  0
 53 56  1  0  0  0  0
 54 55  1  0  0  0  0
 55 53  1  0  0  0  0
 57 51  1  1  0  0  0
 57 54  1  0  0  0  0
 57 52  1  0  0  0  0
 59 58  1  0  0  0  0
M  END
>  <MODEL>
9

>  <REMARK>
 VINA RESULT:      -3.4      3.349      9.234
  Name = 
  24 active torsions:
  status: ('A' for Active; 'I' for Inactive)
    1  A    between atoms: C_3  and  C_17
    2  A    between atoms: C_6  and  N_24
    3  A    between atoms: C_6  and  C_48
    4  A    between atoms: C_7  and  C_56
    5  A    between atoms: N_10  and  C_43
    6  A    between atoms: C_12  and  C_16
    7  A    between atoms: C_13  and  C_32
    8  A    between atoms: C_14  and  N_24
    9  A    between atoms: C_14  and  C_55
   10  A    between atoms: O_15  and  C_48
   11  A    between atoms: O_15  and  C_52
   12  A    between atoms: C_16  and  O_29
   13  A    between atoms: C_16  and  N_34
   14  A    between atoms: C_21  and  C_33
   15  A    between atoms: C_21  and  C_46
   16  A    between atoms: O_23  and  C_31
   17  A    between atoms: O_23  and  C_40
   18  A    between atoms: O_29  and  C_33
   19  A    between atoms: C_31  and  C_46
   20  A    between atoms: C_32  and  C_58
   21  A    between atoms: C_33  and  C_35
   22  A    between atoms: C_38  and  C_43
   23  A    between atoms: C_43  and  C_55
   24  A    between atoms: C_45  and  O_49
                            x       y       z     vdW  Elec       q    Type
                         _______ _______ _______ _____ _____    ______ ____

>  <TORSDO>
F 24

$$$$
