=
 OpenBabel11052409333D

 44 50  0  0  1  0  0  0  0  0999 V2000
  160.7380  208.1520  154.0050 C   0  0  0  0  0  0  0  0  0  0  0  0
  162.0390  210.8380  150.2340 C   0  0  0  0  0  2  0  0  0  0  0  0
  160.4330  212.3260  151.3450 C   0  0  0  0  0  3  0  0  0  0  0  0
  161.9610  206.5600  151.1770 C   0  0  2  0  0  3  0  0  0  0  0  0
  160.3410  210.9450  151.9620 C   0  0  0  0  0  3  0  0  0  0  0  0
  161.0120  207.9760  152.6650 C   0  0  0  0  0  0  0  0  0  0  0  0
  161.3670  210.1500  151.3190 N   0  0  0  0  0  0  0  0  0  0  0  0
  161.1820  206.7010  152.4010 N   0  0  0  0  0  0  0  0  0  0  0  0
  162.0600  207.9390  150.6740 N   0  0  0  0  0  0  0  0  0  0  0  0
  161.5210  212.2660  150.2680 C   0  0  2  0  0  3  0  0  0  0  0  0
  160.7400  206.8670  154.5610 C   0  0  0  0  0  3  0  0  0  0  0  0
  161.0700  205.9810  153.5300 C   0  0  0  0  0  3  0  0  0  0  0  0
  161.5350  208.7470  151.5520 C   0  0  0  0  0  0  0  0  0  0  0  0
  161.0380  212.6950  148.9070 C   0  0  0  0  0  0  0  0  0  0  0  0
  160.1980  213.4700  146.3300 C   0  0  0  0  0  0  0  0  0  0  0  0
  161.5200  213.0500  146.5450 C   0  0  0  0  0  0  0  0  0  0  0  0
  161.9350  212.6700  147.8280 C   0  0  0  0  0  3  0  0  0  0  0  0
  159.7020  213.0880  148.6880 C   0  0  0  0  0  3  0  0  0  0  0  0
  159.2880  213.4810  147.4110 C   0  0  0  0  0  3  0  0  0  0  0  0
  162.4230  213.0100  145.4900 O   0  0  0  0  0  1  0  0  0  0  0  0
  159.8070  213.8610  145.0430 O   0  0  0  0  0  0  0  0  0  0  0  0
  158.9840  213.0480  144.2090 C   0  0  0  0  0  1  0  0  0  0  0  0
  160.7470  209.3970  154.7830 C   0  0  0  0  0  0  0  0  0  0  0  0
  159.5830  211.1270  155.9960 C   0  0  0  0  0  0  0  0  0  0  0  0
  161.9560  211.1180  155.8360 N   0  0  0  0  0  0  0  0  0  0  0  0
  159.5490  209.9510  155.2400 C   0  0  0  0  0  3  0  0  0  0  0  0
  160.8170  211.7070  156.2830 C   0  0  0  0  0  3  0  0  0  0  0  0
  161.9230  209.9970  155.1120 N   0  0  0  0  0  0  0  0  0  0  0  0
  158.3830  211.7650  156.4450 N   0  0  0  0  0  2  0  0  0  0  0  0
  157.0870  211.5240  155.8220 C   0  0  0  0  0  2  0  0  0  0  0  0
  156.0480  214.4350  152.8820 C   0  0  0  0  0  3  0  0  0  0  0  0
  155.2480  214.2140  153.9610 N   0  0  0  0  0  0  0  0  0  0  0  0
  157.2370  213.7180  152.7290 C   0  0  0  0  0  3  0  0  0  0  0  0
  156.7810  212.5940  154.8260 C   0  0  0  0  0  0  0  0  0  0  0  0
  157.5980  212.7860  153.7050 C   0  0  0  0  0  3  0  0  0  0  0  0
  155.5830  213.3100  154.9220 C   0  0  0  0  0  3  0  0  0  0  0  0
  161.3140  205.6570  150.1570 C   0  0  0  0  0  0  0  0  0  0  0  0
  160.6880  206.1470  149.1170 C   0  0  0  0  0  0  0  0  0  0  0  0
  160.0930  206.6040  148.1290 O   0  0  0  0  0  0  0  0  0  0  0  0
  160.7290  203.0380  149.3130 S   0  0  0  0  0  0  0  0  0  0  0  0
  161.6000  203.6270  151.5940 N   0  0  0  0  0  0  0  0  0  0  0  0
  160.9550  201.7410  150.3750 C   0  0  0  0  0  3  0  0  0  0  0  0
  161.2360  204.2060  150.4210 C   0  0  0  0  0  0  0  0  0  0  0  0
  161.4510  202.2720  151.5760 C   0  0  0  0  0  3  0  0  0  0  0  0
  1 11  1  0  0  0  0
  1 23  1  0  0  0  0
  2 10  1  0  0  0  0
  2  7  1  0  0  0  0
  3  5  2  0  0  0  0
  4 37  1  6  0  0  0
  4  8  1  0  0  0  0
  6  1  2  0  0  0  0
  7 13  1  0  0  0  0
  7  5  1  0  0  0  0
  8  6  1  0  0  0  0
  8 12  1  0  0  0  0
  9  4  1  0  0  0  0
  9 13  2  0  0  0  0
 10 14  1  6  0  0  0
 10  3  1  0  0  0  0
 12 11  2  0  0  0  0
 13  6  1  0  0  0  0
 15 16  2  0  0  0  0
 15 19  1  0  0  0  0
 16 17  1  0  0  0  0
 17 14  2  0  0  0  0
 18 14  1  0  0  0  0
 19 18  2  0  0  0  0
 20 16  1  0  0  0  0
 21 15  1  0  0  0  0
 22 21  1  0  0  0  0
 23 28  2  0  0  0  0
 23 26  1  0  0  0  0
 24 27  1  0  0  0  0
 24 29  1  0  0  0  0
 25 27  2  0  0  0  0
 26 24  2  0  0  0  0
 28 25  1  0  0  0  0
 30 29  1  0  0  0  0
 31 32  1  0  0  0  0
 32 36  2  0  0  0  0
 33 31  2  0  0  0  0
 33 35  1  0  0  0  0
 34 36  1  0  0  0  0
 34 30  1  0  0  0  0
 35 34  2  0  0  0  0
 37 43  1  0  0  0  0
 38 37  2  0  0  0  0
 39 38  2  0  0  0  0
 40 42  1  0  0  0  0
 40 43  1  0  0  0  0
 42 44  2  0  0  0  0
 43 41  2  0  0  0  0
 44 41  1  0  0  0  0
M  END
>  <MODEL>
1

>  <REMARK>
 VINA RESULT:      -7.8      0.000      0.000
  Name = 
  8 active torsions:
  status: ('A' for Active; 'I' for Inactive)
    1  A    between atoms: C_1  and  C_35
    2  A    between atoms: O_2  and  C_13
    3  A    between atoms: N_3  and  C_9
    4  A    between atoms: N_3  and  C_40
    5  A    between atoms: C_4  and  C_7
    6  A    between atoms: C_15  and  C_17
    7  A    between atoms: C_17  and  C_36
    8  A    between atoms: C_30  and  C_40
                            x       y       z     vdW  Elec       q    Type
                         _______ _______ _______ _____ _____    ______ ____

>  <TORSDO>
F 8

$$$$
=
 OpenBabel11052409333D

 44 50  0  0  1  0  0  0  0  0999 V2000
  160.8390  207.9980  154.0260 C   0  0  0  0  0  0  0  0  0  0  0  0
  162.0170  210.6870  150.2160 C   0  0  0  0  0  2  0  0  0  0  0  0
  160.4370  212.1680  151.3730 C   0  0  0  0  0  3  0  0  0  0  0  0
  161.9850  206.4090  151.1650 C   0  0  2  0  0  3  0  0  0  0  0  0
  160.3690  210.7870  151.9930 C   0  0  0  0  0  3  0  0  0  0  0  0
  161.0740  207.8220  152.6780 C   0  0  0  0  0  0  0  0  0  0  0  0
  161.3790  209.9960  151.3210 N   0  0  0  0  0  0  0  0  0  0  0  0
  161.2420  206.5480  152.4110 N   0  0  0  0  0  0  0  0  0  0  0  0
  162.0630  207.7880  150.6580 N   0  0  0  0  0  0  0  0  0  0  0  0
  161.4930  212.1120  150.2650 C   0  0  2  0  0  3  0  0  0  0  0  0
  160.8630  206.7130  154.5830 C   0  0  0  0  0  3  0  0  0  0  0  0
  161.1670  205.8280  153.5430 C   0  0  0  0  0  3  0  0  0  0  0  0
  161.5610  208.5950  151.5510 C   0  0  0  0  0  0  0  0  0  0  0  0
  160.9680  212.5380  148.9190 C   0  0  0  0  0  0  0  0  0  0  0  0
  160.0500  213.3090  146.3670 C   0  0  0  0  0  0  0  0  0  0  0  0
  161.3870  212.9220  146.5490 C   0  0  0  0  0  0  0  0  0  0  0  0
  161.8410  212.5450  147.8190 C   0  0  0  0  0  3  0  0  0  0  0  0
  159.6180  212.8970  148.7320 C   0  0  0  0  0  3  0  0  0  0  0  0
  159.1650  213.2880  147.4670 C   0  0  0  0  0  3  0  0  0  0  0  0
  162.2670  212.9140  145.4740 O   0  0  0  0  0  1  0  0  0  0  0  0
  159.6200  213.6990  145.0910 O   0  0  0  0  0  0  0  0  0  0  0  0
  159.0110  212.7910  144.1750 C   0  0  0  0  0  1  0  0  0  0  0  0
  160.8650  209.2440  154.8030 C   0  0  0  0  0  0  0  0  0  0  0  0
  159.7470  210.9140  156.1350 C   0  0  0  0  0  0  0  0  0  0  0  0
  162.0880  211.0260  155.7290 N   0  0  0  0  0  0  0  0  0  0  0  0
  159.6940  209.7370  155.3830 C   0  0  0  0  0  3  0  0  0  0  0  0
  160.9720  211.5580  156.2940 C   0  0  0  0  0  3  0  0  0  0  0  0
  162.0360  209.9040  155.0090 N   0  0  0  0  0  0  0  0  0  0  0  0
  158.5690  211.4920  156.7090 N   0  0  0  0  0  2  0  0  0  0  0  0
  157.2520  211.3560  156.0960 C   0  0  0  0  0  2  0  0  0  0  0  0
  156.3430  214.4530  153.3070 C   0  0  0  0  0  3  0  0  0  0  0  0
  155.6680  214.3520  154.4840 N   0  0  0  0  0  0  0  0  0  0  0  0
  157.3610  213.5480  152.9990 C   0  0  0  0  0  3  0  0  0  0  0  0
  157.0030  212.4800  155.1440 C   0  0  0  0  0  0  0  0  0  0  0  0
  157.6840  212.5500  153.9220 C   0  0  0  0  0  3  0  0  0  0  0  0
  155.9690  213.3880  155.3970 C   0  0  0  0  0  3  0  0  0  0  0  0
  161.3130  205.5020  150.1640 C   0  0  0  0  0  0  0  0  0  0  0  0
  160.8170  204.3450  150.5230 C   0  0  0  0  0  0  0  0  0  0  0  0
  160.3430  203.2480  150.8560 O   0  0  0  0  0  0  0  0  0  0  0  0
  162.6060  205.4150  147.6680 S   0  0  0  0  0  0  0  0  0  0  0  0
  160.3900  206.5270  148.0740 N   0  0  0  0  0  0  0  0  0  0  0  0
  161.8900  206.1500  146.3220 C   0  0  0  0  0  3  0  0  0  0  0  0
  161.3660  205.8440  148.7280 C   0  0  0  0  0  0  0  0  0  0  0  0
  160.6710  206.6970  146.7510 C   0  0  0  0  0  3  0  0  0  0  0  0
  1 11  1  0  0  0  0
  1 23  1  0  0  0  0
  2 10  1  0  0  0  0
  2  7  1  0  0  0  0
  3  5  2  0  0  0  0
  4 37  1  6  0  0  0
  4  8  1  0  0  0  0
  6  1  2  0  0  0  0
  7 13  1  0  0  0  0
  7  5  1  0  0  0  0
  8  6  1  0  0  0  0
  8 12  1  0  0  0  0
  9  4  1  0  0  0  0
  9 13  2  0  0  0  0
 10 14  1  6  0  0  0
 10  3  1  0  0  0  0
 12 11  2  0  0  0  0
 13  6  1  0  0  0  0
 15 16  2  0  0  0  0
 15 19  1  0  0  0  0
 16 17  1  0  0  0  0
 17 14  2  0  0  0  0
 18 14  1  0  0  0  0
 19 18  2  0  0  0  0
 20 16  1  0  0  0  0
 21 15  1  0  0  0  0
 22 21  1  0  0  0  0
 23 28  2  0  0  0  0
 23 26  1  0  0  0  0
 24 27  1  0  0  0  0
 24 29  1  0  0  0  0
 25 27  2  0  0  0  0
 26 24  2  0  0  0  0
 28 25  1  0  0  0  0
 30 29  1  0  0  0  0
 31 32  1  0  0  0  0
 32 36  2  0  0  0  0
 33 31  2  0  0  0  0
 33 35  1  0  0  0  0
 34 36  1  0  0  0  0
 34 30  1  0  0  0  0
 35 34  2  0  0  0  0
 37 38  2  0  0  0  0
 38 39  2  0  0  0  0
 40 43  1  0  0  0  0
 41 43  2  0  0  0  0
 42 44  2  0  0  0  0
 42 40  1  0  0  0  0
 43 37  1  0  0  0  0
 44 41  1  0  0  0  0
M  END
>  <MODEL>
2

>  <REMARK>
 VINA RESULT:      -7.4      1.179      1.827
  Name = 
  8 active torsions:
  status: ('A' for Active; 'I' for Inactive)
    1  A    between atoms: C_1  and  C_35
    2  A    between atoms: O_2  and  C_13
    3  A    between atoms: N_3  and  C_9
    4  A    between atoms: N_3  and  C_40
    5  A    between atoms: C_4  and  C_7
    6  A    between atoms: C_15  and  C_17
    7  A    between atoms: C_17  and  C_36
    8  A    between atoms: C_30  and  C_40
                            x       y       z     vdW  Elec       q    Type
                         _______ _______ _______ _____ _____    ______ ____

>  <TORSDO>
F 8

$$$$
=
 OpenBabel11052409333D

 44 50  0  0  1  0  0  0  0  0999 V2000
  161.1290  207.5340  152.2240 C   0  0  0  0  0  0  0  0  0  0  0  0
  162.5910  210.4420  148.6830 C   0  0  0  0  0  2  0  0  0  0  0  0
  161.1450  211.9520  149.9700 C   0  0  0  0  0  3  0  0  0  0  0  0
  162.1520  206.1170  149.2280 C   0  0  2  0  0  3  0  0  0  0  0  0
  160.9430  210.5320  150.4590 C   0  0  0  0  0  3  0  0  0  0  0  0
  161.3610  207.4630  150.8660 C   0  0  0  0  0  0  0  0  0  0  0  0
  161.8810  209.7150  149.7170 N   0  0  0  0  0  0  0  0  0  0  0  0
  161.4120  206.2090  150.4810 N   0  0  0  0  0  0  0  0  0  0  0  0
  162.3630  207.5230  148.8530 N   0  0  0  0  0  0  0  0  0  0  0  0
  162.2020  211.9000  148.8630 C   0  0  2  0  0  3  0  0  0  0  0  0
  161.0290  206.2070  152.6590 C   0  0  0  0  0  3  0  0  0  0  0  0
  161.2590  205.3970  151.5410 C   0  0  0  0  0  3  0  0  0  0  0  0
  161.9290  208.2880  149.8160 C   0  0  0  0  0  0  0  0  0  0  0  0
  161.7330  212.4960  147.5620 C   0  0  0  0  0  0  0  0  0  0  0  0
  160.7840  213.5910  145.1440 C   0  0  0  0  0  0  0  0  0  0  0  0
  159.9530  212.7690  145.9200 C   0  0  0  0  0  0  0  0  0  0  0  0
  160.4290  212.2230  147.1190 C   0  0  0  0  0  3  0  0  0  0  0  0
  162.5590  213.3450  146.7980 C   0  0  0  0  0  3  0  0  0  0  0  0
  162.0910  213.8810  145.5940 C   0  0  0  0  0  3  0  0  0  0  0  0
  158.6560  212.4900  145.5060 O   0  0  0  0  0  1  0  0  0  0  0  0
  160.2940  214.1150  143.9400 O   0  0  0  0  0  0  0  0  0  0  0  0
  160.5520  213.5080  142.6750 C   0  0  0  0  0  1  0  0  0  0  0  0
  161.2640  208.6950  153.1140 C   0  0  0  0  0  0  0  0  0  0  0  0
  160.5090  209.9980  154.9970 C   0  0  0  0  0  0  0  0  0  0  0  0
  162.4610  210.6060  153.7800 N   0  0  0  0  0  0  0  0  0  0  0  0
  160.3500  208.8970  154.1500 C   0  0  0  0  0  3  0  0  0  0  0  0
  161.5850  210.8580  154.7880 C   0  0  0  0  0  3  0  0  0  0  0  0
  162.3070  209.5570  152.9700 N   0  0  0  0  0  0  0  0  0  0  0  0
  159.5740  210.2820  156.0430 N   0  0  0  0  0  2  0  0  0  0  0  0
  159.2030  211.6430  156.4140 C   0  0  0  0  0  2  0  0  0  0  0  0
  156.3490  213.4110  153.7820 C   0  0  0  0  0  3  0  0  0  0  0  0
  157.6450  213.8270  153.7900 N   0  0  0  0  0  0  0  0  0  0  0  0
  155.9350  212.3820  154.6300 C   0  0  0  0  0  3  0  0  0  0  0  0
  158.2090  212.1940  155.4440 C   0  0  0  0  0  0  0  0  0  0  0  0
  156.8720  211.7780  155.4720 C   0  0  0  0  0  3  0  0  0  0  0  0
  158.5720  213.2500  154.6020 C   0  0  0  0  0  3  0  0  0  0  0  0
  161.4080  205.3740  148.1470 C   0  0  0  0  0  0  0  0  0  0  0  0
  160.8250  206.0110  147.1630 C   0  0  0  0  0  0  0  0  0  0  0  0
  160.2710  206.6080  146.2270 O   0  0  0  0  0  0  0  0  0  0  0  0
  161.3520  202.7820  147.0540 S   0  0  0  0  0  0  0  0  0  0  0  0
  160.8460  203.3150  149.4570 N   0  0  0  0  0  0  0  0  0  0  0  0
  160.9510  201.4630  148.0360 C   0  0  0  0  0  3  0  0  0  0  0  0
  161.1850  203.9200  148.2890 C   0  0  0  0  0  0  0  0  0  0  0  0
  160.7180  201.9640  149.3250 C   0  0  0  0  0  3  0  0  0  0  0  0
  1 11  1  0  0  0  0
  1 23  1  0  0  0  0
  2 10  1  0  0  0  0
  2  7  1  0  0  0  0
  3  5  2  0  0  0  0
  4 37  1  6  0  0  0
  4  8  1  0  0  0  0
  6  1  2  0  0  0  0
  7 13  1  0  0  0  0
  7  5  1  0  0  0  0
  8  6  1  0  0  0  0
  8 12  1  0  0  0  0
  9  4  1  0  0  0  0
  9 13  2  0  0  0  0
 10 14  1  6  0  0  0
 10  3  1  0  0  0  0
 12 11  2  0  0  0  0
 13  6  1  0  0  0  0
 15 19  2  0  0  0  0
 15 16  1  0  0  0  0
 16 17  2  0  0  0  0
 17 14  1  0  0  0  0
 18 14  2  0  0  0  0
 19 18  1  0  0  0  0
 20 16  1  0  0  0  0
 21 15  1  0  0  0  0
 22 21  1  0  0  0  0
 23 26  1  0  0  0  0
 24 29  1  0  0  0  0
 25 27  2  0  0  0  0
 26 24  2  0  0  0  0
 27 24  1  0  0  0  0
 28 23  2  0  0  0  0
 28 25  1  0  0  0  0
 29 30  1  0  0  0  0
 31 32  2  0  0  0  0
 31 33  1  0  0  0  0
 32 36  1  0  0  0  0
 33 35  2  0  0  0  0
 34 35  1  0  0  0  0
 34 30  1  0  0  0  0
 36 34  2  0  0  0  0
 37 43  1  0  0  0  0
 38 37  2  0  0  0  0
 39 38  2  0  0  0  0
 40 42  1  0  0  0  0
 40 43  1  0  0  0  0
 42 44  2  0  0  0  0
 43 41  2  0  0  0  0
 44 41  1  0  0  0  0
M  END
>  <MODEL>
3

>  <REMARK>
 VINA RESULT:      -6.5      1.570      2.130
  Name = 
  8 active torsions:
  status: ('A' for Active; 'I' for Inactive)
    1  A    between atoms: C_1  and  C_35
    2  A    between atoms: O_2  and  C_13
    3  A    between atoms: N_3  and  C_9
    4  A    between atoms: N_3  and  C_40
    5  A    between atoms: C_4  and  C_7
    6  A    between atoms: C_15  and  C_17
    7  A    between atoms: C_17  and  C_36
    8  A    between atoms: C_30  and  C_40
                            x       y       z     vdW  Elec       q    Type
                         _______ _______ _______ _____ _____    ______ ____

>  <TORSDO>
F 8

$$$$
=
 OpenBabel11052409333D

 44 50  0  0  1  0  0  0  0  0999 V2000
  161.8110  207.9040  149.4540 C   0  0  0  0  0  0  0  0  0  0  0  0
  161.5840  210.6050  153.4270 C   0  0  0  0  0  2  0  0  0  0  0  0
  160.1860  208.6930  154.0720 C   0  0  0  0  0  3  0  0  0  0  0  0
  162.3610  211.3160  149.1730 C   0  0  2  0  0  3  0  0  0  0  0  0
  160.4640  208.6260  152.5840 C   0  0  0  0  0  3  0  0  0  0  0  0
  161.7040  209.2390  149.7830 C   0  0  0  0  0  0  0  0  0  0  0  0
  161.3560  209.7300  152.2930 N   0  0  0  0  0  0  0  0  0  0  0  0
  161.9610  209.9850  148.7340 N   0  0  0  0  0  0  0  0  0  0  0  0
  162.1220  211.2830  150.6240 N   0  0  0  0  0  0  0  0  0  0  0  0
  160.9110  209.9300  154.6090 C   0  0  2  0  0  3  0  0  0  0  0  0
  162.1490  207.8770  148.0950 C   0  0  0  0  0  3  0  0  0  0  0  0
  162.2810  209.2080  147.6850 C   0  0  0  0  0  3  0  0  0  0  0  0
  161.7720  210.0750  150.9670 C   0  0  0  0  0  0  0  0  0  0  0  0
  159.9990  210.8900  155.3280 C   0  0  0  0  0  0  0  0  0  0  0  0
  158.2910  212.7300  156.6110 C   0  0  0  0  0  0  0  0  0  0  0  0
  158.8860  213.0570  155.3820 C   0  0  0  0  0  0  0  0  0  0  0  0
  159.7380  212.1420  154.7500 C   0  0  0  0  0  3  0  0  0  0  0  0
  159.3790  210.5480  156.5470 C   0  0  0  0  0  3  0  0  0  0  0  0
  158.5390  211.4650  157.1870 C   0  0  0  0  0  3  0  0  0  0  0  0
  158.6360  214.2880  154.7880 O   0  0  0  0  0  1  0  0  0  0  0  0
  157.4540  213.6650  157.2350 O   0  0  0  0  0  0  0  0  0  0  0  0
  156.0450  213.7010  157.0170 C   0  0  0  0  0  1  0  0  0  0  0  0
  161.8790  206.7440  150.3520 C   0  0  0  0  0  0  0  0  0  0  0  0
  161.2410  204.4900  150.9270 C   0  0  0  0  0  0  0  0  0  0  0  0
  162.7860  205.7120  152.2610 N   0  0  0  0  0  0  0  0  0  0  0  0
  161.1470  205.5890  150.0670 C   0  0  0  0  0  3  0  0  0  0  0  0
  162.0760  204.5750  152.0390 C   0  0  0  0  0  3  0  0  0  0  0  0
  162.6930  206.7620  151.4420 N   0  0  0  0  0  0  0  0  0  0  0  0
  160.4740  203.3010  150.7110 N   0  0  0  0  0  2  0  0  0  0  0  0
  161.0930  201.9890  150.5520 C   0  0  0  0  0  2  0  0  0  0  0  0
  161.2560  200.8180  146.4530 C   0  0  0  0  0  3  0  0  0  0  0  0
  161.6100  199.9540  147.4430 N   0  0  0  0  0  0  0  0  0  0  0  0
  160.8160  202.1060  146.7690 C   0  0  0  0  0  3  0  0  0  0  0  0
  161.0670  201.5720  149.1190 C   0  0  0  0  0  0  0  0  0  0  0  0
  160.7310  202.4840  148.1110 C   0  0  0  0  0  3  0  0  0  0  0  0
  161.5330  200.3040  148.7560 C   0  0  0  0  0  3  0  0  0  0  0  0
  161.5730  212.4250  148.5210 C   0  0  0  0  0  0  0  0  0  0  0  0
  160.6310  213.0620  149.1700 C   0  0  0  0  0  0  0  0  0  0  0  0
  159.7390  213.6700  149.7800 O   0  0  0  0  0  0  0  0  0  0  0  0
  160.5010  212.7150  145.9360 S   0  0  0  0  0  0  0  0  0  0  0  0
  162.9400  212.9580  146.4920 N   0  0  0  0  0  0  0  0  0  0  0  0
  161.5240  213.0700  144.6350 C   0  0  0  0  0  3  0  0  0  0  0  0
  161.7450  212.6820  147.0760 C   0  0  0  0  0  0  0  0  0  0  0  0
  162.8250  213.1750  145.1510 C   0  0  0  0  0  3  0  0  0  0  0  0
  1  6  2  0  0  0  0
  1 23  1  0  0  0  0
  2 10  1  0  0  0  0
  3 10  1  0  0  0  0
  4 37  1  6  0  0  0
  4  9  1  0  0  0  0
  5  3  2  0  0  0  0
  6 13  1  0  0  0  0
  7  5  1  0  0  0  0
  7  2  1  0  0  0  0
  8  4  1  0  0  0  0
  8  6  1  0  0  0  0
  9 13  2  0  0  0  0
 10 14  1  6  0  0  0
 11  1  1  0  0  0  0
 12 11  2  0  0  0  0
 12  8  1  0  0  0  0
 13  7  1  0  0  0  0
 14 18  1  0  0  0  0
 15 19  1  0  0  0  0
 15 21  1  0  0  0  0
 16 15  2  0  0  0  0
 17 14  2  0  0  0  0
 17 16  1  0  0  0  0
 18 19  2  0  0  0  0
 20 16  1  0  0  0  0
 22 21  1  0  0  0  0
 23 28  1  0  0  0  0
 24 27  2  0  0  0  0
 26 23  2  0  0  0  0
 26 24  1  0  0  0  0
 27 25  1  0  0  0  0
 28 25  2  0  0  0  0
 29 24  1  0  0  0  0
 30 29  1  0  0  0  0
 31 33  2  0  0  0  0
 31 32  1  0  0  0  0
 32 36  2  0  0  0  0
 33 35  1  0  0  0  0
 34 30  1  0  0  0  0
 35 34  2  0  0  0  0
 36 34  1  0  0  0  0
 37 38  2  0  0  0  0
 38 39  2  0  0  0  0
 40 43  1  0  0  0  0
 41 43  2  0  0  0  0
 42 44  2  0  0  0  0
 42 40  1  0  0  0  0
 43 37  1  0  0  0  0
 44 41  1  0  0  0  0
M  END
>  <MODEL>
4

>  <REMARK>
 VINA RESULT:      -6.3      3.543      9.213
  Name = 
  8 active torsions:
  status: ('A' for Active; 'I' for Inactive)
    1  A    between atoms: C_1  and  C_35
    2  A    between atoms: O_2  and  C_13
    3  A    between atoms: N_3  and  C_9
    4  A    between atoms: N_3  and  C_40
    5  A    between atoms: C_4  and  C_7
    6  A    between atoms: C_15  and  C_17
    7  A    between atoms: C_17  and  C_36
    8  A    between atoms: C_30  and  C_40
                            x       y       z     vdW  Elec       q    Type
                         _______ _______ _______ _____ _____    ______ ____

>  <TORSDO>
F 8

$$$$
=
 OpenBabel11052409333D

 44 50  0  0  1  0  0  0  0  0999 V2000
  160.6350  212.6490  150.2000 C   0  0  0  0  0  0  0  0  0  0  0  0
  162.3320  208.1550  150.4510 C   0  0  0  0  0  2  0  0  0  0  0  0
  161.5920  208.2540  148.1120 C   0  0  0  0  0  3  0  0  0  0  0  0
  160.7470  211.0880  153.2950 C   0  0  2  0  0  3  0  0  0  0  0  0
  161.0630  209.4660  148.8520 C   0  0  0  0  0  3  0  0  0  0  0  0
  160.6320  211.5980  151.0940 C   0  0  0  0  0  0  0  0  0  0  0  0
  161.6040  209.3830  150.1940 N   0  0  0  0  0  0  0  0  0  0  0  0
  160.2610  212.0160  152.2820 N   0  0  0  0  0  0  0  0  0  0  0  0
  161.2980  209.9770  152.5040 N   0  0  0  0  0  0  0  0  0  0  0  0
  162.4120  207.4370  149.1150 C   0  0  2  0  0  3  0  0  0  0  0  0
  160.2210  213.7680  150.9330 C   0  0  0  0  0  3  0  0  0  0  0  0
  160.0390  213.3410  152.2530 C   0  0  0  0  0  3  0  0  0  0  0  0
  161.2510  210.2940  151.2400 C   0  0  0  0  0  0  0  0  0  0  0  0
  161.9480  206.0100  149.2430 C   0  0  0  0  0  0  0  0  0  0  0  0
  161.0560  203.3540  149.5550 C   0  0  0  0  0  0  0  0  0  0  0  0
  161.1700  204.1960  150.6720 C   0  0  0  0  0  0  0  0  0  0  0  0
  161.6180  205.5140  150.5140 C   0  0  0  0  0  3  0  0  0  0  0  0
  161.8060  205.1750  148.1170 C   0  0  0  0  0  3  0  0  0  0  0  0
  161.3720  203.8550  148.2730 C   0  0  0  0  0  3  0  0  0  0  0  0
  160.8420  203.7290  151.9390 O   0  0  0  0  0  1  0  0  0  0  0  0
  160.6220  202.0340  149.7370 O   0  0  0  0  0  0  0  0  0  0  0  0
  160.9630  200.9810  148.8370 C   0  0  0  0  0  1  0  0  0  0  0  0
  161.2300  212.7050  148.8590 C   0  0  0  0  0  0  0  0  0  0  0  0
  161.0270  213.0590  146.4820 C   0  0  0  0  0  0  0  0  0  0  0  0
  163.1350  212.5970  147.4830 N   0  0  0  0  0  0  0  0  0  0  0  0
  160.4350  212.9920  147.7470 C   0  0  0  0  0  3  0  0  0  0  0  0
  162.3990  212.8500  146.3680 C   0  0  0  0  0  3  0  0  0  0  0  0
  162.5690  212.5300  148.6900 N   0  0  0  0  0  0  0  0  0  0  0  0
  160.2510  213.2990  145.3030 N   0  0  0  0  0  2  0  0  0  0  0  0
  159.9470  212.2470  144.3390 C   0  0  0  0  0  2  0  0  0  0  0  0
  162.3280  212.6770  140.8250 C   0  0  0  0  0  3  0  0  0  0  0  0
  161.5300  211.5890  141.0010 N   0  0  0  0  0  0  0  0  0  0  0  0
  162.3680  213.6840  141.7920 C   0  0  0  0  0  3  0  0  0  0  0  0
  160.7260  212.4540  143.0810 C   0  0  0  0  0  0  0  0  0  0  0  0
  161.5660  213.5640  142.9310 C   0  0  0  0  0  3  0  0  0  0  0  0
  160.7420  211.4540  142.1020 C   0  0  0  0  0  3  0  0  0  0  0  0
  159.6680  210.6030  154.2310 C   0  0  0  0  0  0  0  0  0  0  0  0
  158.4960  211.1850  154.2760 C   0  0  0  0  0  0  0  0  0  0  0  0
  157.3840  211.7310  154.3230 O   0  0  0  0  0  0  0  0  0  0  0  0
  160.0040  209.7980  156.9050 S   0  0  0  0  0  0  0  0  0  0  0  0
  160.2900  208.2790  154.9250 N   0  0  0  0  0  0  0  0  0  0  0  0
  160.4330  208.1990  157.2560 C   0  0  0  0  0  3  0  0  0  0  0  0
  159.9910  209.5680  155.2340 C   0  0  0  0  0  0  0  0  0  0  0  0
  160.5320  207.5210  156.0320 C   0  0  0  0  0  3  0  0  0  0  0  0
  1 11  1  0  0  0  0
  1  6  2  0  0  0  0
  3  5  2  0  0  0  0
  3 10  1  0  0  0  0
  4 37  1  1  0  0  0
  5  7  1  0  0  0  0
  6 13  1  0  0  0  0
  6  8  1  0  0  0  0
  7  2  1  0  0  0  0
  7 13  1  0  0  0  0
  8  4  1  0  0  0  0
  9  4  1  0  0  0  0
 10 14  1  1  0  0  0
 10  2  1  0  0  0  0
 11 12  2  0  0  0  0
 12  8  1  0  0  0  0
 13  9  2  0  0  0  0
 14 17  1  0  0  0  0
 15 21  1  0  0  0  0
 15 16  1  0  0  0  0
 16 20  1  0  0  0  0
 17 16  2  0  0  0  0
 18 19  1  0  0  0  0
 18 14  2  0  0  0  0
 19 15  2  0  0  0  0
 22 21  1  0  0  0  0
 23  1  1  0  0  0  0
 24 26  1  0  0  0  0
 25 28  2  0  0  0  0
 26 23  2  0  0  0  0
 27 24  2  0  0  0  0
 27 25  1  0  0  0  0
 28 23  1  0  0  0  0
 29 24  1  0  0  0  0
 30 29  1  0  0  0  0
 31 32  2  0  0  0  0
 31 33  1  0  0  0  0
 32 36  1  0  0  0  0
 33 35  2  0  0  0  0
 34 30  1  0  0  0  0
 35 34  1  0  0  0  0
 36 34  2  0  0  0  0
 37 38  2  0  0  0  0
 37 43  1  0  0  0  0
 38 39  2  0  0  0  0
 40 42  1  0  0  0  0
 41 43  2  0  0  0  0
 41 44  1  0  0  0  0
 43 40  1  0  0  0  0
 44 42  2  0  0  0  0
M  END
>  <MODEL>
5

>  <REMARK>
 VINA RESULT:      -6.1      3.555      8.900
  Name = 
  8 active torsions:
  status: ('A' for Active; 'I' for Inactive)
    1  A    between atoms: C_1  and  C_35
    2  A    between atoms: O_2  and  C_13
    3  A    between atoms: N_3  and  C_9
    4  A    between atoms: N_3  and  C_40
    5  A    between atoms: C_4  and  C_7
    6  A    between atoms: C_15  and  C_17
    7  A    between atoms: C_17  and  C_36
    8  A    between atoms: C_30  and  C_40
                            x       y       z     vdW  Elec       q    Type
                         _______ _______ _______ _____ _____    ______ ____

>  <TORSDO>
F 8

$$$$
=
 OpenBabel11052409333D

 44 50  0  0  1  0  0  0  0  0999 V2000
  160.4610  213.0320  150.2840 C   0  0  0  0  0  0  0  0  0  0  0  0
  162.2170  208.6140  151.0110 C   0  0  0  0  0  2  0  0  0  0  0  0
  161.5850  208.4900  148.6420 C   0  0  0  0  0  3  0  0  0  0  0  0
  160.4560  211.7550  153.5070 C   0  0  2  0  0  3  0  0  0  0  0  0
  161.0020  209.7510  149.2460 C   0  0  0  0  0  3  0  0  0  0  0  0
  160.4330  212.0650  151.2670 C   0  0  0  0  0  0  0  0  0  0  0  0
  161.4820  209.8000  150.6120 N   0  0  0  0  0  0  0  0  0  0  0  0
  160.0010  212.5790  152.3950 N   0  0  0  0  0  0  0  0  0  0  0  0
  161.0600  210.5890  152.8440 N   0  0  0  0  0  0  0  0  0  0  0  0
  162.3710  207.7820  149.7490 C   0  0  2  0  0  3  0  0  0  0  0  0
  159.9950  214.2030  150.8940 C   0  0  0  0  0  3  0  0  0  0  0  0
  159.7590  213.8920  152.2380 C   0  0  0  0  0  3  0  0  0  0  0  0
  161.0670  210.7920  151.5560 C   0  0  0  0  0  0  0  0  0  0  0  0
  161.9240  206.3630  149.9840 C   0  0  0  0  0  0  0  0  0  0  0  0
  161.0760  203.7240  150.4970 C   0  0  0  0  0  0  0  0  0  0  0  0
  161.3510  204.5960  151.5620 C   0  0  0  0  0  0  0  0  0  0  0  0
  161.7770  205.9050  151.3030 C   0  0  0  0  0  3  0  0  0  0  0  0
  161.6190  205.4980  148.9140 C   0  0  0  0  0  3  0  0  0  0  0  0
  161.2070  204.1850  149.1690 C   0  0  0  0  0  3  0  0  0  0  0  0
  161.2060  204.1670  152.8750 O   0  0  0  0  0  1  0  0  0  0  0  0
  160.6670  202.4130  150.7770 O   0  0  0  0  0  0  0  0  0  0  0  0
  160.4520  201.4400  149.7570 C   0  0  0  0  0  1  0  0  0  0  0  0
  161.1160  212.9820  148.9700 C   0  0  0  0  0  0  0  0  0  0  0  0
  161.0290  213.1780  146.5680 C   0  0  0  0  0  0  0  0  0  0  0  0
  163.0760  212.7300  147.6940 N   0  0  0  0  0  0  0  0  0  0  0  0
  160.3800  213.2130  147.8070 C   0  0  0  0  0  3  0  0  0  0  0  0
  162.3980  212.9250  146.5320 C   0  0  0  0  0  3  0  0  0  0  0  0
  162.4550  212.7600  148.8750 N   0  0  0  0  0  0  0  0  0  0  0  0
  160.3140  213.3580  145.3410 N   0  0  0  0  0  2  0  0  0  0  0  0
  159.9770  212.2430  144.4620 C   0  0  0  0  0  2  0  0  0  0  0  0
  162.1920  212.3900  140.8190 C   0  0  0  0  0  3  0  0  0  0  0  0
  161.1860  211.4900  140.9900 N   0  0  0  0  0  0  0  0  0  0  0  0
  162.5060  213.2960  141.8350 C   0  0  0  0  0  3  0  0  0  0  0  0
  160.7090  212.3630  143.1660 C   0  0  0  0  0  0  0  0  0  0  0  0
  161.7630  213.2730  143.0190 C   0  0  0  0  0  3  0  0  0  0  0  0
  160.4500  211.4540  142.1350 C   0  0  0  0  0  3  0  0  0  0  0  0
  159.3430  211.3330  154.4340 C   0  0  0  0  0  0  0  0  0  0  0  0
  159.3380  210.1510  154.9960 C   0  0  0  0  0  0  0  0  0  0  0  0
  159.3280  209.0330  155.5330 O   0  0  0  0  0  0  0  0  0  0  0  0
  158.0680  213.5940  155.5200 S   0  0  0  0  0  0  0  0  0  0  0  0
  156.9780  211.9830  153.9290 N   0  0  0  0  0  0  0  0  0  0  0  0
  156.4610  213.9310  155.1120 C   0  0  0  0  0  3  0  0  0  0  0  0
  158.1530  212.1970  154.5760 C   0  0  0  0  0  0  0  0  0  0  0  0
  156.0440  212.9340  154.2170 C   0  0  0  0  0  3  0  0  0  0  0  0
  1 11  1  0  0  0  0
  1  6  2  0  0  0  0
  3  5  2  0  0  0  0
  3 10  1  0  0  0  0
  4 37  1  1  0  0  0
  5  7  1  0  0  0  0
  6 13  1  0  0  0  0
  6  8  1  0  0  0  0
  7  2  1  0  0  0  0
  7 13  1  0  0  0  0
  8  4  1  0  0  0  0
  9  4  1  0  0  0  0
 10 14  1  1  0  0  0
 10  2  1  0  0  0  0
 11 12  2  0  0  0  0
 12  8  1  0  0  0  0
 13  9  2  0  0  0  0
 14 17  1  0  0  0  0
 15 21  1  0  0  0  0
 15 16  1  0  0  0  0
 16 20  1  0  0  0  0
 17 16  2  0  0  0  0
 18 19  1  0  0  0  0
 18 14  2  0  0  0  0
 19 15  2  0  0  0  0
 22 21  1  0  0  0  0
 23  1  1  0  0  0  0
 24 26  1  0  0  0  0
 25 28  2  0  0  0  0
 26 23  2  0  0  0  0
 27 24  2  0  0  0  0
 27 25  1  0  0  0  0
 28 23  1  0  0  0  0
 29 24  1  0  0  0  0
 30 29  1  0  0  0  0
 31 32  2  0  0  0  0
 31 33  1  0  0  0  0
 32 36  1  0  0  0  0
 33 35  2  0  0  0  0
 34 30  1  0  0  0  0
 35 34  1  0  0  0  0
 36 34  2  0  0  0  0
 37 43  1  0  0  0  0
 37 38  2  0  0  0  0
 38 39  2  0  0  0  0
 41 44  1  0  0  0  0
 41 43  2  0  0  0  0
 42 40  1  0  0  0  0
 43 40  1  0  0  0  0
 44 42  2  0  0  0  0
M  END
>  <MODEL>
6

>  <REMARK>
 VINA RESULT:      -6.0      3.712      9.334
  Name = 
  8 active torsions:
  status: ('A' for Active; 'I' for Inactive)
    1  A    between atoms: C_1  and  C_35
    2  A    between atoms: O_2  and  C_13
    3  A    between atoms: N_3  and  C_9
    4  A    between atoms: N_3  and  C_40
    5  A    between atoms: C_4  and  C_7
    6  A    between atoms: C_15  and  C_17
    7  A    between atoms: C_17  and  C_36
    8  A    between atoms: C_30  and  C_40
                            x       y       z     vdW  Elec       q    Type
                         _______ _______ _______ _____ _____    ______ ____

>  <TORSDO>
F 8

$$$$
=
 OpenBabel11052409333D

 44 50  0  0  1  0  0  0  0  0999 V2000
  160.9280  205.5420  151.0400 C   0  0  0  0  0  0  0  0  0  0  0  0
  162.8060  209.2620  148.6370 C   0  0  0  0  0  2  0  0  0  0  0  0
  161.4460  210.4210  150.3200 C   0  0  0  0  0  3  0  0  0  0  0  0
  161.9520  205.0540  147.7630 C   0  0  2  0  0  3  0  0  0  0  0  0
  161.0930  208.9480  150.3260 C   0  0  0  0  0  3  0  0  0  0  0  0
  161.2130  205.8830  149.7340 C   0  0  0  0  0  0  0  0  0  0  0  0
  161.9870  208.3190  149.3750 N   0  0  0  0  0  0  0  0  0  0  0  0
  161.1680  204.8170  148.9690 N   0  0  0  0  0  0  0  0  0  0  0  0
  162.3060  206.4780  147.8610 N   0  0  0  0  0  0  0  0  0  0  0  0
  162.5420  210.6180  149.2700 C   0  0  2  0  0  3  0  0  0  0  0  0
  160.6880  204.1630  151.0260 C   0  0  0  0  0  3  0  0  0  0  0  0
  160.8940  203.7310  149.7110 C   0  0  0  0  0  3  0  0  0  0  0  0
  161.9000  206.9370  149.0110 C   0  0  0  0  0  0  0  0  0  0  0  0
  162.1890  211.6400  148.2210 C   0  0  0  0  0  0  0  0  0  0  0  0
  161.4540  213.5310  146.2640 C   0  0  0  0  0  0  0  0  0  0  0  0
  160.5460  212.5370  146.6610 C   0  0  0  0  0  0  0  0  0  0  0  0
  160.9160  211.5960  147.6300 C   0  0  0  0  0  3  0  0  0  0  0  0
  163.0900  212.6560  147.8460 C   0  0  0  0  0  3  0  0  0  0  0  0
  162.7290  213.5880  146.8690 C   0  0  0  0  0  3  0  0  0  0  0  0
  159.2790  212.4780  146.0950 O   0  0  0  0  0  1  0  0  0  0  0  0
  161.0690  214.4530  145.2810 O   0  0  0  0  0  0  0  0  0  0  0  0
  161.1680  214.1760  143.8860 C   0  0  0  0  0  1  0  0  0  0  0  0
  161.1260  206.3410  152.2560 C   0  0  0  0  0  0  0  0  0  0  0  0
  160.7930  208.3690  153.5170 C   0  0  0  0  0  0  0  0  0  0  0  0
  161.9470  206.5110  154.4540 N   0  0  0  0  0  0  0  0  0  0  0  0
  160.6080  207.6350  152.3420 C   0  0  0  0  0  3  0  0  0  0  0  0
  161.4810  207.7820  154.5770 C   0  0  0  0  0  3  0  0  0  0  0  0
  161.7720  205.8120  153.3310 N   0  0  0  0  0  0  0  0  0  0  0  0
  160.3280  209.7170  153.6410 N   0  0  0  0  0  2  0  0  0  0  0  0
  159.9820  210.3110  154.9280 C   0  0  0  0  0  2  0  0  0  0  0  0
  156.8510  213.1420  154.3110 C   0  0  0  0  0  3  0  0  0  0  0  0
  156.7390  212.1710  155.2580 N   0  0  0  0  0  0  0  0  0  0  0  0
  158.0070  213.2360  153.5330 C   0  0  0  0  0  3  0  0  0  0  0  0
  158.9320  211.3580  154.7530 C   0  0  0  0  0  0  0  0  0  0  0  0
  159.0480  212.3310  153.7520 C   0  0  0  0  0  3  0  0  0  0  0  0
  157.7440  211.2810  155.4860 C   0  0  0  0  0  3  0  0  0  0  0  0
  161.1930  204.7710  146.4900 C   0  0  0  0  0  0  0  0  0  0  0  0
  160.6710  205.7400  145.7820 C   0  0  0  0  0  0  0  0  0  0  0  0
  160.1740  206.6530  145.1050 O   0  0  0  0  0  0  0  0  0  0  0  0
  161.2060  202.0210  147.0860 S   0  0  0  0  0  0  0  0  0  0  0  0
  160.2720  203.0060  144.9720 N   0  0  0  0  0  0  0  0  0  0  0  0
  160.5600  200.9170  145.9780 C   0  0  0  0  0  3  0  0  0  0  0  0
  160.8860  203.3720  146.1260 C   0  0  0  0  0  0  0  0  0  0  0  0
  160.0870  201.6580  144.8850 C   0  0  0  0  0  3  0  0  0  0  0  0
  1 23  1  0  0  0  0
  2 10  1  0  0  0  0
  2  7  1  0  0  0  0
  3  5  2  0  0  0  0
  4 37  1  6  0  0  0
  4  9  1  0  0  0  0
  4  8  1  0  0  0  0
  6  1  2  0  0  0  0
  7  5  1  0  0  0  0
  8 12  1  0  0  0  0
  8  6  1  0  0  0  0
  9 13  2  0  0  0  0
 10 14  1  6  0  0  0
 10  3  1  0  0  0  0
 11  1  1  0  0  0  0
 12 11  2  0  0  0  0
 13  7  1  0  0  0  0
 13  6  1  0  0  0  0
 15 16  2  0  0  0  0
 15 19  1  0  0  0  0
 16 17  1  0  0  0  0
 17 14  2  0  0  0  0
 18 14  1  0  0  0  0
 19 18  2  0  0  0  0
 20 16  1  0  0  0  0
 21 15  1  0  0  0  0
 22 21  1  0  0  0  0
 23 26  2  0  0  0  0
 23 28  1  0  0  0  0
 24 29  1  0  0  0  0
 24 27  2  0  0  0  0
 25 27  1  0  0  0  0
 26 24  1  0  0  0  0
 28 25  2  0  0  0  0
 29 30  1  0  0  0  0
 31 32  1  0  0  0  0
 32 36  2  0  0  0  0
 33 35  1  0  0  0  0
 33 31  2  0  0  0  0
 34 30  1  0  0  0  0
 34 36  1  0  0  0  0
 35 34  2  0  0  0  0
 38 37  2  0  0  0  0
 39 38  2  0  0  0  0
 41 43  2  0  0  0  0
 42 40  1  0  0  0  0
 43 37  1  0  0  0  0
 43 40  1  0  0  0  0
 44 41  1  0  0  0  0
 44 42  2  0  0  0  0
M  END
>  <MODEL>
7

>  <REMARK>
 VINA RESULT:      -5.4      2.305      3.501
  Name = 
  8 active torsions:
  status: ('A' for Active; 'I' for Inactive)
    1  A    between atoms: C_1  and  C_35
    2  A    between atoms: O_2  and  C_13
    3  A    between atoms: N_3  and  C_9
    4  A    between atoms: N_3  and  C_40
    5  A    between atoms: C_4  and  C_7
    6  A    between atoms: C_15  and  C_17
    7  A    between atoms: C_17  and  C_36
    8  A    between atoms: C_30  and  C_40
                            x       y       z     vdW  Elec       q    Type
                         _______ _______ _______ _____ _____    ______ ____

>  <TORSDO>
F 8

$$$$
