=
 OpenBabel11052411153D

 26 29  0  0  1  0  0  0  0  0999 V2000
  161.4500  210.5770  151.1660 C   0  0  1  0  0  0  0  0  0  0  0  0
  160.5710  212.7070  150.3880 C   0  0  0  0  0  0  0  0  0  0  0  0
  159.5800  213.7440  148.5140 O   0  0  0  0  0  1  0  0  0  0  0  0
  161.6240  209.2190  150.5820 C   0  0  1  0  0  3  0  0  0  0  0  0
  158.3050  212.2850  150.9440 O   0  0  0  0  0  1  0  0  0  0  0  0
  159.5290  212.6950  151.4760 C   0  0  1  0  0  3  0  0  0  0  0  0
  162.6860  209.9080  151.2180 O   0  0  0  0  0  0  0  0  0  0  0  0
  160.7280  213.7190  149.3070 C   0  0  2  0  0  3  0  0  0  0  0  0
  159.8990  211.8020  152.6560 C   0  0  0  0  0  0  0  0  0  0  0  0
  161.8630  213.1250  148.5240 C   0  0  0  0  0  3  0  0  0  0  0  0
  162.2630  211.9740  149.0590 C   0  0  0  0  0  3  0  0  0  0  0  0
  161.4330  211.7300  150.2240 C   0  0  0  0  0  0  0  0  0  0  0  0
  160.8450  210.8300  152.5290 C   0  0  0  0  0  0  0  0  0  0  0  0
  159.4240  213.0520  154.7460 O   0  0  0  0  0  1  0  0  0  0  0  0
  158.1390  211.2530  154.1730 O   0  0  0  0  0  0  0  0  0  0  0  0
  159.1190  211.9950  153.8980 C   0  0  0  0  0  0  0  0  0  0  0  0
  162.0580  210.6640  154.6720 C   0  0  0  0  0  1  0  0  0  0  0  0
  161.3060  210.0790  153.6180 O   0  0  0  0  0  0  0  0  0  0  0  0
  161.1210  208.0890  151.4750 C   0  0  2  0  0  3  0  0  0  0  0  0
  162.0540  207.9030  152.6590 C   0  0  0  0  0  1  0  0  0  0  0  0
  160.9750  206.8110  150.7060 C   0  0  0  0  0  0  0  0  0  0  0  0
  160.7310  204.4490  149.2190 C   0  0  0  0  0  3  0  0  0  0  0  0
  160.8720  204.3870  150.6080 C   0  0  0  0  0  3  0  0  0  0  0  0
  160.8330  206.8670  149.3150 C   0  0  0  0  0  3  0  0  0  0  0  0
  160.9930  205.5640  151.3510 C   0  0  0  0  0  3  0  0  0  0  0  0
  160.7110  205.6880  148.5720 C   0  0  0  0  0  3  0  0  0  0  0  0
  1 12  1  6  0  0  0
  1  7  1  0  0  0  0
  1 13  1  0  0  0  0
  2  6  1  0  0  0  0
  4  1  1  0  0  0  0
  4  7  1  0  0  0  0
  4 19  1  1  0  0  0
  6  5  1  6  0  0  0
  6  9  1  0  0  0  0
  8  3  1  6  0  0  0
  8  2  1  0  0  0  0
  9 16  1  0  0  0  0
 10 11  2  0  0  0  0
 10  8  1  0  0  0  0
 11 12  1  0  0  0  0
 12  2  2  0  0  0  0
 13  9  2  0  0  0  0
 13 18  1  0  0  0  0
 16 15  2  0  0  0  0
 16 14  1  0  0  0  0
 18 17  1  0  0  0  0
 19 20  1  1  0  0  0
 21 25  1  0  0  0  0
 21 19  1  0  0  0  0
 22 23  1  0  0  0  0
 23 25  2  0  0  0  0
 24 21  2  0  0  0  0
 26 22  2  0  0  0  0
 26 24  1  0  0  0  0
M  END
>  <MODEL>
1

>  <REMARK>
 VINA RESULT:      -5.8      0.000      0.000
  Name = 
  4 active torsions:
  status: ('A' for Active; 'I' for Inactive)
    1  A    between atoms: C_3  and  C_7
    2  A    between atoms: C_6  and  C_7
    3  A    between atoms: O_8  and  C_25
    4  A    between atoms: C_18  and  C_26
                            x       y       z     vdW  Elec       q    Type
                         _______ _______ _______ _____ _____    ______ ____

>  <TORSDO>
F 4

$$$$
=
 OpenBabel11052411153D

 26 29  0  0  1  0  0  0  0  0999 V2000
  161.2200  210.3740  151.8710 C   0  0  1  0  0  0  0  0  0  0  0  0
  160.1160  212.4380  151.2130 C   0  0  0  0  0  0  0  0  0  0  0  0
  158.8550  213.4060  149.4680 O   0  0  0  0  0  1  0  0  0  0  0  0
  161.4210  209.0320  151.2610 C   0  0  1  0  0  3  0  0  0  0  0  0
  157.9600  211.8610  152.0130 O   0  0  0  0  0  1  0  0  0  0  0  0
  159.2040  212.3550  152.4090 C   0  0  1  0  0  3  0  0  0  0  0  0
  162.4970  209.7920  151.7810 O   0  0  0  0  0  0  0  0  0  0  0  0
  160.0820  213.4590  150.1290 C   0  0  2  0  0  3  0  0  0  0  0  0
  159.7640  211.4880  153.5340 C   0  0  0  0  0  0  0  0  0  0  0  0
  161.1620  212.9450  149.2210 C   0  0  0  0  0  3  0  0  0  0  0  0
  161.6960  211.8250  149.6990 C   0  0  0  0  0  3  0  0  0  0  0  0
  161.0190  211.5230  150.9460 C   0  0  0  0  0  0  0  0  0  0  0  0
  160.7540  210.5840  153.2960 C   0  0  0  0  0  0  0  0  0  0  0  0
  158.1780  210.6880  155.2670 O   0  0  0  0  0  0  0  0  0  0  0  0
  159.4430  212.5510  155.6480 O   0  0  0  0  0  1  0  0  0  0  0  0
  159.1150  211.6270  154.8560 C   0  0  0  0  0  0  0  0  0  0  0  0
  162.2500  210.4920  155.2560 C   0  0  0  0  0  1  0  0  0  0  0  0
  161.3830  209.8660  154.3210 O   0  0  0  0  0  0  0  0  0  0  0  0
  161.0980  207.8690  152.1960 C   0  0  2  0  0  3  0  0  0  0  0  0
  162.1450  207.7720  153.2910 C   0  0  0  0  0  1  0  0  0  0  0  0
  160.9950  206.5780  151.4420 C   0  0  0  0  0  0  0  0  0  0  0  0
  160.8290  204.1910  149.9840 C   0  0  0  0  0  3  0  0  0  0  0  0
  160.9910  204.1500  151.3710 C   0  0  0  0  0  3  0  0  0  0  0  0
  160.8330  206.6120  150.0530 C   0  0  0  0  0  3  0  0  0  0  0  0
  161.0740  205.3400  152.1000 C   0  0  0  0  0  3  0  0  0  0  0  0
  160.7500  205.4210  149.3250 C   0  0  0  0  0  3  0  0  0  0  0  0
  1 12  1  6  0  0  0
  1 13  1  0  0  0  0
  2  6  1  0  0  0  0
  4  7  1  0  0  0  0
  4  1  1  0  0  0  0
  4 19  1  1  0  0  0
  6  5  1  6  0  0  0
  6  9  1  0  0  0  0
  7  1  1  0  0  0  0
  8  3  1  6  0  0  0
  8  2  1  0  0  0  0
  9 16  1  0  0  0  0
 10 11  2  0  0  0  0
 10  8  1  0  0  0  0
 11 12  1  0  0  0  0
 12  2  2  0  0  0  0
 13  9  2  0  0  0  0
 13 18  1  0  0  0  0
 16 14  2  0  0  0  0
 16 15  1  0  0  0  0
 18 17  1  0  0  0  0
 19 20  1  1  0  0  0
 21 25  1  0  0  0  0
 21 19  1  0  0  0  0
 22 23  1  0  0  0  0
 23 25  2  0  0  0  0
 24 21  2  0  0  0  0
 26 22  2  0  0  0  0
 26 24  1  0  0  0  0
M  END
>  <MODEL>
2

>  <REMARK>
 VINA RESULT:      -5.5      0.856      1.101
  Name = 
  4 active torsions:
  status: ('A' for Active; 'I' for Inactive)
    1  A    between atoms: C_3  and  C_7
    2  A    between atoms: C_6  and  C_7
    3  A    between atoms: O_8  and  C_25
    4  A    between atoms: C_18  and  C_26
                            x       y       z     vdW  Elec       q    Type
                         _______ _______ _______ _____ _____    ______ ____

>  <TORSDO>
F 4

$$$$
=
 OpenBabel11052411153D

 26 29  0  0  1  0  0  0  0  0999 V2000
  160.6350  210.3740  153.2920 C   0  0  1  0  0  0  0  0  0  0  0  0
  158.9910  210.6690  155.0600 C   0  0  0  0  0  0  0  0  0  0  0  0
  156.7510  210.1830  155.6270 O   0  0  0  0  0  1  0  0  0  0  0  0
  160.6460  209.7490  151.9420 C   0  0  1  0  0  3  0  0  0  0  0  0
  159.3720  208.5900  156.1350 O   0  0  0  0  0  1  0  0  0  0  0  0
  159.8560  209.8940  156.0200 C   0  0  1  0  0  3  0  0  0  0  0  0
  161.0970  211.0730  152.1630 O   0  0  0  0  0  0  0  0  0  0  0  0
  157.6330  211.2210  155.3230 C   0  0  2  0  0  3  0  0  0  0  0  0
  161.3260  209.8600  155.6120 C   0  0  0  0  0  0  0  0  0  0  0  0
  157.2920  211.7880  153.9750 C   0  0  0  0  0  3  0  0  0  0  0  0
  158.2740  211.5770  153.1040 C   0  0  0  0  0  3  0  0  0  0  0  0
  159.3270  210.8670  153.8060 C   0  0  0  0  0  0  0  0  0  0  0  0
  161.7060  210.1360  154.3340 C   0  0  0  0  0  0  0  0  0  0  0  0
  163.1120  210.3700  157.2580 O   0  0  0  0  0  1  0  0  0  0  0  0
  162.3310  208.2340  157.0440 O   0  0  0  0  0  0  0  0  0  0  0  0
  162.2880  209.4310  156.6520 C   0  0  0  0  0  0  0  0  0  0  0  0
  163.9660  211.0780  154.6470 C   0  0  0  0  0  1  0  0  0  0  0  0
  163.0490  210.2440  153.9520 O   0  0  0  0  0  0  0  0  0  0  0  0
  161.8340  208.8220  151.6960 C   0  0  2  0  0  3  0  0  0  0  0  0
  162.3390  208.9860  150.2740 C   0  0  0  0  0  1  0  0  0  0  0  0
  161.4760  207.3940  151.9730 C   0  0  0  0  0  0  0  0  0  0  0  0
  160.8300  204.7060  152.4340 C   0  0  0  0  0  3  0  0  0  0  0  0
  161.1510  205.5400  153.5080 C   0  0  0  0  0  3  0  0  0  0  0  0
  161.1540  206.5530  150.9010 C   0  0  0  0  0  3  0  0  0  0  0  0
  161.4730  206.8810  153.2800 C   0  0  0  0  0  3  0  0  0  0  0  0
  160.8310  205.2120  151.1300 C   0  0  0  0  0  3  0  0  0  0  0  0
  1  7  1  6  0  0  0
  1 12  1  0  0  0  0
  1 13  1  0  0  0  0
  2  8  1  0  0  0  0
  2  6  1  0  0  0  0
  4 19  1  1  0  0  0
  4  7  1  0  0  0  0
  4  1  1  0  0  0  0
  6  5  1  6  0  0  0
  8  3  1  6  0  0  0
  9  6  1  0  0  0  0
  9 16  1  0  0  0  0
 10  8  1  0  0  0  0
 11 12  1  0  0  0  0
 11 10  2  0  0  0  0
 12  2  2  0  0  0  0
 13  9  2  0  0  0  0
 16 15  2  0  0  0  0
 16 14  1  0  0  0  0
 18 13  1  0  0  0  0
 18 17  1  0  0  0  0
 19 20  1  6  0  0  0
 19 21  1  0  0  0  0
 21 25  1  0  0  0  0
 22 23  1  0  0  0  0
 24 26  1  0  0  0  0
 24 21  2  0  0  0  0
 25 23  2  0  0  0  0
 26 22  2  0  0  0  0
M  END
>  <MODEL>
3

>  <REMARK>
 VINA RESULT:      -5.5      2.496      4.368
  Name = 
  4 active torsions:
  status: ('A' for Active; 'I' for Inactive)
    1  A    between atoms: C_3  and  C_7
    2  A    between atoms: C_6  and  C_7
    3  A    between atoms: O_8  and  C_25
    4  A    between atoms: C_18  and  C_26
                            x       y       z     vdW  Elec       q    Type
                         _______ _______ _______ _____ _____    ______ ____

>  <TORSDO>
F 4

$$$$
=
 OpenBabel11052411153D

 26 29  0  0  1  0  0  0  0  0999 V2000
  160.5720  212.6650  138.8800 C   0  0  1  0  0  0  0  0  0  0  0  0
  162.9260  212.3450  138.3550 C   0  0  0  0  0  0  0  0  0  0  0  0
  165.0770  213.1840  138.8420 O   0  0  0  0  0  1  0  0  0  0  0  0
  159.7890  213.5960  139.7370 C   0  0  1  0  0  3  0  0  0  0  0  0
  163.4220  210.9220  140.1860 O   0  0  0  0  0  1  0  0  0  0  0  0
  162.8760  210.9420  138.9010 C   0  0  1  0  0  3  0  0  0  0  0  0
  159.4720  213.3790  138.3730 O   0  0  0  0  0  0  0  0  0  0  0  0
  164.1220  213.0620  137.8330 C   0  0  2  0  0  3  0  0  0  0  0  0
  161.4670  210.3580  138.9350 C   0  0  0  0  0  0  0  0  0  0  0  0
  163.5350  214.4120  137.5350 C   0  0  0  0  0  3  0  0  0  0  0  0
  162.2440  214.4530  137.8490 C   0  0  0  0  0  3  0  0  0  0  0  0
  161.8850  213.1470  138.3690 C   0  0  0  0  0  0  0  0  0  0  0  0
  160.3710  211.1650  138.8750 C   0  0  0  0  0  0  0  0  0  0  0  0
  161.0370  208.0820  138.0450 O   0  0  0  0  0  0  0  0  0  0  0  0
  161.6320  208.3600  140.2320 O   0  0  0  0  0  1  0  0  0  0  0  0
  161.3650  208.8940  139.1230 C   0  0  0  0  0  0  0  0  0  0  0  0
  158.4470  210.4330  137.5130 C   0  0  0  0  0  1  0  0  0  0  0  0
  159.0680  210.6630  138.7700 O   0  0  0  0  0  0  0  0  0  0  0  0
  158.7650  212.9050  140.6320 C   0  0  2  0  0  3  0  0  0  0  0  0
  157.3840  213.4890  140.3940 C   0  0  0  0  0  1  0  0  0  0  0  0
  159.1450  213.0120  142.0780 C   0  0  0  0  0  0  0  0  0  0  0  0
  159.8000  213.2340  144.7930 C   0  0  0  0  0  3  0  0  0  0  0  0
  160.4040  212.2490  144.0090 C   0  0  0  0  0  3  0  0  0  0  0  0
  158.5430  213.9980  142.8680 C   0  0  0  0  0  3  0  0  0  0  0  0
  160.0800  212.1370  142.6540 C   0  0  0  0  0  3  0  0  0  0  0  0
  158.8700  214.1090  144.2240 C   0  0  0  0  0  3  0  0  0  0  0  0
  1 12  1  6  0  0  0
  1  4  1  0  0  0  0
  2 12  2  0  0  0  0
  2  6  1  0  0  0  0
  4 19  1  1  0  0  0
  6  9  1  0  0  0  0
  6  5  1  1  0  0  0
  7  1  1  0  0  0  0
  7  4  1  0  0  0  0
  8  2  1  0  0  0  0
  8  3  1  1  0  0  0
  9 16  1  0  0  0  0
 10  8  1  0  0  0  0
 10 11  2  0  0  0  0
 11 12  1  0  0  0  0
 13  1  1  0  0  0  0
 13  9  2  0  0  0  0
 14 16  2  0  0  0  0
 16 15  1  0  0  0  0
 17 18  1  0  0  0  0
 18 13  1  0  0  0  0
 19 20  1  1  0  0  0
 19 21  1  0  0  0  0
 21 25  2  0  0  0  0
 21 24  1  0  0  0  0
 23 22  2  0  0  0  0
 24 26  2  0  0  0  0
 25 23  1  0  0  0  0
 26 22  1  0  0  0  0
M  END
>  <MODEL>
4

>  <REMARK>
 VINA RESULT:      -5.4      9.430     12.807
  Name = 
  4 active torsions:
  status: ('A' for Active; 'I' for Inactive)
    1  A    between atoms: C_3  and  C_7
    2  A    between atoms: C_6  and  C_7
    3  A    between atoms: O_8  and  C_25
    4  A    between atoms: C_18  and  C_26
                            x       y       z     vdW  Elec       q    Type
                         _______ _______ _______ _____ _____    ______ ____

>  <TORSDO>
F 4

$$$$
=
 OpenBabel11052411153D

 26 29  0  0  1  0  0  0  0  0999 V2000
  159.7430  211.8690  153.8280 C   0  0  1  0  0  0  0  0  0  0  0  0
  158.0330  213.3420  152.9200 C   0  0  0  0  0  0  0  0  0  0  0  0
  156.7380  213.7270  150.9850 O   0  0  0  0  0  1  0  0  0  0  0  0
  160.5150  210.6990  153.3290 C   0  0  1  0  0  3  0  0  0  0  0  0
  156.1740  211.9910  153.5010 O   0  0  0  0  0  1  0  0  0  0  0  0
  157.0750  212.9300  154.0060 C   0  0  1  0  0  3  0  0  0  0  0  0
  161.1450  211.8210  153.9210 O   0  0  0  0  0  0  0  0  0  0  0  0
  157.7560  214.2570  151.7790 C   0  0  2  0  0  3  0  0  0  0  0  0
  157.7700  212.3600  155.2390 C   0  0  0  0  0  0  0  0  0  0  0  0
  159.0580  214.1850  151.0340 C   0  0  0  0  0  3  0  0  0  0  0  0
  159.9110  213.3620  151.6380 C   0  0  0  0  0  3  0  0  0  0  0  0
  159.2430  212.8400  152.8160 C   0  0  0  0  0  0  0  0  0  0  0  0
  159.0510  211.9020  155.1730 C   0  0  0  0  0  0  0  0  0  0  0  0
  156.7530  213.3800  157.2610 O   0  0  0  0  0  1  0  0  0  0  0  0
  156.3770  211.1800  156.7780 O   0  0  0  0  0  0  0  0  0  0  0  0
  156.9510  212.2570  156.4680 C   0  0  0  0  0  0  0  0  0  0  0  0
  160.3920  212.4270  157.1770 C   0  0  0  0  0  1  0  0  0  0  0  0
  159.7670  211.4960  156.3060 O   0  0  0  0  0  0  0  0  0  0  0  0
  160.5390  209.5140  154.2910 C   0  0  2  0  0  3  0  0  0  0  0  0
  161.6050  209.7230  155.3520 C   0  0  0  0  0  1  0  0  0  0  0  0
  160.7620  208.2240  153.5600 C   0  0  0  0  0  0  0  0  0  0  0  0
  161.2120  205.8440  152.1510 C   0  0  0  0  0  3  0  0  0  0  0  0
  161.0520  205.8140  153.5390 C   0  0  0  0  0  3  0  0  0  0  0  0
  160.9220  208.2490  152.1700 C   0  0  0  0  0  3  0  0  0  0  0  0
  160.8270  207.0000  154.2440 C   0  0  0  0  0  3  0  0  0  0  0  0
  161.1470  207.0620  151.4670 C   0  0  0  0  0  3  0  0  0  0  0  0
  1 12  1  6  0  0  0
  1  7  1  0  0  0  0
  1 13  1  0  0  0  0
  2  6  1  0  0  0  0
  4  1  1  0  0  0  0
  4  7  1  0  0  0  0
  4 19  1  1  0  0  0
  6  5  1  6  0  0  0
  6  9  1  0  0  0  0
  8  3  1  6  0  0  0
  8  2  1  0  0  0  0
  9 16  1  0  0  0  0
 10 11  2  0  0  0  0
 10  8  1  0  0  0  0
 11 12  1  0  0  0  0
 12  2  2  0  0  0  0
 13  9  2  0  0  0  0
 13 18  1  0  0  0  0
 16 15  2  0  0  0  0
 16 14  1  0  0  0  0
 18 17  1  0  0  0  0
 19 20  1  1  0  0  0
 21 25  1  0  0  0  0
 21 19  1  0  0  0  0
 22 23  1  0  0  0  0
 23 25  2  0  0  0  0
 24 21  2  0  0  0  0
 26 22  2  0  0  0  0
 26 24  1  0  0  0  0
M  END
>  <MODEL>
5

>  <REMARK>
 VINA RESULT:      -5.4      2.293      3.451
  Name = 
  4 active torsions:
  status: ('A' for Active; 'I' for Inactive)
    1  A    between atoms: C_3  and  C_7
    2  A    between atoms: C_6  and  C_7
    3  A    between atoms: O_8  and  C_25
    4  A    between atoms: C_18  and  C_26
                            x       y       z     vdW  Elec       q    Type
                         _______ _______ _______ _____ _____    ______ ____

>  <TORSDO>
F 4

$$$$
=
 OpenBabel11052411153D

 26 29  0  0  1  0  0  0  0  0999 V2000
  161.2740  212.9320  140.4020 C   0  0  1  0  0  0  0  0  0  0  0  0
  163.1550  212.2160  139.0340 C   0  0  0  0  0  0  0  0  0  0  0  0
  165.5140  212.1750  138.9800 O   0  0  0  0  0  1  0  0  0  0  0  0
  161.1100  213.6260  141.7070 C   0  0  1  0  0  3  0  0  0  0  0  0
  163.4660  210.1120  140.0810 O   0  0  0  0  0  1  0  0  0  0  0  0
  162.7000  210.7830  139.1260 C   0  0  1  0  0  3  0  0  0  0  0  0
  160.4430  214.0570  140.5350 O   0  0  0  0  0  0  0  0  0  0  0  0
  164.3860  212.7260  138.3700 C   0  0  2  0  0  3  0  0  0  0  0  0
  161.2200  210.6410  139.4670 C   0  0  0  0  0  0  0  0  0  0  0  0
  164.3030  214.1880  138.7010 C   0  0  0  0  0  3  0  0  0  0  0  0
  163.2260  214.4520  139.4360 C   0  0  0  0  0  3  0  0  0  0  0  0
  162.5240  213.1980  139.6380 C   0  0  0  0  0  0  0  0  0  0  0  0
  160.5260  211.6720  140.0240 C   0  0  0  0  0  0  0  0  0  0  0  0
  161.1480  208.1940  139.8740 O   0  0  0  0  0  1  0  0  0  0  0  0
  159.5880  209.1740  138.5240 O   0  0  0  0  0  0  0  0  0  0  0  0
  160.6170  209.3090  139.2380 C   0  0  0  0  0  0  0  0  0  0  0  0
  158.2220  212.1550  139.2830 C   0  0  0  0  0  1  0  0  0  0  0  0
  159.1410  211.6270  140.2290 O   0  0  0  0  0  0  0  0  0  0  0  0
  160.1250  212.9460  142.6540 C   0  0  2  0  0  3  0  0  0  0  0  0
  158.7910  213.6710  142.6290 C   0  0  0  0  0  1  0  0  0  0  0  0
  160.6680  212.8780  144.0480 C   0  0  0  0  0  0  0  0  0  0  0  0
  161.7230  212.7990  146.6440 C   0  0  0  0  0  3  0  0  0  0  0  0
  160.4010  212.4080  146.4160 C   0  0  0  0  0  3  0  0  0  0  0  0
  161.9920  213.2680  144.2820 C   0  0  0  0  0  3  0  0  0  0  0  0
  159.8730  212.4460  145.1220 C   0  0  0  0  0  3  0  0  0  0  0  0
  162.5180  213.2290  145.5780 C   0  0  0  0  0  3  0  0  0  0  0  0
  1 12  1  6  0  0  0
  1  7  1  0  0  0  0
  1  4  1  0  0  0  0
  2  6  1  0  0  0  0
  2 12  2  0  0  0  0
  4 19  1  1  0  0  0
  6  9  1  0  0  0  0
  6  5  1  1  0  0  0
  7  4  1  0  0  0  0
  8 10  1  0  0  0  0
  8  3  1  1  0  0  0
  8  2  1  0  0  0  0
  9 13  2  0  0  0  0
 10 11  2  0  0  0  0
 11 12  1  0  0  0  0
 13 18  1  0  0  0  0
 13  1  1  0  0  0  0
 15 16  2  0  0  0  0
 16  9  1  0  0  0  0
 16 14  1  0  0  0  0
 17 18  1  0  0  0  0
 19 20  1  1  0  0  0
 19 21  1  0  0  0  0
 21 24  2  0  0  0  0
 21 25  1  0  0  0  0
 23 22  1  0  0  0  0
 24 26  1  0  0  0  0
 25 23  2  0  0  0  0
 26 22  2  0  0  0  0
M  END
>  <MODEL>
6

>  <REMARK>
 VINA RESULT:      -5.2      8.311     11.764
  Name = 
  4 active torsions:
  status: ('A' for Active; 'I' for Inactive)
    1  A    between atoms: C_3  and  C_7
    2  A    between atoms: C_6  and  C_7
    3  A    between atoms: O_8  and  C_25
    4  A    between atoms: C_18  and  C_26
                            x       y       z     vdW  Elec       q    Type
                         _______ _______ _______ _____ _____    ______ ____

>  <TORSDO>
F 4

$$$$
=
 OpenBabel11052411153D

 26 29  0  0  1  0  0  0  0  0999 V2000
  158.7610  213.3100  140.1570 C   0  0  1  0  0  0  0  0  0  0  0  0
  160.3550  212.9820  141.9650 C   0  0  0  0  0  0  0  0  0  0  0  0
  160.5180  212.2310  144.1960 O   0  0  0  0  0  1  0  0  0  0  0  0
  157.2980  213.1110  139.9790 C   0  0  1  0  0  3  0  0  0  0  0  0
  160.8200  210.7030  141.5070 O   0  0  0  0  0  1  0  0  0  0  0  0
  161.1370  212.0070  141.1230 C   0  0  1  0  0  3  0  0  0  0  0  0
  157.9370  214.3340  139.6590 O   0  0  0  0  0  0  0  0  0  0  0  0
  160.6210  213.3590  143.3800 C   0  0  2  0  0  3  0  0  0  0  0  0
  160.8950  212.1740  139.6260 C   0  0  0  0  0  0  0  0  0  0  0  0
  159.4650  214.2780  143.6510 C   0  0  0  0  0  3  0  0  0  0  0  0
  158.6790  214.3860  142.5840 C   0  0  0  0  0  3  0  0  0  0  0  0
  159.2540  213.5590  141.5400 C   0  0  0  0  0  0  0  0  0  0  0  0
  159.7970  212.8340  139.1620 C   0  0  0  0  0  0  0  0  0  0  0  0
  161.5890  210.2390  138.2350 O   0  0  0  0  0  0  0  0  0  0  0  0
  162.9060  212.1020  138.3410 O   0  0  0  0  0  1  0  0  0  0  0  0
  161.8620  211.5100  138.7250 C   0  0  0  0  0  0  0  0  0  0  0  0
  160.1570  214.2810  137.1960 C   0  0  0  0  0  1  0  0  0  0  0  0
  159.6070  213.1220  137.8050 O   0  0  0  0  0  0  0  0  0  0  0  0
  156.9220  212.3640  138.7020 C   0  0  2  0  0  3  0  0  0  0  0  0
  156.2830  213.3160  137.7070 C   0  0  0  0  0  1  0  0  0  0  0  0
  156.0120  211.2100  138.9950 C   0  0  0  0  0  0  0  0  0  0  0  0
  154.2600  209.0880  139.5230 C   0  0  0  0  0  3  0  0  0  0  0  0
  155.5780  208.8250  139.1420 C   0  0  0  0  0  3  0  0  0  0  0  0
  154.6900  211.4670  139.3780 C   0  0  0  0  0  3  0  0  0  0  0  0
  156.4540  209.8830  138.8790 C   0  0  0  0  0  3  0  0  0  0  0  0
  153.8150  210.4080  139.6410 C   0  0  0  0  0  3  0  0  0  0  0  0
  1 13  1  6  0  0  0
  1 12  1  0  0  0  0
  2  8  1  0  0  0  0
  4 19  1  6  0  0  0
  4  1  1  0  0  0  0
  6  5  1  1  0  0  0
  6  2  1  0  0  0  0
  7  4  1  0  0  0  0
  7  1  1  0  0  0  0
  8 10  1  0  0  0  0
  8  3  1  1  0  0  0
  9  6  1  0  0  0  0
 11 10  2  0  0  0  0
 12  2  2  0  0  0  0
 12 11  1  0  0  0  0
 13  9  2  0  0  0  0
 14 16  2  0  0  0  0
 15 16  1  0  0  0  0
 16  9  1  0  0  0  0
 17 18  1  0  0  0  0
 18 13  1  0  0  0  0
 19 20  1  6  0  0  0
 19 21  1  0  0  0  0
 21 24  1  0  0  0  0
 22 26  1  0  0  0  0
 23 22  2  0  0  0  0
 24 26  2  0  0  0  0
 25 21  2  0  0  0  0
 25 23  1  0  0  0  0
M  END
>  <MODEL>
7

>  <REMARK>
 VINA RESULT:      -5.1      9.676     12.726
  Name = 
  4 active torsions:
  status: ('A' for Active; 'I' for Inactive)
    1  A    between atoms: C_3  and  C_7
    2  A    between atoms: C_6  and  C_7
    3  A    between atoms: O_8  and  C_25
    4  A    between atoms: C_18  and  C_26
                            x       y       z     vdW  Elec       q    Type
                         _______ _______ _______ _____ _____    ______ ____

>  <TORSDO>
F 4

$$$$
=
 OpenBabel11052411153D

 26 29  0  0  1  0  0  0  0  0999 V2000
  161.8210  211.7540  140.5170 C   0  0  1  0  0  0  0  0  0  0  0  0
  160.7680  210.2630  138.9100 C   0  0  0  0  0  0  0  0  0  0  0  0
  159.4840  208.2880  138.7610 O   0  0  0  0  0  1  0  0  0  0  0  0
  161.9550  211.8020  141.9980 C   0  0  1  0  0  3  0  0  0  0  0  0
  158.6210  211.2670  138.9740 O   0  0  0  0  0  1  0  0  0  0  0  0
  159.8940  211.3840  138.4130 C   0  0  1  0  0  3  0  0  0  0  0  0
  163.0730  211.9140  141.1360 O   0  0  0  0  0  0  0  0  0  0  0  0
  160.7330  208.8390  138.4760 C   0  0  2  0  0  3  0  0  0  0  0  0
  160.4600  212.7690  138.7160 C   0  0  0  0  0  0  0  0  0  0  0  0
  161.7640  208.2380  139.3880 C   0  0  0  0  0  3  0  0  0  0  0  0
  162.2750  209.1560  140.2030 C   0  0  0  0  0  3  0  0  0  0  0  0
  161.6300  210.4180  139.8900 C   0  0  0  0  0  0  0  0  0  0  0  0
  161.4100  212.9430  139.6760 C   0  0  0  0  0  0  0  0  0  0  0  0
  158.6330  214.4130  138.3730 O   0  0  0  0  0  1  0  0  0  0  0  0
  160.4750  214.4530  137.0230 O   0  0  0  0  0  0  0  0  0  0  0  0
  159.8620  213.9010  137.9750 C   0  0  0  0  0  0  0  0  0  0  0  0
  163.3380  214.4530  139.3670 C   0  0  0  0  0  1  0  0  0  0  0  0
  162.0480  214.1710  139.8920 O   0  0  0  0  0  0  0  0  0  0  0  0
  161.6230  213.1600  142.6100 C   0  0  2  0  0  3  0  0  0  0  0  0
  162.9010  213.9280  142.9000 C   0  0  0  0  0  1  0  0  0  0  0  0
  160.7980  213.0110  143.8520 C   0  0  0  0  0  0  0  0  0  0  0  0
  159.2140  212.6980  146.1420 C   0  0  0  0  0  3  0  0  0  0  0  0
  160.5990  212.8420  146.2660 C   0  0  0  0  0  3  0  0  0  0  0  0
  159.4110  212.8670  143.7340 C   0  0  0  0  0  3  0  0  0  0  0  0
  161.3900  212.9980  145.1240 C   0  0  0  0  0  3  0  0  0  0  0  0
  158.6200  212.7110  144.8760 C   0  0  0  0  0  3  0  0  0  0  0  0
  1 13  1  6  0  0  0
  1  7  1  0  0  0  0
  1  4  1  0  0  0  0
  2 12  2  0  0  0  0
  4 19  1  6  0  0  0
  6  9  1  0  0  0  0
  6  2  1  0  0  0  0
  6  5  1  1  0  0  0
  7  4  1  0  0  0  0
  8  3  1  1  0  0  0
  8  2  1  0  0  0  0
  8 10  1  0  0  0  0
  9 13  2  0  0  0  0
 10 11  2  0  0  0  0
 12 11  1  0  0  0  0
 12  1  1  0  0  0  0
 13 18  1  0  0  0  0
 15 16  2  0  0  0  0
 16 14  1  0  0  0  0
 16  9  1  0  0  0  0
 17 18  1  0  0  0  0
 19 20  1  1  0  0  0
 19 21  1  0  0  0  0
 21 25  1  0  0  0  0
 22 23  1  0  0  0  0
 24 21  2  0  0  0  0
 24 26  1  0  0  0  0
 25 23  2  0  0  0  0
 26 22  2  0  0  0  0
M  END
>  <MODEL>
8

>  <REMARK>
 VINA RESULT:      -4.6      8.456     11.941
  Name = 
  4 active torsions:
  status: ('A' for Active; 'I' for Inactive)
    1  A    between atoms: C_3  and  C_7
    2  A    between atoms: C_6  and  C_7
    3  A    between atoms: O_8  and  C_25
    4  A    between atoms: C_18  and  C_26
                            x       y       z     vdW  Elec       q    Type
                         _______ _______ _______ _____ _____    ______ ____

>  <TORSDO>
F 4

$$$$
=
 OpenBabel11052411153D

 26 29  0  0  1  0  0  0  0  0999 V2000
  161.4900  207.7140  152.3610 C   0  0  1  0  0  0  0  0  0  0  0  0
  161.1890  205.6510  151.1090 C   0  0  0  0  0  0  0  0  0  0  0  0
  159.7060  203.8350  150.8320 O   0  0  0  0  0  1  0  0  0  0  0  0
  160.7310  208.4410  153.4140 C   0  0  1  0  0  3  0  0  0  0  0  0
  159.8630  206.5770  149.3750 O   0  0  0  0  0  1  0  0  0  0  0  0
  161.1790  206.4180  149.8120 C   0  0  1  0  0  3  0  0  0  0  0  0
  162.1080  208.1380  153.5510 O   0  0  0  0  0  0  0  0  0  0  0  0
  160.9770  204.1880  151.2870 C   0  0  2  0  0  3  0  0  0  0  0  0
  161.8530  207.7830  149.9140 C   0  0  0  0  0  0  0  0  0  0  0  0
  161.0210  204.0750  152.7840 C   0  0  0  0  0  3  0  0  0  0  0  0
  161.2060  205.2650  153.3490 C   0  0  0  0  0  3  0  0  0  0  0  0
  161.3020  206.2390  152.2780 C   0  0  0  0  0  0  0  0  0  0  0  0
  162.0490  208.3800  151.1220 C   0  0  0  0  0  0  0  0  0  0  0  0
  161.5810  209.6430  148.2940 O   0  0  0  0  0  1  0  0  0  0  0  0
  163.0820  207.9730  147.8750 O   0  0  0  0  0  0  0  0  0  0  0  0
  162.1950  208.4450  148.6360 C   0  0  0  0  0  0  0  0  0  0  0  0
  162.3930  210.7720  150.6250 C   0  0  0  0  0  1  0  0  0  0  0  0
  162.7780  209.5660  151.2690 O   0  0  0  0  0  0  0  0  0  0  0  0
  160.5450  209.9300  153.1310 C   0  0  2  0  0  3  0  0  0  0  0  0
  161.7740  210.7030  153.5750 C   0  0  0  0  0  1  0  0  0  0  0  0
  159.3130  210.4610  153.7980 C   0  0  0  0  0  0  0  0  0  0  0  0
  157.0380  211.4520  155.1000 C   0  0  0  0  0  3  0  0  0  0  0  0
  157.2950  211.8120  153.7740 C   0  0  0  0  0  3  0  0  0  0  0  0
  159.0490  210.1030  155.1250 C   0  0  0  0  0  3  0  0  0  0  0  0
  158.4290  211.3180  153.1230 C   0  0  0  0  0  3  0  0  0  0  0  0
  157.9140  210.5970  155.7750 C   0  0  0  0  0  3  0  0  0  0  0  0
  1 13  1  6  0  0  0
  1  4  1  0  0  0  0
  1  7  1  0  0  0  0
  2  8  1  0  0  0  0
  2 12  2  0  0  0  0
  4 19  1  6  0  0  0
  4  7  1  0  0  0  0
  6  5  1  1  0  0  0
  6  9  1  0  0  0  0
  6  2  1  0  0  0  0
  8  3  1  1  0  0  0
  8 10  1  0  0  0  0
  9 13  2  0  0  0  0
 10 11  2  0  0  0  0
 12  1  1  0  0  0  0
 12 11  1  0  0  0  0
 13 18  1  0  0  0  0
 14 16  1  0  0  0  0
 15 16  2  0  0  0  0
 16  9  1  0  0  0  0
 17 18  1  0  0  0  0
 19 20  1  1  0  0  0
 19 21  1  0  0  0  0
 21 24  1  0  0  0  0
 22 26  1  0  0  0  0
 23 22  2  0  0  0  0
 24 26  2  0  0  0  0
 25 23  1  0  0  0  0
 25 21  2  0  0  0  0
M  END
>  <MODEL>
9

>  <REMARK>
 VINA RESULT:      -4.2      2.561      6.774
  Name = 
  4 active torsions:
  status: ('A' for Active; 'I' for Inactive)
    1  A    between atoms: C_3  and  C_7
    2  A    between atoms: C_6  and  C_7
    3  A    between atoms: O_8  and  C_25
    4  A    between atoms: C_18  and  C_26
                            x       y       z     vdW  Elec       q    Type
                         _______ _______ _______ _____ _____    ______ ____

>  <TORSDO>
F 4

$$$$
