=
 OpenBabel11042422043D

 59 63  0  0  1  0  0  0  0  0999 V2000
  161.3960  211.2650  147.0490 C   0  0  0  0  0  3  0  0  0  0  0  0
  161.5410  211.1990  148.3530 C   0  0  0  0  0  0  0  0  0  0  0  0
  161.3700  212.5680  148.9450 C   0  0  1  0  0  3  0  0  0  0  0  0
  161.1220  212.6110  146.6980 N   0  0  0  0  0  0  0  0  0  0  0  0
  161.0990  213.4640  147.8130 N   0  0  0  0  0  2  0  0  0  0  0  0
  159.8810  213.9450  145.1150 C   0  0  0  0  0  3  0  0  0  0  0  0
  160.8750  213.0810  145.3660 C   0  0  0  0  0  0  0  0  0  0  0  0
  161.7510  212.6120  144.2320 C   0  0  0  0  0  2  0  0  0  0  0  0
  159.8610  213.3510  142.7260 C   0  0  0  0  0  0  0  0  0  0  0  0
  160.9260  212.3030  142.9740 C   0  0  1  0  0  3  0  0  0  0  0  0
  159.1800  213.3050  141.7140 O   0  0  0  0  0  0  0  0  0  0  0  0
  159.6330  214.4530  143.7240 C   0  0  0  0  0  2  0  0  0  0  0  0
  161.8200  212.2070  141.8310 N   0  0  0  0  0  2  0  0  0  0  0  0
  160.9850  212.1730  140.6420 C   0  0  0  0  0  2  0  0  0  0  0  0
  161.9930  209.8350  140.3500 C   0  0  0  0  0  3  0  0  0  0  0  0
  160.8850  209.1390  138.6160 N   0  0  0  0  0  0  0  0  0  0  0  0
  160.4200  208.2600  137.5540 C   0  0  0  0  0  1  0  0  0  0  0  0
  161.8060  208.7960  139.5050 N   0  0  0  0  0  0  0  0  0  0  0  0
  161.1530  210.8610  139.9530 C   0  0  0  0  0  0  0  0  0  0  0  0
  160.4600  210.3870  138.8610 C   0  0  0  0  0  0  0  0  0  0  0  0
  159.4120  211.1130  138.0790 C   0  0  0  0  0  1  0  0  0  0  0  0
  161.8830  207.5320  149.3600 C   0  0  0  0  0  3  0  0  0  0  0  0
  162.5100  210.1350  150.2230 O   0  0  0  0  0  0  0  0  0  0  0  0
  160.9260  208.3070  147.5540 C   0  0  0  0  0  3  0  0  0  0  0  0
  161.4280  206.4500  148.6300 C   0  0  0  0  0  0  0  0  0  0  0  0
  161.8960  209.9860  149.1290 C   0  0  0  0  0  0  0  0  0  0  0  0
  160.8090  206.9300  147.4850 C   0  0  0  0  0  3  0  0  0  0  0  0
  161.5760  208.6550  148.6840 N   0  0  0  0  0  0  0  0  0  0  0  0
  161.5090  205.0600  149.0230 N   0  0  0  0  0  0  0  0  0  0  0  0
  160.9590  203.5440  150.7360 O   0  0  0  0  0  0  0  0  0  0  0  0
  161.8320  204.0680  148.0230 C   0  0  0  0  0  0  0  0  0  0  0  0
  161.7720  205.5690  151.4170 O   0  0  0  0  0  1  0  0  0  0  0  0
  162.7990  204.2710  147.2420 O   0  0  0  0  0  0  0  0  0  0  0  0
  161.3880  204.6850  150.4120 C   0  0  0  0  0  0  0  0  0  0  0  0
  161.0270  202.8070  147.8520 C   0  0  1  0  0  3  0  0  0  0  0  0
  160.6670  202.5850  146.3900 C   0  0  0  0  0  1  0  0  0  0  0  0
  161.7090  201.6960  148.3640 O   0  0  0  0  0  0  0  0  0  0  0  0
  160.9450  201.2700  149.4570 C   0  0  0  0  0  2  0  0  0  0  0  0
  159.4850  201.1570  149.0450 C   0  0  0  0  0  1  0  0  0  0  0  0
  159.2870  213.5920  149.6000 O   0  0  0  0  0  1  0  0  0  0  0  0
  160.2160  212.6020  149.9480 C   0  0  2  0  0  3  0  0  0  0  0  0
  160.7590  212.8440  151.3490 C   0  0  0  0  0  2  0  0  0  0  0  0
  159.6360  212.8040  152.3730 C   0  0  0  0  0  2  0  0  0  0  0  0
  159.3830  211.3700  152.8160 C   0  0  0  0  0  2  0  0  0  0  0  0
  159.1930  211.2530  154.3290 C   0  0  1  0  0  3  0  0  0  0  0  0
  161.4810  211.6750  155.6940 O   0  0  0  0  0  0  0  0  0  0  0  0
  161.5160  209.9420  153.9470 O   0  0  0  0  0  0  0  0  0  0  0  0
  160.6900  210.5780  155.0360 S   0  0  0  0  0  0  0  0  0  0  0  0
  160.2610  209.3910  156.2180 N   0  0  0  0  0  2  0  0  0  0  0  0
  161.2890  208.3570  156.1960 C   0  0  0  0  0  2  0  0  0  0  0  0
  159.4010  206.8840  156.3290 O   0  0  0  0  0  1  0  0  0  0  0  0
  160.6780  206.8240  154.3180 C   0  0  0  0  0  1  0  0  0  0  0  0
  160.6980  207.0100  155.8210 C   0  0  1  0  0  3  0  0  0  0  0  0
  158.9470  212.5140  154.8790 O   0  0  0  0  0  0  0  0  0  0  0  0
  155.4390  212.0290  155.1920 C   0  0  0  0  0  2  0  0  0  0  0  0
  157.7740  212.3770  155.6270 C   0  0  0  0  0  3  0  0  0  0  0  0
  155.6480  213.5260  155.2800 C   0  0  0  0  0  2  0  0  0  0  0  0
  156.8050  211.4540  154.9170 C   0  0  0  0  0  2  0  0  0  0  0  0
  157.0800  213.7200  155.7460 C   0  0  0  0  0  2  0  0  0  0  0  0
  1  2  2  0  0  0  0
  2  3  1  0  0  0  0
  2 26  1  0  0  0  0
  3 41  1  1  0  0  0
  4  1  1  0  0  0  0
  4  5  1  0  0  0  0
  5  3  1  0  0  0  0
  6  7  2  0  0  0  0
  7  4  1  0  0  0  0
  8  7  1  0  0  0  0
  9 10  1  0  0  0  0
  9 12  1  0  0  0  0
 10 13  1  6  0  0  0
 10  8  1  0  0  0  0
 11  9  2  0  0  0  0
 12  6  1  0  0  0  0
 14 13  1  0  0  0  0
 16 20  1  0  0  0  0
 16 18  1  0  0  0  0
 17 16  1  0  0  0  0
 18 15  2  0  0  0  0
 19 15  1  0  0  0  0
 19 14  1  0  0  0  0
 20 19  2  0  0  0  0
 21 20  1  0  0  0  0
 24 28  1  0  0  0  0
 25 29  1  0  0  0  0
 25 22  2  0  0  0  0
 26 23  2  0  0  0  0
 27 24  2  0  0  0  0
 27 25  1  0  0  0  0
 28 26  1  0  0  0  0
 28 22  1  0  0  0  0
 29 34  1  0  0  0  0
 31 29  1  0  0  0  0
 33 31  2  0  0  0  0
 34 30  2  0  0  0  0
 34 32  1  0  0  0  0
 35 36  1  6  0  0  0
 35 31  1  0  0  0  0
 35 37  1  0  0  0  0
 37 38  1  0  0  0  0
 39 38  1  0  0  0  0
 41 40  1  6  0  0  0
 41 42  1  0  0  0  0
 42 43  1  0  0  0  0
 43 44  1  0  0  0  0
 45 44  1  6  0  0  0
 45 54  1  0  0  0  0
 45 48  1  0  0  0  0
 47 48  2  0  0  0  0
 48 46  2  0  0  0  0
 48 49  1  0  0  0  0
 50 49  1  0  0  0  0
 53 52  1  6  0  0  0
 53 50  1  0  0  0  0
 53 51  1  0  0  0  0
 54 56  1  0  0  0  0
 55 57  1  0  0  0  0
 56 59  1  0  0  0  0
 57 59  1  0  0  0  0
 58 55  1  0  0  0  0
 58 56  1  0  0  0  0
M  END
>  <MODEL>
1

>  <REMARK>
 VINA RESULT:      -4.9      0.000      0.000
  Name = 
  20 active torsions:
  status: ('A' for Active; 'I' for Inactive)
    1  A    between atoms: O_1  and  C_7
    2  A    between atoms: O_1  and  C_29
    3  A    between atoms: N_4  and  C_5
    4  A    between atoms: N_4  and  C_38
    5  A    between atoms: C_5  and  C_46
    6  A    between atoms: C_6  and  N_48
    7  A    between atoms: C_6  and  C_52
    8  A    between atoms: C_7  and  C_39
    9  A    between atoms: C_10  and  C_15
   10  A    between atoms: C_10  and  O_17
   11  A    between atoms: C_10  and  S_51
   12  A    between atoms: N_11  and  C_22
   13  A    between atoms: C_14  and  O_17
   14  A    between atoms: C_15  and  C_24
   15  A    between atoms: C_18  and  N_42
   16  A    between atoms: C_24  and  C_31
   17  A    between atoms: C_31  and  C_54
   18  A    between atoms: C_33  and  C_34
   19  A    between atoms: C_36  and  C_54
   20  A    between atoms: N_48  and  S_51
                            x       y       z     vdW  Elec       q    Type
                         _______ _______ _______ _____ _____    ______ ____

>  <TORSDO>
F 20

$$$$
=
 OpenBabel11042422043D

 59 63  0  0  1  0  0  0  0  0999 V2000
  160.9620  210.4300  152.5070 C   0  0  0  0  0  3  0  0  0  0  0  0
  161.6050  209.5790  151.7390 C   0  0  0  0  0  0  0  0  0  0  0  0
  162.0270  208.3910  152.5550 C   0  0  1  0  0  3  0  0  0  0  0  0
  160.9050  209.8930  153.8180 N   0  0  0  0  0  0  0  0  0  0  0  0
  161.5450  208.6480  153.9180 N   0  0  0  0  0  2  0  0  0  0  0  0
  159.7750  209.7840  155.9470 C   0  0  0  0  0  3  0  0  0  0  0  0
  160.2590  210.5180  154.9360 C   0  0  0  0  0  0  0  0  0  0  0  0
  160.1350  212.0200  154.9860 C   0  0  0  0  0  2  0  0  0  0  0  0
  158.2990  211.6160  156.6740 C   0  0  0  0  0  0  0  0  0  0  0  0
  158.7540  212.4540  155.4970 C   0  0  1  0  0  3  0  0  0  0  0  0
  157.2630  211.8920  157.2590 O   0  0  0  0  0  0  0  0  0  0  0  0
  159.1160  210.4380  157.1280 C   0  0  0  0  0  2  0  0  0  0  0  0
  158.8020  213.8600  155.8630 N   0  0  0  0  0  2  0  0  0  0  0  0
  157.5440  214.4520  155.4400 C   0  0  0  0  0  2  0  0  0  0  0  0
  158.5360  214.4530  153.0780 C   0  0  0  0  0  3  0  0  0  0  0  0
  156.7260  214.2830  151.8870 N   0  0  0  0  0  0  0  0  0  0  0  0
  155.8630  214.1640  150.7220 C   0  0  0  0  0  1  0  0  0  0  0  0
  158.0480  214.3620  151.8190 N   0  0  0  0  0  0  0  0  0  0  0  0
  157.4620  214.4370  153.9510 C   0  0  0  0  0  0  0  0  0  0  0  0
  156.3340  214.3200  153.1690 C   0  0  0  0  0  0  0  0  0  0  0  0
  154.9180  214.2380  153.6430 C   0  0  0  0  0  1  0  0  0  0  0  0
  161.8430  211.1720  148.2770 C   0  0  0  0  0  3  0  0  0  0  0  0
  162.5930  208.8740  149.7170 O   0  0  0  0  0  0  0  0  0  0  0  0
  160.8570  212.0130  150.0370 C   0  0  0  0  0  3  0  0  0  0  0  0
  161.3240  212.4020  147.9190 C   0  0  0  0  0  0  0  0  0  0  0  0
  161.9390  209.7780  150.3080 C   0  0  0  0  0  0  0  0  0  0  0  0
  160.6860  212.9420  149.0260 C   0  0  0  0  0  3  0  0  0  0  0  0
  161.5550  210.9560  149.5740 N   0  0  0  0  0  0  0  0  0  0  0  0
  161.3660  212.9940  146.6000 N   0  0  0  0  0  0  0  0  0  0  0  0
  162.8210  213.7590  144.9160 O   0  0  0  0  0  0  0  0  0  0  0  0
  160.1680  212.9900  145.7920 C   0  0  0  0  0  0  0  0  0  0  0  0
  163.4000  214.3020  147.0600 O   0  0  0  0  0  1  0  0  0  0  0  0
  159.0750  213.3510  146.3060 O   0  0  0  0  0  0  0  0  0  0  0  0
  162.5510  213.6830  146.1460 C   0  0  0  0  0  0  0  0  0  0  0  0
  160.1660  212.5320  144.3580 C   0  0  1  0  0  3  0  0  0  0  0  0
  159.1740  213.3360  143.5300 C   0  0  0  0  0  1  0  0  0  0  0  0
  161.4470  212.6070  143.7990 O   0  0  0  0  0  0  0  0  0  0  0  0
  161.2380  212.8420  142.4350 C   0  0  0  0  0  2  0  0  0  0  0  0
  162.3530  212.1920  141.6300 C   0  0  0  0  0  1  0  0  0  0  0  0
  161.0460  206.2440  153.0520 O   0  0  0  0  0  1  0  0  0  0  0  0
  161.4270  207.0960  152.0050 C   0  0  2  0  0  3  0  0  0  0  0  0
  162.4320  206.4090  151.0930 C   0  0  0  0  0  2  0  0  0  0  0  0
  161.9100  206.3490  149.6680 C   0  0  0  0  0  2  0  0  0  0  0  0
  160.8860  205.2290  149.5320 C   0  0  0  0  0  2  0  0  0  0  0  0
  160.8460  204.6450  148.1200 C   0  0  1  0  0  3  0  0  0  0  0  0
  162.9850  205.8520  147.0060 O   0  0  0  0  0  0  0  0  0  0  0  0
  160.9860  207.2350  147.3890 O   0  0  0  0  0  0  0  0  0  0  0  0
  161.4810  205.8710  146.9830 S   0  0  0  0  0  0  0  0  0  0  0  0
  160.9250  205.4930  145.3900 N   0  0  0  0  0  2  0  0  0  0  0  0
  161.5610  204.2430  144.9880 C   0  0  0  0  0  2  0  0  0  0  0  0
  160.3280  202.2350  145.4320 O   0  0  0  0  0  1  0  0  0  0  0  0
  159.2160  203.9300  144.1790 C   0  0  0  0  0  1  0  0  0  0  0  0
  160.5310  203.2460  144.4870 C   0  0  1  0  0  3  0  0  0  0  0  0
  161.6380  203.4950  148.0550 O   0  0  0  0  0  0  0  0  0  0  0  0
  160.4020  201.2370  150.5060 C   0  0  0  0  0  2  0  0  0  0  0  0
  160.8160  202.4460  148.4740 C   0  0  0  0  0  3  0  0  0  0  0  0
  161.4640  200.4680  149.7500 C   0  0  0  0  0  2  0  0  0  0  0  0
  160.4340  202.6290  149.9290 C   0  0  0  0  0  2  0  0  0  0  0  0
  161.5710  201.1350  148.3890 C   0  0  0  0  0  2  0  0  0  0  0  0
  1  4  1  0  0  0  0
  2  1  2  0  0  0  0
  2  3  1  0  0  0  0
  3 41  1  6  0  0  0
  3  5  1  0  0  0  0
  4  5  1  0  0  0  0
  4  7  1  0  0  0  0
  6 12  1  0  0  0  0
  7  8  1  0  0  0  0
  7  6  2  0  0  0  0
  8 10  1  0  0  0  0
  9 12  1  0  0  0  0
  9 11  2  0  0  0  0
 10 13  1  1  0  0  0
 10  9  1  0  0  0  0
 14 13  1  0  0  0  0
 15 19  1  0  0  0  0
 16 20  1  0  0  0  0
 17 16  1  0  0  0  0
 18 16  1  0  0  0  0
 18 15  2  0  0  0  0
 19 14  1  0  0  0  0
 20 21  1  0  0  0  0
 20 19  2  0  0  0  0
 22 28  1  0  0  0  0
 23 26  2  0  0  0  0
 25 22  2  0  0  0  0
 25 27  1  0  0  0  0
 26  2  1  0  0  0  0
 27 24  2  0  0  0  0
 28 24  1  0  0  0  0
 28 26  1  0  0  0  0
 29 25  1  0  0  0  0
 30 34  2  0  0  0  0
 31 33  2  0  0  0  0
 31 29  1  0  0  0  0
 34 29  1  0  0  0  0
 34 32  1  0  0  0  0
 35 36  1  6  0  0  0
 35 31  1  0  0  0  0
 37 35  1  0  0  0  0
 38 37  1  0  0  0  0
 39 38  1  0  0  0  0
 41 40  1  1  0  0  0
 42 41  1  0  0  0  0
 43 42  1  0  0  0  0
 44 43  1  0  0  0  0
 45 44  1  1  0  0  0
 48 46  2  0  0  0  0
 48 47  2  0  0  0  0
 48 45  1  0  0  0  0
 49 48  1  0  0  0  0
 50 49  1  0  0  0  0
 53 52  1  1  0  0  0
 53 50  1  0  0  0  0
 53 51  1  0  0  0  0
 54 45  1  0  0  0  0
 54 56  1  0  0  0  0
 56 58  1  0  0  0  0
 57 55  1  0  0  0  0
 58 55  1  0  0  0  0
 59 56  1  0  0  0  0
 59 57  1  0  0  0  0
M  END
>  <MODEL>
2

>  <REMARK>
 VINA RESULT:      -4.0      2.976     10.989
  Name = 
  20 active torsions:
  status: ('A' for Active; 'I' for Inactive)
    1  A    between atoms: O_1  and  C_7
    2  A    between atoms: O_1  and  C_29
    3  A    between atoms: N_4  and  C_5
    4  A    between atoms: N_4  and  C_38
    5  A    between atoms: C_5  and  C_46
    6  A    between atoms: C_6  and  N_48
    7  A    between atoms: C_6  and  C_52
    8  A    between atoms: C_7  and  C_39
    9  A    between atoms: C_10  and  C_15
   10  A    between atoms: C_10  and  O_17
   11  A    between atoms: C_10  and  S_51
   12  A    between atoms: N_11  and  C_22
   13  A    between atoms: C_14  and  O_17
   14  A    between atoms: C_15  and  C_24
   15  A    between atoms: C_18  and  N_42
   16  A    between atoms: C_24  and  C_31
   17  A    between atoms: C_31  and  C_54
   18  A    between atoms: C_33  and  C_34
   19  A    between atoms: C_36  and  C_54
   20  A    between atoms: N_48  and  S_51
                            x       y       z     vdW  Elec       q    Type
                         _______ _______ _______ _____ _____    ______ ____

>  <TORSDO>
F 20

$$$$
=
 OpenBabel11042422043D

 59 63  0  0  1  0  0  0  0  0999 V2000
  161.8510  210.3070  148.2050 C   0  0  0  0  0  3  0  0  0  0  0  0
  161.9390  209.6890  149.3620 C   0  0  0  0  0  0  0  0  0  0  0  0
  161.7100  210.6740  150.4720 C   0  0  1  0  0  3  0  0  0  0  0  0
  161.5640  211.6730  148.4490 N   0  0  0  0  0  0  0  0  0  0  0  0
  161.4710  211.9680  149.8180 N   0  0  0  0  0  2  0  0  0  0  0  0
  160.2450  213.3980  147.3970 C   0  0  0  0  0  3  0  0  0  0  0  0
  161.3670  212.6660  147.4340 C   0  0  0  0  0  0  0  0  0  0  0  0
  162.4400  212.9060  146.4010 C   0  0  0  0  0  2  0  0  0  0  0  0
  160.6100  213.9830  145.0340 C   0  0  0  0  0  0  0  0  0  0  0  0
  161.8410  213.1020  145.0020 C   0  0  1  0  0  3  0  0  0  0  0  0
  160.0670  214.3160  143.9910 O   0  0  0  0  0  0  0  0  0  0  0  0
  160.0450  214.4520  146.3460 C   0  0  0  0  0  2  0  0  0  0  0  0
  162.8520  213.6740  144.1270 N   0  0  0  0  0  2  0  0  0  0  0  0
  162.1500  214.3100  143.0260 C   0  0  0  0  0  2  0  0  0  0  0  0
  163.6140  213.9900  140.9470 C   0  0  0  0  0  3  0  0  0  0  0  0
  162.6570  212.2580  140.0500 N   0  0  0  0  0  0  0  0  0  0  0  0
  162.3980  211.1680  139.1230 C   0  0  0  0  0  1  0  0  0  0  0  0
  163.6570  213.1180  139.9150 N   0  0  0  0  0  0  0  0  0  0  0  0
  162.5340  213.6520  141.7430 C   0  0  0  0  0  0  0  0  0  0  0  0
  161.9550  212.5490  141.1550 C   0  0  0  0  0  0  0  0  0  0  0  0
  160.7640  211.7900  141.6470 C   0  0  0  0  0  1  0  0  0  0  0  0
  161.9820  205.8940  148.9470 C   0  0  0  0  0  3  0  0  0  0  0  0
  163.1410  207.9730  150.4460 O   0  0  0  0  0  0  0  0  0  0  0  0
  160.7650  207.3170  147.8200 C   0  0  0  0  0  3  0  0  0  0  0  0
  161.2290  205.1740  148.0380 C   0  0  0  0  0  0  0  0  0  0  0  0
  162.2850  208.2610  149.5640 C   0  0  0  0  0  0  0  0  0  0  0  0
  160.4440  206.0670  147.3230 C   0  0  0  0  0  3  0  0  0  0  0  0
  161.6910  207.1990  148.7940 N   0  0  0  0  0  0  0  0  0  0  0  0
  161.2010  203.7350  147.9030 N   0  0  0  0  0  0  0  0  0  0  0  0
  160.1890  201.7770  148.7290 O   0  0  0  0  0  0  0  0  0  0  0  0
  161.8040  203.1290  146.7380 C   0  0  0  0  0  0  0  0  0  0  0  0
  160.7600  203.3420  150.2930 O   0  0  0  0  0  1  0  0  0  0  0  0
  162.9540  203.4950  146.3770 O   0  0  0  0  0  0  0  0  0  0  0  0
  160.6870  202.9100  148.9710 C   0  0  0  0  0  0  0  0  0  0  0  0
  161.0900  202.0950  145.9080 C   0  0  1  0  0  3  0  0  0  0  0  0
  161.4020  200.6900  146.4000 C   0  0  0  0  0  1  0  0  0  0  0  0
  159.7080  202.3180  145.9000 O   0  0  0  0  0  0  0  0  0  0  0  0
  159.3930  202.6200  144.5700 C   0  0  0  0  0  2  0  0  0  0  0  0
  160.0580  203.9300  144.1750 C   0  0  0  0  0  1  0  0  0  0  0  0
  159.8050  211.4110  151.7550 O   0  0  0  0  0  1  0  0  0  0  0  0
  160.5120  210.2750  151.3340 C   0  0  2  0  0  3  0  0  0  0  0  0
  160.9850  209.4640  152.5310 C   0  0  0  0  0  2  0  0  0  0  0  0
  161.7110  210.3530  153.5270 C   0  0  0  0  0  2  0  0  0  0  0  0
  160.7660  211.4210  154.0610 C   0  0  0  0  0  2  0  0  0  0  0  0
  160.5030  211.2700  155.5600 C   0  0  1  0  0  3  0  0  0  0  0  0
  162.5470  211.7460  157.2550 O   0  0  0  0  0  0  0  0  0  0  0  0
  163.0240  210.3580  155.2800 O   0  0  0  0  0  0  0  0  0  0  0  0
  162.0020  210.6840  156.3390 S   0  0  0  0  0  0  0  0  0  0  0  0
  161.6340  209.2660  157.2580 N   0  0  0  0  0  2  0  0  0  0  0  0
  161.8510  208.1130  156.3920 C   0  0  0  0  0  2  0  0  0  0  0  0
  160.7870  206.6100  154.8560 O   0  0  0  0  0  1  0  0  0  0  0  0
  159.4810  207.3760  156.6960 C   0  0  0  0  0  1  0  0  0  0  0  0
  160.5650  207.7090  155.6930 C   0  0  1  0  0  3  0  0  0  0  0  0
  160.1450  212.5040  156.1100 O   0  0  0  0  0  0  0  0  0  0  0  0
  156.7760  211.3880  155.9090 C   0  0  0  0  0  2  0  0  0  0  0  0
  158.8630  212.3240  156.6370 C   0  0  0  0  0  3  0  0  0  0  0  0
  156.7310  212.8650  155.5770 C   0  0  0  0  0  2  0  0  0  0  0  0
  158.2380  211.0630  156.0750 C   0  0  0  0  0  2  0  0  0  0  0  0
  157.9680  213.4720  156.2160 C   0  0  0  0  0  2  0  0  0  0  0  0
  1  4  1  0  0  0  0
  1  2  2  0  0  0  0
  2 26  1  0  0  0  0
  2  3  1  0  0  0  0
  3 41  1  6  0  0  0
  4  5  1  0  0  0  0
  5  3  1  0  0  0  0
  6  7  2  0  0  0  0
  7  4  1  0  0  0  0
  8  7  1  0  0  0  0
  9 12  1  0  0  0  0
 10 13  1  6  0  0  0
 10  9  1  0  0  0  0
 10  8  1  0  0  0  0
 11  9  2  0  0  0  0
 12  6  1  0  0  0  0
 14 13  1  0  0  0  0
 15 19  1  0  0  0  0
 16 20  1  0  0  0  0
 17 16  1  0  0  0  0
 18 16  1  0  0  0  0
 18 15  2  0  0  0  0
 19 14  1  0  0  0  0
 20 21  1  0  0  0  0
 20 19  2  0  0  0  0
 24 28  1  0  0  0  0
 25 22  2  0  0  0  0
 26 23  2  0  0  0  0
 27 24  2  0  0  0  0
 27 25  1  0  0  0  0
 28 22  1  0  0  0  0
 28 26  1  0  0  0  0
 29 25  1  0  0  0  0
 29 34  1  0  0  0  0
 30 34  2  0  0  0  0
 31 29  1  0  0  0  0
 33 31  2  0  0  0  0
 34 32  1  0  0  0  0
 35 36  1  1  0  0  0
 35 31  1  0  0  0  0
 37 35  1  0  0  0  0
 38 37  1  0  0  0  0
 39 38  1  0  0  0  0
 41 40  1  1  0  0  0
 41 42  1  0  0  0  0
 42 43  1  0  0  0  0
 43 44  1  0  0  0  0
 45 44  1  6  0  0  0
 45 54  1  0  0  0  0
 45 48  1  0  0  0  0
 47 48  2  0  0  0  0
 48 46  2  0  0  0  0
 48 49  1  0  0  0  0
 50 49  1  0  0  0  0
 51 53  1  0  0  0  0
 53 50  1  0  0  0  0
 53 52  1  1  0  0  0
 54 56  1  0  0  0  0
 55 58  1  0  0  0  0
 57 55  1  0  0  0  0
 57 59  1  0  0  0  0
 58 56  1  0  0  0  0
 59 56  1  0  0  0  0
M  END
>  <MODEL>
3

>  <REMARK>
 VINA RESULT:      -3.3      1.867      2.635
  Name = 
  20 active torsions:
  status: ('A' for Active; 'I' for Inactive)
    1  A    between atoms: O_1  and  C_7
    2  A    between atoms: O_1  and  C_29
    3  A    between atoms: N_4  and  C_5
    4  A    between atoms: N_4  and  C_38
    5  A    between atoms: C_5  and  C_46
    6  A    between atoms: C_6  and  N_48
    7  A    between atoms: C_6  and  C_52
    8  A    between atoms: C_7  and  C_39
    9  A    between atoms: C_10  and  C_15
   10  A    between atoms: C_10  and  O_17
   11  A    between atoms: C_10  and  S_51
   12  A    between atoms: N_11  and  C_22
   13  A    between atoms: C_14  and  O_17
   14  A    between atoms: C_15  and  C_24
   15  A    between atoms: C_18  and  N_42
   16  A    between atoms: C_24  and  C_31
   17  A    between atoms: C_31  and  C_54
   18  A    between atoms: C_33  and  C_34
   19  A    between atoms: C_36  and  C_54
   20  A    between atoms: N_48  and  S_51
                            x       y       z     vdW  Elec       q    Type
                         _______ _______ _______ _____ _____    ______ ____

>  <TORSDO>
F 20

$$$$
=
 OpenBabel11042422043D

 59 63  0  0  1  0  0  0  0  0999 V2000
  160.8160  206.8730  153.2350 C   0  0  0  0  0  3  0  0  0  0  0  0
  160.9610  206.5130  151.9790 C   0  0  0  0  0  0  0  0  0  0  0  0
  160.8260  207.7200  151.0960 C   0  0  1  0  0  3  0  0  0  0  0  0
  160.5960  208.2720  153.2760 N   0  0  0  0  0  0  0  0  0  0  0  0
  160.5830  208.8530  151.9980 N   0  0  0  0  0  2  0  0  0  0  0  0
  159.9080  208.4840  155.5790 C   0  0  0  0  0  3  0  0  0  0  0  0
  160.4180  209.0430  154.4720 C   0  0  0  0  0  0  0  0  0  0  0  0
  160.8220  210.4950  154.4950 C   0  0  0  0  0  2  0  0  0  0  0  0
  159.3020  210.6830  156.5050 C   0  0  0  0  0  0  0  0  0  0  0  0
  159.7890  211.3550  155.2380 C   0  0  1  0  0  3  0  0  0  0  0  0
  158.5480  211.2760  157.2610 O   0  0  0  0  0  0  0  0  0  0  0  0
  159.7390  209.2840  156.8390 C   0  0  0  0  0  2  0  0  0  0  0  0
  160.3790  212.6490  155.5430 N   0  0  0  0  0  2  0  0  0  0  0  0
  159.2890  213.5340  155.9170 C   0  0  0  0  0  2  0  0  0  0  0  0
  158.7210  213.8980  153.4450 C   0  0  0  0  0  3  0  0  0  0  0  0
  156.5560  213.7250  153.5050 N   0  0  0  0  0  0  0  0  0  0  0  0
  155.1760  213.6750  153.0480 C   0  0  0  0  0  1  0  0  0  0  0  0
  157.5920  213.9180  152.7000 N   0  0  0  0  0  0  0  0  0  0  0  0
  158.3560  213.6900  154.7630 C   0  0  0  0  0  0  0  0  0  0  0  0
  156.9830  213.5760  154.7670 C   0  0  0  0  0  0  0  0  0  0  0  0
  156.1070  213.3220  155.9520 C   0  0  0  0  0  1  0  0  0  0  0  0
  161.2440  203.5350  149.6070 C   0  0  0  0  0  3  0  0  0  0  0  0
  161.3920  204.2200  152.3310 O   0  0  0  0  0  0  0  0  0  0  0  0
  160.8240  205.6080  149.0570 C   0  0  0  0  0  3  0  0  0  0  0  0
  161.1080  203.5840  148.2320 C   0  0  0  0  0  0  0  0  0  0  0  0
  161.1500  205.1270  151.4860 C   0  0  0  0  0  0  0  0  0  0  0  0
  160.8310  204.8950  147.8710 C   0  0  0  0  0  3  0  0  0  0  0  0
  161.0750  204.7790  150.0910 N   0  0  0  0  0  0  0  0  0  0  0  0
  161.1660  202.4570  147.3280 N   0  0  0  0  0  0  0  0  0  0  0  0
  160.8470  200.1300  147.1840 O   0  0  0  0  0  0  0  0  0  0  0  0
  161.2240  202.7030  145.9050 C   0  0  0  0  0  0  0  0  0  0  0  0
  161.9130  200.8780  149.0620 O   0  0  0  0  0  1  0  0  0  0  0  0
  162.0370  203.5560  145.4580 O   0  0  0  0  0  0  0  0  0  0  0  0
  161.2850  201.1130  147.8420 C   0  0  0  0  0  0  0  0  0  0  0  0
  160.3150  202.0020  144.9300 C   0  0  1  0  0  3  0  0  0  0  0  0
  160.2960  200.5020  145.1840 C   0  0  0  0  0  1  0  0  0  0  0  0
  159.0180  202.5250  144.9780 O   0  0  0  0  0  0  0  0  0  0  0  0
  159.0150  203.5830  144.0610 C   0  0  0  0  0  2  0  0  0  0  0  0
  159.0960  204.9050  144.8080 C   0  0  0  0  0  1  0  0  0  0  0  0
  163.1550  208.3470  151.0930 O   0  0  0  0  0  1  0  0  0  0  0  0
  162.0920  207.9500  150.2690 C   0  0  2  0  0  3  0  0  0  0  0  0
  161.8250  208.9960  149.1980 C   0  0  0  0  0  2  0  0  0  0  0  0
  161.6310  210.3670  149.8240 C   0  0  0  0  0  2  0  0  0  0  0  0
  162.2150  211.4440  148.9190 C   0  0  0  0  0  2  0  0  0  0  0  0
  161.2050  212.5440  148.5950 C   0  0  1  0  0  3  0  0  0  0  0  0
  160.8700  214.3160  150.6010 O   0  0  0  0  0  0  0  0  0  0  0  0
  160.5930  211.9320  151.1470 O   0  0  0  0  0  0  0  0  0  0  0  0
  160.3550  212.9930  150.1030 S   0  0  0  0  0  0  0  0  0  0  0  0
  158.6630  213.1220  149.7710 N   0  0  0  0  0  2  0  0  0  0  0  0
  158.4860  214.2030  148.8070 C   0  0  0  0  0  2  0  0  0  0  0  0
  156.9910  213.3490  147.1380 O   0  0  0  0  0  1  0  0  0  0  0  0
  156.0700  213.7820  149.2920 C   0  0  0  0  0  1  0  0  0  0  0  0
  157.0770  214.2030  148.2430 C   0  0  1  0  0  3  0  0  0  0  0  0
  161.8650  213.6640  148.0830 O   0  0  0  0  0  0  0  0  0  0  0  0
  160.6910  212.5270  144.9260 C   0  0  0  0  0  2  0  0  0  0  0  0
  161.3240  213.8720  146.8110 C   0  0  0  0  0  3  0  0  0  0  0  0
  162.1210  212.9630  144.6900 C   0  0  0  0  0  2  0  0  0  0  0  0
  160.4660  212.6900  146.4070 C   0  0  0  0  0  2  0  0  0  0  0  0
  162.4370  213.9650  145.7870 C   0  0  0  0  0  2  0  0  0  0  0  0
  1  4  1  0  0  0  0
  2  1  2  0  0  0  0
  3 41  1  1  0  0  0
  3  2  1  0  0  0  0
  3  5  1  0  0  0  0
  4  7  1  0  0  0  0
  5  4  1  0  0  0  0
  6 12  1  0  0  0  0
  7  8  1  0  0  0  0
  7  6  2  0  0  0  0
  8 10  1  0  0  0  0
  9 12  1  0  0  0  0
  9 11  2  0  0  0  0
 10 13  1  1  0  0  0
 10  9  1  0  0  0  0
 13 14  1  0  0  0  0
 15 19  1  0  0  0  0
 16 20  1  0  0  0  0
 17 16  1  0  0  0  0
 18 15  2  0  0  0  0
 18 16  1  0  0  0  0
 19 20  2  0  0  0  0
 19 14  1  0  0  0  0
 20 21  1  0  0  0  0
 22 28  1  0  0  0  0
 24 28  1  0  0  0  0
 25 22  2  0  0  0  0
 26  2  1  0  0  0  0
 26 23  2  0  0  0  0
 27 25  1  0  0  0  0
 27 24  2  0  0  0  0
 28 26  1  0  0  0  0
 29 34  1  0  0  0  0
 29 25  1  0  0  0  0
 30 34  2  0  0  0  0
 31 29  1  0  0  0  0
 33 31  2  0  0  0  0
 34 32  1  0  0  0  0
 35 37  1  0  0  0  0
 35 36  1  1  0  0  0
 35 31  1  0  0  0  0
 38 39  1  0  0  0  0
 38 37  1  0  0  0  0
 41 40  1  1  0  0  0
 42 43  1  0  0  0  0
 42 41  1  0  0  0  0
 44 43  1  0  0  0  0
 45 44  1  1  0  0  0
 45 48  1  0  0  0  0
 48 46  2  0  0  0  0
 48 47  2  0  0  0  0
 49 48  1  0  0  0  0
 50 49  1  0  0  0  0
 51 53  1  0  0  0  0
 53 50  1  0  0  0  0
 53 52  1  1  0  0  0
 54 45  1  0  0  0  0
 55 58  1  0  0  0  0
 56 54  1  0  0  0  0
 57 55  1  0  0  0  0
 57 59  1  0  0  0  0
 58 56  1  0  0  0  0
 59 56  1  0  0  0  0
M  END
>  <MODEL>
4

>  <REMARK>
 VINA RESULT:      -3.1      3.681      9.514
  Name = 
  20 active torsions:
  status: ('A' for Active; 'I' for Inactive)
    1  A    between atoms: O_1  and  C_7
    2  A    between atoms: O_1  and  C_29
    3  A    between atoms: N_4  and  C_5
    4  A    between atoms: N_4  and  C_38
    5  A    between atoms: C_5  and  C_46
    6  A    between atoms: C_6  and  N_48
    7  A    between atoms: C_6  and  C_52
    8  A    between atoms: C_7  and  C_39
    9  A    between atoms: C_10  and  C_15
   10  A    between atoms: C_10  and  O_17
   11  A    between atoms: C_10  and  S_51
   12  A    between atoms: N_11  and  C_22
   13  A    between atoms: C_14  and  O_17
   14  A    between atoms: C_15  and  C_24
   15  A    between atoms: C_18  and  N_42
   16  A    between atoms: C_24  and  C_31
   17  A    between atoms: C_31  and  C_54
   18  A    between atoms: C_33  and  C_34
   19  A    between atoms: C_36  and  C_54
   20  A    between atoms: N_48  and  S_51
                            x       y       z     vdW  Elec       q    Type
                         _______ _______ _______ _____ _____    ______ ____

>  <TORSDO>
F 20

$$$$
=
 OpenBabel11042422043D

 59 63  0  0  1  0  0  0  0  0999 V2000
  161.0760  212.3810  149.3570 C   0  0  0  0  0  3  0  0  0  0  0  0
  161.2110  211.3130  150.1110 C   0  0  0  0  0  0  0  0  0  0  0  0
  161.2510  210.0900  149.2400 C   0  0  1  0  0  3  0  0  0  0  0  0
  161.0280  211.9680  148.0020 N   0  0  0  0  0  0  0  0  0  0  0  0
  161.1240  210.5750  147.8600 N   0  0  0  0  0  2  0  0  0  0  0  0
  159.7510  213.4570  146.5970 C   0  0  0  0  0  3  0  0  0  0  0  0
  160.9130  212.8490  146.8770 C   0  0  0  0  0  0  0  0  0  0  0  0
  162.1130  213.1110  146.0030 C   0  0  0  0  0  2  0  0  0  0  0  0
  160.4410  213.8800  144.2720 C   0  0  0  0  0  0  0  0  0  0  0  0
  161.7340  213.1290  144.5150 C   0  0  1  0  0  3  0  0  0  0  0  0
  160.0470  214.0690  143.1320 O   0  0  0  0  0  0  0  0  0  0  0  0
  159.6320  214.3960  145.4310 C   0  0  0  0  0  2  0  0  0  0  0  0
  162.8190  213.7270  143.7540 N   0  0  0  0  0  2  0  0  0  0  0  0
  162.2660  214.1310  142.4730 C   0  0  0  0  0  2  0  0  0  0  0  0
  162.4290  211.6310  141.9330 C   0  0  0  0  0  3  0  0  0  0  0  0
  161.3830  211.5660  140.0300 N   0  0  0  0  0  0  0  0  0  0  0  0
  160.7840  211.0300  138.8180 C   0  0  0  0  0  1  0  0  0  0  0  0
  162.0040  210.8230  140.9350 N   0  0  0  0  0  0  0  0  0  0  0  0
  162.0570  212.9260  141.6180 C   0  0  0  0  0  0  0  0  0  0  0  0
  161.3890  212.8510  140.4160 C   0  0  0  0  0  0  0  0  0  0  0  0
  160.7690  213.9830  139.6610 C   0  0  0  0  0  1  0  0  0  0  0  0
  160.1690  211.8150  153.7490 C   0  0  0  0  0  3  0  0  0  0  0  0
  162.2490  210.7810  152.1620 O   0  0  0  0  0  0  0  0  0  0  0  0
  159.0370  212.4000  151.9730 C   0  0  0  0  0  3  0  0  0  0  0  0
  158.9890  212.3950  154.1770 C   0  0  0  0  0  0  0  0  0  0  0  0
  161.2430  211.2910  151.5930 C   0  0  0  0  0  0  0  0  0  0  0  0
  158.2660  212.7800  153.0570 C   0  0  0  0  0  3  0  0  0  0  0  0
  160.1760  211.8190  152.4030 N   0  0  0  0  0  0  0  0  0  0  0  0
  158.6040  212.6330  155.5500 N   0  0  0  0  0  0  0  0  0  0  0  0
  158.4370  214.2980  157.2060 O   0  0  0  0  0  1  0  0  0  0  0  0
  157.8190  211.6360  156.2400 C   0  0  0  0  0  0  0  0  0  0  0  0
  160.3250  214.3540  155.9200 O   0  0  0  0  0  0  0  0  0  0  0  0
  158.1640  210.4250  156.1760 O   0  0  0  0  0  0  0  0  0  0  0  0
  159.0960  213.7930  156.2570 C   0  0  0  0  0  0  0  0  0  0  0  0
  156.5720  211.9830  157.0100 C   0  0  1  0  0  3  0  0  0  0  0  0
  155.7790  213.0710  156.3000 C   0  0  0  0  0  1  0  0  0  0  0  0
  155.7740  210.8530  157.2210 O   0  0  0  0  0  0  0  0  0  0  0  0
  154.4550  211.3150  157.1420 C   0  0  0  0  0  2  0  0  0  0  0  0
  153.5210  210.1450  156.8750 C   0  0  0  0  0  1  0  0  0  0  0  0
  163.2090  209.1490  148.1920 O   0  0  0  0  0  1  0  0  0  0  0  0
  162.5590  209.3190  149.4230 C   0  0  2  0  0  3  0  0  0  0  0  0
  162.2760  207.9710  150.0700 C   0  0  0  0  0  2  0  0  0  0  0  0
  161.1410  207.2590  149.3520 C   0  0  0  0  0  2  0  0  0  0  0  0
  161.6480  206.6430  148.0550 C   0  0  0  0  0  2  0  0  0  0  0  0
  161.0810  205.2430  147.8160 C   0  0  1  0  0  3  0  0  0  0  0  0
  162.4430  205.7010  145.5330 O   0  0  0  0  0  0  0  0  0  0  0  0
  160.1250  204.9010  145.3190 O   0  0  0  0  0  0  0  0  0  0  0  0
  161.4000  204.7870  146.1160 S   0  0  0  0  0  0  0  0  0  0  0  0
  161.9760  203.1580  146.0760 N   0  0  0  0  0  2  0  0  0  0  0  0
  161.1030  202.4050  145.1820 C   0  0  0  0  0  2  0  0  0  0  0  0
  160.3040  200.1540  144.9740 O   0  0  0  0  0  1  0  0  0  0  0  0
  161.4350  200.7140  146.9940 C   0  0  0  0  0  1  0  0  0  0  0  0
  160.5220  201.1920  145.8850 C   0  0  1  0  0  3  0  0  0  0  0  0
  161.7010  204.3240  148.6670 O   0  0  0  0  0  0  0  0  0  0  0  0
  160.9050  203.5900  152.0530 C   0  0  0  0  0  2  0  0  0  0  0  0
  160.7970  204.1080  149.7120 C   0  0  0  0  0  3  0  0  0  0  0  0
  160.7950  202.2700  151.3190 C   0  0  0  0  0  2  0  0  0  0  0  0
  161.3930  204.5770  151.0240 C   0  0  0  0  0  2  0  0  0  0  0  0
  160.5330  202.6230  149.8650 C   0  0  0  0  0  2  0  0  0  0  0  0
  1  2  2  0  0  0  0
  2 26  1  0  0  0  0
  3 41  1  6  0  0  0
  3  2  1  0  0  0  0
  4  1  1  0  0  0  0
  5  4  1  0  0  0  0
  5  3  1  0  0  0  0
  6  7  2  0  0  0  0
  7  4  1  0  0  0  0
  8  7  1  0  0  0  0
  9 10  1  0  0  0  0
  9 12  1  0  0  0  0
 10 13  1  6  0  0  0
 10  8  1  0  0  0  0
 11  9  2  0  0  0  0
 12  6  1  0  0  0  0
 14 13  1  0  0  0  0
 16 20  1  0  0  0  0
 16 18  1  0  0  0  0
 17 16  1  0  0  0  0
 18 15  2  0  0  0  0
 19 15  1  0  0  0  0
 19 14  1  0  0  0  0
 20 19  2  0  0  0  0
 21 20  1  0  0  0  0
 22 25  2  0  0  0  0
 24 28  1  0  0  0  0
 24 27  2  0  0  0  0
 25 29  1  0  0  0  0
 26 23  2  0  0  0  0
 26 28  1  0  0  0  0
 27 25  1  0  0  0  0
 28 22  1  0  0  0  0
 29 31  1  0  0  0  0
 29 34  1  0  0  0  0
 31 35  1  0  0  0  0
 32 34  2  0  0  0  0
 33 31  2  0  0  0  0
 34 30  1  0  0  0  0
 35 36  1  6  0  0  0
 35 37  1  0  0  0  0
 38 37  1  0  0  0  0
 39 38  1  0  0  0  0
 41 40  1  6  0  0  0
 41 42  1  0  0  0  0
 43 42  1  0  0  0  0
 44 43  1  0  0  0  0
 45 44  1  1  0  0  0
 45 54  1  0  0  0  0
 46 48  2  0  0  0  0
 47 48  2  0  0  0  0
 48 45  1  0  0  0  0
 49 48  1  0  0  0  0
 50 53  1  0  0  0  0
 50 49  1  0  0  0  0
 51 53  1  0  0  0  0
 53 52  1  1  0  0  0
 54 56  1  0  0  0  0
 56 59  1  0  0  0  0
 56 58  1  0  0  0  0
 57 55  1  0  0  0  0
 58 55  1  0  0  0  0
 59 57  1  0  0  0  0
M  END
>  <MODEL>
5

>  <REMARK>
 VINA RESULT:      -3.0      2.567      8.465
  Name = 
  20 active torsions:
  status: ('A' for Active; 'I' for Inactive)
    1  A    between atoms: O_1  and  C_7
    2  A    between atoms: O_1  and  C_29
    3  A    between atoms: N_4  and  C_5
    4  A    between atoms: N_4  and  C_38
    5  A    between atoms: C_5  and  C_46
    6  A    between atoms: C_6  and  N_48
    7  A    between atoms: C_6  and  C_52
    8  A    between atoms: C_7  and  C_39
    9  A    between atoms: C_10  and  C_15
   10  A    between atoms: C_10  and  O_17
   11  A    between atoms: C_10  and  S_51
   12  A    between atoms: N_11  and  C_22
   13  A    between atoms: C_14  and  O_17
   14  A    between atoms: C_15  and  C_24
   15  A    between atoms: C_18  and  N_42
   16  A    between atoms: C_24  and  C_31
   17  A    between atoms: C_31  and  C_54
   18  A    between atoms: C_33  and  C_34
   19  A    between atoms: C_36  and  C_54
   20  A    between atoms: N_48  and  S_51
                            x       y       z     vdW  Elec       q    Type
                         _______ _______ _______ _____ _____    ______ ____

>  <TORSDO>
F 20

$$$$
=
 OpenBabel11042422043D

 59 63  0  0  1  0  0  0  0  0999 V2000
  161.5410  207.1010  151.7920 C   0  0  0  0  0  3  0  0  0  0  0  0
  161.9790  208.3000  151.4810 C   0  0  0  0  0  0  0  0  0  0  0  0
  162.3860  208.3240  150.0360 C   0  0  1  0  0  3  0  0  0  0  0  0
  161.6120  206.2860  150.6350 N   0  0  0  0  0  0  0  0  0  0  0  0
  162.1280  206.9720  149.5240 N   0  0  0  0  0  2  0  0  0  0  0  0
  160.9430  204.2180  151.6830 C   0  0  0  0  0  3  0  0  0  0  0  0
  161.1960  204.9150  150.5670 C   0  0  0  0  0  0  0  0  0  0  0  0
  161.0240  204.2490  149.2250 C   0  0  0  0  0  2  0  0  0  0  0  0
  161.2040  202.0750  150.4990 C   0  0  0  0  0  0  0  0  0  0  0  0
  161.5760  202.8170  149.2320 C   0  0  1  0  0  3  0  0  0  0  0  0
  161.4850  200.8940  150.6230 O   0  0  0  0  0  0  0  0  0  0  0  0
  160.4890  202.7880  151.6140 C   0  0  0  0  0  2  0  0  0  0  0  0
  161.0780  202.1080  148.0640 N   0  0  0  0  0  2  0  0  0  0  0  0
  160.2710  203.0510  147.3090 C   0  0  0  0  0  2  0  0  0  0  0  0
  162.5100  203.9720  146.4730 C   0  0  0  0  0  3  0  0  0  0  0  0
  161.8860  204.9090  144.6140 N   0  0  0  0  0  0  0  0  0  0  0  0
  161.9670  205.6220  143.3490 C   0  0  0  0  0  1  0  0  0  0  0  0
  162.9340  204.6570  145.3860 N   0  0  0  0  0  0  0  0  0  0  0  0
  161.1410  203.8060  146.3620 C   0  0  0  0  0  0  0  0  0  0  0  0
  160.7780  204.4000  145.1740 C   0  0  0  0  0  0  0  0  0  0  0  0
  159.4040  204.4710  144.5880 C   0  0  0  0  0  1  0  0  0  0  0  0
  161.2670  210.7680  154.3060 C   0  0  0  0  0  3  0  0  0  0  0  0
  163.1530  210.1740  152.3050 O   0  0  0  0  0  0  0  0  0  0  0  0
  160.0180  209.0790  153.7010 C   0  0  0  0  0  3  0  0  0  0  0  0
  160.1670  210.7410  155.1420 C   0  0  0  0  0  0  0  0  0  0  0  0
  162.1290  209.4420  152.4150 C   0  0  0  0  0  0  0  0  0  0  0  0
  159.3600  209.6780  154.7610 C   0  0  0  0  0  3  0  0  0  0  0  0
  161.1640  209.7430  153.4400 N   0  0  0  0  0  0  0  0  0  0  0  0
  159.8620  211.6960  156.1840 N   0  0  0  0  0  0  0  0  0  0  0  0
  160.6480  213.6370  157.2580 O   0  0  0  0  0  1  0  0  0  0  0  0
  158.5220  211.7420  156.7220 C   0  0  0  0  0  0  0  0  0  0  0  0
  162.2200  212.0430  156.8000 O   0  0  0  0  0  0  0  0  0  0  0  0
  157.9520  210.6680  157.0520 O   0  0  0  0  0  0  0  0  0  0  0  0
  160.9080  212.5080  156.7590 C   0  0  0  0  0  0  0  0  0  0  0  0
  157.7580  213.0310  156.8710 C   0  0  1  0  0  3  0  0  0  0  0  0
  157.8070  213.8450  155.5870 C   0  0  0  0  0  1  0  0  0  0  0  0
  156.4320  212.7930  157.2510 O   0  0  0  0  0  0  0  0  0  0  0  0
  155.6970  212.8290  156.0600 C   0  0  0  0  0  2  0  0  0  0  0  0
  155.3690  211.4100  155.6220 C   0  0  0  0  0  1  0  0  0  0  0  0
  162.0170  209.4110  147.9150 O   0  0  0  0  0  1  0  0  0  0  0  0
  161.5850  209.3620  149.2480 C   0  0  2  0  0  3  0  0  0  0  0  0
  161.7230  210.7270  149.9070 C   0  0  0  0  0  2  0  0  0  0  0  0
  161.7700  211.8250  148.8580 C   0  0  0  0  0  2  0  0  0  0  0  0
  161.1240  213.0940  149.3990 C   0  0  0  0  0  2  0  0  0  0  0  0
  160.0760  213.6660  148.4440 C   0  0  1  0  0  3  0  0  0  0  0  0
  160.0450  211.9060  146.4010 O   0  0  0  0  0  0  0  0  0  0  0  0
  162.0650  213.2870  146.6660 O   0  0  0  0  0  0  0  0  0  0  0  0
  160.5610  213.2700  146.7690 S   0  0  0  0  0  0  0  0  0  0  0  0
  159.8840  214.4490  145.7010 N   0  0  0  0  0  2  0  0  0  0  0  0
  160.6840  214.4460  144.4810 C   0  0  0  0  0  2  0  0  0  0  0  0
  158.9070  212.9710  143.8370 O   0  0  0  0  0  1  0  0  0  0  0  0
  160.2650  213.8510  142.0880 C   0  0  0  0  0  1  0  0  0  0  0  0
  160.2100  213.3680  143.5220 C   0  0  1  0  0  3  0  0  0  0  0  0
  158.8250  213.1020  148.7120 O   0  0  0  0  0  0  0  0  0  0  0  0
  156.4640  214.4510  151.0010 C   0  0  0  0  0  2  0  0  0  0  0  0
  158.0420  214.1430  149.2190 C   0  0  0  0  0  3  0  0  0  0  0  0
  155.6640  214.0800  149.7700 C   0  0  0  0  0  2  0  0  0  0  0  0
  157.8690  213.9860  150.7160 C   0  0  0  0  0  2  0  0  0  0  0  0
  156.6520  214.0810  148.6170 C   0  0  0  0  0  2  0  0  0  0  0  0
  2  1  2  0  0  0  0
  2 26  1  0  0  0  0
  3 41  1  6  0  0  0
  3  2  1  0  0  0  0
  4  1  1  0  0  0  0
  5  3  1  0  0  0  0
  5  4  1  0  0  0  0
  7  4  1  0  0  0  0
  7  6  2  0  0  0  0
  8 10  1  0  0  0  0
  8  7  1  0  0  0  0
  9 11  2  0  0  0  0
  9 12  1  0  0  0  0
 10 13  1  6  0  0  0
 10  9  1  0  0  0  0
 12  6  1  0  0  0  0
 14 13  1  0  0  0  0
 16 20  1  0  0  0  0
 16 18  1  0  0  0  0
 17 16  1  0  0  0  0
 18 15  2  0  0  0  0
 19 15  1  0  0  0  0
 19 14  1  0  0  0  0
 20 19  2  0  0  0  0
 21 20  1  0  0  0  0
 22 25  2  0  0  0  0
 23 26  2  0  0  0  0
 24 27  2  0  0  0  0
 25 29  1  0  0  0  0
 26 28  1  0  0  0  0
 27 25  1  0  0  0  0
 28 24  1  0  0  0  0
 28 22  1  0  0  0  0
 29 31  1  0  0  0  0
 29 34  1  0  0  0  0
 31 35  1  0  0  0  0
 31 33  2  0  0  0  0
 34 32  2  0  0  0  0
 34 30  1  0  0  0  0
 35 36  1  6  0  0  0
 35 37  1  0  0  0  0
 38 37  1  0  0  0  0
 39 38  1  0  0  0  0
 41 40  1  6  0  0  0
 41 42  1  0  0  0  0
 43 44  1  0  0  0  0
 43 42  1  0  0  0  0
 45 54  1  0  0  0  0
 45 44  1  1  0  0  0
 46 48  2  0  0  0  0
 47 48  2  0  0  0  0
 48 45  1  0  0  0  0
 49 48  1  0  0  0  0
 50 49  1  0  0  0  0
 53 52  1  6  0  0  0
 53 51  1  0  0  0  0
 53 50  1  0  0  0  0
 54 56  1  0  0  0  0
 56 58  1  0  0  0  0
 57 55  1  0  0  0  0
 58 55  1  0  0  0  0
 59 56  1  0  0  0  0
 59 57  1  0  0  0  0
M  END
>  <MODEL>
6

>  <REMARK>
 VINA RESULT:      -2.9      3.074      9.612
  Name = 
  20 active torsions:
  status: ('A' for Active; 'I' for Inactive)
    1  A    between atoms: O_1  and  C_7
    2  A    between atoms: O_1  and  C_29
    3  A    between atoms: N_4  and  C_5
    4  A    between atoms: N_4  and  C_38
    5  A    between atoms: C_5  and  C_46
    6  A    between atoms: C_6  and  N_48
    7  A    between atoms: C_6  and  C_52
    8  A    between atoms: C_7  and  C_39
    9  A    between atoms: C_10  and  C_15
   10  A    between atoms: C_10  and  O_17
   11  A    between atoms: C_10  and  S_51
   12  A    between atoms: N_11  and  C_22
   13  A    between atoms: C_14  and  O_17
   14  A    between atoms: C_15  and  C_24
   15  A    between atoms: C_18  and  N_42
   16  A    between atoms: C_24  and  C_31
   17  A    between atoms: C_31  and  C_54
   18  A    between atoms: C_33  and  C_34
   19  A    between atoms: C_36  and  C_54
   20  A    between atoms: N_48  and  S_51
                            x       y       z     vdW  Elec       q    Type
                         _______ _______ _______ _____ _____    ______ ____

>  <TORSDO>
F 20

$$$$
=
 OpenBabel11042422043D

 59 63  0  0  1  0  0  0  0  0999 V2000
  160.6350  211.4210  151.6340 C   0  0  0  0  0  3  0  0  0  0  0  0
  161.2390  211.7900  150.5270 C   0  0  0  0  0  0  0  0  0  0  0  0
  162.5880  211.1340  150.4520 C   0  0  1  0  0  3  0  0  0  0  0  0
  161.4900  210.5330  152.3340 N   0  0  0  0  0  0  0  0  0  0  0  0
  162.7070  210.3190  151.6680 N   0  0  0  0  0  2  0  0  0  0  0  0
  160.9860  208.5680  153.6410 C   0  0  0  0  0  3  0  0  0  0  0  0
  161.1710  209.8940  153.5780 C   0  0  0  0  0  0  0  0  0  0  0  0
  161.0570  210.7170  154.8360 C   0  0  0  0  0  2  0  0  0  0  0  0
  159.7550  208.7610  155.7640 C   0  0  0  0  0  0  0  0  0  0  0  0
  159.8660  210.2700  155.6960 C   0  0  1  0  0  3  0  0  0  0  0  0
  158.9170  208.2400  156.4840 O   0  0  0  0  0  0  0  0  0  0  0  0
  160.6710  207.8940  154.9450 C   0  0  0  0  0  2  0  0  0  0  0  0
  160.0050  210.8300  157.0300 N   0  0  0  0  0  2  0  0  0  0  0  0
  159.5990  212.2220  156.9500 C   0  0  0  0  0  2  0  0  0  0  0  0
  157.0630  211.8860  157.0940 C   0  0  0  0  0  3  0  0  0  0  0  0
  156.4350  212.7900  155.2200 N   0  0  0  0  0  0  0  0  0  0  0  0
  155.5630  213.2710  154.1600 C   0  0  0  0  0  1  0  0  0  0  0  0
  155.9960  212.1950  156.3210 N   0  0  0  0  0  0  0  0  0  0  0  0
  158.2030  212.3050  156.4310 C   0  0  0  0  0  0  0  0  0  0  0  0
  157.7730  212.8800  155.2550 C   0  0  0  0  0  0  0  0  0  0  0  0
  158.6250  213.5060  154.1980 C   0  0  0  0  0  1  0  0  0  0  0  0
  159.8980  213.2380  147.2580 C   0  0  0  0  0  3  0  0  0  0  0  0
  160.5750  213.9630  149.8910 O   0  0  0  0  0  0  0  0  0  0  0  0
  160.4650  211.1600  147.6310 C   0  0  0  0  0  3  0  0  0  0  0  0
  159.6730  212.5270  146.0950 C   0  0  0  0  0  0  0  0  0  0  0  0
  160.7210  212.7600  149.5330 C   0  0  0  0  0  0  0  0  0  0  0  0
  160.0390  211.2070  146.3160 C   0  0  0  0  0  3  0  0  0  0  0  0
  160.3730  212.3870  148.1870 N   0  0  0  0  0  0  0  0  0  0  0  0
  159.2110  213.0730  144.8380 N   0  0  0  0  0  0  0  0  0  0  0  0
  157.5720  214.4530  143.8640 O   0  0  0  0  0  0  0  0  0  0  0  0
  160.0820  213.0160  143.6870 C   0  0  0  0  0  0  0  0  0  0  0  0
  156.8360  213.0200  145.4860 O   0  0  0  0  0  1  0  0  0  0  0  0
  160.6680  211.9350  143.4080 O   0  0  0  0  0  0  0  0  0  0  0  0
  157.8570  213.5570  144.7050 C   0  0  0  0  0  0  0  0  0  0  0  0
  160.3520  214.2180  142.8210 C   0  0  1  0  0  3  0  0  0  0  0  0
  161.8470  214.4480  142.6570 C   0  0  0  0  0  1  0  0  0  0  0  0
  159.7350  214.0910  141.5710 O   0  0  0  0  0  0  0  0  0  0  0  0
  160.7760  214.1720  140.6380 C   0  0  0  0  0  2  0  0  0  0  0  0
  160.2690  213.7430  139.2700 C   0  0  0  0  0  1  0  0  0  0  0  0
  162.6540  211.0460  148.0420 O   0  0  0  0  0  1  0  0  0  0  0  0
  162.7160  210.2610  149.2030 C   0  0  2  0  0  3  0  0  0  0  0  0
  161.6170  209.2080  149.1960 C   0  0  0  0  0  2  0  0  0  0  0  0
  161.7660  208.2870  147.9970 C   0  0  0  0  0  2  0  0  0  0  0  0
  162.6830  207.1210  148.3430 C   0  0  0  0  0  2  0  0  0  0  0  0
  161.9250  205.7980  148.4580 C   0  0  1  0  0  3  0  0  0  0  0  0
  159.9820  206.2120  150.2830 O   0  0  0  0  0  0  0  0  0  0  0  0
  162.3100  206.3260  151.0730 O   0  0  0  0  0  0  0  0  0  0  0  0
  161.3570  205.6180  150.1440 S   0  0  0  0  0  0  0  0  0  0  0  0
  161.2970  203.9340  150.5340 N   0  0  0  0  0  2  0  0  0  0  0  0
  160.7190  203.2390  149.3900 C   0  0  0  0  0  2  0  0  0  0  0  0
  159.4190  201.3280  148.7510 O   0  0  0  0  0  1  0  0  0  0  0  0
  161.2370  200.9460  150.2440 C   0  0  0  0  0  1  0  0  0  0  0  0
  160.1430  201.8970  149.8040 C   0  0  1  0  0  3  0  0  0  0  0  0
  160.8260  205.7990  147.5950 O   0  0  0  0  0  0  0  0  0  0  0  0
  160.4960  204.8140  144.1960 C   0  0  0  0  0  2  0  0  0  0  0  0
  161.3430  205.5280  146.3250 C   0  0  0  0  0  3  0  0  0  0  0  0
  160.9220  203.5640  144.9370 C   0  0  0  0  0  2  0  0  0  0  0  0
  160.3190  205.8660  145.2600 C   0  0  0  0  0  2  0  0  0  0  0  0
  161.6300  204.0460  146.1910 C   0  0  0  0  0  2  0  0  0  0  0  0
  1  4  1  0  0  0  0
  2  1  2  0  0  0  0
  3 41  1  6  0  0  0
  3  2  1  0  0  0  0
  3  5  1  0  0  0  0
  4  7  1  0  0  0  0
  5  4  1  0  0  0  0
  6 12  1  0  0  0  0
  7  6  2  0  0  0  0
  7  8  1  0  0  0  0
  8 10  1  0  0  0  0
  9 11  2  0  0  0  0
 10  9  1  0  0  0  0
 10 13  1  1  0  0  0
 12  9  1  0  0  0  0
 14 13  1  0  0  0  0
 16 20  1  0  0  0  0
 16 18  1  0  0  0  0
 17 16  1  0  0  0  0
 18 15  2  0  0  0  0
 19 14  1  0  0  0  0
 19 15  1  0  0  0  0
 20 19  2  0  0  0  0
 21 20  1  0  0  0  0
 22 28  1  0  0  0  0
 24 28  1  0  0  0  0
 25 27  1  0  0  0  0
 25 22  2  0  0  0  0
 26 23  2  0  0  0  0
 26  2  1  0  0  0  0
 27 24  2  0  0  0  0
 28 26  1  0  0  0  0
 29 25  1  0  0  0  0
 30 34  2  0  0  0  0
 31 29  1  0  0  0  0
 33 31  2  0  0  0  0
 34 29  1  0  0  0  0
 34 32  1  0  0  0  0
 35 36  1  6  0  0  0
 35 31  1  0  0  0  0
 37 35  1  0  0  0  0
 38 37  1  0  0  0  0
 39 38  1  0  0  0  0
 41 40  1  6  0  0  0
 42 41  1  0  0  0  0
 43 44  1  0  0  0  0
 43 42  1  0  0  0  0
 45 44  1  1  0  0  0
 45 48  1  0  0  0  0
 48 46  2  0  0  0  0
 48 49  1  0  0  0  0
 48 47  2  0  0  0  0
 50 53  1  0  0  0  0
 50 49  1  0  0  0  0
 51 53  1  0  0  0  0
 53 52  1  6  0  0  0
 54 45  1  0  0  0  0
 55 57  1  0  0  0  0
 55 58  1  0  0  0  0
 56 54  1  0  0  0  0
 57 59  1  0  0  0  0
 58 56  1  0  0  0  0
 59 56  1  0  0  0  0
M  END
>  <MODEL>
7

>  <REMARK>
 VINA RESULT:      -2.4      2.727     11.151
  Name = 
  20 active torsions:
  status: ('A' for Active; 'I' for Inactive)
    1  A    between atoms: O_1  and  C_7
    2  A    between atoms: O_1  and  C_29
    3  A    between atoms: N_4  and  C_5
    4  A    between atoms: N_4  and  C_38
    5  A    between atoms: C_5  and  C_46
    6  A    between atoms: C_6  and  N_48
    7  A    between atoms: C_6  and  C_52
    8  A    between atoms: C_7  and  C_39
    9  A    between atoms: C_10  and  C_15
   10  A    between atoms: C_10  and  O_17
   11  A    between atoms: C_10  and  S_51
   12  A    between atoms: N_11  and  C_22
   13  A    between atoms: C_14  and  O_17
   14  A    between atoms: C_15  and  C_24
   15  A    between atoms: C_18  and  N_42
   16  A    between atoms: C_24  and  C_31
   17  A    between atoms: C_31  and  C_54
   18  A    between atoms: C_33  and  C_34
   19  A    between atoms: C_36  and  C_54
   20  A    between atoms: N_48  and  S_51
                            x       y       z     vdW  Elec       q    Type
                         _______ _______ _______ _____ _____    ______ ____

>  <TORSDO>
F 20

$$$$
