=
 OpenBabel11052410373D

 25 27  0  0  1  0  0  0  0  0999 V2000
  163.2760  206.7090  151.2990 O   0  0  0  0  0  1  0  0  0  0  0  0
  161.9090  206.4510  151.4300 C   0  0  1  0  0  0  0  0  0  0  0  0
  161.2320  206.9380  150.1880 C   0  0  0  0  0  0  0  0  0  0  0  0
  160.7060  205.8430  149.4110 C   0  0  0  0  0  0  0  0  0  0  0  0
  161.6740  204.9140  151.3440 C   0  0  2  0  0  3  0  0  0  0  0  0
  161.1810  208.1460  149.8280 O   0  0  0  0  0  0  0  0  0  0  0  0
  160.9710  204.6950  150.0350 C   0  0  0  0  0  0  0  0  0  0  0  0
  160.8430  204.3210  152.4800 C   0  0  0  0  0  1  0  0  0  0  0  0
  160.7990  210.3550  154.6570 C   0  0  0  0  0  0  0  0  0  0  0  0
  161.9440  209.4540  151.8540 C   0  0  0  0  0  1  0  0  0  0  0  0
  161.4010  208.5190  152.8870 C   0  0  0  0  0  0  0  0  0  0  0  0
  160.9270  209.0280  154.0980 C   0  0  0  0  0  0  0  0  0  0  0  0
  160.2600  210.2400  155.9720 N   0  0  0  0  0  0  0  0  0  0  0  0
  160.0660  209.0050  156.2320 N   0  0  0  0  0  0  0  0  0  0  0  0
  160.4460  206.8440  154.9830 C   0  0  0  0  0  3  0  0  0  0  0  0
  160.9070  206.2910  153.7760 C   0  0  0  0  0  3  0  0  0  0  0  0
  161.3740  207.1060  152.7070 C   0  0  0  0  0  0  0  0  0  0  0  0
  160.4650  208.2270  155.1040 C   0  0  0  0  0  0  0  0  0  0  0  0
  161.1050  211.4440  154.1030 O   0  0  0  0  0  0  0  0  0  0  0  0
  160.0430  206.0330  148.1890 O   0  0  0  0  0  0  0  0  0  0  0  0
  160.6700  206.1260  146.9740 C   0  0  0  0  0  0  0  0  0  0  0  0
  161.2000  206.2000  145.9480 N   0  0  0  0  0  0  0  0  0  0  0  0
  160.6740  203.3240  149.5140 C   0  0  0  0  0  2  0  0  0  0  0  0
  161.4890  203.0510  148.2660 C   0  0  0  0  0  2  0  0  0  0  0  0
  160.8970  201.8720  147.5240 C   0  0  0  0  0  1  0  0  0  0  0  0
  2  1  1  6  0  0  0
  2 17  1  0  0  0  0
  3  2  1  0  0  0  0
  4  7  2  0  0  0  0
  4  3  1  0  0  0  0
  5  2  1  0  0  0  0
  5  8  1  1  0  0  0
  6  3  2  0  0  0  0
  7  5  1  0  0  0  0
  9 13  1  0  0  0  0
 10 11  1  0  0  0  0
 11 12  1  0  0  0  0
 12  9  1  0  0  0  0
 12 18  2  0  0  0  0
 13 14  2  0  0  0  0
 15 18  1  0  0  0  0
 16 15  2  0  0  0  0
 17 11  2  0  0  0  0
 17 16  1  0  0  0  0
 18 14  1  0  0  0  0
 19  9  2  0  0  0  0
 20  4  1  0  0  0  0
 21 20  1  0  0  0  0
 22 21  3  0  0  0  0
 23  7  1  0  0  0  0
 24 23  1  0  0  0  0
 25 24  1  0  0  0  0
M  END
>  <MODEL>
1

>  <REMARK>
 VINA RESULT:      -8.4      0.000      0.000
  Name = 
  5 active torsions:
  status: ('A' for Active; 'I' for Inactive)
    1  A    between atoms: O_1  and  C_4
    2  A    between atoms: O_1  and  C_12
    3  A    between atoms: C_6  and  C_9
    4  A    between atoms: C_9  and  C_20
    5  A    between atoms: C_10  and  C_22
                            x       y       z     vdW  Elec       q    Type
                         _______ _______ _______ _____ _____    ______ ____

>  <TORSDO>
F 5

$$$$
=
 OpenBabel11052410373D

 25 27  0  0  1  0  0  0  0  0999 V2000
  163.4020  206.4950  151.2000 O   0  0  0  0  0  1  0  0  0  0  0  0
  162.0300  206.6420  150.9820 C   0  0  1  0  0  0  0  0  0  0  0  0
  161.8400  207.1140  149.5750 C   0  0  0  0  0  0  0  0  0  0  0  0
  161.2050  206.1050  148.7630 C   0  0  0  0  0  0  0  0  0  0  0  0
  161.3710  205.2310  150.9420 C   0  0  2  0  0  3  0  0  0  0  0  0
  162.2390  208.2260  149.1340 O   0  0  0  0  0  0  0  0  0  0  0  0
  160.9600  205.0290  149.5100 C   0  0  0  0  0  0  0  0  0  0  0  0
  160.1590  205.0550  151.8540 C   0  0  0  0  0  1  0  0  0  0  0  0
  160.4730  208.1440  155.6950 C   0  0  0  0  0  0  0  0  0  0  0  0
  161.8260  205.9090  153.9180 C   0  0  0  0  0  1  0  0  0  0  0  0
  161.3460  207.2270  153.4000 C   0  0  0  0  0  0  0  0  0  0  0  0
  160.7540  208.1400  154.2760 C   0  0  0  0  0  0  0  0  0  0  0  0
  159.8150  209.3670  156.0200 N   0  0  0  0  0  0  0  0  0  0  0  0
  159.6840  210.0600  154.9560 N   0  0  0  0  0  0  0  0  0  0  0  0
  160.2880  209.7230  152.5270 C   0  0  0  0  0  3  0  0  0  0  0  0
  160.8820  208.8370  151.6140 C   0  0  0  0  0  3  0  0  0  0  0  0
  161.4330  207.5920  152.0250 C   0  0  0  0  0  0  0  0  0  0  0  0
  160.2480  209.3390  153.8610 C   0  0  0  0  0  0  0  0  0  0  0  0
  160.7490  207.2380  156.5250 O   0  0  0  0  0  0  0  0  0  0  0  0
  160.9350  206.2940  147.3990 O   0  0  0  0  0  0  0  0  0  0  0  0
  161.7960  205.9620  146.3860 C   0  0  0  0  0  0  0  0  0  0  0  0
  162.5240  205.6790  145.5320 N   0  0  0  0  0  0  0  0  0  0  0  0
  160.3960  203.7320  149.0240 C   0  0  0  0  0  2  0  0  0  0  0  0
  161.4730  202.9180  148.3340 C   0  0  0  0  0  2  0  0  0  0  0  0
  161.1490  201.4450  148.4560 C   0  0  0  0  0  1  0  0  0  0  0  0
  2  1  1  1  0  0  0
  2 17  1  0  0  0  0
  3  2  1  0  0  0  0
  4  7  2  0  0  0  0
  4  3  1  0  0  0  0
  5  2  1  0  0  0  0
  5  8  1  1  0  0  0
  6  3  2  0  0  0  0
  7  5  1  0  0  0  0
  9 13  1  0  0  0  0
  9 19  2  0  0  0  0
 11 10  1  0  0  0  0
 11 12  1  0  0  0  0
 12  9  1  0  0  0  0
 14 13  2  0  0  0  0
 15 18  1  0  0  0  0
 16 17  1  0  0  0  0
 16 15  2  0  0  0  0
 17 11  2  0  0  0  0
 18 12  2  0  0  0  0
 18 14  1  0  0  0  0
 20  4  1  0  0  0  0
 21 20  1  0  0  0  0
 22 21  3  0  0  0  0
 23  7  1  0  0  0  0
 24 25  1  0  0  0  0
 24 23  1  0  0  0  0
M  END
>  <MODEL>
2

>  <REMARK>
 VINA RESULT:      -7.9      1.374      1.947
  Name = 
  5 active torsions:
  status: ('A' for Active; 'I' for Inactive)
    1  A    between atoms: O_1  and  C_4
    2  A    between atoms: O_1  and  C_12
    3  A    between atoms: C_6  and  C_9
    4  A    between atoms: C_9  and  C_20
    5  A    between atoms: C_10  and  C_22
                            x       y       z     vdW  Elec       q    Type
                         _______ _______ _______ _____ _____    ______ ____

>  <TORSDO>
F 5

$$$$
=
 OpenBabel11052410373D

 25 27  0  0  1  0  0  0  0  0999 V2000
  163.1600  210.3180  152.9430 O   0  0  0  0  0  1  0  0  0  0  0  0
  161.9440  209.7410  152.5690 C   0  0  1  0  0  0  0  0  0  0  0  0
  161.9170  209.6640  151.0750 C   0  0  0  0  0  0  0  0  0  0  0  0
  161.9650  208.2960  150.6180 C   0  0  0  0  0  0  0  0  0  0  0  0
  161.9530  208.2370  152.9710 C   0  0  2  0  0  3  0  0  0  0  0  0
  161.9160  210.6630  150.3060 O   0  0  0  0  0  0  0  0  0  0  0  0
  162.0140  207.4820  151.6720 C   0  0  0  0  0  0  0  0  0  0  0  0
  160.7420  207.7740  153.7780 C   0  0  0  0  0  1  0  0  0  0  0  0
  159.3390  212.3540  156.2120 C   0  0  0  0  0  0  0  0  0  0  0  0
  161.9700  210.8000  155.4100 C   0  0  0  0  0  1  0  0  0  0  0  0
  160.8130  211.0360  154.4930 C   0  0  0  0  0  0  0  0  0  0  0  0
  159.6940  211.7300  154.9570 C   0  0  0  0  0  0  0  0  0  0  0  0
  158.0250  212.8940  156.0910 N   0  0  0  0  0  0  0  0  0  0  0  0
  157.5860  212.6520  154.9170 N   0  0  0  0  0  0  0  0  0  0  0  0
  158.4980  211.4550  152.8890 C   0  0  0  0  0  3  0  0  0  0  0  0
  159.6060  210.7570  152.3810 C   0  0  0  0  0  3  0  0  0  0  0  0
  160.7810  210.5480  153.1540 C   0  0  0  0  0  0  0  0  0  0  0  0
  158.5830  211.9360  154.1890 C   0  0  0  0  0  0  0  0  0  0  0  0
  160.0470  212.4230  157.2520 O   0  0  0  0  0  0  0  0  0  0  0  0
  161.9730  207.9540  149.2570 O   0  0  0  0  0  0  0  0  0  0  0  0
  161.0920  207.0810  148.6740 C   0  0  0  0  0  0  0  0  0  0  0  0
  160.3460  206.3470  148.1810 N   0  0  0  0  0  0  0  0  0  0  0  0
  162.1660  205.9950  151.6270 C   0  0  0  0  0  2  0  0  0  0  0  0
  160.8030  205.3300  151.6100 C   0  0  0  0  0  2  0  0  0  0  0  0
  160.9100  203.9760  150.9430 C   0  0  0  0  0  1  0  0  0  0  0  0
  2  1  1  1  0  0  0
  2  5  1  0  0  0  0
  2 17  1  0  0  0  0
  3  2  1  0  0  0  0
  4  3  1  0  0  0  0
  4  7  2  0  0  0  0
  5  8  1  6  0  0  0
  6  3  2  0  0  0  0
  7  5  1  0  0  0  0
  9 19  2  0  0  0  0
 11 12  1  0  0  0  0
 11 10  1  0  0  0  0
 12  9  1  0  0  0  0
 13  9  1  0  0  0  0
 14 13  2  0  0  0  0
 15 18  1  0  0  0  0
 16 15  2  0  0  0  0
 16 17  1  0  0  0  0
 17 11  2  0  0  0  0
 18 14  1  0  0  0  0
 18 12  2  0  0  0  0
 20  4  1  0  0  0  0
 21 20  1  0  0  0  0
 22 21  3  0  0  0  0
 23  7  1  0  0  0  0
 24 23  1  0  0  0  0
 25 24  1  0  0  0  0
M  END
>  <MODEL>
3

>  <REMARK>
 VINA RESULT:      -7.6      2.120      3.618
  Name = 
  5 active torsions:
  status: ('A' for Active; 'I' for Inactive)
    1  A    between atoms: O_1  and  C_4
    2  A    between atoms: O_1  and  C_12
    3  A    between atoms: C_6  and  C_9
    4  A    between atoms: C_9  and  C_20
    5  A    between atoms: C_10  and  C_22
                            x       y       z     vdW  Elec       q    Type
                         _______ _______ _______ _____ _____    ______ ____

>  <TORSDO>
F 5

$$$$
=
 OpenBabel11052410373D

 25 27  0  0  1  0  0  0  0  0999 V2000
  163.4780  206.0670  151.6020 O   0  0  0  0  0  1  0  0  0  0  0  0
  162.0860  206.0700  151.4870 C   0  0  1  0  0  0  0  0  0  0  0  0
  161.5140  206.0050  152.8670 C   0  0  0  0  0  0  0  0  0  0  0  0
  160.8420  207.2330  153.2170 C   0  0  0  0  0  0  0  0  0  0  0  0
  161.6230  207.4790  151.0100 C   0  0  2  0  0  3  0  0  0  0  0  0
  161.6530  205.0290  153.6540 O   0  0  0  0  0  0  0  0  0  0  0  0
  160.9180  208.0830  152.1930 C   0  0  0  0  0  0  0  0  0  0  0  0
  160.6910  207.4800  149.8010 C   0  0  0  0  0  1  0  0  0  0  0  0
  161.4510  203.4840  147.0370 C   0  0  0  0  0  0  0  0  0  0  0  0
  162.6170  206.0290  148.5010 C   0  0  0  0  0  1  0  0  0  0  0  0
  161.8920  204.9160  149.1870 C   0  0  0  0  0  0  0  0  0  0  0  0
  161.4110  203.8400  148.4380 C   0  0  0  0  0  0  0  0  0  0  0  0
  160.7490  202.2550  146.8650 N   0  0  0  0  0  0  0  0  0  0  0  0
  160.3110  201.8670  147.9990 N   0  0  0  0  0  0  0  0  0  0  0  0
  160.3980  202.7890  150.3490 C   0  0  0  0  0  3  0  0  0  0  0  0
  160.8700  203.8490  151.1400 C   0  0  0  0  0  3  0  0  0  0  0  0
  161.6330  204.9150  150.5890 C   0  0  0  0  0  0  0  0  0  0  0  0
  160.6960  202.8160  148.9930 C   0  0  0  0  0  0  0  0  0  0  0  0
  162.0010  204.1290  146.1060 O   0  0  0  0  0  0  0  0  0  0  0  0
  160.2380  207.4340  154.4680 O   0  0  0  0  0  0  0  0  0  0  0  0
  160.8940  207.8960  155.5780 C   0  0  0  0  0  0  0  0  0  0  0  0
  161.4490  208.2890  156.5150 N   0  0  0  0  0  0  0  0  0  0  0  0
  160.4270  209.4950  152.1850 C   0  0  0  0  0  2  0  0  0  0  0  0
  161.4590  210.4120  152.8130 C   0  0  0  0  0  2  0  0  0  0  0  0
  160.8140  211.2150  153.9210 C   0  0  0  0  0  1  0  0  0  0  0  0
  2  1  1  1  0  0  0
  2  3  1  0  0  0  0
  3  4  1  0  0  0  0
  3  6  2  0  0  0  0
  4 20  1  0  0  0  0
  5  8  1  6  0  0  0
  5  2  1  0  0  0  0
  5  7  1  0  0  0  0
  7  4  2  0  0  0  0
  9 12  1  0  0  0  0
 10 11  1  0  0  0  0
 11 17  1  0  0  0  0
 12 18  1  0  0  0  0
 12 11  2  0  0  0  0
 13  9  1  0  0  0  0
 13 14  2  0  0  0  0
 14 18  1  0  0  0  0
 15 16  1  0  0  0  0
 17 16  2  0  0  0  0
 17  2  1  0  0  0  0
 18 15  2  0  0  0  0
 19  9  2  0  0  0  0
 20 21  1  0  0  0  0
 21 22  3  0  0  0  0
 23  7  1  0  0  0  0
 23 24  1  0  0  0  0
 24 25  1  0  0  0  0
M  END
>  <MODEL>
4

>  <REMARK>
 VINA RESULT:      -7.3      2.066      7.208
  Name = 
  5 active torsions:
  status: ('A' for Active; 'I' for Inactive)
    1  A    between atoms: O_1  and  C_4
    2  A    between atoms: O_1  and  C_12
    3  A    between atoms: C_6  and  C_9
    4  A    between atoms: C_9  and  C_20
    5  A    between atoms: C_10  and  C_22
                            x       y       z     vdW  Elec       q    Type
                         _______ _______ _______ _____ _____    ______ ____

>  <TORSDO>
F 5

$$$$
=
 OpenBabel11052410373D

 25 27  0  0  1  0  0  0  0  0999 V2000
  163.4530  205.8280  152.0110 O   0  0  0  0  0  1  0  0  0  0  0  0
  162.1690  206.2030  151.6070 C   0  0  1  0  0  0  0  0  0  0  0  0
  161.2760  206.1280  152.8050 C   0  0  0  0  0  0  0  0  0  0  0  0
  160.8290  207.4380  153.2110 C   0  0  0  0  0  0  0  0  0  0  0  0
  162.1640  207.7290  151.2940 C   0  0  2  0  0  3  0  0  0  0  0  0
  160.9950  205.0640  153.4230 O   0  0  0  0  0  0  0  0  0  0  0  0
  161.3430  208.3520  152.3880 C   0  0  0  0  0  0  0  0  0  0  0  0
  161.5820  208.1090  149.9350 C   0  0  0  0  0  1  0  0  0  0  0  0
  160.7540  201.7900  149.2810 C   0  0  0  0  0  0  0  0  0  0  0  0
  161.6290  203.2380  151.9490 C   0  0  0  0  0  1  0  0  0  0  0  0
  161.4590  203.9220  150.6310 C   0  0  0  0  0  0  0  0  0  0  0  0
  161.0750  203.1810  149.5120 C   0  0  0  0  0  0  0  0  0  0  0  0
  160.4550  201.6200  147.8970 N   0  0  0  0  0  0  0  0  0  0  0  0
  160.5690  202.7470  147.3090 N   0  0  0  0  0  0  0  0  0  0  0  0
  161.2070  205.0780  148.0400 C   0  0  0  0  0  3  0  0  0  0  0  0
  161.5890  205.8630  149.1410 C   0  0  0  0  0  3  0  0  0  0  0  0
  161.7060  205.3150  150.4490 C   0  0  0  0  0  0  0  0  0  0  0  0
  160.9500  203.7330  148.2680 C   0  0  0  0  0  0  0  0  0  0  0  0
  160.7350  200.8650  150.1350 O   0  0  0  0  0  0  0  0  0  0  0  0
  159.9960  207.6410  154.3220 O   0  0  0  0  0  0  0  0  0  0  0  0
  160.3990  207.5080  155.6250 C   0  0  0  0  0  0  0  0  0  0  0  0
  160.7360  207.3990  156.7270 N   0  0  0  0  0  0  0  0  0  0  0  0
  161.1960  209.8340  152.5210 C   0  0  0  0  0  2  0  0  0  0  0  0
  161.9560  210.3280  153.7360 C   0  0  0  0  0  2  0  0  0  0  0  0
  161.0120  211.0770  154.6520 C   0  0  0  0  0  1  0  0  0  0  0  0
  2  1  1  1  0  0  0
  2  3  1  0  0  0  0
  3  4  1  0  0  0  0
  3  6  2  0  0  0  0
  4 20  1  0  0  0  0
  5  8  1  6  0  0  0
  5  2  1  0  0  0  0
  5  7  1  0  0  0  0
  7 23  1  0  0  0  0
  7  4  2  0  0  0  0
  9 12  1  0  0  0  0
  9 19  2  0  0  0  0
 11 10  1  0  0  0  0
 12 11  2  0  0  0  0
 13  9  1  0  0  0  0
 14 13  2  0  0  0  0
 14 18  1  0  0  0  0
 15 18  2  0  0  0  0
 15 16  1  0  0  0  0
 16 17  2  0  0  0  0
 17 11  1  0  0  0  0
 17  2  1  0  0  0  0
 18 12  1  0  0  0  0
 20 21  1  0  0  0  0
 21 22  3  0  0  0  0
 23 24  1  0  0  0  0
 24 25  1  0  0  0  0
M  END
>  <MODEL>
5

>  <REMARK>
 VINA RESULT:      -7.2      2.229      7.378
  Name = 
  5 active torsions:
  status: ('A' for Active; 'I' for Inactive)
    1  A    between atoms: O_1  and  C_4
    2  A    between atoms: O_1  and  C_12
    3  A    between atoms: C_6  and  C_9
    4  A    between atoms: C_9  and  C_20
    5  A    between atoms: C_10  and  C_22
                            x       y       z     vdW  Elec       q    Type
                         _______ _______ _______ _____ _____    ______ ____

>  <TORSDO>
F 5

$$$$
=
 OpenBabel11052410373D

 25 27  0  0  1  0  0  0  0  0999 V2000
  163.2320  206.2040  151.7690 O   0  0  0  0  0  1  0  0  0  0  0  0
  162.2050  206.6680  150.9430 C   0  0  1  0  0  0  0  0  0  0  0  0
  161.1400  207.2450  151.8210 C   0  0  0  0  0  0  0  0  0  0  0  0
  161.0400  208.6740  151.6580 C   0  0  0  0  0  0  0  0  0  0  0  0
  162.7060  207.9260  150.1730 C   0  0  2  0  0  3  0  0  0  0  0  0
  160.4560  206.5800  152.6470 O   0  0  0  0  0  0  0  0  0  0  0  0
  161.9330  209.0770  150.7550 C   0  0  0  0  0  0  0  0  0  0  0  0
  162.5020  207.8830  148.6600 C   0  0  0  0  0  1  0  0  0  0  0  0
  160.6730  201.8490  149.7970 C   0  0  0  0  0  0  0  0  0  0  0  0
  161.6300  203.8880  152.0110 C   0  0  0  0  0  1  0  0  0  0  0  0
  161.4390  204.2320  150.5690 C   0  0  0  0  0  0  0  0  0  0  0  0
  161.0190  203.2480  149.6730 C   0  0  0  0  0  0  0  0  0  0  0  0
  160.3400  201.3510  148.5030 N   0  0  0  0  0  0  0  0  0  0  0  0
  160.4570  202.2970  147.6550 N   0  0  0  0  0  0  0  0  0  0  0  0
  161.1450  204.7240  147.7790 C   0  0  0  0  0  3  0  0  0  0  0  0
  161.5630  205.7460  148.6470 C   0  0  0  0  0  3  0  0  0  0  0  0
  161.7020  205.5330  150.0470 C   0  0  0  0  0  0  0  0  0  0  0  0
  160.8740  203.4800  148.3350 C   0  0  0  0  0  0  0  0  0  0  0  0
  160.6610  201.1610  150.8520 O   0  0  0  0  0  0  0  0  0  0  0  0
  160.1290  209.4560  152.3860 O   0  0  0  0  0  0  0  0  0  0  0  0
  160.4670  210.2450  153.4540 C   0  0  0  0  0  0  0  0  0  0  0  0
  160.7500  210.9090  154.3590 N   0  0  0  0  0  0  0  0  0  0  0  0
  162.2130  210.4940  150.3670 C   0  0  0  0  0  2  0  0  0  0  0  0
  161.9310  210.6990  148.8920 C   0  0  0  0  0  2  0  0  0  0  0  0
  162.3360  212.1010  148.4900 C   0  0  0  0  0  1  0  0  0  0  0  0
  2  1  1  1  0  0  0
  2  3  1  0  0  0  0
  3  6  2  0  0  0  0
  4  3  1  0  0  0  0
  4 20  1  0  0  0  0
  5  8  1  6  0  0  0
  5  7  1  0  0  0  0
  5  2  1  0  0  0  0
  7  4  2  0  0  0  0
  9 19  2  0  0  0  0
 11 10  1  0  0  0  0
 12  9  1  0  0  0  0
 12 11  2  0  0  0  0
 13  9  1  0  0  0  0
 14 18  1  0  0  0  0
 14 13  2  0  0  0  0
 15 18  2  0  0  0  0
 15 16  1  0  0  0  0
 16 17  2  0  0  0  0
 17 11  1  0  0  0  0
 17  2  1  0  0  0  0
 18 12  1  0  0  0  0
 20 21  1  0  0  0  0
 21 22  3  0  0  0  0
 23  7  1  0  0  0  0
 24 23  1  0  0  0  0
 25 24  1  0  0  0  0
M  END
>  <MODEL>
6

>  <REMARK>
 VINA RESULT:      -7.2      2.514      7.010
  Name = 
  5 active torsions:
  status: ('A' for Active; 'I' for Inactive)
    1  A    between atoms: O_1  and  C_4
    2  A    between atoms: O_1  and  C_12
    3  A    between atoms: C_6  and  C_9
    4  A    between atoms: C_9  and  C_20
    5  A    between atoms: C_10  and  C_22
                            x       y       z     vdW  Elec       q    Type
                         _______ _______ _______ _____ _____    ______ ____

>  <TORSDO>
F 5

$$$$
=
 OpenBabel11052410373D

 25 27  0  0  1  0  0  0  0  0999 V2000
  163.2400  207.6160  151.1080 O   0  0  0  0  0  1  0  0  0  0  0  0
  161.9880  207.1140  151.4720 C   0  0  1  0  0  0  0  0  0  0  0  0
  161.2680  206.7310  150.2180 C   0  0  0  0  0  0  0  0  0  0  0  0
  161.0950  205.3020  150.1270 C   0  0  0  0  0  0  0  0  0  0  0  0
  162.1800  205.7350  152.1700 C   0  0  2  0  0  3  0  0  0  0  0  0
  160.9110  207.5430  149.3210 O   0  0  0  0  0  0  0  0  0  0  0  0
  161.6280  204.7250  151.2040 C   0  0  0  0  0  0  0  0  0  0  0  0
  161.4830  205.5900  153.5210 C   0  0  0  0  0  1  0  0  0  0  0  0
  160.1370  211.8050  152.6810 C   0  0  0  0  0  0  0  0  0  0  0  0
  161.7190  210.0110  150.6170 C   0  0  0  0  0  1  0  0  0  0  0  0
  161.1210  209.5080  151.8910 C   0  0  0  0  0  0  0  0  0  0  0  0
  160.4470  210.3930  152.7350 C   0  0  0  0  0  0  0  0  0  0  0  0
  159.4360  212.1580  153.8720 N   0  0  0  0  0  0  0  0  0  0  0  0
  159.3110  211.1180  154.6000 N   0  0  0  0  0  0  0  0  0  0  0  0
  160.0320  208.7060  154.3970 C   0  0  0  0  0  3  0  0  0  0  0  0
  160.6960  207.7810  153.5750 C   0  0  0  0  0  3  0  0  0  0  0  0
  161.2340  208.1510  152.3110 C   0  0  0  0  0  0  0  0  0  0  0  0
  159.9210  210.0110  153.9370 C   0  0  0  0  0  0  0  0  0  0  0  0
  160.4250  212.6100  151.7560 O   0  0  0  0  0  0  0  0  0  0  0  0
  160.4670  204.6850  149.0340 O   0  0  0  0  0  0  0  0  0  0  0  0
  161.1160  204.2750  147.8990 C   0  0  0  0  0  0  0  0  0  0  0  0
  161.6650  203.9260  146.9410 N   0  0  0  0  0  0  0  0  0  0  0  0
  161.7370  203.2530  151.4480 C   0  0  0  0  0  2  0  0  0  0  0  0
  160.4720  202.5520  150.9940 C   0  0  0  0  0  2  0  0  0  0  0  0
  160.8350  201.3640  150.1300 C   0  0  0  0  0  1  0  0  0  0  0  0
  2  1  1  6  0  0  0
  2  5  1  0  0  0  0
  2 17  1  0  0  0  0
  3  2  1  0  0  0  0
  4  3  1  0  0  0  0
  4  7  2  0  0  0  0
  5  8  1  1  0  0  0
  6  3  2  0  0  0  0
  7 23  1  0  0  0  0
  7  5  1  0  0  0  0
  9 12  1  0  0  0  0
  9 13  1  0  0  0  0
 10 11  1  0  0  0  0
 11 17  2  0  0  0  0
 11 12  1  0  0  0  0
 12 18  2  0  0  0  0
 13 14  2  0  0  0  0
 16 15  2  0  0  0  0
 17 16  1  0  0  0  0
 18 15  1  0  0  0  0
 18 14  1  0  0  0  0
 19  9  2  0  0  0  0
 20  4  1  0  0  0  0
 21 20  1  0  0  0  0
 22 21  3  0  0  0  0
 24 23  1  0  0  0  0
 25 24  1  0  0  0  0
M  END
>  <MODEL>
7

>  <REMARK>
 VINA RESULT:      -7.0      1.576      1.942
  Name = 
  5 active torsions:
  status: ('A' for Active; 'I' for Inactive)
    1  A    between atoms: O_1  and  C_4
    2  A    between atoms: O_1  and  C_12
    3  A    between atoms: C_6  and  C_9
    4  A    between atoms: C_9  and  C_20
    5  A    between atoms: C_10  and  C_22
                            x       y       z     vdW  Elec       q    Type
                         _______ _______ _______ _____ _____    ______ ____

>  <TORSDO>
F 5

$$$$
=
 OpenBabel11052410373D

 25 27  0  0  1  0  0  0  0  0999 V2000
  159.4470  206.0970  148.7400 O   0  0  0  0  0  1  0  0  0  0  0  0
  160.6380  205.5280  149.1980 C   0  0  1  0  0  0  0  0  0  0  0  0
  160.5650  204.0550  148.9480 C   0  0  0  0  0  0  0  0  0  0  0  0
  161.5120  203.6450  147.9410 C   0  0  0  0  0  0  0  0  0  0  0  0
  161.7990  205.9600  148.2530 C   0  0  2  0  0  3  0  0  0  0  0  0
  159.7400  203.2770  149.4990 O   0  0  0  0  0  0  0  0  0  0  0  0
  162.1950  204.7090  147.5200 C   0  0  0  0  0  0  0  0  0  0  0  0
  163.0190  206.5520  148.9550 C   0  0  0  0  0  1  0  0  0  0  0  0
  161.3390  208.6550  153.2750 C   0  0  0  0  0  0  0  0  0  0  0  0
  160.8310  208.3960  150.1680 C   0  0  0  0  0  1  0  0  0  0  0  0
  160.9430  207.2380  151.1070 C   0  0  0  0  0  0  0  0  0  0  0  0
  161.1770  207.4680  152.4640 C   0  0  0  0  0  0  0  0  0  0  0  0
  161.5870  208.2500  154.6200 N   0  0  0  0  0  0  0  0  0  0  0  0
  161.5870  206.9750  154.6730 N   0  0  0  0  0  0  0  0  0  0  0  0
  161.2880  205.1230  152.9830 C   0  0  0  0  0  3  0  0  0  0  0  0
  161.0470  204.8460  151.6270 C   0  0  0  0  0  3  0  0  0  0  0  0
  160.8540  205.8830  150.6720 C   0  0  0  0  0  0  0  0  0  0  0  0
  161.3400  206.4560  153.3670 C   0  0  0  0  0  0  0  0  0  0  0  0
  161.2800  209.8520  152.8880 O   0  0  0  0  0  0  0  0  0  0  0  0
  161.6280  202.3140  147.5100 O   0  0  0  0  0  0  0  0  0  0  0  0
  160.9380  201.7800  146.4530 C   0  0  0  0  0  0  0  0  0  0  0  0
  160.3530  201.3320  145.5600 N   0  0  0  0  0  0  0  0  0  0  0  0
  163.2050  204.7240  146.4170 C   0  0  0  0  0  2  0  0  0  0  0  0
  162.7080  205.5710  145.2620 C   0  0  0  0  0  2  0  0  0  0  0  0
  161.4760  204.9310  144.6600 C   0  0  0  0  0  1  0  0  0  0  0  0
  2  1  1  6  0  0  0
  2 17  1  0  0  0  0
  3  2  1  0  0  0  0
  3  6  2  0  0  0  0
  4  3  1  0  0  0  0
  5  8  1  1  0  0  0
  5  2  1  0  0  0  0
  7  4  2  0  0  0  0
  7  5  1  0  0  0  0
  9 13  1  0  0  0  0
 10 11  1  0  0  0  0
 11 12  1  0  0  0  0
 12  9  1  0  0  0  0
 12 18  2  0  0  0  0
 13 14  2  0  0  0  0
 15 18  1  0  0  0  0
 16 15  2  0  0  0  0
 17 11  2  0  0  0  0
 17 16  1  0  0  0  0
 18 14  1  0  0  0  0
 19  9  2  0  0  0  0
 20  4  1  0  0  0  0
 21 20  1  0  0  0  0
 22 21  3  0  0  0  0
 23  7  1  0  0  0  0
 24 23  1  0  0  0  0
 25 24  1  0  0  0  0
M  END
>  <MODEL>
8

>  <REMARK>
 VINA RESULT:      -6.7      2.139      3.435
  Name = 
  5 active torsions:
  status: ('A' for Active; 'I' for Inactive)
    1  A    between atoms: O_1  and  C_4
    2  A    between atoms: O_1  and  C_12
    3  A    between atoms: C_6  and  C_9
    4  A    between atoms: C_9  and  C_20
    5  A    between atoms: C_10  and  C_22
                            x       y       z     vdW  Elec       q    Type
                         _______ _______ _______ _____ _____    ______ ____

>  <TORSDO>
F 5

$$$$
=
 OpenBabel11052410373D

 25 27  0  0  1  0  0  0  0  0999 V2000
  159.2580  205.6170  149.8310 O   0  0  0  0  0  1  0  0  0  0  0  0
  160.4850  205.1280  150.2880 C   0  0  1  0  0  0  0  0  0  0  0  0
  161.5210  206.1730  150.0210 C   0  0  0  0  0  0  0  0  0  0  0  0
  162.0240  206.7410  151.2470 C   0  0  0  0  0  0  0  0  0  0  0  0
  160.4620  205.0850  151.8450 C   0  0  2  0  0  3  0  0  0  0  0  0
  161.8680  206.5580  148.8710 O   0  0  0  0  0  0  0  0  0  0  0  0
  161.4180  206.1590  152.2820 C   0  0  0  0  0  0  0  0  0  0  0  0
  160.8720  203.7490  152.4620 C   0  0  0  0  0  1  0  0  0  0  0  0
  161.2040  201.8450  146.3390 C   0  0  0  0  0  0  0  0  0  0  0  0
  160.5980  204.8000  147.2750 C   0  0  0  0  0  1  0  0  0  0  0  0
  160.8400  203.6520  148.2010 C   0  0  0  0  0  0  0  0  0  0  0  0
  161.0920  202.3830  147.6770 C   0  0  0  0  0  0  0  0  0  0  0  0
  161.4490  200.4430  146.4370 N   0  0  0  0  0  0  0  0  0  0  0  0
  161.4880  200.1160  147.6700 N   0  0  0  0  0  0  0  0  0  0  0  0
  161.2060  201.3590  149.8500 C   0  0  0  0  0  3  0  0  0  0  0  0
  160.9620  202.6200  150.4190 C   0  0  0  0  0  3  0  0  0  0  0  0
  160.7930  203.7840  149.6200 C   0  0  0  0  0  0  0  0  0  0  0  0
  161.2710  201.2810  148.4650 C   0  0  0  0  0  0  0  0  0  0  0  0
  161.1060  202.4790  145.2560 O   0  0  0  0  0  0  0  0  0  0  0  0
  162.9910  207.7580  151.2680 O   0  0  0  0  0  0  0  0  0  0  0  0
  162.7040  209.0980  151.2610 C   0  0  0  0  0  0  0  0  0  0  0  0
  162.4660  210.2310  151.2530 N   0  0  0  0  0  0  0  0  0  0  0  0
  161.5910  206.5270  153.7210 C   0  0  0  0  0  2  0  0  0  0  0  0
  160.6290  207.6360  154.0970 C   0  0  0  0  0  2  0  0  0  0  0  0
  160.0920  207.3880  155.4900 C   0  0  0  0  0  1  0  0  0  0  0  0
  2  1  1  6  0  0  0
  2  5  1  0  0  0  0
  3  2  1  0  0  0  0
  3  4  1  0  0  0  0
  4 20  1  0  0  0  0
  4  7  2  0  0  0  0
  5  7  1  0  0  0  0
  5  8  1  6  0  0  0
  6  3  2  0  0  0  0
  7 23  1  0  0  0  0
  9 13  1  0  0  0  0
  9 12  1  0  0  0  0
 10 11  1  0  0  0  0
 11 17  1  0  0  0  0
 12 11  2  0  0  0  0
 12 18  1  0  0  0  0
 13 14  2  0  0  0  0
 14 18  1  0  0  0  0
 15 16  1  0  0  0  0
 17  2  1  0  0  0  0
 17 16  2  0  0  0  0
 18 15  2  0  0  0  0
 19  9  2  0  0  0  0
 21 20  1  0  0  0  0
 22 21  3  0  0  0  0
 23 24  1  0  0  0  0
 24 25  1  0  0  0  0
M  END
>  <MODEL>
9

>  <REMARK>
 VINA RESULT:      -6.2      2.458      7.312
  Name = 
  5 active torsions:
  status: ('A' for Active; 'I' for Inactive)
    1  A    between atoms: O_1  and  C_4
    2  A    between atoms: O_1  and  C_12
    3  A    between atoms: C_6  and  C_9
    4  A    between atoms: C_9  and  C_20
    5  A    between atoms: C_10  and  C_22
                            x       y       z     vdW  Elec       q    Type
                         _______ _______ _______ _____ _____    ______ ____

>  <TORSDO>
F 5

$$$$
