=
 OpenBabel11052410113D

 48 54  0  0  1  0  0  0  0  0999 V2000
  161.4030  212.2420  149.0310 C   0  0  2  0  0  0  0  0  0  0  0  0
  161.6990  209.4750  152.6920 C   0  0  2  0  0  3  0  0  0  0  0  0
  161.8240  210.8700  149.4390 N   0  0  0  0  0  0  0  0  0  0  0  0
  161.4120  209.7200  150.1720 C   0  0  0  0  0  0  0  0  0  0  0  0
  160.9220  209.3270  153.9230 N   0  0  0  0  0  2  0  0  0  0  0  0
  161.2410  208.3020  149.3740 S   0  0  0  0  0  0  0  0  0  0  0  0
  160.7720  209.9050  151.5340 C   0  0  2  0  0  3  0  0  0  0  0  0
  159.6200  211.8630  150.6300 O   0  0  0  0  0  0  0  0  0  0  0  0
  160.3510  211.3870  151.7280 C   0  0  1  0  0  3  0  0  0  0  0  0
  159.6010  213.7170  149.2740 O   0  0  0  0  0  0  0  0  0  0  0  0
  162.7200  212.0730  149.3970 C   0  0  1  0  0  3  0  0  0  0  0  0
  161.0700  210.4840  154.8080 C   0  0  1  0  0  3  0  0  0  0  0  0
  159.6210  211.7060  153.0320 C   0  0  2  0  0  3  0  0  0  0  0  0
  160.4240  212.8550  150.0370 C   0  0  2  0  0  3  0  0  0  0  0  0
  160.0380  212.7190  155.2720 C   0  0  0  0  0  1  0  0  0  0  0  0
  158.9880  214.3300  147.1080 N   0  0  0  0  0  0  0  0  0  0  0  0
  162.4860  210.5850  155.3520 C   0  0  0  0  0  1  0  0  0  0  0  0
  160.6120  211.8180  154.1900 C   0  0  1  0  0  3  0  0  0  0  0  0
  159.6860  213.5710  147.8940 C   0  0  0  0  0  0  0  0  0  0  0  0
  160.8270  212.3180  147.3020 S   0  0  0  0  0  0  0  0  0  0  0  0
  158.5880  210.8000  153.2940 O   0  0  0  0  0  1  0  0  0  0  0  0
  163.6960  211.9340  148.2390 C   0  0  0  0  0  2  0  0  0  0  0  0
  164.0070  213.1980  147.7350 O   0  0  0  0  0  1  0  0  0  0  0  0
  157.7740  213.5820  145.1430 C   0  0  0  0  0  1  0  0  0  0  0  0
  159.0400  214.2570  145.6520 C   0  0  2  0  0  3  0  0  0  0  0  0
  162.2770  212.8490  143.1210 C   0  0  0  0  0  2  0  0  0  0  0  0
  160.5130  211.3260  142.0130 C   0  0  0  0  0  1  0  0  0  0  0  0
  162.6290  213.5640  144.4240 C   0  0  2  0  0  3  0  0  0  0  0  0
  159.9770  212.5640  144.0420 C   0  0  0  0  0  3  0  0  0  0  0  0
  161.4460  214.4060  144.8900 C   0  0  0  0  0  2  0  0  0  0  0  0
  163.8350  214.4530  144.2040 C   0  0  0  0  0  1  0  0  0  0  0  0
  160.2790  213.4720  145.2140 C   0  0  1  0  0  3  0  0  0  0  0  0
  160.9110  212.2050  143.1450 C   0  0  0  0  0  0  0  0  0  0  0  0
  162.5040  208.1910  152.4270 C   0  0  0  0  0  2  0  0  0  0  0  0
  161.6910  206.9130  152.6290 C   0  0  0  0  0  2  0  0  0  0  0  0
  162.3030  205.7570  151.8460 C   0  0  0  0  0  2  0  0  0  0  0  0
  160.5540  204.4230  152.7270 O   0  0  0  0  0  0  0  0  0  0  0  0
  161.4510  204.5290  151.9020 C   0  0  0  0  0  0  0  0  0  0  0  0
  161.6630  203.4550  150.8880 C   0  0  0  0  0  2  0  0  0  0  0  0
  161.1870  202.5400  147.6940 N   0  0  0  0  0  0  0  0  0  0  0  0
  160.9120  201.7490  146.4980 C   0  0  0  0  0  1  0  0  0  0  0  0
  162.5820  204.5520  147.2290 C   0  0  0  0  0  2  0  0  0  0  0  0
  161.2800  203.9830  147.7370 C   0  0  0  0  0  0  0  0  0  0  0  0
  161.2800  204.7970  146.4630 C   0  0  0  0  0  2  0  0  0  0  0  0
  160.6830  202.2430  148.9720 C   0  0  0  0  0  0  0  0  0  0  0  0
  160.5810  203.4630  149.8140 C   0  0  2  0  0  3  0  0  0  0  0  0
  160.8160  204.5590  148.9410 O   0  0  0  0  0  0  0  0  0  0  0  0
  160.3270  201.0870  149.3330 O   0  0  0  0  0  0  0  0  0  0  0  0
  1 20  1  6  0  0  0
  1 11  1  0  0  0  0
  1  3  1  0  0  0  0
  1 14  1  0  0  0  0
  2 34  1  6  0  0  0
  2  5  1  0  0  0  0
  3  4  1  0  0  0  0
  5 12  1  0  0  0  0
  6  4  2  0  0  0  0
  7  4  1  6  0  0  0
  7  9  1  0  0  0  0
  7  2  1  0  0  0  0
  9  8  1  6  0  0  0
  9 13  1  0  0  0  0
 11 22  1  6  0  0  0
 11  3  1  0  0  0  0
 12 17  1  6  0  0  0
 13 21  1  1  0  0  0
 13 18  1  0  0  0  0
 14 10  1  6  0  0  0
 14  8  1  0  0  0  0
 16 19  2  0  0  0  0
 18 12  1  0  0  0  0
 18 15  1  1  0  0  0
 19 10  1  0  0  0  0
 20 19  1  0  0  0  0
 23 22  1  0  0  0  0
 25 24  1  1  0  0  0
 25 16  1  0  0  0  0
 26 33  1  0  0  0  0
 26 28  1  0  0  0  0
 27 33  1  0  0  0  0
 28 31  1  6  0  0  0
 28 30  1  0  0  0  0
 29 32  1  0  0  0  0
 30 32  1  0  0  0  0
 32 25  1  6  0  0  0
 33 29  2  0  0  0  0
 34 35  1  0  0  0  0
 36 38  1  0  0  0  0
 36 35  1  0  0  0  0
 38 37  2  0  0  0  0
 39 38  1  0  0  0  0
 40 43  1  0  0  0  0
 40 45  1  0  0  0  0
 41 40  1  0  0  0  0
 42 43  1  0  0  0  0
 43 47  1  0  0  0  0
 44 42  1  0  0  0  0
 44 43  1  0  0  0  0
 45 48  2  0  0  0  0
 45 46  1  0  0  0  0
 46 39  1  1  0  0  0
 47 46  1  0  0  0  0
M  END
>  <MODEL>
1

>  <REMARK>
 VINA RESULT:      -4.9      0.000      0.000
  Name = 
  9 active torsions:
  status: ('A' for Active; 'I' for Inactive)
    1  A    between atoms: C_2  and  C_8
    2  A    between atoms: C_2  and  C_10
    3  A    between atoms: C_3  and  C_10
    4  A    between atoms: C_3  and  C_32
    5  A    between atoms: C_4  and  C_24
    6  A    between atoms: C_14  and  C_32
    7  A    between atoms: C_14  and  C_34
    8  A    between atoms: C_27  and  N_40
    9  A    between atoms: C_27  and  C_47
                            x       y       z     vdW  Elec       q    Type
                         _______ _______ _______ _____ _____    ______ ____

>  <TORSDO>
F 9

$$$$
