=
 OpenBabel11052411283D

 57 60  0  0  1  0  0  0  0  0999 V2000
  160.9310  206.3790  153.3480 C   0  0  0  0  0  2  0  0  0  0  0  0
  161.3930  208.7830  153.1520 C   0  0  2  0  0  3  0  0  0  0  0  0
  161.4450  206.4640  149.5880 O   0  0  0  0  0  0  0  0  0  0  0  0
  162.2980  208.2000  148.2520 C   0  0  0  0  0  2  0  0  0  0  0  0
  161.7570  208.7890  150.5890 C   0  0  1  0  0  3  0  0  0  0  0  0
  161.4700  206.7370  151.9830 C   0  0  1  0  0  3  0  0  0  0  0  0
  160.9080  205.9450  150.8100 C   0  0  2  0  0  3  0  0  0  0  0  0
  161.0600  208.1700  151.8110 C   0  0  1  0  0  3  0  0  0  0  0  0
  161.8110  207.8100  149.4210 C   0  0  0  0  0  0  0  0  0  0  0  0
  161.0870  207.6640  154.1550 C   0  0  0  0  0  2  0  0  0  0  0  0
  162.2700  204.1410  151.5710 O   0  0  0  0  0  0  0  0  0  0  0  0
  160.4170  203.5110  150.2990 N   0  0  0  0  0  2  0  0  0  0  0  0
  161.2450  204.4930  150.9280 C   0  0  0  0  0  0  0  0  0  0  0  0
  160.7080  202.1900  150.3770 O   0  0  0  0  0  0  0  0  0  0  0  0
  159.8780  201.5840  149.4300 C   0  0  0  0  0  2  0  0  0  0  0  0
  161.8330  200.4440  148.4430 C   0  0  0  0  0  1  0  0  0  0  0  0
  160.6460  201.3330  148.1420 C   0  0  2  0  0  3  0  0  0  0  0  0
  161.1500  202.6410  147.5460 C   0  0  0  0  0  2  0  0  0  0  0  0
  160.3510  201.7810  145.4690 O   0  0  0  0  0  0  0  0  0  0  0  0
  161.0950  202.6150  146.0520 C   0  0  0  0  0  0  0  0  0  0  0  0
  161.8710  203.5280  145.2730 N   0  0  0  0  0  2  0  0  0  0  0  0
  162.0610  205.6690  145.6620 C   0  0  0  0  0  1  0  0  0  0  0  0
  162.6960  204.4340  145.8510 O   0  0  0  0  0  0  0  0  0  0  0  0
  160.5810  209.8970  153.3980 O   0  0  0  0  0  0  0  0  0  0  0  0
  160.6640  210.1150  154.7810 C   0  0  2  0  0  3  0  0  0  0  0  0
  159.8570  209.4090  156.7230 C   0  0  0  0  0  1  0  0  0  0  0  0
  159.4870  209.6890  155.4040 O   0  0  0  0  0  0  0  0  0  0  0  0
  160.9210  211.5880  155.0810 C   0  0  0  0  0  2  0  0  0  0  0  0
  159.8370  212.4780  154.4950 C   0  0  0  0  0  1  0  0  0  0  0  0
  161.2210  210.0520  150.2370 O   0  0  0  0  0  0  0  0  0  0  0  0
  162.1020  211.0610  150.6690 C   0  0  0  0  0  2  0  0  0  0  0  0
  161.0900  211.1580  147.8380 F   0  0  0  0  0  0  0  0  0  0  0  0
  162.3760  213.1300  147.4220 C   0  0  2  0  0  3  0  0  0  0  0  0
  161.1930  214.4520  149.1490 O   0  0  0  0  0  0  0  0  0  0  0  0
  162.2210  211.8520  148.2380 C   0  0  1  0  0  3  0  0  0  0  0  0
  161.2780  214.1550  147.7600 C   0  0  2  0  0  3  0  0  0  0  0  0
  161.0150  213.2840  149.9440 C   0  0  2  0  0  3  0  0  0  0  0  0
  162.3920  212.8450  146.0540 O   0  0  0  0  0  1  0  0  0  0  0  0
  162.1260  212.2480  149.7070 C   0  0  1  0  0  3  0  0  0  0  0  0
  158.9250  213.4220  150.6820 C   0  0  0  0  0  1  0  0  0  0  0  0
  159.7350  212.7380  149.7740 O   0  0  0  0  0  0  0  0  0  0  0  0
  159.9190  213.8370  147.1320 C   0  0  0  0  0  2  0  0  0  0  0  0
  159.8380  214.3690  145.7820 N   0  0  0  0  0  2  0  0  0  0  0  0
  158.8840  213.2880  144.8170 S   0  0  0  0  0  0  0  0  0  0  0  0
  157.4470  213.3850  145.2460 O   0  0  0  0  0  0  0  0  0  0  0  0
  159.3510  211.8720  145.0090 O   0  0  0  0  0  0  0  0  0  0  0  0
  159.0360  213.7190  143.1460 N   0  0  0  0  0  2  0  0  0  0  0  0
  159.6120  212.5770  142.4550 C   0  0  0  0  0  2  0  0  0  0  0  0
  161.7050  213.2460  141.5130 O   0  0  0  0  0  1  0  0  0  0  0  0
  160.3600  213.0280  141.2120 C   0  0  1  0  0  3  0  0  0  0  0  0
  158.9200  211.9210  139.3800 C   0  0  1  0  0  3  0  0  0  0  0  0
  160.8120  210.7100  140.3800 O   0  0  0  0  0  1  0  0  0  0  0  0
  160.1930  212.3520  138.6510 C   0  0  2  0  0  3  0  0  0  0  0  0
  158.5940  210.6160  139.0040 O   0  0  0  0  0  1  0  0  0  0  0  0
  160.2490  211.9620  140.1230 C   0  0  2  0  0  0  0  0  0  0  0  0
  160.1590  213.8560  138.4320 C   0  0  0  0  0  2  0  0  0  0  0  0
  161.4290  214.3020  138.0680 O   0  0  0  0  0  1  0  0  0  0  0  0
  1 10  1  0  0  0  0
  2 24  1  1  0  0  0
  2 10  1  0  0  0  0
  3  7  1  0  0  0  0
  4  9  2  0  0  0  0
  5 30  1  6  0  0  0
  5  8  1  0  0  0  0
  6  1  1  1  0  0  0
  7 13  1  1  0  0  0
  7  6  1  0  0  0  0
  8  6  1  0  0  0  0
  8  2  1  0  0  0  0
  9  3  1  0  0  0  0
  9  5  1  0  0  0  0
 12 14  1  0  0  0  0
 12 13  1  0  0  0  0
 13 11  2  0  0  0  0
 15 14  1  0  0  0  0
 17 16  1  0  0  0  0
 17 15  1  0  0  0  0
 18 17  1  0  0  0  0
 19 20  2  0  0  0  0
 20 18  1  0  0  0  0
 21 23  1  0  0  0  0
 21 20  1  0  0  0  0
 22 23  1  0  0  0  0
 24 25  1  0  0  0  0
 25 28  1  0  0  0  0
 25 27  1  0  0  0  0
 27 26  1  0  0  0  0
 29 28  1  0  0  0  0
 30 31  1  0  0  0  0
 32 35  1  0  0  0  0
 33 36  1  0  0  0  0
 33 35  1  0  0  0  0
 34 37  1  0  0  0  0
 35 39  1  0  0  0  0
 36 34  1  0  0  0  0
 38 33  1  0  0  0  0
 39 37  1  0  0  0  0
 39 31  1  0  0  0  0
 41 37  1  0  0  0  0
 41 40  1  0  0  0  0
 42 36  1  0  0  0  0
 43 42  1  0  0  0  0
 44 46  2  0  0  0  0
 44 45  2  0  0  0  0
 44 43  1  0  0  0  0
 47 44  1  0  0  0  0
 48 47  1  0  0  0  0
 50 49  1  0  0  0  0
 50 48  1  0  0  0  0
 51 55  1  0  0  0  0
 53 51  1  0  0  0  0
 53 55  1  0  0  0  0
 54 51  1  0  0  0  0
 55 52  1  0  0  0  0
 55 50  1  0  0  0  0
 56 53  1  0  0  0  0
 57 56  1  0  0  0  0
M  END
>  <MODEL>
1

>  <REMARK>
 VINA RESULT:      -6.1      0.000      0.000
  Name = 
  23 active torsions:
  status: ('A' for Active; 'I' for Inactive)
    1  A    between atoms: C_1  and  C_10
    2  A    between atoms: C_2  and  C_35
    3  A    between atoms: N_3  and  C_9
    4  A    between atoms: N_3  and  S_25
    5  A    between atoms: C_7  and  O_38
    6  A    between atoms: C_9  and  C_45
    7  A    between atoms: C_10  and  O_18
    8  A    between atoms: C_10  and  O_38
    9  A    between atoms: C_13  and  O_22
   10  A    between atoms: C_13  and  C_52
   11  A    between atoms: N_15  and  C_16
   12  A    between atoms: N_15  and  S_25
   13  A    between atoms: C_16  and  C_57
   14  A    between atoms: O_22  and  C_29
   15  A    between atoms: N_27  and  O_42
   16  A    between atoms: C_28  and  C_37
   17  A    between atoms: C_33  and  C_43
   18  A    between atoms: N_40  and  O_55
   19  A    between atoms: O_42  and  C_49
   20  A    between atoms: C_43  and  C_51
   21  A    between atoms: C_46  and  O_50
   22  A    between atoms: C_49  and  C_51
   23  A    between atoms: C_54  and  C_57
                            x       y       z     vdW  Elec       q    Type
                         _______ _______ _______ _____ _____    ______ ____

>  <TORSDO>
F 23

$$$$
