=
 OpenBabel11042420263D

 31 34  0  0  1  0  0  0  0  0999 V2000
  159.3040  211.3420  151.9830 C   0  0  0  0  0  2  0  0  0  0  0  0
  160.3650  211.3880  154.2490 C   0  0  0  0  0  0  0  0  0  0  0  0
  162.9490  209.8240  157.2600 C   0  0  0  0  0  1  0  0  0  0  0  0
  157.1910  213.5750  151.6500 N   0  0  0  0  0  2  0  0  0  0  0  0
  158.4770  212.9420  153.8010 C   0  0  0  0  0  0  0  0  0  0  0  0
  157.9730  214.1260  149.5380 O   0  0  0  0  0  0  0  0  0  0  0  0
  156.1420  213.2240  153.6800 O   0  0  0  0  0  0  0  0  0  0  0  0
  161.3180  211.5420  156.5020 C   0  0  0  0  0  2  0  0  0  0  0  0
  162.0600  209.7570  154.9370 C   0  0  0  0  0  3  0  0  0  0  0  0
  159.4230  211.8580  153.3850 C   0  0  1  0  0  3  0  0  0  0  0  0
  160.5190  214.4530  150.3050 O   0  0  0  0  0  1  0  0  0  0  0  0
  160.4910  212.0380  155.5830 C   0  0  0  0  0  0  0  0  0  0  0  0
  161.2670  210.2190  153.9610 C   0  0  0  0  0  0  0  0  0  0  0  0
  158.2610  213.8270  150.7280 C   0  0  0  0  0  0  0  0  0  0  0  0
  159.8150  213.3400  155.8670 C   0  0  0  0  0  2  0  0  0  0  0  0
  157.2320  213.2390  153.0490 C   0  0  0  0  0  0  0  0  0  0  0  0
  159.6960  213.6730  151.1200 C   0  0  1  0  0  3  0  0  0  0  0  0
  162.0820  210.3650  156.2310 N   0  0  0  0  0  0  0  0  0  0  0  0
  160.1180  212.2120  151.0280 C   0  0  0  0  0  2  0  0  0  0  0  0
  158.6330  213.5600  154.9780 C   0  0  0  0  0  3  0  0  0  0  0  0
  161.0010  207.3430  153.3010 O   0  0  0  0  0  0  0  0  0  0  0  0
  161.2760  209.5860  152.6700 N   0  0  0  0  0  2  0  0  0  0  0  0
  161.1490  208.1860  152.3710 C   0  0  0  0  0  0  0  0  0  0  0  0
  161.0730  206.2890  148.1050 C   0  0  0  0  0  0  0  0  0  0  0  0
  160.8750  205.3790  147.0300 N   0  0  0  0  0  1  0  0  0  0  0  0
  160.7330  206.5150  150.6850 C   0  0  0  0  0  3  0  0  0  0  0  0
  161.7480  208.6760  149.9810 C   0  0  0  0  0  3  0  0  0  0  0  0
  161.5970  207.4450  147.8360 N   0  0  0  0  0  0  0  0  0  0  0  0
  161.9190  208.5600  148.6690 C   0  0  0  0  0  3  0  0  0  0  0  0
  160.6780  205.8720  149.4130 N   0  0  0  0  0  2  0  0  0  0  0  0
  161.1940  207.7340  150.9630 C   0  0  0  0  0  0  0  0  0  0  0  0
  2 12  2  0  0  0  0
  4 16  1  0  0  0  0
  5 20  2  0  0  0  0
  6 14  2  0  0  0  0
  9 18  1  0  0  0  0
 10  1  1  6  0  0  0
 10  5  1  0  0  0  0
 10  2  1  0  0  0  0
 12 15  1  0  0  0  0
 12  8  1  0  0  0  0
 13  2  1  0  0  0  0
 13  9  2  0  0  0  0
 14 17  1  0  0  0  0
 14  4  1  0  0  0  0
 16  7  2  0  0  0  0
 16  5  1  0  0  0  0
 17 11  1  6  0  0  0
 18  8  1  0  0  0  0
 18  3  1  0  0  0  0
 19 17  1  0  0  0  0
 19  1  1  0  0  0  0
 20 15  1  0  0  0  0
 22 13  1  0  0  0  0
 23 22  1  0  0  0  0
 23 21  2  0  0  0  0
 24 30  1  0  0  0  0
 25 24  1  0  0  0  0
 26 31  2  0  0  0  0
 27 31  1  0  0  0  0
 28 24  2  0  0  0  0
 28 29  1  0  0  0  0
 29 27  2  0  0  0  0
 30 26  1  0  0  0  0
 31 23  1  0  0  0  0
M  END
>  <MODEL>
1

>  <REMARK>
 VINA RESULT:      -6.6      0.000      0.000
  Name = 
  2 active torsions:
  status: ('A' for Active; 'I' for Inactive)
    1  A    between atoms: C_19  and  N_26
    2  A    between atoms: C_27  and  C_31
                            x       y       z     vdW  Elec       q    Type
                         _______ _______ _______ _____ _____    ______ ____

>  <TORSDO>
F 2

$$$$
=
 OpenBabel11042420263D

 31 34  0  0  1  0  0  0  0  0999 V2000
  161.2440  208.7930  154.2320 C   0  0  0  0  0  2  0  0  0  0  0  0
  160.2770  211.0810  153.9280 C   0  0  0  0  0  0  0  0  0  0  0  0
  158.5550  214.1900  151.5690 C   0  0  0  0  0  1  0  0  0  0  0  0
  162.3020  208.3570  157.1050 N   0  0  0  0  0  2  0  0  0  0  0  0
  161.3940  210.5530  156.0850 C   0  0  0  0  0  0  0  0  0  0  0  0
  161.3400  206.2510  157.2370 O   0  0  0  0  0  0  0  0  0  0  0  0
  163.4280  210.3700  157.2590 O   0  0  0  0  0  0  0  0  0  0  0  0
  159.3680  213.3520  153.7650 C   0  0  0  0  0  2  0  0  0  0  0  0
  159.3710  211.8490  151.7840 C   0  0  0  0  0  3  0  0  0  0  0  0
  160.9470  210.1850  154.7030 C   0  0  1  0  0  3  0  0  0  0  0  0
  158.8800  207.0700  156.5590 O   0  0  0  0  0  1  0  0  0  0  0  0
  159.9220  212.4020  154.5180 C   0  0  0  0  0  0  0  0  0  0  0  0
  159.9060  210.8430  152.4900 C   0  0  0  0  0  0  0  0  0  0  0  0
  161.2080  207.4540  156.8860 C   0  0  0  0  0  0  0  0  0  0  0  0
  160.0330  212.6390  155.9880 C   0  0  0  0  0  2  0  0  0  0  0  0
  162.4130  209.7640  156.8240 C   0  0  0  0  0  0  0  0  0  0  0  0
  159.9540  207.8840  156.1920 C   0  0  1  0  0  3  0  0  0  0  0  0
  159.1270  213.1280  152.3750 N   0  0  0  0  0  0  0  0  0  0  0  0
  160.1410  207.8370  154.6810 C   0  0  0  0  0  2  0  0  0  0  0  0
  161.0220  211.7170  156.6280 C   0  0  0  0  0  3  0  0  0  0  0  0
  162.2430  209.9370  150.9110 O   0  0  0  0  0  0  0  0  0  0  0  0
  160.1320  209.5690  151.8640 N   0  0  0  0  0  2  0  0  0  0  0  0
  161.2730  209.1490  151.0980 C   0  0  0  0  0  0  0  0  0  0  0  0
  161.4090  205.0870  148.8000 C   0  0  0  0  0  0  0  0  0  0  0  0
  161.4770  204.1220  147.7570 N   0  0  0  0  0  1  0  0  0  0  0  0
  161.4040  207.6680  149.2020 C   0  0  0  0  0  3  0  0  0  0  0  0
  161.2290  206.6660  151.4730 C   0  0  0  0  0  3  0  0  0  0  0  0
  161.3170  204.6600  150.0210 N   0  0  0  0  0  0  0  0  0  0  0  0
  161.2330  205.3540  151.2670 C   0  0  0  0  0  3  0  0  0  0  0  0
  161.4500  206.4680  148.4330 N   0  0  0  0  0  2  0  0  0  0  0  0
  161.3060  207.7860  150.5250 C   0  0  0  0  0  0  0  0  0  0  0  0
  1 19  1  0  0  0  0
  2 12  2  0  0  0  0
  2 10  1  0  0  0  0
  3 18  1  0  0  0  0
  5 20  2  0  0  0  0
  5 16  1  0  0  0  0
  8 12  1  0  0  0  0
  9 18  1  0  0  0  0
  9 13  2  0  0  0  0
 10  1  1  1  0  0  0
 10  5  1  0  0  0  0
 12 15  1  0  0  0  0
 13  2  1  0  0  0  0
 14  4  1  0  0  0  0
 14  6  2  0  0  0  0
 15 20  1  0  0  0  0
 16  4  1  0  0  0  0
 16  7  2  0  0  0  0
 17 11  1  6  0  0  0
 17 14  1  0  0  0  0
 18  8  1  0  0  0  0
 19 17  1  0  0  0  0
 21 23  2  0  0  0  0
 22 13  1  0  0  0  0
 23 22  1  0  0  0  0
 24 28  2  0  0  0  0
 25 24  1  0  0  0  0
 26 31  2  0  0  0  0
 28 29  1  0  0  0  0
 29 27  2  0  0  0  0
 30 24  1  0  0  0  0
 30 26  1  0  0  0  0
 31 23  1  0  0  0  0
 31 27  1  0  0  0  0
M  END
>  <MODEL>
2

>  <REMARK>
 VINA RESULT:      -5.7      2.358      5.335
  Name = 
  2 active torsions:
  status: ('A' for Active; 'I' for Inactive)
    1  A    between atoms: C_19  and  N_26
    2  A    between atoms: C_27  and  C_31
                            x       y       z     vdW  Elec       q    Type
                         _______ _______ _______ _____ _____    ______ ____

>  <TORSDO>
F 2

$$$$
=
 OpenBabel11042420263D

 31 34  0  0  1  0  0  0  0  0999 V2000
  159.7420  210.5300  153.6240 C   0  0  0  0  0  2  0  0  0  0  0  0
  160.6200  211.4560  151.4710 C   0  0  0  0  0  0  0  0  0  0  0  0
  160.6890  214.3370  148.3270 C   0  0  0  0  0  1  0  0  0  0  0  0
  161.0150  207.7980  154.3130 N   0  0  0  0  0  2  0  0  0  0  0  0
  161.3210  209.1660  152.1420 C   0  0  0  0  0  0  0  0  0  0  0  0
  161.3330  208.4020  156.5290 O   0  0  0  0  0  0  0  0  0  0  0  0
  160.7740  206.8770  152.2070 O   0  0  0  0  0  0  0  0  0  0  0  0
  161.5600  212.2420  149.3480 C   0  0  0  0  0  2  0  0  0  0  0  0
  159.8360  213.5820  150.5400 C   0  0  0  0  0  3  0  0  0  0  0  0
  160.5540  210.4330  152.3680 C   0  0  1  0  0  3  0  0  0  0  0  0
  162.6480  210.6690  155.9700 O   0  0  0  0  0  1  0  0  0  0  0  0
  161.5430  211.3200  150.3100 C   0  0  0  0  0  0  0  0  0  0  0  0
  159.7870  212.7050  151.5520 C   0  0  0  0  0  0  0  0  0  0  0  0
  161.4080  208.7430  155.3180 C   0  0  0  0  0  0  0  0  0  0  0  0
  162.5730  210.2390  150.2710 C   0  0  0  0  0  2  0  0  0  0  0  0
  161.0180  207.9140  152.8790 C   0  0  0  0  0  0  0  0  0  0  0  0
  161.8300  210.1360  154.9720 C   0  0  1  0  0  3  0  0  0  0  0  0
  160.6770  213.3650  149.4040 N   0  0  0  0  0  0  0  0  0  0  0  0
  160.6100  211.0280  154.7770 C   0  0  0  0  0  2  0  0  0  0  0  0
  162.1910  209.0750  151.1290 C   0  0  0  0  0  3  0  0  0  0  0  0
  156.9960  213.6970  151.5850 O   0  0  0  0  0  0  0  0  0  0  0  0
  158.9350  212.9600  152.6810 N   0  0  0  0  0  2  0  0  0  0  0  0
  157.5820  213.4450  152.6760 C   0  0  0  0  0  0  0  0  0  0  0  0
  154.9030  214.1810  156.4290 C   0  0  0  0  0  0  0  0  0  0  0  0
  153.7820  214.4530  157.2610 N   0  0  0  0  0  1  0  0  0  0  0  0
  155.5710  213.9170  153.9170 C   0  0  0  0  0  3  0  0  0  0  0  0
  157.6810  213.5450  155.1840 C   0  0  0  0  0  3  0  0  0  0  0  0
  156.0500  213.9730  156.9990 N   0  0  0  0  0  0  0  0  0  0  0  0
  157.3390  213.6790  156.4600 C   0  0  0  0  0  3  0  0  0  0  0  0
  154.6930  214.1520  155.0160 N   0  0  0  0  0  2  0  0  0  0  0  0
  156.8760  213.6520  153.9600 C   0  0  0  0  0  0  0  0  0  0  0  0
  1 19  1  0  0  0  0
  2 13  1  0  0  0  0
  2 10  1  0  0  0  0
  3 18  1  0  0  0  0
  4 14  1  0  0  0  0
  5 10  1  0  0  0  0
  5 16  1  0  0  0  0
  7 16  2  0  0  0  0
  8 18  1  0  0  0  0
  8 12  1  0  0  0  0
  9 13  2  0  0  0  0
 10  1  1  1  0  0  0
 12  2  2  0  0  0  0
 13 22  1  0  0  0  0
 14  6  2  0  0  0  0
 15 12  1  0  0  0  0
 15 20  1  0  0  0  0
 16  4  1  0  0  0  0
 17 14  1  0  0  0  0
 17 11  1  1  0  0  0
 18  9  1  0  0  0  0
 19 17  1  0  0  0  0
 20  5  2  0  0  0  0
 21 23  2  0  0  0  0
 23 22  1  0  0  0  0
 23 31  1  0  0  0  0
 24 28  2  0  0  0  0
 24 25  1  0  0  0  0
 26 31  2  0  0  0  0
 26 30  1  0  0  0  0
 27 29  2  0  0  0  0
 29 28  1  0  0  0  0
 30 24  1  0  0  0  0
 31 27  1  0  0  0  0
M  END
>  <MODEL>
3

>  <REMARK>
 VINA RESULT:      -5.4      2.780      8.013
  Name = 
  2 active torsions:
  status: ('A' for Active; 'I' for Inactive)
    1  A    between atoms: C_19  and  N_26
    2  A    between atoms: C_27  and  C_31
                            x       y       z     vdW  Elec       q    Type
                         _______ _______ _______ _____ _____    ______ ____

>  <TORSDO>
F 2

$$$$
=
 OpenBabel11042420263D

 31 34  0  0  1  0  0  0  0  0999 V2000
  161.9650  207.0330  147.1440 C   0  0  0  0  0  2  0  0  0  0  0  0
  161.4920  206.2230  149.4640 C   0  0  0  0  0  0  0  0  0  0  0  0
  160.7950  206.8320  153.6270 C   0  0  0  0  0  1  0  0  0  0  0  0
  162.4040  204.6940  145.1690 N   0  0  0  0  0  2  0  0  0  0  0  0
  162.0970  204.5450  147.7320 C   0  0  0  0  0  0  0  0  0  0  0  0
  161.0750  205.6910  143.5510 O   0  0  0  0  0  0  0  0  0  0  0  0
  163.8250  203.4850  146.5330 O   0  0  0  0  0  0  0  0  0  0  0  0
  161.0450  205.2940  151.6880 C   0  0  0  0  0  2  0  0  0  0  0  0
  161.1300  207.7560  151.3410 C   0  0  0  0  0  3  0  0  0  0  0  0
  161.8430  205.9530  148.1760 C   0  0  1  0  0  3  0  0  0  0  0  0
  158.9600  206.0340  145.1600 O   0  0  0  0  0  1  0  0  0  0  0  0
  161.2780  205.0790  150.3940 C   0  0  0  0  0  0  0  0  0  0  0  0
  161.3440  207.6100  150.0270 C   0  0  0  0  0  0  0  0  0  0  0  0
  161.2230  205.4050  144.7700 C   0  0  0  0  0  0  0  0  0  0  0  0
  161.1690  203.6810  149.8780 C   0  0  0  0  0  2  0  0  0  0  0  0
  162.8120  204.2300  146.4690 C   0  0  0  0  0  0  0  0  0  0  0  0
  160.2080  205.8750  145.7640 C   0  0  1  0  0  3  0  0  0  0  0  0
  161.0170  206.6250  152.2090 N   0  0  0  0  0  0  0  0  0  0  0  0
  160.6490  207.1930  146.3880 C   0  0  0  0  0  2  0  0  0  0  0  0
  161.8480  203.5210  148.5560 C   0  0  0  0  0  3  0  0  0  0  0  0
  162.3520  210.3120  150.7000 O   0  0  0  0  0  0  0  0  0  0  0  0
  161.4460  208.7700  149.1830 N   0  0  0  0  0  2  0  0  0  0  0  0
  161.9350  210.0750  149.5310 C   0  0  0  0  0  0  0  0  0  0  0  0
  161.4610  213.2990  146.1870 C   0  0  0  0  0  0  0  0  0  0  0  0
  160.9200  214.0980  145.1430 N   0  0  0  0  0  1  0  0  0  0  0  0
  160.8460  211.3250  147.7820 C   0  0  0  0  0  3  0  0  0  0  0  0
  163.1840  211.9280  148.3830 C   0  0  0  0  0  3  0  0  0  0  0  0
  162.6770  213.5400  146.5710 N   0  0  0  0  0  0  0  0  0  0  0  0
  163.4950  212.9330  147.5720 C   0  0  0  0  0  3  0  0  0  0  0  0
  160.6290  212.2840  146.7490 N   0  0  0  0  0  2  0  0  0  0  0  0
  161.9480  211.1460  148.5100 C   0  0  0  0  0  0  0  0  0  0  0  0
  2 13  1  0  0  0  0
  2 12  2  0  0  0  0
  4 16  1  0  0  0  0
  5 10  1  0  0  0  0
  5 20  2  0  0  0  0
  6 14  2  0  0  0  0
  8 18  1  0  0  0  0
  9 18  1  0  0  0  0
 10  1  1  6  0  0  0
 10  2  1  0  0  0  0
 12  8  1  0  0  0  0
 13  9  2  0  0  0  0
 14  4  1  0  0  0  0
 14 17  1  0  0  0  0
 15 12  1  0  0  0  0
 16  7  2  0  0  0  0
 16  5  1  0  0  0  0
 17 11  1  6  0  0  0
 17 19  1  0  0  0  0
 18  3  1  0  0  0  0
 19  1  1  0  0  0  0
 20 15  1  0  0  0  0
 22 23  1  0  0  0  0
 22 13  1  0  0  0  0
 23 21  2  0  0  0  0
 24 28  2  0  0  0  0
 24 30  1  0  0  0  0
 25 24  1  0  0  0  0
 26 31  2  0  0  0  0
 27 31  1  0  0  0  0
 28 29  1  0  0  0  0
 29 27  2  0  0  0  0
 30 26  1  0  0  0  0
 31 23  1  0  0  0  0
M  END
>  <MODEL>
4

>  <REMARK>
 VINA RESULT:      -5.1      4.538      8.301
  Name = 
  2 active torsions:
  status: ('A' for Active; 'I' for Inactive)
    1  A    between atoms: C_19  and  N_26
    2  A    between atoms: C_27  and  C_31
                            x       y       z     vdW  Elec       q    Type
                         _______ _______ _______ _____ _____    ______ ____

>  <TORSDO>
F 2

$$$$
=
 OpenBabel11042420263D

 31 34  0  0  1  0  0  0  0  0999 V2000
  162.0190  206.9560  147.5210 C   0  0  0  0  0  2  0  0  0  0  0  0
  161.5510  205.7850  149.6820 C   0  0  0  0  0  0  0  0  0  0  0  0
  160.8310  205.7230  153.8860 C   0  0  0  0  0  1  0  0  0  0  0  0
  162.5030  204.9630  145.2070 N   0  0  0  0  0  2  0  0  0  0  0  0
  162.1910  204.4090  147.7120 C   0  0  0  0  0  0  0  0  0  0  0  0
  161.1630  206.1790  143.7570 O   0  0  0  0  0  0  0  0  0  0  0  0
  163.9410  203.5780  146.3730 O   0  0  0  0  0  0  0  0  0  0  0  0
  161.1130  204.5120  151.7310 C   0  0  0  0  0  2  0  0  0  0  0  0
  161.1570  206.9990  151.7740 C   0  0  0  0  0  3  0  0  0  0  0  0
  161.9110  205.7260  148.3700 C   0  0  1  0  0  3  0  0  0  0  0  0
  159.0370  206.2320  145.3870 O   0  0  0  0  0  1  0  0  0  0  0  0
  161.3540  204.5060  150.4210 C   0  0  0  0  0  0  0  0  0  0  0  0
  161.3780  207.0640  150.4540 C   0  0  0  0  0  0  0  0  0  0  0  0
  161.3120  205.7080  144.9170 C   0  0  0  0  0  0  0  0  0  0  0  0
  161.2700  203.2050  149.6910 C   0  0  0  0  0  2  0  0  0  0  0  0
  162.9150  204.3070  146.4200 C   0  0  0  0  0  0  0  0  0  0  0  0
  160.2860  206.0010  145.9660 C   0  0  1  0  0  3  0  0  0  0  0  0
  161.0610  205.7440  152.4540 N   0  0  0  0  0  0  0  0  0  0  0  0
  160.7020  207.2110  146.7920 C   0  0  0  0  0  2  0  0  0  0  0  0
  161.9560  203.2650  148.3640 C   0  0  0  0  0  3  0  0  0  0  0  0
  162.3920  209.6300  151.5300 O   0  0  0  0  0  0  0  0  0  0  0  0
  161.4630  208.3430  149.8040 N   0  0  0  0  0  2  0  0  0  0  0  0
  161.9560  209.5800  150.3460 C   0  0  0  0  0  0  0  0  0  0  0  0
  162.3100  213.1750  147.3880 C   0  0  0  0  0  0  0  0  0  0  0  0
  162.7060  213.9990  146.2980 N   0  0  0  0  0  1  0  0  0  0  0  0
  162.7470  210.8250  148.4400 C   0  0  0  0  0  3  0  0  0  0  0  0
  161.0530  211.8850  149.9230 C   0  0  0  0  0  3  0  0  0  0  0  0
  161.4280  213.6430  148.2170 N   0  0  0  0  0  0  0  0  0  0  0  0
  160.8310  213.0800  149.3860 C   0  0  0  0  0  3  0  0  0  0  0  0
  162.9070  211.8820  147.4970 N   0  0  0  0  0  2  0  0  0  0  0  0
  161.9490  210.7980  149.5070 C   0  0  0  0  0  0  0  0  0  0  0  0
  2 12  2  0  0  0  0
  2 13  1  0  0  0  0
  4 16  1  0  0  0  0
  5 20  2  0  0  0  0
  5 10  1  0  0  0  0
  6 14  2  0  0  0  0
  7 16  2  0  0  0  0
  8 18  1  0  0  0  0
  9 18  1  0  0  0  0
 10  1  1  6  0  0  0
 10  2  1  0  0  0  0
 12  8  1  0  0  0  0
 13  9  2  0  0  0  0
 14  4  1  0  0  0  0
 14 17  1  0  0  0  0
 15 12  1  0  0  0  0
 16  5  1  0  0  0  0
 17 11  1  6  0  0  0
 17 19  1  0  0  0  0
 18  3  1  0  0  0  0
 19  1  1  0  0  0  0
 20 15  1  0  0  0  0
 22 23  1  0  0  0  0
 22 13  1  0  0  0  0
 23 21  2  0  0  0  0
 24 30  1  0  0  0  0
 24 28  2  0  0  0  0
 25 24  1  0  0  0  0
 26 31  2  0  0  0  0
 28 29  1  0  0  0  0
 29 27  2  0  0  0  0
 30 26  1  0  0  0  0
 31 27  1  0  0  0  0
 31 23  1  0  0  0  0
M  END
>  <MODEL>
5

>  <REMARK>
 VINA RESULT:      -4.6      4.251      8.268
  Name = 
  2 active torsions:
  status: ('A' for Active; 'I' for Inactive)
    1  A    between atoms: C_19  and  N_26
    2  A    between atoms: C_27  and  C_31
                            x       y       z     vdW  Elec       q    Type
                         _______ _______ _______ _____ _____    ______ ____

>  <TORSDO>
F 2

$$$$
=
 OpenBabel11042420263D

 31 34  0  0  1  0  0  0  0  0999 V2000
  160.5450  209.3660  151.1780 C   0  0  0  0  0  2  0  0  0  0  0  0
  160.6480  209.1310  153.6670 C   0  0  0  0  0  0  0  0  0  0  0  0
  160.7940  206.8350  157.2590 C   0  0  0  0  0  1  0  0  0  0  0  0
  160.2560  212.3190  150.3060 N   0  0  0  0  0  2  0  0  0  0  0  0
  160.1960  211.3830  152.7150 C   0  0  0  0  0  0  0  0  0  0  0  0
  161.8490  212.0770  148.6380 O   0  0  0  0  0  0  0  0  0  0  0  0
  158.5950  212.8590  151.8200 O   0  0  0  0  0  0  0  0  0  0  0  0
  160.7310  209.0430  156.1160 C   0  0  0  0  0  2  0  0  0  0  0  0
  160.8310  206.9520  154.7730 C   0  0  0  0  0  3  0  0  0  0  0  0
  160.4640  209.9160  152.5700 C   0  0  1  0  0  3  0  0  0  0  0  0
  163.7370  211.0790  150.2560 O   0  0  0  0  0  1  0  0  0  0  0  0
  160.6670  209.7800  155.0080 C   0  0  0  0  0  0  0  0  0  0  0  0
  160.7930  207.6340  153.6210 C   0  0  0  0  0  0  0  0  0  0  0  0
  161.5180  211.8300  149.8290 C   0  0  0  0  0  0  0  0  0  0  0  0
  160.7700  211.2650  155.1390 C   0  0  0  0  0  2  0  0  0  0  0  0
  159.6470  212.2020  151.6050 C   0  0  0  0  0  0  0  0  0  0  0  0
  162.4100  210.9800  150.6780 C   0  0  1  0  0  3  0  0  0  0  0  0
  160.7600  207.6170  156.0380 N   0  0  0  0  0  0  0  0  0  0  0  0
  161.9610  209.5260  150.6290 C   0  0  0  0  0  2  0  0  0  0  0  0
  160.2730  211.9680  153.9160 C   0  0  0  0  0  3  0  0  0  0  0  0
  161.2050  204.7420  153.1370 O   0  0  0  0  0  0  0  0  0  0  0  0
  160.8730  206.9330  152.3690 N   0  0  0  0  0  2  0  0  0  0  0  0
  161.0770  205.5270  152.1550 C   0  0  0  0  0  0  0  0  0  0  0  0
  161.3960  204.3780  147.6400 C   0  0  0  0  0  0  0  0  0  0  0  0
  161.5880  204.4550  146.2330 N   0  0  0  0  0  1  0  0  0  0  0  0
  161.4460  205.8530  149.7960 C   0  0  0  0  0  3  0  0  0  0  0  0
  160.8560  203.5700  150.5950 C   0  0  0  0  0  3  0  0  0  0  0  0
  161.0860  203.2270  148.1510 N   0  0  0  0  0  0  0  0  0  0  0  0
  160.8330  202.8220  149.4970 C   0  0  0  0  0  3  0  0  0  0  0  0
  161.5610  205.5760  148.4020 N   0  0  0  0  0  2  0  0  0  0  0  0
  161.1390  205.0000  150.7730 C   0  0  0  0  0  0  0  0  0  0  0  0
  2 12  2  0  0  0  0
  4 16  1  0  0  0  0
  5 20  2  0  0  0  0
  6 14  2  0  0  0  0
  9 18  1  0  0  0  0
 10  1  1  6  0  0  0
 10  5  1  0  0  0  0
 10  2  1  0  0  0  0
 12 15  1  0  0  0  0
 12  8  1  0  0  0  0
 13  2  1  0  0  0  0
 13  9  2  0  0  0  0
 14  4  1  0  0  0  0
 14 17  1  0  0  0  0
 16  7  2  0  0  0  0
 16  5  1  0  0  0  0
 17 11  1  6  0  0  0
 18  8  1  0  0  0  0
 18  3  1  0  0  0  0
 19 17  1  0  0  0  0
 19  1  1  0  0  0  0
 20 15  1  0  0  0  0
 22 13  1  0  0  0  0
 23 22  1  0  0  0  0
 23 21  2  0  0  0  0
 24 28  2  0  0  0  0
 24 30  1  0  0  0  0
 25 24  1  0  0  0  0
 26 31  2  0  0  0  0
 27 31  1  0  0  0  0
 28 29  1  0  0  0  0
 29 27  2  0  0  0  0
 30 26  1  0  0  0  0
 31 23  1  0  0  0  0
M  END
>  <MODEL>
6

>  <REMARK>
 VINA RESULT:      -4.2      2.336      3.213
  Name = 
  2 active torsions:
  status: ('A' for Active; 'I' for Inactive)
    1  A    between atoms: C_19  and  N_26
    2  A    between atoms: C_27  and  C_31
                            x       y       z     vdW  Elec       q    Type
                         _______ _______ _______ _____ _____    ______ ____

>  <TORSDO>
F 2

$$$$
=
 OpenBabel11042420263D

 31 34  0  0  1  0  0  0  0  0999 V2000
  161.7290  206.3290  147.4260 C   0  0  0  0  0  2  0  0  0  0  0  0
  161.2680  204.5540  149.1290 C   0  0  0  0  0  0  0  0  0  0  0  0
  160.4000  203.2290  153.0900 C   0  0  0  0  0  1  0  0  0  0  0  0
  162.4400  205.1270  144.6670 N   0  0  0  0  0  2  0  0  0  0  0  0
  162.0760  203.8510  146.8850 C   0  0  0  0  0  0  0  0  0  0  0  0
  161.0690  206.6330  143.5570 O   0  0  0  0  0  0  0  0  0  0  0  0
  163.9290  203.5490  145.4630 O   0  0  0  0  0  0  0  0  0  0  0  0
  160.8470  202.7170  150.6970 C   0  0  0  0  0  2  0  0  0  0  0  0
  160.7110  205.0810  151.4570 C   0  0  0  0  0  3  0  0  0  0  0  0
  161.6790  204.9000  147.8780 C   0  0  1  0  0  3  0  0  0  0  0  0
  158.8870  206.0850  145.0110 O   0  0  0  0  0  1  0  0  0  0  0  0
  161.1360  203.1060  149.4560 C   0  0  0  0  0  0  0  0  0  0  0  0
  160.9750  205.5400  150.2260 C   0  0  0  0  0  0  0  0  0  0  0  0
  161.2090  205.8540  144.5380 C   0  0  0  0  0  0  0  0  0  0  0  0
  161.1720  202.0710  148.3790 C   0  0  0  0  0  2  0  0  0  0  0  0
  162.8520  204.1720  145.6610 C   0  0  0  0  0  0  0  0  0  0  0  0
  160.1270  205.7680  145.5680 C   0  0  1  0  0  3  0  0  0  0  0  0
  160.6800  203.6790  151.7390 N   0  0  0  0  0  0  0  0  0  0  0  0
  160.4250  206.7080  146.7290 C   0  0  0  0  0  2  0  0  0  0  0  0
  161.9000  202.5550  147.1660 C   0  0  0  0  0  3  0  0  0  0  0  0
  162.9380  207.5620  151.1380 O   0  0  0  0  0  0  0  0  0  0  0  0
  160.9920  206.9560  149.9770 N   0  0  0  0  0  2  0  0  0  0  0  0
  161.9540  207.9220  150.4330 C   0  0  0  0  0  0  0  0  0  0  0  0
  161.6050  212.2820  148.7980 C   0  0  0  0  0  0  0  0  0  0  0  0
  161.6530  213.4150  147.9390 N   0  0  0  0  0  1  0  0  0  0  0  0
  162.0990  209.7180  148.8320 C   0  0  0  0  0  3  0  0  0  0  0  0
  161.2740  210.2410  151.1200 C   0  0  0  0  0  3  0  0  0  0  0  0
  161.1870  212.4560  150.0130 N   0  0  0  0  0  0  0  0  0  0  0  0
  161.0220  211.5450  151.1010 C   0  0  0  0  0  3  0  0  0  0  0  0
  162.0200  211.0230  148.2640 N   0  0  0  0  0  2  0  0  0  0  0  0
  161.7830  209.3470  150.0720 C   0  0  0  0  0  0  0  0  0  0  0  0
  2 12  2  0  0  0  0
  2 13  1  0  0  0  0
  4 16  1  0  0  0  0
  5 20  2  0  0  0  0
  5 10  1  0  0  0  0
  6 14  2  0  0  0  0
  7 16  2  0  0  0  0
  8 18  1  0  0  0  0
  9 18  1  0  0  0  0
 10  1  1  6  0  0  0
 10  2  1  0  0  0  0
 12  8  1  0  0  0  0
 13  9  2  0  0  0  0
 14  4  1  0  0  0  0
 14 17  1  0  0  0  0
 15 12  1  0  0  0  0
 16  5  1  0  0  0  0
 17 11  1  6  0  0  0
 17 19  1  0  0  0  0
 18  3  1  0  0  0  0
 19  1  1  0  0  0  0
 20 15  1  0  0  0  0
 22 13  1  0  0  0  0
 22 23  1  0  0  0  0
 23 21  2  0  0  0  0
 24 28  2  0  0  0  0
 25 24  1  0  0  0  0
 26 31  2  0  0  0  0
 28 29  1  0  0  0  0
 29 27  2  0  0  0  0
 30 24  1  0  0  0  0
 30 26  1  0  0  0  0
 31 23  1  0  0  0  0
 31 27  1  0  0  0  0
M  END
>  <MODEL>
7

>  <REMARK>
 VINA RESULT:      -4.0      4.270      8.776
  Name = 
  2 active torsions:
  status: ('A' for Active; 'I' for Inactive)
    1  A    between atoms: C_19  and  N_26
    2  A    between atoms: C_27  and  C_31
                            x       y       z     vdW  Elec       q    Type
                         _______ _______ _______ _____ _____    ______ ____

>  <TORSDO>
F 2

$$$$
=
 OpenBabel11042420263D

 31 34  0  0  1  0  0  0  0  0999 V2000
  159.5900  211.6740  150.6020 C   0  0  0  0  0  2  0  0  0  0  0  0
  159.9270  211.9630  153.0650 C   0  0  0  0  0  0  0  0  0  0  0  0
  161.1650  210.5960  156.9110 C   0  0  0  0  0  1  0  0  0  0  0  0
  158.1320  214.0930  149.3430 N   0  0  0  0  0  2  0  0  0  0  0  0
  158.5850  213.6680  151.8530 C   0  0  0  0  0  0  0  0  0  0  0  0
  159.5900  214.1500  147.5410 O   0  0  0  0  0  0  0  0  0  0  0  0
  156.4860  214.2550  150.9580 O   0  0  0  0  0  0  0  0  0  0  0  0
  160.1860  212.3700  155.4680 C   0  0  0  0  0  2  0  0  0  0  0  0
  161.0020  210.2520  154.4520 C   0  0  0  0  0  3  0  0  0  0  0  0
  159.3880  212.4050  151.8950 C   0  0  1  0  0  3  0  0  0  0  0  0
  161.8120  214.2400  149.0360 O   0  0  0  0  0  1  0  0  0  0  0  0
  159.7750  212.8110  154.2800 C   0  0  0  0  0  0  0  0  0  0  0  0
  160.6340  210.6450  153.2250 C   0  0  0  0  0  0  0  0  0  0  0  0
  159.4530  214.0250  148.7880 C   0  0  0  0  0  0  0  0  0  0  0  0
  159.3050  214.2250  154.1730 C   0  0  0  0  0  2  0  0  0  0  0  0
  157.6960  214.0040  150.7110 C   0  0  0  0  0  0  0  0  0  0  0  0
  160.6540  213.7390  149.6340 C   0  0  1  0  0  3  0  0  0  0  0  0
  160.7570  211.0670  155.6010 N   0  0  0  0  0  0  0  0  0  0  0  0
  160.7980  212.2390  149.8600 C   0  0  0  0  0  2  0  0  0  0  0  0
  158.5020  214.4530  152.9330 C   0  0  0  0  0  3  0  0  0  0  0  0
  160.7660  207.6880  153.1000 O   0  0  0  0  0  0  0  0  0  0  0  0
  160.9020  209.8020  152.0910 N   0  0  0  0  0  2  0  0  0  0  0  0
  160.9650  208.3670  152.0520 C   0  0  0  0  0  0  0  0  0  0  0  0
  162.1080  206.6980  147.8440 C   0  0  0  0  0  0  0  0  0  0  0  0
  162.5850  206.6050  146.5070 N   0  0  0  0  0  1  0  0  0  0  0  0
  161.8250  208.4040  149.8010 C   0  0  0  0  0  3  0  0  0  0  0  0
  160.9260  206.2590  150.6870 C   0  0  0  0  0  3  0  0  0  0  0  0
  161.6190  205.6290  148.3930 N   0  0  0  0  0  0  0  0  0  0  0  0
  161.0710  205.3920  149.6900 C   0  0  0  0  0  3  0  0  0  0  0  0
  162.2000  207.9650  148.4970 N   0  0  0  0  0  2  0  0  0  0  0  0
  161.2680  207.6840  150.7750 C   0  0  0  0  0  0  0  0  0  0  0  0
  2 13  1  0  0  0  0
  2 12  2  0  0  0  0
  4 16  1  0  0  0  0
  5 10  1  0  0  0  0
  5 20  2  0  0  0  0
  6 14  2  0  0  0  0
  8 18  1  0  0  0  0
  9 18  1  0  0  0  0
 10  1  1  6  0  0  0
 10  2  1  0  0  0  0
 12  8  1  0  0  0  0
 13  9  2  0  0  0  0
 14  4  1  0  0  0  0
 14 17  1  0  0  0  0
 15 12  1  0  0  0  0
 16  7  2  0  0  0  0
 16  5  1  0  0  0  0
 17 11  1  6  0  0  0
 17 19  1  0  0  0  0
 18  3  1  0  0  0  0
 19  1  1  0  0  0  0
 20 15  1  0  0  0  0
 22 13  1  0  0  0  0
 23 22  1  0  0  0  0
 23 21  2  0  0  0  0
 24 28  2  0  0  0  0
 24 30  1  0  0  0  0
 25 24  1  0  0  0  0
 26 31  2  0  0  0  0
 27 31  1  0  0  0  0
 28 29  1  0  0  0  0
 29 27  2  0  0  0  0
 30 26  1  0  0  0  0
 31 23  1  0  0  0  0
M  END
>  <MODEL>
8

>  <REMARK>
 VINA RESULT:      -3.9      1.368      1.958
  Name = 
  2 active torsions:
  status: ('A' for Active; 'I' for Inactive)
    1  A    between atoms: C_19  and  N_26
    2  A    between atoms: C_27  and  C_31
                            x       y       z     vdW  Elec       q    Type
                         _______ _______ _______ _____ _____    ______ ____

>  <TORSDO>
F 2

$$$$
=
 OpenBabel11042420263D

 31 34  0  0  1  0  0  0  0  0999 V2000
  161.5040  207.3390  153.8850 C   0  0  0  0  0  2  0  0  0  0  0  0
  161.4500  209.4510  152.5450 C   0  0  0  0  0  0  0  0  0  0  0  0
  161.6440  211.6260  148.8810 C   0  0  0  0  0  1  0  0  0  0  0  0
  161.3780  207.8940  156.9250 N   0  0  0  0  0  2  0  0  0  0  0  0
  161.5810  209.6310  155.0210 C   0  0  0  0  0  0  0  0  0  0  0  0
  159.8230  206.2060  157.2610 O   0  0  0  0  0  0  0  0  0  0  0  0
  162.9570  209.5820  156.9310 O   0  0  0  0  0  0  0  0  0  0  0  0
  161.3950  211.5940  151.3560 C   0  0  0  0  0  2  0  0  0  0  0  0
  161.5770  209.4560  150.0970 C   0  0  0  0  0  3  0  0  0  0  0  0
  161.5170  208.8320  153.7560 C   0  0  1  0  0  3  0  0  0  0  0  0
  158.1010  207.0990  155.4120 O   0  0  0  0  0  1  0  0  0  0  0  0
  161.3490  210.9370  152.5140 C   0  0  0  0  0  0  0  0  0  0  0  0
  161.5130  208.7340  151.2240 C   0  0  0  0  0  0  0  0  0  0  0  0
  160.1920  207.1790  156.5480 C   0  0  0  0  0  0  0  0  0  0  0  0
  161.0430  211.7110  153.7550 C   0  0  0  0  0  2  0  0  0  0  0  0
  162.0040  209.0360  156.3140 C   0  0  0  0  0  0  0  0  0  0  0  0
  159.4320  207.5070  155.3020 C   0  0  1  0  0  3  0  0  0  0  0  0
  161.5630  210.8860  150.1260 N   0  0  0  0  0  0  0  0  0  0  0  0
  160.0770  206.8390  154.0950 C   0  0  0  0  0  2  0  0  0  0  0  0
  161.4320  210.9610  154.9880 C   0  0  0  0  0  3  0  0  0  0  0  0
  160.4590  206.9680  149.0930 O   0  0  0  0  0  0  0  0  0  0  0  0
  161.5230  207.2980  151.1570 N   0  0  0  0  0  2  0  0  0  0  0  0
  161.0020  206.4580  150.1140 C   0  0  0  0  0  0  0  0  0  0  0  0
  161.2120  201.7950  149.9820 C   0  0  0  0  0  0  0  0  0  0  0  0
  161.1860  200.4510  149.5200 N   0  0  0  0  0  1  0  0  0  0  0  0
  160.9240  204.2530  149.1450 C   0  0  0  0  0  3  0  0  0  0  0  0
  161.3990  204.4570  151.5790 C   0  0  0  0  0  3  0  0  0  0  0  0
  161.4530  202.0030  151.2400 N   0  0  0  0  0  0  0  0  0  0  0  0
  161.5470  203.2070  152.0030 C   0  0  0  0  0  3  0  0  0  0  0  0
  160.9720  202.8320  149.0290 N   0  0  0  0  0  2  0  0  0  0  0  0
  161.1040  204.9880  150.2420 C   0  0  0  0  0  0  0  0  0  0  0  0
  1 19  1  0  0  0  0
  2 10  1  0  0  0  0
  3 18  1  0  0  0  0
  5 16  1  0  0  0  0
  8 12  1  0  0  0  0
  9 18  1  0  0  0  0
  9 13  2  0  0  0  0
 10  1  1  1  0  0  0
 10  5  1  0  0  0  0
 12  2  2  0  0  0  0
 12 15  1  0  0  0  0
 13  2  1  0  0  0  0
 14  4  1  0  0  0  0
 14  6  2  0  0  0  0
 15 20  1  0  0  0  0
 16  4  1  0  0  0  0
 16  7  2  0  0  0  0
 17 11  1  1  0  0  0
 17 14  1  0  0  0  0
 18  8  1  0  0  0  0
 19 17  1  0  0  0  0
 20  5  2  0  0  0  0
 21 23  2  0  0  0  0
 22 13  1  0  0  0  0
 23 31  1  0  0  0  0
 23 22  1  0  0  0  0
 24 28  2  0  0  0  0
 25 24  1  0  0  0  0
 26 31  2  0  0  0  0
 27 29  2  0  0  0  0
 28 29  1  0  0  0  0
 30 26  1  0  0  0  0
 30 24  1  0  0  0  0
 31 27  1  0  0  0  0
M  END
>  <MODEL>
9

>  <REMARK>
 VINA RESULT:      -3.7      3.316      5.894
  Name = 
  2 active torsions:
  status: ('A' for Active; 'I' for Inactive)
    1  A    between atoms: C_19  and  N_26
    2  A    between atoms: C_27  and  C_31
                            x       y       z     vdW  Elec       q    Type
                         _______ _______ _______ _____ _____    ______ ____

>  <TORSDO>
F 2

$$$$
