=
 OpenBabel11042421543D

 47 52  0  0  1  0  0  0  0  0999 V2000
  161.4390  206.5110  152.0490 C   0  0  0  0  0  0  0  0  0  0  0  0
  161.1870  204.3410  152.6250 N   0  0  0  0  0  0  0  0  0  0  0  0
  161.4460  206.3330  149.6140 C   0  0  0  0  0  0  0  0  0  0  0  0
  161.8410  209.8840  150.4060 C   0  0  0  0  0  3  0  0  0  0  0  0
  161.8510  209.8950  149.0710 C   0  0  0  0  0  0  0  0  0  0  0  0
  161.3940  205.7530  150.8970 C   0  0  0  0  0  0  0  0  0  0  0  0
  161.5800  207.7390  149.5880 C   0  0  0  0  0  0  0  0  0  0  0  0
  161.5800  207.9060  152.0250 C   0  0  0  0  0  3  0  0  0  0  0  0
  161.6580  208.4870  150.7530 C   0  0  0  0  0  0  0  0  0  0  0  0
  161.3080  205.6930  153.0780 C   0  0  0  0  0  0  0  0  0  0  0  0
  161.2330  204.3680  151.3270 C   0  0  0  0  0  3  0  0  0  0  0  0
  161.6870  208.5330  148.5340 C   0  0  0  0  0  3  0  0  0  0  0  0
  161.0330  211.4930  147.3510 C   0  0  0  0  0  3  0  0  0  0  0  0
  162.5860  214.4530  145.7840 O   0  0  0  0  0  1  0  0  0  0  0  0
  162.0390  211.0950  148.2410 C   0  0  0  0  0  0  0  0  0  0  0  0
  163.3990  212.9560  147.4850 C   0  0  0  0  0  3  0  0  0  0  0  0
  161.1940  212.6190  146.5320 C   0  0  0  0  0  0  0  0  0  0  0  0
  163.2230  211.8390  148.3060 C   0  0  0  0  0  3  0  0  0  0  0  0
  162.3920  213.3440  146.5970 C   0  0  0  0  0  0  0  0  0  0  0  0
  158.1410  214.0290  145.0490 O   0  0  0  0  0  0  0  0  0  0  0  0
  158.7690  214.2590  147.2350 O   0  0  0  0  0  1  0  0  0  0  0  0
  158.9870  213.7840  145.9470 C   0  0  0  0  0  0  0  0  0  0  0  0
  160.1690  213.0370  145.6200 N   0  0  0  0  0  2  0  0  0  0  0  0
  160.9030  206.0930  147.1680 N   0  0  0  0  0  2  0  0  0  0  0  0
  160.3780  206.0580  144.9080 O   0  0  0  0  0  0  0  0  0  0  0  0
  160.9720  205.5010  145.8660 C   0  0  0  0  0  0  0  0  0  0  0  0
  161.3820  205.5130  148.3850 C   0  0  0  0  0  0  0  0  0  0  0  0
  161.7240  204.3020  148.4200 O   0  0  0  0  0  0  0  0  0  0  0  0
  160.8950  203.0750  145.4510 C   0  0  0  0  0  1  0  0  0  0  0  0
  161.7950  204.2870  145.5930 C   0  0  0  0  0  2  0  0  0  0  0  0
  161.2770  206.0900  154.5160 C   0  0  0  0  0  2  0  0  0  0  0  0
  160.0670  206.8470  154.7990 N   0  0  0  0  0  2  0  0  0  0  0  0
  160.0180  207.0490  156.1860 N   0  0  0  0  0  2  0  0  0  0  0  0
  161.2430  207.7410  156.5670 C   0  0  0  0  0  2  0  0  0  0  0  0
  160.9120  209.0490  157.2610 C   0  0  0  0  0  2  0  0  0  0  0  0
  160.2760  209.9500  156.3060 N   0  0  0  0  0  2  0  0  0  0  0  0
  158.0940  213.3970  154.1400 C   0  0  0  0  0  3  0  0  0  0  0  0
  161.2060  211.0140  155.9000 C   0  0  2  0  0  0  0  0  0  0  0  0
  160.8390  212.3620  156.5370 C   0  0  0  0  0  2  0  0  0  0  0  0
  157.8020  213.2980  152.7760 C   0  0  0  0  0  3  0  0  0  0  0  0
  159.6600  211.7740  152.4930 C   0  0  0  0  0  3  0  0  0  0  0  0
  159.9500  211.8550  153.8590 C   0  0  0  0  0  0  0  0  0  0  0  0
  159.1730  212.6970  154.6850 C   0  0  0  0  0  0  0  0  0  0  0  0
  158.5860  212.4900  151.9530 C   0  0  0  0  0  3  0  0  0  0  0  0
  161.1720  211.1510  154.3760 C   0  0  0  0  0  2  0  0  0  0  0  0
  159.4180  212.7860  156.1640 C   0  0  0  0  0  2  0  0  0  0  0  0
  162.5100  210.6720  156.2720 O   0  0  0  0  0  1  0  0  0  0  0  0
  1 10  2  0  0  0  0
  2 10  1  0  0  0  0
  3  6  2  0  0  0  0
  4  9  1  0  0  0  0
  5  4  2  0  0  0  0
  6 11  1  0  0  0  0
  6  1  1  0  0  0  0
  7  3  1  0  0  0  0
  7  9  1  0  0  0  0
  8  1  1  0  0  0  0
  9  8  2  0  0  0  0
 10 31  1  0  0  0  0
 11  2  2  0  0  0  0
 12  5  1  0  0  0  0
 12  7  2  0  0  0  0
 13 15  1  0  0  0  0
 14 19  1  0  0  0  0
 15 18  2  0  0  0  0
 15  5  1  0  0  0  0
 16 18  1  0  0  0  0
 17 19  1  0  0  0  0
 17 13  2  0  0  0  0
 19 16  2  0  0  0  0
 20 22  2  0  0  0  0
 22 21  1  0  0  0  0
 23 22  1  0  0  0  0
 23 17  1  0  0  0  0
 24 27  1  0  0  0  0
 25 26  2  0  0  0  0
 26 24  1  0  0  0  0
 27 28  2  0  0  0  0
 27  3  1  0  0  0  0
 29 30  1  0  0  0  0
 30 26  1  0  0  0  0
 31 32  1  0  0  0  0
 32 33  1  0  0  0  0
 33 34  1  0  0  0  0
 34 35  1  0  0  0  0
 36 35  1  0  0  0  0
 37 43  1  0  0  0  0
 38 47  1  1  0  0  0
 38 36  1  0  0  0  0
 38 39  1  0  0  0  0
 40 37  2  0  0  0  0
 41 42  1  0  0  0  0
 42 45  1  0  0  0  0
 42 43  2  0  0  0  0
 43 46  1  0  0  0  0
 44 41  2  0  0  0  0
 44 40  1  0  0  0  0
 45 38  1  0  0  0  0
 46 39  1  0  0  0  0
M  END
>  <MODEL>
1

>  <REMARK>
 VINA RESULT:      -8.6      0.000      0.000
  Name = 
  11 active torsions:
  status: ('A' for Active; 'I' for Inactive)
    1  A    between atoms: N_2  and  N_17
    2  A    between atoms: N_2  and  C_18
    3  A    between atoms: C_8  and  N_12
    4  A    between atoms: C_8  and  C_18
    5  A    between atoms: C_11  and  C_29
    6  A    between atoms: N_12  and  C_13
    7  A    between atoms: C_16  and  N_17
    8  A    between atoms: C_16  and  C_43
    9  A    between atoms: C_22  and  C_25
   10  A    between atoms: C_23  and  N_47
   11  A    between atoms: C_27  and  C_40
                            x       y       z     vdW  Elec       q    Type
                         _______ _______ _______ _____ _____    ______ ____

>  <TORSDO>
F 11

$$$$
=
 OpenBabel11042421543D

 47 52  0  0  1  0  0  0  0  0999 V2000
  161.6530  206.6950  151.8400 C   0  0  0  0  0  0  0  0  0  0  0  0
  161.3200  205.6360  153.8080 N   0  0  0  0  0  0  0  0  0  0  0  0
  161.3490  209.0200  152.5220 C   0  0  0  0  0  0  0  0  0  0  0  0
  162.0840  209.0670  148.9370 C   0  0  0  0  0  3  0  0  0  0  0  0
  161.9430  210.3670  149.2080 C   0  0  0  0  0  0  0  0  0  0  0  0
  161.3590  207.6390  152.8030 C   0  0  0  0  0  0  0  0  0  0  0  0
  161.6280  209.3700  151.1820 C   0  0  0  0  0  0  0  0  0  0  0  0
  161.9210  207.0400  150.5080 C   0  0  0  0  0  3  0  0  0  0  0  0
  161.8880  208.4090  150.2160 C   0  0  0  0  0  0  0  0  0  0  0  0
  161.6430  205.5080  152.4200 C   0  0  0  0  0  0  0  0  0  0  0  0
  161.1540  206.9030  154.0450 C   0  0  0  0  0  3  0  0  0  0  0  0
  161.6500  210.5750  150.6370 C   0  0  0  0  0  3  0  0  0  0  0  0
  160.9210  211.7520  147.4150 C   0  0  0  0  0  3  0  0  0  0  0  0
  162.2790  214.4530  145.2950 O   0  0  0  0  0  1  0  0  0  0  0  0
  162.0300  211.4480  148.2140 C   0  0  0  0  0  0  0  0  0  0  0  0
  163.2940  213.1660  147.0580 C   0  0  0  0  0  3  0  0  0  0  0  0
  160.9820  212.7610  146.4440 C   0  0  0  0  0  0  0  0  0  0  0  0
  163.2180  212.1670  148.0320 C   0  0  0  0  0  3  0  0  0  0  0  0
  162.1840  213.4610  146.2630 C   0  0  0  0  0  0  0  0  0  0  0  0
  158.6870  213.2270  143.6110 O   0  0  0  0  0  1  0  0  0  0  0  0
  160.7010  212.1500  143.5090 O   0  0  0  0  0  0  0  0  0  0  0  0
  159.7190  212.8340  144.2160 C   0  0  0  0  0  0  0  0  0  0  0  0
  159.8510  213.0830  145.6230 N   0  0  0  0  0  2  0  0  0  0  0  0
  159.6920  210.2570  153.9570 N   0  0  0  0  0  2  0  0  0  0  0  0
  158.0340  211.2790  155.2190 O   0  0  0  0  0  0  0  0  0  0  0  0
  159.2610  211.0360  155.0790 C   0  0  0  0  0  0  0  0  0  0  0  0
  161.0490  210.0250  153.5650 C   0  0  0  0  0  0  0  0  0  0  0  0
  161.9830  210.6880  154.0840 O   0  0  0  0  0  0  0  0  0  0  0  0
  160.0030  212.9760  156.4000 C   0  0  0  0  0  1  0  0  0  0  0  0
  160.2100  211.4980  156.1330 C   0  0  0  0  0  2  0  0  0  0  0  0
  161.9330  204.2050  151.7550 C   0  0  0  0  0  2  0  0  0  0  0  0
  160.8690  203.2530  152.0350 N   0  0  0  0  0  2  0  0  0  0  0  0
  160.2220  202.9820  150.8190 N   0  0  0  0  0  2  0  0  0  0  0  0
  160.4410  201.5740  150.5170 C   0  0  0  0  0  2  0  0  0  0  0  0
  159.5440  201.1380  149.3740 C   0  0  0  0  0  2  0  0  0  0  0  0
  159.7580  202.0210  148.2320 N   0  0  0  0  0  2  0  0  0  0  0  0
  161.6730  205.7550  146.3030 C   0  0  0  0  0  3  0  0  0  0  0  0
  161.0240  201.6970  147.5580 C   0  0  2  0  0  0  0  0  0  0  0  0
  162.2000  202.4890  148.1490 C   0  0  0  0  0  2  0  0  0  0  0  0
  161.2530  206.1900  145.0430 C   0  0  0  0  0  3  0  0  0  0  0  0
  160.5630  203.9350  144.5000 C   0  0  0  0  0  3  0  0  0  0  0  0
  160.9670  203.4950  145.7650 C   0  0  0  0  0  0  0  0  0  0  0  0
  161.5520  204.4120  146.6650 C   0  0  0  0  0  0  0  0  0  0  0  0
  160.7010  205.2800  144.1410 C   0  0  0  0  0  3  0  0  0  0  0  0
  160.8940  202.0250  146.0700 C   0  0  0  0  0  2  0  0  0  0  0  0
  161.9630  203.9960  148.0490 C   0  0  0  0  0  2  0  0  0  0  0  0
  161.2890  200.3300  147.6770 O   0  0  0  0  0  1  0  0  0  0  0  0
  1 10  1  0  0  0  0
  1  6  1  0  0  0  0
  2 11  1  0  0  0  0
  3  6  1  0  0  0  0
  3 27  1  0  0  0  0
  4  5  1  0  0  0  0
  4  9  2  0  0  0  0
  5 12  2  0  0  0  0
  6 11  2  0  0  0  0
  7  3  2  0  0  0  0
  8  1  2  0  0  0  0
  9  8  1  0  0  0  0
  9  7  1  0  0  0  0
 10  2  2  0  0  0  0
 12  7  1  0  0  0  0
 13 15  1  0  0  0  0
 14 19  1  0  0  0  0
 15  5  1  0  0  0  0
 16 18  1  0  0  0  0
 17 13  2  0  0  0  0
 18 15  2  0  0  0  0
 19 17  1  0  0  0  0
 19 16  2  0  0  0  0
 20 22  1  0  0  0  0
 21 22  2  0  0  0  0
 22 23  1  0  0  0  0
 23 17  1  0  0  0  0
 24 26  1  0  0  0  0
 26 25  2  0  0  0  0
 26 30  1  0  0  0  0
 27 24  1  0  0  0  0
 27 28  2  0  0  0  0
 30 29  1  0  0  0  0
 31 32  1  0  0  0  0
 31 10  1  0  0  0  0
 33 32  1  0  0  0  0
 34 33  1  0  0  0  0
 35 34  1  0  0  0  0
 36 35  1  0  0  0  0
 37 43  1  0  0  0  0
 38 47  1  1  0  0  0
 38 39  1  0  0  0  0
 38 36  1  0  0  0  0
 40 37  2  0  0  0  0
 41 42  1  0  0  0  0
 42 45  1  0  0  0  0
 42 43  2  0  0  0  0
 43 46  1  0  0  0  0
 44 41  2  0  0  0  0
 44 40  1  0  0  0  0
 45 38  1  0  0  0  0
 46 39  1  0  0  0  0
M  END
>  <MODEL>
2

>  <REMARK>
 VINA RESULT:      -8.1      2.072      7.870
  Name = 
  11 active torsions:
  status: ('A' for Active; 'I' for Inactive)
    1  A    between atoms: N_2  and  N_17
    2  A    between atoms: N_2  and  C_18
    3  A    between atoms: C_8  and  N_12
    4  A    between atoms: C_8  and  C_18
    5  A    between atoms: C_11  and  C_29
    6  A    between atoms: N_12  and  C_13
    7  A    between atoms: C_16  and  N_17
    8  A    between atoms: C_16  and  C_43
    9  A    between atoms: C_22  and  C_25
   10  A    between atoms: C_23  and  N_47
   11  A    between atoms: C_27  and  C_40
                            x       y       z     vdW  Elec       q    Type
                         _______ _______ _______ _____ _____    ______ ____

>  <TORSDO>
F 11

$$$$
=
 OpenBabel11042421543D

 47 52  0  0  1  0  0  0  0  0999 V2000
  161.2930  205.8010  145.7910 C   0  0  0  0  0  0  0  0  0  0  0  0
  161.1920  204.0490  144.3670 N   0  0  0  0  0  0  0  0  0  0  0  0
  161.3670  204.6340  147.9350 C   0  0  0  0  0  0  0  0  0  0  0  0
  161.4710  208.2150  148.6840 C   0  0  0  0  0  3  0  0  0  0  0  0
  161.5220  207.6750  149.9040 C   0  0  0  0  0  0  0  0  0  0  0  0
  161.2750  204.6350  146.5290 C   0  0  0  0  0  0  0  0  0  0  0  0
  161.4460  205.9090  148.5380 C   0  0  0  0  0  0  0  0  0  0  0  0
  161.3620  207.0660  146.3880 C   0  0  0  0  0  3  0  0  0  0  0  0
  161.4280  207.0750  147.7870 C   0  0  0  0  0  0  0  0  0  0  0  0
  161.2540  205.4710  144.5110 C   0  0  0  0  0  0  0  0  0  0  0  0
  161.2090  203.5430  145.5630 C   0  0  0  0  0  3  0  0  0  0  0  0
  161.5050  206.2040  149.8270 C   0  0  0  0  0  3  0  0  0  0  0  0
  160.8300  207.9840  152.2720 C   0  0  0  0  0  3  0  0  0  0  0  0
  161.5350  210.6490  154.7290 O   0  0  0  0  0  1  0  0  0  0  0  0
  161.5530  208.4390  151.1620 C   0  0  0  0  0  0  0  0  0  0  0  0
  162.2650  210.3650  152.4530 C   0  0  0  0  0  3  0  0  0  0  0  0
  160.8240  208.7030  153.4750 C   0  0  0  0  0  0  0  0  0  0  0  0
  162.2760  209.6330  151.2620 C   0  0  0  0  0  3  0  0  0  0  0  0
  161.5390  209.9060  153.5550 C   0  0  0  0  0  0  0  0  0  0  0  0
  159.8750  207.3160  156.7440 O   0  0  0  0  0  1  0  0  0  0  0  0
  162.0180  207.7290  156.0620 O   0  0  0  0  0  0  0  0  0  0  0  0
  160.6450  207.7410  155.8440 C   0  0  0  0  0  0  0  0  0  0  0  0
  160.0900  208.2450  154.6190 N   0  0  0  0  0  2  0  0  0  0  0  0
  161.1780  203.4250  150.1340 N   0  0  0  0  0  2  0  0  0  0  0  0
  160.9500  202.4730  152.2370 O   0  0  0  0  0  0  0  0  0  0  0  0
  160.9470  202.3020  150.9910 C   0  0  0  0  0  0  0  0  0  0  0  0
  161.3630  203.3790  148.7150 C   0  0  0  0  0  0  0  0  0  0  0  0
  161.5490  202.2790  148.1340 O   0  0  0  0  0  0  0  0  0  0  0  0
  159.2160  200.9470  149.8840 C   0  0  0  0  0  1  0  0  0  0  0  0
  160.6210  200.9500  150.4520 C   0  0  0  0  0  2  0  0  0  0  0  0
  161.2800  206.4200  143.3610 C   0  0  0  0  0  2  0  0  0  0  0  0
  161.9210  205.7970  142.2130 N   0  0  0  0  0  2  0  0  0  0  0  0
  162.3590  206.8290  141.3700 N   0  0  0  0  0  2  0  0  0  0  0  0
  161.9850  206.4650  140.0100 C   0  0  0  0  0  2  0  0  0  0  0  0
  161.6010  207.7040  139.2230 C   0  0  0  0  0  2  0  0  0  0  0  0
  161.9020  208.8900  140.0180 N   0  0  0  0  0  2  0  0  0  0  0  0
  162.6440  212.6610  142.5800 C   0  0  0  0  0  3  0  0  0  0  0  0
  161.2860  210.0830  139.4210 C   0  0  2  0  0  0  0  0  0  0  0  0
  162.3300  211.1670  139.1130 C   0  0  0  0  0  2  0  0  0  0  0  0
  161.8250  212.9360  143.6790 C   0  0  0  0  0  3  0  0  0  0  0  0
  160.0300  211.6810  142.6530 C   0  0  0  0  0  3  0  0  0  0  0  0
  160.8460  211.3880  141.5560 C   0  0  0  0  0  0  0  0  0  0  0  0
  162.1590  211.9060  141.5090 C   0  0  0  0  0  0  0  0  0  0  0  0
  160.5190  212.4500  143.7150 C   0  0  0  0  0  3  0  0  0  0  0  0
  160.2480  210.6470  140.3940 C   0  0  0  0  0  2  0  0  0  0  0  0
  163.0870  211.5860  140.3730 C   0  0  0  0  0  2  0  0  0  0  0  0
  160.6250  209.7360  138.2390 O   0  0  0  0  0  1  0  0  0  0  0  0
  1  8  2  0  0  0  0
  1  6  1  0  0  0  0
  2 10  2  0  0  0  0
  2 11  1  0  0  0  0
  3  7  2  0  0  0  0
  3 27  1  0  0  0  0
  4  5  1  0  0  0  0
  5 15  1  0  0  0  0
  6  3  1  0  0  0  0
  7 12  1  0  0  0  0
  8  9  1  0  0  0  0
  9  7  1  0  0  0  0
  9  4  2  0  0  0  0
 10  1  1  0  0  0  0
 11  6  2  0  0  0  0
 12  5  2  0  0  0  0
 13 17  1  0  0  0  0
 15 18  1  0  0  0  0
 15 13  2  0  0  0  0
 16 19  1  0  0  0  0
 17 19  2  0  0  0  0
 17 23  1  0  0  0  0
 18 16  2  0  0  0  0
 19 14  1  0  0  0  0
 22 21  2  0  0  0  0
 22 20  1  0  0  0  0
 23 22  1  0  0  0  0
 24 26  1  0  0  0  0
 26 25  2  0  0  0  0
 27 24  1  0  0  0  0
 28 27  2  0  0  0  0
 29 30  1  0  0  0  0
 30 26  1  0  0  0  0
 31 10  1  0  0  0  0
 32 31  1  0  0  0  0
 33 32  1  0  0  0  0
 34 33  1  0  0  0  0
 35 34  1  0  0  0  0
 35 36  1  0  0  0  0
 37 40  1  0  0  0  0
 38 47  1  6  0  0  0
 38 36  1  0  0  0  0
 38 45  1  0  0  0  0
 39 38  1  0  0  0  0
 39 46  1  0  0  0  0
 40 44  2  0  0  0  0
 41 44  1  0  0  0  0
 42 41  2  0  0  0  0
 43 42  1  0  0  0  0
 43 37  2  0  0  0  0
 45 42  1  0  0  0  0
 46 43  1  0  0  0  0
M  END
>  <MODEL>
3

>  <REMARK>
 VINA RESULT:      -6.4      3.874     10.200
  Name = 
  11 active torsions:
  status: ('A' for Active; 'I' for Inactive)
    1  A    between atoms: N_2  and  N_17
    2  A    between atoms: N_2  and  C_18
    3  A    between atoms: C_8  and  N_12
    4  A    between atoms: C_8  and  C_18
    5  A    between atoms: C_11  and  C_29
    6  A    between atoms: N_12  and  C_13
    7  A    between atoms: C_16  and  N_17
    8  A    between atoms: C_16  and  C_43
    9  A    between atoms: C_22  and  C_25
   10  A    between atoms: C_23  and  N_47
   11  A    between atoms: C_27  and  C_40
                            x       y       z     vdW  Elec       q    Type
                         _______ _______ _______ _____ _____    ______ ____

>  <TORSDO>
F 11

$$$$
=
 OpenBabel11042421543D

 47 52  0  0  1  0  0  0  0  0999 V2000
  161.3450  205.7320  145.8540 C   0  0  0  0  0  0  0  0  0  0  0  0
  161.3880  204.0970  144.2950 N   0  0  0  0  0  0  0  0  0  0  0  0
  161.2640  204.4010  147.8990 C   0  0  0  0  0  0  0  0  0  0  0  0
  161.2510  207.9120  148.9320 C   0  0  0  0  0  3  0  0  0  0  0  0
  161.2120  207.2770  150.1060 C   0  0  0  0  0  0  0  0  0  0  0  0
  161.2860  204.5110  146.4950 C   0  0  0  0  0  0  0  0  0  0  0  0
  161.2740  205.6240  148.6050 C   0  0  0  0  0  0  0  0  0  0  0  0
  161.3460  206.9470  146.5520 C   0  0  0  0  0  3  0  0  0  0  0  0
  161.2990  206.8460  147.9480 C   0  0  0  0  0  0  0  0  0  0  0  0
  161.4150  205.5040  144.5540 C   0  0  0  0  0  0  0  0  0  0  0  0
  161.3150  203.4980  145.4450 C   0  0  0  0  0  3  0  0  0  0  0  0
  161.2240  205.8170  149.9130 C   0  0  0  0  0  3  0  0  0  0  0  0
  160.9520  209.3270  151.4890 C   0  0  0  0  0  3  0  0  0  0  0  0
  160.9960  209.8720  155.1410 O   0  0  0  0  0  1  0  0  0  0  0  0
  161.1290  207.9400  151.4180 C   0  0  0  0  0  0  0  0  0  0  0  0
  161.2060  207.8560  153.8410 C   0  0  0  0  0  3  0  0  0  0  0  0
  160.8920  209.9870  152.7250 C   0  0  0  0  0  0  0  0  0  0  0  0
  161.2500  207.2060  152.6040 C   0  0  0  0  0  3  0  0  0  0  0  0
  161.0320  209.2410  153.9030 C   0  0  0  0  0  0  0  0  0  0  0  0
  159.4420  213.3580  152.9250 O   0  0  0  0  0  0  0  0  0  0  0  0
  158.2570  211.4070  153.0440 O   0  0  0  0  0  1  0  0  0  0  0  0
  159.4550  212.1000  152.9210 C   0  0  0  0  0  0  0  0  0  0  0  0
  160.7080  211.4070  152.8090 N   0  0  0  0  0  2  0  0  0  0  0  0
  161.2330  203.0250  150.0070 N   0  0  0  0  0  2  0  0  0  0  0  0
  161.1830  201.9160  152.0450 O   0  0  0  0  0  0  0  0  0  0  0  0
  160.9900  201.8600  150.8030 C   0  0  0  0  0  0  0  0  0  0  0  0
  161.2170  203.0870  148.5770 C   0  0  0  0  0  0  0  0  0  0  0  0
  161.1890  202.0300  147.8950 O   0  0  0  0  0  0  0  0  0  0  0  0
  158.9740  200.8050  149.8620 C   0  0  0  0  0  1  0  0  0  0  0  0
  160.4340  200.6050  150.2180 C   0  0  0  0  0  2  0  0  0  0  0  0
  161.5190  206.5410  143.4870 C   0  0  0  0  0  2  0  0  0  0  0  0
  161.6380  205.9060  142.1830 N   0  0  0  0  0  2  0  0  0  0  0  0
  162.3180  206.8020  141.3450 N   0  0  0  0  0  2  0  0  0  0  0  0
  162.0180  206.4230  139.9710 C   0  0  0  0  0  2  0  0  0  0  0  0
  161.5850  207.6390  139.1730 C   0  0  0  0  0  2  0  0  0  0  0  0
  161.9280  208.8460  139.9180 N   0  0  0  0  0  2  0  0  0  0  0  0
  162.6620  212.6590  142.4200 C   0  0  0  0  0  3  0  0  0  0  0  0
  161.2830  210.0230  139.3180 C   0  0  2  0  0  0  0  0  0  0  0  0
  162.3040  211.1180  138.9770 C   0  0  0  0  0  2  0  0  0  0  0  0
  161.8610  212.9360  143.5310 C   0  0  0  0  0  3  0  0  0  0  0  0
  160.0650  211.6420  142.5540 C   0  0  0  0  0  3  0  0  0  0  0  0
  160.8640  211.3480  141.4450 C   0  0  0  0  0  0  0  0  0  0  0  0
  162.1680  211.8840  141.3670 C   0  0  0  0  0  0  0  0  0  0  0  0
  160.5620  212.4300  143.5970 C   0  0  0  0  0  3  0  0  0  0  0  0
  160.2550  210.5840  140.3030 C   0  0  0  0  0  2  0  0  0  0  0  0
  163.0800  211.5630  140.2170 C   0  0  0  0  0  2  0  0  0  0  0  0
  160.6050  209.6520  138.1530 O   0  0  0  0  0  1  0  0  0  0  0  0
  1  6  1  0  0  0  0
  1  8  2  0  0  0  0
  2 10  2  0  0  0  0
  2 11  1  0  0  0  0
  3 27  1  0  0  0  0
  3  7  2  0  0  0  0
  4  5  1  0  0  0  0
  5 15  1  0  0  0  0
  6  3  1  0  0  0  0
  7 12  1  0  0  0  0
  8  9  1  0  0  0  0
  9  7  1  0  0  0  0
  9  4  2  0  0  0  0
 10  1  1  0  0  0  0
 11  6  2  0  0  0  0
 12  5  2  0  0  0  0
 13 17  1  0  0  0  0
 15 13  2  0  0  0  0
 15 18  1  0  0  0  0
 16 19  1  0  0  0  0
 17 23  1  0  0  0  0
 17 19  2  0  0  0  0
 18 16  2  0  0  0  0
 19 14  1  0  0  0  0
 22 20  2  0  0  0  0
 22 21  1  0  0  0  0
 23 22  1  0  0  0  0
 24 26  1  0  0  0  0
 26 25  2  0  0  0  0
 27 24  1  0  0  0  0
 28 27  2  0  0  0  0
 29 30  1  0  0  0  0
 30 26  1  0  0  0  0
 31 10  1  0  0  0  0
 32 31  1  0  0  0  0
 33 32  1  0  0  0  0
 34 33  1  0  0  0  0
 35 36  1  0  0  0  0
 35 34  1  0  0  0  0
 37 40  1  0  0  0  0
 38 47  1  6  0  0  0
 38 36  1  0  0  0  0
 38 45  1  0  0  0  0
 39 38  1  0  0  0  0
 39 46  1  0  0  0  0
 40 44  2  0  0  0  0
 41 44  1  0  0  0  0
 42 41  2  0  0  0  0
 43 42  1  0  0  0  0
 43 37  2  0  0  0  0
 45 42  1  0  0  0  0
 46 43  1  0  0  0  0
M  END
>  <MODEL>
4

>  <REMARK>
 VINA RESULT:      -6.3      4.074      9.968
  Name = 
  11 active torsions:
  status: ('A' for Active; 'I' for Inactive)
    1  A    between atoms: N_2  and  N_17
    2  A    between atoms: N_2  and  C_18
    3  A    between atoms: C_8  and  N_12
    4  A    between atoms: C_8  and  C_18
    5  A    between atoms: C_11  and  C_29
    6  A    between atoms: N_12  and  C_13
    7  A    between atoms: C_16  and  N_17
    8  A    between atoms: C_16  and  C_43
    9  A    between atoms: C_22  and  C_25
   10  A    between atoms: C_23  and  N_47
   11  A    between atoms: C_27  and  C_40
                            x       y       z     vdW  Elec       q    Type
                         _______ _______ _______ _____ _____    ______ ____

>  <TORSDO>
F 11

$$$$
=
 OpenBabel11042421543D

 47 52  0  0  1  0  0  0  0  0999 V2000
  161.3830  205.7190  145.8230 C   0  0  0  0  0  0  0  0  0  0  0  0
  161.4230  204.0840  144.2630 N   0  0  0  0  0  0  0  0  0  0  0  0
  161.2790  204.3880  147.8670 C   0  0  0  0  0  0  0  0  0  0  0  0
  161.2870  207.8990  148.9000 C   0  0  0  0  0  3  0  0  0  0  0  0
  161.2350  207.2640  150.0740 C   0  0  0  0  0  0  0  0  0  0  0  0
  161.3100  204.4990  146.4630 C   0  0  0  0  0  0  0  0  0  0  0  0
  161.2940  205.6110  148.5730 C   0  0  0  0  0  0  0  0  0  0  0  0
  161.3890  206.9340  146.5210 C   0  0  0  0  0  3  0  0  0  0  0  0
  161.3330  206.8330  147.9170 C   0  0  0  0  0  0  0  0  0  0  0  0
  161.4590  205.4910  144.5230 C   0  0  0  0  0  0  0  0  0  0  0  0
  161.3380  203.4860  145.4130 C   0  0  0  0  0  3  0  0  0  0  0  0
  161.2370  205.8040  149.8810 C   0  0  0  0  0  3  0  0  0  0  0  0
  160.9880  209.3160  151.4560 C   0  0  0  0  0  3  0  0  0  0  0  0
  161.0080  209.8580  155.1090 O   0  0  0  0  0  1  0  0  0  0  0  0
  161.1490  207.9270  151.3850 C   0  0  0  0  0  0  0  0  0  0  0  0
  161.2050  207.8410  153.8090 C   0  0  0  0  0  3  0  0  0  0  0  0
  160.9250  209.9760  152.6920 C   0  0  0  0  0  0  0  0  0  0  0  0
  161.2520  207.1920  152.5730 C   0  0  0  0  0  3  0  0  0  0  0  0
  161.0470  209.2280  153.8710 C   0  0  0  0  0  0  0  0  0  0  0  0
  159.5160  213.3690  152.8030 O   0  0  0  0  0  1  0  0  0  0  0  0
  158.2950  211.4360  152.7970 O   0  0  0  0  0  0  0  0  0  0  0  0
  159.5100  212.1110  152.7870 C   0  0  0  0  0  0  0  0  0  0  0  0
  160.7560  211.3980  152.7750 N   0  0  0  0  0  2  0  0  0  0  0  0
  161.2080  203.0130  149.9740 N   0  0  0  0  0  2  0  0  0  0  0  0
  161.1190  201.9040  152.0110 O   0  0  0  0  0  0  0  0  0  0  0  0
  160.9480  201.8480  150.7660 C   0  0  0  0  0  0  0  0  0  0  0  0
  161.2170  203.0750  148.5440 C   0  0  0  0  0  0  0  0  0  0  0  0
  161.1980  202.0180  147.8620 O   0  0  0  0  0  0  0  0  0  0  0  0
  158.9420  200.7930  149.8040 C   0  0  0  0  0  1  0  0  0  0  0  0
  160.3990  200.5950  150.1720 C   0  0  0  0  0  2  0  0  0  0  0  0
  161.5780  206.5270  143.4570 C   0  0  0  0  0  2  0  0  0  0  0  0
  161.7370  205.8920  142.1580 N   0  0  0  0  0  2  0  0  0  0  0  0
  161.9630  206.9120  141.2210 N   0  0  0  0  0  2  0  0  0  0  0  0
  162.5100  206.2870  140.0250 C   0  0  0  0  0  2  0  0  0  0  0  0
  161.9500  206.9530  138.7810 C   0  0  0  0  0  2  0  0  0  0  0  0
  161.3010  208.2040  139.1600 N   0  0  0  0  0  2  0  0  0  0  0  0
  159.5660  212.2930  140.4280 C   0  0  0  0  0  3  0  0  0  0  0  0
  161.5060  209.2270  138.1250 C   0  0  2  0  0  0  0  0  0  0  0  0
  162.3330  210.4100  138.6520 C   0  0  0  0  0  2  0  0  0  0  0  0
  158.2060  212.5640  140.2550 C   0  0  0  0  0  3  0  0  0  0  0  0
  158.1220  210.9640  138.4420 C   0  0  0  0  0  3  0  0  0  0  0  0
  159.4790  210.6750  138.6180 C   0  0  0  0  0  0  0  0  0  0  0  0
  160.2130  211.3670  139.6060 C   0  0  0  0  0  0  0  0  0  0  0  0
  157.4850  211.9020  139.2610 C   0  0  0  0  0  3  0  0  0  0  0  0
  160.1440  209.7370  137.6510 C   0  0  0  0  0  2  0  0  0  0  0  0
  161.6620  211.0640  139.8600 C   0  0  0  0  0  2  0  0  0  0  0  0
  162.1630  208.6660  137.0260 O   0  0  0  0  0  1  0  0  0  0  0  0
  1  6  1  0  0  0  0
  1  8  2  0  0  0  0
  2 10  2  0  0  0  0
  2 11  1  0  0  0  0
  3 27  1  0  0  0  0
  3  7  2  0  0  0  0
  4  5  1  0  0  0  0
  5 15  1  0  0  0  0
  6  3  1  0  0  0  0
  7 12  1  0  0  0  0
  8  9  1  0  0  0  0
  9  7  1  0  0  0  0
  9  4  2  0  0  0  0
 10  1  1  0  0  0  0
 11  6  2  0  0  0  0
 12  5  2  0  0  0  0
 13 17  1  0  0  0  0
 15 13  2  0  0  0  0
 15 18  1  0  0  0  0
 16 19  1  0  0  0  0
 17 23  1  0  0  0  0
 17 19  2  0  0  0  0
 18 16  2  0  0  0  0
 19 14  1  0  0  0  0
 22 21  2  0  0  0  0
 22 20  1  0  0  0  0
 23 22  1  0  0  0  0
 24 26  1  0  0  0  0
 26 25  2  0  0  0  0
 27 24  1  0  0  0  0
 28 27  2  0  0  0  0
 29 30  1  0  0  0  0
 30 26  1  0  0  0  0
 31 10  1  0  0  0  0
 32 31  1  0  0  0  0
 33 32  1  0  0  0  0
 34 33  1  0  0  0  0
 35 36  1  0  0  0  0
 35 34  1  0  0  0  0
 38 47  1  6  0  0  0
 38 39  1  0  0  0  0
 38 36  1  0  0  0  0
 39 46  1  0  0  0  0
 40 37  1  0  0  0  0
 41 42  2  0  0  0  0
 41 44  1  0  0  0  0
 42 43  1  0  0  0  0
 43 46  1  0  0  0  0
 43 37  2  0  0  0  0
 44 40  2  0  0  0  0
 45 38  1  0  0  0  0
 45 42  1  0  0  0  0
M  END
>  <MODEL>
5

>  <REMARK>
 VINA RESULT:      -6.1      4.765     10.616
  Name = 
  11 active torsions:
  status: ('A' for Active; 'I' for Inactive)
    1  A    between atoms: N_2  and  N_17
    2  A    between atoms: N_2  and  C_18
    3  A    between atoms: C_8  and  N_12
    4  A    between atoms: C_8  and  C_18
    5  A    between atoms: C_11  and  C_29
    6  A    between atoms: N_12  and  C_13
    7  A    between atoms: C_16  and  N_17
    8  A    between atoms: C_16  and  C_43
    9  A    between atoms: C_22  and  C_25
   10  A    between atoms: C_23  and  N_47
   11  A    between atoms: C_27  and  C_40
                            x       y       z     vdW  Elec       q    Type
                         _______ _______ _______ _____ _____    ______ ____

>  <TORSDO>
F 11

$$$$
=
 OpenBabel11042421543D

 47 52  0  0  1  0  0  0  0  0999 V2000
  161.3070  205.8450  146.0070 C   0  0  0  0  0  0  0  0  0  0  0  0
  161.0710  204.1690  144.5100 N   0  0  0  0  0  0  0  0  0  0  0  0
  160.9930  204.6270  148.1000 C   0  0  0  0  0  0  0  0  0  0  0  0
  161.5810  208.1250  149.0000 C   0  0  0  0  0  3  0  0  0  0  0  0
  161.4310  207.5520  150.1970 C   0  0  0  0  0  0  0  0  0  0  0  0
  161.0370  204.6780  146.6930 C   0  0  0  0  0  0  0  0  0  0  0  0
  161.2110  205.8570  148.7590 C   0  0  0  0  0  0  0  0  0  0  0  0
  161.5150  207.0680  146.6590 C   0  0  0  0  0  3  0  0  0  0  0  0
  161.4480  207.0300  148.0580 C   0  0  0  0  0  0  0  0  0  0  0  0
  161.3400  205.5590  144.7170 C   0  0  0  0  0  0  0  0  0  0  0  0
  160.8940  203.6360  145.6810 C   0  0  0  0  0  3  0  0  0  0  0  0
  161.1920  206.1050  150.0590 C   0  0  0  0  0  3  0  0  0  0  0  0
  161.3270  207.5560  152.6810 C   0  0  0  0  0  3  0  0  0  0  0  0
  161.4320  210.2930  155.1580 O   0  0  0  0  0  1  0  0  0  0  0  0
  161.4600  208.2680  151.4820 C   0  0  0  0  0  0  0  0  0  0  0  0
  161.5830  210.3290  152.7560 C   0  0  0  0  0  3  0  0  0  0  0  0
  161.3280  208.2150  153.9180 C   0  0  0  0  0  0  0  0  0  0  0  0
  161.5940  209.6610  151.5280 C   0  0  0  0  0  3  0  0  0  0  0  0
  161.4460  209.6120  153.9470 C   0  0  0  0  0  0  0  0  0  0  0  0
  160.1360  206.9110  157.1410 O   0  0  0  0  0  1  0  0  0  0  0  0
  158.9510  208.2990  155.7640 O   0  0  0  0  0  0  0  0  0  0  0  0
  160.0870  207.5550  156.0620 C   0  0  0  0  0  0  0  0  0  0  0  0
  161.1960  207.4950  155.1520 N   0  0  0  0  0  2  0  0  0  0  0  0
  161.2320  202.1310  148.3210 N   0  0  0  0  0  2  0  0  0  0  0  0
  161.5780  199.8380  148.3870 O   0  0  0  0  0  0  0  0  0  0  0  0
  161.2280  200.8740  149.0070 C   0  0  0  0  0  0  0  0  0  0  0  0
  160.7180  203.3680  148.8250 C   0  0  0  0  0  0  0  0  0  0  0  0
  160.0140  203.3860  149.8670 O   0  0  0  0  0  0  0  0  0  0  0  0
  161.9760  201.4540  151.2800 C   0  0  0  0  0  1  0  0  0  0  0  0
  160.9020  200.7670  150.4590 C   0  0  0  0  0  2  0  0  0  0  0  0
  161.6240  206.5210  143.6130 C   0  0  0  0  0  2  0  0  0  0  0  0
  161.6210  205.8280  142.3340 N   0  0  0  0  0  2  0  0  0  0  0  0
  161.6260  206.8090  141.3300 N   0  0  0  0  0  2  0  0  0  0  0  0
  162.3820  206.2730  140.2060 C   0  0  0  0  0  2  0  0  0  0  0  0
  161.9570  206.9530  138.9170 C   0  0  0  0  0  2  0  0  0  0  0  0
  161.1890  208.1510  139.2380 N   0  0  0  0  0  2  0  0  0  0  0  0
  160.2380  212.2320  141.1810 C   0  0  0  0  0  3  0  0  0  0  0  0
  161.5950  209.2720  138.3780 C   0  0  2  0  0  0  0  0  0  0  0  0
  162.6230  210.1770  139.0740 C   0  0  0  0  0  2  0  0  0  0  0  0
  158.9550  212.7780  141.0800 C   0  0  0  0  0  3  0  0  0  0  0  0
  158.5940  211.5370  139.0340 C   0  0  0  0  0  3  0  0  0  0  0  0
  159.8700  210.9750  139.1360 C   0  0  0  0  0  0  0  0  0  0  0  0
  160.7100  211.3470  140.2090 C   0  0  0  0  0  0  0  0  0  0  0  0
  158.1350  212.4330  140.0060 C   0  0  0  0  0  3  0  0  0  0  0  0
  160.3590  210.0980  138.0180 C   0  0  0  0  0  2  0  0  0  0  0  0
  162.0720  210.7410  140.3840 C   0  0  0  0  0  2  0  0  0  0  0  0
  162.1480  208.7830  137.1900 O   0  0  0  0  0  1  0  0  0  0  0  0
  1  8  2  0  0  0  0
  1  6  1  0  0  0  0
  2 10  2  0  0  0  0
  2 11  1  0  0  0  0
  3  7  2  0  0  0  0
  3 27  1  0  0  0  0
  4  5  1  0  0  0  0
  5 15  1  0  0  0  0
  6  3  1  0  0  0  0
  7 12  1  0  0  0  0
  8  9  1  0  0  0  0
  9  7  1  0  0  0  0
  9  4  2  0  0  0  0
 10  1  1  0  0  0  0
 11  6  2  0  0  0  0
 12  5  2  0  0  0  0
 13 17  1  0  0  0  0
 15 18  1  0  0  0  0
 15 13  2  0  0  0  0
 16 19  1  0  0  0  0
 17 19  2  0  0  0  0
 17 23  1  0  0  0  0
 18 16  2  0  0  0  0
 19 14  1  0  0  0  0
 21 22  2  0  0  0  0
 22 20  1  0  0  0  0
 23 22  1  0  0  0  0
 24 27  1  0  0  0  0
 24 26  1  0  0  0  0
 25 26  2  0  0  0  0
 26 30  1  0  0  0  0
 27 28  2  0  0  0  0
 30 29  1  0  0  0  0
 31 10  1  0  0  0  0
 32 31  1  0  0  0  0
 33 32  1  0  0  0  0
 34 33  1  0  0  0  0
 35 36  1  0  0  0  0
 35 34  1  0  0  0  0
 38 47  1  6  0  0  0
 38 39  1  0  0  0  0
 38 36  1  0  0  0  0
 39 46  1  0  0  0  0
 40 37  1  0  0  0  0
 41 42  2  0  0  0  0
 41 44  1  0  0  0  0
 42 43  1  0  0  0  0
 43 46  1  0  0  0  0
 43 37  2  0  0  0  0
 44 40  2  0  0  0  0
 45 38  1  0  0  0  0
 45 42  1  0  0  0  0
M  END
>  <MODEL>
6

>  <REMARK>
 VINA RESULT:      -6.1      4.492     10.740
  Name = 
  11 active torsions:
  status: ('A' for Active; 'I' for Inactive)
    1  A    between atoms: N_2  and  N_17
    2  A    between atoms: N_2  and  C_18
    3  A    between atoms: C_8  and  N_12
    4  A    between atoms: C_8  and  C_18
    5  A    between atoms: C_11  and  C_29
    6  A    between atoms: N_12  and  C_13
    7  A    between atoms: C_16  and  N_17
    8  A    between atoms: C_16  and  C_43
    9  A    between atoms: C_22  and  C_25
   10  A    between atoms: C_23  and  N_47
   11  A    between atoms: C_27  and  C_40
                            x       y       z     vdW  Elec       q    Type
                         _______ _______ _______ _____ _____    ______ ____

>  <TORSDO>
F 11

$$$$
=
 OpenBabel11042421543D

 47 52  0  0  1  0  0  0  0  0999 V2000
  161.3130  205.7220  151.1600 C   0  0  0  0  0  0  0  0  0  0  0  0
  160.9730  203.5040  151.4310 N   0  0  0  0  0  0  0  0  0  0  0  0
  161.2330  205.8940  148.7250 C   0  0  0  0  0  0  0  0  0  0  0  0
  161.8270  209.2740  149.9980 C   0  0  0  0  0  3  0  0  0  0  0  0
  161.7950  209.4760  148.6780 C   0  0  0  0  0  0  0  0  0  0  0  0
  161.1940  205.1400  149.9140 C   0  0  0  0  0  0  0  0  0  0  0  0
  161.4340  207.2820  148.8940 C   0  0  0  0  0  0  0  0  0  0  0  0
  161.5210  207.0970  151.3280 C   0  0  0  0  0  3  0  0  0  0  0  0
  161.5860  207.8510  150.1500 C   0  0  0  0  0  0  0  0  0  0  0  0
  161.1750  204.7700  152.0660 C   0  0  0  0  0  0  0  0  0  0  0  0
  160.9790  203.7150  150.1490 C   0  0  0  0  0  3  0  0  0  0  0  0
  161.5470  208.2140  147.9600 C   0  0  0  0  0  3  0  0  0  0  0  0
  160.9560  211.4080  147.3570 C   0  0  0  0  0  3  0  0  0  0  0  0
  162.6320  214.4250  146.0450 O   0  0  0  0  0  1  0  0  0  0  0  0
  162.0140  210.7740  148.0210 C   0  0  0  0  0  0  0  0  0  0  0  0
  163.4750  212.5960  147.3640 C   0  0  0  0  0  3  0  0  0  0  0  0
  161.1410  212.6340  146.7020 C   0  0  0  0  0  0  0  0  0  0  0  0
  163.2760  211.3810  148.0250 C   0  0  0  0  0  3  0  0  0  0  0  0
  162.4150  213.2200  146.7010 C   0  0  0  0  0  0  0  0  0  0  0  0
  158.6470  213.6880  144.2170 O   0  0  0  0  0  1  0  0  0  0  0  0
  160.0610  211.9060  143.9880 O   0  0  0  0  0  0  0  0  0  0  0  0
  159.5640  212.9830  144.7130 C   0  0  0  0  0  0  0  0  0  0  0  0
  160.0640  213.2920  146.0230 N   0  0  0  0  0  2  0  0  0  0  0  0
  161.2060  203.8420  147.2680 N   0  0  0  0  0  2  0  0  0  0  0  0
  161.1850  201.8490  146.0810 O   0  0  0  0  0  0  0  0  0  0  0  0
  160.8930  203.0720  146.1020 C   0  0  0  0  0  0  0  0  0  0  0  0
  161.0890  205.2630  147.3960 C   0  0  0  0  0  0  0  0  0  0  0  0
  160.8900  205.9790  146.3800 O   0  0  0  0  0  0  0  0  0  0  0  0
  159.4550  202.5550  144.1730 C   0  0  0  0  0  1  0  0  0  0  0  0
  160.1560  203.6550  144.9440 C   0  0  0  0  0  2  0  0  0  0  0  0
  161.2100  204.9580  153.5460 C   0  0  0  0  0  2  0  0  0  0  0  0
  161.5460  206.3360  153.8670 N   0  0  0  0  0  2  0  0  0  0  0  0
  160.3620  206.9690  154.2750 N   0  0  0  0  0  2  0  0  0  0  0  0
  160.6300  207.6010  155.5600 C   0  0  0  0  0  2  0  0  0  0  0  0
  160.8310  209.0940  155.3780 C   0  0  0  0  0  2  0  0  0  0  0  0
  159.5290  209.7410  155.2520 N   0  0  0  0  0  2  0  0  0  0  0  0
  158.0790  213.7130  157.1110 C   0  0  0  0  0  3  0  0  0  0  0  0
  159.5920  210.8480  154.2880 C   0  0  2  0  0  0  0  0  0  0  0  0
  160.5100  211.9770  154.7810 C   0  0  0  0  0  2  0  0  0  0  0  0
  156.7130  214.0040  157.1720 C   0  0  0  0  0  3  0  0  0  0  0  0
  156.3260  212.5660  155.2640 C   0  0  0  0  0  3  0  0  0  0  0  0
  157.6890  212.2580  155.2060 C   0  0  0  0  0  0  0  0  0  0  0  0
  158.5770  212.8580  156.1240 C   0  0  0  0  0  0  0  0  0  0  0  0
  155.8380  213.4330  156.2470 C   0  0  0  0  0  3  0  0  0  0  0  0
  158.1830  211.4030  154.0730 C   0  0  0  0  0  2  0  0  0  0  0  0
  160.0420  212.5280  156.1280 C   0  0  0  0  0  2  0  0  0  0  0  0
  160.0640  210.3800  153.0580 O   0  0  0  0  0  1  0  0  0  0  0  0
  1  8  1  0  0  0  0
  1 10  2  0  0  0  0
  2 10  1  0  0  0  0
  3  7  1  0  0  0  0
  3  6  2  0  0  0  0
  4  9  1  0  0  0  0
  5  4  2  0  0  0  0
  6 11  1  0  0  0  0
  6  1  1  0  0  0  0
  7  9  1  0  0  0  0
  9  8  2  0  0  0  0
 10 31  1  0  0  0  0
 11  2  2  0  0  0  0
 12  5  1  0  0  0  0
 12  7  2  0  0  0  0
 13 15  1  0  0  0  0
 14 19  1  0  0  0  0
 15 18  2  0  0  0  0
 15  5  1  0  0  0  0
 16 18  1  0  0  0  0
 17 13  2  0  0  0  0
 19 17  1  0  0  0  0
 19 16  2  0  0  0  0
 20 22  1  0  0  0  0
 21 22  2  0  0  0  0
 22 23  1  0  0  0  0
 23 17  1  0  0  0  0
 24 27  1  0  0  0  0
 25 26  2  0  0  0  0
 26 24  1  0  0  0  0
 27  3  1  0  0  0  0
 28 27  2  0  0  0  0
 29 30  1  0  0  0  0
 30 26  1  0  0  0  0
 31 32  1  0  0  0  0
 32 33  1  0  0  0  0
 33 34  1  0  0  0  0
 35 34  1  0  0  0  0
 36 35  1  0  0  0  0
 37 40  1  0  0  0  0
 38 47  1  6  0  0  0
 38 39  1  0  0  0  0
 38 36  1  0  0  0  0
 39 46  1  0  0  0  0
 41 44  1  0  0  0  0
 42 41  2  0  0  0  0
 42 43  1  0  0  0  0
 43 46  1  0  0  0  0
 43 37  2  0  0  0  0
 44 40  2  0  0  0  0
 45 38  1  0  0  0  0
 45 42  1  0  0  0  0
M  END
>  <MODEL>
7

>  <REMARK>
 VINA RESULT:      -5.7      1.560      2.161
  Name = 
  11 active torsions:
  status: ('A' for Active; 'I' for Inactive)
    1  A    between atoms: N_2  and  N_17
    2  A    between atoms: N_2  and  C_18
    3  A    between atoms: C_8  and  N_12
    4  A    between atoms: C_8  and  C_18
    5  A    between atoms: C_11  and  C_29
    6  A    between atoms: N_12  and  C_13
    7  A    between atoms: C_16  and  N_17
    8  A    between atoms: C_16  and  C_43
    9  A    between atoms: C_22  and  C_25
   10  A    between atoms: C_23  and  N_47
   11  A    between atoms: C_27  and  C_40
                            x       y       z     vdW  Elec       q    Type
                         _______ _______ _______ _____ _____    ______ ____

>  <TORSDO>
F 11

$$$$
