=
 OpenBabel11052412153D

 41 46  0  0  1  0  0  0  0  0999 V2000
  160.9820  207.6470  150.6510 C   0  0  2  0  0  3  0  0  0  0  0  0
  161.5500  203.9700  151.1230 C   0  0  0  0  0  3  0  0  0  0  0  0
  161.1700  206.2440  150.1620 C   0  0  0  0  0  0  0  0  0  0  0  0
  161.1300  201.0620  148.3660 C   0  0  0  0  0  3  0  0  0  0  0  0
  161.2850  202.2960  147.8910 C   0  0  0  0  0  3  0  0  0  0  0  0
  161.1110  204.6760  148.1800 C   0  0  0  0  0  3  0  0  0  0  0  0
  161.0430  203.4700  148.7440 C   0  0  0  0  0  0  0  0  0  0  0  0
  160.4660  201.8460  150.5890 C   0  0  0  0  0  3  0  0  0  0  0  0
  160.6130  203.2890  150.1830 C   0  0  0  0  0  0  0  0  0  0  0  0
  160.9280  205.9690  148.8690 C   0  0  0  0  0  3  0  0  0  0  0  0
  160.7050  200.8290  149.7550 C   0  0  0  0  0  3  0  0  0  0  0  0
  161.7560  205.2860  151.1200 C   0  0  0  0  0  2  0  0  0  0  0  0
  160.8370  208.5300  149.5460 O   0  0  0  0  0  0  0  0  0  0  0  0
  161.9040  209.2680  149.0320 C   0  0  0  0  0  0  0  0  0  0  0  0
  162.7430  208.7380  148.2530 O   0  0  0  0  0  0  0  0  0  0  0  0
  162.0800  210.6890  149.4440 C   0  0  0  0  0  2  0  0  0  0  0  0
  161.9920  211.5860  148.2580 C   0  0  0  0  0  0  0  0  0  0  0  0
  160.6780  212.5860  146.3950 C   0  0  0  0  0  2  0  0  0  0  0  0
  163.1570  212.3960  147.8710 C   0  0  0  0  0  3  0  0  0  0  0  0
  163.1220  213.1430  146.7710 C   0  0  0  0  0  3  0  0  0  0  0  0
  161.9430  213.1800  145.9490 N   0  0  0  0  0  0  0  0  0  0  0  0
  160.8520  211.6550  147.5640 C   0  0  0  0  0  3  0  0  0  0  0  0
  163.0150  213.4230  143.7550 C   0  0  0  0  0  1  0  0  0  0  0  0
  161.9350  213.9270  144.6960 C   0  0  0  0  0  3  0  0  0  0  0  0
  160.5750  213.8440  144.0290 C   0  0  0  0  0  1  0  0  0  0  0  0
  162.3700  208.1840  151.7140 S   0  0  0  0  0  0  0  0  0  0  0  0
  160.6100  206.9650  155.1910 C   0  0  0  0  0  3  0  0  0  0  0  0
  158.5720  213.3640  153.8220 C   0  0  0  0  0  0  0  0  0  0  0  0
  157.6230  213.1230  154.9450 C   0  0  0  0  0  3  0  0  0  0  0  0
  157.8830  211.6540  155.3550 C   0  0  0  0  0  3  0  0  0  0  0  0
  160.2980  211.9830  152.6870 C   0  0  0  0  0  3  0  0  0  0  0  0
  160.9450  210.6580  152.6270 C   0  0  0  0  0  3  0  0  0  0  0  0
  159.3270  212.1690  153.5700 C   0  0  0  0  0  0  0  0  0  0  0  0
  161.3390  208.3430  153.1860 C   0  0  0  0  0  0  0  0  0  0  0  0
  158.9230  211.1540  154.4560 N   0  0  0  0  0  0  0  0  0  0  0  0
  161.3170  207.2500  153.9460 C   0  0  0  0  0  3  0  0  0  0  0  0
  160.6370  209.6310  153.4500 C   0  0  0  0  0  0  0  0  0  0  0  0
  158.7000  214.4530  153.2030 O   0  0  0  0  0  0  0  0  0  0  0  0
  159.2350  209.0440  155.4760 C   0  0  0  0  0  3  0  0  0  0  0  0
  159.5820  209.8750  154.4920 C   0  0  0  0  0  0  0  0  0  0  0  0
  159.7310  207.7180  155.8310 C   0  0  0  0  0  3  0  0  0  0  0  0
  1 13  1  6  0  0  0
  1 26  1  0  0  0  0
  3  1  1  0  0  0  0
  3 12  1  0  0  0  0
  4 11  1  0  0  0  0
  5  4  2  0  0  0  0
  5  7  1  0  0  0  0
  6  7  2  0  0  0  0
  6 10  1  0  0  0  0
  7  9  1  0  0  0  0
  9  8  1  0  0  0  0
  9  2  2  0  0  0  0
 10  3  2  0  0  0  0
 11  8  2  0  0  0  0
 12  2  1  0  0  0  0
 14 16  1  0  0  0  0
 14 13  1  0  0  0  0
 15 14  2  0  0  0  0
 17 16  1  0  0  0  0
 18 22  1  0  0  0  0
 19 17  1  0  0  0  0
 20 19  2  0  0  0  0
 21 18  1  0  0  0  0
 21 20  1  0  0  0  0
 22 17  2  0  0  0  0
 23 24  1  0  0  0  0
 24 21  1  0  0  0  0
 25 24  1  0  0  0  0
 26 34  1  0  0  0  0
 27 41  2  0  0  0  0
 28 29  1  0  0  0  0
 29 30  2  0  0  0  0
 31 33  2  0  0  0  0
 32 31  1  0  0  0  0
 32 37  2  0  0  0  0
 33 28  1  0  0  0  0
 33 35  1  0  0  0  0
 34 37  1  0  0  0  0
 34 36  2  0  0  0  0
 35 40  1  0  0  0  0
 35 30  1  0  0  0  0
 36 27  1  0  0  0  0
 37 40  1  0  0  0  0
 38 28  2  0  0  0  0
 39 41  1  0  0  0  0
 40 39  2  0  0  0  0
M  END
>  <MODEL>
1

>  <REMARK>
 VINA RESULT:      -8.9      0.000      0.000
  Name = 
  8 active torsions:
  status: ('A' for Active; 'I' for Inactive)
    1  A    between atoms: C_1  and  C_9
    2  A    between atoms: C_1  and  O_18
    3  A    between atoms: C_3  and  C_9
    4  A    between atoms: C_4  and  C_19
    5  A    between atoms: O_18  and  C_19
    6  A    between atoms: C_19  and  S_33
    7  A    between atoms: C_21  and  S_33
    8  A    between atoms: C_22  and  N_38
                            x       y       z     vdW  Elec       q    Type
                         _______ _______ _______ _____ _____    ______ ____

>  <TORSDO>
F 8

$$$$
=
 OpenBabel11052412153D

 41 46  0  0  1  0  0  0  0  0999 V2000
  160.9070  207.9360  150.5320 C   0  0  2  0  0  3  0  0  0  0  0  0
  160.5450  205.5220  147.6850 C   0  0  0  0  0  3  0  0  0  0  0  0
  160.7620  206.5670  149.9430 C   0  0  0  0  0  0  0  0  0  0  0  0
  160.9580  201.5160  147.8140 C   0  0  0  0  0  3  0  0  0  0  0  0
  160.7180  202.1140  148.9800 C   0  0  0  0  0  3  0  0  0  0  0  0
  160.7910  204.0740  150.3680 C   0  0  0  0  0  3  0  0  0  0  0  0
  160.9470  203.5570  149.1490 C   0  0  0  0  0  0  0  0  0  0  0  0
  161.7020  203.5870  146.7400 C   0  0  0  0  0  3  0  0  0  0  0  0
  161.4630  204.3870  147.9950 C   0  0  0  0  0  0  0  0  0  0  0  0
  160.9470  205.4970  150.7340 C   0  0  0  0  0  3  0  0  0  0  0  0
  161.4680  202.2740  146.6610 C   0  0  0  0  0  3  0  0  0  0  0  0
  160.2750  206.4970  148.5510 C   0  0  0  0  0  2  0  0  0  0  0  0
  160.9410  208.9090  149.4960 O   0  0  0  0  0  0  0  0  0  0  0  0
  162.1360  209.3610  148.9320 C   0  0  0  0  0  0  0  0  0  0  0  0
  162.8820  208.5800  148.2820 O   0  0  0  0  0  0  0  0  0  0  0  0
  162.5550  210.7750  149.1410 C   0  0  0  0  0  2  0  0  0  0  0  0
  161.5000  211.7060  148.6490 C   0  0  0  0  0  0  0  0  0  0  0  0
  159.9310  213.5980  149.0410 C   0  0  0  0  0  2  0  0  0  0  0  0
  161.0810  211.6480  147.2400 C   0  0  0  0  0  3  0  0  0  0  0  0
  160.0870  212.4170  146.8030 C   0  0  0  0  0  3  0  0  0  0  0  0
  159.4150  213.3240  147.6950 N   0  0  0  0  0  0  0  0  0  0  0  0
  160.9550  212.5890  149.4880 C   0  0  0  0  0  3  0  0  0  0  0  0
  157.6930  213.5210  145.9580 C   0  0  0  0  0  1  0  0  0  0  0  0
  158.2680  214.1000  147.2390 C   0  0  0  0  0  3  0  0  0  0  0  0
  157.1990  214.1620  148.3140 C   0  0  0  0  0  1  0  0  0  0  0  0
  162.4040  208.0670  151.5750 S   0  0  0  0  0  0  0  0  0  0  0  0
  160.8550  206.7370  155.1110 C   0  0  0  0  0  3  0  0  0  0  0  0
  158.7900  213.1940  154.0980 C   0  0  0  0  0  0  0  0  0  0  0  0
  157.9110  212.9180  155.2690 C   0  0  0  0  0  3  0  0  0  0  0  0
  158.1840  211.4340  155.6100 C   0  0  0  0  0  3  0  0  0  0  0  0
  160.4290  211.8430  152.8080 C   0  0  0  0  0  3  0  0  0  0  0  0
  161.0600  210.5170  152.6610 C   0  0  0  0  0  3  0  0  0  0  0  0
  159.5180  212.0040  153.7570 C   0  0  0  0  0  0  0  0  0  0  0  0
  161.4690  208.1810  153.1130 C   0  0  0  0  0  0  0  0  0  0  0  0
  159.1610  210.9600  154.6300 N   0  0  0  0  0  0  0  0  0  0  0  0
  161.4860  207.0620  153.8350 C   0  0  0  0  0  3  0  0  0  0  0  0
  160.7960  209.4640  153.4660 C   0  0  0  0  0  0  0  0  0  0  0  0
  158.8890  214.3030  153.5100 O   0  0  0  0  0  0  0  0  0  0  0  0
  159.5190  208.8130  155.5550 C   0  0  0  0  0  3  0  0  0  0  0  0
  159.8100  209.6760  154.5800 C   0  0  0  0  0  0  0  0  0  0  0  0
  160.0250  207.4720  155.8310 C   0  0  0  0  0  3  0  0  0  0  0  0
  1 13  1  6  0  0  0
  1 26  1  0  0  0  0
  2  9  2  0  0  0  0
  2 12  1  0  0  0  0
  3  1  1  0  0  0  0
  3 10  2  0  0  0  0
  4  5  2  0  0  0  0
  5  7  1  0  0  0  0
  6 10  1  0  0  0  0
  7  6  2  0  0  0  0
  8  9  1  0  0  0  0
  9  7  1  0  0  0  0
 11  8  2  0  0  0  0
 11  4  1  0  0  0  0
 12  3  1  0  0  0  0
 14 16  1  0  0  0  0
 14 13  1  0  0  0  0
 15 14  2  0  0  0  0
 17 16  1  0  0  0  0
 17 22  2  0  0  0  0
 18 22  1  0  0  0  0
 19 17  1  0  0  0  0
 20 19  2  0  0  0  0
 20 21  1  0  0  0  0
 21 18  1  0  0  0  0
 23 24  1  0  0  0  0
 24 21  1  0  0  0  0
 24 25  1  0  0  0  0
 26 34  1  0  0  0  0
 27 41  2  0  0  0  0
 28 29  1  0  0  0  0
 29 30  2  0  0  0  0
 31 33  2  0  0  0  0
 32 31  1  0  0  0  0
 32 37  2  0  0  0  0
 33 28  1  0  0  0  0
 33 35  1  0  0  0  0
 34 37  1  0  0  0  0
 34 36  2  0  0  0  0
 35 30  1  0  0  0  0
 36 27  1  0  0  0  0
 37 40  1  0  0  0  0
 38 28  2  0  0  0  0
 39 41  1  0  0  0  0
 40 35  1  0  0  0  0
 40 39  2  0  0  0  0
M  END
>  <MODEL>
2

>  <REMARK>
 VINA RESULT:      -8.2      1.334      2.202
  Name = 
  8 active torsions:
  status: ('A' for Active; 'I' for Inactive)
    1  A    between atoms: C_1  and  C_9
    2  A    between atoms: C_1  and  O_18
    3  A    between atoms: C_3  and  C_9
    4  A    between atoms: C_4  and  C_19
    5  A    between atoms: O_18  and  C_19
    6  A    between atoms: C_19  and  S_33
    7  A    between atoms: C_21  and  S_33
    8  A    between atoms: C_22  and  N_38
                            x       y       z     vdW  Elec       q    Type
                         _______ _______ _______ _____ _____    ______ ____

>  <TORSDO>
F 8

$$$$
=
 OpenBabel11052412153D

 41 46  0  0  1  0  0  0  0  0999 V2000
  161.0240  212.0430  148.6200 C   0  0  2  0  0  3  0  0  0  0  0  0
  162.2390  213.4280  145.3530 C   0  0  0  0  0  3  0  0  0  0  0  0
  160.8460  212.4890  147.2020 C   0  0  0  0  0  0  0  0  0  0  0  0
  160.2930  213.4240  141.8250 C   0  0  0  0  0  3  0  0  0  0  0  0
  159.5340  213.2690  142.9090 C   0  0  0  0  0  3  0  0  0  0  0  0
  159.2960  212.6100  145.2070 C   0  0  0  0  0  3  0  0  0  0  0  0
  160.1230  212.8500  144.1900 C   0  0  0  0  0  0  0  0  0  0  0  0
  162.3480  212.7890  142.9970 C   0  0  0  0  0  3  0  0  0  0  0  0
  161.6090  212.5870  144.2950 C   0  0  0  0  0  0  0  0  0  0  0  0
  159.6920  212.2080  146.5720 C   0  0  0  0  0  3  0  0  0  0  0  0
  161.7420  213.1730  141.8690 C   0  0  0  0  0  3  0  0  0  0  0  0
  161.9110  213.3450  146.6410 C   0  0  0  0  0  2  0  0  0  0  0  0
  160.9170  213.1570  149.4960 O   0  0  0  0  0  0  0  0  0  0  0  0
  159.6960  213.5780  150.0270 C   0  0  0  0  0  0  0  0  0  0  0  0
  158.6130  213.3460  149.4250 O   0  0  0  0  0  0  0  0  0  0  0  0
  159.6780  214.3490  151.3020 C   0  0  0  0  0  2  0  0  0  0  0  0
  158.6940  213.7560  152.2510 C   0  0  0  0  0  0  0  0  0  0  0  0
  156.5470  213.8880  153.5040 C   0  0  0  0  0  2  0  0  0  0  0  0
  158.9220  212.4040  152.7820 C   0  0  0  0  0  3  0  0  0  0  0  0
  158.0960  211.8900  153.6900 C   0  0  0  0  0  3  0  0  0  0  0  0
  156.9610  212.6410  154.1560 N   0  0  0  0  0  0  0  0  0  0  0  0
  157.6090  214.4530  152.6000 C   0  0  0  0  0  3  0  0  0  0  0  0
  155.6180  210.7180  154.8770 C   0  0  0  0  0  1  0  0  0  0  0  0
  156.1080  212.1150  155.2150 C   0  0  0  0  0  3  0  0  0  0  0  0
  156.8400  212.1080  156.5430 C   0  0  0  0  0  1  0  0  0  0  0  0
  162.6260  211.1950  148.8640 S   0  0  0  0  0  0  0  0  0  0  0  0
  161.1510  209.8600  152.4310 C   0  0  0  0  0  3  0  0  0  0  0  0
  161.3840  204.6010  148.0420 C   0  0  0  0  0  0  0  0  0  0  0  0
  161.0630  203.7940  149.2530 C   0  0  0  0  0  3  0  0  0  0  0  0
  161.0420  204.8270  150.4050 C   0  0  0  0  0  3  0  0  0  0  0  0
  161.7970  207.0160  147.6300 C   0  0  0  0  0  3  0  0  0  0  0  0
  161.9040  208.3510  148.2490 C   0  0  0  0  0  3  0  0  0  0  0  0
  161.5480  205.9770  148.4150 C   0  0  0  0  0  0  0  0  0  0  0  0
  161.9480  209.9890  150.0220 C   0  0  0  0  0  0  0  0  0  0  0  0
  161.3610  206.1220  149.8020 N   0  0  0  0  0  0  0  0  0  0  0  0
  161.6840  210.4920  151.2260 C   0  0  0  0  0  3  0  0  0  0  0  0
  161.7190  208.5880  149.5670 C   0  0  0  0  0  0  0  0  0  0  0  0
  161.4820  204.1440  146.8730 O   0  0  0  0  0  0  0  0  0  0  0  0
  161.0210  207.4570  151.7230 C   0  0  0  0  0  3  0  0  0  0  0  0
  161.3710  207.4130  150.4370 C   0  0  0  0  0  0  0  0  0  0  0  0
  160.8770  208.5840  152.6400 C   0  0  0  0  0  3  0  0  0  0  0  0
  1 26  1  6  0  0  0
  1 13  1  0  0  0  0
  2 12  1  0  0  0  0
  3  1  1  0  0  0  0
  4 11  1  0  0  0  0
  4  5  2  0  0  0  0
  5  7  1  0  0  0  0
  6 10  1  0  0  0  0
  7  9  1  0  0  0  0
  7  6  2  0  0  0  0
  8  9  1  0  0  0  0
  9  2  2  0  0  0  0
 10  3  2  0  0  0  0
 11  8  2  0  0  0  0
 12  3  1  0  0  0  0
 13 14  1  0  0  0  0
 14 16  1  0  0  0  0
 15 14  2  0  0  0  0
 16 17  1  0  0  0  0
 17 22  2  0  0  0  0
 17 19  1  0  0  0  0
 18 21  1  0  0  0  0
 19 20  2  0  0  0  0
 20 21  1  0  0  0  0
 21 24  1  0  0  0  0
 22 18  1  0  0  0  0
 23 24  1  0  0  0  0
 24 25  1  0  0  0  0
 26 34  1  0  0  0  0
 27 41  2  0  0  0  0
 28 33  1  0  0  0  0
 28 29  1  0  0  0  0
 29 30  2  0  0  0  0
 31 32  1  0  0  0  0
 31 33  2  0  0  0  0
 32 37  2  0  0  0  0
 33 35  1  0  0  0  0
 34 36  2  0  0  0  0
 35 30  1  0  0  0  0
 35 40  1  0  0  0  0
 36 27  1  0  0  0  0
 37 34  1  0  0  0  0
 37 40  1  0  0  0  0
 38 28  2  0  0  0  0
 39 41  1  0  0  0  0
 40 39  2  0  0  0  0
M  END
>  <MODEL>
3

>  <REMARK>
 VINA RESULT:      -8.2      2.489      8.789
  Name = 
  8 active torsions:
  status: ('A' for Active; 'I' for Inactive)
    1  A    between atoms: C_1  and  C_9
    2  A    between atoms: C_1  and  O_18
    3  A    between atoms: C_3  and  C_9
    4  A    between atoms: C_4  and  C_19
    5  A    between atoms: O_18  and  C_19
    6  A    between atoms: C_19  and  S_33
    7  A    between atoms: C_21  and  S_33
    8  A    between atoms: C_22  and  N_38
                            x       y       z     vdW  Elec       q    Type
                         _______ _______ _______ _____ _____    ______ ____

>  <TORSDO>
F 8

$$$$
=
 OpenBabel11052412153D

 41 46  0  0  1  0  0  0  0  0999 V2000
  160.1600  212.4210  150.7290 C   0  0  2  0  0  3  0  0  0  0  0  0
  157.5380  213.1780  153.3010 C   0  0  0  0  0  3  0  0  0  0  0  0
  159.6020  212.4160  152.1180 C   0  0  0  0  0  0  0  0  0  0  0  0
  157.3100  211.7290  157.0540 C   0  0  0  0  0  3  0  0  0  0  0  0
  158.5090  211.6650  156.4770 C   0  0  0  0  0  3  0  0  0  0  0  0
  159.8640  211.5900  154.4940 C   0  0  0  0  0  3  0  0  0  0  0  0
  158.6510  211.7690  155.0170 C   0  0  0  0  0  0  0  0  0  0  0  0
  156.1380  211.9980  154.9210 C   0  0  0  0  0  3  0  0  0  0  0  0
  157.4290  211.9520  154.1440 C   0  0  1  0  0  3  0  0  0  0  0  0
  160.2140  211.6810  153.0620 C   0  0  0  0  0  3  0  0  0  0  0  0
  156.0880  211.8980  156.2520 C   0  0  0  0  0  3  0  0  0  0  0  0
  158.4890  213.3490  152.3840 C   0  0  0  0  0  3  0  0  0  0  0  0
  161.4730  211.8750  150.7320 O   0  0  0  0  0  0  0  0  0  0  0  0
  161.8150  210.7420  149.9910 C   0  0  0  0  0  0  0  0  0  0  0  0
  161.7480  210.7460  148.7320 O   0  0  0  0  0  0  0  0  0  0  0  0
  162.2220  209.4970  150.7010 C   0  0  0  0  0  2  0  0  0  0  0  0
  161.9040  208.3010  149.8720 C   0  0  0  0  0  0  0  0  0  0  0  0
  160.6020  206.2120  149.4990 C   0  0  0  0  0  2  0  0  0  0  0  0
  162.5620  208.1240  148.5690 C   0  0  0  0  0  3  0  0  0  0  0  0
  162.3490  207.0240  147.8510 C   0  0  0  0  0  3  0  0  0  0  0  0
  161.4620  205.9980  148.3300 N   0  0  0  0  0  0  0  0  0  0  0  0
  161.0150  207.4080  150.3140 C   0  0  0  0  0  3  0  0  0  0  0  0
  162.4190  204.5680  146.5800 C   0  0  0  0  0  1  0  0  0  0  0  0
  161.2980  204.7540  147.5870 C   0  0  0  0  0  3  0  0  0  0  0  0
  161.2370  203.5680  148.5310 C   0  0  0  0  0  1  0  0  0  0  0  0
  160.1740  214.1030  150.0120 S   0  0  0  0  0  0  0  0  0  0  0  0
  157.1270  212.8180  147.6160 C   0  0  0  0  0  3  0  0  0  0  0  0
  162.8240  213.3350  143.8400 C   0  0  0  0  0  0  0  0  0  0  0  0
  162.0010  212.6450  142.8070 C   0  0  0  0  0  3  0  0  0  0  0  0
  160.6550  212.3640  143.5180 C   0  0  0  0  0  3  0  0  0  0  0  0
  162.4200  214.0430  146.1870 C   0  0  0  0  0  3  0  0  0  0  0  0
  161.4500  214.0590  147.3000 C   0  0  0  0  0  3  0  0  0  0  0  0
  162.0650  213.4570  145.0530 C   0  0  0  0  0  0  0  0  0  0  0  0
  159.3930  213.5830  148.4710 C   0  0  0  0  0  0  0  0  0  0  0  0
  160.7930  212.8800  144.8800 N   0  0  0  0  0  0  0  0  0  0  0  0
  158.1020  213.2850  148.5980 C   0  0  0  0  0  3  0  0  0  0  0  0
  160.2010  213.5490  147.2180 C   0  0  0  0  0  0  0  0  0  0  0  0
  163.9970  213.7580  143.6680 O   0  0  0  0  0  0  0  0  0  0  0  0
  158.5650  212.5180  145.5830 C   0  0  0  0  0  3  0  0  0  0  0  0
  159.7860  212.9460  145.9050 C   0  0  0  0  0  0  0  0  0  0  0  0
  157.3240  212.4920  146.3500 C   0  0  0  0  0  3  0  0  0  0  0  0
  1 26  1  1  0  0  0
  1 13  1  0  0  0  0
  1  3  1  0  0  0  0
  3 12  1  0  0  0  0
  3 10  2  0  0  0  0
  5  4  2  0  0  0  0
  6  7  2  0  0  0  0
  7  5  1  0  0  0  0
  8 11  2  0  0  0  0
  9  2  1  1  0  0  0
  9  8  1  0  0  0  0
  9  7  1  0  0  0  0
 10  6  1  0  0  0  0
 11  4  1  0  0  0  0
 12  2  2  0  0  0  0
 14 16  1  0  0  0  0
 14 13  1  0  0  0  0
 15 14  2  0  0  0  0
 17 22  2  0  0  0  0
 17 16  1  0  0  0  0
 18 22  1  0  0  0  0
 19 17  1  0  0  0  0
 20 21  1  0  0  0  0
 20 19  2  0  0  0  0
 21 18  1  0  0  0  0
 23 24  1  0  0  0  0
 24 21  1  0  0  0  0
 24 25  1  0  0  0  0
 27 36  1  0  0  0  0
 28 33  1  0  0  0  0
 29 30  2  0  0  0  0
 29 28  1  0  0  0  0
 30 35  1  0  0  0  0
 31 32  1  0  0  0  0
 33 31  2  0  0  0  0
 34 36  2  0  0  0  0
 34 26  1  0  0  0  0
 35 33  1  0  0  0  0
 35 40  1  0  0  0  0
 37 32  2  0  0  0  0
 37 34  1  0  0  0  0
 38 28  2  0  0  0  0
 39 40  2  0  0  0  0
 39 41  1  0  0  0  0
 40 37  1  0  0  0  0
 41 27  2  0  0  0  0
M  END
>  <MODEL>
4

>  <REMARK>
 VINA RESULT:      -8.0      2.685      8.979
  Name = 
  8 active torsions:
  status: ('A' for Active; 'I' for Inactive)
    1  A    between atoms: C_1  and  C_9
    2  A    between atoms: C_1  and  O_18
    3  A    between atoms: C_3  and  C_9
    4  A    between atoms: C_4  and  C_19
    5  A    between atoms: O_18  and  C_19
    6  A    between atoms: C_19  and  S_33
    7  A    between atoms: C_21  and  S_33
    8  A    between atoms: C_22  and  N_38
                            x       y       z     vdW  Elec       q    Type
                         _______ _______ _______ _____ _____    ______ ____

>  <TORSDO>
F 8

$$$$
=
 OpenBabel11052412153D

 41 46  0  0  1  0  0  0  0  0999 V2000
  160.7610  208.0530  152.1400 C   0  0  2  0  0  3  0  0  0  0  0  0
  162.3310  210.6860  149.9800 C   0  0  0  0  0  3  0  0  0  0  0  0
  160.9370  209.4560  151.6480 C   0  0  0  0  0  0  0  0  0  0  0  0
  161.0280  214.4530  149.3880 C   0  0  0  0  0  3  0  0  0  0  0  0
  160.5760  213.8460  150.4840 C   0  0  0  0  0  3  0  0  0  0  0  0
  160.0650  211.8300  151.6870 C   0  0  0  0  0  3  0  0  0  0  0  0
  160.6310  212.3820  150.6140 C   0  0  0  0  0  0  0  0  0  0  0  0
  161.6710  212.3490  148.3130 C   0  0  0  0  0  3  0  0  0  0  0  0
  161.2060  211.5400  149.4970 C   0  0  0  0  0  0  0  0  0  0  0  0
  160.0400  210.3890  152.0110 C   0  0  0  0  0  3  0  0  0  0  0  0
  161.5890  213.6820  148.2680 C   0  0  0  0  0  3  0  0  0  0  0  0
  162.1830  209.7450  150.9090 C   0  0  0  0  0  2  0  0  0  0  0  0
  160.1480  208.0620  153.4230 O   0  0  0  0  0  0  0  0  0  0  0  0
  160.8800  207.9210  154.6040 C   0  0  0  0  0  0  0  0  0  0  0  0
  160.9610  206.8060  155.1870 O   0  0  0  0  0  0  0  0  0  0  0  0
  161.5380  209.1140  155.2060 C   0  0  0  0  0  2  0  0  0  0  0  0
  160.5420  210.2030  155.4150 C   0  0  0  0  0  0  0  0  0  0  0  0
  158.2340  210.9440  155.9820 C   0  0  0  0  0  2  0  0  0  0  0  0
  160.9710  211.6070  155.3220 C   0  0  0  0  0  3  0  0  0  0  0  0
  160.0810  212.5900  155.4290 C   0  0  0  0  0  3  0  0  0  0  0  0
  158.6900  212.2980  155.6500 N   0  0  0  0  0  0  0  0  0  0  0  0
  159.2740  209.8930  155.6970 C   0  0  0  0  0  3  0  0  0  0  0  0
  158.0450  214.4530  154.6690 C   0  0  0  0  0  1  0  0  0  0  0  0
  157.7020  213.3700  155.6770 C   0  0  0  0  0  3  0  0  0  0  0  0
  156.3110  212.8270  155.4120 C   0  0  0  0  0  1  0  0  0  0  0  0
  162.3540  207.1560  152.2050 S   0  0  0  0  0  0  0  0  0  0  0  0
  160.6050  203.4710  152.3870 C   0  0  0  0  0  3  0  0  0  0  0  0
  161.7910  205.0170  145.8160 C   0  0  0  0  0  0  0  0  0  0  0  0
  161.4060  203.5960  145.5860 C   0  0  0  0  0  3  0  0  0  0  0  0
  161.1650  203.0320  147.0070 C   0  0  0  0  0  3  0  0  0  0  0  0
  162.0370  206.4390  147.8380 C   0  0  0  0  0  3  0  0  0  0  0  0
  161.9560  206.4790  149.3110 C   0  0  0  0  0  3  0  0  0  0  0  0
  161.7910  205.2900  147.2250 C   0  0  0  0  0  0  0  0  0  0  0  0
  161.6560  205.6260  151.5510 C   0  0  0  0  0  0  0  0  0  0  0  0
  161.4370  204.1290  147.9360 N   0  0  0  0  0  0  0  0  0  0  0  0
  161.2140  204.7940  152.4900 C   0  0  0  0  0  3  0  0  0  0  0  0
  161.6030  205.4200  150.0750 C   0  0  0  0  0  0  0  0  0  0  0  0
  162.0600  205.8500  144.9110 O   0  0  0  0  0  0  0  0  0  0  0  0
  160.7650  203.0350  149.9220 C   0  0  0  0  0  3  0  0  0  0  0  0
  161.2620  204.1400  149.3650 C   0  0  0  0  0  0  0  0  0  0  0  0
  160.4210  202.7300  151.3070 C   0  0  0  0  0  3  0  0  0  0  0  0
  1 26  1  1  0  0  0
  1 13  1  0  0  0  0
  2 12  1  0  0  0  0
  3 10  2  0  0  0  0
  3  1  1  0  0  0  0
  4  5  2  0  0  0  0
  5  7  1  0  0  0  0
  6 10  1  0  0  0  0
  7  6  2  0  0  0  0
  8  9  1  0  0  0  0
  9  2  2  0  0  0  0
  9  7  1  0  0  0  0
 11  8  2  0  0  0  0
 11  4  1  0  0  0  0
 12  3  1  0  0  0  0
 13 14  1  0  0  0  0
 14 15  2  0  0  0  0
 14 16  1  0  0  0  0
 16 17  1  0  0  0  0
 17 22  2  0  0  0  0
 19 17  1  0  0  0  0
 19 20  2  0  0  0  0
 20 21  1  0  0  0  0
 21 24  1  0  0  0  0
 21 18  1  0  0  0  0
 22 18  1  0  0  0  0
 23 24  1  0  0  0  0
 25 24  1  0  0  0  0
 27 36  1  0  0  0  0
 28 33  1  0  0  0  0
 29 28  1  0  0  0  0
 29 30  2  0  0  0  0
 30 35  1  0  0  0  0
 31 32  1  0  0  0  0
 32 37  2  0  0  0  0
 33 31  2  0  0  0  0
 33 35  1  0  0  0  0
 34 26  1  0  0  0  0
 34 36  2  0  0  0  0
 35 40  1  0  0  0  0
 37 34  1  0  0  0  0
 38 28  2  0  0  0  0
 39 41  1  0  0  0  0
 40 39  2  0  0  0  0
 40 37  1  0  0  0  0
 41 27  2  0  0  0  0
M  END
>  <MODEL>
5

>  <REMARK>
 VINA RESULT:      -7.9      2.648      8.776
  Name = 
  8 active torsions:
  status: ('A' for Active; 'I' for Inactive)
    1  A    between atoms: C_1  and  C_9
    2  A    between atoms: C_1  and  O_18
    3  A    between atoms: C_3  and  C_9
    4  A    between atoms: C_4  and  C_19
    5  A    between atoms: O_18  and  C_19
    6  A    between atoms: C_19  and  S_33
    7  A    between atoms: C_21  and  S_33
    8  A    between atoms: C_22  and  N_38
                            x       y       z     vdW  Elec       q    Type
                         _______ _______ _______ _____ _____    ______ ____

>  <TORSDO>
F 8

$$$$
=
 OpenBabel11052412153D

 41 46  0  0  1  0  0  0  0  0999 V2000
  160.8330  207.4930  150.9590 C   0  0  2  0  0  3  0  0  0  0  0  0
  160.0720  204.2980  149.1490 C   0  0  0  0  0  3  0  0  0  0  0  0
  160.7590  206.0020  150.8410 C   0  0  0  0  0  0  0  0  0  0  0  0
  161.1880  200.5720  150.2010 C   0  0  0  0  0  3  0  0  0  0  0  0
  161.2010  201.4800  151.1750 C   0  0  0  0  0  3  0  0  0  0  0  0
  161.3400  203.7720  151.8820 C   0  0  0  0  0  3  0  0  0  0  0  0
  161.2180  202.9180  150.8660 C   0  0  0  0  0  0  0  0  0  0  0  0
  161.2150  202.2610  148.4280 C   0  0  0  0  0  3  0  0  0  0  0  0
  161.2210  203.3880  149.4280 C   0  0  0  0  0  0  0  0  0  0  0  0
  161.3500  205.2460  151.7810 C   0  0  0  0  0  3  0  0  0  0  0  0
  161.1980  200.9740  148.7850 C   0  0  0  0  0  3  0  0  0  0  0  0
  159.9050  205.4680  149.7610 C   0  0  0  0  0  2  0  0  0  0  0  0
  160.8080  208.0840  149.6660 O   0  0  0  0  0  0  0  0  0  0  0  0
  161.9710  208.4670  148.9950 C   0  0  0  0  0  0  0  0  0  0  0  0
  162.1900  209.6770  148.7160 O   0  0  0  0  0  0  0  0  0  0  0  0
  162.9470  207.4260  148.5650 C   0  0  0  0  0  2  0  0  0  0  0  0
  162.3510  206.5670  147.5030 C   0  0  0  0  0  0  0  0  0  0  0  0
  160.5420  206.1040  145.8560 C   0  0  0  0  0  2  0  0  0  0  0  0
  163.0780  205.3750  147.0390 C   0  0  0  0  0  3  0  0  0  0  0  0
  162.5280  204.5550  146.1490 C   0  0  0  0  0  3  0  0  0  0  0  0
  161.2190  204.8250  145.6160 N   0  0  0  0  0  0  0  0  0  0  0  0
  161.1690  206.8930  146.9740 C   0  0  0  0  0  3  0  0  0  0  0  0
  160.6400  202.4670  145.2610 C   0  0  0  0  0  1  0  0  0  0  0  0
  160.5780  203.8800  144.7090 C   0  0  0  0  0  3  0  0  0  0  0  0
  159.1380  204.2790  144.4460 C   0  0  0  0  0  1  0  0  0  0  0  0
  162.3270  208.0250  151.8700 S   0  0  0  0  0  0  0  0  0  0  0  0
  160.8460  207.6790  155.6600 C   0  0  0  0  0  3  0  0  0  0  0  0
  158.5750  213.5460  152.9400 C   0  0  0  0  0  0  0  0  0  0  0  0
  157.7130  213.5800  154.1550 C   0  0  0  0  0  3  0  0  0  0  0  0
  158.0340  212.2560  154.8880 C   0  0  0  0  0  3  0  0  0  0  0  0
  160.2450  211.9380  152.0470 C   0  0  0  0  0  3  0  0  0  0  0  0
  160.9160  210.6410  152.2610 C   0  0  0  0  0  3  0  0  0  0  0  0
  159.3360  212.3290  152.9290 C   0  0  0  0  0  0  0  0  0  0  0  0
  161.4000  208.5320  153.3330 C   0  0  0  0  0  0  0  0  0  0  0  0
  159.0190  211.5570  154.0610 N   0  0  0  0  0  0  0  0  0  0  0  0
  161.4570  207.6570  154.3340 C   0  0  0  0  0  3  0  0  0  0  0  0
  160.6900  209.8440  153.3290 C   0  0  0  0  0  0  0  0  0  0  0  0
  158.6350  214.4530  152.0680 O   0  0  0  0  0  0  0  0  0  0  0  0
  159.4490  209.7590  155.5360 C   0  0  0  0  0  3  0  0  0  0  0  0
  159.7060  210.3280  154.3570 C   0  0  0  0  0  0  0  0  0  0  0  0
  159.9990  208.5610  156.1630 C   0  0  0  0  0  3  0  0  0  0  0  0
  1 13  1  6  0  0  0
  1 26  1  0  0  0  0
  2  9  2  0  0  0  0
  2 12  1  0  0  0  0
  3  1  1  0  0  0  0
  3 10  2  0  0  0  0
  4  5  2  0  0  0  0
  7  5  1  0  0  0  0
  7  6  2  0  0  0  0
  8 11  2  0  0  0  0
  8  9  1  0  0  0  0
  9  7  1  0  0  0  0
 10  6  1  0  0  0  0
 11  4  1  0  0  0  0
 12  3  1  0  0  0  0
 14 13  1  0  0  0  0
 15 14  2  0  0  0  0
 16 14  1  0  0  0  0
 17 16  1  0  0  0  0
 18 22  1  0  0  0  0
 19 17  1  0  0  0  0
 20 19  2  0  0  0  0
 21 18  1  0  0  0  0
 21 20  1  0  0  0  0
 22 17  2  0  0  0  0
 24 23  1  0  0  0  0
 24 21  1  0  0  0  0
 25 24  1  0  0  0  0
 26 34  1  0  0  0  0
 27 41  2  0  0  0  0
 28 29  1  0  0  0  0
 29 30  2  0  0  0  0
 31 32  1  0  0  0  0
 31 33  2  0  0  0  0
 32 37  2  0  0  0  0
 33 28  1  0  0  0  0
 33 35  1  0  0  0  0
 34 36  2  0  0  0  0
 35 40  1  0  0  0  0
 35 30  1  0  0  0  0
 36 27  1  0  0  0  0
 37 34  1  0  0  0  0
 37 40  1  0  0  0  0
 38 28  2  0  0  0  0
 39 41  1  0  0  0  0
 40 39  2  0  0  0  0
M  END
>  <MODEL>
6

>  <REMARK>
 VINA RESULT:      -7.6      2.913      4.122
  Name = 
  8 active torsions:
  status: ('A' for Active; 'I' for Inactive)
    1  A    between atoms: C_1  and  C_9
    2  A    between atoms: C_1  and  O_18
    3  A    between atoms: C_3  and  C_9
    4  A    between atoms: C_4  and  C_19
    5  A    between atoms: O_18  and  C_19
    6  A    between atoms: C_19  and  S_33
    7  A    between atoms: C_21  and  S_33
    8  A    between atoms: C_22  and  N_38
                            x       y       z     vdW  Elec       q    Type
                         _______ _______ _______ _____ _____    ______ ____

>  <TORSDO>
F 8

$$$$
=
 OpenBabel11052412153D

 41 46  0  0  1  0  0  0  0  0999 V2000
  160.8320  208.1510  152.9100 C   0  0  2  0  0  3  0  0  0  0  0  0
  161.5430  204.6100  151.8980 C   0  0  0  0  0  3  0  0  0  0  0  0
  161.0700  207.0630  151.9090 C   0  0  0  0  0  0  0  0  0  0  0  0
  161.2130  203.0120  148.2140 C   0  0  0  0  0  3  0  0  0  0  0  0
  161.3170  204.3390  148.2650 C   0  0  0  0  0  3  0  0  0  0  0  0
  161.0550  206.4030  149.4680 C   0  0  0  0  0  3  0  0  0  0  0  0
  161.0380  205.0700  149.5100 C   0  0  0  0  0  0  0  0  0  0  0  0
  160.5350  202.8300  150.5600 C   0  0  0  0  0  3  0  0  0  0  0  0
  160.6250  204.3210  150.7570 C   0  0  0  0  0  0  0  0  0  0  0  0
  160.8290  207.3110  150.6100 C   0  0  0  0  0  3  0  0  0  0  0  0
  160.8070  202.2340  149.3950 C   0  0  0  0  0  3  0  0  0  0  0  0
  161.6990  205.8270  152.4160 C   0  0  0  0  0  2  0  0  0  0  0  0
  161.9710  208.9980  152.9850 O   0  0  0  0  0  0  0  0  0  0  0  0
  162.1090  210.1400  152.1940 C   0  0  0  0  0  0  0  0  0  0  0  0
  163.2380  210.4970  151.7610 O   0  0  0  0  0  0  0  0  0  0  0  0
  160.9100  210.9730  151.8940 C   0  0  0  0  0  2  0  0  0  0  0  0
  161.0650  211.6440  150.5730 C   0  0  0  0  0  0  0  0  0  0  0  0
  160.6390  213.5810  149.0680 C   0  0  0  0  0  2  0  0  0  0  0  0
  161.8790  211.0090  149.5260 C   0  0  0  0  0  3  0  0  0  0  0  0
  161.9640  211.5550  148.3160 C   0  0  0  0  0  3  0  0  0  0  0  0
  161.2730  212.7790  148.0150 N   0  0  0  0  0  0  0  0  0  0  0  0
  160.4720  212.8210  150.3560 C   0  0  0  0  0  3  0  0  0  0  0  0
  162.6900  213.2720  146.0730 C   0  0  0  0  0  1  0  0  0  0  0  0
  161.2920  213.3300  146.6650 C   0  0  0  0  0  3  0  0  0  0  0  0
  160.3110  212.5970  145.7700 C   0  0  0  0  0  1  0  0  0  0  0  0
  160.4350  207.4730  154.5620 S   0  0  0  0  0  0  0  0  0  0  0  0
  162.7060  209.9370  156.8960 C   0  0  0  0  0  3  0  0  0  0  0  0
  157.0160  213.2850  155.0550 C   0  0  0  0  0  0  0  0  0  0  0  0
  157.4900  214.2920  156.0460 C   0  0  0  0  0  3  0  0  0  0  0  0
  158.7680  213.6620  156.6480 C   0  0  0  0  0  3  0  0  0  0  0  0
  157.8600  211.0760  154.2930 C   0  0  0  0  0  3  0  0  0  0  0  0
  158.9100  210.0530  154.4660 C   0  0  0  0  0  3  0  0  0  0  0  0
  157.9070  212.1590  155.0560 C   0  0  0  0  0  0  0  0  0  0  0  0
  160.8610  209.0000  155.4230 C   0  0  0  0  0  0  0  0  0  0  0  0
  158.9330  212.3630  155.9960 N   0  0  0  0  0  0  0  0  0  0  0  0
  162.0190  208.9420  156.0770 C   0  0  0  0  0  3  0  0  0  0  0  0
  159.9450  210.1730  155.3280 C   0  0  0  0  0  0  0  0  0  0  0  0
  156.0000  213.4120  154.3210 O   0  0  0  0  0  0  0  0  0  0  0  0
  161.0280  211.8010  156.9370 C   0  0  0  0  0  3  0  0  0  0  0  0
  160.0240  211.4350  156.1400 C   0  0  0  0  0  0  0  0  0  0  0  0
  162.2870  211.1370  157.2610 C   0  0  0  0  0  3  0  0  0  0  0  0
  1 13  1  1  0  0  0
  1 26  1  0  0  0  0
  2 12  1  0  0  0  0
  3 12  1  0  0  0  0
  3  1  1  0  0  0  0
  4  5  2  0  0  0  0
  4 11  1  0  0  0  0
  5  7  1  0  0  0  0
  6  7  2  0  0  0  0
  6 10  1  0  0  0  0
  7  9  1  0  0  0  0
  8  9  1  0  0  0  0
  9  2  2  0  0  0  0
 10  3  2  0  0  0  0
 11  8  2  0  0  0  0
 14 13  1  0  0  0  0
 15 14  2  0  0  0  0
 16 14  1  0  0  0  0
 17 16  1  0  0  0  0
 18 22  1  0  0  0  0
 19 17  1  0  0  0  0
 20 19  2  0  0  0  0
 21 20  1  0  0  0  0
 21 18  1  0  0  0  0
 22 17  2  0  0  0  0
 23 24  1  0  0  0  0
 24 21  1  0  0  0  0
 25 24  1  0  0  0  0
 26 34  1  0  0  0  0
 27 41  2  0  0  0  0
 28 33  1  0  0  0  0
 28 29  1  0  0  0  0
 29 30  2  0  0  0  0
 31 32  1  0  0  0  0
 31 33  2  0  0  0  0
 32 37  2  0  0  0  0
 33 35  1  0  0  0  0
 34 36  2  0  0  0  0
 35 40  1  0  0  0  0
 35 30  1  0  0  0  0
 36 27  1  0  0  0  0
 37 34  1  0  0  0  0
 37 40  1  0  0  0  0
 38 28  2  0  0  0  0
 39 41  1  0  0  0  0
 40 39  2  0  0  0  0
M  END
>  <MODEL>
7

>  <REMARK>
 VINA RESULT:      -7.5      1.965      2.582
  Name = 
  8 active torsions:
  status: ('A' for Active; 'I' for Inactive)
    1  A    between atoms: C_1  and  C_9
    2  A    between atoms: C_1  and  O_18
    3  A    between atoms: C_3  and  C_9
    4  A    between atoms: C_4  and  C_19
    5  A    between atoms: O_18  and  C_19
    6  A    between atoms: C_19  and  S_33
    7  A    between atoms: C_21  and  S_33
    8  A    between atoms: C_22  and  N_38
                            x       y       z     vdW  Elec       q    Type
                         _______ _______ _______ _____ _____    ______ ____

>  <TORSDO>
F 8

$$$$
=
 OpenBabel11052412153D

 41 46  0  0  1  0  0  0  0  0999 V2000
  162.0630  209.7070  151.3100 C   0  0  2  0  0  3  0  0  0  0  0  0
  159.1310  211.3620  152.9640 C   0  0  0  0  0  3  0  0  0  0  0  0
  161.3690  210.3740  152.4580 C   0  0  0  0  0  0  0  0  0  0  0  0
  158.6640  212.1420  156.8890 C   0  0  0  0  0  3  0  0  0  0  0  0
  159.9160  211.9430  156.4810 C   0  0  0  0  0  3  0  0  0  0  0  0
  161.4660  210.9990  154.9060 C   0  0  0  0  0  3  0  0  0  0  0  0
  160.1950  211.2640  155.2060 C   0  0  0  0  0  0  0  0  0  0  0  0
  157.6950  211.0590  154.9180 C   0  0  0  0  0  3  0  0  0  0  0  0
  159.0560  210.7800  154.3360 C   0  0  1  0  0  3  0  0  0  0  0  0
  161.9500  210.3530  153.6690 C   0  0  0  0  0  3  0  0  0  0  0  0
  157.5190  211.6840  156.0860 C   0  0  0  0  0  3  0  0  0  0  0  0
  160.1490  211.1410  152.1340 C   0  0  0  0  0  3  0  0  0  0  0  0
  162.7450  210.6770  150.5260 O   0  0  0  0  0  0  0  0  0  0  0  0
  162.3310  211.0250  149.2390 C   0  0  0  0  0  0  0  0  0  0  0  0
  162.5380  210.2550  148.2620 O   0  0  0  0  0  0  0  0  0  0  0  0
  161.6740  212.3420  149.0100 C   0  0  0  0  0  2  0  0  0  0  0  0
  161.4990  212.5870  147.5510 C   0  0  0  0  0  0  0  0  0  0  0  0
  160.0810  212.5450  145.5050 C   0  0  0  0  0  2  0  0  0  0  0  0
  162.5960  213.1900  146.7790 C   0  0  0  0  0  3  0  0  0  0  0  0
  162.4870  213.3430  145.4620 C   0  0  0  0  0  3  0  0  0  0  0  0
  161.2920  212.9350  144.7740 N   0  0  0  0  0  0  0  0  0  0  0  0
  160.3450  212.2670  146.9610 C   0  0  0  0  0  3  0  0  0  0  0  0
  162.5880  213.1140  142.6980 C   0  0  0  0  0  1  0  0  0  0  0  0
  161.2060  213.0190  143.3210 C   0  0  0  0  0  3  0  0  0  0  0  0
  160.4550  211.8290  142.7550 C   0  0  0  0  0  1  0  0  0  0  0  0
  160.8920  208.7600  150.2720 S   0  0  0  0  0  0  0  0  0  0  0  0
  161.0410  206.7370  153.8160 C   0  0  0  0  0  3  0  0  0  0  0  0
  160.9150  202.1870  148.6920 C   0  0  0  0  0  0  0  0  0  0  0  0
  161.2070  201.2080  149.7770 C   0  0  0  0  0  3  0  0  0  0  0  0
  161.3520  202.0800  151.0470 C   0  0  0  0  0  3  0  0  0  0  0  0
  160.6270  204.6540  148.6160 C   0  0  0  0  0  3  0  0  0  0  0  0
  160.6420  205.9020  149.4030 C   0  0  0  0  0  3  0  0  0  0  0  0
  160.8910  203.5140  149.2390 C   0  0  0  0  0  0  0  0  0  0  0  0
  160.9270  207.3100  151.3440 C   0  0  0  0  0  0  0  0  0  0  0  0
  161.1580  203.4660  150.6190 N   0  0  0  0  0  0  0  0  0  0  0  0
  160.9840  207.6030  152.6410 C   0  0  0  0  0  3  0  0  0  0  0  0
  160.8680  205.9500  150.7350 C   0  0  0  0  0  0  0  0  0  0  0  0
  160.7070  201.8900  147.4860 O   0  0  0  0  0  0  0  0  0  0  0  0
  161.2060  204.4670  152.7610 C   0  0  0  0  0  3  0  0  0  0  0  0
  161.1010  204.6440  151.4430 C   0  0  0  0  0  0  0  0  0  0  0  0
  161.1390  205.4190  153.8650 C   0  0  0  0  0  3  0  0  0  0  0  0
  1 26  1  6  0  0  0
  1  3  1  0  0  0  0
  3 10  2  0  0  0  0
  5  4  2  0  0  0  0
  6  7  2  0  0  0  0
  7  5  1  0  0  0  0
  8 11  2  0  0  0  0
  9  2  1  6  0  0  0
  9  8  1  0  0  0  0
  9  7  1  0  0  0  0
 10  6  1  0  0  0  0
 11  4  1  0  0  0  0
 12  3  1  0  0  0  0
 12  2  2  0  0  0  0
 13  1  1  0  0  0  0
 14 13  1  0  0  0  0
 15 14  2  0  0  0  0
 16 14  1  0  0  0  0
 17 16  1  0  0  0  0
 18 22  1  0  0  0  0
 19 17  1  0  0  0  0
 20 19  2  0  0  0  0
 21 20  1  0  0  0  0
 21 18  1  0  0  0  0
 22 17  2  0  0  0  0
 23 24  1  0  0  0  0
 24 21  1  0  0  0  0
 25 24  1  0  0  0  0
 26 34  1  0  0  0  0
 27 41  2  0  0  0  0
 28 33  1  0  0  0  0
 28 29  1  0  0  0  0
 29 30  2  0  0  0  0
 31 33  2  0  0  0  0
 31 32  1  0  0  0  0
 32 37  2  0  0  0  0
 33 35  1  0  0  0  0
 34 36  2  0  0  0  0
 35 30  1  0  0  0  0
 35 40  1  0  0  0  0
 36 27  1  0  0  0  0
 37 34  1  0  0  0  0
 37 40  1  0  0  0  0
 38 28  2  0  0  0  0
 39 41  1  0  0  0  0
 40 39  2  0  0  0  0
M  END
>  <MODEL>
8

>  <REMARK>
 VINA RESULT:      -7.4      2.206      7.285
  Name = 
  8 active torsions:
  status: ('A' for Active; 'I' for Inactive)
    1  A    between atoms: C_1  and  C_9
    2  A    between atoms: C_1  and  O_18
    3  A    between atoms: C_3  and  C_9
    4  A    between atoms: C_4  and  C_19
    5  A    between atoms: O_18  and  C_19
    6  A    between atoms: C_19  and  S_33
    7  A    between atoms: C_21  and  S_33
    8  A    between atoms: C_22  and  N_38
                            x       y       z     vdW  Elec       q    Type
                         _______ _______ _______ _____ _____    ______ ____

>  <TORSDO>
F 8

$$$$
=
 OpenBabel11052412153D

 41 46  0  0  1  0  0  0  0  0999 V2000
  160.8300  207.3310  151.4600 C   0  0  2  0  0  3  0  0  0  0  0  0
  160.0770  204.4130  149.2280 C   0  0  0  0  0  3  0  0  0  0  0  0
  160.7580  205.8700  151.1390 C   0  0  0  0  0  0  0  0  0  0  0  0
  161.1950  200.5790  149.7620 C   0  0  0  0  0  3  0  0  0  0  0  0
  161.2060  201.3450  150.8520 C   0  0  0  0  0  3  0  0  0  0  0  0
  161.3400  203.5190  151.8670 C   0  0  0  0  0  3  0  0  0  0  0  0
  161.2220  202.8120  150.7430 C   0  0  0  0  0  0  0  0  0  0  0  0
  161.2240  202.4950  148.2380 C   0  0  0  0  0  3  0  0  0  0  0  0
  161.2260  203.4740  149.3830 C   0  0  0  0  0  0  0  0  0  0  0  0
  161.3480  204.9930  151.9690 C   0  0  0  0  0  3  0  0  0  0  0  0
  161.2080  201.1710  148.4150 C   0  0  0  0  0  3  0  0  0  0  0  0
  159.9060  205.4880  149.9950 C   0  0  0  0  0  2  0  0  0  0  0  0
  160.8380  208.0920  150.2590 O   0  0  0  0  0  0  0  0  0  0  0  0
  162.0150  208.5840  149.6930 C   0  0  0  0  0  0  0  0  0  0  0  0
  162.2480  209.8230  149.6580 O   0  0  0  0  0  0  0  0  0  0  0  0
  162.9880  207.6360  149.0820 C   0  0  0  0  0  2  0  0  0  0  0  0
  162.3550  206.9050  147.9480 C   0  0  0  0  0  0  0  0  0  0  0  0
  162.4080  205.0880  146.2470 C   0  0  0  0  0  2  0  0  0  0  0  0
  161.0050  207.2830  147.5030 C   0  0  0  0  0  3  0  0  0  0  0  0
  160.4570  206.6940  146.4440 C   0  0  0  0  0  3  0  0  0  0  0  0
  161.1680  205.6710  145.7250 N   0  0  0  0  0  0  0  0  0  0  0  0
  163.0150  205.9060  147.3550 C   0  0  0  0  0  3  0  0  0  0  0  0
  161.4390  205.4530  143.2960 C   0  0  0  0  0  1  0  0  0  0  0  0
  160.6050  205.0900  144.5110 C   0  0  0  0  0  3  0  0  0  0  0  0
  160.4920  203.5820  144.6400 C   0  0  0  0  0  1  0  0  0  0  0  0
  162.3000  207.7280  152.4730 S   0  0  0  0  0  0  0  0  0  0  0  0
  160.6050  207.3380  156.1670 C   0  0  0  0  0  3  0  0  0  0  0  0
  158.8020  213.4120  153.5510 C   0  0  0  0  0  0  0  0  0  0  0  0
  157.8800  213.4530  154.7220 C   0  0  0  0  0  3  0  0  0  0  0  0
  158.0900  212.0890  155.4210 C   0  0  0  0  0  3  0  0  0  0  0  0
  160.4270  211.7440  152.6860 C   0  0  0  0  0  3  0  0  0  0  0  0
  161.0140  210.4050  152.8860 C   0  0  0  0  0  3  0  0  0  0  0  0
  159.4950  212.1550  153.5340 C   0  0  0  0  0  0  0  0  0  0  0  0
  161.3270  208.2370  153.9040 C   0  0  0  0  0  0  0  0  0  0  0  0
  159.0780  211.3640  154.6200 N   0  0  0  0  0  0  0  0  0  0  0  0
  161.2830  207.3270  154.8740 C   0  0  0  0  0  3  0  0  0  0  0  0
  160.6900  209.5860  153.9120 C   0  0  0  0  0  0  0  0  0  0  0  0
  158.9560  214.3430  152.7180 O   0  0  0  0  0  0  0  0  0  0  0  0
  159.3310  209.4970  156.0480 C   0  0  0  0  0  3  0  0  0  0  0  0
  159.6810  210.0890  154.9050 C   0  0  0  0  0  0  0  0  0  0  0  0
  159.7810  208.2490  156.6580 C   0  0  0  0  0  3  0  0  0  0  0  0
  1 13  1  6  0  0  0
  1 26  1  0  0  0  0
  2  9  2  0  0  0  0
  2 12  1  0  0  0  0
  3  1  1  0  0  0  0
  3 10  2  0  0  0  0
  4  5  2  0  0  0  0
  6 10  1  0  0  0  0
  7  5  1  0  0  0  0
  7  6  2  0  0  0  0
  8 11  2  0  0  0  0
  8  9  1  0  0  0  0
  9  7  1  0  0  0  0
 11  4  1  0  0  0  0
 12  3  1  0  0  0  0
 14 13  1  0  0  0  0
 15 14  2  0  0  0  0
 16 14  1  0  0  0  0
 17 16  1  0  0  0  0
 18 22  1  0  0  0  0
 19 17  1  0  0  0  0
 20 19  2  0  0  0  0
 21 18  1  0  0  0  0
 21 20  1  0  0  0  0
 22 17  2  0  0  0  0
 23 24  1  0  0  0  0
 24 25  1  0  0  0  0
 24 21  1  0  0  0  0
 26 34  1  0  0  0  0
 27 41  2  0  0  0  0
 28 29  1  0  0  0  0
 29 30  2  0  0  0  0
 31 32  1  0  0  0  0
 31 33  2  0  0  0  0
 32 37  2  0  0  0  0
 33 28  1  0  0  0  0
 33 35  1  0  0  0  0
 34 37  1  0  0  0  0
 34 36  2  0  0  0  0
 35 40  1  0  0  0  0
 35 30  1  0  0  0  0
 36 27  1  0  0  0  0
 37 40  1  0  0  0  0
 38 28  2  0  0  0  0
 39 41  1  0  0  0  0
 40 39  2  0  0  0  0
M  END
>  <MODEL>
9

>  <REMARK>
 VINA RESULT:      -7.3      2.933      3.806
  Name = 
  8 active torsions:
  status: ('A' for Active; 'I' for Inactive)
    1  A    between atoms: C_1  and  C_9
    2  A    between atoms: C_1  and  O_18
    3  A    between atoms: C_3  and  C_9
    4  A    between atoms: C_4  and  C_19
    5  A    between atoms: O_18  and  C_19
    6  A    between atoms: C_19  and  S_33
    7  A    between atoms: C_21  and  S_33
    8  A    between atoms: C_22  and  N_38
                            x       y       z     vdW  Elec       q    Type
                         _______ _______ _______ _____ _____    ______ ____

>  <TORSDO>
F 8

$$$$
