=
 OpenBabel11042422433D

 38 42  0  0  1  0  0  0  0  0999 V2000
  161.5390  206.9390  153.9030 C   0  0  0  0  0  3  0  0  0  0  0  0
  160.1060  209.9240  156.8370 N   0  0  0  0  0  1  0  0  0  0  0  0
  159.9810  210.7500  154.4490 C   0  0  0  0  0  0  0  0  0  0  0  0
  159.2490  212.8140  153.2380 C   0  0  0  0  0  0  0  0  0  0  0  0
  159.4570  212.1430  154.5880 C   0  0  0  0  0  3  0  0  0  0  0  0
  160.7880  208.9440  153.4390 N   0  0  0  0  0  0  0  0  0  0  0  0
  160.7560  208.7140  154.7320 C   0  0  0  0  0  0  0  0  0  0  0  0
  160.3170  210.1870  153.2300 C   0  0  2  0  0  3  0  0  0  0  0  0
  159.6210  212.2080  152.0660 C   0  0  0  0  0  0  0  0  0  0  0  0
  161.2030  207.5020  155.1010 N   0  0  0  0  0  0  0  0  0  0  0  0
  160.1760  210.8250  152.0750 C   0  0  0  0  0  3  0  0  0  0  0  0
  161.2800  207.8410  152.8600 C   0  0  0  0  0  0  0  0  0  0  0  0
  160.2660  209.7970  155.4280 C   0  0  0  0  0  0  0  0  0  0  0  0
  160.4940  212.9280  149.8940 C   0  0  0  0  0  0  0  0  0  0  0  0
  159.5290  212.9160  150.7750 C   0  0  0  0  0  3  0  0  0  0  0  0
  161.4520  212.9420  149.0070 C   0  0  0  0  0  0  0  0  0  0  0  0
  162.4330  211.8220  148.9250 C   0  0  0  0  0  2  0  0  0  0  0  0
  161.7820  210.5770  148.3490 C   0  0  0  0  0  1  0  0  0  0  0  0
  161.6560  214.3710  147.9520 S   0  0  0  0  0  0  0  0  0  0  0  0
  161.8410  213.3670  146.5120 N   0  0  0  0  0  0  0  0  0  0  0  0
  160.5930  212.4400  144.6230 C   0  0  0  0  0  2  0  0  0  0  0  0
  161.5530  213.1790  143.6950 C   0  0  1  0  0  3  0  0  0  0  0  0
  160.5060  213.2020  145.9420 C   0  0  0  0  0  2  0  0  0  0  0  0
  162.6510  214.1320  145.5660 C   0  0  0  0  0  2  0  0  0  0  0  0
  162.8510  213.3520  144.3440 N   0  0  0  0  0  2  0  0  0  0  0  0
  161.7290  212.3870  142.4160 C   0  0  0  0  0  1  0  0  0  0  0  0
  157.5510  214.4530  154.0770 C   0  0  0  0  0  1  0  0  0  0  0  0
  158.6850  214.0990  153.2970 O   0  0  0  0  0  0  0  0  0  0  0  0
  161.5100  207.6430  151.4110 C   0  0  0  0  0  0  0  0  0  0  0  0
  161.9610  208.6010  150.7320 O   0  0  0  0  0  0  0  0  0  0  0  0
  160.9970  207.1920  148.3090 C   0  0  0  0  0  1  0  0  0  0  0  0
  161.1360  205.1090  151.3360 C   0  0  0  0  0  3  0  0  0  0  0  0
  161.2290  206.3540  150.7330 C   0  0  0  0  0  0  0  0  0  0  0  0
  160.8610  204.2440  150.2930 C   0  0  0  0  0  0  0  0  0  0  0  0
  160.7880  204.8850  149.1500 O   0  0  0  0  0  0  0  0  0  0  0  0
  161.0040  206.1540  149.3790 C   0  0  0  0  0  0  0  0  0  0  0  0
  160.2150  202.1190  149.4860 O   0  0  0  0  0  0  0  0  0  0  0  0
  160.6750  202.8030  150.4380 C   0  0  0  0  0  3  0  0  0  0  0  0
  1 10  1  0  0  0  0
  3  5  1  0  0  0  0
  3 13  2  0  0  0  0
  4 28  1  0  0  0  0
  4  5  2  0  0  0  0
  6  7  1  0  0  0  0
  7 10  2  0  0  0  0
  7 13  1  0  0  0  0
  8 11  1  1  0  0  0
  8  6  1  0  0  0  0
  8  3  1  0  0  0  0
  9 11  2  0  0  0  0
  9  4  1  0  0  0  0
 12  6  1  0  0  0  0
 12  1  2  0  0  0  0
 13  2  1  0  0  0  0
 14 15  2  0  0  0  0
 15  9  1  0  0  0  0
 16 14  2  0  0  0  0
 17 16  1  0  0  0  0
 18 17  1  0  0  0  0
 19 16  1  0  0  0  0
 20 19  1  0  0  0  0
 21 23  1  0  0  0  0
 22 26  1  6  0  0  0
 22 25  1  0  0  0  0
 22 21  1  0  0  0  0
 23 20  1  0  0  0  0
 24 20  1  0  0  0  0
 25 24  1  0  0  0  0
 28 27  1  0  0  0  0
 29 12  1  0  0  0  0
 30 29  2  0  0  0  0
 31 36  1  0  0  0  0
 33 32  1  0  0  0  0
 33 29  1  0  0  0  0
 34 38  1  0  0  0  0
 34 32  2  0  0  0  0
 35 36  1  0  0  0  0
 35 34  1  0  0  0  0
 36 33  2  0  0  0  0
 37 38  2  0  0  0  0
M  END
>  <MODEL>
1

>  <REMARK>
 VINA RESULT:      -7.7      0.000      0.000
  Name = 
  8 active torsions:
  status: ('A' for Active; 'I' for Inactive)
    1  A    between atoms: N_4  and  S_35
    2  A    between atoms: C_6  and  O_38
    3  A    between atoms: C_10  and  C_23
    4  A    between atoms: C_10  and  C_29
    5  A    between atoms: C_12  and  C_25
    6  A    between atoms: C_18  and  C_28
    7  A    between atoms: C_26  and  C_36
    8  A    between atoms: S_35  and  C_36
                            x       y       z     vdW  Elec       q    Type
                         _______ _______ _______ _____ _____    ______ ____

>  <TORSDO>
F 8

$$$$
=
 OpenBabel11042422433D

 38 42  0  0  1  0  0  0  0  0999 V2000
  159.9120  213.9260  150.2640 C   0  0  0  0  0  3  0  0  0  0  0  0
  158.4060  213.1560  154.3520 N   0  0  0  0  0  1  0  0  0  0  0  0
  159.8200  211.2620  153.4480 C   0  0  0  0  0  0  0  0  0  0  0  0
  160.6440  209.0300  154.2250 C   0  0  0  0  0  0  0  0  0  0  0  0
  159.7910  210.2490  154.5470 C   0  0  0  0  0  3  0  0  0  0  0  0
  160.2900  212.1290  151.4590 N   0  0  0  0  0  0  0  0  0  0  0  0
  159.5470  212.9890  152.1180 C   0  0  0  0  0  0  0  0  0  0  0  0
  160.4780  211.0560  152.2480 C   0  0  2  0  0  3  0  0  0  0  0  0
  161.2560  208.8790  153.0090 C   0  0  0  0  0  0  0  0  0  0  0  0
  159.2670  214.1220  151.4520 N   0  0  0  0  0  0  0  0  0  0  0  0
  161.1650  209.9540  151.9790 C   0  0  0  0  0  3  0  0  0  0  0  0
  160.5530  212.6790  150.2650 C   0  0  0  0  0  0  0  0  0  0  0  0
  159.2120  212.5160  153.3680 C   0  0  0  0  0  0  0  0  0  0  0  0
  161.5570  206.7940  151.7590 C   0  0  0  0  0  0  0  0  0  0  0  0
  161.9770  207.6390  152.6620 C   0  0  0  0  0  3  0  0  0  0  0  0
  161.1460  205.9460  150.8550 C   0  0  0  0  0  0  0  0  0  0  0  0
  160.2970  206.3980  149.7150 C   0  0  0  0  0  2  0  0  0  0  0  0
  161.0160  207.4520  148.8930 C   0  0  0  0  0  1  0  0  0  0  0  0
  161.5130  204.2070  151.0450 S   0  0  0  0  0  0  0  0  0  0  0  0
  160.8620  203.8240  149.4510 N   0  0  0  0  0  0  0  0  0  0  0  0
  161.4870  203.6500  147.0920 C   0  0  0  0  0  2  0  0  0  0  0  0
  161.0480  202.1890  147.1380 C   0  0  1  0  0  3  0  0  0  0  0  0
  161.9340  204.0690  148.4890 C   0  0  0  0  0  2  0  0  0  0  0  0
  160.5640  202.3930  149.4480 C   0  0  0  0  0  2  0  0  0  0  0  0
  160.0100  202.0050  148.1520 N   0  0  0  0  0  2  0  0  0  0  0  0
  160.5090  201.7800  145.7830 C   0  0  0  0  0  1  0  0  0  0  0  0
  161.5920  208.1550  156.3730 C   0  0  0  0  0  1  0  0  0  0  0  0
  160.7210  208.0750  155.2520 O   0  0  0  0  0  0  0  0  0  0  0  0
  161.3500  212.0670  149.1790 C   0  0  0  0  0  0  0  0  0  0  0  0
  162.1840  211.1710  149.4690 O   0  0  0  0  0  0  0  0  0  0  0  0
  162.9020  214.3990  147.6820 C   0  0  0  0  0  1  0  0  0  0  0  0
  160.3410  211.9020  146.8290 C   0  0  0  0  0  3  0  0  0  0  0  0
  161.1960  212.4700  147.7600 C   0  0  0  0  0  0  0  0  0  0  0  0
  160.5670  212.6240  145.6720 C   0  0  0  0  0  0  0  0  0  0  0  0
  161.4730  213.5540  145.8590 O   0  0  0  0  0  0  0  0  0  0  0  0
  161.8720  213.4890  147.1040 C   0  0  0  0  0  0  0  0  0  0  0  0
  160.5480  212.2330  143.3410 O   0  0  0  0  0  0  0  0  0  0  0  0
  159.8870  212.3870  144.4010 C   0  0  0  0  0  3  0  0  0  0  0  0
  1 12  2  0  0  0  0
  1 10  1  0  0  0  0
  3  5  1  0  0  0  0
  4  5  2  0  0  0  0
  4 28  1  0  0  0  0
  6  7  1  0  0  0  0
  6  8  1  0  0  0  0
  7 13  1  0  0  0  0
  8 11  1  6  0  0  0
  8  3  1  0  0  0  0
  9  4  1  0  0  0  0
 10  7  2  0  0  0  0
 11  9  2  0  0  0  0
 12  6  1  0  0  0  0
 13  3  2  0  0  0  0
 13  2  1  0  0  0  0
 14 15  2  0  0  0  0
 15  9  1  0  0  0  0
 16 19  1  0  0  0  0
 16 14  2  0  0  0  0
 17 16  1  0  0  0  0
 18 17  1  0  0  0  0
 20 19  1  0  0  0  0
 21 22  1  0  0  0  0
 21 23  1  0  0  0  0
 22 26  1  6  0  0  0
 22 25  1  0  0  0  0
 23 20  1  0  0  0  0
 24 20  1  0  0  0  0
 25 24  1  0  0  0  0
 28 27  1  0  0  0  0
 29 30  2  0  0  0  0
 29 12  1  0  0  0  0
 32 33  1  0  0  0  0
 33 29  1  0  0  0  0
 34 35  1  0  0  0  0
 34 32  2  0  0  0  0
 35 36  1  0  0  0  0
 36 31  1  0  0  0  0
 36 33  2  0  0  0  0
 37 38  2  0  0  0  0
 38 34  1  0  0  0  0
M  END
>  <MODEL>
2

>  <REMARK>
 VINA RESULT:      -7.7      3.715      7.640
  Name = 
  8 active torsions:
  status: ('A' for Active; 'I' for Inactive)
    1  A    between atoms: N_4  and  S_35
    2  A    between atoms: C_6  and  O_38
    3  A    between atoms: C_10  and  C_23
    4  A    between atoms: C_10  and  C_29
    5  A    between atoms: C_12  and  C_25
    6  A    between atoms: C_18  and  C_28
    7  A    between atoms: C_26  and  C_36
    8  A    between atoms: S_35  and  C_36
                            x       y       z     vdW  Elec       q    Type
                         _______ _______ _______ _____ _____    ______ ____

>  <TORSDO>
F 8

$$$$
=
 OpenBabel11042422433D

 38 42  0  0  1  0  0  0  0  0999 V2000
  160.9970  207.3440  154.8170 C   0  0  0  0  0  3  0  0  0  0  0  0
  161.3460  204.2150  151.7090 N   0  0  0  0  0  1  0  0  0  0  0  0
  161.5050  206.5590  150.7700 C   0  0  0  0  0  0  0  0  0  0  0  0
  161.8260  207.6430  148.5380 C   0  0  0  0  0  0  0  0  0  0  0  0
  161.6540  206.3370  149.3000 C   0  0  0  0  0  2  0  0  0  0  0  0
  161.2750  207.6850  152.6700 N   0  0  0  0  0  0  0  0  0  0  0  0
  161.2310  206.4010  152.9450 C   0  0  0  0  0  0  0  0  0  0  0  0
  161.4440  207.8180  151.3420 C   0  0  0  0  0  0  0  0  0  0  0  0
  161.7360  208.8600  149.1620 C   0  0  0  0  0  0  0  0  0  0  0  0
  161.0610  206.1060  154.2440 N   0  0  0  0  0  0  0  0  0  0  0  0
  161.5400  208.9380  150.6380 C   0  0  0  0  0  3  0  0  0  0  0  0
  161.1300  208.3350  153.8330 C   0  0  0  0  0  0  0  0  0  0  0  0
  161.3660  205.6350  151.8070 C   0  0  0  0  0  0  0  0  0  0  0  0
  161.3490  211.2600  148.8650 C   0  0  0  0  0  0  0  0  0  0  0  0
  161.7810  210.1200  148.3960 C   0  0  0  0  0  3  0  0  0  0  0  0
  160.9240  212.4050  149.3280 C   0  0  0  0  0  0  0  0  0  0  0  0
  160.9170  212.6800  150.7940 C   0  0  0  0  0  2  0  0  0  0  0  0
  159.8480  213.6980  151.1460 C   0  0  0  0  0  1  0  0  0  0  0  0
  160.2410  213.6130  148.2010 S   0  0  0  0  0  0  0  0  0  0  0  0
  160.9910  212.8370  146.8050 N   0  0  0  0  0  0  0  0  0  0  0  0
  160.5570  212.1740  144.4910 C   0  0  0  0  0  2  0  0  0  0  0  0
  161.7280  213.0610  144.0740 C   0  0  1  0  0  3  0  0  0  0  0  0
  159.9580  212.7310  145.7780 C   0  0  0  0  0  2  0  0  0  0  0  0
  162.0260  213.7480  146.3210 C   0  0  0  0  0  2  0  0  0  0  0  0
  162.6980  213.1620  145.1620 N   0  0  0  0  0  2  0  0  0  0  0  0
  162.3980  212.4700  142.8510 C   0  0  0  0  0  1  0  0  0  0  0  0
  162.1110  206.2560  146.4720 C   0  0  0  0  0  1  0  0  0  0  0  0
  162.0480  207.4980  147.1590 O   0  0  0  0  0  0  0  0  0  0  0  0
  161.1050  209.8040  154.0150 C   0  0  0  0  0  0  0  0  0  0  0  0
  162.1470  210.4640  153.7680 O   0  0  0  0  0  0  0  0  0  0  0  0
  160.1510  210.2060  157.0180 C   0  0  0  0  0  1  0  0  0  0  0  0
  158.9520  211.1510  153.6730 C   0  0  0  0  0  3  0  0  0  0  0  0
  159.8930  210.5240  154.4750 C   0  0  0  0  0  0  0  0  0  0  0  0
  158.0290  211.6650  154.5650 C   0  0  0  0  0  0  0  0  0  0  0  0
  158.3580  211.3850  155.8050 O   0  0  0  0  0  0  0  0  0  0  0  0
  159.4730  210.7010  155.7860 C   0  0  0  0  0  0  0  0  0  0  0  0
  156.9430  213.4840  153.5190 O   0  0  0  0  0  0  0  0  0  0  0  0
  156.8390  212.4200  154.1840 C   0  0  0  0  0  3  0  0  0  0  0  0
  2 13  1  0  0  0  0
  3  8  1  0  0  0  0
  3 13  2  0  0  0  0
  4  9  2  0  0  0  0
  4  5  1  0  0  0  0
  5  3  1  0  0  0  0
  6  7  1  0  0  0  0
  6 12  1  0  0  0  0
  7 10  2  0  0  0  0
  8  6  1  0  0  0  0
  9 11  1  0  0  0  0
 10  1  1  0  0  0  0
 11  8  2  0  0  0  0
 12 29  1  0  0  0  0
 12  1  2  0  0  0  0
 13  7  1  0  0  0  0
 14 16  2  0  0  0  0
 15 14  2  0  0  0  0
 15  9  1  0  0  0  0
 16 17  1  0  0  0  0
 17 18  1  0  0  0  0
 19 16  1  0  0  0  0
 20 19  1  0  0  0  0
 21 23  1  0  0  0  0
 22 26  1  6  0  0  0
 22 21  1  0  0  0  0
 22 25  1  0  0  0  0
 23 20  1  0  0  0  0
 24 20  1  0  0  0  0
 25 24  1  0  0  0  0
 27 28  1  0  0  0  0
 28  4  1  0  0  0  0
 29 33  1  0  0  0  0
 30 29  2  0  0  0  0
 32 33  1  0  0  0  0
 32 34  2  0  0  0  0
 33 36  2  0  0  0  0
 34 35  1  0  0  0  0
 36 35  1  0  0  0  0
 36 31  1  0  0  0  0
 37 38  2  0  0  0  0
 38 34  1  0  0  0  0
M  END
>  <MODEL>
3

>  <REMARK>
 VINA RESULT:      -7.4      1.955      5.867
  Name = 
  8 active torsions:
  status: ('A' for Active; 'I' for Inactive)
    1  A    between atoms: N_4  and  S_35
    2  A    between atoms: C_6  and  O_38
    3  A    between atoms: C_10  and  C_23
    4  A    between atoms: C_10  and  C_29
    5  A    between atoms: C_12  and  C_25
    6  A    between atoms: C_18  and  C_28
    7  A    between atoms: C_26  and  C_36
    8  A    between atoms: S_35  and  C_36
                            x       y       z     vdW  Elec       q    Type
                         _______ _______ _______ _____ _____    ______ ____

>  <TORSDO>
F 8

$$$$
=
 OpenBabel11042422433D

 38 42  0  0  1  0  0  0  0  0999 V2000
  158.9460  214.0140  153.6680 C   0  0  0  0  0  3  0  0  0  0  0  0
  159.6810  210.4130  156.1320 N   0  0  0  0  0  1  0  0  0  0  0  0
  160.4210  210.1320  153.7280 C   0  0  0  0  0  0  0  0  0  0  0  0
  161.4880  208.3660  152.3130 C   0  0  0  0  0  0  0  0  0  0  0  0
  160.9310  208.7280  153.6810 C   0  0  0  0  0  3  0  0  0  0  0  0
  159.8440  212.1390  152.9750 N   0  0  0  0  0  0  0  0  0  0  0  0
  159.5450  212.0780  154.2520 C   0  0  0  0  0  0  0  0  0  0  0  0
  160.3850  210.9600  152.6200 C   0  0  2  0  0  3  0  0  0  0  0  0
  161.4050  209.2270  151.2490 C   0  0  0  0  0  0  0  0  0  0  0  0
  158.9870  213.1910  154.7570 N   0  0  0  0  0  0  0  0  0  0  0  0
  160.8270  210.5900  151.4250 C   0  0  0  0  0  3  0  0  0  0  0  0
  159.4810  213.3580  152.5500 C   0  0  0  0  0  0  0  0  0  0  0  0
  159.8740  210.8530  154.7920 C   0  0  0  0  0  0  0  0  0  0  0  0
  161.6340  207.6240  149.4110 C   0  0  0  0  0  0  0  0  0  0  0  0
  161.8350  208.8200  149.8980 C   0  0  0  0  0  3  0  0  0  0  0  0
  161.4330  206.4320  148.9160 C   0  0  0  0  0  0  0  0  0  0  0  0
  160.2870  205.5980  149.3780 C   0  0  0  0  0  2  0  0  0  0  0  0
  160.7650  204.4810  150.2880 C   0  0  0  0  0  1  0  0  0  0  0  0
  162.6060  205.7520  147.7520 S   0  0  0  0  0  0  0  0  0  0  0  0
  161.3970  204.6700  147.0600 N   0  0  0  0  0  0  0  0  0  0  0  0
  160.5420  203.8290  144.9270 C   0  0  0  0  0  2  0  0  0  0  0  0
  160.8910  202.4220  145.4030 C   0  0  1  0  0  3  0  0  0  0  0  0
  161.4790  204.8210  145.6090 C   0  0  0  0  0  2  0  0  0  0  0  0
  161.8040  203.3080  147.4010 C   0  0  0  0  0  2  0  0  0  0  0  0
  160.8370  202.3530  146.8620 N   0  0  0  0  0  2  0  0  0  0  0  0
  159.9100  201.4310  144.8130 C   0  0  0  0  0  1  0  0  0  0  0  0
  161.9830  206.0920  153.2400 C   0  0  0  0  0  1  0  0  0  0  0  0
  162.0550  207.0840  152.2250 O   0  0  0  0  0  0  0  0  0  0  0  0
  159.6160  213.8780  151.1710 C   0  0  0  0  0  0  0  0  0  0  0  0
  160.6860  214.4530  150.8410 O   0  0  0  0  0  0  0  0  0  0  0  0
  156.4990  214.2510  151.6570 C   0  0  0  0  0  1  0  0  0  0  0  0
  158.6930  213.4230  148.8240 C   0  0  0  0  0  3  0  0  0  0  0  0
  158.5360  213.7420  150.1640 C   0  0  0  0  0  0  0  0  0  0  0  0
  157.4050  213.4170  148.3210 C   0  0  0  0  0  0  0  0  0  0  0  0
  156.5270  213.7030  149.2540 O   0  0  0  0  0  0  0  0  0  0  0  0
  157.1740  213.9040  150.3740 C   0  0  0  0  0  0  0  0  0  0  0  0
  157.7130  212.2780  146.2730 O   0  0  0  0  0  0  0  0  0  0  0  0
  157.0600  213.1300  146.9310 C   0  0  0  0  0  3  0  0  0  0  0  0
  1 10  1  0  0  0  0
  3 13  2  0  0  0  0
  4  5  2  0  0  0  0
  5  3  1  0  0  0  0
  6  7  1  0  0  0  0
  7 10  2  0  0  0  0
  7 13  1  0  0  0  0
  8 11  1  6  0  0  0
  8  6  1  0  0  0  0
  8  3  1  0  0  0  0
  9 11  2  0  0  0  0
  9  4  1  0  0  0  0
 12  6  1  0  0  0  0
 12  1  2  0  0  0  0
 13  2  1  0  0  0  0
 14 15  2  0  0  0  0
 15  9  1  0  0  0  0
 16 17  1  0  0  0  0
 16 14  2  0  0  0  0
 17 18  1  0  0  0  0
 19 16  1  0  0  0  0
 20 24  1  0  0  0  0
 20 19  1  0  0  0  0
 21 22  1  0  0  0  0
 21 23  1  0  0  0  0
 22 26  1  6  0  0  0
 22 25  1  0  0  0  0
 23 20  1  0  0  0  0
 25 24  1  0  0  0  0
 28  4  1  0  0  0  0
 28 27  1  0  0  0  0
 29 12  1  0  0  0  0
 30 29  2  0  0  0  0
 32 33  1  0  0  0  0
 33 36  2  0  0  0  0
 33 29  1  0  0  0  0
 34 32  2  0  0  0  0
 34 35  1  0  0  0  0
 35 36  1  0  0  0  0
 36 31  1  0  0  0  0
 37 38  2  0  0  0  0
 38 34  1  0  0  0  0
M  END
>  <MODEL>
4

>  <REMARK>
 VINA RESULT:      -6.8      3.645      7.553
  Name = 
  8 active torsions:
  status: ('A' for Active; 'I' for Inactive)
    1  A    between atoms: N_4  and  S_35
    2  A    between atoms: C_6  and  O_38
    3  A    between atoms: C_10  and  C_23
    4  A    between atoms: C_10  and  C_29
    5  A    between atoms: C_12  and  C_25
    6  A    between atoms: C_18  and  C_28
    7  A    between atoms: C_26  and  C_36
    8  A    between atoms: S_35  and  C_36
                            x       y       z     vdW  Elec       q    Type
                         _______ _______ _______ _____ _____    ______ ____

>  <TORSDO>
F 8

$$$$
=
 OpenBabel11042422433D

 38 42  0  0  1  0  0  0  0  0999 V2000
  160.8740  203.9660  148.6680 C   0  0  0  0  0  3  0  0  0  0  0  0
  160.5520  203.5880  153.0640 N   0  0  0  0  0  1  0  0  0  0  0  0
  160.9550  205.9680  152.3060 C   0  0  0  0  0  0  0  0  0  0  0  0
  161.2160  208.2260  153.3510 C   0  0  0  0  0  0  0  0  0  0  0  0
  161.0310  206.7350  153.5860 C   0  0  0  0  0  3  0  0  0  0  0  0
  161.0370  205.6010  150.1170 N   0  0  0  0  0  0  0  0  0  0  0  0
  160.8160  204.4540  150.7190 C   0  0  0  0  0  0  0  0  0  0  0  0
  161.1270  206.5530  151.0630 C   0  0  2  0  0  3  0  0  0  0  0  0
  161.3990  208.7410  152.0940 C   0  0  0  0  0  0  0  0  0  0  0  0
  160.7040  203.3970  149.8980 N   0  0  0  0  0  0  0  0  0  0  0  0
  161.3450  207.8520  150.8990 C   0  0  0  0  0  3  0  0  0  0  0  0
  161.0840  205.3460  148.8020 C   0  0  0  0  0  0  0  0  0  0  0  0
  160.7550  204.6030  152.0870 C   0  0  0  0  0  0  0  0  0  0  0  0
  160.7980  211.1120  151.9600 C   0  0  0  0  0  0  0  0  0  0  0  0
  161.7010  210.1700  151.8870 C   0  0  0  0  0  3  0  0  0  0  0  0
  159.9020  212.0600  152.0360 C   0  0  0  0  0  0  0  0  0  0  0  0
  158.6880  211.8950  152.8850 C   0  0  0  0  0  2  0  0  0  0  0  0
  159.0590  211.8570  154.3560 C   0  0  0  0  0  1  0  0  0  0  0  0
  160.0810  213.5230  151.0260 S   0  0  0  0  0  0  0  0  0  0  0  0
  159.1790  212.7980  149.6940 N   0  0  0  0  0  0  0  0  0  0  0  0
  157.0650  212.9520  148.4730 C   0  0  0  0  0  2  0  0  0  0  0  0
  157.8770  213.2080  147.2060 C   0  0  1  0  0  3  0  0  0  0  0  0
  157.8680  213.4420  149.6730 C   0  0  0  0  0  2  0  0  0  0  0  0
  159.8830  213.1560  148.4630 C   0  0  0  0  0  2  0  0  0  0  0  0
  159.1910  212.5780  147.3120 N   0  0  0  0  0  2  0  0  0  0  0  0
  157.1390  212.6410  146.0110 C   0  0  0  0  0  1  0  0  0  0  0  0
  161.5790  208.5500  155.8080 C   0  0  0  0  0  1  0  0  0  0  0  0
  161.2170  209.0130  154.5140 O   0  0  0  0  0  0  0  0  0  0  0  0
  161.3230  206.3370  147.7290 C   0  0  0  0  0  0  0  0  0  0  0  0
  161.2530  207.5620  148.0070 O   0  0  0  0  0  0  0  0  0  0  0  0
  163.8690  204.7040  146.7580 C   0  0  0  0  0  1  0  0  0  0  0  0
  160.8930  206.2060  145.2060 C   0  0  0  0  0  3  0  0  0  0  0  0
  161.6460  205.9350  146.3380 C   0  0  0  0  0  0  0  0  0  0  0  0
  161.6100  205.6310  144.1730 C   0  0  0  0  0  0  0  0  0  0  0  0
  162.7060  205.0580  144.6140 O   0  0  0  0  0  0  0  0  0  0  0  0
  162.7570  205.2230  145.9110 C   0  0  0  0  0  0  0  0  0  0  0  0
  161.9370  206.2040  141.9040 O   0  0  0  0  0  0  0  0  0  0  0  0
  161.2060  205.6550  142.7700 C   0  0  0  0  0  3  0  0  0  0  0  0
  1 12  2  0  0  0  0
  1 10  1  0  0  0  0
  3  5  1  0  0  0  0
  4  5  2  0  0  0  0
  4 28  1  0  0  0  0
  6  7  1  0  0  0  0
  6  8  1  0  0  0  0
  7 13  1  0  0  0  0
  8 11  1  1  0  0  0
  8  3  1  0  0  0  0
  9  4  1  0  0  0  0
 10  7  2  0  0  0  0
 11  9  2  0  0  0  0
 12  6  1  0  0  0  0
 13  3  2  0  0  0  0
 13  2  1  0  0  0  0
 14 16  2  0  0  0  0
 15 14  2  0  0  0  0
 15  9  1  0  0  0  0
 16 17  1  0  0  0  0
 17 18  1  0  0  0  0
 19 16  1  0  0  0  0
 20 19  1  0  0  0  0
 21 23  1  0  0  0  0
 22 26  1  6  0  0  0
 22 25  1  0  0  0  0
 22 21  1  0  0  0  0
 23 20  1  0  0  0  0
 24 20  1  0  0  0  0
 25 24  1  0  0  0  0
 28 27  1  0  0  0  0
 29 30  2  0  0  0  0
 29 12  1  0  0  0  0
 32 33  1  0  0  0  0
 33 29  1  0  0  0  0
 34 35  1  0  0  0  0
 34 32  2  0  0  0  0
 35 36  1  0  0  0  0
 36 33  2  0  0  0  0
 36 31  1  0  0  0  0
 37 38  2  0  0  0  0
 38 34  1  0  0  0  0
M  END
>  <MODEL>
5

>  <REMARK>
 VINA RESULT:      -6.8      3.171      5.339
  Name = 
  8 active torsions:
  status: ('A' for Active; 'I' for Inactive)
    1  A    between atoms: N_4  and  S_35
    2  A    between atoms: C_6  and  O_38
    3  A    between atoms: C_10  and  C_23
    4  A    between atoms: C_10  and  C_29
    5  A    between atoms: C_12  and  C_25
    6  A    between atoms: C_18  and  C_28
    7  A    between atoms: C_26  and  C_36
    8  A    between atoms: S_35  and  C_36
                            x       y       z     vdW  Elec       q    Type
                         _______ _______ _______ _____ _____    ______ ____

>  <TORSDO>
F 8

$$$$
=
 OpenBabel11042422433D

 38 42  0  0  1  0  0  0  0  0999 V2000
  162.2730  208.4550  148.4020 C   0  0  0  0  0  3  0  0  0  0  0  0
  161.5790  204.9360  150.9920 N   0  0  0  0  0  1  0  0  0  0  0  0
  161.1920  207.1320  152.1880 C   0  0  0  0  0  0  0  0  0  0  0  0
  160.4980  207.9050  154.4640 C   0  0  0  0  0  0  0  0  0  0  0  0
  160.8320  206.7150  153.5770 C   0  0  0  0  0  3  0  0  0  0  0  0
  161.6630  208.5030  150.5060 N   0  0  0  0  0  0  0  0  0  0  0  0
  161.7960  207.2680  150.0800 C   0  0  0  0  0  0  0  0  0  0  0  0
  161.2910  208.4560  151.7980 C   0  0  2  0  0  3  0  0  0  0  0  0
  160.6350  209.1950  154.0220 C   0  0  0  0  0  0  0  0  0  0  0  0
  162.1710  207.1510  148.7950 N   0  0  0  0  0  0  0  0  0  0  0  0
  161.0470  209.4720  152.6170 C   0  0  0  0  0  3  0  0  0  0  0  0
  161.9560  209.3040  149.4730 C   0  0  0  0  0  0  0  0  0  0  0  0
  161.5210  206.3560  151.0750 C   0  0  0  0  0  0  0  0  0  0  0  0
  159.3430  211.0710  154.9250 C   0  0  0  0  0  0  0  0  0  0  0  0
  160.4270  210.3410  154.9280 C   0  0  0  0  0  3  0  0  0  0  0  0
  158.2610  211.8020  154.9310 C   0  0  0  0  0  0  0  0  0  0  0  0
  156.9540  211.2330  154.4930 C   0  0  0  0  0  2  0  0  0  0  0  0
  155.9560  211.2320  155.6370 C   0  0  0  0  0  1  0  0  0  0  0  0
  158.3680  213.5320  155.3660 S   0  0  0  0  0  0  0  0  0  0  0  0
  158.4490  214.0230  153.6730 N   0  0  0  0  0  0  0  0  0  0  0  0
  159.3620  213.3580  151.5030 C   0  0  0  0  0  2  0  0  0  0  0  0
  157.9330  213.3280  150.9700 C   0  0  1  0  0  3  0  0  0  0  0  0
  159.3310  213.0720  153.0010 C   0  0  0  0  0  2  0  0  0  0  0  0
  157.1040  213.8660  153.1230 C   0  0  0  0  0  2  0  0  0  0  0  0
  157.0950  214.2660  151.7160 N   0  0  0  0  0  2  0  0  0  0  0  0
  157.9320  213.7060  149.5040 C   0  0  0  0  0  1  0  0  0  0  0  0
  160.9450  207.3280  156.8610 C   0  0  0  0  0  1  0  0  0  0  0  0
  160.0770  207.5750  155.7630 O   0  0  0  0  0  0  0  0  0  0  0  0
  161.9530  210.7850  149.4860 C   0  0  0  0  0  0  0  0  0  0  0  0
  162.1520  211.3810  150.5760 O   0  0  0  0  0  0  0  0  0  0  0  0
  164.1170  212.4720  147.8860 C   0  0  0  0  0  1  0  0  0  0  0  0
  160.5230  211.7500  147.5920 C   0  0  0  0  0  3  0  0  0  0  0  0
  161.7270  211.5880  148.2610 C   0  0  0  0  0  0  0  0  0  0  0  0
  160.8310  212.5790  146.5290 C   0  0  0  0  0  0  0  0  0  0  0  0
  162.1030  212.9050  146.5330 O   0  0  0  0  0  0  0  0  0  0  0  0
  162.6700  212.3260  147.5600 C   0  0  0  0  0  0  0  0  0  0  0  0
  159.0180  212.2430  145.0520 O   0  0  0  0  0  0  0  0  0  0  0  0
  159.8710  213.0370  145.5290 C   0  0  0  0  0  3  0  0  0  0  0  0
  1 10  1  0  0  0  0
  1 12  2  0  0  0  0
  2 13  1  0  0  0  0
  3  5  1  0  0  0  0
  4 28  1  0  0  0  0
  5  4  2  0  0  0  0
  6  8  1  0  0  0  0
  7  6  1  0  0  0  0
  7 13  1  0  0  0  0
  8  3  1  0  0  0  0
  8 11  1  1  0  0  0
  9  4  1  0  0  0  0
  9 15  1  0  0  0  0
 10  7  2  0  0  0  0
 11  9  2  0  0  0  0
 12 29  1  0  0  0  0
 12  6  1  0  0  0  0
 13  3  2  0  0  0  0
 14 15  2  0  0  0  0
 14 16  2  0  0  0  0
 16 19  1  0  0  0  0
 17 16  1  0  0  0  0
 17 18  1  0  0  0  0
 20 19  1  0  0  0  0
 21 23  1  0  0  0  0
 22 26  1  6  0  0  0
 22 21  1  0  0  0  0
 22 25  1  0  0  0  0
 23 20  1  0  0  0  0
 24 20  1  0  0  0  0
 25 24  1  0  0  0  0
 28 27  1  0  0  0  0
 29 30  2  0  0  0  0
 32 33  1  0  0  0  0
 33 29  1  0  0  0  0
 34 35  1  0  0  0  0
 34 32  2  0  0  0  0
 35 36  1  0  0  0  0
 36 31  1  0  0  0  0
 36 33  2  0  0  0  0
 37 38  2  0  0  0  0
 38 34  1  0  0  0  0
M  END
>  <MODEL>
6

>  <REMARK>
 VINA RESULT:      -6.3      3.458      6.946
  Name = 
  8 active torsions:
  status: ('A' for Active; 'I' for Inactive)
    1  A    between atoms: N_4  and  S_35
    2  A    between atoms: C_6  and  O_38
    3  A    between atoms: C_10  and  C_23
    4  A    between atoms: C_10  and  C_29
    5  A    between atoms: C_12  and  C_25
    6  A    between atoms: C_18  and  C_28
    7  A    between atoms: C_26  and  C_36
    8  A    between atoms: S_35  and  C_36
                            x       y       z     vdW  Elec       q    Type
                         _______ _______ _______ _____ _____    ______ ____

>  <TORSDO>
F 8

$$$$
=
 OpenBabel11042422433D

 38 42  0  0  1  0  0  0  0  0999 V2000
  160.4360  211.6750  153.9090 C   0  0  0  0  0  3  0  0  0  0  0  0
  160.5790  207.9610  156.3090 N   0  0  0  0  0  1  0  0  0  0  0  0
  160.9340  207.5520  153.8370 C   0  0  0  0  0  0  0  0  0  0  0  0
  161.3670  205.6070  152.3240 C   0  0  0  0  0  0  0  0  0  0  0  0
  161.0830  206.0680  153.7460 C   0  0  0  0  0  3  0  0  0  0  0  0
  160.7680  209.6520  153.1340 N   0  0  0  0  0  0  0  0  0  0  0  0
  160.6190  209.6410  154.4400 C   0  0  0  0  0  0  0  0  0  0  0  0
  160.9640  208.3840  152.7310 C   0  0  2  0  0  3  0  0  0  0  0  0
  161.3650  206.4810  151.2680 C   0  0  0  0  0  0  0  0  0  0  0  0
  160.4100  210.8470  154.9940 N   0  0  0  0  0  0  0  0  0  0  0  0
  161.1570  207.9390  151.4960 C   0  0  0  0  0  3  0  0  0  0  0  0
  160.6590  210.9290  152.7420 C   0  0  0  0  0  0  0  0  0  0  0  0
  160.7080  208.3640  154.9500 C   0  0  0  0  0  0  0  0  0  0  0  0
  161.2670  204.7780  149.5100 C   0  0  0  0  0  0  0  0  0  0  0  0
  161.5190  206.0050  149.8800 C   0  0  0  0  0  3  0  0  0  0  0  0
  161.0130  203.5540  149.1310 C   0  0  0  0  0  0  0  0  0  0  0  0
  160.0230  202.7170  149.8680 C   0  0  0  0  0  2  0  0  0  0  0  0
  160.5810  201.3320  150.1360 C   0  0  0  0  0  1  0  0  0  0  0  0
  161.9430  202.8380  147.7830 S   0  0  0  0  0  0  0  0  0  0  0  0
  161.4600  204.1240  146.6760 N   0  0  0  0  0  0  0  0  0  0  0  0
  162.3660  205.8490  145.1970 C   0  0  0  0  0  2  0  0  0  0  0  0
  161.6210  205.1790  144.0460 C   0  0  1  0  0  3  0  0  0  0  0  0
  162.6870  204.7940  146.2500 C   0  0  0  0  0  2  0  0  0  0  0  0
  160.8650  203.4750  145.5090 C   0  0  0  0  0  2  0  0  0  0  0  0
  160.4330  204.4890  144.5470 N   0  0  0  0  0  2  0  0  0  0  0  0
  161.2070  206.2260  143.0340 C   0  0  0  0  0  1  0  0  0  0  0  0
  160.8330  203.2090  152.8180 C   0  0  0  0  0  1  0  0  0  0  0  0
  161.5950  204.2280  152.1840 O   0  0  0  0  0  0  0  0  0  0  0  0
  160.7470  211.4250  151.3500 C   0  0  0  0  0  0  0  0  0  0  0  0
  161.6250  210.9430  150.5880 O   0  0  0  0  0  0  0  0  0  0  0  0
  161.3400  213.4560  148.9810 C   0  0  0  0  0  1  0  0  0  0  0  0
  158.5530  212.7470  151.2730 C   0  0  0  0  0  3  0  0  0  0  0  0
  159.8340  212.4680  150.8220 C   0  0  0  0  0  0  0  0  0  0  0  0
  158.1280  213.7890  150.4700 C   0  0  0  0  0  0  0  0  0  0  0  0
  159.0530  214.1310  149.6040 O   0  0  0  0  0  0  0  0  0  0  0  0
  160.0900  213.3560  149.7880 C   0  0  0  0  0  0  0  0  0  0  0  0
  155.8390  213.9910  149.9170 O   0  0  0  0  0  0  0  0  0  0  0  0
  156.8200  214.4330  150.5700 C   0  0  0  0  0  3  0  0  0  0  0  0
  1 10  1  0  0  0  0
  3 13  2  0  0  0  0
  4  5  2  0  0  0  0
  5  3  1  0  0  0  0
  6  7  1  0  0  0  0
  7 13  1  0  0  0  0
  7 10  2  0  0  0  0
  8 11  1  6  0  0  0
  8  6  1  0  0  0  0
  8  3  1  0  0  0  0
  9 11  2  0  0  0  0
  9  4  1  0  0  0  0
 12  6  1  0  0  0  0
 12  1  2  0  0  0  0
 13  2  1  0  0  0  0
 14 15  2  0  0  0  0
 15  9  1  0  0  0  0
 16 14  2  0  0  0  0
 16 17  1  0  0  0  0
 17 18  1  0  0  0  0
 19 16  1  0  0  0  0
 20 19  1  0  0  0  0
 21 23  1  0  0  0  0
 22 26  1  6  0  0  0
 22 25  1  0  0  0  0
 22 21  1  0  0  0  0
 23 20  1  0  0  0  0
 24 20  1  0  0  0  0
 25 24  1  0  0  0  0
 28  4  1  0  0  0  0
 28 27  1  0  0  0  0
 29 12  1  0  0  0  0
 30 29  2  0  0  0  0
 31 36  1  0  0  0  0
 33 32  1  0  0  0  0
 33 29  1  0  0  0  0
 34 38  1  0  0  0  0
 34 32  2  0  0  0  0
 35 36  1  0  0  0  0
 35 34  1  0  0  0  0
 36 33  2  0  0  0  0
 37 38  2  0  0  0  0
M  END
>  <MODEL>
7

>  <REMARK>
 VINA RESULT:      -5.7      3.567      7.621
  Name = 
  8 active torsions:
  status: ('A' for Active; 'I' for Inactive)
    1  A    between atoms: N_4  and  S_35
    2  A    between atoms: C_6  and  O_38
    3  A    between atoms: C_10  and  C_23
    4  A    between atoms: C_10  and  C_29
    5  A    between atoms: C_12  and  C_25
    6  A    between atoms: C_18  and  C_28
    7  A    between atoms: C_26  and  C_36
    8  A    between atoms: S_35  and  C_36
                            x       y       z     vdW  Elec       q    Type
                         _______ _______ _______ _____ _____    ______ ____

>  <TORSDO>
F 8

$$$$
=
 OpenBabel11042422433D

 38 42  0  0  1  0  0  0  0  0999 V2000
  157.1200  214.4530  151.8860 C   0  0  0  0  0  3  0  0  0  0  0  0
  156.9790  212.4320  155.8190 N   0  0  0  0  0  1  0  0  0  0  0  0
  158.7490  211.4790  154.2830 C   0  0  0  0  0  0  0  0  0  0  0  0
  160.4960  209.6880  154.3550 C   0  0  0  0  0  0  0  0  0  0  0  0
  159.3490  210.3700  155.0870 C   0  0  0  0  0  3  0  0  0  0  0  0
  158.3990  212.7940  152.5290 N   0  0  0  0  0  0  0  0  0  0  0  0
  157.5600  213.1420  153.4780 C   0  0  0  0  0  0  0  0  0  0  0  0
  159.1460  211.7750  152.9910 C   0  0  2  0  0  3  0  0  0  0  0  0
  160.8270  210.0170  153.0670 C   0  0  0  0  0  0  0  0  0  0  0  0
  156.7370  214.1550  153.1620 N   0  0  0  0  0  0  0  0  0  0  0  0
  160.1130  211.1190  152.3620 C   0  0  0  0  0  3  0  0  0  0  0  0
  158.1610  213.6010  151.4860 C   0  0  0  0  0  0  0  0  0  0  0  0
  157.7180  212.3630  154.6040 C   0  0  0  0  0  0  0  0  0  0  0  0
  161.9260  209.2390  151.0200 C   0  0  0  0  0  0  0  0  0  0  0  0
  161.8570  209.2650  152.3250 C   0  0  0  0  0  3  0  0  0  0  0  0
  162.0040  209.2110  149.7170 C   0  0  0  0  0  0  0  0  0  0  0  0
  161.4850  210.3440  148.8970 C   0  0  0  0  0  2  0  0  0  0  0  0
  162.5550  211.4030  148.7030 C   0  0  0  0  0  1  0  0  0  0  0  0
  162.6390  207.7530  148.9030 S   0  0  0  0  0  0  0  0  0  0  0  0
  161.7090  206.6790  149.9500 N   0  0  0  0  0  0  0  0  0  0  0  0
  160.6000  204.4990  149.9960 C   0  0  0  0  0  2  0  0  0  0  0  0
  161.5160  204.1170  151.1550 C   0  0  1  0  0  3  0  0  0  0  0  0
  161.3120  205.5350  149.1320 C   0  0  0  0  0  2  0  0  0  0  0  0
  162.6230  206.2040  150.9870 C   0  0  0  0  0  2  0  0  0  0  0  0
  161.9130  205.3100  151.9000 N   0  0  0  0  0  2  0  0  0  0  0  0
  160.7900  203.1620  152.0790 C   0  0  0  0  0  1  0  0  0  0  0  0
  160.9650  208.4410  156.4770 C   0  0  0  0  0  1  0  0  0  0  0  0
  161.1530  208.6870  155.0890 O   0  0  0  0  0  0  0  0  0  0  0  0
  158.8580  213.5720  150.1810 C   0  0  0  0  0  0  0  0  0  0  0  0
  160.1170  213.5670  150.1660 O   0  0  0  0  0  0  0  0  0  0  0  0
  155.7350  213.9640  149.7530 C   0  0  0  0  0  1  0  0  0  0  0  0
  158.6760  213.3380  147.6360 C   0  0  0  0  0  3  0  0  0  0  0  0
  158.1260  213.5440  148.8920 C   0  0  0  0  0  0  0  0  0  0  0  0
  157.5960  213.4010  146.7750 C   0  0  0  0  0  0  0  0  0  0  0  0
  156.4790  213.6230  147.4280 O   0  0  0  0  0  0  0  0  0  0  0  0
  156.7620  213.7150  148.7020 C   0  0  0  0  0  0  0  0  0  0  0  0
  158.7460  213.5090  144.7140 O   0  0  0  0  0  0  0  0  0  0  0  0
  157.6800  213.2410  145.3260 C   0  0  0  0  0  3  0  0  0  0  0  0
  1 10  1  0  0  0  0
  3 13  2  0  0  0  0
  3  5  1  0  0  0  0
  4  5  2  0  0  0  0
  4 28  1  0  0  0  0
  6  8  1  0  0  0  0
  6  7  1  0  0  0  0
  7 13  1  0  0  0  0
  8 11  1  6  0  0  0
  8  3  1  0  0  0  0
  9  4  1  0  0  0  0
 10  7  2  0  0  0  0
 11  9  2  0  0  0  0
 12  1  2  0  0  0  0
 12  6  1  0  0  0  0
 13  2  1  0  0  0  0
 14 15  2  0  0  0  0
 15  9  1  0  0  0  0
 16 14  2  0  0  0  0
 17 16  1  0  0  0  0
 18 17  1  0  0  0  0
 19 16  1  0  0  0  0
 19 20  1  0  0  0  0
 20 24  1  0  0  0  0
 21 22  1  0  0  0  0
 22 25  1  0  0  0  0
 22 26  1  1  0  0  0
 23 20  1  0  0  0  0
 23 21  1  0  0  0  0
 24 25  1  0  0  0  0
 28 27  1  0  0  0  0
 29 12  1  0  0  0  0
 30 29  2  0  0  0  0
 32 33  1  0  0  0  0
 33 29  1  0  0  0  0
 34 35  1  0  0  0  0
 34 32  2  0  0  0  0
 35 36  1  0  0  0  0
 36 33  2  0  0  0  0
 36 31  1  0  0  0  0
 37 38  2  0  0  0  0
 38 34  1  0  0  0  0
M  END
>  <MODEL>
8

>  <REMARK>
 VINA RESULT:      -5.6      3.614      7.487
  Name = 
  8 active torsions:
  status: ('A' for Active; 'I' for Inactive)
    1  A    between atoms: N_4  and  S_35
    2  A    between atoms: C_6  and  O_38
    3  A    between atoms: C_10  and  C_23
    4  A    between atoms: C_10  and  C_29
    5  A    between atoms: C_12  and  C_25
    6  A    between atoms: C_18  and  C_28
    7  A    between atoms: C_26  and  C_36
    8  A    between atoms: S_35  and  C_36
                            x       y       z     vdW  Elec       q    Type
                         _______ _______ _______ _____ _____    ______ ____

>  <TORSDO>
F 8

$$$$
=
 OpenBabel11042422433D

 38 42  0  0  1  0  0  0  0  0999 V2000
  157.9860  213.9120  153.9090 C   0  0  0  0  0  3  0  0  0  0  0  0
  160.3940  214.1250  150.2030 N   0  0  0  0  0  1  0  0  0  0  0  0
  160.5070  211.8600  151.3240 C   0  0  0  0  0  0  0  0  0  0  0  0
  161.6040  209.6470  150.9220 C   0  0  0  0  0  0  0  0  0  0  0  0
  161.4380  211.0830  150.4500 C   0  0  0  0  0  2  0  0  0  0  0  0
  159.1850  212.2880  153.0560 N   0  0  0  0  0  0  0  0  0  0  0  0
  159.2550  213.3700  152.3130 C   0  0  0  0  0  0  0  0  0  0  0  0
  159.9430  211.3400  152.4760 C   0  0  0  0  0  0  0  0  0  0  0  0
  161.0310  209.1990  152.0840 C   0  0  0  0  0  0  0  0  0  0  0  0
  158.5460  214.4160  152.7700 N   0  0  0  0  0  0  0  0  0  0  0  0
  160.1560  210.0970  152.8890 C   0  0  0  0  0  3  0  0  0  0  0  0
  158.3860  212.5800  154.0910 C   0  0  0  0  0  0  0  0  0  0  0  0
  160.0650  213.1790  151.2150 C   0  0  0  0  0  0  0  0  0  0  0  0
  161.2130  206.7660  151.8600 C   0  0  0  0  0  0  0  0  0  0  0  0
  161.2990  207.8410  152.5970 C   0  0  0  0  0  3  0  0  0  0  0  0
  161.1330  205.6870  151.1280 C   0  0  0  0  0  0  0  0  0  0  0  0
  161.3530  205.7460  149.6550 C   0  0  0  0  0  2  0  0  0  0  0  0
  160.1500  206.3510  148.9540 C   0  0  0  0  0  1  0  0  0  0  0  0
  160.6480  204.1430  151.8860 S   0  0  0  0  0  0  0  0  0  0  0  0
  161.2670  203.2020  150.5280 N   0  0  0  0  0  0  0  0  0  0  0  0
  161.9020  200.9330  149.8710 C   0  0  0  0  0  2  0  0  0  0  0  0
  160.8520  201.0160  148.7660 C   0  0  1  0  0  3  0  0  0  0  0  0
  161.4750  201.8420  151.0190 C   0  0  0  0  0  2  0  0  0  0  0  0
  160.2090  203.1670  149.5200 C   0  0  0  0  0  2  0  0  0  0  0  0
  160.6590  202.4060  148.3560 N   0  0  0  0  0  2  0  0  0  0  0  0
  161.3040  200.1960  147.5770 C   0  0  0  0  0  1  0  0  0  0  0  0
  162.4100  208.8820  148.6770 C   0  0  0  0  0  1  0  0  0  0  0  0
  162.4070  208.8420  150.0980 O   0  0  0  0  0  0  0  0  0  0  0  0
  158.0230  211.6670  155.1990 C   0  0  0  0  0  0  0  0  0  0  0  0
  156.8090  211.5300  155.4990 O   0  0  0  0  0  0  0  0  0  0  0  0
  160.3650  212.8710  156.9760 C   0  0  0  0  0  1  0  0  0  0  0  0
  159.1560  209.5270  156.0380 C   0  0  0  0  0  3  0  0  0  0  0  0
  159.0410  210.9070  155.9640 C   0  0  0  0  0  0  0  0  0  0  0  0
  160.2470  209.3190  156.8610 C   0  0  0  0  0  0  0  0  0  0  0  0
  160.7670  210.4560  157.2610 O   0  0  0  0  0  0  0  0  0  0  0  0
  160.0650  211.4300  156.7400 C   0  0  0  0  0  0  0  0  0  0  0  0
  160.9430  207.1150  156.3670 O   0  0  0  0  0  0  0  0  0  0  0  0
  160.7620  208.0050  157.2390 C   0  0  0  0  0  3  0  0  0  0  0  0
  1 12  2  0  0  0  0
  2 13  1  0  0  0  0
  3  8  1  0  0  0  0
  4  9  2  0  0  0  0
  5  4  1  0  0  0  0
  5  3  1  0  0  0  0
  6 12  1  0  0  0  0
  7 10  2  0  0  0  0
  7  6  1  0  0  0  0
  8 11  2  0  0  0  0
  8  6  1  0  0  0  0
  9 15  1  0  0  0  0
  9 11  1  0  0  0  0
 10  1  1  0  0  0  0
 12 29  1  0  0  0  0
 13  3  2  0  0  0  0
 13  7  1  0  0  0  0
 14 15  2  0  0  0  0
 16 14  2  0  0  0  0
 16 19  1  0  0  0  0
 17 16  1  0  0  0  0
 18 17  1  0  0  0  0
 20 23  1  0  0  0  0
 20 19  1  0  0  0  0
 21 23  1  0  0  0  0
 22 26  1  6  0  0  0
 22 21  1  0  0  0  0
 24 20  1  0  0  0  0
 25 22  1  0  0  0  0
 25 24  1  0  0  0  0
 27 28  1  0  0  0  0
 28  4  1  0  0  0  0
 29 30  2  0  0  0  0
 29 33  1  0  0  0  0
 32 34  2  0  0  0  0
 33 32  1  0  0  0  0
 33 36  2  0  0  0  0
 34 38  1  0  0  0  0
 34 35  1  0  0  0  0
 36 31  1  0  0  0  0
 36 35  1  0  0  0  0
 37 38  2  0  0  0  0
M  END
>  <MODEL>
9

>  <REMARK>
 VINA RESULT:      -5.6      3.832      8.234
  Name = 
  8 active torsions:
  status: ('A' for Active; 'I' for Inactive)
    1  A    between atoms: N_4  and  S_35
    2  A    between atoms: C_6  and  O_38
    3  A    between atoms: C_10  and  C_23
    4  A    between atoms: C_10  and  C_29
    5  A    between atoms: C_12  and  C_25
    6  A    between atoms: C_18  and  C_28
    7  A    between atoms: C_26  and  C_36
    8  A    between atoms: S_35  and  C_36
                            x       y       z     vdW  Elec       q    Type
                         _______ _______ _______ _____ _____    ______ ____

>  <TORSDO>
F 8

$$$$
