=
 OpenBabel11052411323D

 59 67  0  0  1  0  0  0  0  0999 V2000
  160.4760  204.7860  145.2440 C   0  0  0  0  0  0  0  0  0  0  0  0
  161.3000  202.4660  148.5210 C   0  0  0  0  0  0  0  0  0  0  0  0
  161.2030  205.9480  149.6340 C   0  0  2  0  0  3  0  0  0  0  0  0
  161.2200  203.8460  148.6420 C   0  0  0  0  0  0  0  0  0  0  0  0
  160.1570  206.2110  145.0030 C   0  0  0  0  0  1  0  0  0  0  0  0
  161.0810  204.2840  152.4030 C   0  0  2  0  0  3  0  0  0  0  0  0
  161.2330  202.8000  146.1180 C   0  0  0  0  0  0  0  0  0  0  0  0
  161.1970  203.6870  151.0160 C   0  0  0  0  0  0  0  0  0  0  0  0
  159.7230  203.9050  152.9820 C   0  0  0  0  0  1  0  0  0  0  0  0
  162.5790  206.2280  151.7880 C   0  0  0  0  0  2  0  0  0  0  0  0
  161.3150  201.7290  149.6680 N   0  0  0  0  0  0  0  0  0  0  0  0
  161.2280  204.7170  147.6590 C   0  0  0  0  0  0  0  0  0  0  0  0
  162.4380  206.5820  150.2880 C   0  0  2  0  0  3  0  0  0  0  0  0
  161.2650  202.3210  150.8730 N   0  0  0  0  0  0  0  0  0  0  0  0
  161.2620  205.8100  152.4510 C   0  0  2  0  0  3  0  0  0  0  0  0
  161.4800  204.2860  146.2390 C   0  0  2  0  0  3  0  0  0  0  0  0
  160.3880  202.6030  145.1190 C   0  0  0  0  0  0  0  0  0  0  0  0
  161.1710  204.4560  149.8480 C   0  0  0  0  0  0  0  0  0  0  0  0
  161.2750  206.0520  148.1670 N   0  0  0  0  0  2  0  0  0  0  0  0
  159.9020  203.8280  144.5890 N   0  0  0  0  0  0  0  0  0  0  0  0
  159.7250  201.3630  144.8880 N   0  0  0  0  0  1  0  0  0  0  0  0
  161.3080  201.8970  147.3030 C   0  0  0  0  0  3  0  0  0  0  0  0
  161.2290  206.2700  153.8180 N   0  0  0  0  0  0  0  0  0  0  0  0
  160.4220  207.2080  154.1650 C   0  0  0  0  0  3  0  0  0  0  0  0
  160.3730  207.6740  155.5790 C   0  0  0  0  0  2  0  0  0  0  0  0
  160.6220  209.0690  155.6350 O   0  0  0  0  0  0  0  0  0  0  0  0
  158.9050  210.5770  155.9720 N   0  0  0  0  0  0  0  0  0  0  0  0
  160.5490  209.8820  152.5910 C   0  0  0  0  0  2  0  0  0  0  0  0
  155.8730  213.2800  154.7780 C   0  0  0  0  0  3  0  0  0  0  0  0
  161.0430  211.1620  153.2490 C   0  0  0  0  0  2  0  0  0  0  0  0
  156.0550  212.9800  156.1360 C   0  0  0  0  0  3  0  0  0  0  0  0
  157.7570  211.8630  154.2200 C   0  0  0  0  0  0  0  0  0  0  0  0
  157.0630  212.0990  156.5340 C   0  0  0  0  0  3  0  0  0  0  0  0
  157.9140  211.5360  155.5770 C   0  0  0  0  0  0  0  0  0  0  0  0
  159.7570  210.0540  155.1420 C   0  0  0  0  0  0  0  0  0  0  0  0
  159.7440  210.5340  153.6930 C   0  0  0  0  0  0  0  0  0  0  0  0
  156.7260  212.7210  153.8190 C   0  0  0  0  0  3  0  0  0  0  0  0
  158.6210  211.3080  153.2760 O   0  0  0  0  0  0  0  0  0  0  0  0
  162.3780  207.9810  150.0800 O   0  0  0  0  0  0  0  0  0  0  0  0
  161.3480  208.8110  148.1400 O   0  0  0  0  0  0  0  0  0  0  0  0
  162.3580  209.7470  148.4550 C   0  0  2  0  0  3  0  0  0  0  0  0
  162.5330  208.2880  148.7070 C   0  0  1  0  0  3  0  0  0  0  0  0
  161.9750  210.4640  149.5980 O   0  0  0  0  0  0  0  0  0  0  0  0
  161.9400  211.7920  149.1730 C   0  0  0  0  0  2  0  0  0  0  0  0
  160.5550  212.1370  148.6550 C   0  0  0  0  0  2  0  0  0  0  0  0
  160.4700  213.6250  148.3090 C   0  0  2  0  0  3  0  0  0  0  0  0
  160.0320  214.3510  150.7100 C   0  0  0  0  0  1  0  0  0  0  0  0
  159.5870  214.4530  149.2560 C   0  0  2  0  0  3  0  0  0  0  0  0
  158.1890  214.2470  149.0560 O   0  0  0  0  0  0  0  0  0  0  0  0
  156.0450  213.8220  149.9670 C   0  0  0  0  0  2  0  0  0  0  0  0
  157.2800  214.2840  150.1160 C   0  0  0  0  0  3  0  0  0  0  0  0
  160.1160  213.8800  146.8350 C   0  0  2  0  0  3  0  0  0  0  0  0
  157.7010  213.2910  146.3270 C   0  0  0  0  0  1  0  0  0  0  0  0
  159.1510  212.8480  146.1990 C   0  0  0  0  0  3  0  0  0  0  0  0
  159.4830  212.5160  144.7510 C   0  0  0  0  0  1  0  0  0  0  0  0
  161.3270  214.2480  146.0170 C   0  0  0  0  0  0  0  0  0  0  0  0
  162.4330  214.4120  146.6030 O   0  0  0  0  0  0  0  0  0  0  0  0
  161.2450  214.3720  144.6290 O   0  0  0  0  0  0  0  0  0  0  0  0
  162.4120  214.4440  143.8200 C   0  0  0  0  0  1  0  0  0  0  0  0
  2  4  1  0  0  0  0
  2 11  1  0  0  0  0
  3 19  1  6  0  0  0
  3 18  1  0  0  0  0
  3 13  1  0  0  0  0
  4 18  1  0  0  0  0
  5  1  1  0  0  0  0
  6 15  1  0  0  0  0
  6  9  1  6  0  0  0
  7 16  1  0  0  0  0
  7 22  1  0  0  0  0
  8  6  1  0  0  0  0
 10 15  1  0  0  0  0
 11 14  2  0  0  0  0
 12 19  1  0  0  0  0
 12  4  2  0  0  0  0
 13 39  1  1  0  0  0
 13 10  1  0  0  0  0
 14  8  1  0  0  0  0
 15 23  1  1  0  0  0
 16  1  1  6  0  0  0
 16 12  1  0  0  0  0
 17  7  2  0  0  0  0
 18  8  2  0  0  0  0
 20 17  1  0  0  0  0
 20  1  2  0  0  0  0
 21 17  1  0  0  0  0
 22  2  2  0  0  0  0
 23 24  2  0  0  0  0
 24 25  1  0  0  0  0
 25 26  1  0  0  0  0
 28 30  1  0  0  0  0
 28 36  1  0  0  0  0
 29 31  1  0  0  0  0
 30 36  1  0  0  0  0
 31 33  2  0  0  0  0
 32 34  2  0  0  0  0
 34 27  1  0  0  0  0
 34 33  1  0  0  0  0
 35 26  1  0  0  0  0
 35 27  2  0  0  0  0
 36 35  1  0  0  0  0
 37 32  1  0  0  0  0
 37 29  2  0  0  0  0
 38 36  1  0  0  0  0
 38 32  1  0  0  0  0
 40 41  1  0  0  0  0
 40 42  1  0  0  0  0
 41 42  1  0  0  0  0
 41 43  1  1  0  0  0
 42 39  1  1  0  0  0
 44 43  1  0  0  0  0
 45 44  1  0  0  0  0
 46 45  1  1  0  0  0
 46 48  1  0  0  0  0
 48 47  1  1  0  0  0
 49 48  1  0  0  0  0
 49 51  1  0  0  0  0
 50 51  2  0  0  0  0
 52 56  1  6  0  0  0
 52 46  1  0  0  0  0
 54 53  1  0  0  0  0
 54 52  1  0  0  0  0
 55 54  1  0  0  0  0
 56 57  2  0  0  0  0
 58 56  1  0  0  0  0
 59 58  1  0  0  0  0
M  END
>  <MODEL>
1

>  <REMARK>
 VINA RESULT:      -7.4      0.000      0.000
  Name = 
  17 active torsions:
  status: ('A' for Active; 'I' for Inactive)
    1  A    between atoms: O_3  and  C_44
    2  A    between atoms: C_4  and  O_26
    3  A    between atoms: C_4  and  C_35
    4  A    between atoms: O_7  and  C_13
    5  A    between atoms: O_7  and  C_57
    6  A    between atoms: C_13  and  C_27
    7  A    between atoms: C_14  and  C_27
    8  A    between atoms: C_14  and  C_44
    9  A    between atoms: C_14  and  C_53
   10  A    between atoms: C_16  and  O_26
   11  A    between atoms: C_18  and  O_50
   12  A    between atoms: C_27  and  C_35
   13  A    between atoms: O_31  and  C_38
   14  A    between atoms: O_31  and  C_51
   15  A    between atoms: C_36  and  O_50
   16  A    between atoms: N_42  and  C_43
   17  A    between atoms: C_51  and  C_54
                            x       y       z     vdW  Elec       q    Type
                         _______ _______ _______ _____ _____    ______ ____

>  <TORSDO>
F 17

$$$$
=
 OpenBabel11052411323D

 59 67  0  0  1  0  0  0  0  0999 V2000
  160.3930  204.7800  145.2280 C   0  0  0  0  0  0  0  0  0  0  0  0
  161.4390  202.4010  148.3970 C   0  0  0  0  0  0  0  0  0  0  0  0
  161.0550  205.8100  149.6610 C   0  0  2  0  0  3  0  0  0  0  0  0
  161.2430  203.7620  148.5780 C   0  0  0  0  0  0  0  0  0  0  0  0
  159.9520  206.1830  145.0510 C   0  0  0  0  0  1  0  0  0  0  0  0
  161.0980  204.0250  152.3550 C   0  0  2  0  0  3  0  0  0  0  0  0
  161.3250  202.8300  146.0110 C   0  0  0  0  0  0  0  0  0  0  0  0
  161.2530  203.5000  150.9430 C   0  0  0  0  0  0  0  0  0  0  0  0
  159.7820  203.5060  152.9240 C   0  0  0  0  0  1  0  0  0  0  0  0
  162.4200  206.1140  151.8190 C   0  0  0  0  0  2  0  0  0  0  0  0
  161.5270  201.6190  149.5100 N   0  0  0  0  0  0  0  0  0  0  0  0
  161.1680  204.6720  147.6340 C   0  0  0  0  0  0  0  0  0  0  0  0
  162.2370  206.5190  150.3370 C   0  0  2  0  0  3  0  0  0  0  0  0
  161.4360  202.1530  150.7410 N   0  0  0  0  0  0  0  0  0  0  0  0
  161.1490  205.5570  152.4690 C   0  0  2  0  0  3  0  0  0  0  0  0
  161.4450  204.3260  146.1960 C   0  0  2  0  0  3  0  0  0  0  0  0
  160.4910  202.6050  145.0090 C   0  0  0  0  0  0  0  0  0  0  0  0
  161.1520  204.3140  149.8100 C   0  0  0  0  0  0  0  0  0  0  0  0
  161.1050  205.9840  148.2000 N   0  0  0  0  0  2  0  0  0  0  0  0
  159.8980  203.8060  144.5340 N   0  0  0  0  0  0  0  0  0  0  0  0
  159.9350  201.3240  144.7260 N   0  0  0  0  0  1  0  0  0  0  0  0
  161.4850  201.8880  147.1560 C   0  0  0  0  0  3  0  0  0  0  0  0
  161.0870  205.9540  153.8550 N   0  0  0  0  0  0  0  0  0  0  0  0
  160.3170  206.9140  154.2190 C   0  0  0  0  0  3  0  0  0  0  0  0
  160.2380  207.3150  155.6520 C   0  0  0  0  0  2  0  0  0  0  0  0
  160.9750  208.5090  155.8590 O   0  0  0  0  0  0  0  0  0  0  0  0
  159.1280  209.8960  155.8020 N   0  0  0  0  0  0  0  0  0  0  0  0
  162.7520  211.1120  155.8440 C   0  0  0  0  0  2  0  0  0  0  0  0
  157.1110  213.5980  155.4160 C   0  0  0  0  0  3  0  0  0  0  0  0
  162.0720  211.2010  157.2030 C   0  0  0  0  0  2  0  0  0  0  0  0
  156.3810  212.4100  155.5690 C   0  0  0  0  0  3  0  0  0  0  0  0
  159.1750  212.3460  155.6120 C   0  0  0  0  0  0  0  0  0  0  0  0
  157.0440  211.1890  155.7100 C   0  0  0  0  0  3  0  0  0  0  0  0
  158.4420  211.1540  155.7280 C   0  0  0  0  0  0  0  0  0  0  0  0
  160.4220  209.7960  155.8720 C   0  0  0  0  0  0  0  0  0  0  0  0
  161.2430  211.0800  155.9460 C   0  0  0  0  0  0  0  0  0  0  0  0
  158.5110  213.5650  155.4380 C   0  0  0  0  0  3  0  0  0  0  0  0
  160.5690  212.3000  155.6470 O   0  0  0  0  0  0  0  0  0  0  0  0
  162.0560  207.9160  150.1900 O   0  0  0  0  0  0  0  0  0  0  0  0
  161.5470  208.7090  148.0390 O   0  0  0  0  0  0  0  0  0  0  0  0
  162.2060  209.7790  148.6840 C   0  0  2  0  0  3  0  0  0  0  0  0
  162.5720  208.3580  148.9470 C   0  0  1  0  0  3  0  0  0  0  0  0
  161.3530  210.3200  149.6560 O   0  0  0  0  0  0  0  0  0  0  0  0
  162.0730  211.3920  150.1840 C   0  0  0  0  0  2  0  0  0  0  0  0
  161.7140  212.6720  149.4500 C   0  0  0  0  0  2  0  0  0  0  0  0
  160.2790  212.6020  148.9250 C   0  0  2  0  0  3  0  0  0  0  0  0
  159.8400  211.6680  146.5970 C   0  0  0  0  0  1  0  0  0  0  0  0
  160.1290  212.9130  147.4280 C   0  0  2  0  0  3  0  0  0  0  0  0
  161.1770  213.7320  146.9080 O   0  0  0  0  0  0  0  0  0  0  0  0
  162.5640  214.0300  145.0140 C   0  0  0  0  0  2  0  0  0  0  0  0
  162.0980  213.2470  145.9780 C   0  0  0  0  0  3  0  0  0  0  0  0
  159.2870  213.4140  149.7750 C   0  0  2  0  0  3  0  0  0  0  0  0
  158.8570  214.4490  152.0510 C   0  0  0  0  0  1  0  0  0  0  0  0
  159.4550  213.2630  151.3090 C   0  0  0  0  0  3  0  0  0  0  0  0
  158.9010  211.9560  151.8560 C   0  0  0  0  0  1  0  0  0  0  0  0
  157.8790  213.3170  149.2490 C   0  0  0  0  0  0  0  0  0  0  0  0
  157.4370  212.1910  148.8900 O   0  0  0  0  0  0  0  0  0  0  0  0
  157.0570  214.4430  149.1890 O   0  0  0  0  0  0  0  0  0  0  0  0
  155.6560  214.3520  149.4130 C   0  0  0  0  0  1  0  0  0  0  0  0
  2  4  1  0  0  0  0
  2 11  1  0  0  0  0
  3 19  1  6  0  0  0
  3 18  1  0  0  0  0
  3 13  1  0  0  0  0
  4 18  1  0  0  0  0
  5  1  1  0  0  0  0
  6 15  1  0  0  0  0
  6  9  1  6  0  0  0
  7 16  1  0  0  0  0
  7 22  1  0  0  0  0
  8  6  1  0  0  0  0
 10 15  1  0  0  0  0
 11 14  2  0  0  0  0
 12 19  1  0  0  0  0
 12  4  2  0  0  0  0
 13 39  1  1  0  0  0
 13 10  1  0  0  0  0
 14  8  1  0  0  0  0
 15 23  1  1  0  0  0
 16  1  1  6  0  0  0
 16 12  1  0  0  0  0
 17  7  2  0  0  0  0
 18  8  2  0  0  0  0
 20 17  1  0  0  0  0
 20  1  2  0  0  0  0
 21 17  1  0  0  0  0
 22  2  2  0  0  0  0
 23 24  2  0  0  0  0
 24 25  1  0  0  0  0
 25 26  1  0  0  0  0
 26 35  1  0  0  0  0
 27 35  2  0  0  0  0
 28 36  1  0  0  0  0
 28 30  1  0  0  0  0
 29 37  2  0  0  0  0
 29 31  1  0  0  0  0
 31 33  2  0  0  0  0
 32 38  1  0  0  0  0
 32 34  2  0  0  0  0
 33 34  1  0  0  0  0
 34 27  1  0  0  0  0
 35 36  1  0  0  0  0
 36 30  1  0  0  0  0
 37 32  1  0  0  0  0
 38 36  1  0  0  0  0
 40 41  1  0  0  0  0
 40 42  1  0  0  0  0
 41 42  1  0  0  0  0
 41 43  1  1  0  0  0
 42 39  1  1  0  0  0
 43 44  1  0  0  0  0
 45 44  1  0  0  0  0
 46 45  1  1  0  0  0
 46 52  1  0  0  0  0
 48 47  1  6  0  0  0
 48 46  1  0  0  0  0
 49 48  1  0  0  0  0
 50 51  2  0  0  0  0
 51 49  1  0  0  0  0
 52 56  1  6  0  0  0
 52 54  1  0  0  0  0
 54 55  1  0  0  0  0
 54 53  1  0  0  0  0
 57 56  2  0  0  0  0
 58 56  1  0  0  0  0
 58 59  1  0  0  0  0
M  END
>  <MODEL>
2

>  <REMARK>
 VINA RESULT:      -6.3      1.183      2.982
  Name = 
  17 active torsions:
  status: ('A' for Active; 'I' for Inactive)
    1  A    between atoms: O_3  and  C_44
    2  A    between atoms: C_4  and  O_26
    3  A    between atoms: C_4  and  C_35
    4  A    between atoms: O_7  and  C_13
    5  A    between atoms: O_7  and  C_57
    6  A    between atoms: C_13  and  C_27
    7  A    between atoms: C_14  and  C_27
    8  A    between atoms: C_14  and  C_44
    9  A    between atoms: C_14  and  C_53
   10  A    between atoms: C_16  and  O_26
   11  A    between atoms: C_18  and  O_50
   12  A    between atoms: C_27  and  C_35
   13  A    between atoms: O_31  and  C_38
   14  A    between atoms: O_31  and  C_51
   15  A    between atoms: C_36  and  O_50
   16  A    between atoms: N_42  and  C_43
   17  A    between atoms: C_51  and  C_54
                            x       y       z     vdW  Elec       q    Type
                         _______ _______ _______ _____ _____    ______ ____

>  <TORSDO>
F 17

$$$$
=
 OpenBabel11052411323D

 59 67  0  0  1  0  0  0  0  0999 V2000
  160.8650  208.3690  154.7640 C   0  0  0  0  0  0  0  0  0  0  0  0
  159.9810  212.2890  153.9570 C   0  0  0  0  0  0  0  0  0  0  0  0
  160.9000  210.6950  150.7970 C   0  0  2  0  0  3  0  0  0  0  0  0
  160.3840  211.4380  152.9380 C   0  0  0  0  0  0  0  0  0  0  0  0
  161.1560  207.1580  153.9630 C   0  0  0  0  0  1  0  0  0  0  0  0
  159.5250  213.4650  149.8540 C   0  0  2  0  0  3  0  0  0  0  0  0
  160.6150  210.5300  155.5050 C   0  0  0  0  0  0  0  0  0  0  0  0
  159.7410  213.0270  151.2880 C   0  0  0  0  0  0  0  0  0  0  0  0
  158.0260  213.4930  149.5760 C   0  0  0  0  0  1  0  0  0  0  0  0
  161.7290  212.4620  149.1220 C   0  0  0  0  0  2  0  0  0  0  0  0
  159.4540  213.4950  153.6040 N   0  0  0  0  0  0  0  0  0  0  0  0
  160.9430  210.2580  153.0820 C   0  0  0  0  0  0  0  0  0  0  0  0
  162.0880  211.2270  149.9830 C   0  0  2  0  0  3  0  0  0  0  0  0
  159.3380  213.8500  152.3120 N   0  0  0  0  0  0  0  0  0  0  0  0
  160.2330  212.5850  148.8110 C   0  0  2  0  0  3  0  0  0  0  0  0
  161.3500  209.7500  154.4390 C   0  0  0  0  0  0  0  0  0  0  0  0
  160.0190  209.6660  156.3100 C   0  0  0  0  0  0  0  0  0  0  0  0
  160.2760  211.7820  151.6340 C   0  0  0  0  0  0  0  0  0  0  0  0
  161.3510  209.7340  151.8160 N   0  0  0  0  0  2  0  0  0  0  0  0
  160.1550  208.3300  155.8450 N   0  0  0  0  0  2  0  0  0  0  0  0
  159.0250  210.0380  157.2610 N   0  0  0  0  0  1  0  0  0  0  0  0
  160.0700  211.8930  155.2380 C   0  0  0  0  0  3  0  0  0  0  0  0
  160.0460  213.1340  147.4900 N   0  0  0  0  0  0  0  0  0  0  0  0
  159.8520  212.3550  146.4880 C   0  0  0  0  0  3  0  0  0  0  0  0
  159.6410  212.9200  145.1250 C   0  0  0  0  0  2  0  0  0  0  0  0
  159.9860  211.9540  144.1460 O   0  0  0  0  0  0  0  0  0  0  0  0
  160.1670  211.9090  141.8420 N   0  0  0  0  0  0  0  0  0  0  0  0
  162.9240  213.0920  144.2110 C   0  0  0  0  0  2  0  0  0  0  0  0
  162.1960  212.2010  138.1390 C   0  0  0  0  0  3  0  0  0  0  0  0
  162.1570  214.2350  143.5630 C   0  0  0  0  0  2  0  0  0  0  0  0
  160.8430  211.8360  138.1740 C   0  0  0  0  0  3  0  0  0  0  0  0
  162.1800  212.4620  140.5470 C   0  0  0  0  0  0  0  0  0  0  0  0
  160.1670  211.7520  139.3930 C   0  0  0  0  0  3  0  0  0  0  0  0
  160.8350  212.0610  140.5820 C   0  0  0  0  0  0  0  0  0  0  0  0
  160.7120  212.2250  142.9790 C   0  0  0  0  0  0  0  0  0  0  0  0
  162.1050  212.8500  142.9630 C   0  0  0  0  0  0  0  0  0  0  0  0
  162.8660  212.5150  139.3280 C   0  0  0  0  0  3  0  0  0  0  0  0
  162.8320  212.7850  141.7380 O   0  0  0  0  0  0  0  0  0  0  0  0
  162.5940  210.1640  149.1950 O   0  0  0  0  0  0  0  0  0  0  0  0
  162.0230  208.5370  147.6010 O   0  0  0  0  0  0  0  0  0  0  0  0
  161.5290  208.0450  148.8290 C   0  0  2  0  0  3  0  0  0  0  0  0
  161.5430  209.5020  148.5160 C   0  0  1  0  0  3  0  0  0  0  0  0
  162.6100  207.6400  149.6260 O   0  0  0  0  0  0  0  0  0  0  0  0
  162.3850  206.2800  149.8420 C   0  0  0  0  0  2  0  0  0  0  0  0
  161.3210  205.7700  148.8870 C   0  0  0  0  0  2  0  0  0  0  0  0
  161.8030  204.5020  148.1800 C   0  0  2  0  0  3  0  0  0  0  0  0
  163.5380  204.2970  146.3280 C   0  0  0  0  0  1  0  0  0  0  0  0
  162.1070  204.6800  146.6830 C   0  0  2  0  0  3  0  0  0  0  0  0
  161.6940  205.9440  146.1650 O   0  0  0  0  0  0  0  0  0  0  0  0
  159.5160  205.5990  145.3020 C   0  0  0  0  0  2  0  0  0  0  0  0
  160.7550  206.0470  145.1370 C   0  0  0  0  0  3  0  0  0  0  0  0
  160.8930  203.2890  148.4330 C   0  0  2  0  0  3  0  0  0  0  0  0
  160.5030  203.7550  150.8960 C   0  0  0  0  0  1  0  0  0  0  0  0
  160.9400  202.7170  149.8730 C   0  0  0  0  0  3  0  0  0  0  0  0
  160.1450  201.4310  150.0440 C   0  0  0  0  0  1  0  0  0  0  0  0
  160.9700  202.2800  147.3170 C   0  0  0  0  0  0  0  0  0  0  0  0
  161.6990  201.2600  147.4640 O   0  0  0  0  0  0  0  0  0  0  0  0
  160.2240  202.4440  146.1480 O   0  0  0  0  0  0  0  0  0  0  0  0
  160.1990  201.4450  145.1370 C   0  0  0  0  0  1  0  0  0  0  0  0
  1 20  1  0  0  0  0
  2 22  2  0  0  0  0
  3 18  1  1  0  0  0
  3 19  1  0  0  0  0
  4 12  2  0  0  0  0
  4  2  1  0  0  0  0
  5  1  1  0  0  0  0
  6  9  1  6  0  0  0
  6  8  1  0  0  0  0
  7 17  2  0  0  0  0
  8 18  2  0  0  0  0
  8 14  1  0  0  0  0
 10 13  1  0  0  0  0
 11  2  1  0  0  0  0
 12 16  1  0  0  0  0
 13 39  1  6  0  0  0
 13  3  1  0  0  0  0
 14 11  2  0  0  0  0
 15 23  1  6  0  0  0
 15 10  1  0  0  0  0
 15  6  1  0  0  0  0
 16  1  2  0  0  0  0
 16  7  1  0  0  0  0
 17 21  1  0  0  0  0
 18  4  1  0  0  0  0
 19 12  1  0  0  0  0
 20 17  1  0  0  0  0
 22  7  1  0  0  0  0
 24 23  2  0  0  0  0
 25 24  1  0  0  0  0
 26 25  1  0  0  0  0
 27 35  2  0  0  0  0
 29 31  2  0  0  0  0
 29 37  1  0  0  0  0
 30 28  1  0  0  0  0
 31 33  1  0  0  0  0
 32 34  1  0  0  0  0
 32 38  1  0  0  0  0
 33 34  2  0  0  0  0
 34 27  1  0  0  0  0
 35 26  1  0  0  0  0
 36 35  1  0  0  0  0
 36 30  1  0  0  0  0
 36 28  1  0  0  0  0
 37 32  2  0  0  0  0
 38 36  1  0  0  0  0
 40 42  1  0  0  0  0
 40 41  1  0  0  0  0
 41 43  1  1  0  0  0
 42 41  1  0  0  0  0
 42 39  1  1  0  0  0
 43 44  1  0  0  0  0
 45 44  1  0  0  0  0
 46 52  1  0  0  0  0
 46 45  1  6  0  0  0
 48 47  1  1  0  0  0
 48 46  1  0  0  0  0
 49 48  1  0  0  0  0
 51 50  2  0  0  0  0
 51 49  1  0  0  0  0
 52 56  1  6  0  0  0
 52 54  1  0  0  0  0
 54 55  1  0  0  0  0
 54 53  1  0  0  0  0
 56 57  2  0  0  0  0
 58 56  1  0  0  0  0
 59 58  1  0  0  0  0
M  END
>  <MODEL>
3

>  <REMARK>
 VINA RESULT:      -6.2      3.246     10.916
  Name = 
  17 active torsions:
  status: ('A' for Active; 'I' for Inactive)
    1  A    between atoms: O_3  and  C_44
    2  A    between atoms: C_4  and  O_26
    3  A    between atoms: C_4  and  C_35
    4  A    between atoms: O_7  and  C_13
    5  A    between atoms: O_7  and  C_57
    6  A    between atoms: C_13  and  C_27
    7  A    between atoms: C_14  and  C_27
    8  A    between atoms: C_14  and  C_44
    9  A    between atoms: C_14  and  C_53
   10  A    between atoms: C_16  and  O_26
   11  A    between atoms: C_18  and  O_50
   12  A    between atoms: C_27  and  C_35
   13  A    between atoms: O_31  and  C_38
   14  A    between atoms: O_31  and  C_51
   15  A    between atoms: C_36  and  O_50
   16  A    between atoms: N_42  and  C_43
   17  A    between atoms: C_51  and  C_54
                            x       y       z     vdW  Elec       q    Type
                         _______ _______ _______ _____ _____    ______ ____

>  <TORSDO>
F 17

$$$$
=
 OpenBabel11052411323D

 59 67  0  0  1  0  0  0  0  0999 V2000
  160.3280  203.9760  145.1920 C   0  0  0  0  0  0  0  0  0  0  0  0
  161.2930  201.8850  148.5820 C   0  0  0  0  0  0  0  0  0  0  0  0
  160.9950  205.4090  149.5100 C   0  0  2  0  0  3  0  0  0  0  0  0
  161.1330  203.2620  148.6300 C   0  0  0  0  0  0  0  0  0  0  0  0
  159.9260  205.3660  144.8780 C   0  0  0  0  0  1  0  0  0  0  0  0
  160.9770  203.8910  152.3640 C   0  0  2  0  0  3  0  0  0  0  0  0
  161.2020  202.0860  146.1660 C   0  0  0  0  0  0  0  0  0  0  0  0
  161.1250  203.2290  151.0090 C   0  0  0  0  0  0  0  0  0  0  0  0
  159.6450  203.4640  152.9700 C   0  0  0  0  0  1  0  0  0  0  0  0
  162.3580  205.8830  151.6400 C   0  0  0  0  0  2  0  0  0  0  0  0
  161.3540  201.2120  149.7660 N   0  0  0  0  0  0  0  0  0  0  0  0
  161.0880  204.0790  147.6030 C   0  0  0  0  0  0  0  0  0  0  0  0
  162.1930  206.1480  150.1240 C   0  0  2  0  0  3  0  0  0  0  0  0
  161.2720  201.8640  150.9390 N   0  0  0  0  0  0  0  0  0  0  0  0
  161.0690  205.4250  152.3310 C   0  0  2  0  0  3  0  0  0  0  0  0
  161.3620  203.5890  146.2070 C   0  0  2  0  0  3  0  0  0  0  0  0
  160.3670  201.7880  145.1830 C   0  0  0  0  0  0  0  0  0  0  0  0
  161.0510  203.9320  149.8030 C   0  0  0  0  0  0  0  0  0  0  0  0
  161.0580  205.4400  148.0400 N   0  0  0  0  0  2  0  0  0  0  0  0
  159.8090  202.9530  144.5910 N   0  0  0  0  0  0  0  0  0  0  0  0
  159.7780  200.5010  145.0210 N   0  0  0  0  0  1  0  0  0  0  0  0
  161.3310  201.2540  147.3960 C   0  0  0  0  0  3  0  0  0  0  0  0
  161.0120  205.9540  153.6710 N   0  0  0  0  0  0  0  0  0  0  0  0
  160.8100  207.2080  153.8630 C   0  0  0  0  0  3  0  0  0  0  0  0
  160.7330  207.7550  155.2470 C   0  0  0  0  0  2  0  0  0  0  0  0
  160.9320  209.1590  155.2210 O   0  0  0  0  0  0  0  0  0  0  0  0
  159.2340  210.4890  156.0500 N   0  0  0  0  0  0  0  0  0  0  0  0
  160.1490  210.1960  152.3500 C   0  0  0  0  0  2  0  0  0  0  0  0
  155.8480  213.0150  155.7780 C   0  0  0  0  0  3  0  0  0  0  0  0
  160.6900  211.4590  153.0060 C   0  0  0  0  0  2  0  0  0  0  0  0
  156.3390  212.6270  157.0330 C   0  0  0  0  0  3  0  0  0  0  0  0
  157.6540  211.8070  154.7070 C   0  0  0  0  0  0  0  0  0  0  0  0
  157.4630  211.8050  157.1260 C   0  0  0  0  0  3  0  0  0  0  0  0
  158.1210  211.3900  155.9640 C   0  0  0  0  0  0  0  0  0  0  0  0
  159.9190  210.1040  155.0150 C   0  0  0  0  0  0  0  0  0  0  0  0
  159.5610  210.6920  153.6530 C   0  0  0  0  0  0  0  0  0  0  0  0
  156.5080  212.6050  154.6130 C   0  0  0  0  0  3  0  0  0  0  0  0
  158.3270  211.4000  153.5540 O   0  0  0  0  0  0  0  0  0  0  0  0
  162.0520  207.5290  149.8420 O   0  0  0  0  0  0  0  0  0  0  0  0
  161.6330  208.2160  147.6360 O   0  0  0  0  0  0  0  0  0  0  0  0
  162.3740  209.2670  148.2190 C   0  0  2  0  0  3  0  0  0  0  0  0
  162.6150  207.8410  148.5810 C   0  0  1  0  0  3  0  0  0  0  0  0
  161.5610  209.9420  149.1400 O   0  0  0  0  0  0  0  0  0  0  0  0
  161.7240  211.2890  148.8170 C   0  0  0  0  0  2  0  0  0  0  0  0
  161.1270  211.5730  147.4500 C   0  0  0  0  0  2  0  0  0  0  0  0
  159.9770  212.5750  147.5680 C   0  0  2  0  0  3  0  0  0  0  0  0
  157.5810  212.3140  146.7450 C   0  0  0  0  0  1  0  0  0  0  0  0
  159.0270  212.6030  146.3600 C   0  0  2  0  0  3  0  0  0  0  0  0
  159.4980  211.8420  145.2470 O   0  0  0  0  0  0  0  0  0  0  0  0
  159.4750  213.6570  143.7280 C   0  0  0  0  0  2  0  0  0  0  0  0
  159.9180  212.4520  144.0630 C   0  0  0  0  0  3  0  0  0  0  0  0
  160.4450  213.9870  147.9530 C   0  0  2  0  0  3  0  0  0  0  0  0
  162.8790  214.4530  148.5010 C   0  0  0  0  0  1  0  0  0  0  0  0
  161.8330  214.3980  147.3980 C   0  0  0  0  0  3  0  0  0  0  0  0
  162.3130  213.5210  146.2500 C   0  0  0  0  0  1  0  0  0  0  0  0
  160.1980  214.2890  149.4080 C   0  0  0  0  0  0  0  0  0  0  0  0
  161.1880  214.4530  150.1740 O   0  0  0  0  0  0  0  0  0  0  0  0
  158.9000  214.4200  149.9040 O   0  0  0  0  0  0  0  0  0  0  0  0
  158.3600  213.4860  150.8290 C   0  0  0  0  0  1  0  0  0  0  0  0
  2  4  1  0  0  0  0
  2 11  1  0  0  0  0
  3 19  1  6  0  0  0
  3 18  1  0  0  0  0
  3 13  1  0  0  0  0
  4 18  1  0  0  0  0
  5  1  1  0  0  0  0
  6  9  1  6  0  0  0
  7 16  1  0  0  0  0
  7 22  1  0  0  0  0
  8  6  1  0  0  0  0
 10 15  1  0  0  0  0
 11 14  2  0  0  0  0
 12 19  1  0  0  0  0
 12  4  2  0  0  0  0
 13 39  1  1  0  0  0
 13 10  1  0  0  0  0
 14  8  1  0  0  0  0
 15  6  1  0  0  0  0
 15 23  1  1  0  0  0
 16  1  1  6  0  0  0
 16 12  1  0  0  0  0
 17  7  2  0  0  0  0
 18  8  2  0  0  0  0
 20 17  1  0  0  0  0
 20  1  2  0  0  0  0
 21 17  1  0  0  0  0
 22  2  2  0  0  0  0
 23 24  2  0  0  0  0
 24 25  1  0  0  0  0
 26 25  1  0  0  0  0
 28 30  1  0  0  0  0
 28 36  1  0  0  0  0
 29 31  1  0  0  0  0
 30 36  1  0  0  0  0
 31 33  2  0  0  0  0
 32 34  2  0  0  0  0
 34 27  1  0  0  0  0
 34 33  1  0  0  0  0
 35 26  1  0  0  0  0
 35 27  2  0  0  0  0
 36 35  1  0  0  0  0
 37 32  1  0  0  0  0
 37 29  2  0  0  0  0
 38 36  1  0  0  0  0
 38 32  1  0  0  0  0
 40 41  1  0  0  0  0
 40 42  1  0  0  0  0
 41 42  1  0  0  0  0
 41 43  1  1  0  0  0
 42 39  1  1  0  0  0
 44 43  1  0  0  0  0
 45 44  1  0  0  0  0
 46 45  1  6  0  0  0
 46 52  1  0  0  0  0
 48 47  1  1  0  0  0
 48 46  1  0  0  0  0
 49 48  1  0  0  0  0
 50 51  2  0  0  0  0
 51 49  1  0  0  0  0
 52 54  1  1  0  0  0
 52 56  1  0  0  0  0
 54 53  1  0  0  0  0
 55 54  1  0  0  0  0
 56 58  1  0  0  0  0
 56 57  2  0  0  0  0
 58 59  1  0  0  0  0
M  END
>  <MODEL>
4

>  <REMARK>
 VINA RESULT:      -5.9      1.058      2.479
  Name = 
  17 active torsions:
  status: ('A' for Active; 'I' for Inactive)
    1  A    between atoms: O_3  and  C_44
    2  A    between atoms: C_4  and  O_26
    3  A    between atoms: C_4  and  C_35
    4  A    between atoms: O_7  and  C_13
    5  A    between atoms: O_7  and  C_57
    6  A    between atoms: C_13  and  C_27
    7  A    between atoms: C_14  and  C_27
    8  A    between atoms: C_14  and  C_44
    9  A    between atoms: C_14  and  C_53
   10  A    between atoms: C_16  and  O_26
   11  A    between atoms: C_18  and  O_50
   12  A    between atoms: C_27  and  C_35
   13  A    between atoms: O_31  and  C_38
   14  A    between atoms: O_31  and  C_51
   15  A    between atoms: C_36  and  O_50
   16  A    between atoms: N_42  and  C_43
   17  A    between atoms: C_51  and  C_54
                            x       y       z     vdW  Elec       q    Type
                         _______ _______ _______ _____ _____    ______ ____

>  <TORSDO>
F 17

$$$$
=
 OpenBabel11052411323D

 59 67  0  0  1  0  0  0  0  0999 V2000
  160.8090  205.4600  147.0710 C   0  0  0  0  0  0  0  0  0  0  0  0
  161.6970  205.1400  151.0590 C   0  0  0  0  0  0  0  0  0  0  0  0
  161.1230  208.6790  150.3410 C   0  0  2  0  0  3  0  0  0  0  0  0
  161.4480  206.3830  150.4950 C   0  0  0  0  0  0  0  0  0  0  0  0
  160.3410  206.5370  146.1690 C   0  0  0  0  0  1  0  0  0  0  0  0
  161.0270  208.5570  153.5700 C   0  0  2  0  0  3  0  0  0  0  0  0
  161.7400  204.2620  148.7980 C   0  0  0  0  0  0  0  0  0  0  0  0
  161.2980  207.3870  152.6470 C   0  0  0  0  0  0  0  0  0  0  0  0
  159.6900  208.3280  154.2650 C   0  0  0  0  0  1  0  0  0  0  0  0
  162.3220  210.1430  152.0830 C   0  0  0  0  0  2  0  0  0  0  0  0
  161.7280  205.0570  152.4200 N   0  0  0  0  0  0  0  0  0  0  0  0
  161.4140  206.6640  149.2130 C   0  0  0  0  0  0  0  0  0  0  0  0
  162.2330  209.7070  150.6000 C   0  0  2  0  0  3  0  0  0  0  0  0
  161.5340  206.1440  153.1860 N   0  0  0  0  0  0  0  0  0  0  0  0
  161.0250  209.9260  152.8700 C   0  0  2  0  0  3  0  0  0  0  0  0
  161.8020  205.6400  148.1800 C   0  0  2  0  0  3  0  0  0  0  0  0
  160.9860  203.4980  148.0230 C   0  0  0  0  0  0  0  0  0  0  0  0
  161.2530  207.4860  151.2530 C   0  0  0  0  0  0  0  0  0  0  0  0
  161.2720  208.0720  149.0080 N   0  0  0  0  0  2  0  0  0  0  0  0
  160.3930  204.2390  146.9650 N   0  0  0  0  0  0  0  0  0  0  0  0
  160.4890  202.2250  148.4260 N   0  0  0  0  0  1  0  0  0  0  0  0
  161.8460  204.0620  150.2720 C   0  0  0  0  0  3  0  0  0  0  0  0
  160.8530  210.9790  153.8400 N   0  0  0  0  0  0  0  0  0  0  0  0
  159.7020  211.5220  154.0080 C   0  0  0  0  0  3  0  0  0  0  0  0
  159.5180  212.5990  155.0220 C   0  0  0  0  0  2  0  0  0  0  0  0
  159.0370  213.7750  154.3930 O   0  0  0  0  0  0  0  0  0  0  0  0
  158.1380  213.8820  152.2670 N   0  0  0  0  0  0  0  0  0  0  0  0
  156.0900  213.9730  155.4940 C   0  0  0  0  0  2  0  0  0  0  0  0
  155.0590  214.4530  149.4190 C   0  0  0  0  0  3  0  0  0  0  0  0
  156.0830  212.6110  154.8150 C   0  0  0  0  0  2  0  0  0  0  0  0
  156.3750  214.2180  148.9960 C   0  0  0  0  0  3  0  0  0  0  0  0
  155.7650  214.2190  151.7240 C   0  0  0  0  0  0  0  0  0  0  0  0
  157.3900  214.0160  149.9330 C   0  0  0  0  0  3  0  0  0  0  0  0
  157.0890  214.0190  151.2990 C   0  0  0  0  0  0  0  0  0  0  0  0
  157.9210  213.8280  153.5470 C   0  0  0  0  0  0  0  0  0  0  0  0
  156.4760  213.8450  154.0370 C   0  0  0  0  0  0  0  0  0  0  0  0
  154.7540  214.4530  150.7860 C   0  0  0  0  0  3  0  0  0  0  0  0
  155.4730  214.2040  153.0890 O   0  0  0  0  0  0  0  0  0  0  0  0
  162.0220  210.8110  149.7380 O   0  0  0  0  0  0  0  0  0  0  0  0
  163.4690  210.9920  147.8980 O   0  0  0  0  0  0  0  0  0  0  0  0
  163.0500  212.3130  148.1730 C   0  0  2  0  0  3  0  0  0  0  0  0
  163.2570  211.3110  149.2580 C   0  0  1  0  0  3  0  0  0  0  0  0
  161.7060  212.4520  147.7980 O   0  0  0  0  0  0  0  0  0  0  0  0
  161.4670  213.8230  147.8830 C   0  0  0  0  0  2  0  0  0  0  0  0
  161.3880  214.4250  146.4910 C   0  0  0  0  0  2  0  0  0  0  0  0
  161.0490  213.3460  145.4610 C   0  0  2  0  0  3  0  0  0  0  0  0
  163.5220  213.3720  144.8530 C   0  0  0  0  0  1  0  0  0  0  0  0
  162.0980  213.1690  144.3510 C   0  0  2  0  0  3  0  0  0  0  0  0
  161.7900  213.8890  143.1570 O   0  0  0  0  0  0  0  0  0  0  0  0
  161.7250  212.5170  141.2290 C   0  0  0  0  0  2  0  0  0  0  0  0
  162.2940  213.5020  141.9140 C   0  0  0  0  0  3  0  0  0  0  0  0
  159.6310  213.4880  144.8840 C   0  0  2  0  0  3  0  0  0  0  0  0
  157.2350  214.1980  145.3260 C   0  0  0  0  0  1  0  0  0  0  0  0
  158.5000  213.6130  145.9370 C   0  0  0  0  0  3  0  0  0  0  0  0
  158.1920  212.3080  146.6560 C   0  0  0  0  0  1  0  0  0  0  0  0
  159.3810  212.5270  143.7520 C   0  0  0  0  0  0  0  0  0  0  0  0
  159.9190  211.3860  143.7900 O   0  0  0  0  0  0  0  0  0  0  0  0
  158.5410  212.8690  142.6920 O   0  0  0  0  0  0  0  0  0  0  0  0
  158.3470  214.2240  142.3050 C   0  0  0  0  0  1  0  0  0  0  0  0
  2 11  1  0  0  0  0
  3 19  1  6  0  0  0
  3 13  1  0  0  0  0
  3 18  1  0  0  0  0
  4  2  1  0  0  0  0
  4 18  1  0  0  0  0
  5  1  1  0  0  0  0
  6  9  1  6  0  0  0
  7 22  1  0  0  0  0
  8 14  1  0  0  0  0
  8  6  1  0  0  0  0
 10 15  1  0  0  0  0
 11 14  2  0  0  0  0
 12  4  2  0  0  0  0
 13 39  1  6  0  0  0
 13 10  1  0  0  0  0
 15  6  1  0  0  0  0
 15 23  1  1  0  0  0
 16  1  1  6  0  0  0
 16  7  1  0  0  0  0
 16 12  1  0  0  0  0
 17 21  1  0  0  0  0
 17  7  2  0  0  0  0
 18  8  2  0  0  0  0
 19 12  1  0  0  0  0
 20  1  2  0  0  0  0
 20 17  1  0  0  0  0
 22  2  2  0  0  0  0
 23 24  2  0  0  0  0
 24 25  1  0  0  0  0
 26 25  1  0  0  0  0
 27 35  2  0  0  0  0
 29 37  1  0  0  0  0
 30 28  1  0  0  0  0
 31 29  2  0  0  0  0
 31 33  1  0  0  0  0
 32 38  1  0  0  0  0
 33 34  2  0  0  0  0
 34 32  1  0  0  0  0
 34 27  1  0  0  0  0
 35 36  1  0  0  0  0
 35 26  1  0  0  0  0
 36 30  1  0  0  0  0
 36 28  1  0  0  0  0
 37 32  2  0  0  0  0
 38 36  1  0  0  0  0
 40 41  1  0  0  0  0
 40 42  1  0  0  0  0
 41 43  1  6  0  0  0
 41 42  1  0  0  0  0
 42 39  1  6  0  0  0
 43 44  1  0  0  0  0
 45 44  1  0  0  0  0
 46 45  1  6  0  0  0
 48 47  1  1  0  0  0
 48 46  1  0  0  0  0
 49 48  1  0  0  0  0
 50 51  2  0  0  0  0
 51 49  1  0  0  0  0
 52 56  1  1  0  0  0
 52 46  1  0  0  0  0
 52 54  1  0  0  0  0
 53 54  1  0  0  0  0
 54 55  1  0  0  0  0
 56 57  2  0  0  0  0
 58 56  1  0  0  0  0
 59 58  1  0  0  0  0
M  END
>  <MODEL>
5

>  <REMARK>
 VINA RESULT:      -5.6      1.969      4.462
  Name = 
  17 active torsions:
  status: ('A' for Active; 'I' for Inactive)
    1  A    between atoms: O_3  and  C_44
    2  A    between atoms: C_4  and  O_26
    3  A    between atoms: C_4  and  C_35
    4  A    between atoms: O_7  and  C_13
    5  A    between atoms: O_7  and  C_57
    6  A    between atoms: C_13  and  C_27
    7  A    between atoms: C_14  and  C_27
    8  A    between atoms: C_14  and  C_44
    9  A    between atoms: C_14  and  C_53
   10  A    between atoms: C_16  and  O_26
   11  A    between atoms: C_18  and  O_50
   12  A    between atoms: C_27  and  C_35
   13  A    between atoms: O_31  and  C_38
   14  A    between atoms: O_31  and  C_51
   15  A    between atoms: C_36  and  O_50
   16  A    between atoms: N_42  and  C_43
   17  A    between atoms: C_51  and  C_54
                            x       y       z     vdW  Elec       q    Type
                         _______ _______ _______ _____ _____    ______ ____

>  <TORSDO>
F 17

$$$$
