=
 OpenBabel11052409293D

 35 38  0  0  1  0  0  0  0  0999 V2000
  161.1060  211.4550  155.9190 O   0  0  0  0  0  0  0  0  0  0  0  0
  160.6380  211.0570  157.2050 C   0  0  0  0  0  2  0  0  0  0  0  0
  160.0750  209.7130  157.1400 N   0  0  0  0  0  2  0  0  0  0  0  0
  160.6880  211.0090  152.4150 C   0  0  0  0  0  0  0  0  0  0  0  0
  160.2500  211.5000  154.8150 C   0  0  0  0  0  0  0  0  0  0  0  0
  161.7610  208.1080  157.1950 O   0  0  0  0  0  0  0  0  0  0  0  0
  159.8530  211.8660  151.8120 C   0  0  0  0  0  3  0  0  0  0  0  0
  160.5320  208.2520  155.1370 C   0  0  1  0  0  3  0  0  0  0  0  0
  158.3550  212.6330  153.6350 C   0  0  0  0  0  0  0  0  0  0  0  0
  159.3160  212.4490  154.7480 C   0  0  0  0  0  3  0  0  0  0  0  0
  160.8120  208.6390  156.5580 C   0  0  0  0  0  0  0  0  0  0  0  0
  158.6420  212.3910  152.3850 N   0  0  0  0  0  0  0  0  0  0  0  0
  162.3610  209.1910  153.9730 O   0  0  0  0  0  0  0  0  0  0  0  0
  160.3390  210.4370  153.7610 C   0  0  2  0  0  3  0  0  0  0  0  0
  161.1620  209.2520  154.2100 C   0  0  0  0  0  0  0  0  0  0  0  0
  157.0520  213.2450  153.9380 C   0  0  0  0  0  0  0  0  0  0  0  0
  156.2590  213.7540  153.0290 O   0  0  0  0  0  0  0  0  0  0  0  0
  155.2750  214.0020  154.9770 C   0  0  0  0  0  3  0  0  0  0  0  0
  155.1800  214.2200  153.6130 C   0  0  0  0  0  3  0  0  0  0  0  0
  156.4870  213.3700  155.1920 C   0  0  0  0  0  3  0  0  0  0  0  0
  160.9870  206.9570  154.8620 O   0  0  0  0  0  0  0  0  0  0  0  0
  160.6960  206.7580  153.5110 C   0  0  0  0  0  2  0  0  0  0  0  0
  161.5930  205.6710  152.9570 C   0  0  0  0  0  1  0  0  0  0  0  0
  161.8800  210.6240  151.7850 O   0  0  0  0  0  0  0  0  0  0  0  0
  161.9330  210.1080  150.4620 C   0  0  0  0  0  2  0  0  0  0  0  0
  162.0430  208.5970  150.5140 C   0  0  0  0  0  2  0  0  0  0  0  0
  161.5530  207.9890  149.2100 C   0  0  0  0  0  2  0  0  0  0  0  0
  161.9780  206.5990  149.1000 N   0  0  0  0  0  2  0  0  0  0  0  0
  160.8420  206.1650  146.7110 S   0  0  0  0  0  0  0  0  0  0  0  0
  161.4480  205.6640  148.1490 C   0  0  0  0  0  0  0  0  0  0  0  0
  161.4720  204.2650  148.4350 N   0  0  0  0  0  2  0  0  0  0  0  0
  160.6290  202.7290  151.5730 O   0  0  0  0  0  1  0  0  0  0  0  0
  161.3650  202.8560  150.3970 C   0  0  1  0  0  3  0  0  0  0  0  0
  160.6310  202.1570  149.2740 C   0  0  0  0  0  2  0  0  0  0  0  0
  160.5630  203.6650  149.3960 C   0  0  2  0  0  3  0  0  0  0  0  0
  1  2  1  0  0  0  0
  3  2  1  0  0  0  0
  5  1  1  0  0  0  0
  7 12  1  0  0  0  0
  7  4  2  0  0  0  0
  8 21  1  6  0  0  0
  8 11  1  0  0  0  0
  9 16  1  0  0  0  0
  9 10  1  0  0  0  0
 10  5  2  0  0  0  0
 11  3  1  0  0  0  0
 11  6  2  0  0  0  0
 12  9  2  0  0  0  0
 13 15  2  0  0  0  0
 14  4  1  6  0  0  0
 14 15  1  0  0  0  0
 14  5  1  0  0  0  0
 15  8  1  0  0  0  0
 16 20  2  0  0  0  0
 17 19  1  0  0  0  0
 17 16  1  0  0  0  0
 18 20  1  0  0  0  0
 19 18  2  0  0  0  0
 22 21  1  0  0  0  0
 23 22  1  0  0  0  0
 24  4  1  0  0  0  0
 25 26  1  0  0  0  0
 25 24  1  0  0  0  0
 27 26  1  0  0  0  0
 28 27  1  0  0  0  0
 29 30  2  0  0  0  0
 30 31  1  0  0  0  0
 30 28  1  0  0  0  0
 33 32  1  1  0  0  0
 34 35  1  0  0  0  0
 34 33  1  0  0  0  0
 35 31  1  6  0  0  0
 35 33  1  0  0  0  0
M  END
>  <MODEL>
1

>  <REMARK>
 VINA RESULT:      -5.7      0.000      0.000
  Name = 
  11 active torsions:
  status: ('A' for Active; 'I' for Inactive)
    1  A    between atoms: C_1  and  C_20
    2  A    between atoms: C_1  and  C_25
    3  A    between atoms: C_4  and  C_26
    4  A    between atoms: C_9  and  O_14
    5  A    between atoms: N_11  and  C_20
    6  A    between atoms: N_11  and  C_33
    7  A    between atoms: O_14  and  C_23
    8  A    between atoms: C_16  and  O_29
    9  A    between atoms: C_21  and  N_30
   10  A    between atoms: C_25  and  O_29
   11  A    between atoms: N_30  and  C_33
                            x       y       z     vdW  Elec       q    Type
                         _______ _______ _______ _____ _____    ______ ____

>  <TORSDO>
F 11

$$$$
=
 OpenBabel11052409293D

 35 38  0  0  1  0  0  0  0  0999 V2000
  161.5900  209.2960  154.5630 O   0  0  0  0  0  0  0  0  0  0  0  0
  161.4390  208.0590  155.2550 C   0  0  0  0  0  2  0  0  0  0  0  0
  160.8490  207.0590  154.3710 N   0  0  0  0  0  2  0  0  0  0  0  0
  160.3280  211.3130  151.9200 C   0  0  0  0  0  0  0  0  0  0  0  0
  160.4940  209.9510  153.9950 C   0  0  0  0  0  0  0  0  0  0  0  0
  162.4640  206.1410  152.9690 O   0  0  0  0  0  0  0  0  0  0  0  0
  159.3900  212.2060  152.2630 C   0  0  0  0  0  3  0  0  0  0  0  0
  160.7770  207.4620  151.8840 C   0  0  1  0  0  3  0  0  0  0  0  0
  158.3940  211.2710  154.3330 C   0  0  0  0  0  0  0  0  0  0  0  0
  159.5920  210.5280  154.7900 C   0  0  0  0  0  3  0  0  0  0  0  0
  161.4010  206.8080  153.0800 C   0  0  0  0  0  0  0  0  0  0  0  0
  158.3650  212.0000  153.2500 N   0  0  0  0  0  0  0  0  0  0  0  0
  162.2900  209.2110  151.4020 O   0  0  0  0  0  0  0  0  0  0  0  0
  160.3030  209.9300  152.5090 C   0  0  2  0  0  3  0  0  0  0  0  0
  161.1850  208.9070  151.8320 C   0  0  0  0  0  0  0  0  0  0  0  0
  157.2160  211.2970  155.2150 C   0  0  0  0  0  0  0  0  0  0  0  0
  157.2000  211.8740  156.3900 O   0  0  0  0  0  0  0  0  0  0  0  0
  155.2100  211.0120  156.0510 C   0  0  0  0  0  3  0  0  0  0  0  0
  156.0120  211.7240  156.9260 C   0  0  0  0  0  3  0  0  0  0  0  0
  155.9860  210.7330  154.9400 C   0  0  0  0  0  3  0  0  0  0  0  0
  161.1250  206.8000  150.7020 O   0  0  0  0  0  0  0  0  0  0  0  0
  160.4910  205.5590  150.7890 C   0  0  0  0  0  2  0  0  0  0  0  0
  160.9840  204.6610  149.6740 C   0  0  0  0  0  1  0  0  0  0  0  0
  161.3240  211.6560  150.9940 O   0  0  0  0  0  0  0  0  0  0  0  0
  161.0770  212.4440  149.8370 C   0  0  0  0  0  2  0  0  0  0  0  0
  162.1190  212.1290  148.7820 C   0  0  0  0  0  2  0  0  0  0  0  0
  162.3970  213.3610  147.9340 C   0  0  0  0  0  2  0  0  0  0  0  0
  162.5100  213.0000  146.5260 N   0  0  0  0  0  2  0  0  0  0  0  0
  161.7820  213.0330  143.9480 S   0  0  0  0  0  0  0  0  0  0  0  0
  161.4890  213.2360  145.5470 C   0  0  0  0  0  0  0  0  0  0  0  0
  160.1790  213.6230  145.9620 N   0  0  0  0  0  2  0  0  0  0  0  0
  156.9250  212.1010  146.0920 O   0  0  0  0  0  1  0  0  0  0  0  0
  157.8100  213.1750  146.1550 C   0  0  1  0  0  3  0  0  0  0  0  0
  158.3890  213.2600  147.5500 C   0  0  0  0  0  2  0  0  0  0  0  0
  159.2060  212.6500  146.4300 C   0  0  2  0  0  3  0  0  0  0  0  0
  1  2  1  0  0  0  0
  3  2  1  0  0  0  0
  4  7  2  0  0  0  0
  4 14  1  0  0  0  0
  5  1  1  0  0  0  0
  5 10  2  0  0  0  0
  6 11  2  0  0  0  0
  7 12  1  0  0  0  0
  8 21  1  6  0  0  0
  8 11  1  0  0  0  0
  9 10  1  0  0  0  0
  9 16  1  0  0  0  0
 11  3  1  0  0  0  0
 12  9  2  0  0  0  0
 13 15  2  0  0  0  0
 14 15  1  6  0  0  0
 14  5  1  0  0  0  0
 15  8  1  0  0  0  0
 16 17  1  0  0  0  0
 17 19  1  0  0  0  0
 18 19  2  0  0  0  0
 20 16  2  0  0  0  0
 20 18  1  0  0  0  0
 21 22  1  0  0  0  0
 23 22  1  0  0  0  0
 24  4  1  0  0  0  0
 25 24  1  0  0  0  0
 26 25  1  0  0  0  0
 27 26  1  0  0  0  0
 28 27  1  0  0  0  0
 29 30  2  0  0  0  0
 30 31  1  0  0  0  0
 30 28  1  0  0  0  0
 33 32  1  1  0  0  0
 33 35  1  0  0  0  0
 33 34  1  0  0  0  0
 35 31  1  6  0  0  0
 35 34  1  0  0  0  0
M  END
>  <MODEL>
2

>  <REMARK>
 VINA RESULT:      -5.5      3.627      5.384
  Name = 
  11 active torsions:
  status: ('A' for Active; 'I' for Inactive)
    1  A    between atoms: C_1  and  C_20
    2  A    between atoms: C_1  and  C_25
    3  A    between atoms: C_4  and  C_26
    4  A    between atoms: C_9  and  O_14
    5  A    between atoms: N_11  and  C_20
    6  A    between atoms: N_11  and  C_33
    7  A    between atoms: O_14  and  C_23
    8  A    between atoms: C_16  and  O_29
    9  A    between atoms: C_21  and  N_30
   10  A    between atoms: C_25  and  O_29
   11  A    between atoms: N_30  and  C_33
                            x       y       z     vdW  Elec       q    Type
                         _______ _______ _______ _____ _____    ______ ____

>  <TORSDO>
F 11

$$$$
=
 OpenBabel11052409293D

 35 38  0  0  1  0  0  0  0  0999 V2000
  162.8240  206.1610  151.0970 O   0  0  0  0  0  0  0  0  0  0  0  0
  162.3470  204.8340  151.3070 C   0  0  0  0  0  2  0  0  0  0  0  0
  161.0720  204.6460  150.6250 N   0  0  0  0  0  2  0  0  0  0  0  0
  161.8580  209.5160  150.4190 C   0  0  0  0  0  0  0  0  0  0  0  0
  162.0700  207.2740  151.4770 C   0  0  0  0  0  0  0  0  0  0  0  0
  161.4000  204.2280  148.3580 O   0  0  0  0  0  0  0  0  0  0  0  0
  161.6740  210.2990  151.4910 C   0  0  0  0  0  3  0  0  0  0  0  0
  160.3160  206.3060  148.8850 C   0  0  1  0  0  3  0  0  0  0  0  0
  161.1710  208.7050  153.3240 C   0  0  0  0  0  0  0  0  0  0  0  0
  161.9220  207.5530  152.7730 C   0  0  0  0  0  3  0  0  0  0  0  0
  160.9220  204.9830  149.2470 C   0  0  0  0  0  0  0  0  0  0  0  0
  161.1150  209.8740  152.7460 N   0  0  0  0  0  0  0  0  0  0  0  0
  162.2010  207.5830  148.2550 O   0  0  0  0  0  0  0  0  0  0  0  0
  161.3730  208.0930  150.4330 C   0  0  2  0  0  3  0  0  0  0  0  0
  161.3290  207.3960  149.0930 C   0  0  0  0  0  0  0  0  0  0  0  0
  160.5650  208.5640  154.6580 C   0  0  0  0  0  0  0  0  0  0  0  0
  160.1950  209.5790  155.3990 O   0  0  0  0  0  0  0  0  0  0  0  0
  159.7400  207.7440  156.5150 C   0  0  0  0  0  3  0  0  0  0  0  0
  159.6950  209.1280  156.5240 C   0  0  0  0  0  3  0  0  0  0  0  0
  160.3030  207.3740  155.3070 C   0  0  0  0  0  3  0  0  0  0  0  0
  159.8430  206.3060  147.5680 O   0  0  0  0  0  0  0  0  0  0  0  0
  160.9920  206.3480  146.7770 C   0  0  0  0  0  2  0  0  0  0  0  0
  160.6340  205.9950  145.3490 C   0  0  0  0  0  1  0  0  0  0  0  0
  162.4840  210.0250  149.2720 O   0  0  0  0  0  0  0  0  0  0  0  0
  161.9450  211.0860  148.4940 C   0  0  0  0  0  2  0  0  0  0  0  0
  163.0630  212.0180  148.0710 C   0  0  0  0  0  2  0  0  0  0  0  0
  162.4870  213.2910  147.4710 C   0  0  0  0  0  2  0  0  0  0  0  0
  162.6580  213.3000  146.0230 N   0  0  0  0  0  2  0  0  0  0  0  0
  161.8210  212.8510  143.5170 S   0  0  0  0  0  0  0  0  0  0  0  0
  161.5760  213.2710  145.0820 C   0  0  0  0  0  0  0  0  0  0  0  0
  160.2490  213.5790  145.5100 N   0  0  0  0  0  2  0  0  0  0  0  0
  157.0060  212.1410  146.0870 O   0  0  0  0  0  1  0  0  0  0  0  0
  157.9590  213.1540  146.1620 C   0  0  1  0  0  3  0  0  0  0  0  0
  158.8430  212.9160  147.3660 C   0  0  0  0  0  2  0  0  0  0  0  0
  159.3390  212.5500  145.9820 C   0  0  2  0  0  3  0  0  0  0  0  0
  1  2  1  0  0  0  0
  1  5  1  0  0  0  0
  3  2  1  0  0  0  0
  4 14  1  0  0  0  0
  4  7  2  0  0  0  0
  5 10  2  0  0  0  0
  6 11  2  0  0  0  0
  7 12  1  0  0  0  0
  8 21  1  6  0  0  0
  8 15  1  0  0  0  0
  8 11  1  0  0  0  0
  9 16  1  0  0  0  0
 10  9  1  0  0  0  0
 11  3  1  0  0  0  0
 12  9  2  0  0  0  0
 13 15  2  0  0  0  0
 14 15  1  6  0  0  0
 14  5  1  0  0  0  0
 16 20  2  0  0  0  0
 16 17  1  0  0  0  0
 17 19  1  0  0  0  0
 18 19  2  0  0  0  0
 20 18  1  0  0  0  0
 22 21  1  0  0  0  0
 23 22  1  0  0  0  0
 24  4  1  0  0  0  0
 25 24  1  0  0  0  0
 26 25  1  0  0  0  0
 27 26  1  0  0  0  0
 28 27  1  0  0  0  0
 29 30  2  0  0  0  0
 30 31  1  0  0  0  0
 30 28  1  0  0  0  0
 33 32  1  1  0  0  0
 33 34  1  0  0  0  0
 35 31  1  6  0  0  0
 35 33  1  0  0  0  0
 35 34  1  0  0  0  0
M  END
>  <MODEL>
3

>  <REMARK>
 VINA RESULT:      -5.4      3.864      7.213
  Name = 
  11 active torsions:
  status: ('A' for Active; 'I' for Inactive)
    1  A    between atoms: C_1  and  C_20
    2  A    between atoms: C_1  and  C_25
    3  A    between atoms: C_4  and  C_26
    4  A    between atoms: C_9  and  O_14
    5  A    between atoms: N_11  and  C_20
    6  A    between atoms: N_11  and  C_33
    7  A    between atoms: O_14  and  C_23
    8  A    between atoms: C_16  and  O_29
    9  A    between atoms: C_21  and  N_30
   10  A    between atoms: C_25  and  O_29
   11  A    between atoms: N_30  and  C_33
                            x       y       z     vdW  Elec       q    Type
                         _______ _______ _______ _____ _____    ______ ____

>  <TORSDO>
F 11

$$$$
=
 OpenBabel11052409293D

 35 38  0  0  1  0  0  0  0  0999 V2000
  162.8190  206.0340  151.1390 O   0  0  0  0  0  0  0  0  0  0  0  0
  162.3340  204.7080  151.3370 C   0  0  0  0  0  2  0  0  0  0  0  0
  161.0590  204.5330  150.6500 N   0  0  0  0  0  2  0  0  0  0  0  0
  161.8720  209.4000  150.4870 C   0  0  0  0  0  0  0  0  0  0  0  0
  162.0690  207.1480  151.5270 C   0  0  0  0  0  0  0  0  0  0  0  0
  161.3920  204.1320  148.3810 O   0  0  0  0  0  0  0  0  0  0  0  0
  161.6890  210.1740  151.5650 C   0  0  0  0  0  3  0  0  0  0  0  0
  160.3180  206.2110  148.9220 C   0  0  1  0  0  3  0  0  0  0  0  0
  161.1720  208.5680  153.3830 C   0  0  0  0  0  0  0  0  0  0  0  0
  161.9190  207.4170  152.8240 C   0  0  0  0  0  3  0  0  0  0  0  0
  160.9160  204.8820  149.2740 C   0  0  0  0  0  0  0  0  0  0  0  0
  161.1240  209.7430  152.8150 N   0  0  0  0  0  0  0  0  0  0  0  0
  162.2120  207.4840  148.3080 O   0  0  0  0  0  0  0  0  0  0  0  0
  161.3800  207.9790  150.4880 C   0  0  2  0  0  3  0  0  0  0  0  0
  161.3360  207.2940  149.1410 C   0  0  0  0  0  0  0  0  0  0  0  0
  160.5610  208.4190  154.7140 C   0  0  0  0  0  0  0  0  0  0  0  0
  160.1680  209.4280  155.4500 O   0  0  0  0  0  0  0  0  0  0  0  0
  159.7410  207.5880  156.5690 C   0  0  0  0  0  3  0  0  0  0  0  0
  159.6700  208.9710  156.5740 C   0  0  0  0  0  3  0  0  0  0  0  0
  160.3190  207.2260  155.3650 C   0  0  0  0  0  3  0  0  0  0  0  0
  159.8490  206.2250  147.6030 O   0  0  0  0  0  0  0  0  0  0  0  0
  161.0000  206.2960  146.8170 C   0  0  0  0  0  2  0  0  0  0  0  0
  160.6650  205.8950  145.3950 C   0  0  0  0  0  1  0  0  0  0  0  0
  162.5040  209.9150  149.3470 O   0  0  0  0  0  0  0  0  0  0  0  0
  161.9150  210.8950  148.5020 C   0  0  0  0  0  2  0  0  0  0  0  0
  162.8890  212.0390  148.3010 C   0  0  0  0  0  2  0  0  0  0  0  0
  162.3250  213.0400  147.3060 C   0  0  0  0  0  2  0  0  0  0  0  0
  160.9580  212.6890  146.9420 N   0  0  0  0  0  2  0  0  0  0  0  0
  158.8270  212.6300  145.3180 S   0  0  0  0  0  0  0  0  0  0  0  0
  160.4350  212.7510  145.6080 C   0  0  0  0  0  0  0  0  0  0  0  0
  161.3190  212.9560  144.5040 N   0  0  0  0  0  2  0  0  0  0  0  0
  162.1300  211.4740  141.3320 O   0  0  0  0  0  1  0  0  0  0  0  0
  162.2870  212.4030  142.3590 C   0  0  1  0  0  3  0  0  0  0  0  0
  161.3080  213.5380  142.1550 C   0  0  0  0  0  2  0  0  0  0  0  0
  161.0100  212.4590  143.1750 C   0  0  2  0  0  3  0  0  0  0  0  0
  1  2  1  0  0  0  0
  1  5  1  0  0  0  0
  3  2  1  0  0  0  0
  4 14  1  0  0  0  0
  4  7  2  0  0  0  0
  5 10  2  0  0  0  0
  6 11  2  0  0  0  0
  7 12  1  0  0  0  0
  8 21  1  6  0  0  0
  8 15  1  0  0  0  0
  8 11  1  0  0  0  0
  9 16  1  0  0  0  0
 10  9  1  0  0  0  0
 11  3  1  0  0  0  0
 12  9  2  0  0  0  0
 13 15  2  0  0  0  0
 14 15  1  6  0  0  0
 14  5  1  0  0  0  0
 16 20  2  0  0  0  0
 16 17  1  0  0  0  0
 17 19  1  0  0  0  0
 18 19  2  0  0  0  0
 20 18  1  0  0  0  0
 22 21  1  0  0  0  0
 23 22  1  0  0  0  0
 24  4  1  0  0  0  0
 25 24  1  0  0  0  0
 26 25  1  0  0  0  0
 27 26  1  0  0  0  0
 28 27  1  0  0  0  0
 29 30  2  0  0  0  0
 30 28  1  0  0  0  0
 31 30  1  0  0  0  0
 33 32  1  6  0  0  0
 33 35  1  0  0  0  0
 34 33  1  0  0  0  0
 34 35  1  0  0  0  0
 35 31  1  1  0  0  0
M  END
>  <MODEL>
4

>  <REMARK>
 VINA RESULT:      -5.4      4.368      7.466
  Name = 
  11 active torsions:
  status: ('A' for Active; 'I' for Inactive)
    1  A    between atoms: C_1  and  C_20
    2  A    between atoms: C_1  and  C_25
    3  A    between atoms: C_4  and  C_26
    4  A    between atoms: C_9  and  O_14
    5  A    between atoms: N_11  and  C_20
    6  A    between atoms: N_11  and  C_33
    7  A    between atoms: O_14  and  C_23
    8  A    between atoms: C_16  and  O_29
    9  A    between atoms: C_21  and  N_30
   10  A    between atoms: C_25  and  O_29
   11  A    between atoms: N_30  and  C_33
                            x       y       z     vdW  Elec       q    Type
                         _______ _______ _______ _____ _____    ______ ____

>  <TORSDO>
F 11

$$$$
=
 OpenBabel11052409293D

 35 38  0  0  1  0  0  0  0  0999 V2000
  161.5800  209.5400  154.8320 O   0  0  0  0  0  0  0  0  0  0  0  0
  161.2470  208.4730  155.7150 C   0  0  0  0  0  2  0  0  0  0  0  0
  160.6220  207.3840  154.9730 N   0  0  0  0  0  2  0  0  0  0  0  0
  160.7390  211.1350  151.7660 C   0  0  0  0  0  0  0  0  0  0  0  0
  160.6050  210.1750  154.0570 C   0  0  0  0  0  0  0  0  0  0  0  0
  162.2310  206.0780  153.9120 O   0  0  0  0  0  0  0  0  0  0  0  0
  159.8780  212.1580  151.8570 C   0  0  0  0  0  3  0  0  0  0  0  0
  160.7790  207.3210  152.4580 C   0  0  1  0  0  3  0  0  0  0  0  0
  158.6370  211.7190  153.9590 C   0  0  0  0  0  0  0  0  0  0  0  0
  159.7120  210.9690  154.6490 C   0  0  0  0  0  3  0  0  0  0  0  0
  161.2390  206.8470  153.8040 C   0  0  0  0  0  0  0  0  0  0  0  0
  158.7660  212.2330  152.7650 N   0  0  0  0  0  0  0  0  0  0  0  0
  162.5010  208.8060  151.8160 O   0  0  0  0  0  0  0  0  0  0  0  0
  160.5240  209.8950  152.5870 C   0  0  2  0  0  3  0  0  0  0  0  0
  161.3410  208.6880  152.1880 C   0  0  0  0  0  0  0  0  0  0  0  0
  157.4060  212.0150  154.7080 C   0  0  0  0  0  0  0  0  0  0  0  0
  156.9180  211.2380  155.6420 O   0  0  0  0  0  0  0  0  0  0  0  0
  155.5780  212.9670  155.4560 C   0  0  0  0  0  3  0  0  0  0  0  0
  155.8190  211.7740  156.1170 C   0  0  0  0  0  3  0  0  0  0  0  0
  156.6040  213.1280  154.5420 C   0  0  0  0  0  3  0  0  0  0  0  0
  161.1430  206.4210  151.4500 O   0  0  0  0  0  0  0  0  0  0  0  0
  160.5900  205.2020  151.8450 C   0  0  0  0  0  2  0  0  0  0  0  0
  161.0700  204.1060  150.9160 C   0  0  0  0  0  1  0  0  0  0  0  0
  161.8320  211.2090  150.8910 O   0  0  0  0  0  0  0  0  0  0  0  0
  161.7110  211.5510  149.5170 C   0  0  0  0  0  2  0  0  0  0  0  0
  162.3750  210.4830  148.6710 C   0  0  0  0  0  2  0  0  0  0  0  0
  161.5590  209.2010  148.7070 C   0  0  0  0  0  2  0  0  0  0  0  0
  162.3770  208.0600  148.3140 N   0  0  0  0  0  2  0  0  0  0  0  0
  160.3040  206.3690  148.1670 S   0  0  0  0  0  0  0  0  0  0  0  0
  161.8500  206.8090  147.8510 C   0  0  0  0  0  0  0  0  0  0  0  0
  162.6670  205.9360  147.0700 N   0  0  0  0  0  2  0  0  0  0  0  0
  160.9860  203.4740  145.0620 O   0  0  0  0  0  1  0  0  0  0  0  0
  161.8980  203.8940  146.0280 C   0  0  1  0  0  3  0  0  0  0  0  0
  163.1830  204.3140  145.3490 C   0  0  0  0  0  2  0  0  0  0  0  0
  162.1980  205.3650  145.8190 C   0  0  2  0  0  3  0  0  0  0  0  0
  1  2  1  0  0  0  0
  3  2  1  0  0  0  0
  4  7  2  0  0  0  0
  5 10  2  0  0  0  0
  5  1  1  0  0  0  0
  7 12  1  0  0  0  0
  8 21  1  6  0  0  0
  8 11  1  0  0  0  0
  9 10  1  0  0  0  0
  9 16  1  0  0  0  0
 11  6  2  0  0  0  0
 11  3  1  0  0  0  0
 12  9  2  0  0  0  0
 13 15  2  0  0  0  0
 14  4  1  6  0  0  0
 14  5  1  0  0  0  0
 15  8  1  0  0  0  0
 15 14  1  0  0  0  0
 16 17  1  0  0  0  0
 17 19  1  0  0  0  0
 18 19  2  0  0  0  0
 20 16  2  0  0  0  0
 20 18  1  0  0  0  0
 21 22  1  0  0  0  0
 23 22  1  0  0  0  0
 24  4  1  0  0  0  0
 25 24  1  0  0  0  0
 26 27  1  0  0  0  0
 26 25  1  0  0  0  0
 28 27  1  0  0  0  0
 30 29  2  0  0  0  0
 30 28  1  0  0  0  0
 31 30  1  0  0  0  0
 33 32  1  6  0  0  0
 34 35  1  0  0  0  0
 34 33  1  0  0  0  0
 35 33  1  0  0  0  0
 35 31  1  1  0  0  0
M  END
>  <MODEL>
5

>  <REMARK>
 VINA RESULT:      -5.3      2.120      2.753
  Name = 
  11 active torsions:
  status: ('A' for Active; 'I' for Inactive)
    1  A    between atoms: C_1  and  C_20
    2  A    between atoms: C_1  and  C_25
    3  A    between atoms: C_4  and  C_26
    4  A    between atoms: C_9  and  O_14
    5  A    between atoms: N_11  and  C_20
    6  A    between atoms: N_11  and  C_33
    7  A    between atoms: O_14  and  C_23
    8  A    between atoms: C_16  and  O_29
    9  A    between atoms: C_21  and  N_30
   10  A    between atoms: C_25  and  O_29
   11  A    between atoms: N_30  and  C_33
                            x       y       z     vdW  Elec       q    Type
                         _______ _______ _______ _____ _____    ______ ____

>  <TORSDO>
F 11

$$$$
=
 OpenBabel11052409293D

 35 38  0  0  1  0  0  0  0  0999 V2000
  162.8290  206.0480  151.1680 O   0  0  0  0  0  0  0  0  0  0  0  0
  162.3230  204.7390  151.4170 C   0  0  0  0  0  2  0  0  0  0  0  0
  161.0510  204.5530  150.7290 N   0  0  0  0  0  2  0  0  0  0  0  0
  161.9370  209.3970  150.3710 C   0  0  0  0  0  0  0  0  0  0  0  0
  162.0940  207.1880  151.5040 C   0  0  0  0  0  0  0  0  0  0  0  0
  161.3920  204.0540  148.4800 O   0  0  0  0  0  0  0  0  0  0  0  0
  161.7590  210.2180  151.4140 C   0  0  0  0  0  3  0  0  0  0  0  0
  160.3460  206.1690  148.9270 C   0  0  1  0  0  3  0  0  0  0  0  0
  161.2060  208.6960  153.2930 C   0  0  0  0  0  0  0  0  0  0  0  0
  161.9390  207.5120  152.7880 C   0  0  0  0  0  3  0  0  0  0  0  0
  160.9210  204.8480  149.3390 C   0  0  0  0  0  0  0  0  0  0  0  0
  161.1790  209.8470  152.6770 N   0  0  0  0  0  0  0  0  0  0  0  0
  162.2620  207.3880  148.2750 O   0  0  0  0  0  0  0  0  0  0  0  0
  161.4230  207.9850  150.4270 C   0  0  2  0  0  3  0  0  0  0  0  0
  161.3780  207.2450  149.1090 C   0  0  0  0  0  0  0  0  0  0  0  0
  160.5840  208.6120  154.6250 C   0  0  0  0  0  0  0  0  0  0  0  0
  160.1380  209.6500  155.2860 O   0  0  0  0  0  0  0  0  0  0  0  0
  159.7770  207.8730  156.5240 C   0  0  0  0  0  3  0  0  0  0  0  0
  159.6450  209.2490  156.4330 C   0  0  0  0  0  3  0  0  0  0  0  0
  160.3850  207.4560  155.3540 C   0  0  0  0  0  3  0  0  0  0  0  0
  159.8850  206.1360  147.6060 O   0  0  0  0  0  0  0  0  0  0  0  0
  161.0280  206.3220  146.8260 C   0  0  0  0  0  2  0  0  0  0  0  0
  160.7650  205.8260  145.4200 C   0  0  0  0  0  1  0  0  0  0  0  0
  162.5840  209.8550  149.2150 O   0  0  0  0  0  0  0  0  0  0  0  0
  161.9680  210.7120  148.2620 C   0  0  0  0  0  2  0  0  0  0  0  0
  162.6210  212.0780  148.3150 C   0  0  0  0  0  2  0  0  0  0  0  0
  161.6380  213.1100  148.8480 C   0  0  0  0  0  2  0  0  0  0  0  0
  160.5840  213.3650  147.8740 N   0  0  0  0  0  2  0  0  0  0  0  0
  158.0190  212.9480  147.2200 S   0  0  0  0  0  0  0  0  0  0  0  0
  159.1970  213.5190  148.2050 C   0  0  0  0  0  0  0  0  0  0  0  0
  158.8220  214.1500  149.4300 N   0  0  0  0  0  2  0  0  0  0  0  0
  157.0940  213.8820  152.5710 O   0  0  0  0  0  1  0  0  0  0  0  0
  158.1800  214.2070  151.7610 C   0  0  1  0  0  3  0  0  0  0  0  0
  159.0190  212.9700  151.5340 C   0  0  0  0  0  2  0  0  0  0  0  0
  158.0700  213.4460  150.4540 C   0  0  2  0  0  3  0  0  0  0  0  0
  1  2  1  0  0  0  0
  1  5  1  0  0  0  0
  3  2  1  0  0  0  0
  4 14  1  0  0  0  0
  4  7  2  0  0  0  0
  5 10  2  0  0  0  0
  6 11  2  0  0  0  0
  7 12  1  0  0  0  0
  8 21  1  6  0  0  0
  8 15  1  0  0  0  0
  8 11  1  0  0  0  0
  9 16  1  0  0  0  0
 10  9  1  0  0  0  0
 11  3  1  0  0  0  0
 12  9  2  0  0  0  0
 13 15  2  0  0  0  0
 14 15  1  6  0  0  0
 14  5  1  0  0  0  0
 16 17  1  0  0  0  0
 16 20  2  0  0  0  0
 17 19  1  0  0  0  0
 19 18  2  0  0  0  0
 20 18  1  0  0  0  0
 22 21  1  0  0  0  0
 23 22  1  0  0  0  0
 24  4  1  0  0  0  0
 25 26  1  0  0  0  0
 25 24  1  0  0  0  0
 26 27  1  0  0  0  0
 28 30  1  0  0  0  0
 28 27  1  0  0  0  0
 29 30  2  0  0  0  0
 30 31  1  0  0  0  0
 33 32  1  1  0  0  0
 34 33  1  0  0  0  0
 35 31  1  6  0  0  0
 35 34  1  0  0  0  0
 35 33  1  0  0  0  0
M  END
>  <MODEL>
6

>  <REMARK>
 VINA RESULT:      -5.1      2.883      7.242
  Name = 
  11 active torsions:
  status: ('A' for Active; 'I' for Inactive)
    1  A    between atoms: C_1  and  C_20
    2  A    between atoms: C_1  and  C_25
    3  A    between atoms: C_4  and  C_26
    4  A    between atoms: C_9  and  O_14
    5  A    between atoms: N_11  and  C_20
    6  A    between atoms: N_11  and  C_33
    7  A    between atoms: O_14  and  C_23
    8  A    between atoms: C_16  and  O_29
    9  A    between atoms: C_21  and  N_30
   10  A    between atoms: C_25  and  O_29
   11  A    between atoms: N_30  and  C_33
                            x       y       z     vdW  Elec       q    Type
                         _______ _______ _______ _____ _____    ______ ____

>  <TORSDO>
F 11

$$$$
=
 OpenBabel11052409293D

 35 38  0  0  1  0  0  0  0  0999 V2000
  162.4780  211.9160  149.6430 O   0  0  0  0  0  0  0  0  0  0  0  0
  162.5760  211.8670  148.2230 C   0  0  0  0  0  2  0  0  0  0  0  0
  161.2680  212.1000  147.6210 N   0  0  0  0  0  2  0  0  0  0  0  0
  160.3060  211.4370  152.4180 C   0  0  0  0  0  0  0  0  0  0  0  0
  161.6270  211.0570  150.3440 C   0  0  0  0  0  0  0  0  0  0  0  0
  160.7770  214.3750  147.5650 O   0  0  0  0  0  0  0  0  0  0  0  0
  160.3260  210.2170  152.9720 C   0  0  0  0  0  3  0  0  0  0  0  0
  159.3930  213.0500  149.0130 C   0  0  1  0  0  3  0  0  0  0  0  0
  161.1350  208.7390  151.1510 C   0  0  0  0  0  0  0  0  0  0  0  0
  161.9280  209.7610  150.4290 C   0  0  0  0  0  3  0  0  0  0  0  0
  160.4810  213.2290  147.9970 C   0  0  0  0  0  0  0  0  0  0  0  0
  160.4830  208.9790  152.2560 N   0  0  0  0  0  0  0  0  0  0  0  0
  160.3530  213.9710  150.9660 O   0  0  0  0  0  0  0  0  0  0  0  0
  160.3490  211.5860  150.9230 C   0  0  2  0  0  3  0  0  0  0  0  0
  159.9980  212.9540  150.3850 C   0  0  0  0  0  0  0  0  0  0  0  0
  161.1930  207.3490  150.6710 C   0  0  0  0  0  0  0  0  0  0  0  0
  161.3200  206.3120  151.4600 O   0  0  0  0  0  0  0  0  0  0  0  0
  161.2180  205.5650  149.3980 C   0  0  0  0  0  3  0  0  0  0  0  0
  161.3400  205.2200  150.7340 C   0  0  0  0  0  3  0  0  0  0  0  0
  161.1220  206.9440  149.3530 C   0  0  0  0  0  3  0  0  0  0  0  0
  158.4600  214.0910  148.9490 O   0  0  0  0  0  0  0  0  0  0  0  0
  157.2240  213.4530  148.8270 C   0  0  0  0  0  2  0  0  0  0  0  0
  156.2680  214.0040  149.8640 C   0  0  0  0  0  1  0  0  0  0  0  0
  160.2230  212.5780  153.2280 O   0  0  0  0  0  0  0  0  0  0  0  0
  159.0190  213.0100  153.8480 C   0  0  0  0  0  2  0  0  0  0  0  0
  159.3140  213.4560  155.2670 C   0  0  0  0  0  2  0  0  0  0  0  0
  159.1580  212.2880  156.2280 C   0  0  0  0  0  2  0  0  0  0  0  0
  160.4450  211.9270  156.8100 N   0  0  0  0  0  2  0  0  0  0  0  0
  162.7350  210.7030  156.1470 S   0  0  0  0  0  0  0  0  0  0  0  0
  161.1420  210.7050  156.5340 C   0  0  0  0  0  0  0  0  0  0  0  0
  160.4560  209.4550  156.6260 N   0  0  0  0  0  2  0  0  0  0  0  0
  160.7710  206.4690  154.6500 O   0  0  0  0  0  1  0  0  0  0  0  0
  160.0830  207.3690  155.4620 C   0  0  1  0  0  3  0  0  0  0  0  0
  160.3770  207.0540  156.9120 C   0  0  0  0  0  2  0  0  0  0  0  0
  161.0860  208.2070  156.2320 C   0  0  2  0  0  3  0  0  0  0  0  0
  1  5  1  0  0  0  0
  2  1  1  0  0  0  0
  3 11  1  0  0  0  0
  3  2  1  0  0  0  0
  4  7  2  0  0  0  0
  4 24  1  0  0  0  0
  5 10  2  0  0  0  0
  6 11  2  0  0  0  0
  8 21  1  1  0  0  0
  8 15  1  0  0  0  0
  9 12  2  0  0  0  0
 10  9  1  0  0  0  0
 11  8  1  0  0  0  0
 12  7  1  0  0  0  0
 14  5  1  1  0  0  0
 14  4  1  0  0  0  0
 15 14  1  0  0  0  0
 15 13  2  0  0  0  0
 16  9  1  0  0  0  0
 16 17  1  0  0  0  0
 18 19  2  0  0  0  0
 19 17  1  0  0  0  0
 20 18  1  0  0  0  0
 20 16  2  0  0  0  0
 22 21  1  0  0  0  0
 22 23  1  0  0  0  0
 24 25  1  0  0  0  0
 25 26  1  0  0  0  0
 26 27  1  0  0  0  0
 27 28  1  0  0  0  0
 29 30  2  0  0  0  0
 30 31  1  0  0  0  0
 30 28  1  0  0  0  0
 33 32  1  6  0  0  0
 33 35  1  0  0  0  0
 33 34  1  0  0  0  0
 35 31  1  1  0  0  0
 35 34  1  0  0  0  0
M  END
>  <MODEL>
7

>  <REMARK>
 VINA RESULT:      -5.0      3.187      8.032
  Name = 
  11 active torsions:
  status: ('A' for Active; 'I' for Inactive)
    1  A    between atoms: C_1  and  C_20
    2  A    between atoms: C_1  and  C_25
    3  A    between atoms: C_4  and  C_26
    4  A    between atoms: C_9  and  O_14
    5  A    between atoms: N_11  and  C_20
    6  A    between atoms: N_11  and  C_33
    7  A    between atoms: O_14  and  C_23
    8  A    between atoms: C_16  and  O_29
    9  A    between atoms: C_21  and  N_30
   10  A    between atoms: C_25  and  O_29
   11  A    between atoms: N_30  and  C_33
                            x       y       z     vdW  Elec       q    Type
                         _______ _______ _______ _____ _____    ______ ____

>  <TORSDO>
F 11

$$$$
=
 OpenBabel11052409293D

 35 38  0  0  1  0  0  0  0  0999 V2000
  162.9840  209.8400  153.9380 O   0  0  0  0  0  0  0  0  0  0  0  0
  162.9510  211.0750  154.6480 C   0  0  0  0  0  2  0  0  0  0  0  0
  161.5810  211.3940  155.0350 N   0  0  0  0  0  2  0  0  0  0  0  0
  161.1100  207.6300  151.8760 C   0  0  0  0  0  0  0  0  0  0  0  0
  162.2500  209.6550  152.7640 C   0  0  0  0  0  0  0  0  0  0  0  0
  160.9660  210.2150  156.9460 O   0  0  0  0  0  0  0  0  0  0  0  0
  161.2480  207.8050  150.5550 C   0  0  0  0  0  3  0  0  0  0  0  0
  159.7970  209.6160  154.9360 C   0  0  1  0  0  3  0  0  0  0  0  0
  161.9610  210.1710  150.3310 C   0  0  0  0  0  0  0  0  0  0  0  0
  162.6270  210.2840  151.6500 C   0  0  0  0  0  3  0  0  0  0  0  0
  160.7740  210.4390  155.7210 C   0  0  0  0  0  0  0  0  0  0  0  0
  161.4020  209.0740  149.8950 N   0  0  0  0  0  0  0  0  0  0  0  0
  160.8850  207.5240  154.7870 O   0  0  0  0  0  0  0  0  0  0  0  0
  161.0050  208.8200  152.7880 C   0  0  2  0  0  3  0  0  0  0  0  0
  160.5330  208.5360  154.1950 C   0  0  0  0  0  0  0  0  0  0  0  0
  162.0470  211.3150  149.4100 C   0  0  0  0  0  0  0  0  0  0  0  0
  162.9600  211.4310  148.4780 O   0  0  0  0  0  0  0  0  0  0  0  0
  161.6730  213.2060  148.3660 C   0  0  0  0  0  3  0  0  0  0  0  0
  162.7700  212.5540  147.8290 C   0  0  0  0  0  3  0  0  0  0  0  0
  161.2010  212.4060  149.3910 C   0  0  0  0  0  3  0  0  0  0  0  0
  158.8080  209.0720  155.7620 O   0  0  0  0  0  0  0  0  0  0  0  0
  158.0270  210.1640  156.1480 C   0  0  0  0  0  2  0  0  0  0  0  0
  157.4020  210.7950  154.9210 C   0  0  0  0  0  1  0  0  0  0  0  0
  161.0420  206.3360  152.4120 O   0  0  0  0  0  0  0  0  0  0  0  0
  161.9080  205.2800  152.0170 C   0  0  0  0  0  2  0  0  0  0  0  0
  161.1430  203.9710  152.0280 C   0  0  0  0  0  2  0  0  0  0  0  0
  160.3250  203.8290  150.7550 C   0  0  0  0  0  2  0  0  0  0  0  0
  161.1900  203.8700  149.5820 N   0  0  0  0  0  2  0  0  0  0  0  0
  160.7610  201.3230  148.8670 S   0  0  0  0  0  0  0  0  0  0  0  0
  161.2070  202.8690  148.5550 C   0  0  0  0  0  0  0  0  0  0  0  0
  161.5870  203.2190  147.2230 N   0  0  0  0  0  2  0  0  0  0  0  0
  160.9630  205.8150  144.8160 O   0  0  0  0  0  1  0  0  0  0  0  0
  161.5060  204.6050  145.2430 C   0  0  1  0  0  3  0  0  0  0  0  0
  162.8160  204.8710  145.9510 C   0  0  0  0  0  2  0  0  0  0  0  0
  161.5640  204.5950  146.7590 C   0  0  2  0  0  3  0  0  0  0  0  0
  1  2  1  0  0  0  0
  2  3  1  0  0  0  0
  3 11  1  0  0  0  0
  4 24  1  0  0  0  0
  5 14  1  0  0  0  0
  5  1  1  0  0  0  0
  7  4  2  0  0  0  0
  8 11  1  0  0  0  0
  8 21  1  1  0  0  0
  9 10  1  0  0  0  0
 10  5  2  0  0  0  0
 11  6  2  0  0  0  0
 12  9  2  0  0  0  0
 12  7  1  0  0  0  0
 14  4  1  1  0  0  0
 14 15  1  0  0  0  0
 15 13  2  0  0  0  0
 15  8  1  0  0  0  0
 16  9  1  0  0  0  0
 17 16  1  0  0  0  0
 18 20  1  0  0  0  0
 19 18  2  0  0  0  0
 19 17  1  0  0  0  0
 20 16  2  0  0  0  0
 21 22  1  0  0  0  0
 23 22  1  0  0  0  0
 25 26  1  0  0  0  0
 25 24  1  0  0  0  0
 27 26  1  0  0  0  0
 28 27  1  0  0  0  0
 30 29  2  0  0  0  0
 30 28  1  0  0  0  0
 31 30  1  0  0  0  0
 33 32  1  1  0  0  0
 33 34  1  0  0  0  0
 33 35  1  0  0  0  0
 34 35  1  0  0  0  0
 35 31  1  6  0  0  0
M  END
>  <MODEL>
8

>  <REMARK>
 VINA RESULT:      -4.4      2.628      4.990
  Name = 
  11 active torsions:
  status: ('A' for Active; 'I' for Inactive)
    1  A    between atoms: C_1  and  C_20
    2  A    between atoms: C_1  and  C_25
    3  A    between atoms: C_4  and  C_26
    4  A    between atoms: C_9  and  O_14
    5  A    between atoms: N_11  and  C_20
    6  A    between atoms: N_11  and  C_33
    7  A    between atoms: O_14  and  C_23
    8  A    between atoms: C_16  and  O_29
    9  A    between atoms: C_21  and  N_30
   10  A    between atoms: C_25  and  O_29
   11  A    between atoms: N_30  and  C_33
                            x       y       z     vdW  Elec       q    Type
                         _______ _______ _______ _____ _____    ______ ____

>  <TORSDO>
F 11

$$$$
=
 OpenBabel11052409293D

 35 38  0  0  1  0  0  0  0  0999 V2000
  162.3980  212.2170  149.3230 O   0  0  0  0  0  0  0  0  0  0  0  0
  162.5550  211.9030  147.9420 C   0  0  0  0  0  2  0  0  0  0  0  0
  161.2650  211.9600  147.2650 N   0  0  0  0  0  2  0  0  0  0  0  0
  160.1330  212.1820  152.0650 C   0  0  0  0  0  0  0  0  0  0  0  0
  161.5500  211.4720  150.1480 C   0  0  0  0  0  0  0  0  0  0  0  0
  160.6960  214.1590  146.7560 O   0  0  0  0  0  0  0  0  0  0  0  0
  160.1740  211.0920  152.8440 C   0  0  0  0  0  3  0  0  0  0  0  0
  159.3020  213.0770  148.3850 C   0  0  1  0  0  3  0  0  0  0  0  0
  161.1090  209.3310  151.3680 C   0  0  0  0  0  0  0  0  0  0  0  0
  161.8940  210.2300  150.4890 C   0  0  0  0  0  3  0  0  0  0  0  0
  160.4230  213.1050  147.3900 C   0  0  0  0  0  0  0  0  0  0  0  0
  160.4040  209.7490  152.3840 N   0  0  0  0  0  0  0  0  0  0  0  0
  160.1480  214.3930  150.1560 O   0  0  0  0  0  0  0  0  0  0  0  0
  160.2320  212.0460  150.5710 C   0  0  2  0  0  3  0  0  0  0  0  0
  159.8540  213.2700  149.7690 C   0  0  0  0  0  0  0  0  0  0  0  0
  161.2360  207.8790  151.1650 C   0  0  0  0  0  0  0  0  0  0  0  0
  161.0300  207.2840  150.0170 O   0  0  0  0  0  0  0  0  0  0  0  0
  161.5700  205.7350  151.4760 C   0  0  0  0  0  3  0  0  0  0  0  0
  161.2200  205.9950  150.1620 C   0  0  0  0  0  3  0  0  0  0  0  0
  161.5810  206.9540  152.1310 C   0  0  0  0  0  3  0  0  0  0  0  0
  158.3360  214.0450  148.0920 O   0  0  0  0  0  0  0  0  0  0  0  0
  157.1440  213.3300  147.9590 C   0  0  0  0  0  2  0  0  0  0  0  0
  157.0770  212.7130  146.5780 C   0  0  0  0  0  1  0  0  0  0  0  0
  159.9760  213.4520  152.6380 O   0  0  0  0  0  0  0  0  0  0  0  0
  158.9230  213.7810  153.5340 C   0  0  0  0  0  2  0  0  0  0  0  0
  157.5910  213.4480  152.8910 C   0  0  0  0  0  2  0  0  0  0  0  0
  156.5670  213.0930  153.9570 C   0  0  0  0  0  2  0  0  0  0  0  0
  156.8310  211.7670  154.5010 N   0  0  0  0  0  2  0  0  0  0  0  0
  156.7400  212.1680  157.1490 S   0  0  0  0  0  0  0  0  0  0  0  0
  157.4000  211.5230  155.7950 C   0  0  0  0  0  0  0  0  0  0  0  0
  158.5440  210.6780  155.9230 N   0  0  0  0  0  2  0  0  0  0  0  0
  161.8930  211.3180  157.0600 O   0  0  0  0  0  1  0  0  0  0  0  0
  160.9250  210.6200  156.3420 C   0  0  1  0  0  3  0  0  0  0  0  0
  160.2620  209.6110  157.2530 C   0  0  0  0  0  2  0  0  0  0  0  0
  159.5600  210.9150  156.9340 C   0  0  2  0  0  3  0  0  0  0  0  0
  1  5  1  0  0  0  0
  2  1  1  0  0  0  0
  3 11  1  0  0  0  0
  3  2  1  0  0  0  0
  4 24  1  0  0  0  0
  4  7  2  0  0  0  0
  5 10  2  0  0  0  0
  5 14  1  0  0  0  0
  6 11  2  0  0  0  0
  8 21  1  6  0  0  0
  8 15  1  0  0  0  0
  9 12  2  0  0  0  0
 10  9  1  0  0  0  0
 11  8  1  0  0  0  0
 12  7  1  0  0  0  0
 14 15  1  6  0  0  0
 14  4  1  0  0  0  0
 15 13  2  0  0  0  0
 16  9  1  0  0  0  0
 16 20  2  0  0  0  0
 17 19  1  0  0  0  0
 17 16  1  0  0  0  0
 18 20  1  0  0  0  0
 19 18  2  0  0  0  0
 22 21  1  0  0  0  0
 23 22  1  0  0  0  0
 24 25  1  0  0  0  0
 26 25  1  0  0  0  0
 26 27  1  0  0  0  0
 27 28  1  0  0  0  0
 28 30  1  0  0  0  0
 30 31  1  0  0  0  0
 30 29  2  0  0  0  0
 33 35  1  0  0  0  0
 33 32  1  1  0  0  0
 33 34  1  0  0  0  0
 35 31  1  6  0  0  0
 35 34  1  0  0  0  0
M  END
>  <MODEL>
9

>  <REMARK>
 VINA RESULT:      -4.3      3.714      8.529
  Name = 
  11 active torsions:
  status: ('A' for Active; 'I' for Inactive)
    1  A    between atoms: C_1  and  C_20
    2  A    between atoms: C_1  and  C_25
    3  A    between atoms: C_4  and  C_26
    4  A    between atoms: C_9  and  O_14
    5  A    between atoms: N_11  and  C_20
    6  A    between atoms: N_11  and  C_33
    7  A    between atoms: O_14  and  C_23
    8  A    between atoms: C_16  and  O_29
    9  A    between atoms: C_21  and  N_30
   10  A    between atoms: C_25  and  O_29
   11  A    between atoms: N_30  and  C_33
                            x       y       z     vdW  Elec       q    Type
                         _______ _______ _______ _____ _____    ______ ____

>  <TORSDO>
F 11

$$$$
