=
 OpenBabel11052411233D

 41 45  0  0  1  0  0  0  0  0999 V2000
  160.8840  209.0580  153.8750 C   0  0  0  0  0  0  0  0  0  0  0  0
  161.3710  209.9640  151.6490 C   0  0  0  0  0  0  0  0  0  0  0  0
  161.6140  210.8530  155.4610 C   0  0  0  0  0  2  0  0  0  0  0  0
  162.0000  209.6900  156.3930 C   0  0  0  0  0  2  0  0  0  0  0  0
  160.4900  211.4860  153.3040 C   0  0  0  0  0  0  0  0  0  0  0  0
  159.5590  207.1760  154.8260 C   0  0  0  0  0  1  0  0  0  0  0  0
  160.6040  210.4510  154.3780 C   0  0  1  0  0  3  0  0  0  0  0  0
  161.9220  209.9450  150.4160 C   0  0  0  0  0  0  0  0  0  0  0  0
  160.8490  207.9700  154.9300 C   0  0  2  0  0  3  0  0  0  0  0  0
  162.6730  207.5280  150.0870 C   0  0  0  0  0  3  0  0  0  0  0  0
  161.4020  207.5290  157.2230 O   0  0  0  0  0  1  0  0  0  0  0  0
  161.2770  208.8110  152.6010 C   0  0  0  0  0  0  0  0  0  0  0  0
  160.9910  208.5380  156.3510 C   0  0  1  0  0  3  0  0  0  0  0  0
  162.6370  208.8170  149.7870 C   0  0  0  0  0  3  0  0  0  0  0  0
  161.4440  207.3930  152.2310 C   0  0  0  0  0  3  0  0  0  0  0  0
  161.9950  206.8250  151.1660 C   0  0  0  0  0  0  0  0  0  0  0  0
  159.9840  212.7780  153.6250 N   0  0  0  0  0  1  0  0  0  0  0  0
  160.8570  211.2320  152.0890 N   0  0  0  0  0  0  0  0  0  0  0  0
  161.8830  211.1670  149.6610 N   0  0  0  0  0  2  0  0  0  0  0  0
  160.7960  213.3530  149.6790 C   0  0  1  0  0  3  0  0  0  0  0  0
  160.5130  211.8320  147.7840 C   0  0  0  0  0  2  0  0  0  0  0  0
  159.5570  213.8260  150.1150 O   0  0  0  0  0  1  0  0  0  0  0  0
  160.6660  211.8780  149.2930 C   0  0  1  0  0  3  0  0  0  0  0  0
  160.9660  213.1670  147.3200 C   0  0  0  0  0  0  0  0  0  0  0  0
  161.0830  213.5210  146.0370 C   0  0  0  0  0  3  0  0  0  0  0  0
  161.2150  214.1150  148.4330 C   0  0  2  0  0  3  0  0  0  0  0  0
  162.6940  214.4530  148.5210 C   0  0  0  0  0  1  0  0  0  0  0  0
  160.8610  212.6050  144.9040 C   0  0  0  0  0  3  0  0  0  0  0  0
  159.7030  212.4000  144.2600 C   0  0  0  0  0  3  0  0  0  0  0  0
  157.6630  212.5770  145.6600 C   0  0  0  0  0  2  0  0  0  0  0  0
  158.3690  212.9390  144.5950 C   0  0  0  0  0  3  0  0  0  0  0  0
  162.0240  205.3330  151.1130 C   0  0  0  0  0  2  0  0  0  0  0  0
  160.2870  203.6380  151.2590 N   0  0  0  0  0  0  0  0  0  0  0  0
  160.7610  204.7680  150.4690 C   0  0  2  0  0  3  0  0  0  0  0  0
  160.3050  202.5590  150.5850 N   0  0  0  0  0  0  0  0  0  0  0  0
  160.7810  202.8220  149.2760 C   0  0  0  0  0  0  0  0  0  0  0  0
  161.0630  204.1140  149.1570 C   0  0  0  0  0  0  0  0  0  0  0  0
  161.5180  204.8160  147.9210 C   0  0  0  0  0  1  0  0  0  0  0  0
  160.3980  201.9550  147.0910 O   0  0  0  0  0  0  0  0  0  0  0  0
  160.8900  201.7820  148.2370 C   0  0  0  0  0  0  0  0  0  0  0  0
  161.5560  200.5590  148.5310 N   0  0  0  0  0  1  0  0  0  0  0  0
  1  7  1  0  0  0  0
  1  9  1  0  0  0  0
  2 18  1  0  0  0  0
  2 12  1  0  0  0  0
  3  4  1  0  0  0  0
  5 17  1  0  0  0  0
  5  7  1  0  0  0  0
  7  3  1  1  0  0  0
  8  2  2  0  0  0  0
  9  6  1  1  0  0  0
  9 13  1  0  0  0  0
 10 16  1  0  0  0  0
 12  1  2  0  0  0  0
 13  4  1  0  0  0  0
 13 11  1  1  0  0  0
 14 10  2  0  0  0  0
 14  8  1  0  0  0  0
 15 12  1  0  0  0  0
 16 15  2  0  0  0  0
 18  5  2  0  0  0  0
 19  8  1  0  0  0  0
 20 22  1  6  0  0  0
 21 23  1  0  0  0  0
 23 19  1  6  0  0  0
 23 20  1  0  0  0  0
 24 21  1  0  0  0  0
 24 26  1  0  0  0  0
 25 24  2  0  0  0  0
 26 27  1  1  0  0  0
 26 20  1  0  0  0  0
 28 25  1  0  0  0  0
 29 31  1  0  0  0  0
 29 28  2  0  0  0  0
 31 30  2  0  0  0  0
 32 16  1  0  0  0  0
 34 32  1  1  0  0  0
 34 33  1  0  0  0  0
 35 33  2  0  0  0  0
 36 35  1  0  0  0  0
 37 36  2  0  0  0  0
 37 34  1  0  0  0  0
 38 37  1  0  0  0  0
 39 40  2  0  0  0  0
 40 41  1  0  0  0  0
 40 36  1  0  0  0  0
M  END
>  <MODEL>
1

>  <REMARK>
 VINA RESULT:      -7.2      0.000      0.000
  Name = 
  7 active torsions:
  status: ('A' for Active; 'I' for Inactive)
    1  A    between atoms: C_10  and  C_25
    2  A    between atoms: C_12  and  C_17
    3  A    between atoms: C_16  and  N_21
    4  A    between atoms: N_21  and  C_23
    5  A    between atoms: C_25  and  C_37
    6  A    between atoms: C_32  and  C_35
    7  A    between atoms: C_34  and  C_38
                            x       y       z     vdW  Elec       q    Type
                         _______ _______ _______ _____ _____    ______ ____

>  <TORSDO>
F 7

$$$$
=
 OpenBabel11052411233D

 41 45  0  0  1  0  0  0  0  0999 V2000
  161.1790  206.2000  148.5540 C   0  0  0  0  0  0  0  0  0  0  0  0
  161.3920  207.1600  150.8010 C   0  0  0  0  0  0  0  0  0  0  0  0
  161.9790  203.8390  148.7980 C   0  0  0  0  0  2  0  0  0  0  0  0
  162.5140  204.0120  147.3650 C   0  0  0  0  0  2  0  0  0  0  0  0
  160.6110  204.8810  150.6310 C   0  0  0  0  0  0  0  0  0  0  0  0
  160.0520  206.7990  146.4160 C   0  0  0  0  0  1  0  0  0  0  0  0
  160.8850  204.8510  149.1610 C   0  0  0  0  0  0  0  0  0  0  0  0
  161.8140  208.0690  151.7060 C   0  0  2  0  0  3  0  0  0  0  0  0
  161.3060  206.2160  147.0430 C   0  0  2  0  0  3  0  0  0  0  0  0
  162.6450  210.0320  150.3010 C   0  0  0  0  0  3  0  0  0  0  0  0
  162.1100  204.9210  145.1910 O   0  0  0  0  0  1  0  0  0  0  0  0
  161.4520  207.2920  149.3100 C   0  0  0  0  0  0  0  0  0  0  0  0
  161.5640  204.8130  146.4700 C   0  0  1  0  0  3  0  0  0  0  0  0
  162.5160  209.3360  151.4210 C   0  0  0  0  0  3  0  0  0  0  0  0
  161.6500  208.5600  148.5800 C   0  0  0  0  0  3  0  0  0  0  0  0
  162.1160  209.7360  148.9780 C   0  0  0  0  0  0  0  0  0  0  0  0
  160.0780  203.7250  151.2690 N   0  0  0  0  0  1  0  0  0  0  0  0
  160.8640  205.9360  151.3380 N   0  0  0  0  0  0  0  0  0  0  0  0
  161.6390  207.7440  153.0940 N   0  0  0  0  0  2  0  0  0  0  0  0
  160.9410  208.4070  155.3380 C   0  0  1  0  0  3  0  0  0  0  0  0
  159.9380  209.4410  153.3590 C   0  0  0  0  0  2  0  0  0  0  0  0
  159.9490  207.9790  156.2200 O   0  0  0  0  0  1  0  0  0  0  0  0
  160.4910  208.1360  153.9010 C   0  0  1  0  0  3  0  0  0  0  0  0
  160.4500  210.4790  154.2900 C   0  0  0  0  0  0  0  0  0  0  0  0
  160.2760  211.7920  154.1240 C   0  0  0  0  0  3  0  0  0  0  0  0
  161.1260  209.9090  155.4810 C   0  0  2  0  0  3  0  0  0  0  0  0
  162.6090  210.2400  155.4570 C   0  0  0  0  0  1  0  0  0  0  0  0
  159.6250  212.3980  152.9490 C   0  0  0  0  0  3  0  0  0  0  0  0
  158.4290  213.0030  152.9230 C   0  0  0  0  0  3  0  0  0  0  0  0
  156.6910  212.0920  154.4410 C   0  0  0  0  0  2  0  0  0  0  0  0
  157.4380  213.1030  154.0140 C   0  0  0  0  0  3  0  0  0  0  0  0
  162.2120  210.8240  147.9610 C   0  0  0  0  0  2  0  0  0  0  0  0
  160.8800  212.0100  149.6130 N   0  0  0  0  0  0  0  0  0  0  0  0
  161.8720  212.1860  148.5600 C   0  0  2  0  0  3  0  0  0  0  0  0
  159.7940  212.6110  149.3340 N   0  0  0  0  0  0  0  0  0  0  0  0
  159.9180  213.2620  148.0800 C   0  0  0  0  0  0  0  0  0  0  0  0
  161.1290  213.0420  147.5830 C   0  0  0  0  0  0  0  0  0  0  0  0
  161.6900  213.6090  146.3210 C   0  0  0  0  0  1  0  0  0  0  0  0
  158.8970  214.4530  146.2870 O   0  0  0  0  0  0  0  0  0  0  0  0
  158.8410  214.0760  147.4880 C   0  0  0  0  0  0  0  0  0  0  0  0
  157.7200  214.4490  148.2830 N   0  0  0  0  0  1  0  0  0  0  0  0
  1  7  2  0  0  0  0
  1 12  1  0  0  0  0
  2 18  1  0  0  0  0
  2  8  1  0  0  0  0
  3  7  1  0  0  0  0
  4  3  1  0  0  0  0
  5 17  1  0  0  0  0
  5 18  2  0  0  0  0
  7  5  1  0  0  0  0
  8 19  1  1  0  0  0
  9  6  1  6  0  0  0
  9  1  1  0  0  0  0
 10 14  2  0  0  0  0
 12  2  2  0  0  0  0
 13 11  1  6  0  0  0
 13  9  1  0  0  0  0
 13  4  1  0  0  0  0
 14  8  1  0  0  0  0
 15 16  2  0  0  0  0
 15 12  1  0  0  0  0
 16 10  1  0  0  0  0
 20 26  1  0  0  0  0
 20 22  1  1  0  0  0
 21 23  1  0  0  0  0
 21 24  1  0  0  0  0
 23 19  1  6  0  0  0
 23 20  1  0  0  0  0
 24 26  1  0  0  0  0
 25 24  2  0  0  0  0
 26 27  1  6  0  0  0
 28 25  1  0  0  0  0
 29 28  2  0  0  0  0
 29 31  1  0  0  0  0
 31 30  2  0  0  0  0
 32 16  1  0  0  0  0
 34 32  1  6  0  0  0
 34 33  1  0  0  0  0
 35 33  2  0  0  0  0
 36 35  1  0  0  0  0
 37 36  2  0  0  0  0
 37 34  1  0  0  0  0
 38 37  1  0  0  0  0
 39 40  2  0  0  0  0
 40 36  1  0  0  0  0
 40 41  1  0  0  0  0
M  END
>  <MODEL>
2

>  <REMARK>
 VINA RESULT:      -5.9      2.083      8.264
  Name = 
  7 active torsions:
  status: ('A' for Active; 'I' for Inactive)
    1  A    between atoms: C_10  and  C_25
    2  A    between atoms: C_12  and  C_17
    3  A    between atoms: C_16  and  N_21
    4  A    between atoms: N_21  and  C_23
    5  A    between atoms: C_25  and  C_37
    6  A    between atoms: C_32  and  C_35
    7  A    between atoms: C_34  and  C_38
                            x       y       z     vdW  Elec       q    Type
                         _______ _______ _______ _____ _____    ______ ____

>  <TORSDO>
F 7

$$$$
=
 OpenBabel11052411233D

 41 45  0  0  1  0  0  0  0  0999 V2000
  160.9580  212.0230  149.0110 C   0  0  0  0  0  0  0  0  0  0  0  0
  161.0910  210.9390  151.2070 C   0  0  0  0  0  0  0  0  0  0  0  0
  158.9110  213.4590  149.1380 C   0  0  0  0  0  2  0  0  0  0  0  0
  158.7450  213.1250  147.6440 C   0  0  0  0  0  2  0  0  0  0  0  0
  160.4100  213.2560  151.1450 C   0  0  0  0  0  0  0  0  0  0  0  0
  162.4580  212.3580  147.0520 C   0  0  0  0  0  1  0  0  0  0  0  0
  160.3400  213.2400  149.6510 C   0  0  0  0  0  0  0  0  0  0  0  0
  161.1780  209.8840  152.0450 C   0  0  2  0  0  3  0  0  0  0  0  0
  161.0380  212.0580  147.4970 C   0  0  2  0  0  3  0  0  0  0  0  0
  161.8140  207.9220  150.5420 C   0  0  0  0  0  3  0  0  0  0  0  0
  159.8470  212.7940  145.5490 O   0  0  0  0  0  1  0  0  0  0  0  0
  161.2890  210.9160  149.7220 C   0  0  0  0  0  0  0  0  0  0  0  0
  160.0780  213.0940  146.8920 C   0  0  1  0  0  3  0  0  0  0  0  0
  161.3840  208.4720  151.6670 C   0  0  0  0  0  3  0  0  0  0  0  0
  161.9520  209.8310  148.9740 C   0  0  0  0  0  3  0  0  0  0  0  0
  162.2170  208.5750  149.3050 C   0  0  0  0  0  0  0  0  0  0  0  0
  160.0920  214.4510  151.8490 N   0  0  0  0  0  1  0  0  0  0  0  0
  160.7410  212.1960  151.8110 N   0  0  0  0  0  0  0  0  0  0  0  0
  160.9710  210.1390  153.4440 N   0  0  0  0  0  2  0  0  0  0  0  0
  160.4620  209.0630  155.5770 C   0  0  1  0  0  3  0  0  0  0  0  0
  158.8950  210.6510  154.5720 C   0  0  0  0  0  2  0  0  0  0  0  0
  159.8000  207.8930  155.9480 O   0  0  0  0  0  1  0  0  0  0  0  0
  159.8990  209.5610  154.2440 C   0  0  1  0  0  3  0  0  0  0  0  0
  159.2020  211.0350  155.9730 C   0  0  0  0  0  0  0  0  0  0  0  0
  158.6100  212.0360  156.6280 C   0  0  0  0  0  3  0  0  0  0  0  0
  160.1980  210.1420  156.6140 C   0  0  2  0  0  3  0  0  0  0  0  0
  161.4850  210.8990  156.8960 C   0  0  0  0  0  1  0  0  0  0  0  0
  157.6290  212.9550  156.0220 C   0  0  0  0  0  3  0  0  0  0  0  0
  156.3060  212.7600  155.9290 C   0  0  0  0  0  3  0  0  0  0  0  0
  155.4610  210.4600  155.5440 C   0  0  0  0  0  2  0  0  0  0  0  0
  155.5380  211.5530  156.2940 C   0  0  0  0  0  3  0  0  0  0  0  0
  162.8910  207.7160  148.2860 C   0  0  0  0  0  2  0  0  0  0  0  0
  160.6170  206.8670  148.1480 N   0  0  0  0  0  0  0  0  0  0  0  0
  161.8780  206.9670  147.4240 C   0  0  2  0  0  3  0  0  0  0  0  0
  160.3080  205.6550  148.3790 N   0  0  0  0  0  0  0  0  0  0  0  0
  161.3050  204.7980  147.8450 C   0  0  0  0  0  0  0  0  0  0  0  0
  162.2530  205.5260  147.2690 C   0  0  0  0  0  0  0  0  0  0  0  0
  163.4410  205.0130  146.5230 C   0  0  0  0  0  1  0  0  0  0  0  0
  161.1900  202.6260  146.8740 O   0  0  0  0  0  0  0  0  0  0  0  0
  161.2240  203.3290  147.9190 C   0  0  0  0  0  0  0  0  0  0  0  0
  161.1760  202.6880  149.1900 N   0  0  0  0  0  1  0  0  0  0  0  0
  1  7  2  0  0  0  0
  1 12  1  0  0  0  0
  2 18  1  0  0  0  0
  2  8  1  0  0  0  0
  3  7  1  0  0  0  0
  4  3  1  0  0  0  0
  5 18  2  0  0  0  0
  5 17  1  0  0  0  0
  7  5  1  0  0  0  0
  8 19  1  6  0  0  0
  9  6  1  1  0  0  0
  9  1  1  0  0  0  0
 10 14  2  0  0  0  0
 12  2  2  0  0  0  0
 13 11  1  6  0  0  0
 13  9  1  0  0  0  0
 13  4  1  0  0  0  0
 14  8  1  0  0  0  0
 15 16  2  0  0  0  0
 15 12  1  0  0  0  0
 16 10  1  0  0  0  0
 20 22  1  1  0  0  0
 20 26  1  0  0  0  0
 21 24  1  0  0  0  0
 23 19  1  6  0  0  0
 23 21  1  0  0  0  0
 23 20  1  0  0  0  0
 24 26  1  0  0  0  0
 24 25  2  0  0  0  0
 26 27  1  6  0  0  0
 28 25  1  0  0  0  0
 29 28  2  0  0  0  0
 29 31  1  0  0  0  0
 30 31  2  0  0  0  0
 32 16  1  0  0  0  0
 33 35  2  0  0  0  0
 34 33  1  0  0  0  0
 34 32  1  1  0  0  0
 36 40  1  0  0  0  0
 36 35  1  0  0  0  0
 37 34  1  0  0  0  0
 37 36  2  0  0  0  0
 38 37  1  0  0  0  0
 39 40  2  0  0  0  0
 40 41  1  0  0  0  0
M  END
>  <MODEL>
3

>  <REMARK>
 VINA RESULT:      -5.7      2.435      6.880
  Name = 
  7 active torsions:
  status: ('A' for Active; 'I' for Inactive)
    1  A    between atoms: C_10  and  C_25
    2  A    between atoms: C_12  and  C_17
    3  A    between atoms: C_16  and  N_21
    4  A    between atoms: N_21  and  C_23
    5  A    between atoms: C_25  and  C_37
    6  A    between atoms: C_32  and  C_35
    7  A    between atoms: C_34  and  C_38
                            x       y       z     vdW  Elec       q    Type
                         _______ _______ _______ _____ _____    ______ ____

>  <TORSDO>
F 7

$$$$
=
 OpenBabel11052411233D

 41 45  0  0  1  0  0  0  0  0999 V2000
  161.7560  209.0420  152.7110 C   0  0  0  0  0  0  0  0  0  0  0  0
  161.7840  207.6740  150.6760 C   0  0  0  0  0  0  0  0  0  0  0  0
  160.0380  207.9590  154.1770 C   0  0  0  0  0  2  0  0  0  0  0  0
  159.7340  209.3900  154.6540 C   0  0  0  0  0  2  0  0  0  0  0  0
  161.5680  206.5250  152.7900 C   0  0  0  0  0  0  0  0  0  0  0  0
  163.1910  210.7920  153.7510 C   0  0  0  0  0  1  0  0  0  0  0  0
  161.4210  207.8190  153.5270 C   0  0  1  0  0  3  0  0  0  0  0  0
  161.7060  207.4620  149.3450 C   0  0  0  0  0  0  0  0  0  0  0  0
  161.7640  210.3500  153.4790 C   0  0  2  0  0  3  0  0  0  0  0  0
  161.8680  209.7930  148.3170 C   0  0  0  0  0  3  0  0  0  0  0  0
  160.6430  211.5200  155.2480 O   0  0  0  0  0  1  0  0  0  0  0  0
  161.8990  209.0000  151.3630 C   0  0  0  0  0  0  0  0  0  0  0  0
  160.9960  210.2450  154.8060 C   0  0  1  0  0  3  0  0  0  0  0  0
  161.6120  208.4940  148.2930 C   0  0  0  0  0  3  0  0  0  0  0  0
  162.2980  210.2600  150.7080 C   0  0  0  0  0  3  0  0  0  0  0  0
  162.3290  210.6100  149.4290 C   0  0  0  0  0  0  0  0  0  0  0  0
  161.5260  205.2990  153.5120 N   0  0  0  0  0  1  0  0  0  0  0  0
  161.7180  206.5000  151.5040 N   0  0  0  0  0  0  0  0  0  0  0  0
  161.6240  206.0990  148.9000 N   0  0  0  0  0  2  0  0  0  0  0  0
  161.4570  205.7140  146.4950 C   0  0  1  0  0  3  0  0  0  0  0  0
  160.4470  204.1510  148.0840 C   0  0  0  0  0  2  0  0  0  0  0  0
  160.5370  206.0710  145.5090 O   0  0  0  0  0  1  0  0  0  0  0  0
  160.7420  205.6200  147.8440 C   0  0  1  0  0  3  0  0  0  0  0  0
  161.3310  203.4320  147.1320 C   0  0  0  0  0  0  0  0  0  0  0  0
  161.4590  202.1040  147.0780 C   0  0  0  0  0  3  0  0  0  0  0  0
  162.0210  204.3380  146.1820 C   0  0  2  0  0  3  0  0  0  0  0  0
  163.5190  204.3350  146.4400 C   0  0  0  0  0  1  0  0  0  0  0  0
  160.8040  201.1710  148.0120 C   0  0  0  0  0  3  0  0  0  0  0  0
  160.8480  201.2220  149.3510 C   0  0  0  0  0  3  0  0  0  0  0  0
  161.2080  202.6650  151.3360 C   0  0  0  0  0  2  0  0  0  0  0  0
  161.6420  202.1330  150.2000 C   0  0  0  0  0  3  0  0  0  0  0  0
  162.7680  211.9990  149.1010 C   0  0  0  0  0  2  0  0  0  0  0  0
  160.4530  212.0030  148.3610 N   0  0  0  0  0  0  0  0  0  0  0  0
  161.6030  212.8600  148.6210 C   0  0  2  0  0  3  0  0  0  0  0  0
  160.1100  212.0430  147.1360 N   0  0  0  0  0  0  0  0  0  0  0  0
  160.9700  212.9210  146.4290 C   0  0  0  0  0  0  0  0  0  0  0  0
  161.8680  213.4300  147.2630 C   0  0  0  0  0  0  0  0  0  0  0  0
  162.9070  214.4520  146.9380 C   0  0  0  0  0  1  0  0  0  0  0  0
  161.7360  212.9470  144.1730 O   0  0  0  0  0  0  0  0  0  0  0  0
  160.8160  213.2110  144.9920 C   0  0  0  0  0  0  0  0  0  0  0  0
  159.6120  213.8050  144.5170 N   0  0  0  0  0  1  0  0  0  0  0  0
  1  9  1  0  0  0  0
  1  7  1  0  0  0  0
  2 12  1  0  0  0  0
  2 18  1  0  0  0  0
  3  4  1  0  0  0  0
  4 13  1  0  0  0  0
  5 17  1  0  0  0  0
  5  7  1  0  0  0  0
  7  3  1  6  0  0  0
  8  2  2  0  0  0  0
  9  6  1  1  0  0  0
  9 13  1  0  0  0  0
 10 16  1  0  0  0  0
 12  1  2  0  0  0  0
 13 11  1  6  0  0  0
 14 10  2  0  0  0  0
 14  8  1  0  0  0  0
 15 12  1  0  0  0  0
 16 15  2  0  0  0  0
 18  5  2  0  0  0  0
 19  8  1  0  0  0  0
 20 22  1  6  0  0  0
 20 23  1  0  0  0  0
 23 21  1  0  0  0  0
 23 19  1  1  0  0  0
 24 21  1  0  0  0  0
 25 24  2  0  0  0  0
 25 28  1  0  0  0  0
 26 27  1  1  0  0  0
 26 20  1  0  0  0  0
 26 24  1  0  0  0  0
 28 29  2  0  0  0  0
 29 31  1  0  0  0  0
 31 30  2  0  0  0  0
 32 16  1  0  0  0  0
 33 34  1  0  0  0  0
 34 32  1  6  0  0  0
 35 33  2  0  0  0  0
 36 35  1  0  0  0  0
 36 37  2  0  0  0  0
 37 34  1  0  0  0  0
 38 37  1  0  0  0  0
 39 40  2  0  0  0  0
 40 36  1  0  0  0  0
 41 40  1  0  0  0  0
M  END
>  <MODEL>
4

>  <REMARK>
 VINA RESULT:      -5.3      2.476      8.007
  Name = 
  7 active torsions:
  status: ('A' for Active; 'I' for Inactive)
    1  A    between atoms: C_10  and  C_25
    2  A    between atoms: C_12  and  C_17
    3  A    between atoms: C_16  and  N_21
    4  A    between atoms: N_21  and  C_23
    5  A    between atoms: C_25  and  C_37
    6  A    between atoms: C_32  and  C_35
    7  A    between atoms: C_34  and  C_38
                            x       y       z     vdW  Elec       q    Type
                         _______ _______ _______ _____ _____    ______ ____

>  <TORSDO>
F 7

$$$$
=
 OpenBabel11052411233D

 41 45  0  0  1  0  0  0  0  0999 V2000
  161.4580  208.7060  152.9320 C   0  0  0  0  0  0  0  0  0  0  0  0
  161.1240  206.8020  151.4230 C   0  0  0  0  0  0  0  0  0  0  0  0
  159.7490  208.3920  154.7350 C   0  0  0  0  0  2  0  0  0  0  0  0
  159.6820  209.9290  154.7570 C   0  0  0  0  0  2  0  0  0  0  0  0
  160.9450  206.3900  153.7970 C   0  0  0  0  0  0  0  0  0  0  0  0
  163.2000  210.4450  153.3140 C   0  0  0  0  0  1  0  0  0  0  0  0
  161.0370  207.8520  154.1010 C   0  0  1  0  0  3  0  0  0  0  0  0
  160.9010  206.2150  150.2280 C   0  0  0  0  0  0  0  0  0  0  0  0
  161.7090  210.1670  153.2550 C   0  0  2  0  0  3  0  0  0  0  0  0
  161.2800  208.0740  148.5210 C   0  0  0  0  0  3  0  0  0  0  0  0
  160.9150  211.9730  154.6200 O   0  0  0  0  0  1  0  0  0  0  0  0
  161.4750  208.2390  151.6590 C   0  0  0  0  0  0  0  0  0  0  0  0
  161.0540  210.5860  154.5810 C   0  0  1  0  0  3  0  0  0  0  0  0
  160.8530  206.8840  148.9130 C   0  0  0  0  0  3  0  0  0  0  0  0
  161.9780  209.1670  150.6280 C   0  0  0  0  0  3  0  0  0  0  0  0
  161.9420  209.1070  149.3040 C   0  0  0  0  0  0  0  0  0  0  0  0
  160.8050  205.4590  154.8650 N   0  0  0  0  0  1  0  0  0  0  0  0
  160.9760  205.9570  152.5770 N   0  0  0  0  0  0  0  0  0  0  0  0
  160.5990  204.8100  150.2330 N   0  0  0  0  0  2  0  0  0  0  0  0
  160.9540  202.4010  150.4150 C   0  0  1  0  0  3  0  0  0  0  0  0
  161.9490  203.6770  148.5790 C   0  0  0  0  0  2  0  0  0  0  0  0
  161.9150  201.5980  151.0290 O   0  0  0  0  0  1  0  0  0  0  0  0
  161.5800  203.7480  150.0500 C   0  0  1  0  0  3  0  0  0  0  0  0
  161.1800  202.5200  148.0560 C   0  0  0  0  0  0  0  0  0  0  0  0
  161.1400  202.1590  146.7710 C   0  0  0  0  0  3  0  0  0  0  0  0
  160.5000  201.7440  149.1220 C   0  0  2  0  0  3  0  0  0  0  0  0
  158.9910  201.8720  148.9910 C   0  0  0  0  0  1  0  0  0  0  0  0
  161.7870  202.9110  145.6810 C   0  0  0  0  0  3  0  0  0  0  0  0
  161.5100  204.1680  145.3060 C   0  0  0  0  0  3  0  0  0  0  0  0
  160.1050  206.2120  145.2530 C   0  0  0  0  0  2  0  0  0  0  0  0
  160.4320  205.0480  145.8020 C   0  0  0  0  0  3  0  0  0  0  0  0
  162.5320  210.2480  148.5410 C   0  0  0  0  0  2  0  0  0  0  0  0
  160.4230  211.1780  147.7670 N   0  0  0  0  0  0  0  0  0  0  0  0
  161.6150  211.4680  148.5550 C   0  0  2  0  0  3  0  0  0  0  0  0
  160.3280  211.9550  146.7640 N   0  0  0  0  0  0  0  0  0  0  0  0
  161.4240  212.8560  146.7530 C   0  0  0  0  0  0  0  0  0  0  0  0
  162.2120  212.6090  147.7930 C   0  0  0  0  0  0  0  0  0  0  0  0
  163.4300  213.3760  148.1900 C   0  0  0  0  0  1  0  0  0  0  0  0
  160.5880  214.4530  145.1970 O   0  0  0  0  0  0  0  0  0  0  0  0
  161.5890  213.9080  145.7350 C   0  0  0  0  0  0  0  0  0  0  0  0
  162.8960  214.3140  145.3440 N   0  0  0  0  0  1  0  0  0  0  0  0
  1  9  1  0  0  0  0
  1  7  1  0  0  0  0
  2 12  1  0  0  0  0
  2 18  1  0  0  0  0
  3  4  1  0  0  0  0
  5  7  1  0  0  0  0
  5 17  1  0  0  0  0
  7  3  1  6  0  0  0
  8 19  1  0  0  0  0
  8  2  2  0  0  0  0
  9  6  1  1  0  0  0
  9 13  1  0  0  0  0
 10 14  2  0  0  0  0
 10 16  1  0  0  0  0
 12  1  2  0  0  0  0
 13 11  1  6  0  0  0
 13  4  1  0  0  0  0
 14  8  1  0  0  0  0
 15 12  1  0  0  0  0
 16 15  2  0  0  0  0
 18  5  2  0  0  0  0
 20 22  1  6  0  0  0
 21 23  1  0  0  0  0
 23 19  1  6  0  0  0
 23 20  1  0  0  0  0
 24 21  1  0  0  0  0
 24 26  1  0  0  0  0
 25 24  2  0  0  0  0
 26 27  1  6  0  0  0
 26 20  1  0  0  0  0
 28 25  1  0  0  0  0
 29 28  2  0  0  0  0
 29 31  1  0  0  0  0
 30 31  2  0  0  0  0
 32 16  1  0  0  0  0
 33 34  1  0  0  0  0
 34 32  1  6  0  0  0
 35 33  2  0  0  0  0
 36 35  1  0  0  0  0
 36 37  2  0  0  0  0
 37 38  1  0  0  0  0
 37 34  1  0  0  0  0
 39 40  2  0  0  0  0
 40 36  1  0  0  0  0
 41 40  1  0  0  0  0
M  END
>  <MODEL>
5

>  <REMARK>
 VINA RESULT:      -4.5      2.479      7.953
  Name = 
  7 active torsions:
  status: ('A' for Active; 'I' for Inactive)
    1  A    between atoms: C_10  and  C_25
    2  A    between atoms: C_12  and  C_17
    3  A    between atoms: C_16  and  N_21
    4  A    between atoms: N_21  and  C_23
    5  A    between atoms: C_25  and  C_37
    6  A    between atoms: C_32  and  C_35
    7  A    between atoms: C_34  and  C_38
                            x       y       z     vdW  Elec       q    Type
                         _______ _______ _______ _____ _____    ______ ____

>  <TORSDO>
F 7

$$$$
