=
 OpenBabel11042421033D

 36 39  0  0  1  0  0  0  0  0999 V2000
  160.7990  203.8650  151.0050 C   0  0  0  0  0  3  0  0  0  0  0  0
  161.1130  208.3980  153.4740 N   0  0  0  0  0  0  0  0  0  0  0  0
  161.0560  203.3380  149.8110 C   0  0  0  0  0  3  0  0  0  0  0  0
  161.6630  204.2390  147.4460 C   0  0  0  0  0  1  0  0  0  0  0  0
  160.7090  205.3580  150.9100 C   0  0  1  0  0  3  0  0  0  0  0  0
  161.2000  204.4210  148.8510 C   0  0  0  0  0  0  0  0  0  0  0  0
  161.8950  207.5610  151.3840 C   0  0  2  0  0  3  0  0  0  0  0  0
  161.5890  207.2310  155.4850 N   0  0  0  0  0  2  0  0  0  0  0  0
  161.7550  207.9020  149.9770 N   0  0  0  0  0  0  0  0  0  0  0  0
  161.2820  209.2810  149.8840 C   0  0  1  0  0  3  0  0  0  0  0  0
  161.3750  205.9490  153.3000 C   0  0  0  0  0  2  0  0  0  0  0  0
  161.4010  207.2010  147.7690 O   0  0  0  0  0  0  0  0  0  0  0  0
  161.4060  206.9160  148.9970 C   0  0  0  0  0  0  0  0  0  0  0  0
  161.3560  207.2630  154.0770 C   0  0  0  0  0  0  0  0  0  0  0  0
  161.7350  206.0790  151.7920 C   0  0  1  0  0  3  0  0  0  0  0  0
  160.9630  209.7100  151.3300 C   0  0  0  0  0  2  0  0  0  0  0  0
  161.0500  205.5760  149.4790 C   0  0  0  0  0  0  0  0  0  0  0  0
  160.8440  208.3840  152.0480 C   0  0  2  0  0  3  0  0  0  0  0  0
  162.0540  211.3150  148.7950 C   0  0  0  0  0  0  0  0  0  0  0  0
  162.3460  210.1460  149.2950 C   0  0  0  0  0  3  0  0  0  0  0  0
  161.7590  212.4880  148.2940 C   0  0  0  0  0  0  0  0  0  0  0  0
  162.9760  212.9870  146.3140 O   0  0  0  0  0  0  0  0  0  0  0  0
  160.7210  212.8880  144.5990 C   0  0  0  0  0  1  0  0  0  0  0  0
  161.8600  212.7270  146.8430 C   0  0  0  0  0  0  0  0  0  0  0  0
  160.6830  212.6620  146.0340 N   0  0  0  0  0  2  0  0  0  0  0  0
  161.3290  213.5480  149.1520 N   0  0  0  0  0  2  0  0  0  0  0  0
  160.4750  213.3300  150.1810 O   0  0  0  0  0  1  0  0  0  0  0  0
  161.5830  208.4330  156.3050 C   0  0  0  0  0  2  0  0  0  0  0  0
  160.1570  208.8990  156.5440 C   0  0  0  0  0  2  0  0  0  0  0  0
  161.3110  210.9560  156.1850 O   0  0  0  0  0  1  0  0  0  0  0  0
  160.0410  210.4120  156.3960 C   0  0  1  0  0  3  0  0  0  0  0  0
  159.1260  210.7580  155.2240 C   0  0  1  0  0  3  0  0  0  0  0  0
  157.7890  210.7270  155.6280 O   0  0  0  0  0  1  0  0  0  0  0  0
  159.1050  213.1390  155.3240 O   0  0  0  0  0  1  0  0  0  0  0  0
  159.4440  212.1130  154.6810 C   0  0  0  0  0  0  0  0  0  0  0  0
  160.1040  212.2470  153.4650 O   0  0  0  0  0  0  0  0  0  0  0  0
  2 14  2  0  0  0  0
  3  1  2  0  0  0  0
  4  6  1  0  0  0  0
  5  1  1  1  0  0  0
  5 15  1  0  0  0  0
  6 17  2  0  0  0  0
  6  3  1  0  0  0  0
  7  9  1  6  0  0  0
  7 15  1  0  0  0  0
  7 18  1  0  0  0  0
  8 28  1  0  0  0  0
 10 20  1  1  0  0  0
 10  9  1  0  0  0  0
 10 16  1  0  0  0  0
 11 14  1  0  0  0  0
 12 13  2  0  0  0  0
 13 17  1  0  0  0  0
 13  9  1  0  0  0  0
 14  8  1  0  0  0  0
 15 11  1  1  0  0  0
 17  5  1  0  0  0  0
 18 16  1  6  0  0  0
 18  2  1  0  0  0  0
 19 20  2  0  0  0  0
 21 19  2  0  0  0  0
 21 26  1  0  0  0  0
 22 24  2  0  0  0  0
 23 25  1  0  0  0  0
 24 21  1  0  0  0  0
 25 24  1  0  0  0  0
 26 27  1  0  0  0  0
 28 29  1  0  0  0  0
 31 30  1  6  0  0  0
 31 29  1  0  0  0  0
 32 33  1  1  0  0  0
 32 31  1  0  0  0  0
 35 32  1  0  0  0  0
 35 34  1  0  0  0  0
 36 35  2  0  0  0  0
M  END
>  <MODEL>
1

>  <REMARK>
 VINA RESULT:      -8.2      0.000      0.000
  Name = 
  8 active torsions:
  status: ('A' for Active; 'I' for Inactive)
    1  A    between atoms: C_6  and  C_12
    2  A    between atoms: C_12  and  C_34
    3  A    between atoms: C_13  and  N_15
    4  A    between atoms: C_13  and  C_20
    5  A    between atoms: C_17  and  C_24
    6  A    between atoms: N_19  and  C_26
    7  A    between atoms: C_20  and  C_34
    8  A    between atoms: C_22  and  C_26
                            x       y       z     vdW  Elec       q    Type
                         _______ _______ _______ _____ _____    ______ ____

>  <TORSDO>
F 8

$$$$
=
 OpenBabel11042421033D

 36 39  0  0  1  0  0  0  0  0999 V2000
  161.1190  208.8400  153.2740 C   0  0  0  0  0  3  0  0  0  0  0  0
  161.8910  209.9170  148.2750 N   0  0  0  0  0  0  0  0  0  0  0  0
  161.1020  207.7960  154.0980 C   0  0  0  0  0  3  0  0  0  0  0  0
  161.1140  205.2050  153.8540 C   0  0  0  0  0  1  0  0  0  0  0  0
  160.9730  208.3880  151.8520 C   0  0  1  0  0  3  0  0  0  0  0  0
  160.9890  206.5830  153.3020 C   0  0  0  0  0  0  0  0  0  0  0  0
  162.1810  207.9890  149.6470 C   0  0  2  0  0  3  0  0  0  0  0  0
  162.8550  211.9920  148.9060 N   0  0  0  0  0  2  0  0  0  0  0  0
  161.7050  206.6150  149.6720 N   0  0  0  0  0  0  0  0  0  0  0  0
  161.1890  206.2840  148.3460 C   0  0  1  0  0  3  0  0  0  0  0  0
  162.1660  210.3220  150.6950 C   0  0  0  0  0  2  0  0  0  0  0  0
  160.8610  204.8080  150.9000 O   0  0  0  0  0  0  0  0  0  0  0  0
  161.1610  206.0310  150.8620 C   0  0  0  0  0  0  0  0  0  0  0  0
  162.2970  210.7170  149.2260 C   0  0  0  0  0  0  0  0  0  0  0  0
  162.1590  208.7900  150.9680 C   0  0  1  0  0  3  0  0  0  0  0  0
  161.2080  207.6040  147.5500 C   0  0  0  0  0  2  0  0  0  0  0  0
  160.9620  206.9100  152.0200 C   0  0  0  0  0  0  0  0  0  0  0  0
  161.2940  208.6460  148.6430 C   0  0  2  0  0  3  0  0  0  0  0  0
  161.5930  204.4730  146.7730 C   0  0  0  0  0  0  0  0  0  0  0  0
  162.0630  205.2610  147.7000 C   0  0  0  0  0  3  0  0  0  0  0  0
  161.1200  203.6820  145.8420 C   0  0  0  0  0  0  0  0  0  0  0  0
  160.3980  201.4980  145.2450 O   0  0  0  0  0  0  0  0  0  0  0  0
  161.3120  200.2690  147.6300 C   0  0  0  0  0  1  0  0  0  0  0  0
  160.9580  202.2400  146.0980 C   0  0  0  0  0  0  0  0  0  0  0  0
  161.4420  201.6830  147.3220 N   0  0  0  0  0  2  0  0  0  0  0  0
  160.7500  204.2160  144.5680 N   0  0  0  0  0  2  0  0  0  0  0  0
  161.4500  205.2180  143.9840 O   0  0  0  0  0  1  0  0  0  0  0  0
  163.0120  212.4530  147.5350 C   0  0  0  0  0  2  0  0  0  0  0  0
  162.1960  213.7150  147.3090 C   0  0  0  0  0  2  0  0  0  0  0  0
  162.2600  213.4320  144.9410 O   0  0  0  0  0  1  0  0  0  0  0  0
  161.3900  213.6240  146.0180 C   0  0  1  0  0  3  0  0  0  0  0  0
  160.3980  212.4660  146.0960 C   0  0  1  0  0  3  0  0  0  0  0  0
  159.5910  212.5970  147.2290 O   0  0  0  0  0  1  0  0  0  0  0  0
  159.9090  211.7750  143.8680 O   0  0  0  0  0  0  0  0  0  0  0  0
  159.5320  212.4210  144.8800 C   0  0  0  0  0  0  0  0  0  0  0  0
  158.3170  213.0950  144.8550 O   0  0  0  0  0  1  0  0  0  0  0  0
  1  3  2  0  0  0  0
  2 18  1  0  0  0  0
  2 14  2  0  0  0  0
  5 17  1  0  0  0  0
  5  1  1  1  0  0  0
  6  4  1  0  0  0  0
  6  3  1  0  0  0  0
  7  9  1  1  0  0  0
  7 15  1  0  0  0  0
  8 14  1  0  0  0  0
  9 13  1  0  0  0  0
 10 20  1  6  0  0  0
 10  9  1  0  0  0  0
 13 12  2  0  0  0  0
 13 17  1  0  0  0  0
 14 11  1  0  0  0  0
 15 11  1  6  0  0  0
 15  5  1  0  0  0  0
 16 10  1  0  0  0  0
 17  6  2  0  0  0  0
 18 16  1  6  0  0  0
 18  7  1  0  0  0  0
 19 20  2  0  0  0  0
 21 24  1  0  0  0  0
 21 19  2  0  0  0  0
 22 24  2  0  0  0  0
 24 25  1  0  0  0  0
 25 23  1  0  0  0  0
 26 21  1  0  0  0  0
 27 26  1  0  0  0  0
 28  8  1  0  0  0  0
 29 28  1  0  0  0  0
 31 30  1  6  0  0  0
 31 32  1  0  0  0  0
 31 29  1  0  0  0  0
 32 33  1  1  0  0  0
 34 35  2  0  0  0  0
 35 32  1  0  0  0  0
 36 35  1  0  0  0  0
M  END
>  <MODEL>
2

>  <REMARK>
 VINA RESULT:      -8.0      3.441      7.890
  Name = 
  8 active torsions:
  status: ('A' for Active; 'I' for Inactive)
    1  A    between atoms: C_6  and  C_12
    2  A    between atoms: C_12  and  C_34
    3  A    between atoms: C_13  and  N_15
    4  A    between atoms: C_13  and  C_20
    5  A    between atoms: C_17  and  C_24
    6  A    between atoms: N_19  and  C_26
    7  A    between atoms: C_20  and  C_34
    8  A    between atoms: C_22  and  C_26
                            x       y       z     vdW  Elec       q    Type
                         _______ _______ _______ _____ _____    ______ ____

>  <TORSDO>
F 8

$$$$
=
 OpenBabel11042421033D

 36 39  0  0  1  0  0  0  0  0999 V2000
  160.6430  208.0090  155.5460 C   0  0  0  0  0  3  0  0  0  0  0  0
  162.0300  205.3000  151.3650 N   0  0  0  0  0  0  0  0  0  0  0  0
  160.2380  209.2320  155.8760 C   0  0  0  0  0  3  0  0  0  0  0  0
  160.0950  211.5490  154.7010 C   0  0  0  0  0  1  0  0  0  0  0  0
  161.3050  208.0210  154.2010 C   0  0  1  0  0  3  0  0  0  0  0  0
  160.5510  210.1330  154.7780 C   0  0  0  0  0  0  0  0  0  0  0  0
  161.0470  207.4390  151.7360 C   0  0  2  0  0  3  0  0  0  0  0  0
  161.0820  203.3600  152.3490 N   0  0  0  0  0  2  0  0  0  0  0  0
  161.3500  208.8240  151.4110 N   0  0  0  0  0  0  0  0  0  0  0  0
  162.3200  208.8380  150.3190 C   0  0  1  0  0  3  0  0  0  0  0  0
  160.8490  205.6090  153.5110 C   0  0  0  0  0  2  0  0  0  0  0  0
  161.4700  211.0630  152.0900 O   0  0  0  0  0  0  0  0  0  0  0  0
  161.3200  209.8530  152.4080 C   0  0  0  0  0  0  0  0  0  0  0  0
  161.3500  204.7620  152.3440 C   0  0  0  0  0  0  0  0  0  0  0  0
  160.6110  207.1110  153.1810 C   0  0  1  0  0  3  0  0  0  0  0  0
  162.7370  207.3680  150.1140 C   0  0  0  0  0  2  0  0  0  0  0  0
  161.1170  209.4410  153.8020 C   0  0  0  0  0  0  0  0  0  0  0  0
  162.3140  206.7220  151.4150 C   0  0  2  0  0  3  0  0  0  0  0  0
  161.8130  210.6500  148.7770 C   0  0  0  0  0  0  0  0  0  0  0  0
  161.6900  209.3880  149.0830 C   0  0  0  0  0  3  0  0  0  0  0  0
  161.9390  211.9170  148.4710 C   0  0  0  0  0  0  0  0  0  0  0  0
  160.0920  213.0390  147.4810 O   0  0  0  0  0  0  0  0  0  0  0  0
  159.2740  214.3320  149.8670 C   0  0  0  0  0  1  0  0  0  0  0  0
  160.7730  212.8160  148.5210 C   0  0  0  0  0  0  0  0  0  0  0  0
  160.4130  213.4370  149.7570 N   0  0  0  0  0  2  0  0  0  0  0  0
  163.2140  212.4400  148.0910 N   0  0  0  0  0  2  0  0  0  0  0  0
  163.4070  213.7640  147.8760 O   0  0  0  0  0  1  0  0  0  0  0  0
  161.5270  202.4760  151.2830 C   0  0  0  0  0  2  0  0  0  0  0  0
  160.5870  202.5740  150.0930 C   0  0  0  0  0  2  0  0  0  0  0  0
  161.2530  201.3540  148.1540 O   0  0  0  0  0  1  0  0  0  0  0  0
  161.3630  202.5980  148.7810 C   0  0  1  0  0  3  0  0  0  0  0  0
  160.8150  203.6910  147.8650 C   0  0  1  0  0  3  0  0  0  0  0  0
  160.7640  204.9100  148.5450 O   0  0  0  0  0  1  0  0  0  0  0  0
  162.7430  204.4920  146.7140 O   0  0  0  0  0  1  0  0  0  0  0  0
  161.6670  203.8430  146.6470 C   0  0  0  0  0  0  0  0  0  0  0  0
  161.2750  203.2790  145.4390 O   0  0  0  0  0  0  0  0  0  0  0  0
  1  3  2  0  0  0  0
  2 18  1  0  0  0  0
  2 14  2  0  0  0  0
  4  6  1  0  0  0  0
  5  1  1  1  0  0  0
  6  3  1  0  0  0  0
  7  9  1  1  0  0  0
  7 15  1  0  0  0  0
  9 13  1  0  0  0  0
 10 20  1  6  0  0  0
 10  9  1  0  0  0  0
 12 13  2  0  0  0  0
 13 17  1  0  0  0  0
 14  8  1  0  0  0  0
 14 11  1  0  0  0  0
 15 11  1  1  0  0  0
 15  5  1  0  0  0  0
 16 10  1  0  0  0  0
 17  5  1  0  0  0  0
 17  6  2  0  0  0  0
 18 16  1  6  0  0  0
 18  7  1  0  0  0  0
 19 20  2  0  0  0  0
 21 24  1  0  0  0  0
 21 19  2  0  0  0  0
 22 24  2  0  0  0  0
 24 25  1  0  0  0  0
 25 23  1  0  0  0  0
 26 21  1  0  0  0  0
 27 26  1  0  0  0  0
 28  8  1  0  0  0  0
 29 28  1  0  0  0  0
 31 30  1  6  0  0  0
 31 29  1  0  0  0  0
 32 33  1  1  0  0  0
 32 31  1  0  0  0  0
 35 34  1  0  0  0  0
 35 32  1  0  0  0  0
 36 35  2  0  0  0  0
M  END
>  <MODEL>
3

>  <REMARK>
 VINA RESULT:      -7.9      2.205      6.699
  Name = 
  8 active torsions:
  status: ('A' for Active; 'I' for Inactive)
    1  A    between atoms: C_6  and  C_12
    2  A    between atoms: C_12  and  C_34
    3  A    between atoms: C_13  and  N_15
    4  A    between atoms: C_13  and  C_20
    5  A    between atoms: C_17  and  C_24
    6  A    between atoms: N_19  and  C_26
    7  A    between atoms: C_20  and  C_34
    8  A    between atoms: C_22  and  C_26
                            x       y       z     vdW  Elec       q    Type
                         _______ _______ _______ _____ _____    ______ ____

>  <TORSDO>
F 8

$$$$
=
 OpenBabel11042421033D

 36 39  0  0  1  0  0  0  0  0999 V2000
  161.1450  206.7550  152.8760 C   0  0  0  0  0  3  0  0  0  0  0  0
  161.6070  208.7900  148.1440 N   0  0  0  0  0  0  0  0  0  0  0  0
  161.1630  205.5700  153.4780 C   0  0  0  0  0  3  0  0  0  0  0  0
  161.1120  203.0780  152.7310 C   0  0  0  0  0  1  0  0  0  0  0  0
  160.8980  206.5930  151.4060 C   0  0  1  0  0  3  0  0  0  0  0  0
  160.9770  204.5380  152.4700 C   0  0  0  0  0  0  0  0  0  0  0  0
  161.9510  206.6290  149.0890 C   0  0  2  0  0  3  0  0  0  0  0  0
  162.6480  210.6960  149.1020 N   0  0  0  0  0  2  0  0  0  0  0  0
  161.4530  205.2800  148.8760 N   0  0  0  0  0  0  0  0  0  0  0  0
  160.8460  205.2180  147.5490 C   0  0  1  0  0  3  0  0  0  0  0  0
  162.0470  208.7110  150.5720 C   0  0  0  0  0  2  0  0  0  0  0  0
  160.6590  203.2700  149.7820 O   0  0  0  0  0  0  0  0  0  0  0  0
  160.9780  204.4760  149.9630 C   0  0  0  0  0  0  0  0  0  0  0  0
  162.0890  209.3860  149.2030 C   0  0  0  0  0  0  0  0  0  0  0  0
  162.0300  207.1550  150.5390 C   0  0  1  0  0  3  0  0  0  0  0  0
  160.8370  206.6690  147.0270 C   0  0  0  0  0  2  0  0  0  0  0  0
  160.8710  205.1110  151.2820 C   0  0  0  0  0  0  0  0  0  0  0  0
  161.0130  207.4750  148.2960 C   0  0  2  0  0  3  0  0  0  0  0  0
  161.1400  203.2600  146.1360 C   0  0  0  0  0  0  0  0  0  0  0  0
  161.6570  204.3380  146.6580 C   0  0  0  0  0  3  0  0  0  0  0  0
  160.6190  202.1780  145.6130 C   0  0  0  0  0  0  0  0  0  0  0  0
  161.5970  200.6820  147.1790 O   0  0  0  0  0  0  0  0  0  0  0  0
  161.3800  198.3970  145.5150 C   0  0  0  0  0  1  0  0  0  0  0  0
  161.0820  200.8460  146.0380 C   0  0  0  0  0  0  0  0  0  0  0  0
  160.9430  199.7340  145.1510 N   0  0  0  0  0  2  0  0  0  0  0  0
  159.5900  202.2830  144.6250 N   0  0  0  0  0  2  0  0  0  0  0  0
  159.2300  203.4770  144.0950 O   0  0  0  0  0  1  0  0  0  0  0  0
  162.7230  211.4170  147.8400 C   0  0  0  0  0  2  0  0  0  0  0  0
  161.4370  212.1900  147.6000 C   0  0  0  0  0  2  0  0  0  0  0  0
  163.0070  213.9550  147.9330 O   0  0  0  0  0  1  0  0  0  0  0  0
  161.7070  213.6870  147.4950 C   0  0  1  0  0  3  0  0  0  0  0  0
  161.5390  214.1530  146.0510 C   0  0  1  0  0  3  0  0  0  0  0  0
  162.6720  213.8260  145.3020 O   0  0  0  0  0  1  0  0  0  0  0  0
  159.1890  213.9590  145.7010 O   0  0  0  0  0  1  0  0  0  0  0  0
  160.3380  213.5260  145.4240 C   0  0  0  0  0  0  0  0  0  0  0  0
  160.4790  212.4610  144.5410 O   0  0  0  0  0  0  0  0  0  0  0  0
  1  3  2  0  0  0  0
  2 18  1  0  0  0  0
  2 14  2  0  0  0  0
  5  1  1  1  0  0  0
  6  4  1  0  0  0  0
  6  3  1  0  0  0  0
  7  9  1  1  0  0  0
  7 15  1  0  0  0  0
  8 14  1  0  0  0  0
  9 13  1  0  0  0  0
 10 20  1  6  0  0  0
 10  9  1  0  0  0  0
 12 13  2  0  0  0  0
 13 17  1  0  0  0  0
 14 11  1  0  0  0  0
 15 11  1  6  0  0  0
 15  5  1  0  0  0  0
 16 10  1  0  0  0  0
 17  5  1  0  0  0  0
 17  6  2  0  0  0  0
 18 16  1  6  0  0  0
 18  7  1  0  0  0  0
 19 20  2  0  0  0  0
 21 24  1  0  0  0  0
 21 19  2  0  0  0  0
 24 22  2  0  0  0  0
 25 23  1  0  0  0  0
 25 24  1  0  0  0  0
 26 21  1  0  0  0  0
 27 26  1  0  0  0  0
 28  8  1  0  0  0  0
 29 28  1  0  0  0  0
 31 29  1  0  0  0  0
 31 30  1  6  0  0  0
 32 33  1  6  0  0  0
 32 31  1  0  0  0  0
 35 34  1  0  0  0  0
 35 32  1  0  0  0  0
 36 35  2  0  0  0  0
M  END
>  <MODEL>
4

>  <REMARK>
 VINA RESULT:      -6.9      3.989      8.088
  Name = 
  8 active torsions:
  status: ('A' for Active; 'I' for Inactive)
    1  A    between atoms: C_6  and  C_12
    2  A    between atoms: C_12  and  C_34
    3  A    between atoms: C_13  and  N_15
    4  A    between atoms: C_13  and  C_20
    5  A    between atoms: C_17  and  C_24
    6  A    between atoms: N_19  and  C_26
    7  A    between atoms: C_20  and  C_34
    8  A    between atoms: C_22  and  C_26
                            x       y       z     vdW  Elec       q    Type
                         _______ _______ _______ _____ _____    ______ ____

>  <TORSDO>
F 8

$$$$
=
 OpenBabel11042421033D

 36 39  0  0  1  0  0  0  0  0999 V2000
  161.2670  201.2610  146.7760 C   0  0  0  0  0  3  0  0  0  0  0  0
  161.9790  206.1260  145.1740 N   0  0  0  0  0  0  0  0  0  0  0  0
  160.8330  200.5950  147.8420 C   0  0  0  0  0  3  0  0  0  0  0  0
  160.2390  201.1730  150.3090 C   0  0  0  0  0  1  0  0  0  0  0  0
  161.6270  202.6680  147.1470 C   0  0  1  0  0  3  0  0  0  0  0  0
  160.8260  201.5020  148.9790 C   0  0  0  0  0  0  0  0  0  0  0  0
  160.9090  205.1090  147.0450 C   0  0  2  0  0  3  0  0  0  0  0  0
  161.4370  205.4430  142.9670 N   0  0  0  0  0  2  0  0  0  0  0  0
  161.0110  205.1660  148.4940 N   0  0  0  0  0  0  0  0  0  0  0  0
  161.7250  206.3880  148.8560 C   0  0  1  0  0  3  0  0  0  0  0  0
  161.2540  203.7840  144.8840 C   0  0  0  0  0  2  0  0  0  0  0  0
  161.0710  204.0360  150.5460 O   0  0  0  0  0  0  0  0  0  0  0  0
  161.1000  203.9760  149.2880 C   0  0  0  0  0  0  0  0  0  0  0  0
  161.5720  205.1840  144.3640 C   0  0  0  0  0  0  0  0  0  0  0  0
  160.8180  203.7180  146.3770 C   0  0  1  0  0  3  0  0  0  0  0  0
  162.2200  206.9910  147.5270 C   0  0  0  0  0  2  0  0  0  0  0  0
  161.2330  202.6960  148.5800 C   0  0  0  0  0  0  0  0  0  0  0  0
  162.1400  205.8120  146.5820 C   0  0  2  0  0  3  0  0  0  0  0  0
  161.2300  208.0780  150.5340 C   0  0  0  0  0  0  0  0  0  0  0  0
  160.8020  207.3290  149.5560 C   0  0  0  0  0  3  0  0  0  0  0  0
  161.6620  208.8300  151.5160 C   0  0  0  0  0  0  0  0  0  0  0  0
  160.8590  209.5630  153.6300 O   0  0  0  0  0  0  0  0  0  0  0  0
  160.6950  206.9650  154.7510 C   0  0  0  0  0  1  0  0  0  0  0  0
  161.2010  208.5950  152.8950 C   0  0  0  0  0  0  0  0  0  0  0  0
  161.1410  207.2590  153.4000 N   0  0  0  0  0  2  0  0  0  0  0  0
  162.5910  209.8860  151.2550 N   0  0  0  0  0  2  0  0  0  0  0  0
  162.4020  210.7690  150.2460 O   0  0  0  0  0  1  0  0  0  0  0  0
  161.7250  206.7450  142.3830 C   0  0  0  0  0  2  0  0  0  0  0  0
  162.2470  206.5800  140.9650 C   0  0  0  0  0  2  0  0  0  0  0  0
  161.7040  208.8670  140.5570 O   0  0  0  0  0  1  0  0  0  0  0  0
  161.5930  207.5820  140.0200 C   0  0  1  0  0  3  0  0  0  0  0  0
  162.2670  207.5320  138.6510 C   0  0  1  0  0  3  0  0  0  0  0  0
  162.3250  206.2150  138.1880 O   0  0  0  0  0  1  0  0  0  0  0  0
  162.0990  209.3470  137.1150 O   0  0  0  0  0  0  0  0  0  0  0  0
  161.5260  208.3690  137.6600 C   0  0  0  0  0  0  0  0  0  0  0  0
  160.2040  208.0780  137.3420 O   0  0  0  0  0  1  0  0  0  0  0  0
  1  3  2  0  0  0  0
  2 18  1  0  0  0  0
  3  6  1  0  0  0  0
  5  1  1  6  0  0  0
  5 17  1  0  0  0  0
  6  4  1  0  0  0  0
  7  9  1  1  0  0  0
  8 14  1  0  0  0  0
  9 10  1  0  0  0  0
  9 13  1  0  0  0  0
 10 20  1  6  0  0  0
 13 12  2  0  0  0  0
 14 11  1  0  0  0  0
 14  2  2  0  0  0  0
 15 11  1  6  0  0  0
 15  7  1  0  0  0  0
 15  5  1  0  0  0  0
 16 10  1  0  0  0  0
 17  6  2  0  0  0  0
 17 13  1  0  0  0  0
 18  7  1  0  0  0  0
 18 16  1  1  0  0  0
 19 21  2  0  0  0  0
 20 19  2  0  0  0  0
 21 24  1  0  0  0  0
 24 25  1  0  0  0  0
 24 22  2  0  0  0  0
 25 23  1  0  0  0  0
 26 21  1  0  0  0  0
 27 26  1  0  0  0  0
 28  8  1  0  0  0  0
 29 28  1  0  0  0  0
 31 30  1  1  0  0  0
 31 29  1  0  0  0  0
 32 33  1  6  0  0  0
 32 31  1  0  0  0  0
 34 35  2  0  0  0  0
 35 32  1  0  0  0  0
 36 35  1  0  0  0  0
M  END
>  <MODEL>
5

>  <REMARK>
 VINA RESULT:      -6.4      4.784     10.076
  Name = 
  8 active torsions:
  status: ('A' for Active; 'I' for Inactive)
    1  A    between atoms: C_6  and  C_12
    2  A    between atoms: C_12  and  C_34
    3  A    between atoms: C_13  and  N_15
    4  A    between atoms: C_13  and  C_20
    5  A    between atoms: C_17  and  C_24
    6  A    between atoms: N_19  and  C_26
    7  A    between atoms: C_20  and  C_34
    8  A    between atoms: C_22  and  C_26
                            x       y       z     vdW  Elec       q    Type
                         _______ _______ _______ _____ _____    ______ ____

>  <TORSDO>
F 8

$$$$
=
 OpenBabel11042421033D

 36 39  0  0  1  0  0  0  0  0999 V2000
  160.8870  203.2050  149.7830 C   0  0  0  0  0  3  0  0  0  0  0  0
  160.8990  207.4640  152.7180 N   0  0  0  0  0  0  0  0  0  0  0  0
  161.2460  202.8100  148.5650 C   0  0  0  0  0  3  0  0  0  0  0  0
  162.0030  203.9620  146.3580 C   0  0  0  0  0  1  0  0  0  0  0  0
  160.7660  204.6980  149.8350 C   0  0  1  0  0  3  0  0  0  0  0  0
  161.4330  203.9890  147.7350 C   0  0  0  0  0  0  0  0  0  0  0  0
  161.8550  206.8620  150.6200 C   0  0  2  0  0  3  0  0  0  0  0  0
  161.2540  206.1040  154.6300 N   0  0  0  0  0  2  0  0  0  0  0  0
  161.8100  207.3440  149.2480 N   0  0  0  0  0  0  0  0  0  0  0  0
  161.3100  208.7160  149.2600 C   0  0  1  0  0  3  0  0  0  0  0  0
  161.2360  205.0510  152.3160 C   0  0  0  0  0  2  0  0  0  0  0  0
  161.6400  206.8690  146.9600 O   0  0  0  0  0  0  0  0  0  0  0  0
  161.5610  206.4590  148.1490 C   0  0  0  0  0  0  0  0  0  0  0  0
  161.1260  206.2770  153.2190 C   0  0  0  0  0  0  0  0  0  0  0  0
  161.7040  205.3430  150.8610 C   0  0  1  0  0  3  0  0  0  0  0  0
  160.8740  208.9880  150.7140 C   0  0  0  0  0  2  0  0  0  0  0  0
  161.2060  205.0700  148.4640 C   0  0  0  0  0  0  0  0  0  0  0  0
  160.7360  207.5920  151.2810 C   0  0  2  0  0  3  0  0  0  0  0  0
  162.1170  210.8930  148.5320 C   0  0  0  0  0  0  0  0  0  0  0  0
  162.3920  209.6570  148.8460 C   0  0  0  0  0  3  0  0  0  0  0  0
  161.8380  212.1340  148.2180 C   0  0  0  0  0  0  0  0  0  0  0  0
  163.1030  212.9680  146.3870 O   0  0  0  0  0  0  0  0  0  0  0  0
  160.9080  213.0890  144.5980 C   0  0  0  0  0  1  0  0  0  0  0  0
  161.9780  212.6020  146.8280 C   0  0  0  0  0  0  0  0  0  0  0  0
  160.8310  212.6380  145.9770 N   0  0  0  0  0  2  0  0  0  0  0  0
  161.3890  213.0450  149.2250 N   0  0  0  0  0  2  0  0  0  0  0  0
  160.5720  212.6500  150.2310 O   0  0  0  0  0  1  0  0  0  0  0  0
  161.1560  207.2140  155.5650 C   0  0  0  0  0  2  0  0  0  0  0  0
  161.1680  208.5360  154.8150 C   0  0  0  0  0  2  0  0  0  0  0  0
  160.2100  209.2620  156.8760 O   0  0  0  0  0  1  0  0  0  0  0  0
  160.2980  209.5730  155.5160 C   0  0  1  0  0  3  0  0  0  0  0  0
  160.8940  210.9670  155.3390 C   0  0  1  0  0  3  0  0  0  0  0  0
  159.8920  211.9370  155.4280 O   0  0  0  0  0  1  0  0  0  0  0  0
  161.7330  212.1280  157.2450 O   0  0  0  0  0  1  0  0  0  0  0  0
  161.9330  211.2390  156.3780 C   0  0  0  0  0  0  0  0  0  0  0  0
  163.1240  210.5220  156.3870 O   0  0  0  0  0  0  0  0  0  0  0  0
  2 14  2  0  0  0  0
  3  1  2  0  0  0  0
  4  6  1  0  0  0  0
  5  1  1  6  0  0  0
  5 15  1  0  0  0  0
  6 17  2  0  0  0  0
  6  3  1  0  0  0  0
  7  9  1  6  0  0  0
  7 15  1  0  0  0  0
  7 18  1  0  0  0  0
  8 28  1  0  0  0  0
  9 10  1  0  0  0  0
 10 20  1  1  0  0  0
 10 16  1  0  0  0  0
 11 14  1  0  0  0  0
 12 13  2  0  0  0  0
 13 17  1  0  0  0  0
 13  9  1  0  0  0  0
 14  8  1  0  0  0  0
 15 11  1  1  0  0  0
 17  5  1  0  0  0  0
 18 16  1  1  0  0  0
 18  2  1  0  0  0  0
 19 20  2  0  0  0  0
 21 19  2  0  0  0  0
 21 26  1  0  0  0  0
 22 24  2  0  0  0  0
 23 25  1  0  0  0  0
 24 21  1  0  0  0  0
 25 24  1  0  0  0  0
 26 27  1  0  0  0  0
 29 31  1  0  0  0  0
 29 28  1  0  0  0  0
 31 30  1  1  0  0  0
 32 33  1  1  0  0  0
 32 31  1  0  0  0  0
 32 35  1  0  0  0  0
 35 36  2  0  0  0  0
 35 34  1  0  0  0  0
M  END
>  <MODEL>
6

>  <REMARK>
 VINA RESULT:      -6.4      1.138      1.582
  Name = 
  8 active torsions:
  status: ('A' for Active; 'I' for Inactive)
    1  A    between atoms: C_6  and  C_12
    2  A    between atoms: C_12  and  C_34
    3  A    between atoms: C_13  and  N_15
    4  A    between atoms: C_13  and  C_20
    5  A    between atoms: C_17  and  C_24
    6  A    between atoms: N_19  and  C_26
    7  A    between atoms: C_20  and  C_34
    8  A    between atoms: C_22  and  C_26
                            x       y       z     vdW  Elec       q    Type
                         _______ _______ _______ _____ _____    ______ ____

>  <TORSDO>
F 8

$$$$
=
 OpenBabel11042421033D

 36 39  0  0  1  0  0  0  0  0999 V2000
  160.8830  202.0210  150.5320 C   0  0  0  0  0  3  0  0  0  0  0  0
  160.8350  206.7650  152.5910 N   0  0  0  0  0  0  0  0  0  0  0  0
  161.1710  201.4150  149.3830 C   0  0  0  0  0  3  0  0  0  0  0  0
  161.6700  202.1520  146.9380 C   0  0  0  0  0  1  0  0  0  0  0  0
  160.6640  203.4870  150.3090 C   0  0  1  0  0  3  0  0  0  0  0  0
  161.2100  202.4180  148.3310 C   0  0  0  0  0  0  0  0  0  0  0  0
  161.6620  205.8160  150.5670 C   0  0  2  0  0  3  0  0  0  0  0  0
  161.4330  205.8240  154.6860 N   0  0  0  0  0  2  0  0  0  0  0  0
  161.4750  206.0180  149.1390 N   0  0  0  0  0  0  0  0  0  0  0  0
  160.8850  207.3390  148.9360 C   0  0  1  0  0  3  0  0  0  0  0  0
  161.3040  204.3400  152.6260 C   0  0  0  0  0  2  0  0  0  0  0  0
  161.1580  205.0980  147.0080 O   0  0  0  0  0  0  0  0  0  0  0  0
  161.2010  204.9240  148.2550 C   0  0  0  0  0  0  0  0  0  0  0  0
  161.1820  205.7120  153.2860 C   0  0  0  0  0  0  0  0  0  0  0  0
  161.6350  204.3680  151.1050 C   0  0  1  0  0  3  0  0  0  0  0  0
  160.5470  207.8660  150.3450 C   0  0  0  0  0  2  0  0  0  0  0  0
  160.9680  203.6060  148.8590 C   0  0  0  0  0  0  0  0  0  0  0  0
  160.5510  206.6020  151.1770 C   0  0  2  0  0  3  0  0  0  0  0  0
  161.9780  209.4870  148.6050 C   0  0  0  0  0  0  0  0  0  0  0  0
  161.8630  208.2360  148.2540 C   0  0  0  0  0  3  0  0  0  0  0  0
  162.0930  210.7420  148.9600 C   0  0  0  0  0  0  0  0  0  0  0  0
  160.4390  212.0010  147.8060 O   0  0  0  0  0  0  0  0  0  0  0  0
  162.2850  213.7330  146.5310 C   0  0  0  0  0  1  0  0  0  0  0  0
  161.6650  211.8180  148.0480 C   0  0  0  0  0  0  0  0  0  0  0  0
  162.6470  212.6570  147.4380 N   0  0  0  0  0  2  0  0  0  0  0  0
  162.6300  211.0790  150.2420 N   0  0  0  0  0  2  0  0  0  0  0  0
  162.6850  210.1780  151.2510 O   0  0  0  0  0  1  0  0  0  0  0  0
  161.3340  207.0890  155.3990 C   0  0  0  0  0  2  0  0  0  0  0  0
  161.6360  208.2450  154.4600 C   0  0  0  0  0  2  0  0  0  0  0  0
  162.1420  210.5770  154.4960 O   0  0  0  0  0  1  0  0  0  0  0  0
  161.4020  209.5860  155.1480 C   0  0  1  0  0  3  0  0  0  0  0  0
  159.9180  209.9420  155.1190 C   0  0  1  0  0  3  0  0  0  0  0  0
  159.5510  210.5820  156.3050 O   0  0  0  0  0  1  0  0  0  0  0  0
  159.2630  212.0270  154.1670 O   0  0  0  0  0  1  0  0  0  0  0  0
  159.6050  210.8340  153.9620 C   0  0  0  0  0  0  0  0  0  0  0  0
  159.6810  210.3520  152.6610 O   0  0  0  0  0  0  0  0  0  0  0  0
  2 14  2  0  0  0  0
  3  1  2  0  0  0  0
  4  6  1  0  0  0  0
  5  1  1  1  0  0  0
  5 15  1  0  0  0  0
  6 17  2  0  0  0  0
  6  3  1  0  0  0  0
  7  9  1  6  0  0  0
  7 15  1  0  0  0  0
  7 18  1  0  0  0  0
  8 28  1  0  0  0  0
 10 20  1  1  0  0  0
 10  9  1  0  0  0  0
 10 16  1  0  0  0  0
 11 14  1  0  0  0  0
 12 13  2  0  0  0  0
 13 17  1  0  0  0  0
 13  9  1  0  0  0  0
 14  8  1  0  0  0  0
 15 11  1  1  0  0  0
 17  5  1  0  0  0  0
 18 16  1  6  0  0  0
 18  2  1  0  0  0  0
 19 21  2  0  0  0  0
 20 19  2  0  0  0  0
 21 26  1  0  0  0  0
 22 24  2  0  0  0  0
 23 25  1  0  0  0  0
 24 21  1  0  0  0  0
 25 24  1  0  0  0  0
 26 27  1  0  0  0  0
 29 31  1  0  0  0  0
 29 28  1  0  0  0  0
 31 30  1  6  0  0  0
 32 31  1  0  0  0  0
 32 33  1  1  0  0  0
 35 34  1  0  0  0  0
 35 32  1  0  0  0  0
 36 35  2  0  0  0  0
M  END
>  <MODEL>
7

>  <REMARK>
 VINA RESULT:      -5.7      1.717      2.137
  Name = 
  8 active torsions:
  status: ('A' for Active; 'I' for Inactive)
    1  A    between atoms: C_6  and  C_12
    2  A    between atoms: C_12  and  C_34
    3  A    between atoms: C_13  and  N_15
    4  A    between atoms: C_13  and  C_20
    5  A    between atoms: C_17  and  C_24
    6  A    between atoms: N_19  and  C_26
    7  A    between atoms: C_20  and  C_34
    8  A    between atoms: C_22  and  C_26
                            x       y       z     vdW  Elec       q    Type
                         _______ _______ _______ _____ _____    ______ ____

>  <TORSDO>
F 8

$$$$
=
 OpenBabel11042421033D

 36 39  0  0  1  0  0  0  0  0999 V2000
  160.7660  207.1600  156.3700 C   0  0  0  0  0  3  0  0  0  0  0  0
  162.0360  206.6670  151.3810 N   0  0  0  0  0  0  0  0  0  0  0  0
  160.2590  208.0620  157.2050 C   0  0  0  0  0  3  0  0  0  0  0  0
  159.7410  210.6110  157.1340 C   0  0  0  0  0  1  0  0  0  0  0  0
  161.2870  207.8260  155.1320 C   0  0  1  0  0  3  0  0  0  0  0  0
  160.3590  209.3730  156.5820 C   0  0  0  0  0  0  0  0  0  0  0  0
  160.8580  208.2920  152.6660 C   0  0  2  0  0  3  0  0  0  0  0  0
  161.4150  204.3790  151.4840 N   0  0  0  0  0  2  0  0  0  0  0  0
  160.9690  209.7140  152.9490 N   0  0  0  0  0  0  0  0  0  0  0  0
  161.8210  210.3200  151.9290 C   0  0  1  0  0  3  0  0  0  0  0  0
  161.0430  205.8810  153.5010 C   0  0  0  0  0  2  0  0  0  0  0  0
  160.9000  211.4590  154.5110 O   0  0  0  0  0  0  0  0  0  0  0  0
  160.9200  210.2190  154.2890 C   0  0  0  0  0  0  0  0  0  0  0  0
  161.5210  205.6790  152.0640 C   0  0  0  0  0  0  0  0  0  0  0  0
  160.6050  207.3330  153.8510 C   0  0  1  0  0  3  0  0  0  0  0  0
  162.3800  209.1460  151.1010 C   0  0  0  0  0  2  0  0  0  0  0  0
  160.9020  209.2400  155.3830 C   0  0  0  0  0  0  0  0  0  0  0  0
  162.1620  207.9640  152.0200 C   0  0  2  0  0  3  0  0  0  0  0  0
  161.3160  211.4110  149.8130 C   0  0  0  0  0  0  0  0  0  0  0  0
  161.0150  211.2380  151.0710 C   0  0  0  0  0  3  0  0  0  0  0  0
  161.6190  211.5830  148.5510 C   0  0  0  0  0  0  0  0  0  0  0  0
  162.6420  213.7010  148.8950 O   0  0  0  0  0  0  0  0  0  0  0  0
  162.5940  214.4520  146.1630 C   0  0  0  0  0  1  0  0  0  0  0  0
  162.1450  212.8760  148.0790 C   0  0  0  0  0  0  0  0  0  0  0  0
  162.0910  213.1940  146.6870 N   0  0  0  0  0  2  0  0  0  0  0  0
  161.4470  210.5120  147.6200 N   0  0  0  0  0  2  0  0  0  0  0  0
  161.4370  209.2170  148.0170 O   0  0  0  0  0  1  0  0  0  0  0  0
  161.8510  204.0930  150.1250 C   0  0  0  0  0  2  0  0  0  0  0  0
  160.7060  204.3080  149.1500 C   0  0  0  0  0  2  0  0  0  0  0  0
  162.2290  205.9200  148.2690 O   0  0  0  0  0  1  0  0  0  0  0  0
  161.1720  205.0760  147.9170 C   0  0  1  0  0  3  0  0  0  0  0  0
  161.6230  204.1030  146.8300 C   0  0  1  0  0  3  0  0  0  0  0  0
  161.1470  202.8180  147.1030 O   0  0  0  0  0  1  0  0  0  0  0  0
  160.7810  203.6710  144.6420 O   0  0  0  0  0  0  0  0  0  0  0  0
  161.1270  204.5360  145.4880 C   0  0  0  0  0  0  0  0  0  0  0  0
  161.0540  205.8850  145.1660 O   0  0  0  0  0  1  0  0  0  0  0  0
  1  3  2  0  0  0  0
  2 18  1  0  0  0  0
  2 14  2  0  0  0  0
  5 17  1  0  0  0  0
  5  1  1  1  0  0  0
  6  4  1  0  0  0  0
  6  3  1  0  0  0  0
  7  9  1  1  0  0  0
  7 15  1  0  0  0  0
  8 14  1  0  0  0  0
  9 13  1  0  0  0  0
 10 20  1  6  0  0  0
 10  9  1  0  0  0  0
 13 12  2  0  0  0  0
 13 17  1  0  0  0  0
 14 11  1  0  0  0  0
 15 11  1  6  0  0  0
 15  5  1  0  0  0  0
 16 10  1  0  0  0  0
 17  6  2  0  0  0  0
 18 16  1  6  0  0  0
 18  7  1  0  0  0  0
 19 20  2  0  0  0  0
 21 19  2  0  0  0  0
 23 25  1  0  0  0  0
 24 21  1  0  0  0  0
 24 22  2  0  0  0  0
 25 24  1  0  0  0  0
 26 27  1  0  0  0  0
 26 21  1  0  0  0  0
 28  8  1  0  0  0  0
 29 28  1  0  0  0  0
 31 30  1  1  0  0  0
 31 29  1  0  0  0  0
 32 33  1  1  0  0  0
 32 31  1  0  0  0  0
 34 35  2  0  0  0  0
 35 32  1  0  0  0  0
 36 35  1  0  0  0  0
M  END
>  <MODEL>
8

>  <REMARK>
 VINA RESULT:      -5.7      1.911      6.879
  Name = 
  8 active torsions:
  status: ('A' for Active; 'I' for Inactive)
    1  A    between atoms: C_6  and  C_12
    2  A    between atoms: C_12  and  C_34
    3  A    between atoms: C_13  and  N_15
    4  A    between atoms: C_13  and  C_20
    5  A    between atoms: C_17  and  C_24
    6  A    between atoms: N_19  and  C_26
    7  A    between atoms: C_20  and  C_34
    8  A    between atoms: C_22  and  C_26
                            x       y       z     vdW  Elec       q    Type
                         _______ _______ _______ _____ _____    ______ ____

>  <TORSDO>
F 8

$$$$
=
 OpenBabel11042421033D

 36 39  0  0  1  0  0  0  0  0999 V2000
  162.1070  210.3140  149.9490 C   0  0  0  0  0  3  0  0  0  0  0  0
  160.8420  208.4030  154.5860 N   0  0  0  0  0  0  0  0  0  0  0  0
  162.1820  209.9300  148.6780 C   0  0  0  0  0  3  0  0  0  0  0  0
  162.0740  207.6750  147.3830 C   0  0  0  0  0  1  0  0  0  0  0  0
  162.0910  209.1210  150.8570 C   0  0  1  0  0  3  0  0  0  0  0  0
  162.1770  208.4760  148.6350 C   0  0  0  0  0  0  0  0  0  0  0  0
  160.6460  207.6360  152.3380 C   0  0  2  0  0  3  0  0  0  0  0  0
  160.0070  210.5380  155.2000 N   0  0  0  0  0  2  0  0  0  0  0  0
  161.0840  206.4890  151.5590 N   0  0  0  0  0  0  0  0  0  0  0  0
  161.4480  205.4190  152.4840 C   0  0  1  0  0  3  0  0  0  0  0  0
  160.8350  210.1390  152.8290 C   0  0  0  0  0  2  0  0  0  0  0  0
  162.0040  205.6440  149.5760 O   0  0  0  0  0  0  0  0  0  0  0  0
  161.7350  206.6460  150.2920 C   0  0  0  0  0  0  0  0  0  0  0  0
  160.5610  209.6340  154.2440 C   0  0  0  0  0  0  0  0  0  0  0  0
  160.8290  209.0430  151.7250 C   0  0  1  0  0  3  0  0  0  0  0  0
  161.3810  206.0430  153.8920 C   0  0  0  0  0  2  0  0  0  0  0  0
  162.0790  208.0090  149.8690 C   0  0  0  0  0  0  0  0  0  0  0  0
  161.4390  207.5260  153.5950 C   0  0  2  0  0  3  0  0  0  0  0  0
  160.8050  203.2060  151.7040 C   0  0  0  0  0  0  0  0  0  0  0  0
  160.4830  204.2860  152.3590 C   0  0  0  0  0  3  0  0  0  0  0  0
  161.1300  202.1210  151.0460 C   0  0  0  0  0  0  0  0  0  0  0  0
  159.2940  201.3280  149.7610 O   0  0  0  0  0  0  0  0  0  0  0  0
  160.5590  201.7070  147.2530 C   0  0  0  0  0  1  0  0  0  0  0  0
  160.4680  201.7940  149.7710 C   0  0  0  0  0  0  0  0  0  0  0  0
  161.1610  202.0090  148.5400 N   0  0  0  0  0  2  0  0  0  0  0  0
  162.1380  201.2460  151.5590 N   0  0  0  0  0  2  0  0  0  0  0  0
  163.3260  201.7140  152.0110 O   0  0  0  0  0  1  0  0  0  0  0  0
  159.7190  210.1450  156.5710 C   0  0  0  0  0  2  0  0  0  0  0  0
  158.8060  211.1660  157.2290 C   0  0  0  0  0  2  0  0  0  0  0  0
  156.5010  211.4540  156.6850 O   0  0  0  0  0  1  0  0  0  0  0  0
  157.7960  211.7220  156.2320 C   0  0  1  0  0  3  0  0  0  0  0  0
  157.9880  213.2280  156.0700 C   0  0  1  0  0  3  0  0  0  0  0  0
  159.2480  213.6070  156.5410 O   0  0  0  0  0  1  0  0  0  0  0  0
  156.7600  213.4760  154.0420 O   0  0  0  0  0  1  0  0  0  0  0  0
  157.8570  213.6320  154.6380 C   0  0  0  0  0  0  0  0  0  0  0  0
  158.9410  214.1710  153.9560 O   0  0  0  0  0  0  0  0  0  0  0  0
  3  1  2  0  0  0  0
  4  6  1  0  0  0  0
  5  1  1  6  0  0  0
  5 15  1  0  0  0  0
  6  3  1  0  0  0  0
  6 17  2  0  0  0  0
  7  9  1  6  0  0  0
  7 18  1  0  0  0  0
  8 28  1  0  0  0  0
  9 10  1  0  0  0  0
 10 20  1  1  0  0  0
 10 16  1  0  0  0  0
 11 14  1  0  0  0  0
 12 13  2  0  0  0  0
 13  9  1  0  0  0  0
 14  2  2  0  0  0  0
 14  8  1  0  0  0  0
 15  7  1  0  0  0  0
 15 11  1  1  0  0  0
 17 13  1  0  0  0  0
 17  5  1  0  0  0  0
 18 16  1  1  0  0  0
 18  2  1  0  0  0  0
 19 20  2  0  0  0  0
 21 26  1  0  0  0  0
 21 19  2  0  0  0  0
 22 24  2  0  0  0  0
 23 25  1  0  0  0  0
 24 21  1  0  0  0  0
 25 24  1  0  0  0  0
 26 27  1  0  0  0  0
 28 29  1  0  0  0  0
 31 30  1  1  0  0  0
 31 29  1  0  0  0  0
 32 31  1  0  0  0  0
 32 33  1  6  0  0  0
 34 35  1  0  0  0  0
 35 32  1  0  0  0  0
 36 35  2  0  0  0  0
M  END
>  <MODEL>
9

>  <REMARK>
 VINA RESULT:      -5.3      3.037      6.280
  Name = 
  8 active torsions:
  status: ('A' for Active; 'I' for Inactive)
    1  A    between atoms: C_6  and  C_12
    2  A    between atoms: C_12  and  C_34
    3  A    between atoms: C_13  and  N_15
    4  A    between atoms: C_13  and  C_20
    5  A    between atoms: C_17  and  C_24
    6  A    between atoms: N_19  and  C_26
    7  A    between atoms: C_20  and  C_34
    8  A    between atoms: C_22  and  C_26
                            x       y       z     vdW  Elec       q    Type
                         _______ _______ _______ _____ _____    ______ ____

>  <TORSDO>
F 8

$$$$
