=
 OpenBabel11042421553D

 47 52  0  0  1  0  0  0  0  0999 V2000
  160.8940  206.8960  148.2490 C   0  0  0  0  0  2  0  0  0  0  0  0
  162.3110  206.3240  148.1260 C   0  0  1  0  0  3  0  0  0  0  0  0
  158.6540  211.8600  153.2650 S   0  0  0  0  0  0  0  0  0  0  0  0
  158.0680  213.4220  152.8290 N   0  0  0  0  0  0  0  0  0  0  0  0
  161.4680  213.8040  149.0120 N   0  0  0  0  0  0  0  0  0  0  0  0
  161.3430  211.2390  153.1120 C   0  0  0  0  0  2  0  0  0  0  0  0
  158.6880  214.2800  152.0880 C   0  0  0  0  0  3  0  0  0  0  0  0
  160.0860  212.9200  150.6890 O   0  0  0  0  0  0  0  0  0  0  0  0
  162.3170  213.6860  147.8160 C   0  0  1  0  0  3  0  0  0  0  0  0
  161.0850  208.9410  149.6790 C   0  0  2  0  0  3  0  0  0  0  0  0
  161.3860  211.4050  149.2370 C   0  0  0  0  0  0  0  0  0  0  0  0
  158.6500  210.9700  152.0530 O   0  0  0  0  0  0  0  0  0  0  0  0
  160.3020  211.9630  153.9850 C   0  0  2  0  0  3  0  0  0  0  0  0
  160.4330  210.0990  155.6040 C   0  0  0  0  0  3  0  0  0  0  0  0
  160.0510  214.0860  151.4960 C   0  0  0  0  0  2  0  0  0  0  0  0
  160.5260  209.1420  154.4470 C   0  0  0  0  0  2  0  0  0  0  0  0
  161.3490  209.7350  153.3350 C   0  0  0  0  0  0  0  0  0  0  0  0
  162.5240  208.6970  150.1700 C   0  0  2  0  0  3  0  0  0  0  0  0
  160.8700  208.4200  148.2610 C   0  0  0  0  0  2  0  0  0  0  0  0
  162.7800  207.3250  150.2890 O   0  0  0  0  0  0  0  0  0  0  0  0
  163.2140  212.4400  147.9400 C   0  0  0  0  0  2  0  0  0  0  0  0
  163.3480  206.9640  149.0610 C   0  0  0  0  0  2  0  0  0  0  0  0
  162.4170  211.2500  148.3960 C   0  0  0  0  0  3  0  0  0  0  0  0
  160.6950  210.3130  149.7830 O   0  0  0  0  0  0  0  0  0  0  0  0
  160.9850  212.7650  149.6370 C   0  0  0  0  0  0  0  0  0  0  0  0
  162.0050  208.9410  152.5600 N   0  0  0  0  0  0  0  0  0  0  0  0
  160.3250  211.4180  155.3910 C   0  0  0  0  0  3  0  0  0  0  0  0
  157.7040  211.2800  154.2750 O   0  0  0  0  0  0  0  0  0  0  0  0
  162.8360  209.4190  151.4800 C   0  0  0  0  0  2  0  0  0  0  0  0
  161.2820  214.4530  144.2800 C   0  0  0  0  0  2  0  0  0  0  0  0
  162.1950  214.2960  145.5100 C   0  0  0  0  0  2  0  0  0  0  0  0
  161.4880  213.6130  146.6040 N   0  0  0  0  0  0  0  0  0  0  0  0
  160.2260  214.3270  146.8460 C   0  0  0  0  0  2  0  0  0  0  0  0
  159.4080  214.4520  145.5490 C   0  0  0  0  0  2  0  0  0  0  0  0
  160.0520  213.7970  144.4800 O   0  0  0  0  0  0  0  0  0  0  0  0
  163.1890  204.1160  147.8030 O   0  0  0  0  0  0  0  0  0  0  0  0
  160.5050  203.0650  149.6050 C   0  0  2  0  0  0  0  0  0  0  0  0
  162.2760  204.8390  148.2860 C   0  0  0  0  0  0  0  0  0  0  0  0
  161.2230  204.2400  149.0330 N   0  0  0  0  0  0  0  0  0  0  0  0
  159.9800  204.3160  149.8630 C   0  0  0  0  0  2  0  0  0  0  0  0
  161.3060  202.4000  150.6880 C   0  0  0  0  0  0  0  0  0  0  0  0
  161.6840  203.1600  151.9170 C   0  0  0  0  0  1  0  0  0  0  0  0
  161.6820  201.2460  150.5530 O   0  0  0  0  0  0  0  0  0  0  0  0
  159.8510  202.2250  148.5070 C   0  0  0  0  0  2  0  0  0  0  0  0
  161.1240  200.3860  147.5980 O   0  0  0  0  0  1  0  0  0  0  0  0
  160.2950  201.9890  146.0280 C   0  0  0  0  0  1  0  0  0  0  0  0
  160.8240  201.7380  147.4290 C   0  0  1  0  0  3  0  0  0  0  0  0
  1 19  1  0  0  0  0
  2  1  1  0  0  0  0
  2 38  1  1  0  0  0
  2 22  1  0  0  0  0
  3 13  1  0  0  0  0
  3 28  2  0  0  0  0
  4  3  1  0  0  0  0
  5 25  2  0  0  0  0
  6 17  1  0  0  0  0
  7  4  2  0  0  0  0
  8 15  1  0  0  0  0
  9 32  1  6  0  0  0
  9 21  1  0  0  0  0
  9  5  1  0  0  0  0
 10 19  1  6  0  0  0
 10 24  1  0  0  0  0
 10 18  1  0  0  0  0
 11 25  1  0  0  0  0
 11 24  1  0  0  0  0
 12  3  2  0  0  0  0
 13  6  1  6  0  0  0
 13 27  1  0  0  0  0
 15  7  1  0  0  0  0
 16 14  1  0  0  0  0
 17 16  1  0  0  0  0
 18 20  1  0  0  0  0
 18 29  1  1  0  0  0
 21 23  1  0  0  0  0
 22 20  1  0  0  0  0
 23 11  2  0  0  0  0
 25  8  1  0  0  0  0
 26 17  2  0  0  0  0
 27 14  2  0  0  0  0
 29 26  1  0  0  0  0
 30 35  1  0  0  0  0
 30 31  1  0  0  0  0
 31 32  1  0  0  0  0
 32 33  1  0  0  0  0
 34 33  1  0  0  0  0
 35 34  1  0  0  0  0
 36 38  2  0  0  0  0
 37 44  1  6  0  0  0
 37 40  1  0  0  0  0
 37 41  1  0  0  0  0
 38 39  1  0  0  0  0
 39 37  1  0  0  0  0
 39 40  1  0  0  0  0
 41 42  1  0  0  0  0
 43 41  2  0  0  0  0
 47 46  1  6  0  0  0
 47 45  1  0  0  0  0
 47 44  1  0  0  0  0
M  END
>  <MODEL>
1

>  <REMARK>
 VINA RESULT:      -0.4      0.000      0.000
  Name = 
  5 active torsions:
  status: ('A' for Active; 'I' for Inactive)
    1  A    between atoms: C_4  and  C_18
    2  A    between atoms: C_5  and  C_11
    3  A    between atoms: C_11  and  C_36
    4  A    between atoms: C_16  and  N_29
    5  A    between atoms: C_36  and  C_47
                            x       y       z     vdW  Elec       q    Type
                         _______ _______ _______ _____ _____    ______ ____

>  <TORSDO>
F 5

$$$$
=
 OpenBabel11042421553D

 47 52  0  0  1  0  0  0  0  0999 V2000
  160.6230  206.4560  149.6140 C   0  0  0  0  0  2  0  0  0  0  0  0
  162.0120  205.8160  149.7200 C   0  0  1  0  0  3  0  0  0  0  0  0
  158.2230  212.2610  153.5340 S   0  0  0  0  0  0  0  0  0  0  0  0
  157.7630  213.7510  152.8000 N   0  0  0  0  0  0  0  0  0  0  0  0
  161.5030  213.3680  149.3150 N   0  0  0  0  0  0  0  0  0  0  0  0
  160.8760  211.5170  153.7400 C   0  0  0  0  0  2  0  0  0  0  0  0
  158.4910  214.4510  151.9940 C   0  0  0  0  0  3  0  0  0  0  0  0
  159.9320  212.8260  150.9710 O   0  0  0  0  0  0  0  0  0  0  0  0
  162.4460  213.0220  148.2400 C   0  0  1  0  0  3  0  0  0  0  0  0
  160.7980  208.6990  150.7100 C   0  0  2  0  0  3  0  0  0  0  0  0
  161.2710  211.0440  149.9110 C   0  0  0  0  0  0  0  0  0  0  0  0
  158.2770  211.1850  152.4850 O   0  0  0  0  0  0  0  0  0  0  0  0
  159.8040  212.4150  154.3830 C   0  0  2  0  0  3  0  0  0  0  0  0
  159.6900  210.8380  156.2840 C   0  0  0  0  0  3  0  0  0  0  0  0
  159.8890  214.1090  151.5750 C   0  0  0  0  0  2  0  0  0  0  0  0
  159.8320  209.7010  155.3090 C   0  0  0  0  0  2  0  0  0  0  0  0
  160.7810  210.0710  154.2010 C   0  0  0  0  0  0  0  0  0  0  0  0
  162.1730  208.4820  151.3690 C   0  0  2  0  0  3  0  0  0  0  0  0
  160.6810  207.9610  149.3790 C   0  0  0  0  0  2  0  0  0  0  0  0
  162.3420  207.1400  151.7300 O   0  0  0  0  0  0  0  0  0  0  0  0
  163.2600  211.7790  148.6470 C   0  0  0  0  0  2  0  0  0  0  0  0
  162.9960  206.5600  150.6360 C   0  0  0  0  0  2  0  0  0  0  0  0
  162.3620  210.7120  149.2090 C   0  0  0  0  0  3  0  0  0  0  0  0
  160.4750  210.0840  150.5560 O   0  0  0  0  0  0  0  0  0  0  0  0
  160.9110  212.4660  150.0480 C   0  0  0  0  0  0  0  0  0  0  0  0
  161.4590  209.1350  153.6290 N   0  0  0  0  0  0  0  0  0  0  0  0
  159.6730  212.1080  155.8530 C   0  0  0  0  0  3  0  0  0  0  0  0
  157.1570  211.8910  154.5280 O   0  0  0  0  0  0  0  0  0  0  0  0
  162.4070  209.3960  152.5710 C   0  0  0  0  0  2  0  0  0  0  0  0
  161.7480  213.2750  144.5510 C   0  0  0  0  0  2  0  0  0  0  0  0
  162.5440  213.2860  145.8680 C   0  0  0  0  0  2  0  0  0  0  0  0
  161.7250  212.7830  146.9810 N   0  0  0  0  0  0  0  0  0  0  0  0
  160.4680  213.5450  147.0010 C   0  0  0  0  0  2  0  0  0  0  0  0
  159.7700  213.4900  145.6310 C   0  0  0  0  0  2  0  0  0  0  0  0
  160.4860  212.6740  144.7320 O   0  0  0  0  0  0  0  0  0  0  0  0
  162.2990  203.9750  151.2300 O   0  0  0  0  0  0  0  0  0  0  0  0
  160.7470  202.1140  148.8460 C   0  0  2  0  0  0  0  0  0  0  0  0
  161.8820  204.3800  150.1110 C   0  0  0  0  0  0  0  0  0  0  0  0
  161.2360  203.4700  149.2280 N   0  0  0  0  0  0  0  0  0  0  0  0
  160.5130  203.1460  147.9590 C   0  0  0  0  0  2  0  0  0  0  0  0
  159.6120  201.6680  149.7240 C   0  0  0  0  0  0  0  0  0  0  0  0
  158.3170  201.2390  149.1170 C   0  0  0  0  0  1  0  0  0  0  0  0
  159.7320  201.6880  150.9390 O   0  0  0  0  0  0  0  0  0  0  0  0
  161.9110  201.1660  148.5530 C   0  0  0  0  0  2  0  0  0  0  0  0
  161.5410  199.1240  147.3190 O   0  0  0  0  0  1  0  0  0  0  0  0
  160.8190  201.1510  146.2720 C   0  0  0  0  0  1  0  0  0  0  0  0
  161.8320  200.4830  147.1850 C   0  0  1  0  0  3  0  0  0  0  0  0
  1  2  1  0  0  0  0
  2 38  1  1  0  0  0
  2 22  1  0  0  0  0
  3 13  1  0  0  0  0
  3 28  2  0  0  0  0
  4  3  1  0  0  0  0
  5 25  2  0  0  0  0
  6 17  1  0  0  0  0
  7  4  2  0  0  0  0
  8 15  1  0  0  0  0
  9 32  1  6  0  0  0
  9 21  1  0  0  0  0
  9  5  1  0  0  0  0
 10 19  1  6  0  0  0
 10 18  1  0  0  0  0
 11 25  1  0  0  0  0
 11 24  1  0  0  0  0
 12  3  2  0  0  0  0
 13  6  1  6  0  0  0
 13 27  1  0  0  0  0
 15  7  1  0  0  0  0
 16 14  1  0  0  0  0
 17 16  1  0  0  0  0
 18 20  1  0  0  0  0
 18 29  1  1  0  0  0
 19  1  1  0  0  0  0
 21 23  1  0  0  0  0
 22 20  1  0  0  0  0
 23 11  2  0  0  0  0
 24 10  1  0  0  0  0
 25  8  1  0  0  0  0
 26 17  2  0  0  0  0
 27 14  2  0  0  0  0
 29 26  1  0  0  0  0
 30 35  1  0  0  0  0
 30 31  1  0  0  0  0
 31 32  1  0  0  0  0
 32 33  1  0  0  0  0
 34 33  1  0  0  0  0
 35 34  1  0  0  0  0
 37 44  1  6  0  0  0
 37 39  1  0  0  0  0
 37 41  1  0  0  0  0
 38 36  2  0  0  0  0
 39 38  1  0  0  0  0
 40 37  1  0  0  0  0
 40 39  1  0  0  0  0
 41 43  2  0  0  0  0
 42 41  1  0  0  0  0
 47 46  1  6  0  0  0
 47 45  1  0  0  0  0
 47 44  1  0  0  0  0
M  END
>  <MODEL>
2

>  <REMARK>
 VINA RESULT:       0.3      1.268      1.483
  Name = 
  5 active torsions:
  status: ('A' for Active; 'I' for Inactive)
    1  A    between atoms: C_4  and  C_18
    2  A    between atoms: C_5  and  C_11
    3  A    between atoms: C_11  and  C_36
    4  A    between atoms: C_16  and  N_29
    5  A    between atoms: C_36  and  C_47
                            x       y       z     vdW  Elec       q    Type
                         _______ _______ _______ _____ _____    ______ ____

>  <TORSDO>
F 5

$$$$
=
 OpenBabel11042421553D

 47 52  0  0  1  0  0  0  0  0999 V2000
  161.8320  208.3960  151.3930 C   0  0  0  0  0  2  0  0  0  0  0  0
  162.1830  206.9490  151.7580 C   0  0  1  0  0  3  0  0  0  0  0  0
  157.3640  212.8680  155.2480 S   0  0  0  0  0  0  0  0  0  0  0  0
  157.9140  214.3370  155.9650 N   0  0  0  0  0  0  0  0  0  0  0  0
  162.4280  212.2360  157.1840 N   0  0  0  0  0  0  0  0  0  0  0  0
  158.0340  210.4090  156.3160 C   0  0  0  0  0  2  0  0  0  0  0  0
  158.9160  214.4530  156.7720 C   0  0  0  0  0  3  0  0  0  0  0  0
  160.3470  212.6220  156.1710 O   0  0  0  0  0  0  0  0  0  0  0  0
  163.7510  211.5960  157.2570 C   0  0  1  0  0  3  0  0  0  0  0  0
  160.8610  209.4250  153.4570 C   0  0  2  0  0  3  0  0  0  0  0  0
  161.7800  210.7750  155.3790 C   0  0  0  0  0  0  0  0  0  0  0  0
  158.3700  212.4050  154.2300 O   0  0  0  0  0  0  0  0  0  0  0  0
  157.0790  211.6020  156.4980 C   0  0  2  0  0  3  0  0  0  0  0  0
  155.2390  210.2060  155.6160 C   0  0  0  0  0  3  0  0  0  0  0  0
  159.7680  213.3210  157.2610 C   0  0  0  0  0  2  0  0  0  0  0  0
  156.2040  209.6210  154.6190 C   0  0  0  0  0  2  0  0  0  0  0  0
  157.5620  209.4410  155.2410 C   0  0  0  0  0  0  0  0  0  0  0  0
  160.6870  208.1200  154.2570 C   0  0  2  0  0  3  0  0  0  0  0  0
  162.0780  209.3720  152.5380 C   0  0  0  0  0  2  0  0  0  0  0  0
  160.3960  207.0510  153.4010 O   0  0  0  0  0  0  0  0  0  0  0  0
  163.6280  210.1090  156.8760 C   0  0  0  0  0  2  0  0  0  0  0  0
  161.6420  206.4780  153.1160 C   0  0  0  0  0  2  0  0  0  0  0  0
  162.7990  209.9430  155.6320 C   0  0  0  0  0  3  0  0  0  0  0  0
  160.9070  210.5810  154.2980 O   0  0  0  0  0  0  0  0  0  0  0  0
  161.5380  211.9100  156.2870 C   0  0  0  0  0  0  0  0  0  0  0  0
  158.3210  208.4930  154.8070 N   0  0  0  0  0  0  0  0  0  0  0  0
  155.6460  211.1350  156.4920 C   0  0  0  0  0  3  0  0  0  0  0  0
  156.0750  213.1620  154.5320 O   0  0  0  0  0  0  0  0  0  0  0  0
  159.6310  208.2330  155.3560 C   0  0  0  0  0  2  0  0  0  0  0  0
  166.5630  211.9090  154.7760 C   0  0  0  0  0  2  0  0  0  0  0  0
  165.3950  211.2770  155.5540 C   0  0  0  0  0  2  0  0  0  0  0  0
  164.7040  212.2830  156.3740 N   0  0  0  0  0  0  0  0  0  0  0  0
  165.7110  212.9650  157.2000 C   0  0  0  0  0  2  0  0  0  0  0  0
  166.8430  213.5340  156.3280 C   0  0  0  0  0  2  0  0  0  0  0  0
  166.5910  213.3060  154.9600 O   0  0  0  0  0  0  0  0  0  0  0  0
  161.1920  204.9370  150.9100 O   0  0  0  0  0  0  0  0  0  0  0  0
  161.9030  206.1920  147.8310 C   0  0  2  0  0  0  0  0  0  0  0  0
  161.7660  206.0310  150.6560 C   0  0  0  0  0  0  0  0  0  0  0  0
  161.9760  206.4190  149.3030 N   0  0  0  0  0  0  0  0  0  0  0  0
  162.4410  207.3890  148.2630 C   0  0  0  0  0  2  0  0  0  0  0  0
  160.4830  206.1930  147.3420 C   0  0  0  0  0  0  0  0  0  0  0  0
  160.1930  206.2520  145.8780 C   0  0  0  0  0  1  0  0  0  0  0  0
  159.5580  206.1810  148.1400 O   0  0  0  0  0  0  0  0  0  0  0  0
  162.8670  205.0890  147.3910 C   0  0  0  0  0  2  0  0  0  0  0  0
  163.4150  204.1580  145.2320 O   0  0  0  0  0  1  0  0  0  0  0  0
  161.8480  202.9300  146.5590 C   0  0  0  0  0  1  0  0  0  0  0  0
  162.3920  204.2940  146.1720 C   0  0  1  0  0  3  0  0  0  0  0  0
  1  2  1  0  0  0  0
  1 19  1  0  0  0  0
  2 38  1  6  0  0  0
  2 22  1  0  0  0  0
  3  4  1  0  0  0  0
  3 13  1  0  0  0  0
  4  7  2  0  0  0  0
  5  9  1  0  0  0  0
  7 15  1  0  0  0  0
  8 25  1  0  0  0  0
  8 15  1  0  0  0  0
  9 32  1  6  0  0  0
 10 19  1  1  0  0  0
 10 18  1  0  0  0  0
 10 24  1  0  0  0  0
 11 23  2  0  0  0  0
 11 25  1  0  0  0  0
 12  3  2  0  0  0  0
 13  6  1  6  0  0  0
 14 27  2  0  0  0  0
 16 17  1  0  0  0  0
 16 14  1  0  0  0  0
 17  6  1  0  0  0  0
 18 29  1  1  0  0  0
 20 18  1  0  0  0  0
 21  9  1  0  0  0  0
 22 20  1  0  0  0  0
 23 21  1  0  0  0  0
 24 11  1  0  0  0  0
 25  5  2  0  0  0  0
 26 17  2  0  0  0  0
 26 29  1  0  0  0  0
 27 13  1  0  0  0  0
 28  3  2  0  0  0  0
 30 35  1  0  0  0  0
 30 31  1  0  0  0  0
 31 32  1  0  0  0  0
 32 33  1  0  0  0  0
 34 33  1  0  0  0  0
 35 34  1  0  0  0  0
 37 44  1  6  0  0  0
 37 40  1  0  0  0  0
 37 39  1  0  0  0  0
 38 36  2  0  0  0  0
 39 38  1  0  0  0  0
 40 39  1  0  0  0  0
 41 37  1  0  0  0  0
 41 43  2  0  0  0  0
 42 41  1  0  0  0  0
 45 47  1  0  0  0  0
 47 46  1  1  0  0  0
 47 44  1  0  0  0  0
M  END
>  <MODEL>
3

>  <REMARK>
 VINA RESULT:       2.1      4.177      6.322
  Name = 
  5 active torsions:
  status: ('A' for Active; 'I' for Inactive)
    1  A    between atoms: C_4  and  C_18
    2  A    between atoms: C_5  and  C_11
    3  A    between atoms: C_11  and  C_36
    4  A    between atoms: C_16  and  N_29
    5  A    between atoms: C_36  and  C_47
                            x       y       z     vdW  Elec       q    Type
                         _______ _______ _______ _____ _____    ______ ____

>  <TORSDO>
F 5

$$$$
