=
 OpenBabel11042422373D

 33 38  0  0  1  0  0  0  0  0999 V2000
  160.5650  211.2570  148.1900 N   0  0  0  0  0  2  0  0  0  0  0  0
  162.3440  209.9370  152.8870 C   0  0  0  0  0  0  0  0  0  0  0  0
  160.5840  212.7170  145.0470 C   0  0  0  0  0  2  0  0  0  0  0  0
  159.8520  209.9770  152.5210 C   0  0  0  0  0  0  0  0  0  0  0  0
  161.1450  212.3500  147.4710 C   0  0  0  0  0  0  0  0  0  0  0  0
  161.3110  209.3690  150.5460 C   0  0  2  0  0  3  0  0  0  0  0  0
  158.9890  210.9780  152.6620 C   0  0  0  0  0  2  0  0  0  0  0  0
  161.5000  213.1050  144.1650 C   0  0  0  0  0  3  0  0  0  0  0  0
  162.0820  210.5790  150.1130 C   0  0  0  0  0  0  0  0  0  0  0  0
  163.2090  214.1930  147.1360 N   0  0  0  0  0  0  0  0  0  0  0  0
  162.1580  212.4350  148.3190 C   0  0  0  0  0  0  0  0  0  0  0  0
  163.2160  213.4420  148.2130 C   0  0  0  0  0  3  0  0  0  0  0  0
  161.6740  211.2910  149.0670 C   0  0  0  0  0  0  0  0  0  0  0  0
  163.3730  210.9140  150.8040 C   0  0  0  0  0  2  0  0  0  0  0  0
  160.8800  213.3210  146.3750 C   0  0  1  0  0  3  0  0  0  0  0  0
  162.5330  213.8930  144.8330 C   0  0  0  0  0  3  0  0  0  0  0  0
  162.1990  214.0120  146.1050 C   0  0  2  0  0  3  0  0  0  0  0  0
  161.1920  209.4030  152.0710 C   0  0  1  0  0  0  0  0  0  0  0  0
  160.2670  208.5100  152.6970 C   0  0  0  0  0  2  0  0  0  0  0  0
  163.3110  210.6540  152.2890 C   0  0  0  0  0  3  0  0  0  0  0  0
  161.6190  207.7610  148.6740 C   0  0  2  0  0  3  0  0  0  0  0  0
  162.0360  208.1050  150.0930 C   0  0  2  0  0  3  0  0  0  0  0  0
  161.0390  206.9930  149.8420 C   0  0  0  0  0  2  0  0  0  0  0  0
  162.7110  206.9640  148.0430 C   0  0  0  0  0  3  0  0  0  0  0  0
  162.5120  205.9880  147.1550 C   0  0  0  0  0  3  0  0  0  0  0  0
  160.8040  204.2920  147.0020 C   0  0  0  0  0  2  0  0  0  0  0  0
  160.3700  206.3100  145.8990 O   0  0  0  0  0  1  0  0  0  0  0  0
  161.2050  205.5090  146.6700 C   0  0  0  0  0  0  0  0  0  0  0  0
  162.3690  209.7070  154.2680 O   0  0  0  0  0  0  0  0  0  0  0  0
  162.1980  210.7390  155.2320 C   0  0  0  0  0  2  0  0  0  0  0  0
  162.5540  209.2610  157.0650 O   0  0  0  0  0  1  0  0  0  0  0  0
  162.8600  210.3470  156.5040 C   0  0  0  0  0  0  0  0  0  0  0  0
  163.8450  211.1600  157.0530 O   0  0  0  0  0  0  0  0  0  0  0  0
  1 13  1  0  0  0  0
  2 29  1  0  0  0  0
  4  7  2  0  0  0  0
  4 19  1  0  0  0  0
  5  1  1  0  0  0  0
  5 11  2  0  0  0  0
  6  9  1  1  0  0  0
  6 18  1  0  0  0  0
  8 16  2  0  0  0  0
  8  3  1  0  0  0  0
  9 14  1  0  0  0  0
 10 12  2  0  0  0  0
 11 13  1  0  0  0  0
 12 11  1  0  0  0  0
 13  9  2  0  0  0  0
 14 20  1  0  0  0  0
 15  3  1  6  0  0  0
 15  5  1  0  0  0  0
 17 16  1  6  0  0  0
 17 15  1  0  0  0  0
 17 10  1  0  0  0  0
 18  4  1  0  0  0  0
 18 19  1  1  0  0  0
 18  2  1  0  0  0  0
 20  2  2  0  0  0  0
 21 24  1  6  0  0  0
 21 23  1  0  0  0  0
 21 22  1  0  0  0  0
 22 23  1  1  0  0  0
 22  6  1  0  0  0  0
 25 24  2  0  0  0  0
 27 28  1  0  0  0  0
 28 26  2  0  0  0  0
 28 25  1  0  0  0  0
 29 30  1  0  0  0  0
 30 32  1  0  0  0  0
 32 33  2  0  0  0  0
 32 31  1  0  0  0  0
M  END
>  <MODEL>
1

>  <REMARK>
 VINA RESULT:      -2.0      0.000      0.000
  Name = 
  6 active torsions:
  status: ('A' for Active; 'I' for Inactive)
    1  A    between atoms: C_2  and  O_19
    2  A    between atoms: C_4  and  C_7
    3  A    between atoms: C_9  and  C_12
    4  A    between atoms: C_11  and  C_25
    5  A    between atoms: O_19  and  C_25
    6  A    between atoms: C_24  and  C_28
                            x       y       z     vdW  Elec       q    Type
                         _______ _______ _______ _____ _____    ______ ____

>  <TORSDO>
F 6

$$$$
=
 OpenBabel11042422373D

 33 38  0  0  1  0  0  0  0  0999 V2000
  159.7280  212.6630  154.1430 N   0  0  0  0  0  2  0  0  0  0  0  0
  161.4850  208.5840  151.4520 C   0  0  0  0  0  0  0  0  0  0  0  0
  157.6530  214.4530  156.2650 C   0  0  0  0  0  2  0  0  0  0  0  0
  162.1180  210.8940  150.6690 C   0  0  0  0  0  0  0  0  0  0  0  0
  158.3770  212.7000  154.6130 C   0  0  0  0  0  0  0  0  0  0  0  0
  161.7880  210.5530  153.1550 C   0  0  2  0  0  3  0  0  0  0  0  0
  161.4850  211.7100  149.8330 C   0  0  0  0  0  2  0  0  0  0  0  0
  156.8150  214.1770  157.2590 C   0  0  0  0  0  3  0  0  0  0  0  0
  160.3360  210.3010  153.4290 C   0  0  0  0  0  0  0  0  0  0  0  0
  155.9700  211.3960  155.1430 N   0  0  0  0  0  0  0  0  0  0  0  0
  158.1860  211.4240  154.3130 C   0  0  0  0  0  0  0  0  0  0  0  0
  156.9090  210.7330  154.5080 C   0  0  0  0  0  3  0  0  0  0  0  0
  159.5620  211.2840  153.8780 C   0  0  0  0  0  0  0  0  0  0  0  0
  159.7940  208.9070  153.2920 C   0  0  0  0  0  2  0  0  0  0  0  0
  157.3080  213.6260  155.0760 C   0  0  1  0  0  3  0  0  0  0  0  0
  155.9260  213.0830  156.8740 C   0  0  0  0  0  3  0  0  0  0  0  0
  156.2080  212.7460  155.6290 C   0  0  2  0  0  3  0  0  0  0  0  0
  162.1410  209.8920  151.8210 C   0  0  1  0  0  0  0  0  0  0  0  0
  163.3890  210.2270  151.2100 C   0  0  0  0  0  2  0  0  0  0  0  0
  160.3920  208.1730  152.1180 C   0  0  0  0  0  3  0  0  0  0  0  0
  162.2680  210.6440  155.5930 C   0  0  2  0  0  3  0  0  0  0  0  0
  162.6350  209.9710  154.2820 C   0  0  2  0  0  3  0  0  0  0  0  0
  163.5350  211.0410  154.8650 C   0  0  0  0  0  2  0  0  0  0  0  0
  162.6020  209.7140  156.7100 C   0  0  0  0  0  3  0  0  0  0  0  0
  161.7380  208.8590  157.2610 C   0  0  0  0  0  3  0  0  0  0  0  0
  159.8760  207.5070  156.5370 C   0  0  0  0  0  2  0  0  0  0  0  0
  159.4280  209.7680  156.9380 O   0  0  0  0  0  1  0  0  0  0  0  0
  160.3190  208.7030  156.8940 C   0  0  0  0  0  0  0  0  0  0  0  0
  162.0060  207.8320  150.3910 O   0  0  0  0  0  0  0  0  0  0  0  0
  161.4290  207.8170  149.0910 C   0  0  0  0  0  2  0  0  0  0  0  0
  160.5010  206.1710  147.6420 O   0  0  0  0  0  0  0  0  0  0  0  0
  160.8810  206.4650  148.8070 C   0  0  0  0  0  0  0  0  0  0  0  0
  160.8240  205.5110  149.8170 O   0  0  0  0  0  1  0  0  0  0  0  0
  1  5  1  0  0  0  0
  2 18  1  0  0  0  0
  2 20  2  0  0  0  0
  3  8  1  0  0  0  0
  4 19  1  0  0  0  0
  4 18  1  0  0  0  0
  5 15  1  0  0  0  0
  6  9  1  1  0  0  0
  6 22  1  0  0  0  0
  7  4  2  0  0  0  0
  9 13  2  0  0  0  0
 10 17  1  0  0  0  0
 11 12  1  0  0  0  0
 11  5  2  0  0  0  0
 12 10  2  0  0  0  0
 13  1  1  0  0  0  0
 13 11  1  0  0  0  0
 14  9  1  0  0  0  0
 15 17  1  0  0  0  0
 15  3  1  1  0  0  0
 16  8  2  0  0  0  0
 17 16  1  1  0  0  0
 18 19  1  1  0  0  0
 18  6  1  0  0  0  0
 20 14  1  0  0  0  0
 21 24  1  1  0  0  0
 22 23  1  6  0  0  0
 22 21  1  0  0  0  0
 23 21  1  0  0  0  0
 24 25  2  0  0  0  0
 26 28  2  0  0  0  0
 28 27  1  0  0  0  0
 28 25  1  0  0  0  0
 29  2  1  0  0  0  0
 30 29  1  0  0  0  0
 31 32  2  0  0  0  0
 32 30  1  0  0  0  0
 32 33  1  0  0  0  0
M  END
>  <MODEL>
2

>  <REMARK>
 VINA RESULT:      -2.0      3.249      8.245
  Name = 
  6 active torsions:
  status: ('A' for Active; 'I' for Inactive)
    1  A    between atoms: C_2  and  O_19
    2  A    between atoms: C_4  and  C_7
    3  A    between atoms: C_9  and  C_12
    4  A    between atoms: C_11  and  C_25
    5  A    between atoms: O_19  and  C_25
    6  A    between atoms: C_24  and  C_28
                            x       y       z     vdW  Elec       q    Type
                         _______ _______ _______ _____ _____    ______ ____

>  <TORSDO>
F 6

$$$$
=
 OpenBabel11042422373D

 33 38  0  0  1  0  0  0  0  0999 V2000
  164.3820  210.9850  154.1930 N   0  0  0  0  0  2  0  0  0  0  0  0
  159.5460  211.0000  156.0870 C   0  0  0  0  0  0  0  0  0  0  0  0
  167.8380  211.2440  154.2200 C   0  0  0  0  0  2  0  0  0  0  0  0
  159.8680  211.4470  153.6280 C   0  0  0  0  0  0  0  0  0  0  0  0
  165.4480  211.6160  154.9100 C   0  0  0  0  0  0  0  0  0  0  0  0
  161.5220  209.9020  154.7590 C   0  0  2  0  0  3  0  0  0  0  0  0
  160.0760  212.5960  152.9940 C   0  0  0  0  0  2  0  0  0  0  0  0
  168.8120  211.1010  155.1130 C   0  0  0  0  0  3  0  0  0  0  0  0
  162.3650  210.6960  155.7120 C   0  0  0  0  0  0  0  0  0  0  0  0
  166.4400  212.7440  157.2580 N   0  0  0  0  0  0  0  0  0  0  0  0
  164.6980  211.7650  155.9910 C   0  0  0  0  0  0  0  0  0  0  0  0
  165.1670  212.4240  157.2120 C   0  0  0  0  0  3  0  0  0  0  0  0
  163.5880  211.0780  155.3600 C   0  0  0  0  0  0  0  0  0  0  0  0
  161.8530  210.9610  157.0990 C   0  0  0  0  0  2  0  0  0  0  0  0
  166.8120  212.1860  154.7450 C   0  0  1  0  0  3  0  0  0  0  0  0
  168.4790  211.8290  156.3360 C   0  0  0  0  0  3  0  0  0  0  0  0
  167.3260  212.4440  156.1450 C   0  0  2  0  0  3  0  0  0  0  0  0
  160.1050  210.4800  154.7840 C   0  0  1  0  0  0  0  0  0  0  0  0
  159.1920  210.0760  153.7610 C   0  0  0  0  0  2  0  0  0  0  0  0
  160.3720  211.2450  157.1180 C   0  0  0  0  0  3  0  0  0  0  0  0
  160.7720  207.6140  154.1370 C   0  0  2  0  0  3  0  0  0  0  0  0
  161.5100  208.4360  155.1790 C   0  0  2  0  0  3  0  0  0  0  0  0
  160.0900  207.9780  155.4390 C   0  0  0  0  0  2  0  0  0  0  0  0
  161.2680  206.2090  154.2070 C   0  0  0  0  0  3  0  0  0  0  0  0
  161.6050  205.4770  153.1430 C   0  0  0  0  0  3  0  0  0  0  0  0
  160.8320  205.1650  150.8800 C   0  0  0  0  0  2  0  0  0  0  0  0
  162.1230  207.0740  151.2860 O   0  0  0  0  0  1  0  0  0  0  0  0
  161.5220  205.9040  151.7350 C   0  0  0  0  0  0  0  0  0  0  0  0
  158.1730  211.2560  156.1870 O   0  0  0  0  0  0  0  0  0  0  0  0
  157.6140  212.5600  156.0760 C   0  0  0  0  0  2  0  0  0  0  0  0
  156.1770  213.6380  154.5140 O   0  0  0  0  0  0  0  0  0  0  0  0
  156.5440  212.5560  155.0450 C   0  0  0  0  0  0  0  0  0  0  0  0
  155.9750  211.3540  154.6390 O   0  0  0  0  0  1  0  0  0  0  0  0
  1  5  1  0  0  0  0
  1 13  1  0  0  0  0
  2 29  1  0  0  0  0
  2 20  2  0  0  0  0
  3  8  1  0  0  0  0
  4 19  1  0  0  0  0
  4 18  1  0  0  0  0
  5 11  2  0  0  0  0
  6 18  1  0  0  0  0
  6 22  1  0  0  0  0
  6  9  1  1  0  0  0
  7  4  2  0  0  0  0
  8 16  2  0  0  0  0
  9 14  1  0  0  0  0
 11 12  1  0  0  0  0
 12 10  2  0  0  0  0
 13  9  2  0  0  0  0
 13 11  1  0  0  0  0
 14 20  1  0  0  0  0
 15  3  1  1  0  0  0
 15  5  1  0  0  0  0
 15 17  1  0  0  0  0
 17 16  1  1  0  0  0
 17 10  1  0  0  0  0
 18 19  1  6  0  0  0
 18  2  1  0  0  0  0
 21 24  1  1  0  0  0
 21 22  1  0  0  0  0
 21 23  1  0  0  0  0
 22 23  1  1  0  0  0
 25 24  2  0  0  0  0
 26 28  2  0  0  0  0
 27 28  1  0  0  0  0
 28 25  1  0  0  0  0
 30 29  1  0  0  0  0
 31 32  2  0  0  0  0
 32 30  1  0  0  0  0
 33 32  1  0  0  0  0
M  END
>  <MODEL>
3

>  <REMARK>
 VINA RESULT:      -1.4      4.966      7.377
  Name = 
  6 active torsions:
  status: ('A' for Active; 'I' for Inactive)
    1  A    between atoms: C_2  and  O_19
    2  A    between atoms: C_4  and  C_7
    3  A    between atoms: C_9  and  C_12
    4  A    between atoms: C_11  and  C_25
    5  A    between atoms: O_19  and  C_25
    6  A    between atoms: C_24  and  C_28
                            x       y       z     vdW  Elec       q    Type
                         _______ _______ _______ _____ _____    ______ ____

>  <TORSDO>
F 6

$$$$
=
 OpenBabel11042422373D

 33 38  0  0  1  0  0  0  0  0999 V2000
  161.6600  208.5860  150.1960 N   0  0  0  0  0  2  0  0  0  0  0  0
  161.0700  209.2090  155.3180 C   0  0  0  0  0  0  0  0  0  0  0  0
  161.5930  206.9660  147.1330 C   0  0  0  0  0  2  0  0  0  0  0  0
  162.7030  210.7030  154.1130 C   0  0  0  0  0  0  0  0  0  0  0  0
  161.7400  207.2770  149.6250 C   0  0  0  0  0  0  0  0  0  0  0  0
  160.6700  209.9180  152.8260 C   0  0  2  0  0  3  0  0  0  0  0  0
  163.9930  210.5170  153.8560 C   0  0  0  0  0  2  0  0  0  0  0  0
  160.9320  205.9490  146.5900 C   0  0  0  0  0  3  0  0  0  0  0  0
  160.7840  208.4440  152.5770 C   0  0  0  0  0  0  0  0  0  0  0  0
  161.4010  204.5190  149.8560 N   0  0  0  0  0  0  0  0  0  0  0  0
  161.3640  206.7060  150.7590 C   0  0  0  0  0  0  0  0  0  0  0  0
  161.2530  205.2560  150.9330 C   0  0  0  0  0  3  0  0  0  0  0  0
  161.1950  207.9980  151.3950 C   0  0  0  0  0  0  0  0  0  0  0  0
  160.3290  207.4830  153.6380 C   0  0  0  0  0  2  0  0  0  0  0  0
  162.2040  206.5350  148.4210 C   0  0  1  0  0  3  0  0  0  0  0  0
  160.9410  204.8050  147.4990 C   0  0  0  0  0  3  0  0  0  0  0  0
  161.6540  205.1320  148.5610 C   0  0  2  0  0  3  0  0  0  0  0  0
  161.2600  210.2140  154.2060 C   0  0  1  0  0  0  0  0  0  0  0  0
  161.5200  211.5750  154.5530 C   0  0  0  0  0  2  0  0  0  0  0  0
  160.6770  207.9570  155.0270 C   0  0  0  0  0  3  0  0  0  0  0  0
  159.1120  211.8550  152.7560 C   0  0  2  0  0  3  0  0  0  0  0  0
  159.2050  210.3400  152.7680 C   0  0  2  0  0  3  0  0  0  0  0  0
  158.8270  211.0880  154.0290 C   0  0  0  0  0  2  0  0  0  0  0  0
  157.8270  212.2430  152.1050 C   0  0  0  0  0  3  0  0  0  0  0  0
  157.7360  213.0190  151.0230 C   0  0  0  0  0  3  0  0  0  0  0  0
  158.8820  213.6080  148.9850 C   0  0  0  0  0  2  0  0  0  0  0  0
  159.8880  214.2980  150.9810 O   0  0  0  0  0  1  0  0  0  0  0  0
  158.8620  213.6450  150.3080 C   0  0  0  0  0  0  0  0  0  0  0  0
  161.3440  209.5900  156.6380 O   0  0  0  0  0  0  0  0  0  0  0  0
  162.6540  209.5930  157.1900 C   0  0  0  0  0  2  0  0  0  0  0  0
  162.3950  211.9580  157.2610 O   0  0  0  0  0  1  0  0  0  0  0  0
  163.1870  210.9810  157.2000 C   0  0  0  0  0  0  0  0  0  0  0  0
  164.5600  211.1980  157.1820 O   0  0  0  0  0  0  0  0  0  0  0  0
  1 13  1  0  0  0  0
  2 29  1  0  0  0  0
  4 18  1  0  0  0  0
  4 19  1  0  0  0  0
  5  1  1  0  0  0  0
  5 11  2  0  0  0  0
  6  9  1  1  0  0  0
  6 18  1  0  0  0  0
  7  4  2  0  0  0  0
  8  3  1  0  0  0  0
  8 16  2  0  0  0  0
  9 14  1  0  0  0  0
 10 12  2  0  0  0  0
 11 12  1  0  0  0  0
 11 13  1  0  0  0  0
 13  9  2  0  0  0  0
 14 20  1  0  0  0  0
 15  3  1  6  0  0  0
 15 17  1  0  0  0  0
 15  5  1  0  0  0  0
 17 16  1  6  0  0  0
 17 10  1  0  0  0  0
 18 19  1  1  0  0  0
 18  2  1  0  0  0  0
 20  2  2  0  0  0  0
 21 24  1  6  0  0  0
 21 22  1  0  0  0  0
 21 23  1  0  0  0  0
 22  6  1  0  0  0  0
 22 23  1  1  0  0  0
 25 24  2  0  0  0  0
 26 28  2  0  0  0  0
 28 27  1  0  0  0  0
 28 25  1  0  0  0  0
 29 30  1  0  0  0  0
 30 32  1  0  0  0  0
 32 31  1  0  0  0  0
 33 32  2  0  0  0  0
M  END
>  <MODEL>
4

>  <REMARK>
 VINA RESULT:      -1.1      3.288      6.243
  Name = 
  6 active torsions:
  status: ('A' for Active; 'I' for Inactive)
    1  A    between atoms: C_2  and  O_19
    2  A    between atoms: C_4  and  C_7
    3  A    between atoms: C_9  and  C_12
    4  A    between atoms: C_11  and  C_25
    5  A    between atoms: O_19  and  C_25
    6  A    between atoms: C_24  and  C_28
                            x       y       z     vdW  Elec       q    Type
                         _______ _______ _______ _____ _____    ______ ____

>  <TORSDO>
F 6

$$$$
=
 OpenBabel11042422373D

 33 38  0  0  1  0  0  0  0  0999 V2000
  161.5200  211.5330  151.9830 N   0  0  0  0  0  2  0  0  0  0  0  0
  161.1050  213.0350  147.0300 C   0  0  0  0  0  0  0  0  0  0  0  0
  160.4760  210.7110  155.1840 C   0  0  0  0  0  2  0  0  0  0  0  0
  163.3120  213.3690  148.1990 C   0  0  0  0  0  0  0  0  0  0  0  0
  160.4700  211.8010  152.9170 C   0  0  0  0  0  0  0  0  0  0  0  0
  161.9090  211.3850  148.9010 C   0  0  2  0  0  3  0  0  0  0  0  0
  163.7450  214.4000  148.9170 C   0  0  0  0  0  2  0  0  0  0  0  0
  159.3590  210.2710  155.7540 C   0  0  0  0  0  3  0  0  0  0  0  0
  160.6820  211.8760  149.6090 C   0  0  0  0  0  0  0  0  0  0  0  0
  157.8370  212.5590  153.4350 N   0  0  0  0  0  0  0  0  0  0  0  0
  159.6410  212.1710  151.9530 C   0  0  0  0  0  0  0  0  0  0  0  0
  158.2780  212.6470  152.2010 C   0  0  0  0  0  3  0  0  0  0  0  0
  160.6270  211.8620  150.9370 C   0  0  0  0  0  0  0  0  0  0  0  0
  159.4810  212.2810  148.8030 C   0  0  0  0  0  2  0  0  0  0  0  0
  160.1790  211.9220  154.3720 C   0  0  1  0  0  3  0  0  0  0  0  0
  158.2190  211.0610  155.2950 C   0  0  0  0  0  3  0  0  0  0  0  0
  158.6720  212.0030  154.4880 C   0  0  2  0  0  3  0  0  0  0  0  0
  162.2360  212.3720  147.7790 C   0  0  1  0  0  0  0  0  0  0  0  0
  163.5120  212.2730  147.1430 C   0  0  0  0  0  2  0  0  0  0  0  0
  159.8610  213.0080  147.5370 C   0  0  0  0  0  3  0  0  0  0  0  0
  161.9840  208.9470  149.3830 C   0  0  2  0  0  3  0  0  0  0  0  0
  161.6540  209.9920  148.3330 C   0  0  2  0  0  3  0  0  0  0  0  0
  162.9530  209.2170  148.2510 C   0  0  0  0  0  2  0  0  0  0  0  0
  161.1960  207.7150  149.0860 C   0  0  0  0  0  3  0  0  0  0  0  0
  160.8720  206.7930  149.9950 C   0  0  0  0  0  3  0  0  0  0  0  0
  162.0440  205.8530  151.8820 C   0  0  0  0  0  2  0  0  0  0  0  0
  160.8230  207.8090  152.2820 O   0  0  0  0  0  1  0  0  0  0  0  0
  161.2510  206.8070  151.4190 C   0  0  0  0  0  0  0  0  0  0  0  0
  161.3790  213.7020  145.8290 O   0  0  0  0  0  0  0  0  0  0  0  0
  160.5000  213.6840  144.7110 C   0  0  0  0  0  2  0  0  0  0  0  0
  160.0710  211.8480  143.2560 O   0  0  0  0  0  0  0  0  0  0  0  0
  160.9270  212.6240  143.7600 C   0  0  0  0  0  0  0  0  0  0  0  0
  162.2640  212.5130  143.3980 O   0  0  0  0  0  1  0  0  0  0  0  0
  1  5  1  0  0  0  0
  2 20  2  0  0  0  0
  2 18  1  0  0  0  0
  3  8  1  0  0  0  0
  4  7  2  0  0  0  0
  5 15  1  0  0  0  0
  6  9  1  6  0  0  0
  9 13  2  0  0  0  0
 10 17  1  0  0  0  0
 11 12  1  0  0  0  0
 11  5  2  0  0  0  0
 12 10  2  0  0  0  0
 13 11  1  0  0  0  0
 13  1  1  0  0  0  0
 14  9  1  0  0  0  0
 15 17  1  0  0  0  0
 15  3  1  1  0  0  0
 16  8  2  0  0  0  0
 17 16  1  6  0  0  0
 18 19  1  6  0  0  0
 18  4  1  0  0  0  0
 18  6  1  0  0  0  0
 19  4  1  0  0  0  0
 20 14  1  0  0  0  0
 21 24  1  6  0  0  0
 22 23  1  6  0  0  0
 22  6  1  0  0  0  0
 22 21  1  0  0  0  0
 23 21  1  0  0  0  0
 24 25  2  0  0  0  0
 25 28  1  0  0  0  0
 28 26  2  0  0  0  0
 28 27  1  0  0  0  0
 29  2  1  0  0  0  0
 30 29  1  0  0  0  0
 31 32  2  0  0  0  0
 32 30  1  0  0  0  0
 33 32  1  0  0  0  0
M  END
>  <MODEL>
5

>  <REMARK>
 VINA RESULT:      -1.0      2.902      7.635
  Name = 
  6 active torsions:
  status: ('A' for Active; 'I' for Inactive)
    1  A    between atoms: C_2  and  O_19
    2  A    between atoms: C_4  and  C_7
    3  A    between atoms: C_9  and  C_12
    4  A    between atoms: C_11  and  C_25
    5  A    between atoms: O_19  and  C_25
    6  A    between atoms: C_24  and  C_28
                            x       y       z     vdW  Elec       q    Type
                         _______ _______ _______ _____ _____    ______ ____

>  <TORSDO>
F 6

$$$$
=
 OpenBabel11042422373D

 33 38  0  0  1  0  0  0  0  0999 V2000
  160.0810  207.9350  154.0500 N   0  0  0  0  0  2  0  0  0  0  0  0
  158.6800  212.7240  155.4880 C   0  0  0  0  0  0  0  0  0  0  0  0
  161.8020  205.4840  152.3050 C   0  0  0  0  0  2  0  0  0  0  0  0
  157.0500  210.8390  155.8630 C   0  0  0  0  0  0  0  0  0  0  0  0
  160.7490  207.7130  152.8040 C   0  0  0  0  0  0  0  0  0  0  0  0
  159.5170  210.2930  155.9980 C   0  0  2  0  0  3  0  0  0  0  0  0
  156.1160  210.3510  155.0540 C   0  0  0  0  0  2  0  0  0  0  0  0
  162.9660  205.3840  151.6720 C   0  0  0  0  0  3  0  0  0  0  0  0
  160.1220  210.4080  154.6310 C   0  0  0  0  0  0  0  0  0  0  0  0
  162.1260  208.7090  150.5940 N   0  0  0  0  0  0  0  0  0  0  0  0
  160.9450  209.0100  152.6230 C   0  0  0  0  0  0  0  0  0  0  0  0
  161.5960  209.5680  151.4350 C   0  0  0  0  0  3  0  0  0  0  0  0
  160.3410  209.3170  153.9040 C   0  0  0  0  0  0  0  0  0  0  0  0
  160.5740  211.7540  154.1390 C   0  0  0  0  0  2  0  0  0  0  0  0
  161.0540  206.6650  151.7930 C   0  0  1  0  0  3  0  0  0  0  0  0
  163.1500  206.5270  150.7800 C   0  0  0  0  0  3  0  0  0  0  0  0
  162.0670  207.2790  150.8510 C   0  0  2  0  0  3  0  0  0  0  0  0
  158.4500  211.3800  156.1380 C   0  0  1  0  0  0  0  0  0  0  0  0
  157.5440  211.3010  157.2400 C   0  0  0  0  0  2  0  0  0  0  0  0
  159.6350  212.8590  154.5520 C   0  0  0  0  0  3  0  0  0  0  0  0
  161.9660  210.2600  156.4270 C   0  0  2  0  0  3  0  0  0  0  0  0
  160.6010  210.4650  157.0580 C   0  0  2  0  0  3  0  0  0  0  0  0
  161.3430  209.1600  157.2610 C   0  0  0  0  0  2  0  0  0  0  0  0
  162.9770  210.9950  157.2420 C   0  0  0  0  0  3  0  0  0  0  0  0
  164.1160  211.4920  156.7560 C   0  0  0  0  0  3  0  0  0  0  0  0
  165.6690  212.0510  154.9970 C   0  0  0  0  0  2  0  0  0  0  0  0
  163.9470  210.5700  154.4350 O   0  0  0  0  0  1  0  0  0  0  0  0
  164.5880  211.3810  155.3640 C   0  0  0  0  0  0  0  0  0  0  0  0
  157.8650  213.8050  155.8470 O   0  0  0  0  0  0  0  0  0  0  0  0
  156.9870  214.4530  154.9340 C   0  0  0  0  0  2  0  0  0  0  0  0
  154.7180  214.0080  154.3660 O   0  0  0  0  0  0  0  0  0  0  0  0
  155.5790  214.1210  155.2780 C   0  0  0  0  0  0  0  0  0  0  0  0
  155.2220  213.8980  156.6030 O   0  0  0  0  0  1  0  0  0  0  0  0
  2 29  1  0  0  0  0
  2 18  1  0  0  0  0
  4 18  1  0  0  0  0
  4 19  1  0  0  0  0
  5  1  1  0  0  0  0
  6  9  1  6  0  0  0
  6 18  1  0  0  0  0
  6 22  1  0  0  0  0
  7  4  2  0  0  0  0
  8  3  1  0  0  0  0
 10 17  1  0  0  0  0
 10 12  2  0  0  0  0
 11  5  2  0  0  0  0
 11 13  1  0  0  0  0
 12 11  1  0  0  0  0
 13  1  1  0  0  0  0
 13  9  2  0  0  0  0
 14 20  1  0  0  0  0
 14  9  1  0  0  0  0
 15  3  1  1  0  0  0
 15  5  1  0  0  0  0
 16  8  2  0  0  0  0
 17 16  1  1  0  0  0
 17 15  1  0  0  0  0
 18 19  1  1  0  0  0
 20  2  2  0  0  0  0
 21 22  1  0  0  0  0
 21 24  1  1  0  0  0
 21 23  1  0  0  0  0
 22 23  1  1  0  0  0
 25 24  2  0  0  0  0
 26 28  2  0  0  0  0
 27 28  1  0  0  0  0
 28 25  1  0  0  0  0
 30 32  1  0  0  0  0
 30 29  1  0  0  0  0
 31 32  2  0  0  0  0
 32 33  1  0  0  0  0
M  END
>  <MODEL>
6

>  <REMARK>
 VINA RESULT:      -0.8      4.386      7.815
  Name = 
  6 active torsions:
  status: ('A' for Active; 'I' for Inactive)
    1  A    between atoms: C_2  and  O_19
    2  A    between atoms: C_4  and  C_7
    3  A    between atoms: C_9  and  C_12
    4  A    between atoms: C_11  and  C_25
    5  A    between atoms: O_19  and  C_25
    6  A    between atoms: C_24  and  C_28
                            x       y       z     vdW  Elec       q    Type
                         _______ _______ _______ _____ _____    ______ ____

>  <TORSDO>
F 6

$$$$
=
 OpenBabel11042422373D

 33 38  0  0  1  0  0  0  0  0999 V2000
  158.4750  212.4170  155.0640 N   0  0  0  0  0  2  0  0  0  0  0  0
  161.2290  208.0580  154.4490 C   0  0  0  0  0  0  0  0  0  0  0  0
  155.8870  214.4500  156.1510 C   0  0  0  0  0  2  0  0  0  0  0  0
  161.5170  209.9020  152.7570 C   0  0  0  0  0  0  0  0  0  0  0  0
  157.0960  212.3620  155.4400 C   0  0  0  0  0  0  0  0  0  0  0  0
  160.9800  210.5750  155.1350 C   0  0  2  0  0  3  0  0  0  0  0  0
  160.8450  210.1380  151.6350 C   0  0  0  0  0  2  0  0  0  0  0  0
  155.0070  214.4470  157.1470 C   0  0  0  0  0  3  0  0  0  0  0  0
  159.5760  210.1610  155.4590 C   0  0  0  0  0  0  0  0  0  0  0  0
  154.9210  210.9250  156.4290 N   0  0  0  0  0  0  0  0  0  0  0  0
  157.1730  211.0700  155.7190 C   0  0  0  0  0  0  0  0  0  0  0  0
  156.0290  210.2720  156.1660 C   0  0  0  0  0  3  0  0  0  0  0  0
  158.5910  211.0540  155.4200 C   0  0  0  0  0  0  0  0  0  0  0  0
  159.3130  208.7590  155.9280 C   0  0  0  0  0  2  0  0  0  0  0  0
  155.8320  213.1480  155.4310 C   0  0  1  0  0  3  0  0  0  0  0  0
  154.3790  213.1320  157.2550 C   0  0  0  0  0  3  0  0  0  0  0  0
  154.8540  212.3710  156.2870 C   0  0  2  0  0  3  0  0  0  0  0  0
  161.5930  209.5070  154.2290 C   0  0  1  0  0  0  0  0  0  0  0  0
  162.8200  209.8090  153.5620 C   0  0  0  0  0  2  0  0  0  0  0  0
  160.1620  207.7440  155.2030 C   0  0  0  0  0  3  0  0  0  0  0  0
  163.2690  210.7250  156.0960 C   0  0  2  0  0  3  0  0  0  0  0  0
  161.7860  210.7140  156.4230 C   0  0  2  0  0  3  0  0  0  0  0  0
  162.6240  209.4720  156.6500 C   0  0  0  0  0  2  0  0  0  0  0  0
  163.9870  211.4450  157.1870 C   0  0  0  0  0  3  0  0  0  0  0  0
  165.1320  212.1100  157.0230 C   0  0  0  0  0  3  0  0  0  0  0  0
  166.9050  213.0810  155.7070 C   0  0  0  0  0  2  0  0  0  0  0  0
  165.5990  211.4510  154.6540 O   0  0  0  0  0  1  0  0  0  0  0  0
  165.8940  212.2290  155.7670 C   0  0  0  0  0  0  0  0  0  0  0  0
  161.9930  207.0600  153.8320 O   0  0  0  0  0  0  0  0  0  0  0  0
  161.4460  206.1150  152.9200 C   0  0  0  0  0  2  0  0  0  0  0  0
  160.8070  206.5720  150.6720 O   0  0  0  0  0  0  0  0  0  0  0  0
  161.7330  206.5450  151.5260 C   0  0  0  0  0  0  0  0  0  0  0  0
  163.0150  206.9540  151.1750 O   0  0  0  0  0  1  0  0  0  0  0  0
  1 13  1  0  0  0  0
  1  5  1  0  0  0  0
  2 20  2  0  0  0  0
  3  8  1  0  0  0  0
  4 19  1  0  0  0  0
  4 18  1  0  0  0  0
  5 11  2  0  0  0  0
  6  9  1  1  0  0  0
  6 22  1  0  0  0  0
  7  4  2  0  0  0  0
  8 16  2  0  0  0  0
  9 14  1  0  0  0  0
 11 12  1  0  0  0  0
 12 10  2  0  0  0  0
 13  9  2  0  0  0  0
 13 11  1  0  0  0  0
 15  5  1  0  0  0  0
 15  3  1  1  0  0  0
 15 17  1  0  0  0  0
 17 10  1  0  0  0  0
 17 16  1  1  0  0  0
 18 19  1  1  0  0  0
 18  2  1  0  0  0  0
 18  6  1  0  0  0  0
 20 14  1  0  0  0  0
 21 22  1  0  0  0  0
 21 23  1  0  0  0  0
 21 24  1  1  0  0  0
 22 23  1  1  0  0  0
 25 24  2  0  0  0  0
 26 28  2  0  0  0  0
 27 28  1  0  0  0  0
 28 25  1  0  0  0  0
 29  2  1  0  0  0  0
 30 29  1  0  0  0  0
 31 32  2  0  0  0  0
 32 30  1  0  0  0  0
 33 32  1  0  0  0  0
M  END
>  <MODEL>
7

>  <REMARK>
 VINA RESULT:      -0.6      4.505      8.930
  Name = 
  6 active torsions:
  status: ('A' for Active; 'I' for Inactive)
    1  A    between atoms: C_2  and  O_19
    2  A    between atoms: C_4  and  C_7
    3  A    between atoms: C_9  and  C_12
    4  A    between atoms: C_11  and  C_25
    5  A    between atoms: O_19  and  C_25
    6  A    between atoms: C_24  and  C_28
                            x       y       z     vdW  Elec       q    Type
                         _______ _______ _______ _____ _____    ______ ____

>  <TORSDO>
F 6

$$$$
=
 OpenBabel11042422373D

 33 38  0  0  1  0  0  0  0  0999 V2000
  159.3160  211.0910  152.5130 N   0  0  0  0  0  2  0  0  0  0  0  0
  161.3320  206.3530  153.1820 C   0  0  0  0  0  0  0  0  0  0  0  0
  157.3860  213.8840  153.2110 C   0  0  0  0  0  2  0  0  0  0  0  0
  161.2580  207.3010  150.8490 C   0  0  0  0  0  0  0  0  0  0  0  0
  158.1190  211.4780  153.1960 C   0  0  0  0  0  0  0  0  0  0  0  0
  161.5400  208.9310  152.7630 C   0  0  2  0  0  3  0  0  0  0  0  0
  160.2990  207.2260  149.9320 C   0  0  0  0  0  2  0  0  0  0  0  0
  156.8580  214.4500  154.2920 C   0  0  0  0  0  3  0  0  0  0  0  0
  160.2700  208.9810  153.5580 C   0  0  0  0  0  0  0  0  0  0  0  0
  156.2280  211.0260  155.1940 N   0  0  0  0  0  0  0  0  0  0  0  0
  158.1580  210.4070  153.9730 C   0  0  0  0  0  0  0  0  0  0  0  0
  157.1370  210.1030  154.9780 C   0  0  0  0  0  3  0  0  0  0  0  0
  159.4080  209.9770  153.3790 C   0  0  0  0  0  0  0  0  0  0  0  0
  160.0350  207.9550  154.6310 C   0  0  0  0  0  2  0  0  0  0  0  0
  156.9930  212.4500  153.1550 C   0  0  1  0  0  3  0  0  0  0  0  0
  156.1740  213.4420  155.0990 C   0  0  0  0  0  3  0  0  0  0  0  0
  156.2560  212.2860  154.4670 C   0  0  2  0  0  3  0  0  0  0  0  0
  161.7440  207.4930  152.2830 C   0  0  1  0  0  0  0  0  0  0  0  0
  162.7300  207.2490  151.2780 C   0  0  0  0  0  2  0  0  0  0  0  0
  160.5220  206.5860  154.2290 C   0  0  0  0  0  3  0  0  0  0  0  0
  162.3290  210.6340  154.3940 C   0  0  2  0  0  3  0  0  0  0  0  0
  162.7110  209.3780  153.6320 C   0  0  2  0  0  3  0  0  0  0  0  0
  163.2170  210.7290  153.1720 C   0  0  0  0  0  2  0  0  0  0  0  0
  163.1640  210.7090  155.6280 C   0  0  0  0  0  3  0  0  0  0  0  0
  162.7180  211.1300  156.8140 C   0  0  0  0  0  3  0  0  0  0  0  0
  160.3810  210.7330  157.2600 C   0  0  0  0  0  2  0  0  0  0  0  0
  161.0760  212.9670  157.2540 O   0  0  0  0  0  1  0  0  0  0  0  0
  161.3570  211.6140  157.1060 C   0  0  0  0  0  0  0  0  0  0  0  0
  161.7730  205.0560  152.8880 O   0  0  0  0  0  0  0  0  0  0  0  0
  160.8880  203.9710  152.6370 C   0  0  0  0  0  2  0  0  0  0  0  0
  161.1600  202.1220  151.1630 O   0  0  0  0  0  1  0  0  0  0  0  0
  161.1980  203.3720  151.3130 C   0  0  0  0  0  0  0  0  0  0  0  0
  161.4920  204.1940  150.2310 O   0  0  0  0  0  0  0  0  0  0  0  0
  1  5  1  0  0  0  0
  1 13  1  0  0  0  0
  2 20  2  0  0  0  0
  3  8  1  0  0  0  0
  4 19  1  0  0  0  0
  4 18  1  0  0  0  0
  5 11  2  0  0  0  0
  6  9  1  1  0  0  0
  6 22  1  0  0  0  0
  7  4  2  0  0  0  0
  8 16  2  0  0  0  0
  9 14  1  0  0  0  0
 11 12  1  0  0  0  0
 12 10  2  0  0  0  0
 13  9  2  0  0  0  0
 13 11  1  0  0  0  0
 15  5  1  0  0  0  0
 15  3  1  1  0  0  0
 15 17  1  0  0  0  0
 17 16  1  1  0  0  0
 17 10  1  0  0  0  0
 18 19  1  6  0  0  0
 18  6  1  0  0  0  0
 18  2  1  0  0  0  0
 20 14  1  0  0  0  0
 21 24  1  1  0  0  0
 22 23  1  6  0  0  0
 22 21  1  0  0  0  0
 23 21  1  0  0  0  0
 24 25  2  0  0  0  0
 25 28  1  0  0  0  0
 28 27  1  0  0  0  0
 28 26  2  0  0  0  0
 29  2  1  0  0  0  0
 30 29  1  0  0  0  0
 31 32  1  0  0  0  0
 32 30  1  0  0  0  0
 33 32  2  0  0  0  0
M  END
>  <MODEL>
8

>  <REMARK>
 VINA RESULT:      -0.5      4.465      8.007
  Name = 
  6 active torsions:
  status: ('A' for Active; 'I' for Inactive)
    1  A    between atoms: C_2  and  O_19
    2  A    between atoms: C_4  and  C_7
    3  A    between atoms: C_9  and  C_12
    4  A    between atoms: C_11  and  C_25
    5  A    between atoms: O_19  and  C_25
    6  A    between atoms: C_24  and  C_28
                            x       y       z     vdW  Elec       q    Type
                         _______ _______ _______ _____ _____    ______ ____

>  <TORSDO>
F 6

$$$$
=
 OpenBabel11042422373D

 33 38  0  0  1  0  0  0  0  0999 V2000
  160.0600  211.2260  151.5970 N   0  0  0  0  0  2  0  0  0  0  0  0
  157.6860  213.4690  155.6350 C   0  0  0  0  0  0  0  0  0  0  0  0
  161.9100  211.0200  148.6740 C   0  0  0  0  0  2  0  0  0  0  0  0
  156.8950  211.1930  154.8980 C   0  0  0  0  0  0  0  0  0  0  0  0
  160.3930  211.9870  150.4330 C   0  0  0  0  0  0  0  0  0  0  0  0
  159.3460  211.7360  154.5810 C   0  0  2  0  0  3  0  0  0  0  0  0
  155.9760  210.8640  153.9970 C   0  0  0  0  0  2  0  0  0  0  0  0
  162.8250  211.7580  148.0540 C   0  0  0  0  0  3  0  0  0  0  0  0
  159.4840  212.7860  153.5200 C   0  0  0  0  0  0  0  0  0  0  0  0
  160.7270  214.4530  149.1760 N   0  0  0  0  0  0  0  0  0  0  0  0
  160.1170  213.1310  151.0410 C   0  0  0  0  0  0  0  0  0  0  0  0
  160.2090  214.4360  150.3820 C   0  0  0  0  0  3  0  0  0  0  0  0
  159.8240  212.4410  152.2820 C   0  0  0  0  0  0  0  0  0  0  0  0
  159.3400  214.2330  153.8950 C   0  0  0  0  0  2  0  0  0  0  0  0
  160.7200  211.8590  148.9860 C   0  0  1  0  0  3  0  0  0  0  0  0
  162.3910  213.1520  147.9990 C   0  0  0  0  0  3  0  0  0  0  0  0
  161.1900  213.2280  148.5440 C   0  0  2  0  0  3  0  0  0  0  0  0
  158.0750  212.0330  155.3790 C   0  0  1  0  0  0  0  0  0  0  0  0
  157.5790  211.0230  156.2610 C   0  0  0  0  0  2  0  0  0  0  0  0
  158.2540  214.4530  154.9180 C   0  0  0  0  0  3  0  0  0  0  0  0
  160.3310  210.8530  156.6870 C   0  0  2  0  0  3  0  0  0  0  0  0
  160.5690  211.7590  155.4930 C   0  0  2  0  0  3  0  0  0  0  0  0
  160.2070  212.3540  156.8380 C   0  0  0  0  0  2  0  0  0  0  0  0
  161.6550  210.4050  157.2090 C   0  0  0  0  0  3  0  0  0  0  0  0
  162.2010  209.2140  156.9500 C   0  0  0  0  0  3  0  0  0  0  0  0
  160.6040  207.4300  156.6600 C   0  0  0  0  0  2  0  0  0  0  0  0
  162.0190  207.8680  154.8480 O   0  0  0  0  0  1  0  0  0  0  0  0
  161.5960  208.1390  156.1440 C   0  0  0  0  0  0  0  0  0  0  0  0
  156.7060  213.7510  156.5950 O   0  0  0  0  0  0  0  0  0  0  0  0
  155.4770  214.3980  156.2850 C   0  0  0  0  0  2  0  0  0  0  0  0
  153.2990  214.2740  157.2400 O   0  0  0  0  0  1  0  0  0  0  0  0
  154.3530  213.6610  156.9210 C   0  0  0  0  0  0  0  0  0  0  0  0
  154.4500  212.2900  157.1270 O   0  0  0  0  0  0  0  0  0  0  0  0
  1 13  1  0  0  0  0
  2 29  1  0  0  0  0
  4 18  1  0  0  0  0
  4 19  1  0  0  0  0
  5 11  2  0  0  0  0
  5  1  1  0  0  0  0
  6  9  1  6  0  0  0
  6 18  1  0  0  0  0
  6 22  1  0  0  0  0
  7  4  2  0  0  0  0
  8  3  1  0  0  0  0
  9 14  1  0  0  0  0
 10 12  2  0  0  0  0
 11 13  1  0  0  0  0
 12 11  1  0  0  0  0
 13  9  2  0  0  0  0
 14 20  1  0  0  0  0
 15  3  1  1  0  0  0
 15  5  1  0  0  0  0
 16  8  2  0  0  0  0
 17 16  1  1  0  0  0
 17 15  1  0  0  0  0
 17 10  1  0  0  0  0
 18  2  1  0  0  0  0
 18 19  1  1  0  0  0
 20  2  2  0  0  0  0
 21 23  1  0  0  0  0
 21 24  1  1  0  0  0
 22 21  1  0  0  0  0
 22 23  1  1  0  0  0
 25 24  2  0  0  0  0
 27 28  1  0  0  0  0
 28 26  2  0  0  0  0
 28 25  1  0  0  0  0
 30 29  1  0  0  0  0
 30 32  1  0  0  0  0
 32 33  2  0  0  0  0
 32 31  1  0  0  0  0
M  END
>  <MODEL>
9

>  <REMARK>
 VINA RESULT:      -0.4      3.986      6.689
  Name = 
  6 active torsions:
  status: ('A' for Active; 'I' for Inactive)
    1  A    between atoms: C_2  and  O_19
    2  A    between atoms: C_4  and  C_7
    3  A    between atoms: C_9  and  C_12
    4  A    between atoms: C_11  and  C_25
    5  A    between atoms: O_19  and  C_25
    6  A    between atoms: C_24  and  C_28
                            x       y       z     vdW  Elec       q    Type
                         _______ _______ _______ _____ _____    ______ ____

>  <TORSDO>
F 6

$$$$
