=
 OpenBabel11052411423D

 42 45  0  0  1  0  0  0  0  0999 V2000
  161.3000  206.0630  151.3100 C   0  0  0  0  0  0  0  0  0  0  0  0
  160.8990  202.4680  149.9950 N   0  0  0  0  0  0  0  0  0  0  0  0
  160.9050  202.5710  148.6960 C   0  0  0  0  0  0  0  0  0  0  0  0
  161.3030  206.0180  149.8980 C   0  0  0  0  0  0  0  0  0  0  0  0
  161.0810  203.9900  148.1650 C   0  0  0  0  0  2  0  0  0  0  0  0
  161.0740  203.7940  150.4440 C   0  0  0  0  0  0  0  0  0  0  0  0
  161.1150  204.4940  151.9630 S   0  0  0  0  0  0  0  0  0  0  0  0
  161.1780  204.6970  149.4630 C   0  0  0  0  0  0  0  0  0  0  0  0
  161.0560  207.0910  147.7900 O   0  0  0  0  0  0  0  0  0  0  0  0
  161.4110  207.1850  148.9970 C   0  0  0  0  0  0  0  0  0  0  0  0
  161.9230  208.4270  149.4930 N   0  0  0  0  0  2  0  0  0  0  0  0
  162.0350  209.6160  148.6610 C   0  0  0  0  0  2  0  0  0  0  0  0
  162.0840  210.8560  149.5360 C   0  0  0  0  0  2  0  0  0  0  0  0
  163.4000  212.0730  148.1690 O   0  0  0  0  0  1  0  0  0  0  0  0
  162.1550  212.0430  148.7020 N   0  0  0  0  0  0  0  0  0  0  0  0
  161.2370  211.8330  147.5940 C   0  0  0  0  0  2  0  0  0  0  0  0
  161.1680  213.0820  146.7310 C   0  0  0  0  0  2  0  0  0  0  0  0
  159.9730  213.0530  145.9070 N   0  0  0  0  0  2  0  0  0  0  0  0
  160.3810  212.6000  144.5890 C   0  0  0  0  0  2  0  0  0  0  0  0
  161.6900  213.2620  144.1960 C   0  0  0  0  0  2  0  0  0  0  0  0
  162.3580  212.4810  143.2520 O   0  0  0  0  0  0  0  0  0  0  0  0
  162.5010  213.3150  142.1420 C   0  0  0  0  0  2  0  0  0  0  0  0
  161.7700  212.7280  140.9490 C   0  0  0  0  0  2  0  0  0  0  0  0
  162.0130  211.2350  140.8650 C   0  0  0  0  0  1  0  0  0  0  0  0
  160.7600  201.4480  147.8840 O   0  0  0  0  0  0  0  0  0  0  0  0
  160.8040  201.5380  146.4680 C   0  0  0  0  0  1  0  0  0  0  0  0
  161.3710  207.2920  152.1500 C   0  0  0  0  0  2  0  0  0  0  0  0
  160.8160  207.0070  153.5310 C   0  0  0  0  0  2  0  0  0  0  0  0
  161.4550  207.8810  154.4980 N   0  0  0  0  0  2  0  0  0  0  0  0
  161.4660  210.1850  154.1730 O   0  0  0  0  0  1  0  0  0  0  0  0
  160.6730  209.1030  154.5570 C   0  0  2  0  0  3  0  0  0  0  0  0
  160.0820  209.3580  156.2530 S   0  0  0  0  0  0  0  0  0  0  0  0
  160.2160  211.4760  156.0940 S   0  0  0  0  0  0  0  0  0  0  0  0
  158.4820  211.6210  155.5770 C   0  0  0  0  0  2  0  0  0  0  0  0
  159.4280  212.8360  153.7450 O   0  0  0  0  0  0  0  0  0  0  0  0
  157.2990  213.4280  152.6940 O   0  0  0  0  0  0  0  0  0  0  0  0
  158.2810  213.1620  151.7710 C   0  0  2  0  0  3  0  0  0  0  0  0
  158.3380  212.7460  154.5730 C   0  0  2  0  0  0  0  0  0  0  0  0
  157.9720  214.0120  155.0490 O   0  0  0  0  0  1  0  0  0  0  0  0
  158.2170  212.4120  153.1010 C   0  0  1  0  0  0  0  0  0  0  0  0
  160.0570  214.2740  150.4310 C   0  0  0  0  0  1  0  0  0  0  0  0
  159.1920  214.3870  151.6690 C   0  0  0  0  0  2  0  0  0  0  0  0
  1  7  1  0  0  0  0
  1 27  1  0  0  0  0
  2  6  1  0  0  0  0
  3  2  2  0  0  0  0
  4  1  2  0  0  0  0
  5  3  1  0  0  0  0
  5  8  1  0  0  0  0
  6  7  1  0  0  0  0
  8  4  1  0  0  0  0
  8  6  2  0  0  0  0
  9 10  2  0  0  0  0
 10 11  1  0  0  0  0
 10  4  1  0  0  0  0
 12 11  1  0  0  0  0
 12 13  1  0  0  0  0
 14 15  1  0  0  0  0
 15 13  1  0  0  0  0
 16 15  1  0  0  0  0
 17 16  1  0  0  0  0
 18 17  1  0  0  0  0
 19 18  1  0  0  0  0
 20 19  1  0  0  0  0
 21 20  1  0  0  0  0
 22 21  1  0  0  0  0
 23 22  1  0  0  0  0
 24 23  1  0  0  0  0
 25  3  1  0  0  0  0
 26 25  1  0  0  0  0
 27 28  1  0  0  0  0
 28 29  1  0  0  0  0
 29 31  1  0  0  0  0
 31 30  1  1  0  0  0
 31 32  1  0  0  0  0
 33 32  1  0  0  0  0
 34 33  1  0  0  0  0
 35 38  1  0  0  0  0
 37 42  1  1  0  0  0
 37 36  1  0  0  0  0
 37 40  1  0  0  0  0
 38 39  1  1  0  0  0
 38 34  1  0  0  0  0
 40 36  1  1  0  0  0
 40 35  1  0  0  0  0
 40 38  1  0  0  0  0
 41 42  1  0  0  0  0
M  END
>  <MODEL>
1

>  <REMARK>
 VINA RESULT:      -6.1      0.000      0.000
  Name = 
  22 active torsions:
  status: ('A' for Active; 'I' for Inactive)
    1  A    between atoms: C_1  and  C_19
    2  A    between atoms: C_2  and  C_22
    3  A    between atoms: C_3  and  N_27
    4  A    between atoms: C_3  and  C_28
    5  A    between atoms: S_7  and  S_12
    6  A    between atoms: S_7  and  C_20
    7  A    between atoms: O_8  and  C_11
    8  A    between atoms: C_10  and  C_22
    9  A    between atoms: C_10  and  N_38
   10  A    between atoms: S_12  and  C_32
   11  A    between atoms: C_16  and  C_24
   12  A    between atoms: C_19  and  O_39
   13  A    between atoms: C_20  and  C_29
   14  A    between atoms: C_21  and  C_23
   15  A    between atoms: C_25  and  N_33
   16  A    between atoms: C_25  and  C_41
   17  A    between atoms: N_27  and  C_34
   18  A    between atoms: C_28  and  N_35
   19  A    between atoms: C_30  and  N_33
   20  A    between atoms: C_30  and  C_34
   21  A    between atoms: C_32  and  N_38
   22  A    between atoms: O_39  and  C_41
                            x       y       z     vdW  Elec       q    Type
                         _______ _______ _______ _____ _____    ______ ____

>  <TORSDO>
F 22

$$$$
=
 OpenBabel11052411423D

 42 45  0  0  1  0  0  0  0  0999 V2000
  161.7240  207.6080  152.3230 C   0  0  0  0  0  0  0  0  0  0  0  0
  159.8780  209.9860  154.7210 N   0  0  0  0  0  0  0  0  0  0  0  0
  159.5950  211.0420  154.0130 C   0  0  0  0  0  0  0  0  0  0  0  0
  161.3390  208.8060  151.6800 C   0  0  0  0  0  0  0  0  0  0  0  0
  160.0410  210.9770  152.5560 C   0  0  0  0  0  2  0  0  0  0  0  0
  160.5280  209.1270  153.8090 C   0  0  0  0  0  0  0  0  0  0  0  0
  161.2400  207.6210  153.9620 S   0  0  0  0  0  0  0  0  0  0  0  0
  160.6540  209.6290  152.5760 C   0  0  0  0  0  0  0  0  0  0  0  0
  161.4920  208.2930  149.3620 O   0  0  0  0  0  0  0  0  0  0  0  0
  161.6170  209.1590  150.2710 C   0  0  0  0  0  0  0  0  0  0  0  0
  162.0330  210.4870  149.9350 N   0  0  0  0  0  2  0  0  0  0  0  0
  162.3030  210.9010  148.5660 C   0  0  0  0  0  2  0  0  0  0  0  0
  162.3410  212.4170  148.4830 C   0  0  0  0  0  2  0  0  0  0  0  0
  160.4120  213.5380  148.8080 O   0  0  0  0  0  1  0  0  0  0  0  0
  161.1290  212.9050  147.8490 N   0  0  0  0  0  0  0  0  0  0  0  0
  161.5350  213.9260  146.8960 C   0  0  0  0  0  2  0  0  0  0  0  0
  162.4360  213.3190  145.8340 C   0  0  0  0  0  2  0  0  0  0  0  0
  161.6620  212.9920  144.6500 N   0  0  0  0  0  2  0  0  0  0  0  0
  162.5050  213.2780  143.5030 C   0  0  0  0  0  2  0  0  0  0  0  0
  162.2250  212.2810  142.3930 C   0  0  0  0  0  2  0  0  0  0  0  0
  162.4260  212.8800  141.1480 O   0  0  0  0  0  0  0  0  0  0  0  0
  162.5810  211.8110  140.2640 C   0  0  0  0  0  2  0  0  0  0  0  0
  161.5060  210.7680  140.5110 C   0  0  0  0  0  2  0  0  0  0  0  0
  161.9120  209.4400  139.9060 C   0  0  0  0  0  1  0  0  0  0  0  0
  158.9320  212.1310  154.5770 O   0  0  0  0  0  0  0  0  0  0  0  0
  158.8630  213.3870  153.9180 C   0  0  0  0  0  1  0  0  0  0  0  0
  162.5090  206.4970  151.7130 C   0  0  0  0  0  2  0  0  0  0  0  0
  161.8740  205.1660  152.0580 C   0  0  0  0  0  2  0  0  0  0  0  0
  161.4650  204.4950  150.8370 N   0  0  0  0  0  2  0  0  0  0  0  0
  160.4030  203.4130  152.6020 O   0  0  0  0  0  1  0  0  0  0  0  0
  160.5940  203.3980  151.2200 C   0  0  2  0  0  3  0  0  0  0  0  0
  161.3560  201.8260  150.7300 S   0  0  0  0  0  0  0  0  0  0  0  0
  160.0050  201.5570  149.1070 S   0  0  0  0  0  0  0  0  0  0  0  0
  161.3560  201.5060  147.8950 C   0  0  0  0  0  2  0  0  0  0  0  0
  160.6510  203.7750  147.6050 O   0  0  0  0  0  0  0  0  0  0  0  0
  162.4490  204.4150  146.0750 O   0  0  0  0  0  0  0  0  0  0  0  0
  162.1070  205.4320  146.9330 C   0  0  2  0  0  3  0  0  0  0  0  0
  161.2830  202.7220  146.9940 C   0  0  2  0  0  0  0  0  0  0  0  0
  160.8060  202.5470  145.6890 O   0  0  0  0  0  1  0  0  0  0  0  0
  162.0540  203.9690  147.3720 C   0  0  1  0  0  0  0  0  0  0  0  0
  160.7490  205.9450  144.9140 C   0  0  0  0  0  1  0  0  0  0  0  0
  160.8220  206.0850  146.4200 C   0  0  0  0  0  2  0  0  0  0  0  0
  1  7  1  0  0  0  0
  3 25  1  0  0  0  0
  3  2  2  0  0  0  0
  4  1  2  0  0  0  0
  4  8  1  0  0  0  0
  5  8  1  0  0  0  0
  5  3  1  0  0  0  0
  6  7  1  0  0  0  0
  6  2  1  0  0  0  0
  8  6  2  0  0  0  0
  9 10  2  0  0  0  0
 10  4  1  0  0  0  0
 11 10  1  0  0  0  0
 12 11  1  0  0  0  0
 13 12  1  0  0  0  0
 15 13  1  0  0  0  0
 15 14  1  0  0  0  0
 16 15  1  0  0  0  0
 17 16  1  0  0  0  0
 18 17  1  0  0  0  0
 19 18  1  0  0  0  0
 20 19  1  0  0  0  0
 21 20  1  0  0  0  0
 22 23  1  0  0  0  0
 22 21  1  0  0  0  0
 24 23  1  0  0  0  0
 26 25  1  0  0  0  0
 27 28  1  0  0  0  0
 27  1  1  0  0  0  0
 29 31  1  0  0  0  0
 29 28  1  0  0  0  0
 31 30  1  1  0  0  0
 32 31  1  0  0  0  0
 33 32  1  0  0  0  0
 34 33  1  0  0  0  0
 36 37  1  0  0  0  0
 37 42  1  6  0  0  0
 37 40  1  0  0  0  0
 38 39  1  6  0  0  0
 38 40  1  0  0  0  0
 38 35  1  0  0  0  0
 38 34  1  0  0  0  0
 40 36  1  6  0  0  0
 40 35  1  0  0  0  0
 41 42  1  0  0  0  0
M  END
>  <MODEL>
2

>  <REMARK>
 VINA RESULT:      -6.0      2.201      7.567
  Name = 
  22 active torsions:
  status: ('A' for Active; 'I' for Inactive)
    1  A    between atoms: C_1  and  C_19
    2  A    between atoms: C_2  and  C_22
    3  A    between atoms: C_3  and  N_27
    4  A    between atoms: C_3  and  C_28
    5  A    between atoms: S_7  and  S_12
    6  A    between atoms: S_7  and  C_20
    7  A    between atoms: O_8  and  C_11
    8  A    between atoms: C_10  and  C_22
    9  A    between atoms: C_10  and  N_38
   10  A    between atoms: S_12  and  C_32
   11  A    between atoms: C_16  and  C_24
   12  A    between atoms: C_19  and  O_39
   13  A    between atoms: C_20  and  C_29
   14  A    between atoms: C_21  and  C_23
   15  A    between atoms: C_25  and  N_33
   16  A    between atoms: C_25  and  C_41
   17  A    between atoms: N_27  and  C_34
   18  A    between atoms: C_28  and  N_35
   19  A    between atoms: C_30  and  N_33
   20  A    between atoms: C_30  and  C_34
   21  A    between atoms: C_32  and  N_38
   22  A    between atoms: O_39  and  C_41
                            x       y       z     vdW  Elec       q    Type
                         _______ _______ _______ _____ _____    ______ ____

>  <TORSDO>
F 22

$$$$
=
 OpenBabel11052411423D

 42 45  0  0  1  0  0  0  0  0999 V2000
  161.0640  204.9980  150.5880 C   0  0  0  0  0  0  0  0  0  0  0  0
  160.8270  201.6930  148.6290 N   0  0  0  0  0  0  0  0  0  0  0  0
  160.9630  202.0220  147.3760 C   0  0  0  0  0  0  0  0  0  0  0  0
  161.2100  205.2010  149.1970 C   0  0  0  0  0  0  0  0  0  0  0  0
  161.1800  203.5100  147.1220 C   0  0  0  0  0  2  0  0  0  0  0  0
  160.9450  202.9190  149.3190 C   0  0  0  0  0  0  0  0  0  0  0  0
  160.8270  203.3410  150.9340 S   0  0  0  0  0  0  0  0  0  0  0  0
  161.1400  203.9780  148.5270 C   0  0  0  0  0  0  0  0  0  0  0  0
  161.0750  206.6550  147.3200 O   0  0  0  0  0  0  0  0  0  0  0  0
  161.3990  206.5070  148.5300 C   0  0  0  0  0  0  0  0  0  0  0  0
  161.9550  207.6080  149.2570 N   0  0  0  0  0  2  0  0  0  0  0  0
  162.1480  208.9220  148.6630 C   0  0  0  0  0  2  0  0  0  0  0  0
  162.1190  209.9880  149.7430 C   0  0  0  0  0  2  0  0  0  0  0  0
  161.2350  211.9900  150.2880 O   0  0  0  0  0  1  0  0  0  0  0  0
  161.5100  211.1990  149.2230 N   0  0  0  0  0  0  0  0  0  0  0  0
  162.5350  211.8870  148.4530 C   0  0  0  0  0  2  0  0  0  0  0  0
  161.9100  213.0030  147.6330 C   0  0  0  0  0  2  0  0  0  0  0  0
  162.6970  213.2450  146.4380 N   0  0  0  0  0  2  0  0  0  0  0  0
  161.9820  214.2390  145.6560 C   0  0  0  0  0  2  0  0  0  0  0  0
  162.2160  213.9990  144.1750 C   0  0  0  0  0  2  0  0  0  0  0  0
  160.9980  213.8040  143.5220 O   0  0  0  0  0  0  0  0  0  0  0  0
  160.9390  212.4290  143.2900 C   0  0  0  0  0  2  0  0  0  0  0  0
  161.8480  212.0540  142.1350 C   0  0  0  0  0  2  0  0  0  0  0  0
  161.1360  211.1070  141.1900 C   0  0  0  0  0  1  0  0  0  0  0  0
  160.9090  201.0600  146.3690 O   0  0  0  0  0  0  0  0  0  0  0  0
  160.1880  201.2770  145.1650 C   0  0  0  0  0  1  0  0  0  0  0  0
  161.0410  206.0600  151.6330 C   0  0  0  0  0  2  0  0  0  0  0  0
  161.3010  205.4500  152.9960 C   0  0  0  0  0  2  0  0  0  0  0  0
  161.8360  206.4660  153.8850 N   0  0  0  0  0  2  0  0  0  0  0  0
  161.2530  208.7190  153.8730 O   0  0  0  0  0  1  0  0  0  0  0  0
  160.7780  207.4310  154.1230 C   0  0  2  0  0  3  0  0  0  0  0  0
  160.2320  207.3110  155.8490 S   0  0  0  0  0  0  0  0  0  0  0  0
  161.6400  208.7670  156.5040 S   0  0  0  0  0  0  0  0  0  0  0  0
  160.3430  209.7880  157.2610 C   0  0  0  0  0  2  0  0  0  0  0  0
  158.8620  210.5840  155.5580 O   0  0  0  0  0  0  0  0  0  0  0  0
  159.0220  212.9510  156.1550 O   0  0  0  0  0  0  0  0  0  0  0  0
  157.7600  212.6020  155.7400 C   0  0  2  0  0  3  0  0  0  0  0  0
  159.9570  210.9090  156.3170 C   0  0  2  0  0  0  0  0  0  0  0  0
  160.9620  211.4750  155.5210 O   0  0  0  0  0  1  0  0  0  0  0  0
  158.6390  211.6250  156.5200 C   0  0  1  0  0  0  0  0  0  0  0  0
  157.8590  213.9150  153.6290 C   0  0  0  0  0  1  0  0  0  0  0  0
  157.7610  212.5200  154.2130 C   0  0  0  0  0  2  0  0  0  0  0  0
  1  7  1  0  0  0  0
  1 27  1  0  0  0  0
  2  6  1  0  0  0  0
  3  2  2  0  0  0  0
  4  1  2  0  0  0  0
  5  3  1  0  0  0  0
  5  8  1  0  0  0  0
  6  7  1  0  0  0  0
  8  4  1  0  0  0  0
  8  6  2  0  0  0  0
  9 10  2  0  0  0  0
 10  4  1  0  0  0  0
 10 11  1  0  0  0  0
 12 11  1  0  0  0  0
 12 13  1  0  0  0  0
 15 13  1  0  0  0  0
 15 14  1  0  0  0  0
 16 15  1  0  0  0  0
 17 16  1  0  0  0  0
 18 17  1  0  0  0  0
 19 18  1  0  0  0  0
 20 19  1  0  0  0  0
 21 20  1  0  0  0  0
 22 21  1  0  0  0  0
 23 22  1  0  0  0  0
 24 23  1  0  0  0  0
 25  3  1  0  0  0  0
 26 25  1  0  0  0  0
 27 28  1  0  0  0  0
 28 29  1  0  0  0  0
 29 31  1  0  0  0  0
 31 30  1  1  0  0  0
 31 32  1  0  0  0  0
 32 33  1  0  0  0  0
 33 34  1  0  0  0  0
 35 38  1  0  0  0  0
 36 40  1  0  0  0  0
 37 42  1  6  0  0  0
 37 36  1  0  0  0  0
 37 40  1  0  0  0  0
 38 39  1  6  0  0  0
 38 40  1  0  0  0  0
 38 34  1  0  0  0  0
 40 35  1  6  0  0  0
 41 42  1  0  0  0  0
M  END
>  <MODEL>
3

>  <REMARK>
 VINA RESULT:      -6.0      1.699      2.201
  Name = 
  22 active torsions:
  status: ('A' for Active; 'I' for Inactive)
    1  A    between atoms: C_1  and  C_19
    2  A    between atoms: C_2  and  C_22
    3  A    between atoms: C_3  and  N_27
    4  A    between atoms: C_3  and  C_28
    5  A    between atoms: S_7  and  S_12
    6  A    between atoms: S_7  and  C_20
    7  A    between atoms: O_8  and  C_11
    8  A    between atoms: C_10  and  C_22
    9  A    between atoms: C_10  and  N_38
   10  A    between atoms: S_12  and  C_32
   11  A    between atoms: C_16  and  C_24
   12  A    between atoms: C_19  and  O_39
   13  A    between atoms: C_20  and  C_29
   14  A    between atoms: C_21  and  C_23
   15  A    between atoms: C_25  and  N_33
   16  A    between atoms: C_25  and  C_41
   17  A    between atoms: N_27  and  C_34
   18  A    between atoms: C_28  and  N_35
   19  A    between atoms: C_30  and  N_33
   20  A    between atoms: C_30  and  C_34
   21  A    between atoms: C_32  and  N_38
   22  A    between atoms: O_39  and  C_41
                            x       y       z     vdW  Elec       q    Type
                         _______ _______ _______ _____ _____    ______ ____

>  <TORSDO>
F 22

$$$$
=
 OpenBabel11052411423D

 42 45  0  0  1  0  0  0  0  0999 V2000
  161.1730  207.2270  151.3590 C   0  0  0  0  0  0  0  0  0  0  0  0
  161.4200  204.7890  148.3900 N   0  0  0  0  0  0  0  0  0  0  0  0
  161.8930  205.4940  147.4020 C   0  0  0  0  0  0  0  0  0  0  0  0
  161.6890  207.8570  150.2050 C   0  0  0  0  0  0  0  0  0  0  0  0
  162.1920  206.9510  147.7360 C   0  0  0  0  0  2  0  0  0  0  0  0
  161.3670  205.7020  149.4660 C   0  0  0  0  0  0  0  0  0  0  0  0
  160.8260  205.5830  151.0440 S   0  0  0  0  0  0  0  0  0  0  0  0
  161.7840  206.9360  149.1600 C   0  0  0  0  0  0  0  0  0  0  0  0
  162.5480  209.8900  151.0910 O   0  0  0  0  0  0  0  0  0  0  0  0
  162.0710  209.2820  150.0950 C   0  0  0  0  0  0  0  0  0  0  0  0
  161.8950  209.9760  148.8550 N   0  0  0  0  0  2  0  0  0  0  0  0
  162.2690  211.3710  148.6790 C   0  0  0  0  0  2  0  0  0  0  0  0
  161.2320  212.0800  147.8260 C   0  0  0  0  0  2  0  0  0  0  0  0
  162.7430  213.7360  147.5780 O   0  0  0  0  0  1  0  0  0  0  0  0
  161.4430  213.5160  147.8890 N   0  0  0  0  0  0  0  0  0  0  0  0
  160.6570  214.1040  146.8160 C   0  0  0  0  0  2  0  0  0  0  0  0
  161.3440  213.8750  145.4810 C   0  0  0  0  0  2  0  0  0  0  0  0
  160.3560  213.7780  144.4210 N   0  0  0  0  0  2  0  0  0  0  0  0
  160.2920  212.3810  144.0310 C   0  0  0  0  0  2  0  0  0  0  0  0
  160.6560  212.2350  142.5650 C   0  0  0  0  0  2  0  0  0  0  0  0
  162.0390  212.1190  142.4220 O   0  0  0  0  0  0  0  0  0  0  0  0
  162.2260  211.7300  141.0950 C   0  0  0  0  0  2  0  0  0  0  0  0
  161.2500  210.6250  140.7320 C   0  0  0  0  0  2  0  0  0  0  0  0
  160.8350  210.7470  139.2800 C   0  0  0  0  0  1  0  0  0  0  0  0
  162.0970  204.9250  146.1450 O   0  0  0  0  0  0  0  0  0  0  0  0
  161.4650  203.7130  145.7610 C   0  0  0  0  0  1  0  0  0  0  0  0
  160.8850  207.8850  152.6650 C   0  0  0  0  0  2  0  0  0  0  0  0
  161.2400  206.9500  153.8040 C   0  0  0  0  0  2  0  0  0  0  0  0
  160.4550  207.2980  154.9750 N   0  0  0  0  0  2  0  0  0  0  0  0
  160.8640  207.4640  157.2600 O   0  0  0  0  0  1  0  0  0  0  0  0
  161.3840  207.7490  155.9960 C   0  0  2  0  0  3  0  0  0  0  0  0
  161.6320  209.5390  155.8330 S   0  0  0  0  0  0  0  0  0  0  0  0
  159.5440  209.9430  155.9230 S   0  0  0  0  0  0  0  0  0  0  0  0
  159.7890  211.6880  155.4850 C   0  0  0  0  0  2  0  0  0  0  0  0
  159.1430  213.3330  153.8700 O   0  0  0  0  0  0  0  0  0  0  0  0
  158.8870  211.7790  151.9990 O   0  0  0  0  0  0  0  0  0  0  0  0
  159.4010  212.9900  151.6040 C   0  0  2  0  0  3  0  0  0  0  0  0
  158.9980  212.0190  154.2350 C   0  0  2  0  0  0  0  0  0  0  0  0
  157.6510  211.6370  154.1880 O   0  0  0  0  0  1  0  0  0  0  0  0
  159.7390  212.3890  152.9680 C   0  0  1  0  0  0  0  0  0  0  0  0
  157.3760  213.6640  150.3270 C   0  0  0  0  0  1  0  0  0  0  0  0
  158.2510  213.9960  151.5180 C   0  0  0  0  0  2  0  0  0  0  0  0
  1 27  1  0  0  0  0
  2  6  1  0  0  0  0
  3  5  1  0  0  0  0
  3  2  2  0  0  0  0
  4  1  2  0  0  0  0
  5  8  1  0  0  0  0
  6  7  1  0  0  0  0
  7  1  1  0  0  0  0
  8  6  2  0  0  0  0
  8  4  1  0  0  0  0
 10  4  1  0  0  0  0
 10  9  2  0  0  0  0
 11 10  1  0  0  0  0
 12 11  1  0  0  0  0
 13 15  1  0  0  0  0
 13 12  1  0  0  0  0
 14 15  1  0  0  0  0
 16 15  1  0  0  0  0
 17 16  1  0  0  0  0
 18 17  1  0  0  0  0
 19 18  1  0  0  0  0
 20 19  1  0  0  0  0
 21 20  1  0  0  0  0
 22 21  1  0  0  0  0
 23 22  1  0  0  0  0
 24 23  1  0  0  0  0
 25  3  1  0  0  0  0
 26 25  1  0  0  0  0
 27 28  1  0  0  0  0
 28 29  1  0  0  0  0
 29 31  1  0  0  0  0
 31 30  1  1  0  0  0
 32 33  1  0  0  0  0
 32 31  1  0  0  0  0
 34 33  1  0  0  0  0
 35 38  1  0  0  0  0
 37 42  1  1  0  0  0
 37 36  1  0  0  0  0
 37 40  1  0  0  0  0
 38 39  1  6  0  0  0
 38 34  1  0  0  0  0
 40 36  1  6  0  0  0
 40 35  1  0  0  0  0
 40 38  1  0  0  0  0
 41 42  1  0  0  0  0
M  END
>  <MODEL>
4

>  <REMARK>
 VINA RESULT:      -5.9      1.748      2.192
  Name = 
  22 active torsions:
  status: ('A' for Active; 'I' for Inactive)
    1  A    between atoms: C_1  and  C_19
    2  A    between atoms: C_2  and  C_22
    3  A    between atoms: C_3  and  N_27
    4  A    between atoms: C_3  and  C_28
    5  A    between atoms: S_7  and  S_12
    6  A    between atoms: S_7  and  C_20
    7  A    between atoms: O_8  and  C_11
    8  A    between atoms: C_10  and  C_22
    9  A    between atoms: C_10  and  N_38
   10  A    between atoms: S_12  and  C_32
   11  A    between atoms: C_16  and  C_24
   12  A    between atoms: C_19  and  O_39
   13  A    between atoms: C_20  and  C_29
   14  A    between atoms: C_21  and  C_23
   15  A    between atoms: C_25  and  N_33
   16  A    between atoms: C_25  and  C_41
   17  A    between atoms: N_27  and  C_34
   18  A    between atoms: C_28  and  N_35
   19  A    between atoms: C_30  and  N_33
   20  A    between atoms: C_30  and  C_34
   21  A    between atoms: C_32  and  N_38
   22  A    between atoms: O_39  and  C_41
                            x       y       z     vdW  Elec       q    Type
                         _______ _______ _______ _____ _____    ______ ____

>  <TORSDO>
F 22

$$$$
=
 OpenBabel11052411423D

 42 45  0  0  1  0  0  0  0  0999 V2000
  161.1780  204.6340  150.3130 C   0  0  0  0  0  0  0  0  0  0  0  0
  160.6560  201.4030  148.2880 N   0  0  0  0  0  0  0  0  0  0  0  0
  160.8820  201.7310  147.0470 C   0  0  0  0  0  0  0  0  0  0  0  0
  161.4060  204.8380  148.9340 C   0  0  0  0  0  0  0  0  0  0  0  0
  161.2760  203.1880  146.8290 C   0  0  0  0  0  2  0  0  0  0  0  0
  160.8810  202.5990  149.0040 C   0  0  0  0  0  0  0  0  0  0  0  0
  160.7420  203.0100  150.6190 S   0  0  0  0  0  0  0  0  0  0  0  0
  161.2280  203.6400  148.2400 C   0  0  0  0  0  0  0  0  0  0  0  0
  162.4340  206.1360  147.2270 O   0  0  0  0  0  0  0  0  0  0  0  0
  161.7690  206.1220  148.2990 C   0  0  0  0  0  0  0  0  0  0  0  0
  161.3670  207.3580  148.9020 N   0  0  0  0  0  2  0  0  0  0  0  0
  161.6770  208.6530  148.3150 C   0  0  0  0  0  2  0  0  0  0  0  0
  162.2700  209.5700  149.3700 C   0  0  0  0  0  2  0  0  0  0  0  0
  161.4850  211.2260  150.6830 O   0  0  0  0  0  1  0  0  0  0  0  0
  161.5470  210.8290  149.3900 N   0  0  0  0  0  0  0  0  0  0  0  0
  162.3780  211.8020  148.6990 C   0  0  0  0  0  2  0  0  0  0  0  0
  161.5830  213.0680  148.4290 C   0  0  0  0  0  2  0  0  0  0  0  0
  162.1230  213.7600  147.2720 N   0  0  0  0  0  2  0  0  0  0  0  0
  161.0120  213.9960  146.3670 C   0  0  0  0  0  2  0  0  0  0  0  0
  160.7630  212.7600  145.5210 C   0  0  0  0  0  2  0  0  0  0  0  0
  159.5910  212.1240  145.9350 O   0  0  0  0  0  0  0  0  0  0  0  0
  158.5840  212.6980  145.1570 C   0  0  0  0  0  2  0  0  0  0  0  0
  157.3040  212.8150  145.9640 C   0  0  0  0  0  2  0  0  0  0  0  0
  157.5960  212.6590  147.4420 C   0  0  0  0  0  1  0  0  0  0  0  0
  160.7650  200.7950  146.0220 O   0  0  0  0  0  0  0  0  0  0  0  0
  160.0100  201.0610  144.8490 C   0  0  0  0  0  1  0  0  0  0  0  0
  161.2290  205.6790  151.3760 C   0  0  0  0  0  2  0  0  0  0  0  0
  161.2010  205.0260  152.7430 C   0  0  0  0  0  2  0  0  0  0  0  0
  161.7250  205.9530  153.7310 N   0  0  0  0  0  2  0  0  0  0  0  0
  161.5260  208.1810  153.0900 O   0  0  0  0  0  1  0  0  0  0  0  0
  160.8670  207.1240  153.7190 C   0  0  2  0  0  3  0  0  0  0  0  0
  160.4650  207.5920  155.4260 S   0  0  0  0  0  0  0  0  0  0  0  0
  161.3050  209.5350  155.2020 S   0  0  0  0  0  0  0  0  0  0  0  0
  160.3260  210.1970  156.5800 C   0  0  0  0  0  2  0  0  0  0  0  0
  159.0740  211.1840  154.7950 O   0  0  0  0  0  0  0  0  0  0  0  0
  157.4540  212.3410  156.2170 O   0  0  0  0  0  0  0  0  0  0  0  0
  156.8850  211.8600  155.0630 C   0  0  2  0  0  3  0  0  0  0  0  0
  159.4740  211.3530  156.0960 C   0  0  2  0  0  0  0  0  0  0  0  0
  159.9510  212.6540  156.3020 O   0  0  0  0  0  1  0  0  0  0  0  0
  158.0170  211.1100  155.7640 C   0  0  1  0  0  0  0  0  0  0  0  0
  157.0640  214.2430  154.3740 C   0  0  0  0  0  1  0  0  0  0  0  0
  157.2410  212.8100  153.9180 C   0  0  0  0  0  2  0  0  0  0  0  0
  1  7  1  0  0  0  0
  1 27  1  0  0  0  0
  2  6  1  0  0  0  0
  3  2  2  0  0  0  0
  4  1  2  0  0  0  0
  5  3  1  0  0  0  0
  5  8  1  0  0  0  0
  6  7  1  0  0  0  0
  8  4  1  0  0  0  0
  8  6  2  0  0  0  0
  9 10  2  0  0  0  0
 10 11  1  0  0  0  0
 10  4  1  0  0  0  0
 12 11  1  0  0  0  0
 12 13  1  0  0  0  0
 13 15  1  0  0  0  0
 15 14  1  0  0  0  0
 16 15  1  0  0  0  0
 17 16  1  0  0  0  0
 18 17  1  0  0  0  0
 19 18  1  0  0  0  0
 20 21  1  0  0  0  0
 20 19  1  0  0  0  0
 22 21  1  0  0  0  0
 22 23  1  0  0  0  0
 23 24  1  0  0  0  0
 25  3  1  0  0  0  0
 26 25  1  0  0  0  0
 27 28  1  0  0  0  0
 28 29  1  0  0  0  0
 31 30  1  1  0  0  0
 31 29  1  0  0  0  0
 31 32  1  0  0  0  0
 33 32  1  0  0  0  0
 33 34  1  0  0  0  0
 35 38  1  0  0  0  0
 37 42  1  6  0  0  0
 37 40  1  0  0  0  0
 37 36  1  0  0  0  0
 38 39  1  1  0  0  0
 38 34  1  0  0  0  0
 40 35  1  6  0  0  0
 40 38  1  0  0  0  0
 40 36  1  0  0  0  0
 42 41  1  0  0  0  0
M  END
>  <MODEL>
5

>  <REMARK>
 VINA RESULT:      -5.8      2.208      2.904
  Name = 
  22 active torsions:
  status: ('A' for Active; 'I' for Inactive)
    1  A    between atoms: C_1  and  C_19
    2  A    between atoms: C_2  and  C_22
    3  A    between atoms: C_3  and  N_27
    4  A    between atoms: C_3  and  C_28
    5  A    between atoms: S_7  and  S_12
    6  A    between atoms: S_7  and  C_20
    7  A    between atoms: O_8  and  C_11
    8  A    between atoms: C_10  and  C_22
    9  A    between atoms: C_10  and  N_38
   10  A    between atoms: S_12  and  C_32
   11  A    between atoms: C_16  and  C_24
   12  A    between atoms: C_19  and  O_39
   13  A    between atoms: C_20  and  C_29
   14  A    between atoms: C_21  and  C_23
   15  A    between atoms: C_25  and  N_33
   16  A    between atoms: C_25  and  C_41
   17  A    between atoms: N_27  and  C_34
   18  A    between atoms: C_28  and  N_35
   19  A    between atoms: C_30  and  N_33
   20  A    between atoms: C_30  and  C_34
   21  A    between atoms: C_32  and  N_38
   22  A    between atoms: O_39  and  C_41
                            x       y       z     vdW  Elec       q    Type
                         _______ _______ _______ _____ _____    ______ ____

>  <TORSDO>
F 22

$$$$
=
 OpenBabel11052411423D

 42 45  0  0  1  0  0  0  0  0999 V2000
  161.1050  207.0170  151.1850 C   0  0  0  0  0  0  0  0  0  0  0  0
  161.2280  204.6380  148.1620 N   0  0  0  0  0  0  0  0  0  0  0  0
  161.6770  205.3560  147.1730 C   0  0  0  0  0  0  0  0  0  0  0  0
  161.5930  207.6650  150.0280 C   0  0  0  0  0  0  0  0  0  0  0  0
  162.0050  206.8030  147.5270 C   0  0  0  0  0  2  0  0  0  0  0  0
  161.2200  205.5290  149.2570 C   0  0  0  0  0  0  0  0  0  0  0  0
  160.7290  205.3840  150.8490 S   0  0  0  0  0  0  0  0  0  0  0  0
  161.6420  206.7640  148.9630 C   0  0  0  0  0  0  0  0  0  0  0  0
  162.3810  209.7060  150.9600 O   0  0  0  0  0  0  0  0  0  0  0  0
  161.9870  209.0870  149.9340 C   0  0  0  0  0  0  0  0  0  0  0  0
  161.9210  209.7660  148.6760 N   0  0  0  0  0  2  0  0  0  0  0  0
  162.3140  211.1590  148.5150 C   0  0  0  0  0  2  0  0  0  0  0  0
  161.2460  211.9110  147.7410 C   0  0  0  0  0  2  0  0  0  0  0  0
  162.9680  213.3670  147.7260 O   0  0  0  0  0  1  0  0  0  0  0  0
  161.6190  213.3100  147.6250 N   0  0  0  0  0  0  0  0  0  0  0  0
  161.2890  213.7210  146.2690 C   0  0  0  0  0  2  0  0  0  0  0  0
  162.5510  213.8030  145.4280 C   0  0  0  0  0  2  0  0  0  0  0  0
  162.3360  213.1630  144.1430 N   0  0  0  0  0  2  0  0  0  0  0  0
  163.2230  213.8140  143.1940 C   0  0  0  0  0  2  0  0  0  0  0  0
  162.4970  214.0460  141.8810 C   0  0  0  0  0  2  0  0  0  0  0  0
  163.0210  213.2160  140.8900 O   0  0  0  0  0  0  0  0  0  0  0  0
  161.9060  212.6030  140.3160 C   0  0  0  0  0  2  0  0  0  0  0  0
  162.3410  211.4620  139.4160 C   0  0  0  0  0  2  0  0  0  0  0  0
  163.7230  211.7290  138.8570 C   0  0  0  0  0  1  0  0  0  0  0  0
  161.8340  204.8120  145.9000 O   0  0  0  0  0  0  0  0  0  0  0  0
  161.3590  205.4750  144.7380 C   0  0  0  0  0  1  0  0  0  0  0  0
  160.8680  207.6520  152.5130 C   0  0  0  0  0  2  0  0  0  0  0  0
  161.1100  206.6440  153.6180 C   0  0  0  0  0  2  0  0  0  0  0  0
  161.6160  207.3300  154.7940 N   0  0  0  0  0  2  0  0  0  0  0  0
  159.3790  207.2830  155.4330 O   0  0  0  0  0  1  0  0  0  0  0  0
  160.6850  207.0700  155.8770 C   0  0  2  0  0  3  0  0  0  0  0  0
  161.0430  208.1890  157.2600 S   0  0  0  0  0  0  0  0  0  0  0  0
  161.7320  209.7340  155.9680 S   0  0  0  0  0  0  0  0  0  0  0  0
  160.7800  211.0010  156.8550 C   0  0  0  0  0  2  0  0  0  0  0  0
  158.6370  210.4880  155.9190 O   0  0  0  0  0  0  0  0  0  0  0  0
  157.7980  212.7860  155.9090 O   0  0  0  0  0  0  0  0  0  0  0  0
  156.8150  211.8730  156.2040 C   0  0  2  0  0  3  0  0  0  0  0  0
  159.6100  211.4520  156.0040 C   0  0  2  0  0  0  0  0  0  0  0  0
  159.8830  211.9930  154.7410 O   0  0  0  0  0  1  0  0  0  0  0  0
  158.2590  211.6600  156.6560 C   0  0  1  0  0  0  0  0  0  0  0  0
  155.2480  210.2280  155.1890 C   0  0  0  0  0  1  0  0  0  0  0  0
  156.3580  211.2180  154.8990 C   0  0  0  0  0  2  0  0  0  0  0  0
  1 27  1  0  0  0  0
  2  6  1  0  0  0  0
  3  5  1  0  0  0  0
  3  2  2  0  0  0  0
  4  1  2  0  0  0  0
  5  8  1  0  0  0  0
  6  7  1  0  0  0  0
  7  1  1  0  0  0  0
  8  6  2  0  0  0  0
  8  4  1  0  0  0  0
 10  4  1  0  0  0  0
 10  9  2  0  0  0  0
 11 10  1  0  0  0  0
 12 11  1  0  0  0  0
 13 12  1  0  0  0  0
 15 14  1  0  0  0  0
 15 13  1  0  0  0  0
 16 15  1  0  0  0  0
 17 16  1  0  0  0  0
 18 17  1  0  0  0  0
 19 18  1  0  0  0  0
 20 19  1  0  0  0  0
 21 20  1  0  0  0  0
 22 21  1  0  0  0  0
 23 22  1  0  0  0  0
 24 23  1  0  0  0  0
 25  3  1  0  0  0  0
 26 25  1  0  0  0  0
 27 28  1  0  0  0  0
 28 29  1  0  0  0  0
 29 31  1  0  0  0  0
 31 30  1  6  0  0  0
 31 32  1  0  0  0  0
 33 34  1  0  0  0  0
 33 32  1  0  0  0  0
 35 38  1  0  0  0  0
 35 40  1  0  0  0  0
 36 37  1  0  0  0  0
 37 42  1  6  0  0  0
 37 40  1  0  0  0  0
 38 39  1  6  0  0  0
 38 40  1  0  0  0  0
 38 34  1  0  0  0  0
 40 36  1  6  0  0  0
 42 41  1  0  0  0  0
M  END
>  <MODEL>
6

>  <REMARK>
 VINA RESULT:      -5.7      2.258      2.989
  Name = 
  22 active torsions:
  status: ('A' for Active; 'I' for Inactive)
    1  A    between atoms: C_1  and  C_19
    2  A    between atoms: C_2  and  C_22
    3  A    between atoms: C_3  and  N_27
    4  A    between atoms: C_3  and  C_28
    5  A    between atoms: S_7  and  S_12
    6  A    between atoms: S_7  and  C_20
    7  A    between atoms: O_8  and  C_11
    8  A    between atoms: C_10  and  C_22
    9  A    between atoms: C_10  and  N_38
   10  A    between atoms: S_12  and  C_32
   11  A    between atoms: C_16  and  C_24
   12  A    between atoms: C_19  and  O_39
   13  A    between atoms: C_20  and  C_29
   14  A    between atoms: C_21  and  C_23
   15  A    between atoms: C_25  and  N_33
   16  A    between atoms: C_25  and  C_41
   17  A    between atoms: N_27  and  C_34
   18  A    between atoms: C_28  and  N_35
   19  A    between atoms: C_30  and  N_33
   20  A    between atoms: C_30  and  C_34
   21  A    between atoms: C_32  and  N_38
   22  A    between atoms: O_39  and  C_41
                            x       y       z     vdW  Elec       q    Type
                         _______ _______ _______ _____ _____    ______ ____

>  <TORSDO>
F 22

$$$$
=
 OpenBabel11052411423D

 42 45  0  0  1  0  0  0  0  0999 V2000
  161.7000  207.2190  149.1580 C   0  0  0  0  0  0  0  0  0  0  0  0
  161.5750  204.6920  146.2570 N   0  0  0  0  0  0  0  0  0  0  0  0
  161.3070  203.5430  146.8090 C   0  0  0  0  0  0  0  0  0  0  0  0
  161.4010  205.9150  149.6110 C   0  0  0  0  0  0  0  0  0  0  0  0
  161.1200  203.5850  148.3220 C   0  0  0  0  0  2  0  0  0  0  0  0
  161.5880  205.5970  147.3400 C   0  0  0  0  0  0  0  0  0  0  0  0
  161.9100  207.2340  147.4610 S   0  0  0  0  0  0  0  0  0  0  0  0
  161.3430  205.0350  148.5280 C   0  0  0  0  0  0  0  0  0  0  0  0
  160.4220  204.5530  151.2980 O   0  0  0  0  0  0  0  0  0  0  0  0
  161.1860  205.5170  151.0190 C   0  0  0  0  0  0  0  0  0  0  0  0
  161.8460  206.2290  152.0720 N   0  0  0  0  0  2  0  0  0  0  0  0
  161.6910  205.8740  153.4750 C   0  0  0  0  0  2  0  0  0  0  0  0
  160.7890  206.8800  154.1660 C   0  0  0  0  0  2  0  0  0  0  0  0
  160.5160  208.9900  153.4180 O   0  0  0  0  0  1  0  0  0  0  0  0
  161.3850  208.2030  154.0970 N   0  0  0  0  0  0  0  0  0  0  0  0
  161.4280  208.7160  155.4580 C   0  0  0  0  0  2  0  0  0  0  0  0
  160.0770  209.2980  155.8380 C   0  0  0  0  0  2  0  0  0  0  0  0
  160.0900  209.7220  157.2270 N   0  0  0  0  0  2  0  0  0  0  0  0
  159.5510  211.0700  157.2600 C   0  0  0  0  0  2  0  0  0  0  0  0
  158.8630  211.3860  155.9440 C   0  0  0  0  0  2  0  0  0  0  0  0
  158.4090  212.7050  155.9440 O   0  0  0  0  0  0  0  0  0  0  0  0
  158.1550  212.9910  154.6020 C   0  0  0  0  0  2  0  0  0  0  0  0
  159.3050  212.5080  153.7380 C   0  0  0  0  0  2  0  0  0  0  0  0
  158.7800  211.8990  152.4540 C   0  0  0  0  0  1  0  0  0  0  0  0
  161.2040  202.3830  146.0440 O   0  0  0  0  0  0  0  0  0  0  0  0
  160.9140  201.1230  146.6310 C   0  0  0  0  0  1  0  0  0  0  0  0
  161.8880  208.4250  150.0140 C   0  0  0  0  0  2  0  0  0  0  0  0
  161.9500  209.6670  149.1490 C   0  0  0  0  0  2  0  0  0  0  0  0
  162.0200  210.8430  149.9980 N   0  0  0  0  0  2  0  0  0  0  0  0
  160.8580  212.8420  149.7340 O   0  0  0  0  0  1  0  0  0  0  0  0
  161.8050  212.0010  149.1480 C   0  0  2  0  0  3  0  0  0  0  0  0
  161.2060  211.4520  147.5260 S   0  0  0  0  0  0  0  0  0  0  0  0
  160.2340  213.3070  147.1410 S   0  0  0  0  0  0  0  0  0  0  0  0
  161.3320  213.6770  145.7440 C   0  0  0  0  0  2  0  0  0  0  0  0
  161.1650  213.9720  143.3740 O   0  0  0  0  0  0  0  0  0  0  0  0
  160.4830  211.6780  142.8700 O   0  0  0  0  0  0  0  0  0  0  0  0
  161.3120  212.1990  141.9070 C   0  0  2  0  0  3  0  0  0  0  0  0
  160.6610  213.2780  144.4450 C   0  0  2  0  0  0  0  0  0  0  0  0
  159.2610  213.2560  144.4060 O   0  0  0  0  0  1  0  0  0  0  0  0
  161.4730  212.5700  143.3810 C   0  0  1  0  0  0  0  0  0  0  0  0
  160.9210  212.9540  139.5690 C   0  0  0  0  0  1  0  0  0  0  0  0
  160.4870  213.1240  141.0100 C   0  0  0  0  0  2  0  0  0  0  0  0
  1  4  2  0  0  0  0
  1 27  1  0  0  0  0
  2  3  2  0  0  0  0
  2  6  1  0  0  0  0
  3  5  1  0  0  0  0
  4 10  1  0  0  0  0
  5  8  1  0  0  0  0
  6  7  1  0  0  0  0
  6  8  2  0  0  0  0
  7  1  1  0  0  0  0
  8  4  1  0  0  0  0
 10  9  2  0  0  0  0
 10 11  1  0  0  0  0
 11 12  1  0  0  0  0
 12 13  1  0  0  0  0
 14 15  1  0  0  0  0
 15 13  1  0  0  0  0
 15 16  1  0  0  0  0
 16 17  1  0  0  0  0
 17 18  1  0  0  0  0
 18 19  1  0  0  0  0
 20 19  1  0  0  0  0
 21 20  1  0  0  0  0
 22 21  1  0  0  0  0
 23 22  1  0  0  0  0
 24 23  1  0  0  0  0
 25 26  1  0  0  0  0
 25  3  1  0  0  0  0
 28 29  1  0  0  0  0
 28 27  1  0  0  0  0
 31 30  1  1  0  0  0
 31 29  1  0  0  0  0
 32 31  1  0  0  0  0
 33 32  1  0  0  0  0
 34 33  1  0  0  0  0
 35 40  1  0  0  0  0
 35 38  1  0  0  0  0
 37 42  1  6  0  0  0
 37 36  1  0  0  0  0
 37 40  1  0  0  0  0
 38 39  1  1  0  0  0
 38 34  1  0  0  0  0
 40 36  1  6  0  0  0
 40 38  1  0  0  0  0
 41 42  1  0  0  0  0
M  END
>  <MODEL>
7

>  <REMARK>
 VINA RESULT:      -5.4      2.875      8.264
  Name = 
  22 active torsions:
  status: ('A' for Active; 'I' for Inactive)
    1  A    between atoms: C_1  and  C_19
    2  A    between atoms: C_2  and  C_22
    3  A    between atoms: C_3  and  N_27
    4  A    between atoms: C_3  and  C_28
    5  A    between atoms: S_7  and  S_12
    6  A    between atoms: S_7  and  C_20
    7  A    between atoms: O_8  and  C_11
    8  A    between atoms: C_10  and  C_22
    9  A    between atoms: C_10  and  N_38
   10  A    between atoms: S_12  and  C_32
   11  A    between atoms: C_16  and  C_24
   12  A    between atoms: C_19  and  O_39
   13  A    between atoms: C_20  and  C_29
   14  A    between atoms: C_21  and  C_23
   15  A    between atoms: C_25  and  N_33
   16  A    between atoms: C_25  and  C_41
   17  A    between atoms: N_27  and  C_34
   18  A    between atoms: C_28  and  N_35
   19  A    between atoms: C_30  and  N_33
   20  A    between atoms: C_30  and  C_34
   21  A    between atoms: C_32  and  N_38
   22  A    between atoms: O_39  and  C_41
                            x       y       z     vdW  Elec       q    Type
                         _______ _______ _______ _____ _____    ______ ____

>  <TORSDO>
F 22

$$$$
=
 OpenBabel11052411423D

 42 45  0  0  1  0  0  0  0  0999 V2000
  161.1430  207.0520  151.3770 C   0  0  0  0  0  0  0  0  0  0  0  0
  161.2300  208.9080  154.7470 N   0  0  0  0  0  0  0  0  0  0  0  0
  161.6320  210.1160  154.4690 C   0  0  0  0  0  0  0  0  0  0  0  0
  161.5540  208.3960  151.2250 C   0  0  0  0  0  0  0  0  0  0  0  0
  161.8950  210.3800  152.9900 C   0  0  0  0  0  2  0  0  0  0  0  0
  161.1840  208.2650  153.4920 C   0  0  0  0  0  0  0  0  0  0  0  0
  160.8240  206.7010  153.0190 S   0  0  0  0  0  0  0  0  0  0  0  0
  161.5510  209.0380  152.4640 C   0  0  0  0  0  0  0  0  0  0  0  0
  162.2620  208.3400  148.9550 O   0  0  0  0  0  0  0  0  0  0  0  0
  161.9430  209.0420  149.9530 C   0  0  0  0  0  0  0  0  0  0  0  0
  161.9610  210.4700  149.8530 N   0  0  0  0  0  2  0  0  0  0  0  0
  162.3150  211.1650  148.6240 C   0  0  0  0  0  2  0  0  0  0  0  0
  161.1610  212.0420  148.1740 C   0  0  0  0  0  2  0  0  0  0  0  0
  161.5680  214.1560  148.8450 O   0  0  0  0  0  1  0  0  0  0  0  0
  160.8790  213.0420  149.1890 N   0  0  0  0  0  0  0  0  0  0  0  0
  159.4690  213.3760  149.0700 C   0  0  0  0  0  2  0  0  0  0  0  0
  159.0430  214.2630  150.2280 C   0  0  0  0  0  2  0  0  0  0  0  0
  157.6040  214.4530  150.2080 N   0  0  0  0  0  2  0  0  0  0  0  0
  157.1310  214.2360  151.5640 C   0  0  0  0  0  2  0  0  0  0  0  0
  158.2170  213.5720  152.3900 C   0  0  0  0  0  2  0  0  0  0  0  0
  158.2660  212.2050  152.1100 O   0  0  0  0  0  0  0  0  0  0  0  0
  158.4970  211.6000  153.3470 C   0  0  0  0  0  2  0  0  0  0  0  0
  157.5260  212.1380  154.3820 C   0  0  0  0  0  2  0  0  0  0  0  0
  157.6670  211.3740  155.6830 C   0  0  0  0  0  1  0  0  0  0  0  0
  161.7980  211.0700  155.4710 O   0  0  0  0  0  0  0  0  0  0  0  0
  162.7060  210.8750  156.5460 C   0  0  0  0  0  1  0  0  0  0  0  0
  161.0580  206.0320  150.2930 C   0  0  0  0  0  2  0  0  0  0  0  0
  161.6450  204.7200  150.7730 C   0  0  0  0  0  2  0  0  0  0  0  0
  160.7010  203.6470  150.5140 N   0  0  0  0  0  2  0  0  0  0  0  0
  162.3150  202.7720  151.9440 O   0  0  0  0  0  1  0  0  0  0  0  0
  161.0570  202.5420  151.3860 C   0  0  2  0  0  3  0  0  0  0  0  0
  161.0940  201.0040  150.4230 S   0  0  0  0  0  0  0  0  0  0  0  0
  159.8500  201.8070  148.8950 S   0  0  0  0  0  0  0  0  0  0  0  0
  161.0840  201.4660  147.6080 C   0  0  0  0  0  2  0  0  0  0  0  0
  160.6400  203.7880  147.2330 O   0  0  0  0  0  0  0  0  0  0  0  0
  162.6240  204.2190  145.8680 O   0  0  0  0  0  0  0  0  0  0  0  0
  162.3100  205.2800  146.6820 C   0  0  2  0  0  3  0  0  0  0  0  0
  161.2160  202.6660  146.6930 C   0  0  2  0  0  0  0  0  0  0  0  0
  160.8430  202.5150  145.3510 O   0  0  0  0  0  1  0  0  0  0  0  0
  162.0710  203.8380  147.1280 C   0  0  1  0  0  0  0  0  0  0  0  0
  161.1630  205.8380  144.5470 C   0  0  0  0  0  1  0  0  0  0  0  0
  161.1490  206.0470  146.0470 C   0  0  0  0  0  2  0  0  0  0  0  0
  1  7  1  0  0  0  0
  3  2  2  0  0  0  0
  3 25  1  0  0  0  0
  4  1  2  0  0  0  0
  4  8  1  0  0  0  0
  5  3  1  0  0  0  0
  6  2  1  0  0  0  0
  7  6  1  0  0  0  0
  8  5  1  0  0  0  0
  8  6  2  0  0  0  0
  9 10  2  0  0  0  0
 10  4  1  0  0  0  0
 11 10  1  0  0  0  0
 12 11  1  0  0  0  0
 13 12  1  0  0  0  0
 13 15  1  0  0  0  0
 14 15  1  0  0  0  0
 16 15  1  0  0  0  0
 16 17  1  0  0  0  0
 18 17  1  0  0  0  0
 18 19  1  0  0  0  0
 19 20  1  0  0  0  0
 21 20  1  0  0  0  0
 21 22  1  0  0  0  0
 22 23  1  0  0  0  0
 23 24  1  0  0  0  0
 25 26  1  0  0  0  0
 27 28  1  0  0  0  0
 27  1  1  0  0  0  0
 29 28  1  0  0  0  0
 29 31  1  0  0  0  0
 31 30  1  6  0  0  0
 32 31  1  0  0  0  0
 33 32  1  0  0  0  0
 34 33  1  0  0  0  0
 36 37  1  0  0  0  0
 37 42  1  6  0  0  0
 37 40  1  0  0  0  0
 38 39  1  6  0  0  0
 38 40  1  0  0  0  0
 38 35  1  0  0  0  0
 38 34  1  0  0  0  0
 40 36  1  6  0  0  0
 40 35  1  0  0  0  0
 41 42  1  0  0  0  0
M  END
>  <MODEL>
8

>  <REMARK>
 VINA RESULT:      -5.3      2.894      8.809
  Name = 
  22 active torsions:
  status: ('A' for Active; 'I' for Inactive)
    1  A    between atoms: C_1  and  C_19
    2  A    between atoms: C_2  and  C_22
    3  A    between atoms: C_3  and  N_27
    4  A    between atoms: C_3  and  C_28
    5  A    between atoms: S_7  and  S_12
    6  A    between atoms: S_7  and  C_20
    7  A    between atoms: O_8  and  C_11
    8  A    between atoms: C_10  and  C_22
    9  A    between atoms: C_10  and  N_38
   10  A    between atoms: S_12  and  C_32
   11  A    between atoms: C_16  and  C_24
   12  A    between atoms: C_19  and  O_39
   13  A    between atoms: C_20  and  C_29
   14  A    between atoms: C_21  and  C_23
   15  A    between atoms: C_25  and  N_33
   16  A    between atoms: C_25  and  C_41
   17  A    between atoms: N_27  and  C_34
   18  A    between atoms: C_28  and  N_35
   19  A    between atoms: C_30  and  N_33
   20  A    between atoms: C_30  and  C_34
   21  A    between atoms: C_32  and  N_38
   22  A    between atoms: O_39  and  C_41
                            x       y       z     vdW  Elec       q    Type
                         _______ _______ _______ _____ _____    ______ ____

>  <TORSDO>
F 22

$$$$
=
 OpenBabel11052411423D

 42 45  0  0  1  0  0  0  0  0999 V2000
  161.3050  204.6560  151.1690 C   0  0  0  0  0  0  0  0  0  0  0  0
  161.0900  203.1750  147.6220 N   0  0  0  0  0  0  0  0  0  0  0  0
  161.4880  204.1260  146.8250 C   0  0  0  0  0  0  0  0  0  0  0  0
  161.7240  205.5820  150.1880 C   0  0  0  0  0  0  0  0  0  0  0  0
  161.9010  205.4180  147.5220 C   0  0  0  0  0  2  0  0  0  0  0  0
  161.2050  203.7390  148.9110 C   0  0  0  0  0  0  0  0  0  0  0  0
  160.8370  203.1800  150.4440 S   0  0  0  0  0  0  0  0  0  0  0  0
  161.6520  205.0000  148.9210 C   0  0  0  0  0  0  0  0  0  0  0  0
  163.1070  207.1980  151.2530 O   0  0  0  0  0  0  0  0  0  0  0  0
  162.1680  206.9690  150.4430 C   0  0  0  0  0  0  0  0  0  0  0  0
  161.5270  208.0600  149.7710 N   0  0  0  0  0  2  0  0  0  0  0  0
  161.9310  209.4450  149.9650 C   0  0  0  0  0  2  0  0  0  0  0  0
  162.3310  210.0570  148.6340 C   0  0  0  0  0  2  0  0  0  0  0  0
  163.3050  212.0070  148.0570 O   0  0  0  0  0  1  0  0  0  0  0  0
  162.2300  211.5040  148.7100 N   0  0  0  0  0  0  0  0  0  0  0  0
  161.0610  211.8850  147.9350 C   0  0  0  0  0  2  0  0  0  0  0  0
  161.2220  213.3010  147.4090 C   0  0  0  0  0  2  0  0  0  0  0  0
  160.7550  213.3800  146.0370 N   0  0  0  0  0  2  0  0  0  0  0  0
  159.9330  212.2060  145.8030 C   0  0  0  0  0  2  0  0  0  0  0  0
  159.4300  212.2020  144.3710 C   0  0  0  0  0  2  0  0  0  0  0  0
  160.5080  212.1740  143.4840 O   0  0  0  0  0  0  0  0  0  0  0  0
  160.2160  213.1610  142.5420 C   0  0  0  0  0  2  0  0  0  0  0  0
  161.4980  213.7850  142.0230 C   0  0  0  0  0  2  0  0  0  0  0  0
  162.7020  213.1070  142.6440 C   0  0  0  0  0  1  0  0  0  0  0  0
  161.5210  203.9410  145.4440 O   0  0  0  0  0  0  0  0  0  0  0  0
  160.7570  204.7510  144.5620 C   0  0  0  0  0  1  0  0  0  0  0  0
  161.1990  204.9140  152.6330 C   0  0  0  0  0  2  0  0  0  0  0  0
  160.7660  206.3460  152.8750 C   0  0  0  0  0  2  0  0  0  0  0  0
  160.4810  206.5310  154.2870 N   0  0  0  0  0  2  0  0  0  0  0  0
  160.6620  208.1510  155.9470 O   0  0  0  0  0  1  0  0  0  0  0  0
  161.1530  207.7490  154.7040 C   0  0  2  0  0  3  0  0  0  0  0  0
  160.8460  209.0540  153.4820 S   0  0  0  0  0  0  0  0  0  0  0  0
  160.3300  210.4790  154.9760 S   0  0  0  0  0  0  0  0  0  0  0  0
  160.3800  211.8520  153.7900 C   0  0  0  0  0  2  0  0  0  0  0  0
  158.1750  212.2560  154.6280 O   0  0  0  0  0  0  0  0  0  0  0  0
  157.6850  214.1610  153.1740 O   0  0  0  0  0  0  0  0  0  0  0  0
  157.1480  214.3110  154.4300 C   0  0  2  0  0  3  0  0  0  0  0  0
  158.9740  212.3460  153.5170 C   0  0  2  0  0  0  0  0  0  0  0  0
  158.3090  211.8520  152.3870 O   0  0  0  0  0  1  0  0  0  0  0  0
  158.4820  213.5960  154.2160 C   0  0  1  0  0  0  0  0  0  0  0  0
  155.0270  213.7030  153.2810 C   0  0  0  0  0  1  0  0  0  0  0  0
  155.8750  213.4660  154.5140 C   0  0  0  0  0  2  0  0  0  0  0  0
  1 27  1  0  0  0  0
  2  6  1  0  0  0  0
  3  5  1  0  0  0  0
  3  2  2  0  0  0  0
  4 10  1  0  0  0  0
  4  1  2  0  0  0  0
  5  8  1  0  0  0  0
  6  8  2  0  0  0  0
  6  7  1  0  0  0  0
  7  1  1  0  0  0  0
  8  4  1  0  0  0  0
 10  9  2  0  0  0  0
 11 12  1  0  0  0  0
 11 10  1  0  0  0  0
 13 15  1  0  0  0  0
 13 12  1  0  0  0  0
 14 15  1  0  0  0  0
 16 15  1  0  0  0  0
 17 16  1  0  0  0  0
 18 17  1  0  0  0  0
 19 18  1  0  0  0  0
 20 19  1  0  0  0  0
 21 20  1  0  0  0  0
 22 21  1  0  0  0  0
 23 22  1  0  0  0  0
 23 24  1  0  0  0  0
 25  3  1  0  0  0  0
 26 25  1  0  0  0  0
 27 28  1  0  0  0  0
 28 29  1  0  0  0  0
 29 31  1  0  0  0  0
 31 30  1  1  0  0  0
 32 31  1  0  0  0  0
 32 33  1  0  0  0  0
 34 33  1  0  0  0  0
 36 37  1  0  0  0  0
 37 42  1  6  0  0  0
 38 39  1  6  0  0  0
 38 34  1  0  0  0  0
 38 40  1  0  0  0  0
 38 35  1  0  0  0  0
 40 36  1  6  0  0  0
 40 37  1  0  0  0  0
 40 35  1  0  0  0  0
 41 42  1  0  0  0  0
M  END
>  <MODEL>
9

>  <REMARK>
 VINA RESULT:      -5.3      1.850      2.304
  Name = 
  22 active torsions:
  status: ('A' for Active; 'I' for Inactive)
    1  A    between atoms: C_1  and  C_19
    2  A    between atoms: C_2  and  C_22
    3  A    between atoms: C_3  and  N_27
    4  A    between atoms: C_3  and  C_28
    5  A    between atoms: S_7  and  S_12
    6  A    between atoms: S_7  and  C_20
    7  A    between atoms: O_8  and  C_11
    8  A    between atoms: C_10  and  C_22
    9  A    between atoms: C_10  and  N_38
   10  A    between atoms: S_12  and  C_32
   11  A    between atoms: C_16  and  C_24
   12  A    between atoms: C_19  and  O_39
   13  A    between atoms: C_20  and  C_29
   14  A    between atoms: C_21  and  C_23
   15  A    between atoms: C_25  and  N_33
   16  A    between atoms: C_25  and  C_41
   17  A    between atoms: N_27  and  C_34
   18  A    between atoms: C_28  and  N_35
   19  A    between atoms: C_30  and  N_33
   20  A    between atoms: C_30  and  C_34
   21  A    between atoms: C_32  and  N_38
   22  A    between atoms: O_39  and  C_41
                            x       y       z     vdW  Elec       q    Type
                         _______ _______ _______ _____ _____    ______ ____

>  <TORSDO>
F 22

$$$$
