=
 OpenBabel11052410273D

 61 65  0  0  1  0  0  0  0  0999 V2000
  160.7920  210.4800  152.4280 N   0  0  0  0  0  0  0  0  0  0  0  0
  160.7850  211.7220  152.0550 C   0  0  0  0  0  0  0  0  0  0  0  0
  161.5750  211.0550  149.5630 C   0  0  2  0  0  3  0  0  0  0  0  0
  160.2030  213.1390  148.6610 C   0  0  2  0  0  3  0  0  0  0  0  0
  161.1850  211.7280  147.9520 S   0  0  0  0  0  0  0  0  0  0  0  0
  160.0920  213.0130  150.0640 O   0  0  0  0  0  0  0  0  0  0  0  0
  161.0600  212.0700  150.5670 C   0  0  1  0  0  3  0  0  0  0  0  0
  162.9190  211.0800  149.7010 O   0  0  0  0  0  1  0  0  0  0  0  0
  158.9230  213.4900  147.8720 C   0  0  0  0  0  2  0  0  0  0  0  0
  159.2790  214.4530  146.7270 C   0  0  2  0  0  3  0  0  0  0  0  0
  160.1400  213.7290  144.5990 N   0  0  0  0  0  0  0  0  0  0  0  0
  158.2070  214.3430  145.6480 C   0  0  0  0  0  2  0  0  0  0  0  0
  158.7030  213.7820  144.5520 C   0  0  0  0  0  2  0  0  0  0  0  0
  160.5410  214.0490  145.9660 C   0  0  0  0  0  2  0  0  0  0  0  0
  160.8700  213.8630  143.3390 C   0  0  0  0  0  0  0  0  0  0  0  0
  160.2960  214.4530  142.4120 O   0  0  0  0  0  0  0  0  0  0  0  0
  161.3090  211.5730  142.8190 O   0  0  0  0  0  1  0  0  0  0  0  0
  161.8800  212.8380  142.9850 C   0  0  1  0  0  3  0  0  0  0  0  0
  162.4890  213.3160  141.6910 C   0  0  0  0  0  2  0  0  0  0  0  0
  162.4210  212.4710  140.3890 C   0  0  2  0  0  3  0  0  0  0  0  0
  163.4280  213.0250  139.4750 N   0  0  0  0  0  1  0  0  0  0  0  0
  161.0200  212.3770  139.6570 C   0  0  0  0  0  2  0  0  0  0  0  0
  160.6670  211.0210  139.3980 O   0  0  0  0  0  1  0  0  0  0  0  0
  157.9640  212.4380  152.2690 S   0  0  0  0  0  0  0  0  0  0  0  0
  158.3890  213.3750  154.4900 C   0  0  0  0  0  0  0  0  0  0  0  0
  159.6580  212.9820  154.0070 C   0  0  0  0  0  3  0  0  0  0  0  0
  157.3740  213.1530  153.6250 C   0  0  0  0  0  3  0  0  0  0  0  0
  159.6400  212.3760  152.7370 C   0  0  0  0  0  0  0  0  0  0  0  0
  158.1340  214.0480  155.7490 C   0  0  0  0  0  2  0  0  0  0  0  0
  158.3470  213.2460  156.8900 O   0  0  0  0  0  0  0  0  0  0  0  0
  157.0890  212.7560  157.2610 C   0  0  0  0  0  2  0  0  0  0  0  0
  154.9150  212.2290  156.4720 O   0  0  0  0  0  0  0  0  0  0  0  0
  156.2570  211.9570  156.3620 C   0  0  2  0  0  3  0  0  0  0  0  0
  155.3550  211.0670  157.1820 C   0  0  0  0  0  2  0  0  0  0  0  0
  161.2160  209.3480  151.8120 O   0  0  0  0  0  0  0  0  0  0  0  0
  160.9260  208.1580  152.5750 C   0  0  0  0  0  2  0  0  0  0  0  0
  161.4900  206.1260  153.4240 O   0  0  0  0  0  1  0  0  0  0  0  0
  161.9210  207.0200  152.4510 C   0  0  1  0  0  3  0  0  0  0  0  0
  161.9830  206.4370  151.0890 C   0  0  0  0  0  0  0  0  0  0  0  0
  161.5530  205.0930  150.8470 C   0  0  0  0  0  3  0  0  0  0  0  0
  161.1300  203.8990  151.9350 C   0  0  1  0  0  3  0  0  0  0  0  0
  159.7510  203.5230  151.9440 O   0  0  0  0  0  1  0  0  0  0  0  0
  161.9270  202.6310  151.8270 N   0  0  0  0  0  1  0  0  0  0  0  0
  162.5220  207.4970  150.0610 C   0  0  0  0  0  2  0  0  0  0  0  0
  161.1280  206.0570  146.4150 C   0  0  0  0  0  0  0  0  0  0  0  0
  160.6130  207.0730  148.5640 C   0  0  0  0  0  3  0  0  0  0  0  0
  162.4930  206.2890  146.5710 C   0  0  0  0  0  3  0  0  0  0  0  0
  160.2050  206.4770  147.3430 C   0  0  0  0  0  3  0  0  0  0  0  0
  161.9820  207.1450  148.7310 C   0  0  0  0  0  0  0  0  0  0  0  0
  162.8350  206.8800  147.7870 N   0  0  0  0  0  0  0  0  0  0  0  0
  160.5600  204.0520  144.9930 C   0  0  0  0  0  0  0  0  0  0  0  0
  160.6690  205.4800  145.1370 N   0  0  0  0  0  2  0  0  0  0  0  0
  159.9070  203.5440  143.9980 O   0  0  0  0  0  0  0  0  0  0  0  0
  161.2440  203.1240  145.8030 O   0  0  0  0  0  0  0  0  0  0  0  0
  160.8400  200.8890  146.1460 O   0  0  0  0  0  1  0  0  0  0  0  0
  160.5820  202.1830  146.6200 C   0  0  1  0  0  3  0  0  0  0  0  0
  161.0670  202.3320  148.0150 C   0  0  0  0  0  0  0  0  0  0  0  0
  161.3720  203.4820  148.4090 O   0  0  0  0  0  0  0  0  0  0  0  0
  161.2130  201.1120  148.9380 C   0  0  0  0  0  3  0  0  0  0  0  0
  162.1150  200.1000  148.4760 F   0  0  0  0  0  0  0  0  0  0  0  0
  160.2190  200.8910  149.9420 F   0  0  0  0  0  0  0  0  0  0  0  0
  2  1  2  0  0  0  0
  2 28  1  0  0  0  0
  3  8  1  6  0  0  0
  3  7  1  0  0  0  0
  4  9  1  6  0  0  0
  4  6  1  0  0  0  0
  5  4  1  0  0  0  0
  5  3  1  0  0  0  0
  6  7  1  0  0  0  0
  7  2  1  1  0  0  0
 10  9  1  1  0  0  0
 11 14  1  0  0  0  0
 12 10  1  0  0  0  0
 13 11  1  0  0  0  0
 13 12  1  0  0  0  0
 14 10  1  0  0  0  0
 15 11  1  0  0  0  0
 16 15  2  0  0  0  0
 18 17  1  6  0  0  0
 18 15  1  0  0  0  0
 19 18  1  0  0  0  0
 20 21  1  6  0  0  0
 20 19  1  0  0  0  0
 22 20  1  0  0  0  0
 23 22  1  0  0  0  0
 24 28  1  0  0  0  0
 24 27  1  0  0  0  0
 25 29  1  0  0  0  0
 26 25  1  0  0  0  0
 27 25  2  0  0  0  0
 28 26  2  0  0  0  0
 29 30  1  0  0  0  0
 30 31  1  0  0  0  0
 32 34  1  0  0  0  0
 33 32  1  0  0  0  0
 33 34  1  0  0  0  0
 33 31  1  1  0  0  0
 35  1  1  0  0  0  0
 35 36  1  0  0  0  0
 38 36  1  0  0  0  0
 38 37  1  1  0  0  0
 39 38  1  0  0  0  0
 40 39  2  0  0  0  0
 40 41  1  0  0  0  0
 41 43  1  6  0  0  0
 41 42  1  0  0  0  0
 44 39  1  0  0  0  0
 45 47  2  0  0  0  0
 45 48  1  0  0  0  0
 46 49  1  0  0  0  0
 47 50  1  0  0  0  0
 48 46  2  0  0  0  0
 49 44  1  0  0  0  0
 50 49  2  0  0  0  0
 51 52  1  0  0  0  0
 51 54  1  0  0  0  0
 52 45  1  0  0  0  0
 53 51  2  0  0  0  0
 54 56  1  0  0  0  0
 56 55  1  6  0  0  0
 56 57  1  0  0  0  0
 57 58  2  0  0  0  0
 57 59  1  0  0  0  0
 59 61  1  0  0  0  0
 60 59  1  0  0  0  0
M  END
>  <MODEL>
1

>  <REMARK>
 VINA RESULT:      -5.0      0.000      0.000
  Name = 
  24 active torsions:
  status: ('A' for Active; 'I' for Inactive)
    1  A    between atoms: C_2  and  O_55
    2  A    between atoms: C_3  and  C_47
    3  A    between atoms: CA_4  and  C_11
    4  A    between atoms: CA_4  and  C_25
    5  A    between atoms: C_7  and  C_9
    6  A    between atoms: C_7  and  C_24
    7  A    between atoms: C_8  and  C_47
    8  A    between atoms: C_10  and  C_30
    9  A    between atoms: C_10  and  C_50
   10  A    between atoms: C_14  and  N_37
   11  A    between atoms: C_15  and  C_16
   12  A    between atoms: N_22  and  O_60
   13  A    between atoms: C_24  and  O_55
   14  A    between atoms: C_25  and  C_56
   15  A    between atoms: C_30  and  C_58
   16  A    between atoms: C_32  and  O_38
   17  A    between atoms: C_32  and  C_44
   18  A    between atoms: C_33  and  C_34
   19  A    between atoms: C_33  and  O_38
   20  A    between atoms: C_42  and  C_45
   21  A    between atoms: C_45  and  C_61
   22  A    between atoms: C_50  and  C_53
   23  A    between atoms: C_51  and  C_56
   24  A    between atoms: C_58  and  O_60
                            x       y       z     vdW  Elec       q    Type
                         _______ _______ _______ _____ _____    ______ ____

>  <TORSDO>
F 24

$$$$
=
 OpenBabel11052410273D

 61 65  0  0  1  0  0  0  0  0999 V2000
  162.1460  209.3490  148.1120 N   0  0  0  0  0  0  0  0  0  0  0  0
  162.3410  208.2010  148.6840 C   0  0  0  0  0  0  0  0  0  0  0  0
  161.0100  208.6100  150.9950 C   0  0  2  0  0  3  0  0  0  0  0  0
  162.4410  206.6510  152.0690 C   0  0  2  0  0  3  0  0  0  0  0  0
  161.0410  207.7670  152.5720 S   0  0  0  0  0  0  0  0  0  0  0  0
  162.7740  206.8530  150.7100 O   0  0  0  0  0  0  0  0  0  0  0  0
  162.2110  208.0890  150.2280 C   0  0  1  0  0  3  0  0  0  0  0  0
  161.2830  209.9140  151.2240 O   0  0  0  0  0  1  0  0  0  0  0  0
  162.3110  205.1950  152.5630 C   0  0  0  0  0  2  0  0  0  0  0  0
  161.0010  204.5920  152.0280 C   0  0  2  0  0  3  0  0  0  0  0  0
  160.8920  203.1210  150.1250 N   0  0  0  0  0  0  0  0  0  0  0  0
  160.9540  203.1150  152.4080 C   0  0  0  0  0  2  0  0  0  0  0  0
  161.0660  202.3510  151.3280 C   0  0  0  0  0  2  0  0  0  0  0  0
  160.9400  204.5310  150.5020 C   0  0  0  0  0  2  0  0  0  0  0  0
  160.2640  202.4640  148.9790 C   0  0  0  0  0  0  0  0  0  0  0  0
  159.5240  201.4990  149.2160 O   0  0  0  0  0  0  0  0  0  0  0  0
  162.2370  203.0440  147.7620 O   0  0  0  0  0  1  0  0  0  0  0  0
  160.9520  202.5030  147.6670 C   0  0  1  0  0  3  0  0  0  0  0  0
  161.0160  201.0660  147.2150 C   0  0  0  0  0  2  0  0  0  0  0  0
  160.9200  200.6710  145.7160 C   0  0  2  0  0  3  0  0  0  0  0  0
  159.8680  201.5080  145.1270 N   0  0  0  0  0  1  0  0  0  0  0  0
  160.6490  199.1470  145.3830 C   0  0  0  0  0  2  0  0  0  0  0  0
  161.8080  198.3540  145.6270 O   0  0  0  0  0  1  0  0  0  0  0  0
  160.2060  206.2900  148.1280 S   0  0  0  0  0  0  0  0  0  0  0  0
  161.1410  205.9220  145.8970 C   0  0  0  0  0  0  0  0  0  0  0  0
  162.0470  206.7990  146.5350 C   0  0  0  0  0  3  0  0  0  0  0  0
  160.0970  205.5470  146.6670 C   0  0  0  0  0  3  0  0  0  0  0  0
  161.6780  207.1750  147.8400 C   0  0  0  0  0  0  0  0  0  0  0  0
  161.3020  205.3600  144.5700 C   0  0  0  0  0  2  0  0  0  0  0  0
  162.1940  206.0710  143.7400 O   0  0  0  0  0  0  0  0  0  0  0  0
  161.5580  206.1920  142.4980 C   0  0  0  0  0  2  0  0  0  0  0  0
  163.0960  207.2400  141.0300 O   0  0  0  0  0  0  0  0  0  0  0  0
  162.2850  206.1500  141.2310 C   0  0  2  0  0  3  0  0  0  0  0  0
  161.8330  207.2980  140.3620 C   0  0  0  0  0  2  0  0  0  0  0  0
  162.0490  210.6080  148.6090 O   0  0  0  0  0  0  0  0  0  0  0  0
  161.4040  211.5180  147.6950 C   0  0  0  0  0  2  0  0  0  0  0  0
  162.4670  213.1200  146.4810 O   0  0  0  0  0  1  0  0  0  0  0  0
  161.8800  212.9570  147.7300 C   0  0  1  0  0  3  0  0  0  0  0  0
  160.7950  213.9300  148.0120 C   0  0  0  0  0  0  0  0  0  0  0  0
  159.8210  214.2500  147.0130 C   0  0  0  0  0  3  0  0  0  0  0  0
  159.7790  213.8360  145.3960 C   0  0  1  0  0  3  0  0  0  0  0  0
  160.9370  214.1820  144.6340 O   0  0  0  0  0  1  0  0  0  0  0  0
  159.4900  212.3890  145.1200 N   0  0  0  0  0  1  0  0  0  0  0  0
  160.8970  214.4530  149.4910 C   0  0  0  0  0  2  0  0  0  0  0  0
  157.3180  213.9370  151.5490 C   0  0  0  0  0  0  0  0  0  0  0  0
  158.4920  213.9310  149.4190 C   0  0  0  0  0  3  0  0  0  0  0  0
  158.5120  213.9660  152.2680 C   0  0  0  0  0  3  0  0  0  0  0  0
  157.2940  213.8670  150.1770 C   0  0  0  0  0  3  0  0  0  0  0  0
  159.6340  214.1070  150.1750 C   0  0  0  0  0  0  0  0  0  0  0  0
  159.6550  214.0250  151.4720 N   0  0  0  0  0  0  0  0  0  0  0  0
  156.0010  214.2840  153.6720 C   0  0  0  0  0  0  0  0  0  0  0  0
  156.0600  213.8230  152.3090 N   0  0  0  0  0  2  0  0  0  0  0  0
  154.8580  214.4500  154.2570 O   0  0  0  0  0  0  0  0  0  0  0  0
  157.1310  214.4480  154.4980 O   0  0  0  0  0  0  0  0  0  0  0  0
  156.2490  213.9250  156.5540 O   0  0  0  0  0  1  0  0  0  0  0  0
  157.3280  213.7100  155.6840 C   0  0  1  0  0  3  0  0  0  0  0  0
  157.4400  212.2710  155.3420 C   0  0  0  0  0  0  0  0  0  0  0  0
  156.3790  211.6160  155.2090 O   0  0  0  0  0  0  0  0  0  0  0  0
  158.8130  211.5990  155.1780 C   0  0  0  0  0  3  0  0  0  0  0  0
  159.8270  212.0530  156.0810 F   0  0  0  0  0  0  0  0  0  0  0  0
  159.0880  210.8920  153.9660 F   0  0  0  0  0  0  0  0  0  0  0  0
  1 35  1  0  0  0  0
  1  2  2  0  0  0  0
  3  8  1  1  0  0  0
  3  5  1  0  0  0  0
  4  9  1  6  0  0  0
  4  5  1  0  0  0  0
  6  4  1  0  0  0  0
  7  2  1  6  0  0  0
  7  6  1  0  0  0  0
  7  3  1  0  0  0  0
 10 12  1  0  0  0  0
 10  9  1  6  0  0  0
 11 14  1  0  0  0  0
 11 13  1  0  0  0  0
 13 12  1  0  0  0  0
 14 10  1  0  0  0  0
 15 16  2  0  0  0  0
 15 11  1  0  0  0  0
 18 17  1  1  0  0  0
 18 15  1  0  0  0  0
 19 18  1  0  0  0  0
 20 21  1  1  0  0  0
 20 19  1  0  0  0  0
 22 23  1  0  0  0  0
 22 20  1  0  0  0  0
 25 26  1  0  0  0  0
 25 27  2  0  0  0  0
 26 28  2  0  0  0  0
 27 24  1  0  0  0  0
 28 24  1  0  0  0  0
 28  2  1  0  0  0  0
 29 25  1  0  0  0  0
 30 29  1  0  0  0  0
 31 30  1  0  0  0  0
 32 33  1  0  0  0  0
 33 31  1  1  0  0  0
 34 32  1  0  0  0  0
 34 33  1  0  0  0  0
 36 38  1  0  0  0  0
 36 35  1  0  0  0  0
 38 37  1  6  0  0  0
 38 39  1  0  0  0  0
 39 44  1  0  0  0  0
 40 39  2  0  0  0  0
 41 42  1  1  0  0  0
 41 40  1  0  0  0  0
 43 41  1  0  0  0  0
 44 49  1  0  0  0  0
 45 47  1  0  0  0  0
 45 52  1  0  0  0  0
 46 49  2  0  0  0  0
 46 48  1  0  0  0  0
 48 45  2  0  0  0  0
 49 50  1  0  0  0  0
 50 47  2  0  0  0  0
 51 53  2  0  0  0  0
 51 54  1  0  0  0  0
 52 51  1  0  0  0  0
 54 56  1  0  0  0  0
 56 55  1  1  0  0  0
 57 56  1  0  0  0  0
 58 57  2  0  0  0  0
 59 57  1  0  0  0  0
 59 60  1  0  0  0  0
 61 59  1  0  0  0  0
M  END
>  <MODEL>
2

>  <REMARK>
 VINA RESULT:      -4.6      3.401     11.623
  Name = 
  24 active torsions:
  status: ('A' for Active; 'I' for Inactive)
    1  A    between atoms: C_2  and  O_55
    2  A    between atoms: C_3  and  C_47
    3  A    between atoms: CA_4  and  C_11
    4  A    between atoms: CA_4  and  C_25
    5  A    between atoms: C_7  and  C_9
    6  A    between atoms: C_7  and  C_24
    7  A    between atoms: C_8  and  C_47
    8  A    between atoms: C_10  and  C_30
    9  A    between atoms: C_10  and  C_50
   10  A    between atoms: C_14  and  N_37
   11  A    between atoms: C_15  and  C_16
   12  A    between atoms: N_22  and  O_60
   13  A    between atoms: C_24  and  O_55
   14  A    between atoms: C_25  and  C_56
   15  A    between atoms: C_30  and  C_58
   16  A    between atoms: C_32  and  O_38
   17  A    between atoms: C_32  and  C_44
   18  A    between atoms: C_33  and  C_34
   19  A    between atoms: C_33  and  O_38
   20  A    between atoms: C_42  and  C_45
   21  A    between atoms: C_45  and  C_61
   22  A    between atoms: C_50  and  C_53
   23  A    between atoms: C_51  and  C_56
   24  A    between atoms: C_58  and  O_60
                            x       y       z     vdW  Elec       q    Type
                         _______ _______ _______ _____ _____    ______ ____

>  <TORSDO>
F 24

$$$$
=
 OpenBabel11052410273D

 61 65  0  0  1  0  0  0  0  0999 V2000
  162.4950  209.3430  150.8490 N   0  0  0  0  0  0  0  0  0  0  0  0
  162.6510  209.0780  149.5880 C   0  0  0  0  0  0  0  0  0  0  0  0
  160.6130  207.3750  149.1080 C   0  0  2  0  0  3  0  0  0  0  0  0
  162.0650  206.3230  147.1530 C   0  0  2  0  0  3  0  0  0  0  0  0
  160.3560  206.1240  147.8570 S   0  0  0  0  0  0  0  0  0  0  0  0
  162.7440  207.3880  147.7870 O   0  0  0  0  0  0  0  0  0  0  0  0
  162.0810  207.7520  149.0140 C   0  0  1  0  0  3  0  0  0  0  0  0
  160.4850  206.7790  150.3140 O   0  0  0  0  0  1  0  0  0  0  0  0
  162.1390  206.2470  145.6130 C   0  0  0  0  0  2  0  0  0  0  0  0
  162.3410  204.7830  145.1860 C   0  0  2  0  0  3  0  0  0  0  0  0
  161.2480  202.9220  146.2540 N   0  0  0  0  0  0  0  0  0  0  0  0
  161.0890  204.3140  144.4510 C   0  0  0  0  0  2  0  0  0  0  0  0
  160.4380  203.4060  145.1680 C   0  0  0  0  0  2  0  0  0  0  0  0
  162.4020  203.8100  146.3630 C   0  0  0  0  0  2  0  0  0  0  0  0
  161.0800  201.5280  146.6630 C   0  0  0  0  0  0  0  0  0  0  0  0
  160.6330  200.7400  145.8170 O   0  0  0  0  0  0  0  0  0  0  0  0
  161.8090  200.4030  148.6410 O   0  0  0  0  0  1  0  0  0  0  0  0
  160.8240  201.2280  148.0910 C   0  0  1  0  0  3  0  0  0  0  0  0
  160.8140  202.5700  148.7790 C   0  0  0  0  0  2  0  0  0  0  0  0
  160.6890  202.7010  150.3220 C   0  0  2  0  0  3  0  0  0  0  0  0
  159.3820  203.3150  150.5880 N   0  0  0  0  0  1  0  0  0  0  0  0
  161.8270  203.5030  151.0770 C   0  0  0  0  0  2  0  0  0  0  0  0
  161.3090  204.1700  152.2260 O   0  0  0  0  0  1  0  0  0  0  0  0
  163.5460  211.4920  148.2130 S   0  0  0  0  0  0  0  0  0  0  0  0
  161.2360  211.9420  147.5400 C   0  0  0  0  0  0  0  0  0  0  0  0
  161.1620  210.7980  148.3660 C   0  0  0  0  0  3  0  0  0  0  0  0
  162.4840  212.4380  147.3910 C   0  0  0  0  0  3  0  0  0  0  0  0
  162.4030  210.3380  148.8440 C   0  0  0  0  0  0  0  0  0  0  0  0
  160.1060  212.6330  146.9480 C   0  0  0  0  0  2  0  0  0  0  0  0
  159.1810  213.1430  147.8830 O   0  0  0  0  0  0  0  0  0  0  0  0
  158.5430  214.2180  147.2520 C   0  0  0  0  0  2  0  0  0  0  0  0
  156.7110  212.8460  146.6350 O   0  0  0  0  0  0  0  0  0  0  0  0
  157.1790  214.1330  146.7340 C   0  0  2  0  0  3  0  0  0  0  0  0
  157.1960  213.4070  145.4110 C   0  0  0  0  0  2  0  0  0  0  0  0
  162.0990  208.5780  151.8960 O   0  0  0  0  0  0  0  0  0  0  0  0
  161.0950  209.2230  152.7080 C   0  0  0  0  0  2  0  0  0  0  0  0
  160.8250  211.4070  153.2770 O   0  0  0  0  0  1  0  0  0  0  0  0
  161.5840  210.3040  153.6510 C   0  0  1  0  0  3  0  0  0  0  0  0
  161.4470  209.9420  155.0830 C   0  0  0  0  0  0  0  0  0  0  0  0
  161.2440  208.5820  155.4790 C   0  0  0  0  0  3  0  0  0  0  0  0
  160.9260  207.2370  154.5420 C   0  0  1  0  0  3  0  0  0  0  0  0
  162.0180  206.3340  154.3560 O   0  0  0  0  0  1  0  0  0  0  0  0
  159.7520  206.4150  154.9900 N   0  0  0  0  0  1  0  0  0  0  0  0
  161.5940  211.2190  155.9880 C   0  0  0  0  0  2  0  0  0  0  0  0
  157.8650  212.8400  156.8740 C   0  0  0  0  0  0  0  0  0  0  0  0
  160.1160  213.1890  156.0210 C   0  0  0  0  0  3  0  0  0  0  0  0
  158.0050  211.4540  156.8300 C   0  0  0  0  0  3  0  0  0  0  0  0
  158.8540  213.6880  156.4380 C   0  0  0  0  0  3  0  0  0  0  0  0
  160.2510  211.8190  156.1370 C   0  0  0  0  0  0  0  0  0  0  0  0
  159.2620  211.0210  156.4110 N   0  0  0  0  0  0  0  0  0  0  0  0
  155.6280  213.8200  156.2420 C   0  0  0  0  0  0  0  0  0  0  0  0
  156.5510  213.3870  157.2590 N   0  0  0  0  0  2  0  0  0  0  0  0
  154.3870  214.0370  156.5360 O   0  0  0  0  0  0  0  0  0  0  0  0
  156.0080  214.1690  154.9310 O   0  0  0  0  0  0  0  0  0  0  0  0
  156.2160  212.0120  154.1690 O   0  0  0  0  0  1  0  0  0  0  0  0
  156.7460  213.3080  154.0910 C   0  0  1  0  0  3  0  0  0  0  0  0
  156.6710  213.8160  152.6980 C   0  0  0  0  0  0  0  0  0  0  0  0
  155.6450  214.4530  152.3620 O   0  0  0  0  0  0  0  0  0  0  0  0
  157.8050  213.5500  151.6950 C   0  0  0  0  0  3  0  0  0  0  0  0
  159.0800  213.2570  152.2780 F   0  0  0  0  0  0  0  0  0  0  0  0
  157.6290  213.9650  150.3380 F   0  0  0  0  0  0  0  0  0  0  0  0
  1 35  1  0  0  0  0
  2  1  2  0  0  0  0
  3  8  1  1  0  0  0
  4  9  1  6  0  0  0
  4  6  1  0  0  0  0
  4  5  1  0  0  0  0
  5  3  1  0  0  0  0
  6  7  1  0  0  0  0
  7  3  1  0  0  0  0
  7  2  1  6  0  0  0
 10  9  1  1  0  0  0
 10 14  1  0  0  0  0
 11 14  1  0  0  0  0
 11 15  1  0  0  0  0
 12 13  1  0  0  0  0
 12 10  1  0  0  0  0
 13 11  1  0  0  0  0
 15 18  1  0  0  0  0
 16 15  2  0  0  0  0
 18 17  1  1  0  0  0
 18 19  1  0  0  0  0
 19 20  1  0  0  0  0
 20 21  1  6  0  0  0
 20 22  1  0  0  0  0
 22 23  1  0  0  0  0
 24 28  1  0  0  0  0
 25 26  1  0  0  0  0
 26 28  2  0  0  0  0
 27 25  2  0  0  0  0
 27 24  1  0  0  0  0
 28  2  1  0  0  0  0
 29 25  1  0  0  0  0
 29 30  1  0  0  0  0
 31 30  1  0  0  0  0
 32 33  1  0  0  0  0
 33 31  1  1  0  0  0
 34 32  1  0  0  0  0
 34 33  1  0  0  0  0
 35 36  1  0  0  0  0
 36 38  1  0  0  0  0
 38 37  1  1  0  0  0
 38 39  1  0  0  0  0
 39 40  2  0  0  0  0
 39 44  1  0  0  0  0
 41 42  1  1  0  0  0
 41 43  1  0  0  0  0
 41 40  1  0  0  0  0
 44 49  1  0  0  0  0
 45 52  1  0  0  0  0
 46 49  2  0  0  0  0
 46 48  1  0  0  0  0
 47 45  1  0  0  0  0
 48 45  2  0  0  0  0
 49 50  1  0  0  0  0
 50 47  2  0  0  0  0
 51 53  2  0  0  0  0
 51 52  1  0  0  0  0
 54 51  1  0  0  0  0
 56 55  1  6  0  0  0
 56 54  1  0  0  0  0
 57 56  1  0  0  0  0
 58 57  2  0  0  0  0
 59 60  1  0  0  0  0
 59 57  1  0  0  0  0
 61 59  1  0  0  0  0
M  END
>  <MODEL>
3

>  <REMARK>
 VINA RESULT:      -4.0      4.252     10.438
  Name = 
  24 active torsions:
  status: ('A' for Active; 'I' for Inactive)
    1  A    between atoms: C_2  and  O_55
    2  A    between atoms: C_3  and  C_47
    3  A    between atoms: CA_4  and  C_11
    4  A    between atoms: CA_4  and  C_25
    5  A    between atoms: C_7  and  C_9
    6  A    between atoms: C_7  and  C_24
    7  A    between atoms: C_8  and  C_47
    8  A    between atoms: C_10  and  C_30
    9  A    between atoms: C_10  and  C_50
   10  A    between atoms: C_14  and  N_37
   11  A    between atoms: C_15  and  C_16
   12  A    between atoms: N_22  and  O_60
   13  A    between atoms: C_24  and  O_55
   14  A    between atoms: C_25  and  C_56
   15  A    between atoms: C_30  and  C_58
   16  A    between atoms: C_32  and  O_38
   17  A    between atoms: C_32  and  C_44
   18  A    between atoms: C_33  and  C_34
   19  A    between atoms: C_33  and  O_38
   20  A    between atoms: C_42  and  C_45
   21  A    between atoms: C_45  and  C_61
   22  A    between atoms: C_50  and  C_53
   23  A    between atoms: C_51  and  C_56
   24  A    between atoms: C_58  and  O_60
                            x       y       z     vdW  Elec       q    Type
                         _______ _______ _______ _____ _____    ______ ____

>  <TORSDO>
F 24

$$$$
=
 OpenBabel11052410273D

 61 65  0  0  1  0  0  0  0  0999 V2000
  161.5830  210.8830  149.5160 N   0  0  0  0  0  0  0  0  0  0  0  0
  161.3260  212.1410  149.3320 C   0  0  0  0  0  0  0  0  0  0  0  0
  160.0390  213.9130  147.7550 C   0  0  2  0  0  3  0  0  0  0  0  0
  161.3600  212.9050  145.6870 C   0  0  2  0  0  3  0  0  0  0  0  0
  160.1660  214.2930  146.0130 S   0  0  0  0  0  0  0  0  0  0  0  0
  161.7230  212.2670  146.8950 O   0  0  0  0  0  0  0  0  0  0  0  0
  160.8030  212.6150  147.9480 C   0  0  1  0  0  3  0  0  0  0  0  0
  158.7500  213.5990  148.0110 O   0  0  0  0  0  1  0  0  0  0  0  0
  162.4920  213.2500  144.6950 C   0  0  0  0  0  2  0  0  0  0  0  0
  161.9380  214.1700  143.5940 C   0  0  2  0  0  3  0  0  0  0  0  0
  162.0490  213.6510  141.2460 N   0  0  0  0  0  0  0  0  0  0  0  0
  160.6520  213.5570  143.0490 C   0  0  0  0  0  2  0  0  0  0  0  0
  160.8260  213.1370  141.8020 C   0  0  0  0  0  2  0  0  0  0  0  0
  162.8200  214.2220  142.3470 C   0  0  0  0  0  2  0  0  0  0  0  0
  162.0770  213.9450  139.8130 C   0  0  0  0  0  0  0  0  0  0  0  0
  160.9930  214.1810  139.2630 O   0  0  0  0  0  0  0  0  0  0  0  0
  164.4150  213.8820  139.3240 O   0  0  0  0  0  1  0  0  0  0  0  0
  163.1610  213.3660  138.9860 C   0  0  1  0  0  3  0  0  0  0  0  0
  163.1100  211.8830  139.2540 C   0  0  0  0  0  2  0  0  0  0  0  0
  162.2180  210.9260  138.4160 C   0  0  2  0  0  3  0  0  0  0  0  0
  162.7600  210.9340  137.0510 N   0  0  0  0  0  1  0  0  0  0  0  0
  160.6640  211.2270  138.3830 C   0  0  0  0  0  2  0  0  0  0  0  0
  159.9810  210.5110  139.4090 O   0  0  0  0  0  1  0  0  0  0  0  0
  160.1790  214.2540  150.9850 S   0  0  0  0  0  0  0  0  0  0  0  0
  159.3530  212.5590  152.5460 C   0  0  0  0  0  0  0  0  0  0  0  0
  160.0980  211.8410  151.5830 C   0  0  0  0  0  3  0  0  0  0  0  0
  159.3350  213.8950  152.3480 C   0  0  0  0  0  3  0  0  0  0  0  0
  160.6440  212.6320  150.5550 C   0  0  0  0  0  0  0  0  0  0  0  0
  158.7170  211.9910  153.7190 C   0  0  0  0  0  2  0  0  0  0  0  0
  157.7800  212.8420  154.3430 O   0  0  0  0  0  0  0  0  0  0  0  0
  156.6320  212.0690  154.5530 C   0  0  0  0  0  2  0  0  0  0  0  0
  155.2390  211.1990  156.2630 O   0  0  0  0  0  0  0  0  0  0  0  0
  156.4870  211.1640  155.6920 C   0  0  2  0  0  3  0  0  0  0  0  0
  156.2330  211.9750  156.9390 C   0  0  0  0  0  2  0  0  0  0  0  0
  161.7010  209.8430  148.6540 O   0  0  0  0  0  0  0  0  0  0  0  0
  160.9240  208.6960  149.0560 C   0  0  0  0  0  2  0  0  0  0  0  0
  161.7150  207.7880  147.1270 O   0  0  0  0  0  1  0  0  0  0  0  0
  161.2590  207.3830  148.3760 C   0  0  1  0  0  3  0  0  0  0  0  0
  162.2370  206.5620  149.1310 C   0  0  0  0  0  0  0  0  0  0  0  0
  162.4840  205.1990  148.7680 C   0  0  0  0  0  3  0  0  0  0  0  0
  161.6770  204.2250  147.6780 C   0  0  1  0  0  3  0  0  0  0  0  0
  160.8940  203.1720  148.2420 O   0  0  0  0  0  1  0  0  0  0  0  0
  160.7920  204.9560  146.7090 N   0  0  0  0  0  1  0  0  0  0  0  0
  162.9090  207.4140  150.2680 C   0  0  0  0  0  2  0  0  0  0  0  0
  161.1420  206.5540  153.9350 C   0  0  0  0  0  0  0  0  0  0  0  0
  161.9520  208.2400  152.3810 C   0  0  0  0  0  3  0  0  0  0  0  0
  161.2150  205.5520  152.9700 C   0  0  0  0  0  3  0  0  0  0  0  0
  161.4440  207.8640  153.6520 C   0  0  0  0  0  3  0  0  0  0  0  0
  162.1430  207.1850  151.5110 C   0  0  0  0  0  0  0  0  0  0  0  0
  161.7170  205.9790  151.7410 N   0  0  0  0  0  0  0  0  0  0  0  0
  160.3350  207.2330  156.2270 C   0  0  0  0  0  0  0  0  0  0  0  0
  160.5750  206.2020  155.2500 N   0  0  0  0  0  2  0  0  0  0  0  0
  159.5940  206.9940  157.2600 O   0  0  0  0  0  0  0  0  0  0  0  0
  160.9740  208.4890  156.2190 O   0  0  0  0  0  0  0  0  0  0  0  0
  159.2880  209.8430  156.9970 O   0  0  0  0  0  1  0  0  0  0  0  0
  160.2810  209.7020  156.0160 C   0  0  1  0  0  3  0  0  0  0  0  0
  161.2470  210.8260  156.0890 C   0  0  0  0  0  0  0  0  0  0  0  0
  162.3980  210.6390  155.6280 O   0  0  0  0  0  0  0  0  0  0  0  0
  160.8570  212.1660  156.7310 C   0  0  0  0  0  3  0  0  0  0  0  0
  161.9470  212.9310  157.2600 F   0  0  0  0  0  0  0  0  0  0  0  0
  159.4890  212.3820  157.0870 F   0  0  0  0  0  0  0  0  0  0  0  0
  2  1  2  0  0  0  0
  2 28  1  0  0  0  0
  3  7  1  0  0  0  0
  3  8  1  6  0  0  0
  4  9  1  1  0  0  0
  4  5  1  0  0  0  0
  4  6  1  0  0  0  0
  5  3  1  0  0  0  0
  6  7  1  0  0  0  0
  7  2  1  1  0  0  0
 10  9  1  1  0  0  0
 11 13  1  0  0  0  0
 11 14  1  0  0  0  0
 12 10  1  0  0  0  0
 13 12  1  0  0  0  0
 14 10  1  0  0  0  0
 15 11  1  0  0  0  0
 16 15  2  0  0  0  0
 18 19  1  0  0  0  0
 18 17  1  1  0  0  0
 18 15  1  0  0  0  0
 20 21  1  6  0  0  0
 20 19  1  0  0  0  0
 22 20  1  0  0  0  0
 22 23  1  0  0  0  0
 24 27  1  0  0  0  0
 25 29  1  0  0  0  0
 26 25  1  0  0  0  0
 27 25  2  0  0  0  0
 28 24  1  0  0  0  0
 28 26  2  0  0  0  0
 29 30  1  0  0  0  0
 30 31  1  0  0  0  0
 32 34  1  0  0  0  0
 33 31  1  6  0  0  0
 33 32  1  0  0  0  0
 33 34  1  0  0  0  0
 35 36  1  0  0  0  0
 35  1  1  0  0  0  0
 38 37  1  6  0  0  0
 38 36  1  0  0  0  0
 38 39  1  0  0  0  0
 39 44  1  0  0  0  0
 40 39  2  0  0  0  0
 41 43  1  1  0  0  0
 41 42  1  0  0  0  0
 41 40  1  0  0  0  0
 44 49  1  0  0  0  0
 45 52  1  0  0  0  0
 46 48  2  0  0  0  0
 47 45  2  0  0  0  0
 48 45  1  0  0  0  0
 49 50  2  0  0  0  0
 49 46  1  0  0  0  0
 50 47  1  0  0  0  0
 51 53  2  0  0  0  0
 52 51  1  0  0  0  0
 54 51  1  0  0  0  0
 56 57  1  0  0  0  0
 56 54  1  0  0  0  0
 56 55  1  1  0  0  0
 57 59  1  0  0  0  0
 58 57  2  0  0  0  0
 59 61  1  0  0  0  0
 59 60  1  0  0  0  0
M  END
>  <MODEL>
4

>  <REMARK>
 VINA RESULT:      -3.0      3.458      6.356
  Name = 
  24 active torsions:
  status: ('A' for Active; 'I' for Inactive)
    1  A    between atoms: C_2  and  O_55
    2  A    between atoms: C_3  and  C_47
    3  A    between atoms: CA_4  and  C_11
    4  A    between atoms: CA_4  and  C_25
    5  A    between atoms: C_7  and  C_9
    6  A    between atoms: C_7  and  C_24
    7  A    between atoms: C_8  and  C_47
    8  A    between atoms: C_10  and  C_30
    9  A    between atoms: C_10  and  C_50
   10  A    between atoms: C_14  and  N_37
   11  A    between atoms: C_15  and  C_16
   12  A    between atoms: N_22  and  O_60
   13  A    between atoms: C_24  and  O_55
   14  A    between atoms: C_25  and  C_56
   15  A    between atoms: C_30  and  C_58
   16  A    between atoms: C_32  and  O_38
   17  A    between atoms: C_32  and  C_44
   18  A    between atoms: C_33  and  C_34
   19  A    between atoms: C_33  and  O_38
   20  A    between atoms: C_42  and  C_45
   21  A    between atoms: C_45  and  C_61
   22  A    between atoms: C_50  and  C_53
   23  A    between atoms: C_51  and  C_56
   24  A    between atoms: C_58  and  O_60
                            x       y       z     vdW  Elec       q    Type
                         _______ _______ _______ _____ _____    ______ ____

>  <TORSDO>
F 24

$$$$
=
 OpenBabel11052410273D

 61 65  0  0  1  0  0  0  0  0999 V2000
  160.3260  210.7990  151.1310 N   0  0  0  0  0  0  0  0  0  0  0  0
  159.9180  210.7170  152.3600 C   0  0  0  0  0  0  0  0  0  0  0  0
  160.6170  210.2380  154.9220 C   0  0  2  0  0  3  0  0  0  0  0  0
  161.9790  208.1280  154.0680 C   0  0  2  0  0  3  0  0  0  0  0  0
  161.5420  208.9170  155.6940 S   0  0  0  0  0  0  0  0  0  0  0  0
  161.3350  208.7960  153.0020 O   0  0  0  0  0  0  0  0  0  0  0  0
  160.8490  210.0830  153.4300 C   0  0  1  0  0  3  0  0  0  0  0  0
  161.2190  211.4030  155.2490 O   0  0  0  0  0  1  0  0  0  0  0  0
  161.9380  206.5840  154.0710 C   0  0  0  0  0  2  0  0  0  0  0  0
  160.8760  206.1030  153.0680 C   0  0  2  0  0  3  0  0  0  0  0  0
  161.2190  206.0550  150.6860 N   0  0  0  0  0  0  0  0  0  0  0  0
  161.2890  204.7310  152.5440 C   0  0  0  0  0  2  0  0  0  0  0  0
  161.6270  204.8020  151.2630 C   0  0  0  0  0  2  0  0  0  0  0  0
  160.8310  206.9330  151.7860 C   0  0  0  0  0  2  0  0  0  0  0  0
  160.8190  206.0620  149.2790 C   0  0  0  0  0  0  0  0  0  0  0  0
  160.4150  204.9930  148.8010 O   0  0  0  0  0  0  0  0  0  0  0  0
  162.8510  207.0010  148.4430 O   0  0  0  0  0  1  0  0  0  0  0  0
  161.4560  207.0330  148.3590 C   0  0  1  0  0  3  0  0  0  0  0  0
  161.0000  206.6260  146.9800 C   0  0  0  0  0  2  0  0  0  0  0  0
  161.5990  205.3940  146.2480 C   0  0  2  0  0  3  0  0  0  0  0  0
  163.0200  205.3360  146.6150 N   0  0  0  0  0  1  0  0  0  0  0  0
  161.4450  205.3410  144.6730 C   0  0  0  0  0  2  0  0  0  0  0  0
  160.3690  204.4870  144.2910 O   0  0  0  0  0  1  0  0  0  0  0  0
  159.2850  213.5160  151.8310 S   0  0  0  0  0  0  0  0  0  0  0  0
  157.6640  213.4770  153.6650 C   0  0  0  0  0  0  0  0  0  0  0  0
  158.2790  212.2050  153.6900 C   0  0  0  0  0  3  0  0  0  0  0  0
  158.1390  214.3030  152.7080 C   0  0  0  0  0  3  0  0  0  0  0  0
  159.2370  211.9960  152.6800 C   0  0  0  0  0  0  0  0  0  0  0  0
  156.6740  213.9560  154.6100 C   0  0  0  0  0  2  0  0  0  0  0  0
  157.0910  213.9240  155.9570 O   0  0  0  0  0  0  0  0  0  0  0  0
  156.9610  212.5940  156.3730 C   0  0  0  0  0  2  0  0  0  0  0  0
  155.7280  210.6210  156.8320 O   0  0  0  0  0  0  0  0  0  0  0  0
  155.6680  211.9850  156.6800 C   0  0  2  0  0  3  0  0  0  0  0  0
  155.2730  211.0650  155.5500 C   0  0  0  0  0  2  0  0  0  0  0  0
  161.3740  210.2330  150.4820 O   0  0  0  0  0  0  0  0  0  0  0  0
  161.5030  210.6980  149.1220 C   0  0  0  0  0  2  0  0  0  0  0  0
  161.5870  212.9170  149.6140 O   0  0  0  0  0  1  0  0  0  0  0  0
  160.8710  212.0400  148.8060 C   0  0  1  0  0  3  0  0  0  0  0  0
  160.9140  212.3860  147.3650 C   0  0  0  0  0  0  0  0  0  0  0  0
  162.1110  212.8970  146.7680 C   0  0  0  0  0  3  0  0  0  0  0  0
  163.5340  213.3870  147.4910 C   0  0  1  0  0  3  0  0  0  0  0  0
  163.4060  214.3760  148.5140 O   0  0  0  0  0  1  0  0  0  0  0  0
  164.3710  212.2770  148.0600 N   0  0  0  0  0  1  0  0  0  0  0  0
  159.5320  212.0730  146.6840 C   0  0  0  0  0  2  0  0  0  0  0  0
  159.4480  213.8620  142.9280 C   0  0  0  0  0  0  0  0  0  0  0  0
  158.2260  213.1920  144.9220 C   0  0  0  0  0  3  0  0  0  0  0  0
  160.6790  213.6410  143.5430 C   0  0  0  0  0  3  0  0  0  0  0  0
  158.2590  213.7000  143.5970 C   0  0  0  0  0  3  0  0  0  0  0  0
  159.4640  212.8520  145.4300 C   0  0  0  0  0  0  0  0  0  0  0  0
  160.5860  213.1470  144.8430 N   0  0  0  0  0  0  0  0  0  0  0  0
  159.8450  213.6170  140.4490 C   0  0  0  0  0  0  0  0  0  0  0  0
  159.4500  214.4320  141.5680 N   0  0  0  0  0  2  0  0  0  0  0  0
  159.5930  214.0020  139.2400 O   0  0  0  0  0  0  0  0  0  0  0  0
  160.6330  212.4550  140.5610 O   0  0  0  0  0  0  0  0  0  0  0  0
  162.4620  212.3810  139.1720 O   0  0  0  0  0  1  0  0  0  0  0  0
  161.2110  211.8090  139.4460 C   0  0  1  0  0  3  0  0  0  0  0  0
  161.3570  210.3640  139.7510 C   0  0  0  0  0  0  0  0  0  0  0  0
  161.1490  209.9900  140.9290 O   0  0  0  0  0  0  0  0  0  0  0  0
  161.7700  209.3620  138.6610 C   0  0  0  0  0  3  0  0  0  0  0  0
  162.1970  208.0810  139.1400 F   0  0  0  0  0  0  0  0  0  0  0  0
  162.0580  209.8560  137.3510 F   0  0  0  0  0  0  0  0  0  0  0  0
  1  2  2  0  0  0  0
  2 28  1  0  0  0  0
  3  8  1  1  0  0  0
  3  5  1  0  0  0  0
  4  9  1  1  0  0  0
  4  5  1  0  0  0  0
  6  7  1  0  0  0  0
  6  4  1  0  0  0  0
  7  2  1  6  0  0  0
  7  3  1  0  0  0  0
 10  9  1  1  0  0  0
 11 13  1  0  0  0  0
 11 14  1  0  0  0  0
 12 10  1  0  0  0  0
 13 12  1  0  0  0  0
 14 10  1  0  0  0  0
 15 11  1  0  0  0  0
 16 15  2  0  0  0  0
 18 17  1  6  0  0  0
 18 15  1  0  0  0  0
 19 18  1  0  0  0  0
 20 21  1  6  0  0  0
 20 19  1  0  0  0  0
 22 20  1  0  0  0  0
 23 22  1  0  0  0  0
 24 28  1  0  0  0  0
 24 27  1  0  0  0  0
 25 26  1  0  0  0  0
 25 29  1  0  0  0  0
 27 25  2  0  0  0  0
 28 26  2  0  0  0  0
 29 30  1  0  0  0  0
 30 31  1  0  0  0  0
 33 31  1  6  0  0  0
 33 32  1  0  0  0  0
 34 33  1  0  0  0  0
 34 32  1  0  0  0  0
 35  1  1  0  0  0  0
 36 35  1  0  0  0  0
 38 36  1  0  0  0  0
 38 37  1  1  0  0  0
 39 38  1  0  0  0  0
 40 39  2  0  0  0  0
 40 41  1  0  0  0  0
 41 43  1  1  0  0  0
 41 42  1  0  0  0  0
 44 39  1  0  0  0  0
 45 47  2  0  0  0  0
 45 48  1  0  0  0  0
 46 49  1  0  0  0  0
 47 50  1  0  0  0  0
 48 46  2  0  0  0  0
 49 44  1  0  0  0  0
 50 49  2  0  0  0  0
 51 54  1  0  0  0  0
 51 52  1  0  0  0  0
 52 45  1  0  0  0  0
 53 51  2  0  0  0  0
 56 55  1  1  0  0  0
 56 57  1  0  0  0  0
 56 54  1  0  0  0  0
 57 58  2  0  0  0  0
 59 60  1  0  0  0  0
 59 57  1  0  0  0  0
 61 59  1  0  0  0  0
M  END
>  <MODEL>
5

>  <REMARK>
 VINA RESULT:      -2.4      3.250      8.397
  Name = 
  24 active torsions:
  status: ('A' for Active; 'I' for Inactive)
    1  A    between atoms: C_2  and  O_55
    2  A    between atoms: C_3  and  C_47
    3  A    between atoms: CA_4  and  C_11
    4  A    between atoms: CA_4  and  C_25
    5  A    between atoms: C_7  and  C_9
    6  A    between atoms: C_7  and  C_24
    7  A    between atoms: C_8  and  C_47
    8  A    between atoms: C_10  and  C_30
    9  A    between atoms: C_10  and  C_50
   10  A    between atoms: C_14  and  N_37
   11  A    between atoms: C_15  and  C_16
   12  A    between atoms: N_22  and  O_60
   13  A    between atoms: C_24  and  O_55
   14  A    between atoms: C_25  and  C_56
   15  A    between atoms: C_30  and  C_58
   16  A    between atoms: C_32  and  O_38
   17  A    between atoms: C_32  and  C_44
   18  A    between atoms: C_33  and  C_34
   19  A    between atoms: C_33  and  O_38
   20  A    between atoms: C_42  and  C_45
   21  A    between atoms: C_45  and  C_61
   22  A    between atoms: C_50  and  C_53
   23  A    between atoms: C_51  and  C_56
   24  A    between atoms: C_58  and  O_60
                            x       y       z     vdW  Elec       q    Type
                         _______ _______ _______ _____ _____    ______ ____

>  <TORSDO>
F 24

$$$$
