=
 OpenBabel11042423123D

 29 31  0  0  1  0  0  0  0  0999 V2000
  160.8240  201.7180  149.6540 N   0  0  0  0  0  0  0  0  0  0  0  0
  161.7820  203.0990  146.0550 N   0  0  0  0  0  1  0  0  0  0  0  0
  161.4270  206.5360  147.2460 C   0  0  0  0  0  3  0  0  0  0  0  0
  161.2550  203.6230  148.3190 C   0  0  0  0  0  0  0  0  0  0  0  0
  161.1220  205.4370  146.5650 C   0  0  0  0  0  0  0  0  0  0  0  0
  160.5790  202.4880  150.7360 C   0  0  0  0  0  3  0  0  0  0  0  0
  161.4300  205.7190  149.5900 C   0  0  0  0  0  3  0  0  0  0  0  0
  161.9660  206.5520  148.5650 N   0  0  0  0  0  0  0  0  0  0  0  0
  161.1540  202.2730  148.4900 N   0  0  0  0  0  0  0  0  0  0  0  0
  161.0910  204.4320  149.4800 C   0  0  0  0  0  0  0  0  0  0  0  0
  161.4410  204.0660  147.0530 C   0  0  0  0  0  0  0  0  0  0  0  0
  160.7220  203.8290  150.6400 N   0  0  0  0  0  0  0  0  0  0  0  0
  161.9740  209.8330  149.8850 O   0  0  0  0  0  0  0  0  0  0  0  0
  162.2190  208.9950  150.9900 C   0  0  2  0  0  3  0  0  0  0  0  0
  161.8920  208.9990  148.7570 C   0  0  0  0  0  2  0  0  0  0  0  0
  162.6860  207.7390  149.0230 C   0  0  1  0  0  3  0  0  0  0  0  0
  162.8800  207.7220  150.5130 C   0  0  0  0  0  2  0  0  0  0  0  0
  160.9150  208.6630  151.7050 C   0  0  0  0  0  2  0  0  0  0  0  0
  161.0880  208.7130  153.2240 C   0  0  1  0  0  3  0  0  0  0  0  0
  160.3320  209.9070  153.8120 C   0  0  2  0  0  3  0  0  0  0  0  0
  159.5780  210.5360  152.8180 O   0  0  0  0  0  1  0  0  0  0  0  0
  161.2680  210.8660  154.3730 N   0  0  0  0  0  1  0  0  0  0  0  0
  160.6720  207.3960  153.9000 C   0  0  2  0  0  3  0  0  0  0  0  0
  160.5570  207.5710  155.2800 O   0  0  0  0  0  1  0  0  0  0  0  0
  161.2010  205.1230  153.5350 O   0  0  0  0  0  0  0  0  0  0  0  0
  161.6140  206.2700  153.5970 C   0  0  0  0  0  3  0  0  0  0  0  0
  159.2610  205.8790  145.0890 N   0  0  0  0  0  2  0  0  0  0  0  0
  160.5210  205.6190  145.2160 C   0  0  0  0  0  0  0  0  0  0  0  0
  161.3670  205.6210  143.9830 C   0  0  0  0  0  1  0  0  0  0  0  0
  1  6  1  0  0  0  0
  2 11  1  0  0  0  0
  3  8  1  0  0  0  0
  4  9  1  0  0  0  0
  4 10  1  0  0  0  0
  5 11  1  0  0  0  0
  5  3  2  0  0  0  0
  8  7  1  0  0  0  0
  9  1  2  0  0  0  0
 10  7  2  0  0  0  0
 10 12  1  0  0  0  0
 11  4  2  0  0  0  0
 12  6  2  0  0  0  0
 13 14  1  0  0  0  0
 14 18  1  6  0  0  0
 15 16  1  0  0  0  0
 15 13  1  0  0  0  0
 16  8  1  1  0  0  0
 16 17  1  0  0  0  0
 17 14  1  0  0  0  0
 19 18  1  6  0  0  0
 19 20  1  0  0  0  0
 19 23  1  0  0  0  0
 20 21  1  6  0  0  0
 20 22  1  0  0  0  0
 23 24  1  1  0  0  0
 25 26  2  0  0  0  0
 26 23  1  0  0  0  0
 27 28  2  0  0  0  0
 28  5  1  0  0  0  0
 29 28  1  0  0  0  0
M  END
>  <MODEL>
1

>  <REMARK>
 VINA RESULT:      -7.4      0.000      0.000
  Name = 
  7 active torsions:
  status: ('A' for Active; 'I' for Inactive)
    1  A    between atoms: C_2  and  C_14
    2  A    between atoms: C_5  and  C_17
    3  A    between atoms: C_7  and  C_14
    4  A    between atoms: C_7  and  C_24
    5  A    between atoms: C_8  and  C_13
    6  A    between atoms: C_13  and  C_14
    7  A    between atoms: C_19  and  N_23
                            x       y       z     vdW  Elec       q    Type
                         _______ _______ _______ _____ _____    ______ ____

>  <TORSDO>
F 7

$$$$
=
 OpenBabel11042423123D

 29 31  0  0  1  0  0  0  0  0999 V2000
  160.7380  201.5890  149.6630 N   0  0  0  0  0  0  0  0  0  0  0  0
  161.8490  203.1100  146.1660 N   0  0  0  0  0  1  0  0  0  0  0  0
  161.4660  206.4980  147.4840 C   0  0  0  0  0  3  0  0  0  0  0  0
  161.2340  203.5440  148.4270 C   0  0  0  0  0  0  0  0  0  0  0  0
  161.1830  205.4290  146.7460 C   0  0  0  0  0  0  0  0  0  0  0  0
  160.4540  202.3150  150.7650 C   0  0  0  0  0  3  0  0  0  0  0  0
  161.3700  205.5840  149.7900 C   0  0  0  0  0  3  0  0  0  0  0  0
  161.9520  206.4550  148.8230 N   0  0  0  0  0  0  0  0  0  0  0  0
  161.1180  202.1880  148.5380 N   0  0  0  0  0  0  0  0  0  0  0  0
  161.0280  204.3060  149.6130 C   0  0  0  0  0  0  0  0  0  0  0  0
  161.4730  204.0370  147.1880 C   0  0  0  0  0  0  0  0  0  0  0  0
  160.6090  203.6580  150.7320 N   0  0  0  0  0  0  0  0  0  0  0  0
  161.9290  209.7120  150.2020 O   0  0  0  0  0  0  0  0  0  0  0  0
  162.0680  208.8480  151.3060 C   0  0  2  0  0  3  0  0  0  0  0  0
  161.9170  208.9000  149.0550 C   0  0  0  0  0  2  0  0  0  0  0  0
  162.6600  207.6160  149.3580 C   0  0  1  0  0  3  0  0  0  0  0  0
  162.7360  207.5690  150.8580 C   0  0  0  0  0  2  0  0  0  0  0  0
  160.7040  208.5350  151.9100 C   0  0  0  0  0  2  0  0  0  0  0  0
  160.5710  209.1290  153.3140 C   0  0  1  0  0  3  0  0  0  0  0  0
  161.0180  208.1170  154.3710 C   0  0  2  0  0  3  0  0  0  0  0  0
  160.9840  206.8250  153.8430 O   0  0  0  0  0  1  0  0  0  0  0  0
  160.1390  208.1780  155.5270 N   0  0  0  0  0  1  0  0  0  0  0  0
  161.3270  210.4610  153.4550 C   0  0  2  0  0  3  0  0  0  0  0  0
  162.0410  210.4920  154.6550 O   0  0  0  0  0  1  0  0  0  0  0  0
  160.1390  212.1250  152.2730 O   0  0  0  0  0  0  0  0  0  0  0  0
  160.4210  211.6520  153.3620 C   0  0  0  0  0  3  0  0  0  0  0  0
  159.4240  206.0910  145.2270 N   0  0  0  0  0  2  0  0  0  0  0  0
  160.6370  205.6710  145.3830 C   0  0  0  0  0  0  0  0  0  0  0  0
  161.5010  205.5490  144.1680 C   0  0  0  0  0  1  0  0  0  0  0  0
  1  6  1  0  0  0  0
  2 11  1  0  0  0  0
  3  8  1  0  0  0  0
  4  9  1  0  0  0  0
  4 10  1  0  0  0  0
  5 11  1  0  0  0  0
  5  3  2  0  0  0  0
  8  7  1  0  0  0  0
  9  1  2  0  0  0  0
 10  7  2  0  0  0  0
 10 12  1  0  0  0  0
 11  4  2  0  0  0  0
 12  6  2  0  0  0  0
 13 14  1  0  0  0  0
 14 18  1  6  0  0  0
 15 16  1  0  0  0  0
 15 13  1  0  0  0  0
 16  8  1  1  0  0  0
 16 17  1  0  0  0  0
 17 14  1  0  0  0  0
 19 18  1  6  0  0  0
 19 23  1  0  0  0  0
 19 20  1  0  0  0  0
 20 21  1  6  0  0  0
 20 22  1  0  0  0  0
 23 24  1  1  0  0  0
 25 26  2  0  0  0  0
 26 23  1  0  0  0  0
 27 28  2  0  0  0  0
 28  5  1  0  0  0  0
 29 28  1  0  0  0  0
M  END
>  <MODEL>
2

>  <REMARK>
 VINA RESULT:      -7.3      1.060      2.164
  Name = 
  7 active torsions:
  status: ('A' for Active; 'I' for Inactive)
    1  A    between atoms: C_2  and  C_14
    2  A    between atoms: C_5  and  C_17
    3  A    between atoms: C_7  and  C_14
    4  A    between atoms: C_7  and  C_24
    5  A    between atoms: C_8  and  C_13
    6  A    between atoms: C_13  and  C_14
    7  A    between atoms: C_19  and  N_23
                            x       y       z     vdW  Elec       q    Type
                         _______ _______ _______ _____ _____    ______ ____

>  <TORSDO>
F 7

$$$$
=
 OpenBabel11042423123D

 29 31  0  0  1  0  0  0  0  0999 V2000
  162.3330  210.6580  149.5380 N   0  0  0  0  0  0  0  0  0  0  0  0
  162.3240  210.6200  153.5100 N   0  0  0  0  0  1  0  0  0  0  0  0
  160.8460  207.2770  153.5050 C   0  0  0  0  0  3  0  0  0  0  0  0
  161.8830  209.4170  151.5010 C   0  0  0  0  0  0  0  0  0  0  0  0
  160.9010  208.5940  153.6790 C   0  0  0  0  0  0  0  0  0  0  0  0
  161.9350  209.6310  148.7560 C   0  0  0  0  0  3  0  0  0  0  0  0
  161.3990  207.0410  151.0970 C   0  0  0  0  0  3  0  0  0  0  0  0
  161.4770  206.5710  152.4400 N   0  0  0  0  0  0  0  0  0  0  0  0
  162.3090  210.5460  150.8640 N   0  0  0  0  0  0  0  0  0  0  0  0
  161.5530  208.3000  150.6790 C   0  0  0  0  0  0  0  0  0  0  0  0
  161.7560  209.4870  152.8480 C   0  0  0  0  0  0  0  0  0  0  0  0
  161.5600  208.4670  149.3310 N   0  0  0  0  0  0  0  0  0  0  0  0
  160.5800  203.1880  151.9290 O   0  0  0  0  0  0  0  0  0  0  0  0
  161.5190  203.4740  150.9190 C   0  0  2  0  0  3  0  0  0  0  0  0
  160.4650  204.3500  152.7110 C   0  0  0  0  0  2  0  0  0  0  0  0
  161.7490  205.1430  152.5990 C   0  0  1  0  0  3  0  0  0  0  0  0
  162.4370  204.5790  151.3890 C   0  0  0  0  0  2  0  0  0  0  0  0
  160.8100  203.9020  149.6390 C   0  0  0  0  0  2  0  0  0  0  0  0
  161.4750  203.2860  148.4060 C   0  0  1  0  0  3  0  0  0  0  0  0
  160.7760  201.9830  148.0130 C   0  0  2  0  0  3  0  0  0  0  0  0
  161.4210  200.8940  148.6030 O   0  0  0  0  0  1  0  0  0  0  0  0
  160.7980  201.8180  146.5690 N   0  0  0  0  0  1  0  0  0  0  0  0
  161.5340  204.2700  147.2260 C   0  0  2  0  0  3  0  0  0  0  0  0
  162.8580  204.5060  146.8530 O   0  0  0  0  0  1  0  0  0  0  0  0
  160.8030  206.4490  146.6790 O   0  0  0  0  0  0  0  0  0  0  0  0
  160.8410  205.5670  147.5210 C   0  0  0  0  0  3  0  0  0  0  0  0
  159.4360  210.2360  154.6750 N   0  0  0  0  0  2  0  0  0  0  0  0
  160.1360  209.1600  154.8230 C   0  0  0  0  0  0  0  0  0  0  0  0
  160.0610  208.4470  156.1350 C   0  0  0  0  0  1  0  0  0  0  0  0
  1  9  2  0  0  0  0
  3  5  2  0  0  0  0
  4 11  2  0  0  0  0
  5 28  1  0  0  0  0
  6 12  2  0  0  0  0
  6  1  1  0  0  0  0
  7  8  1  0  0  0  0
  8 16  1  0  0  0  0
  8  3  1  0  0  0  0
  9  4  1  0  0  0  0
 10  7  2  0  0  0  0
 10  4  1  0  0  0  0
 11  2  1  0  0  0  0
 11  5  1  0  0  0  0
 12 10  1  0  0  0  0
 13 15  1  0  0  0  0
 14 18  1  6  0  0  0
 14 17  1  0  0  0  0
 14 13  1  0  0  0  0
 16 17  1  6  0  0  0
 16 15  1  0  0  0  0
 19 18  1  1  0  0  0
 20 22  1  6  0  0  0
 20 19  1  0  0  0  0
 20 21  1  0  0  0  0
 23 24  1  1  0  0  0
 23 26  1  0  0  0  0
 23 19  1  0  0  0  0
 25 26  2  0  0  0  0
 27 28  2  0  0  0  0
 28 29  1  0  0  0  0
M  END
>  <MODEL>
3

>  <REMARK>
 VINA RESULT:      -6.7      2.691      7.836
  Name = 
  7 active torsions:
  status: ('A' for Active; 'I' for Inactive)
    1  A    between atoms: C_2  and  C_14
    2  A    between atoms: C_5  and  C_17
    3  A    between atoms: C_7  and  C_14
    4  A    between atoms: C_7  and  C_24
    5  A    between atoms: C_8  and  C_13
    6  A    between atoms: C_13  and  C_14
    7  A    between atoms: C_19  and  N_23
                            x       y       z     vdW  Elec       q    Type
                         _______ _______ _______ _____ _____    ______ ____

>  <TORSDO>
F 7

$$$$
=
 OpenBabel11042423123D

 29 31  0  0  1  0  0  0  0  0999 V2000
  160.6120  209.8720  156.0930 N   0  0  0  0  0  0  0  0  0  0  0  0
  159.9450  210.1010  152.1840 N   0  0  0  0  0  1  0  0  0  0  0  0
  161.7190  206.9480  151.6650 C   0  0  0  0  0  3  0  0  0  0  0  0
  160.8390  208.8220  153.9850 C   0  0  0  0  0  0  0  0  0  0  0  0
  161.5080  208.2590  151.6150 C   0  0  0  0  0  0  0  0  0  0  0  0
  161.2360  208.8450  156.7100 C   0  0  0  0  0  3  0  0  0  0  0  0
  161.6120  206.4920  154.1030 C   0  0  0  0  0  3  0  0  0  0  0  0
  161.3520  206.1070  152.7560 N   0  0  0  0  0  0  0  0  0  0  0  0
  160.4200  209.8520  154.7760 N   0  0  0  0  0  0  0  0  0  0  0  0
  161.4100  207.6960  154.6450 C   0  0  0  0  0  0  0  0  0  0  0  0
  160.7260  208.9950  152.6460 C   0  0  0  0  0  0  0  0  0  0  0  0
  161.6190  207.7700  155.9850 N   0  0  0  0  0  0  0  0  0  0  0  0
  159.9530  203.4130  150.9410 O   0  0  0  0  0  0  0  0  0  0  0  0
  161.2480  203.5760  150.4130 C   0  0  2  0  0  3  0  0  0  0  0  0
  159.8210  204.3500  151.9790 C   0  0  0  0  0  2  0  0  0  0  0  0
  161.1960  204.6720  152.5240 C   0  0  1  0  0  3  0  0  0  0  0  0
  162.1450  204.1810  151.4680 C   0  0  0  0  0  2  0  0  0  0  0  0
  161.2120  204.4780  149.1860 C   0  0  0  0  0  2  0  0  0  0  0  0
  161.7180  203.7440  147.9430 C   0  0  1  0  0  3  0  0  0  0  0  0
  160.8990  202.4730  147.6990 C   0  0  2  0  0  3  0  0  0  0  0  0
  161.4930  201.3880  148.3470 O   0  0  0  0  0  1  0  0  0  0  0  0
  160.8260  202.1900  146.2760 N   0  0  0  0  0  1  0  0  0  0  0  0
  161.7340  204.6480  146.6990 C   0  0  2  0  0  3  0  0  0  0  0  0
  163.0440  205.0050  146.3730 O   0  0  0  0  0  1  0  0  0  0  0  0
  160.4230  206.4400  145.8920 O   0  0  0  0  0  0  0  0  0  0  0  0
  160.8900  205.8760  146.8680 C   0  0  0  0  0  3  0  0  0  0  0  0
  162.4030  210.2080  150.5030 N   0  0  0  0  0  2  0  0  0  0  0  0
  162.0070  208.9810  150.4130 C   0  0  0  0  0  0  0  0  0  0  0  0
  162.1740  208.2820  149.1010 C   0  0  0  0  0  1  0  0  0  0  0  0
  1  6  1  0  0  0  0
  2 11  1  0  0  0  0
  3  8  1  0  0  0  0
  4 10  1  0  0  0  0
  4  9  1  0  0  0  0
  5  3  2  0  0  0  0
  5 11  1  0  0  0  0
  7 10  2  0  0  0  0
  8  7  1  0  0  0  0
  9  1  2  0  0  0  0
 10 12  1  0  0  0  0
 11  4  2  0  0  0  0
 12  6  2  0  0  0  0
 13 15  1  0  0  0  0
 14 18  1  6  0  0  0
 14 13  1  0  0  0  0
 14 17  1  0  0  0  0
 15 16  1  0  0  0  0
 16 17  1  6  0  0  0
 16  8  1  0  0  0  0
 19 18  1  1  0  0  0
 20 22  1  6  0  0  0
 20 19  1  0  0  0  0
 20 21  1  0  0  0  0
 23 24  1  1  0  0  0
 23 26  1  0  0  0  0
 23 19  1  0  0  0  0
 25 26  2  0  0  0  0
 28 27  2  0  0  0  0
 28  5  1  0  0  0  0
 29 28  1  0  0  0  0
M  END
>  <MODEL>
4

>  <REMARK>
 VINA RESULT:      -6.3      2.769      7.482
  Name = 
  7 active torsions:
  status: ('A' for Active; 'I' for Inactive)
    1  A    between atoms: C_2  and  C_14
    2  A    between atoms: C_5  and  C_17
    3  A    between atoms: C_7  and  C_14
    4  A    between atoms: C_7  and  C_24
    5  A    between atoms: C_8  and  C_13
    6  A    between atoms: C_13  and  C_14
    7  A    between atoms: C_19  and  N_23
                            x       y       z     vdW  Elec       q    Type
                         _______ _______ _______ _____ _____    ______ ____

>  <TORSDO>
F 7

$$$$
=
 OpenBabel11042423123D

 29 31  0  0  1  0  0  0  0  0999 V2000
  161.6340  205.4370  144.6700 N   0  0  0  0  0  0  0  0  0  0  0  0
  159.7070  201.9680  144.5060 N   0  0  0  0  0  1  0  0  0  0  0  0
  160.9050  201.1090  147.8510 C   0  0  0  0  0  3  0  0  0  0  0  0
  161.0360  203.4530  145.8120 C   0  0  0  0  0  0  0  0  0  0  0  0
  160.8100  201.0400  146.5270 C   0  0  0  0  0  0  0  0  0  0  0  0
  162.3330  205.8820  145.7360 C   0  0  0  0  0  3  0  0  0  0  0  0
  161.5880  203.4690  148.2070 C   0  0  0  0  0  3  0  0  0  0  0  0
  160.8530  202.3150  148.6080 N   0  0  0  0  0  0  0  0  0  0  0  0
  161.0070  204.2640  144.7150 N   0  0  0  0  0  0  0  0  0  0  0  0
  161.6920  203.9610  146.9700 C   0  0  0  0  0  0  0  0  0  0  0  0
  160.4930  202.2200  145.6740 C   0  0  0  0  0  0  0  0  0  0  0  0
  162.3480  205.1470  146.8720 N   0  0  0  0  0  0  0  0  0  0  0  0
  161.6490  202.8540  152.0120 O   0  0  0  0  0  0  0  0  0  0  0  0
  160.8540  203.9570  151.6430 C   0  0  2  0  0  3  0  0  0  0  0  0
  161.7210  202.0160  150.8860 C   0  0  0  0  0  2  0  0  0  0  0  0
  160.4990  202.2490  150.0240 C   0  0  1  0  0  3  0  0  0  0  0  0
  159.9370  203.5550  150.5100 C   0  0  0  0  0  2  0  0  0  0  0  0
  161.7320  205.1230  151.2080 C   0  0  0  0  0  2  0  0  0  0  0  0
  160.9870  206.4540  151.3330 C   0  0  1  0  0  3  0  0  0  0  0  0
  161.5790  207.2970  152.4650 C   0  0  2  0  0  3  0  0  0  0  0  0
  161.5290  206.5900  153.6680 O   0  0  0  0  0  1  0  0  0  0  0  0
  160.8310  208.5340  152.6120 N   0  0  0  0  0  1  0  0  0  0  0  0
  160.9610  207.2320  150.0070 C   0  0  2  0  0  3  0  0  0  0  0  0
  160.2440  206.5250  149.0400 O   0  0  0  0  0  1  0  0  0  0  0  0
  162.4840  208.3770  148.6110 O   0  0  0  0  0  0  0  0  0  0  0  0
  162.3340  207.5550  149.5000 C   0  0  0  0  0  3  0  0  0  0  0  0
  160.2310  199.3810  144.8690 N   0  0  0  0  0  2  0  0  0  0  0  0
  160.9360  199.6940  145.9060 C   0  0  0  0  0  0  0  0  0  0  0  0
  161.9560  198.7110  146.3860 C   0  0  0  0  0  1  0  0  0  0  0  0
  1  9  2  0  0  0  0
  1  6  1  0  0  0  0
  2 11  1  0  0  0  0
  3  8  1  0  0  0  0
  4 10  1  0  0  0  0
  5  3  2  0  0  0  0
  6 12  2  0  0  0  0
  7  8  1  0  0  0  0
  9  4  1  0  0  0  0
 10  7  2  0  0  0  0
 11  4  2  0  0  0  0
 11  5  1  0  0  0  0
 12 10  1  0  0  0  0
 14 18  1  6  0  0  0
 14 13  1  0  0  0  0
 15 13  1  0  0  0  0
 16  8  1  6  0  0  0
 16 17  1  0  0  0  0
 16 15  1  0  0  0  0
 17 14  1  0  0  0  0
 19 18  1  6  0  0  0
 19 20  1  0  0  0  0
 20 22  1  1  0  0  0
 20 21  1  0  0  0  0
 23 24  1  6  0  0  0
 23 19  1  0  0  0  0
 25 26  2  0  0  0  0
 26 23  1  0  0  0  0
 27 28  2  0  0  0  0
 28 29  1  0  0  0  0
 28  5  1  0  0  0  0
M  END
>  <MODEL>
5

>  <REMARK>
 VINA RESULT:      -6.1      2.444      4.983
  Name = 
  7 active torsions:
  status: ('A' for Active; 'I' for Inactive)
    1  A    between atoms: C_2  and  C_14
    2  A    between atoms: C_5  and  C_17
    3  A    between atoms: C_7  and  C_14
    4  A    between atoms: C_7  and  C_24
    5  A    between atoms: C_8  and  C_13
    6  A    between atoms: C_13  and  C_14
    7  A    between atoms: C_19  and  N_23
                            x       y       z     vdW  Elec       q    Type
                         _______ _______ _______ _____ _____    ______ ____

>  <TORSDO>
F 7

$$$$
=
 OpenBabel11042423123D

 29 31  0  0  1  0  0  0  0  0999 V2000
  159.8440  209.3190  156.6610 N   0  0  0  0  0  0  0  0  0  0  0  0
  159.7820  210.2660  152.8040 N   0  0  0  0  0  1  0  0  0  0  0  0
  161.9080  207.3940  152.0340 C   0  0  0  0  0  3  0  0  0  0  0  0
  160.4990  208.7180  154.4690 C   0  0  0  0  0  0  0  0  0  0  0  0
  161.5830  208.6740  152.1870 C   0  0  0  0  0  0  0  0  0  0  0  0
  160.4580  208.2330  157.1800 C   0  0  0  0  0  3  0  0  0  0  0  0
  161.4630  206.4640  154.2920 C   0  0  0  0  0  3  0  0  0  0  0  0
  161.4560  206.3350  152.8720 N   0  0  0  0  0  0  0  0  0  0  0  0
  159.8640  209.5450  155.3500 N   0  0  0  0  0  0  0  0  0  0  0  0
  161.0640  207.5230  155.0010 C   0  0  0  0  0  0  0  0  0  0  0  0
  160.5820  209.1420  153.1850 C   0  0  0  0  0  0  0  0  0  0  0  0
  161.0510  207.3470  156.3480 N   0  0  0  0  0  0  0  0  0  0  0  0
  160.1140  203.7990  150.8040 O   0  0  0  0  0  0  0  0  0  0  0  0
  161.2120  204.3120  150.0870 C   0  0  2  0  0  3  0  0  0  0  0  0
  160.0800  204.4820  152.0320 C   0  0  0  0  0  2  0  0  0  0  0  0
  161.4760  204.9660  152.3590 C   0  0  1  0  0  3  0  0  0  0  0  0
  162.2220  204.8790  151.0580 C   0  0  0  0  0  2  0  0  0  0  0  0
  160.7550  205.4010  149.1230 C   0  0  0  0  0  2  0  0  0  0  0  0
  160.8680  204.9370  147.6700 C   0  0  1  0  0  3  0  0  0  0  0  0
  161.2330  206.1110  146.7580 C   0  0  2  0  0  3  0  0  0  0  0  0
  161.2040  207.3070  147.4790 O   0  0  0  0  0  1  0  0  0  0  0  0
  160.2900  206.2020  145.6560 N   0  0  0  0  0  1  0  0  0  0  0  0
  161.8570  203.7710  147.5070 C   0  0  2  0  0  3  0  0  0  0  0  0
  162.9270  204.1480  146.6930 O   0  0  0  0  0  1  0  0  0  0  0  0
  160.7140  201.7160  147.7260 O   0  0  0  0  0  0  0  0  0  0  0  0
  161.2060  202.5340  146.9660 C   0  0  0  0  0  3  0  0  0  0  0  0
  163.0280  210.5390  151.6670 N   0  0  0  0  0  2  0  0  0  0  0  0
  162.1940  209.6470  151.2420 C   0  0  0  0  0  0  0  0  0  0  0  0
  161.9560  209.5530  149.7690 C   0  0  0  0  0  1  0  0  0  0  0  0
  1  6  1  0  0  0  0
  2 11  1  0  0  0  0
  3  5  2  0  0  0  0
  3  8  1  0  0  0  0
  4 10  1  0  0  0  0
  4  9  1  0  0  0  0
  5 11  1  0  0  0  0
  7 10  2  0  0  0  0
  8  7  1  0  0  0  0
  9  1  2  0  0  0  0
 10 12  1  0  0  0  0
 11  4  2  0  0  0  0
 12  6  2  0  0  0  0
 13 15  1  0  0  0  0
 14 18  1  6  0  0  0
 14 13  1  0  0  0  0
 14 17  1  0  0  0  0
 15 16  1  0  0  0  0
 16 17  1  6  0  0  0
 16  8  1  0  0  0  0
 19 18  1  1  0  0  0
 20 22  1  6  0  0  0
 20 21  1  0  0  0  0
 20 19  1  0  0  0  0
 23 24  1  6  0  0  0
 23 19  1  0  0  0  0
 26 23  1  0  0  0  0
 26 25  2  0  0  0  0
 28 27  2  0  0  0  0
 28  5  1  0  0  0  0
 29 28  1  0  0  0  0
M  END
>  <MODEL>
6

>  <REMARK>
 VINA RESULT:      -6.0      2.812      7.277
  Name = 
  7 active torsions:
  status: ('A' for Active; 'I' for Inactive)
    1  A    between atoms: C_2  and  C_14
    2  A    between atoms: C_5  and  C_17
    3  A    between atoms: C_7  and  C_14
    4  A    between atoms: C_7  and  C_24
    5  A    between atoms: C_8  and  C_13
    6  A    between atoms: C_13  and  C_14
    7  A    between atoms: C_19  and  N_23
                            x       y       z     vdW  Elec       q    Type
                         _______ _______ _______ _____ _____    ______ ____

>  <TORSDO>
F 7

$$$$
=
 OpenBabel11042423123D

 29 31  0  0  1  0  0  0  0  0999 V2000
  160.8370  201.3450  146.8020 N   0  0  0  0  0  0  0  0  0  0  0  0
  162.7360  204.8260  146.5560 N   0  0  0  0  0  1  0  0  0  0  0  0
  161.4630  205.7870  149.8450 C   0  0  0  0  0  3  0  0  0  0  0  0
  161.3940  203.3730  147.8860 C   0  0  0  0  0  0  0  0  0  0  0  0
  161.5850  205.8110  148.5220 C   0  0  0  0  0  0  0  0  0  0  0  0
  160.1210  200.9310  147.8690 C   0  0  0  0  0  3  0  0  0  0  0  0
  160.7940  203.4340  150.2690 C   0  0  0  0  0  3  0  0  0  0  0  0
  161.5110  204.6080  150.6440 N   0  0  0  0  0  0  0  0  0  0  0  0
  161.4530  202.5250  146.8180 N   0  0  0  0  0  0  0  0  0  0  0  0
  160.7190  202.8990  149.0480 C   0  0  0  0  0  0  0  0  0  0  0  0
  161.9280  204.6070  147.7160 C   0  0  0  0  0  0  0  0  0  0  0  0
  160.0760  201.7040  148.9780 N   0  0  0  0  0  0  0  0  0  0  0  0
  162.6080  206.5290  153.4040 O   0  0  0  0  0  0  0  0  0  0  0  0
  161.2030  206.5090  153.5070 C   0  0  2  0  0  3  0  0  0  0  0  0
  162.9400  205.7370  152.2910 C   0  0  0  0  0  2  0  0  0  0  0  0
  161.8360  204.7260  152.0640 C   0  0  1  0  0  3  0  0  0  0  0  0
  160.6720  205.2550  152.8520 C   0  0  0  0  0  2  0  0  0  0  0  0
  160.6040  207.7380  152.8350 C   0  0  0  0  0  2  0  0  0  0  0  0
  160.5280  208.9180  153.8050 C   0  0  1  0  0  3  0  0  0  0  0  0
  160.8270  208.4600  155.2340 C   0  0  2  0  0  3  0  0  0  0  0  0
  159.7080  208.6580  156.0460 O   0  0  0  0  0  1  0  0  0  0  0  0
  161.9440  209.2140  155.7780 N   0  0  0  0  0  1  0  0  0  0  0  0
  161.4450  210.0780  153.3820 C   0  0  2  0  0  3  0  0  0  0  0  0
  160.7600  211.2920  153.4480 O   0  0  0  0  0  1  0  0  0  0  0  0
  161.7990  210.6950  151.1300 O   0  0  0  0  0  0  0  0  0  0  0  0
  162.0260  209.8850  152.0130 C   0  0  0  0  0  3  0  0  0  0  0  0
  160.8240  207.2440  146.7310 N   0  0  0  0  0  2  0  0  0  0  0  0
  161.4580  207.1340  147.8520 C   0  0  0  0  0  0  0  0  0  0  0  0
  161.9550  208.3850  148.5050 C   0  0  0  0  0  1  0  0  0  0  0  0
  1  9  2  0  0  0  0
  1  6  1  0  0  0  0
  2 11  1  0  0  0  0
  3  8  1  0  0  0  0
  4 10  1  0  0  0  0
  5  3  2  0  0  0  0
  6 12  2  0  0  0  0
  7  8  1  0  0  0  0
  9  4  1  0  0  0  0
 10  7  2  0  0  0  0
 11  4  2  0  0  0  0
 11  5  1  0  0  0  0
 12 10  1  0  0  0  0
 13 14  1  0  0  0  0
 14 18  1  6  0  0  0
 15 13  1  0  0  0  0
 16  8  1  6  0  0  0
 16 15  1  0  0  0  0
 16 17  1  0  0  0  0
 17 14  1  0  0  0  0
 19 18  1  6  0  0  0
 19 20  1  0  0  0  0
 20 22  1  1  0  0  0
 20 21  1  0  0  0  0
 23 24  1  6  0  0  0
 23 19  1  0  0  0  0
 25 26  2  0  0  0  0
 26 23  1  0  0  0  0
 27 28  2  0  0  0  0
 28 29  1  0  0  0  0
 28  5  1  0  0  0  0
M  END
>  <MODEL>
7

>  <REMARK>
 VINA RESULT:      -5.8      1.659      3.274
  Name = 
  7 active torsions:
  status: ('A' for Active; 'I' for Inactive)
    1  A    between atoms: C_2  and  C_14
    2  A    between atoms: C_5  and  C_17
    3  A    between atoms: C_7  and  C_14
    4  A    between atoms: C_7  and  C_24
    5  A    between atoms: C_8  and  C_13
    6  A    between atoms: C_13  and  C_14
    7  A    between atoms: C_19  and  N_23
                            x       y       z     vdW  Elec       q    Type
                         _______ _______ _______ _____ _____    ______ ____

>  <TORSDO>
F 7

$$$$
=
 OpenBabel11042423123D

 29 31  0  0  1  0  0  0  0  0999 V2000
  161.7610  205.4650  144.5100 N   0  0  0  0  0  0  0  0  0  0  0  0
  160.0960  201.8780  144.8860 N   0  0  0  0  0  1  0  0  0  0  0  0
  161.0460  201.7740  148.4140 C   0  0  0  0  0  3  0  0  0  0  0  0
  161.2000  203.6910  145.9710 C   0  0  0  0  0  0  0  0  0  0  0  0
  161.0740  201.4480  147.1260 C   0  0  0  0  0  0  0  0  0  0  0  0
  162.3300  206.1610  145.5170 C   0  0  0  0  0  3  0  0  0  0  0  0
  161.5330  204.2080  148.3500 C   0  0  0  0  0  3  0  0  0  0  0  0
  160.8450  203.0930  148.9140 N   0  0  0  0  0  0  0  0  0  0  0  0
  161.2130  204.2740  144.7370 N   0  0  0  0  0  0  0  0  0  0  0  0
  161.7140  204.4630  147.0520 C   0  0  0  0  0  0  0  0  0  0  0  0
  160.7560  202.4130  146.0380 C   0  0  0  0  0  0  0  0  0  0  0  0
  162.2940  205.6590  146.7730 N   0  0  0  0  0  0  0  0  0  0  0  0
  161.4640  203.8150  152.3210 O   0  0  0  0  0  0  0  0  0  0  0  0
  160.9840  205.0210  151.7730 C   0  0  2  0  0  3  0  0  0  0  0  0
  161.4290  202.8620  151.2880 C   0  0  0  0  0  2  0  0  0  0  0  0
  160.3700  203.2680  150.2850 C   0  0  1  0  0  3  0  0  0  0  0  0
  160.0940  204.7130  150.5910 C   0  0  0  0  0  2  0  0  0  0  0  0
  162.1460  205.9020  151.3300 C   0  0  0  0  0  2  0  0  0  0  0  0
  161.9590  207.3440  151.8040 C   0  0  1  0  0  3  0  0  0  0  0  0
  161.7320  208.2780  150.6120 C   0  0  2  0  0  3  0  0  0  0  0  0
  162.3050  207.7340  149.4610 O   0  0  0  0  0  1  0  0  0  0  0  0
  162.3320  209.5760  150.8710 N   0  0  0  0  0  1  0  0  0  0  0  0
  160.8310  207.4730  152.8420 C   0  0  2  0  0  3  0  0  0  0  0  0
  160.1490  208.6800  152.6740 O   0  0  0  0  0  1  0  0  0  0  0  0
  160.5660  207.0170  155.1440 O   0  0  0  0  0  0  0  0  0  0  0  0
  161.3270  207.3510  154.2510 C   0  0  0  0  0  3  0  0  0  0  0  0
  161.9560  199.2570  147.6380 N   0  0  0  0  0  2  0  0  0  0  0  0
  161.3470  200.0230  146.7930 C   0  0  0  0  0  0  0  0  0  0  0  0
  160.8290  199.4080  145.5330 C   0  0  0  0  0  1  0  0  0  0  0  0
  1  9  2  0  0  0  0
  1  6  1  0  0  0  0
  2 11  1  0  0  0  0
  3  8  1  0  0  0  0
  4 11  2  0  0  0  0
  4 10  1  0  0  0  0
  5  3  2  0  0  0  0
  6 12  2  0  0  0  0
  7  8  1  0  0  0  0
  9  4  1  0  0  0  0
 10  7  2  0  0  0  0
 11  5  1  0  0  0  0
 12 10  1  0  0  0  0
 14 18  1  6  0  0  0
 14 13  1  0  0  0  0
 15 13  1  0  0  0  0
 16  8  1  6  0  0  0
 16 17  1  0  0  0  0
 16 15  1  0  0  0  0
 17 14  1  0  0  0  0
 19 18  1  6  0  0  0
 19 23  1  0  0  0  0
 20 21  1  6  0  0  0
 20 22  1  0  0  0  0
 20 19  1  0  0  0  0
 23 24  1  1  0  0  0
 23 26  1  0  0  0  0
 26 25  2  0  0  0  0
 28  5  1  0  0  0  0
 28 27  2  0  0  0  0
 29 28  1  0  0  0  0
M  END
>  <MODEL>
8

>  <REMARK>
 VINA RESULT:      -5.6      2.159      4.446
  Name = 
  7 active torsions:
  status: ('A' for Active; 'I' for Inactive)
    1  A    between atoms: C_2  and  C_14
    2  A    between atoms: C_5  and  C_17
    3  A    between atoms: C_7  and  C_14
    4  A    between atoms: C_7  and  C_24
    5  A    between atoms: C_8  and  C_13
    6  A    between atoms: C_13  and  C_14
    7  A    between atoms: C_19  and  N_23
                            x       y       z     vdW  Elec       q    Type
                         _______ _______ _______ _____ _____    ______ ____

>  <TORSDO>
F 7

$$$$
=
 OpenBabel11042423123D

 29 31  0  0  1  0  0  0  0  0999 V2000
  162.2960  210.8010  149.5850 N   0  0  0  0  0  0  0  0  0  0  0  0
  162.3210  210.6870  153.5560 N   0  0  0  0  0  1  0  0  0  0  0  0
  160.9340  207.3060  153.4980 C   0  0  0  0  0  3  0  0  0  0  0  0
  161.8950  209.5110  151.5270 C   0  0  0  0  0  0  0  0  0  0  0  0
  160.9550  208.6200  153.6970 C   0  0  0  0  0  0  0  0  0  0  0  0
  161.9190  209.7790  148.7870 C   0  0  0  0  0  3  0  0  0  0  0  0
  161.4730  207.1310  151.0810 C   0  0  0  0  0  3  0  0  0  0  0  0
  161.5740  206.6370  152.4150 N   0  0  0  0  0  0  0  0  0  0  0  0
  162.2860  210.6630  150.9090 N   0  0  0  0  0  0  0  0  0  0  0  0
  161.5890  208.4020  150.6870 C   0  0  0  0  0  0  0  0  0  0  0  0
  161.7780  209.5510  152.8760 C   0  0  0  0  0  0  0  0  0  0  0  0
  161.5800  208.5940  149.3420 N   0  0  0  0  0  0  0  0  0  0  0  0
  160.6410  203.2390  152.1130 O   0  0  0  0  0  0  0  0  0  0  0  0
  161.3880  203.5180  150.9520 C   0  0  2  0  0  3  0  0  0  0  0  0
  160.6500  204.4120  152.8880 C   0  0  0  0  0  2  0  0  0  0  0  0
  161.8860  205.2150  152.5430 C   0  0  1  0  0  3  0  0  0  0  0  0
  162.3610  204.6380  151.2400 C   0  0  0  0  0  2  0  0  0  0  0  0
  160.4630  203.9190  149.8090 C   0  0  0  0  0  2  0  0  0  0  0  0
  160.7180  203.0660  148.5650 C   0  0  1  0  0  3  0  0  0  0  0  0
  161.7570  203.7320  147.6600 C   0  0  2  0  0  3  0  0  0  0  0  0
  161.7780  205.1100  147.8860 O   0  0  0  0  0  1  0  0  0  0  0  0
  161.4350  203.4880  146.2640 N   0  0  0  0  0  1  0  0  0  0  0  0
  161.1230  201.6260  148.9200 C   0  0  2  0  0  3  0  0  0  0  0  0
  161.4270  200.9040  147.7650 O   0  0  0  0  0  1  0  0  0  0  0  0
  158.8930  201.0440  149.4360 O   0  0  0  0  0  0  0  0  0  0  0  0
  160.0730  200.9110  149.7160 C   0  0  0  0  0  3  0  0  0  0  0  0
  160.3970  208.6830  156.0470 N   0  0  0  0  0  2  0  0  0  0  0  0
  160.1850  209.1430  154.8580 C   0  0  0  0  0  0  0  0  0  0  0  0
  159.2340  210.2870  154.7060 C   0  0  0  0  0  1  0  0  0  0  0  0
  1  9  2  0  0  0  0
  3  5  2  0  0  0  0
  4 11  2  0  0  0  0
  5 28  1  0  0  0  0
  6 12  2  0  0  0  0
  6  1  1  0  0  0  0
  7  8  1  0  0  0  0
  8 16  1  0  0  0  0
  8  3  1  0  0  0  0
  9  4  1  0  0  0  0
 10  7  2  0  0  0  0
 10  4  1  0  0  0  0
 11  2  1  0  0  0  0
 11  5  1  0  0  0  0
 12 10  1  0  0  0  0
 13 15  1  0  0  0  0
 14 18  1  6  0  0  0
 14 17  1  0  0  0  0
 14 13  1  0  0  0  0
 16 17  1  6  0  0  0
 16 15  1  0  0  0  0
 19 23  1  0  0  0  0
 19 18  1  1  0  0  0
 20 22  1  6  0  0  0
 20 21  1  0  0  0  0
 20 19  1  0  0  0  0
 23 24  1  6  0  0  0
 23 26  1  0  0  0  0
 25 26  2  0  0  0  0
 28 27  2  0  0  0  0
 29 28  1  0  0  0  0
M  END
>  <MODEL>
9

>  <REMARK>
 VINA RESULT:      -5.5      2.817      7.691
  Name = 
  7 active torsions:
  status: ('A' for Active; 'I' for Inactive)
    1  A    between atoms: C_2  and  C_14
    2  A    between atoms: C_5  and  C_17
    3  A    between atoms: C_7  and  C_14
    4  A    between atoms: C_7  and  C_24
    5  A    between atoms: C_8  and  C_13
    6  A    between atoms: C_13  and  C_14
    7  A    between atoms: C_19  and  N_23
                            x       y       z     vdW  Elec       q    Type
                         _______ _______ _______ _____ _____    ______ ____

>  <TORSDO>
F 7

$$$$
