=
 OpenBabel11042422243D

 64 71  0  0  1  0  0  0  0  0999 V2000
  160.4960  210.0420  152.4590 C   0  0  2  0  0  3  0  0  0  0  0  0
  161.3520  207.5780  153.6740 C   0  0  0  0  0  3  0  0  0  0  0  0
  161.9710  208.8150  155.7340 C   0  0  0  0  0  3  0  0  0  0  0  0
  161.0310  211.1990  154.6580 C   0  0  0  0  0  0  0  0  0  0  0  0
  162.0320  210.0090  156.4570 C   0  0  0  0  0  3  0  0  0  0  0  0
  161.4220  208.8220  154.4530 C   0  0  0  0  0  0  0  0  0  0  0  0
  161.5600  211.1610  155.9090 N   0  0  0  0  0  0  0  0  0  0  0  0
  160.7070  207.5650  152.5080 C   0  0  0  0  0  0  0  0  0  0  0  0
  160.6250  212.2920  154.1860 O   0  0  0  0  0  0  0  0  0  0  0  0
  160.9480  210.0220  153.8980 C   0  0  2  0  0  3  0  0  0  0  0  0
  160.0960  208.7360  152.0270 O   0  0  0  0  0  0  0  0  0  0  0  0
  161.6090  204.8270  150.1390 C   0  0  1  0  0  3  0  0  0  0  0  0
  161.3770  202.4700  150.5010 O   0  0  0  0  0  1  0  0  0  0  0  0
  160.4610  205.1220  152.6500 C   0  0  0  0  0  3  0  0  0  0  0  0
  160.9520  203.9070  152.3520 C   0  0  0  0  0  3  0  0  0  0  0  0
  161.7790  203.6630  151.1120 C   0  0  2  0  0  3  0  0  0  0  0  0
  161.6500  206.5920  147.7860 C   0  0  0  0  0  2  0  0  0  0  0  0
  161.0140  207.1970  148.8810 O   0  0  0  0  0  0  0  0  0  0  0  0
  161.8300  206.1040  150.8470 N   0  0  2  0  0  0  0  0  0  0  0  0
  162.4320  204.6850  149.0130 O   0  0  0  0  0  0  0  0  0  0  0  0
  161.6050  205.0710  147.9520 C   0  0  2  0  0  3  0  0  0  0  0  0
  160.6500  206.2980  151.7130 C   0  0  2  0  0  3  0  0  0  0  0  0
  161.9760  207.2340  149.9040 C   0  0  0  0  0  2  0  0  0  0  0  0
  161.9070  204.2380  146.6960 C   0  0  2  0  0  3  0  0  0  0  0  0
  163.2030  204.6400  145.9740 C   0  0  0  0  0  1  0  0  0  0  0  0
  161.1520  204.4380  144.5330 O   0  0  0  0  0  1  0  0  0  0  0  0
  160.7320  204.2750  145.8140 N   0  0  0  0  0  0  0  0  0  0  0  0
  159.3550  202.5440  147.2920 O   0  0  0  0  0  0  0  0  0  0  0  0
  158.6490  202.8410  144.9560 O   0  0  0  0  0  0  0  0  0  0  0  0
  159.8350  202.7840  145.8850 S   0  0  0  0  0  0  0  0  0  0  0  0
  160.1970  200.4770  144.4810 C   0  0  0  0  0  2  0  0  0  0  0  0
  160.4070  199.1030  144.9330 N   0  0  0  0  0  2  0  0  0  0  0  0
  161.5240  200.5490  146.8440 S   0  0  0  0  0  0  0  0  0  0  0  0
  161.6010  197.8400  146.6330 C   0  0  0  0  0  1  0  0  0  0  0  0
  161.5880  199.0960  145.7820 C   0  0  1  0  0  3  0  0  0  0  0  0
  160.9190  201.4540  145.4000 C   0  0  2  0  0  3  0  0  0  0  0  0
  161.5980  210.5110  151.6300 N   0  0  0  0  0  2  0  0  0  0  0  0
  158.9340  214.3510  150.0890 F   0  0  0  0  0  0  0  0  0  0  0  0
  160.0260  213.5120  149.9700 C   0  0  2  0  0  0  0  0  0  0  0  0
  160.3350  212.5210  151.0880 C   0  0  2  0  0  3  0  0  0  0  0  0
  160.8270  211.0410  147.7040 C   0  0  0  0  0  1  0  0  0  0  0  0
  161.0450  211.2900  150.5330 C   0  0  1  0  0  3  0  0  0  0  0  0
  162.0940  211.6740  149.6730 O   0  0  0  0  0  0  0  0  0  0  0  0
  161.1700  214.2490  149.6070 O   0  0  0  0  0  0  0  0  0  0  0  0
  159.1430  212.1320  151.7030 O   0  0  0  0  0  1  0  0  0  0  0  0
  161.5710  212.1520  148.4440 C   0  0  2  0  0  0  0  0  0  0  0  0
  160.6440  213.3810  148.6250 C   0  0  1  0  0  3  0  0  0  0  0  0
  162.7720  212.5680  147.5890 C   0  0  0  0  0  2  0  0  0  0  0  0
  162.6780  213.9960  147.0640 C   0  0  0  0  0  2  0  0  0  0  0  0
  161.6470  214.0580  145.9550 C   0  0  0  0  0  2  0  0  0  0  0  0
  162.0330  213.1280  144.8150 C   0  0  2  0  0  3  0  0  0  0  0  0
  164.1510  214.4520  144.6380 O   0  0  0  0  0  1  0  0  0  0  0  0
  163.1370  213.6120  142.7620 O   0  0  0  0  0  0  0  0  0  0  0  0
  163.1330  213.7380  144.0140 C   0  0  0  0  0  0  0  0  0  0  0  0
  160.0030  214.0710  143.3170 O   0  0  0  0  0  0  0  0  0  0  0  0
  160.6250  212.7770  143.7680 S   0  0  0  0  0  0  0  0  0  0  0  0
  159.6160  211.9860  144.5530 O   0  0  0  0  0  0  0  0  0  0  0  0
  161.1550  211.8730  142.3830 N   0  0  0  0  0  2  0  0  0  0  0  0
  160.8500  213.7670  140.5310 O   0  0  0  0  0  0  0  0  0  0  0  0
  160.2950  212.4220  140.9480 P   0  0  2  0  0  0  0  0  0  0  0  0
  158.6450  212.6030  141.2850 O   0  0  0  0  0  1  0  0  0  0  0  0
  161.5750  211.7120  138.6240 C   0  0  0  0  0  2  0  0  0  0  0  0
  160.4890  211.2410  139.5730 C   0  0  0  0  0  3  0  0  0  0  0  0
  160.1220  211.9200  138.2680 C   0  0  0  0  0  2  0  0  0  0  0  0
  1 37  1  6  0  0  0
  1 10  1  0  0  0  0
  2  6  1  0  0  0  0
  3  5  1  0  0  0  0
  4  7  1  0  0  0  0
  6  3  2  0  0  0  0
  7  5  2  0  0  0  0
  8  2  2  0  0  0  0
  9  4  2  0  0  0  0
 10  6  1  6  0  0  0
 10  4  1  0  0  0  0
 11  1  1  0  0  0  0
 11  8  1  0  0  0  0
 12 20  1  6  0  0  0
 12 19  1  0  0  0  0
 12 16  1  0  0  0  0
 15 14  2  0  0  0  0
 16 13  1  6  0  0  0
 16 15  1  0  0  0  0
 17 21  1  0  0  0  0
 17 18  1  0  0  0  0
 18 23  1  0  0  0  0
 19 23  1  6  0  0  0
 19 22  1  0  0  0  0
 21 24  1  6  0  0  0
 21 20  1  0  0  0  0
 22  8  1  1  0  0  0
 22 14  1  0  0  0  0
 24 25  1  6  0  0  0
 26 27  1  0  0  0  0
 27 30  1  0  0  0  0
 27 24  1  0  0  0  0
 29 30  2  0  0  0  0
 30 28  2  0  0  0  0
 31 32  1  0  0  0  0
 31 36  1  0  0  0  0
 32 35  1  0  0  0  0
 35 34  1  1  0  0  0
 35 33  1  0  0  0  0
 36 30  1  1  0  0  0
 36 33  1  0  0  0  0
 39 38  1  1  0  0  0
 39 40  1  0  0  0  0
 40 45  1  6  0  0  0
 42 40  1  0  0  0  0
 42 37  1  1  0  0  0
 43 42  1  0  0  0  0
 44 39  1  0  0  0  0
 46 41  1  6  0  0  0
 46 47  1  0  0  0  0
 46 43  1  0  0  0  0
 47 44  1  1  0  0  0
 47 39  1  0  0  0  0
 48 46  1  0  0  0  0
 49 48  1  0  0  0  0
 50 49  1  0  0  0  0
 51 50  1  1  0  0  0
 53 54  2  0  0  0  0
 54 52  1  0  0  0  0
 54 51  1  0  0  0  0
 55 56  2  0  0  0  0
 56 57  2  0  0  0  0
 56 51  1  0  0  0  0
 58 56  1  0  0  0  0
 60 59  2  6  0  0  0
 60 61  1  0  0  0  0
 60 58  1  0  0  0  0
 62 63  1  0  0  0  0
 63 60  1  0  0  0  0
 64 62  1  0  0  0  0
 64 63  1  0  0  0  0
M  END
>  <MODEL>
1

>  <REMARK>
 VINA RESULT:      -1.0      0.000      0.000
  Name = 
  16 active torsions:
  status: ('A' for Active; 'I' for Inactive)
    1  A    between atoms: C_1  and  N_43
    2  A    between atoms: C_6  and  C_50
    3  A    between atoms: C_6  and  C_56
    4  A    between atoms: C_7  and  N_41
    5  A    between atoms: C_7  and  C_51
    6  A    between atoms: P_15  and  C_22
    7  A    between atoms: P_15  and  N_64
    8  A    between atoms: C_32  and  C_52
    9  A    between atoms: C_38  and  N_43
   10  A    between atoms: N_41  and  S_57
   11  A    between atoms: S_46  and  C_62
   12  A    between atoms: S_46  and  N_64
   13  A    between atoms: C_49  and  C_62
   14  A    between atoms: C_56  and  C_63
   15  A    between atoms: S_57  and  C_59
   16  A    between atoms: C_62  and  C_63
                            x       y       z     vdW  Elec       q    Type
                         _______ _______ _______ _____ _____    ______ ____

>  <TORSDO>
F 16

$$$$
=
 OpenBabel11042422243D

 64 71  0  0  1  0  0  0  0  0999 V2000
  161.6290  204.3530  148.9840 C   0  0  2  0  0  3  0  0  0  0  0  0
  160.7930  205.3410  151.5540 C   0  0  0  0  0  3  0  0  0  0  0  0
  160.5350  203.0090  152.3600 C   0  0  0  0  0  3  0  0  0  0  0  0
  161.4690  202.0050  149.9430 C   0  0  0  0  0  0  0  0  0  0  0  0
  160.6470  201.6340  152.1430 C   0  0  0  0  0  3  0  0  0  0  0  0
  160.9070  203.8910  151.3480 C   0  0  0  0  0  0  0  0  0  0  0  0
  161.1110  201.1690  150.9520 N   0  0  0  0  0  0  0  0  0  0  0  0
  161.2730  206.1780  150.6350 C   0  0  0  0  0  0  0  0  0  0  0  0
  161.8750  201.5280  148.8520 O   0  0  0  0  0  0  0  0  0  0  0  0
  161.3750  203.3940  150.1200 C   0  0  2  0  0  3  0  0  0  0  0  0
  161.8850  205.6750  149.4740 O   0  0  0  0  0  0  0  0  0  0  0  0
  161.7510  209.6160  152.0050 C   0  0  1  0  0  3  0  0  0  0  0  0
  161.9690  211.6490  150.7570 O   0  0  0  0  0  1  0  0  0  0  0  0
  161.4210  208.3770  149.5430 C   0  0  0  0  0  3  0  0  0  0  0  0
  161.9540  209.6100  149.5280 C   0  0  0  0  0  3  0  0  0  0  0  0
  162.3760  210.3110  150.7980 C   0  0  2  0  0  3  0  0  0  0  0  0
  160.8090  208.9010  154.6990 C   0  0  0  0  0  2  0  0  0  0  0  0
  160.4730  207.9220  153.7510 O   0  0  0  0  0  0  0  0  0  0  0  0
  162.0060  208.1630  151.9300 N   0  0  2  0  0  0  0  0  0  0  0  0
  162.1900  210.1790  153.2110 O   0  0  0  0  0  0  0  0  0  0  0  0
  161.0280  210.2390  153.9880 C   0  0  2  0  0  3  0  0  0  0  0  0
  161.1430  207.6550  150.8460 C   0  0  2  0  0  3  0  0  0  0  0  0
  161.6930  207.4870  153.2070 C   0  0  0  0  0  2  0  0  0  0  0  0
  161.0310  211.4920  154.8780 C   0  0  2  0  0  3  0  0  0  0  0  0
  160.9980  211.1900  156.3840 C   0  0  0  0  0  1  0  0  0  0  0  0
  159.7540  212.2320  153.1130 O   0  0  0  0  0  1  0  0  0  0  0  0
  159.9350  212.3730  154.4520 N   0  0  0  0  0  0  0  0  0  0  0  0
  157.6240  211.0610  154.3220 O   0  0  0  0  0  0  0  0  0  0  0  0
  158.7050  211.2230  156.5250 O   0  0  0  0  0  0  0  0  0  0  0  0
  158.4360  211.9480  155.2300 S   0  0  0  0  0  0  0  0  0  0  0  0
  157.2410  213.5950  157.0420 C   0  0  0  0  0  2  0  0  0  0  0  0
  155.8320  213.9180  157.2610 N   0  0  0  0  0  2  0  0  0  0  0  0
  155.9540  213.4590  154.6600 S   0  0  0  0  0  0  0  0  0  0  0  0
  153.7910  214.3800  156.0250 C   0  0  0  0  0  1  0  0  0  0  0  0
  155.3060  214.4530  156.0150 C   0  0  1  0  0  3  0  0  0  0  0  0
  157.5260  213.4470  155.5530 C   0  0  2  0  0  3  0  0  0  0  0  0
  160.4570  204.3750  148.1200 N   0  0  0  0  0  2  0  0  0  0  0  0
  159.9980  201.3680  144.2510 F   0  0  0  0  0  0  0  0  0  0  0  0
  160.1830  202.6290  144.7870 C   0  0  2  0  0  0  0  0  0  0  0  0
  159.9950  202.8420  146.2860 C   0  0  2  0  0  3  0  0  0  0  0  0
  162.9270  204.7100  144.9460 C   0  0  0  0  0  1  0  0  0  0  0  0
  160.8700  203.9900  146.7790 C   0  0  1  0  0  3  0  0  0  0  0  0
  160.7430  205.1060  145.9270 O   0  0  0  0  0  0  0  0  0  0  0  0
  159.4700  203.5870  144.0390 O   0  0  0  0  0  0  0  0  0  0  0  0
  160.3380  201.6720  146.9650 O   0  0  0  0  0  1  0  0  0  0  0  0
  161.4260  204.8690  144.7050 C   0  0  2  0  0  0  0  0  0  0  0  0
  160.8790  203.6350  143.9430 C   0  0  1  0  0  3  0  0  0  0  0  0
  161.2140  206.1120  143.8360 C   0  0  0  0  0  2  0  0  0  0  0  0
  161.4360  205.8600  142.3500 C   0  0  0  0  0  2  0  0  0  0  0  0
  162.1330  207.0570  141.7340 C   0  0  0  0  0  2  0  0  0  0  0  0
  161.6560  207.2760  140.3070 C   0  0  2  0  0  3  0  0  0  0  0  0
  162.1800  206.3320  138.0480 O   0  0  0  0  0  0  0  0  0  0  0  0
  163.7250  206.2450  139.7370 O   0  0  0  0  0  1  0  0  0  0  0  0
  162.5780  206.5940  139.3540 C   0  0  0  0  0  0  0  0  0  0  0  0
  162.9090  209.5270  139.5220 O   0  0  0  0  0  0  0  0  0  0  0  0
  161.5510  209.0220  139.9260 S   0  0  0  0  0  0  0  0  0  0  0  0
  161.0860  209.7620  141.1500 O   0  0  0  0  0  0  0  0  0  0  0  0
  160.4300  209.2530  138.6200 N   0  0  0  0  0  2  0  0  0  0  0  0
  158.8250  211.1330  139.6220 O   0  0  0  0  0  1  0  0  0  0  0  0
  159.9040  210.9330  138.5780 P   0  0  2  0  0  0  0  0  0  0  0  0
  159.2550  211.3080  137.0580 O   0  0  0  0  0  0  0  0  0  0  0  0
  160.9280  213.4810  138.5100 C   0  0  0  0  0  2  0  0  0  0  0  0
  161.2890  212.0650  138.9220 C   0  0  0  0  0  3  0  0  0  0  0  0
  161.8100  212.6390  137.6180 C   0  0  0  0  0  2  0  0  0  0  0  0
  1 37  1  6  0  0  0
  1 11  1  0  0  0  0
  1 10  1  0  0  0  0
  4  7  1  0  0  0  0
  5  3  1  0  0  0  0
  6  2  1  0  0  0  0
  6  3  2  0  0  0  0
  7  5  2  0  0  0  0
  8  2  2  0  0  0  0
  9  4  2  0  0  0  0
 10  4  1  6  0  0  0
 10  6  1  0  0  0  0
 11  8  1  0  0  0  0
 12 20  1  1  0  0  0
 14 22  1  0  0  0  0
 15 14  2  0  0  0  0
 15 16  1  0  0  0  0
 16 13  1  6  0  0  0
 16 12  1  0  0  0  0
 18 17  1  0  0  0  0
 19 12  1  0  0  0  0
 19 23  1  1  0  0  0
 20 21  1  0  0  0  0
 21 17  1  0  0  0  0
 21 24  1  1  0  0  0
 22  8  1  6  0  0  0
 22 19  1  0  0  0  0
 23 18  1  0  0  0  0
 24 25  1  1  0  0  0
 26 27  1  0  0  0  0
 27 24  1  0  0  0  0
 27 30  1  0  0  0  0
 28 30  2  0  0  0  0
 30 29  2  0  0  0  0
 31 32  1  0  0  0  0
 33 36  1  0  0  0  0
 33 35  1  0  0  0  0
 35 34  1  1  0  0  0
 35 32  1  0  0  0  0
 36 30  1  1  0  0  0
 36 31  1  0  0  0  0
 39 38  1  6  0  0  0
 39 40  1  0  0  0  0
 40 42  1  0  0  0  0
 40 45  1  1  0  0  0
 42 37  1  1  0  0  0
 43 42  1  0  0  0  0
 44 39  1  0  0  0  0
 46 41  1  1  0  0  0
 46 43  1  0  0  0  0
 47 44  1  6  0  0  0
 47 46  1  0  0  0  0
 47 39  1  0  0  0  0
 48 46  1  0  0  0  0
 49 48  1  0  0  0  0
 50 49  1  0  0  0  0
 51 50  1  1  0  0  0
 52 54  2  0  0  0  0
 54 53  1  0  0  0  0
 54 51  1  0  0  0  0
 55 56  2  0  0  0  0
 56 51  1  0  0  0  0
 56 57  2  0  0  0  0
 58 56  1  0  0  0  0
 60 61  2  6  0  0  0
 60 58  1  0  0  0  0
 60 63  1  0  0  0  0
 60 59  1  0  0  0  0
 62 63  1  0  0  0  0
 64 62  1  0  0  0  0
 64 63  1  0  0  0  0
M  END
>  <MODEL>
2

>  <REMARK>
 VINA RESULT:      -1.0      4.188      9.735
  Name = 
  16 active torsions:
  status: ('A' for Active; 'I' for Inactive)
    1  A    between atoms: C_1  and  N_43
    2  A    between atoms: C_6  and  C_50
    3  A    between atoms: C_6  and  C_56
    4  A    between atoms: C_7  and  N_41
    5  A    between atoms: C_7  and  C_51
    6  A    between atoms: P_15  and  C_22
    7  A    between atoms: P_15  and  N_64
    8  A    between atoms: C_32  and  C_52
    9  A    between atoms: C_38  and  N_43
   10  A    between atoms: N_41  and  S_57
   11  A    between atoms: S_46  and  C_62
   12  A    between atoms: S_46  and  N_64
   13  A    between atoms: C_49  and  C_62
   14  A    between atoms: C_56  and  C_63
   15  A    between atoms: S_57  and  C_59
   16  A    between atoms: C_62  and  C_63
                            x       y       z     vdW  Elec       q    Type
                         _______ _______ _______ _____ _____    ______ ____

>  <TORSDO>
F 16

$$$$
=
 OpenBabel11042422243D

 64 71  0  0  1  0  0  0  0  0999 V2000
  161.9310  204.4100  149.0850 C   0  0  2  0  0  3  0  0  0  0  0  0
  161.2270  205.2160  151.7560 C   0  0  0  0  0  3  0  0  0  0  0  0
  160.5680  202.8830  152.2810 C   0  0  0  0  0  3  0  0  0  0  0  0
  161.3630  202.0260  149.7600 C   0  0  0  0  0  0  0  0  0  0  0  0
  160.4530  201.5430  151.9020 C   0  0  0  0  0  3  0  0  0  0  0  0
  161.1000  203.8020  151.3790 C   0  0  0  0  0  0  0  0  0  0  0  0
  160.8530  201.1500  150.6640 N   0  0  0  0  0  0  0  0  0  0  0  0
  161.8560  206.0620  150.9410 C   0  0  0  0  0  0  0  0  0  0  0  0
  161.7030  201.6180  148.6190 O   0  0  0  0  0  0  0  0  0  0  0  0
  161.5000  203.3800  150.1000 C   0  0  2  0  0  3  0  0  0  0  0  0
  162.3960  205.6030  149.7270 O   0  0  0  0  0  0  0  0  0  0  0  0
  161.2560  209.7420  151.1100 C   0  0  1  0  0  3  0  0  0  0  0  0
  161.1840  211.1030  153.0790 O   0  0  0  0  0  1  0  0  0  0  0  0
  161.8380  207.6400  152.8280 C   0  0  0  0  0  3  0  0  0  0  0  0
  161.3170  208.7460  153.3860 C   0  0  0  0  0  3  0  0  0  0  0  0
  160.7670  209.8770  152.5500 C   0  0  2  0  0  3  0  0  0  0  0  0
  161.9020  210.1890  148.2750 C   0  0  0  0  0  2  0  0  0  0  0  0
  162.3310  208.9270  148.7150 O   0  0  0  0  0  0  0  0  0  0  0  0
  161.0020  208.3700  150.6250 N   0  0  2  0  0  0  0  0  0  0  0  0
  160.6950  210.7210  150.2790 O   0  0  0  0  0  0  0  0  0  0  0  0
  161.7680  211.1260  149.4780 C   0  0  2  0  0  3  0  0  0  0  0  0
  161.9720  207.5050  151.3250 C   0  0  2  0  0  3  0  0  0  0  0  0
  161.1730  208.2680  149.1600 C   0  0  0  0  0  2  0  0  0  0  0  0
  161.6790  212.6280  149.1660 C   0  0  2  0  0  3  0  0  0  0  0  0
  160.7980  213.4200  150.1460 C   0  0  0  0  0  1  0  0  0  0  0  0
  160.3160  213.7690  147.7060 O   0  0  0  0  0  1  0  0  0  0  0  0
  161.2600  212.7940  147.7670 N   0  0  0  0  0  0  0  0  0  0  0  0
  163.3100  214.4490  147.3970 O   0  0  0  0  0  0  0  0  0  0  0  0
  163.5560  212.1480  146.5660 O   0  0  0  0  0  0  0  0  0  0  0  0
  162.5910  213.2900  146.7580 S   0  0  0  0  0  0  0  0  0  0  0  0
  160.9510  212.7730  144.6450 C   0  0  0  0  0  2  0  0  0  0  0  0
  161.2560  212.4540  143.2510 N   0  0  0  0  0  2  0  0  0  0  0  0
  163.2600  214.0210  143.9690 S   0  0  0  0  0  0  0  0  0  0  0  0
  162.7770  213.0840  141.4630 C   0  0  0  0  0  1  0  0  0  0  0  0
  162.0570  213.5430  142.7160 C   0  0  1  0  0  3  0  0  0  0  0  0
  161.9370  213.8030  145.1810 C   0  0  2  0  0  3  0  0  0  0  0  0
  160.7950  204.7290  148.2320 N   0  0  0  0  0  2  0  0  0  0  0  0
  159.9310  201.6990  144.4520 F   0  0  0  0  0  0  0  0  0  0  0  0
  160.2220  202.9540  144.9530 C   0  0  2  0  0  0  0  0  0  0  0  0
  160.1350  203.2000  146.4560 C   0  0  2  0  0  3  0  0  0  0  0  0
  163.0910  204.8660  144.9160 C   0  0  0  0  0  1  0  0  0  0  0  0
  161.1050  204.3000  146.8770 C   0  0  1  0  0  3  0  0  0  0  0  0
  160.9960  205.4080  146.0130 O   0  0  0  0  0  0  0  0  0  0  0  0
  159.5260  203.9420  144.2300 O   0  0  0  0  0  0  0  0  0  0  0  0
  160.4470  202.0210  147.1360 O   0  0  0  0  0  1  0  0  0  0  0  0
  161.5900  205.1120  144.7590 C   0  0  2  0  0  0  0  0  0  0  0  0
  160.9270  203.9030  144.0520 C   0  0  1  0  0  3  0  0  0  0  0  0
  161.4030  206.3530  143.8810 C   0  0  0  0  0  2  0  0  0  0  0  0
  161.5400  206.0690  142.3900 C   0  0  0  0  0  2  0  0  0  0  0  0
  162.2340  207.2360  141.7160 C   0  0  0  0  0  2  0  0  0  0  0  0
  161.7070  207.4250  140.3020 C   0  0  2  0  0  3  0  0  0  0  0  0
  162.0510  206.4180  138.0360 O   0  0  0  0  0  0  0  0  0  0  0  0
  163.4610  205.9060  139.7690 O   0  0  0  0  0  1  0  0  0  0  0  0
  162.4570  206.5460  139.3600 C   0  0  0  0  0  0  0  0  0  0  0  0
  162.1240  209.1960  138.3160 O   0  0  0  0  0  0  0  0  0  0  0  0
  161.8390  209.1360  139.7920 S   0  0  0  0  0  0  0  0  0  0  0  0
  162.9670  209.7860  140.5440 O   0  0  0  0  0  0  0  0  0  0  0  0
  160.3410  209.9480  140.1300 N   0  0  0  0  0  2  0  0  0  0  0  0
  157.8650  209.6670  139.1810 O   0  0  0  0  0  1  0  0  0  0  0  0
  159.2920  209.8740  138.7180 P   0  0  2  0  0  0  0  0  0  0  0  0
  159.7290  208.5700  137.7290 O   0  0  0  0  0  0  0  0  0  0  0  0
  160.2880  212.4180  138.4380 C   0  0  0  0  0  2  0  0  0  0  0  0
  159.3890  211.4110  137.7440 C   0  0  0  0  0  3  0  0  0  0  0  0
  158.7870  212.5530  138.5390 C   0  0  0  0  0  2  0  0  0  0  0  0
  1 37  1  6  0  0  0
  1 11  1  0  0  0  0
  1 10  1  0  0  0  0
  4  7  1  0  0  0  0
  5  3  1  0  0  0  0
  6  2  1  0  0  0  0
  6  3  2  0  0  0  0
  7  5  2  0  0  0  0
  8  2  2  0  0  0  0
  9  4  2  0  0  0  0
 10  4  1  6  0  0  0
 10  6  1  0  0  0  0
 11  8  1  0  0  0  0
 12 20  1  6  0  0  0
 12 16  1  0  0  0  0
 14 15  2  0  0  0  0
 16 13  1  1  0  0  0
 16 15  1  0  0  0  0
 17 18  1  0  0  0  0
 17 21  1  0  0  0  0
 18 23  1  0  0  0  0
 19 23  1  6  0  0  0
 19 12  1  0  0  0  0
 19 22  1  0  0  0  0
 21 24  1  6  0  0  0
 21 20  1  0  0  0  0
 22  8  1  1  0  0  0
 22 14  1  0  0  0  0
 24 25  1  1  0  0  0
 26 27  1  0  0  0  0
 27 24  1  0  0  0  0
 29 30  2  0  0  0  0
 30 28  2  0  0  0  0
 30 27  1  0  0  0  0
 31 36  1  0  0  0  0
 32 31  1  0  0  0  0
 33 36  1  0  0  0  0
 35 34  1  6  0  0  0
 35 32  1  0  0  0  0
 35 33  1  0  0  0  0
 36 30  1  1  0  0  0
 39 38  1  6  0  0  0
 39 40  1  0  0  0  0
 40 42  1  0  0  0  0
 40 45  1  1  0  0  0
 42 37  1  1  0  0  0
 43 42  1  0  0  0  0
 44 39  1  0  0  0  0
 46 41  1  1  0  0  0
 46 43  1  0  0  0  0
 47 44  1  6  0  0  0
 47 46  1  0  0  0  0
 47 39  1  0  0  0  0
 48 46  1  0  0  0  0
 49 48  1  0  0  0  0
 50 49  1  0  0  0  0
 51 50  1  1  0  0  0
 52 54  2  0  0  0  0
 54 53  1  0  0  0  0
 54 51  1  0  0  0  0
 55 56  2  0  0  0  0
 56 58  1  0  0  0  0
 56 51  1  0  0  0  0
 56 57  2  0  0  0  0
 60 61  2  6  0  0  0
 60 59  1  0  0  0  0
 60 58  1  0  0  0  0
 62 64  1  0  0  0  0
 63 62  1  0  0  0  0
 63 64  1  0  0  0  0
 63 60  1  0  0  0  0
M  END
>  <MODEL>
3

>  <REMARK>
 VINA RESULT:      -0.9      3.472      8.566
  Name = 
  16 active torsions:
  status: ('A' for Active; 'I' for Inactive)
    1  A    between atoms: C_1  and  N_43
    2  A    between atoms: C_6  and  C_50
    3  A    between atoms: C_6  and  C_56
    4  A    between atoms: C_7  and  N_41
    5  A    between atoms: C_7  and  C_51
    6  A    between atoms: P_15  and  C_22
    7  A    between atoms: P_15  and  N_64
    8  A    between atoms: C_32  and  C_52
    9  A    between atoms: C_38  and  N_43
   10  A    between atoms: N_41  and  S_57
   11  A    between atoms: S_46  and  C_62
   12  A    between atoms: S_46  and  N_64
   13  A    between atoms: C_49  and  C_62
   14  A    between atoms: C_56  and  C_63
   15  A    between atoms: S_57  and  C_59
   16  A    between atoms: C_62  and  C_63
                            x       y       z     vdW  Elec       q    Type
                         _______ _______ _______ _____ _____    ______ ____

>  <TORSDO>
F 16

$$$$
=
 OpenBabel11042422243D

 64 71  0  0  1  0  0  0  0  0999 V2000
  161.8480  204.2400  149.2780 C   0  0  2  0  0  3  0  0  0  0  0  0
  161.1840  205.4360  151.8090 C   0  0  0  0  0  3  0  0  0  0  0  0
  160.3960  203.2340  152.6370 C   0  0  0  0  0  3  0  0  0  0  0  0
  161.1470  202.0040  150.2610 C   0  0  0  0  0  0  0  0  0  0  0  0
  160.2060  201.8640  152.4400 C   0  0  0  0  0  3  0  0  0  0  0  0
  160.9800  203.9930  151.6250 C   0  0  0  0  0  0  0  0  0  0  0  0
  160.5870  201.2860  151.2700 N   0  0  0  0  0  0  0  0  0  0  0  0
  161.8610  206.1290  150.8950 C   0  0  0  0  0  0  0  0  0  0  0  0
  161.4660  201.4280  149.1890 O   0  0  0  0  0  0  0  0  0  0  0  0
  161.3580  203.3820  150.4180 C   0  0  2  0  0  3  0  0  0  0  0  0
  162.3770  205.4810  149.7590 O   0  0  0  0  0  0  0  0  0  0  0  0
  161.5110  209.8250  150.5160 C   0  0  1  0  0  3  0  0  0  0  0  0
  161.4260  211.4540  152.2700 O   0  0  0  0  0  1  0  0  0  0  0  0
  161.8500  207.9560  152.5410 C   0  0  0  0  0  3  0  0  0  0  0  0
  161.3770  209.1600  152.9070 C   0  0  0  0  0  3  0  0  0  0  0  0
  160.9540  210.1930  151.8890 C   0  0  2  0  0  3  0  0  0  0  0  0
  162.3410  209.8250  147.6930 C   0  0  0  0  0  2  0  0  0  0  0  0
  162.6560  208.6150  148.3300 O   0  0  0  0  0  0  0  0  0  0  0  0
  161.1890  208.4160  150.2090 N   0  0  2  0  0  0  0  0  0  0  0  0
  161.0660  210.7080  149.5230 O   0  0  0  0  0  0  0  0  0  0  0  0
  162.2070  210.9290  148.7450 C   0  0  2  0  0  3  0  0  0  0  0  0
  162.0560  207.6020  151.0820 C   0  0  2  0  0  3  0  0  0  0  0  0
  161.4320  208.0970  148.7860 C   0  0  0  0  0  2  0  0  0  0  0  0
  162.2400  212.3750  148.2230 C   0  0  2  0  0  3  0  0  0  0  0  0
  163.6230  213.0390  148.3050 C   0  0  0  0  0  1  0  0  0  0  0  0
  161.7260  214.3360  149.3100 O   0  0  0  0  0  1  0  0  0  0  0  0
  161.1980  213.1480  148.9150 N   0  0  0  0  0  0  0  0  0  0  0  0
  160.3340  214.2970  146.6770 O   0  0  0  0  0  0  0  0  0  0  0  0
  159.2260  212.2160  147.3740 O   0  0  0  0  0  0  0  0  0  0  0  0
  159.8570  213.4960  147.8600 S   0  0  0  0  0  0  0  0  0  0  0  0
  158.7650  214.1650  150.2640 C   0  0  0  0  0  2  0  0  0  0  0  0
  157.4420  213.8940  150.8250 N   0  0  0  0  0  2  0  0  0  0  0  0
  156.9770  214.0760  148.2290 S   0  0  0  0  0  0  0  0  0  0  0  0
  155.1000  213.8270  150.1790 C   0  0  0  0  0  1  0  0  0  0  0  0
  156.4560  214.4510  149.9120 C   0  0  1  0  0  3  0  0  0  0  0  0
  158.6600  214.4520  148.7730 C   0  0  2  0  0  3  0  0  0  0  0  0
  160.7330  204.5030  148.3790 N   0  0  0  0  0  2  0  0  0  0  0  0
  160.2080  201.4980  144.5180 F   0  0  0  0  0  0  0  0  0  0  0  0
  160.4090  202.7580  145.0500 C   0  0  2  0  0  0  0  0  0  0  0  0
  160.2390  202.9730  146.5510 C   0  0  2  0  0  3  0  0  0  0  0  0
  163.1700  204.8170  145.1770 C   0  0  0  0  0  1  0  0  0  0  0  0
  161.1290  204.1150  147.0340 C   0  0  1  0  0  3  0  0  0  0  0  0
  161.0010  205.2310  146.1820 O   0  0  0  0  0  0  0  0  0  0  0  0
  159.6950  203.7200  144.3100 O   0  0  0  0  0  0  0  0  0  0  0  0
  160.5800  201.8000  147.2270 O   0  0  0  0  0  1  0  0  0  0  0  0
  161.6680  204.9880  144.9540 C   0  0  2  0  0  0  0  0  0  0  0  0
  161.1030  203.7580  144.1980 C   0  0  1  0  0  3  0  0  0  0  0  0
  161.4560  206.2320  144.0860 C   0  0  0  0  0  2  0  0  0  0  0  0
  161.3810  205.9280  142.5950 C   0  0  0  0  0  2  0  0  0  0  0  0
  162.1260  206.9990  141.8240 C   0  0  0  0  0  2  0  0  0  0  0  0
  161.6030  207.0930  140.3990 C   0  0  2  0  0  3  0  0  0  0  0  0
  162.2060  206.2050  138.1370 O   0  0  0  0  0  0  0  0  0  0  0  0
  163.6800  206.0480  139.8840 O   0  0  0  0  0  1  0  0  0  0  0  0
  162.5550  206.4250  139.4650 C   0  0  0  0  0  0  0  0  0  0  0  0
  160.1590  208.8920  139.0080 O   0  0  0  0  0  0  0  0  0  0  0  0
  161.3550  208.7990  139.9170 S   0  0  0  0  0  0  0  0  0  0  0  0
  162.5760  209.2840  139.1860 O   0  0  0  0  0  0  0  0  0  0  0  0
  161.0820  209.7580  141.3390 N   0  0  0  0  0  2  0  0  0  0  0  0
  160.6720  211.8170  139.6940 O   0  0  0  0  0  0  0  0  0  0  0  0
  161.3860  211.4550  140.9800 P   0  0  2  0  0  0  0  0  0  0  0  0
  163.0450  211.7220  140.7660 O   0  0  0  0  0  1  0  0  0  0  0  0
  160.7240  213.9720  141.8560 C   0  0  0  0  0  2  0  0  0  0  0  0
  160.7850  212.5300  142.3230 C   0  0  0  0  0  3  0  0  0  0  0  0
  161.8760  213.5070  142.7160 C   0  0  0  0  0  2  0  0  0  0  0  0
  1 37  1  6  0  0  0
  1 11  1  0  0  0  0
  1 10  1  0  0  0  0
  4  7  1  0  0  0  0
  5  3  1  0  0  0  0
  6  2  1  0  0  0  0
  6  3  2  0  0  0  0
  7  5  2  0  0  0  0
  8  2  2  0  0  0  0
  9  4  2  0  0  0  0
 10  4  1  6  0  0  0
 10  6  1  0  0  0  0
 11  8  1  0  0  0  0
 12 20  1  6  0  0  0
 12 16  1  0  0  0  0
 14 15  2  0  0  0  0
 16 13  1  1  0  0  0
 16 15  1  0  0  0  0
 17 18  1  0  0  0  0
 17 21  1  0  0  0  0
 18 23  1  0  0  0  0
 19 23  1  6  0  0  0
 19 12  1  0  0  0  0
 19 22  1  0  0  0  0
 21 24  1  6  0  0  0
 21 20  1  0  0  0  0
 22  8  1  1  0  0  0
 22 14  1  0  0  0  0
 24 25  1  1  0  0  0
 24 27  1  0  0  0  0
 27 26  1  0  0  0  0
 28 30  2  0  0  0  0
 29 30  2  0  0  0  0
 30 27  1  0  0  0  0
 31 32  1  0  0  0  0
 33 36  1  0  0  0  0
 33 35  1  0  0  0  0
 35 34  1  1  0  0  0
 35 32  1  0  0  0  0
 36 30  1  6  0  0  0
 36 31  1  0  0  0  0
 39 38  1  6  0  0  0
 39 40  1  0  0  0  0
 40 42  1  0  0  0  0
 40 45  1  1  0  0  0
 42 37  1  1  0  0  0
 43 42  1  0  0  0  0
 44 39  1  0  0  0  0
 46 41  1  1  0  0  0
 46 43  1  0  0  0  0
 47 44  1  6  0  0  0
 47 46  1  0  0  0  0
 47 39  1  0  0  0  0
 48 46  1  0  0  0  0
 49 48  1  0  0  0  0
 50 49  1  0  0  0  0
 51 50  1  1  0  0  0
 52 54  2  0  0  0  0
 54 53  1  0  0  0  0
 54 51  1  0  0  0  0
 55 56  2  0  0  0  0
 56 51  1  0  0  0  0
 56 58  1  0  0  0  0
 57 56  2  0  0  0  0
 60 59  2  6  0  0  0
 60 58  1  0  0  0  0
 60 63  1  0  0  0  0
 61 60  1  0  0  0  0
 62 63  1  0  0  0  0
 62 64  1  0  0  0  0
 63 64  1  0  0  0  0
M  END
>  <MODEL>
4

>  <REMARK>
 VINA RESULT:      -0.8      3.518      8.809
  Name = 
  16 active torsions:
  status: ('A' for Active; 'I' for Inactive)
    1  A    between atoms: C_1  and  N_43
    2  A    between atoms: C_6  and  C_50
    3  A    between atoms: C_6  and  C_56
    4  A    between atoms: C_7  and  N_41
    5  A    between atoms: C_7  and  C_51
    6  A    between atoms: P_15  and  C_22
    7  A    between atoms: P_15  and  N_64
    8  A    between atoms: C_32  and  C_52
    9  A    between atoms: C_38  and  N_43
   10  A    between atoms: N_41  and  S_57
   11  A    between atoms: S_46  and  C_62
   12  A    between atoms: S_46  and  N_64
   13  A    between atoms: C_49  and  C_62
   14  A    between atoms: C_56  and  C_63
   15  A    between atoms: S_57  and  C_59
   16  A    between atoms: C_62  and  C_63
                            x       y       z     vdW  Elec       q    Type
                         _______ _______ _______ _____ _____    ______ ____

>  <TORSDO>
F 16

$$$$
=
 OpenBabel11042422243D

 64 71  0  0  1  0  0  0  0  0999 V2000
  159.9640  209.4190  153.5170 C   0  0  2  0  0  3  0  0  0  0  0  0
  162.0730  207.4790  153.7760 C   0  0  0  0  0  3  0  0  0  0  0  0
  162.3650  208.1210  156.1540 C   0  0  0  0  0  3  0  0  0  0  0  0
  160.2430  209.9090  155.9950 C   0  0  0  0  0  0  0  0  0  0  0  0
  161.9710  208.8770  157.2610 C   0  0  0  0  0  3  0  0  0  0  0  0
  161.6740  208.2620  154.9520 C   0  0  0  0  0  0  0  0  0  0  0  0
  160.9270  209.7410  157.1570 N   0  0  0  0  0  0  0  0  0  0  0  0
  161.3290  207.5200  152.6720 C   0  0  0  0  0  0  0  0  0  0  0  0
  159.2960  210.7340  155.9420 O   0  0  0  0  0  0  0  0  0  0  0  0
  160.6040  209.1670  154.8600 C   0  0  2  0  0  3  0  0  0  0  0  0
  160.1660  208.3080  152.6340 O   0  0  0  0  0  0  0  0  0  0  0  0
  161.2290  205.2270  149.7290 C   0  0  1  0  0  3  0  0  0  0  0  0
  162.2350  205.5860  147.5850 O   0  0  0  0  0  1  0  0  0  0  0  0
  162.3620  207.6580  150.4440 C   0  0  0  0  0  3  0  0  0  0  0  0
  162.2770  207.3990  149.1280 C   0  0  0  0  0  3  0  0  0  0  0  0
  161.5030  206.2150  148.5980 C   0  0  2  0  0  3  0  0  0  0  0  0
  160.4800  202.8720  151.3240 C   0  0  0  0  0  2  0  0  0  0  0  0
  160.9470  203.9210  152.1310 O   0  0  0  0  0  0  0  0  0  0  0  0
  160.6470  205.9410  150.8840 N   0  0  2  0  0  0  0  0  0  0  0  0
  160.4330  204.1560  149.2990 O   0  0  0  0  0  0  0  0  0  0  0  0
  161.0250  203.0430  149.9050 C   0  0  2  0  0  3  0  0  0  0  0  0
  161.7480  206.7290  151.4710 C   0  0  2  0  0  3  0  0  0  0  0  0
  160.0870  205.0030  151.8800 C   0  0  0  0  0  2  0  0  0  0  0  0
  160.9380  201.8130  148.9870 C   0  0  2  0  0  3  0  0  0  0  0  0
  161.3680  200.4990  149.6590 C   0  0  0  0  0  1  0  0  0  0  0  0
  162.8950  201.4720  147.8280 O   0  0  0  0  0  1  0  0  0  0  0  0
  161.6890  202.0910  147.7550 N   0  0  0  0  0  0  0  0  0  0  0  0
  161.5600  200.2240  145.8640 O   0  0  0  0  0  0  0  0  0  0  0  0
  159.4320  201.1390  146.6890 O   0  0  0  0  0  0  0  0  0  0  0  0
  160.8650  201.4680  146.3520 S   0  0  0  0  0  0  0  0  0  0  0  0
  162.2990  203.3440  144.9930 C   0  0  0  0  0  2  0  0  0  0  0  0
  162.1900  204.8010  144.9690 N   0  0  0  0  0  2  0  0  0  0  0  0
  159.7010  204.0130  145.3850 S   0  0  0  0  0  0  0  0  0  0  0  0
  160.5190  206.5660  144.9350 C   0  0  0  0  0  1  0  0  0  0  0  0
  160.8380  205.1340  144.5500 C   0  0  1  0  0  3  0  0  0  0  0  0
  160.9160  202.7100  145.0740 C   0  0  2  0  0  3  0  0  0  0  0  0
  160.5570  210.6150  152.9350 N   0  0  0  0  0  2  0  0  0  0  0  0
  156.3520  213.1460  153.2900 F   0  0  0  0  0  0  0  0  0  0  0  0
  157.6150  212.9690  152.7570 C   0  0  2  0  0  0  0  0  0  0  0  0
  158.5380  211.9100  153.3510 C   0  0  2  0  0  3  0  0  0  0  0  0
  158.7100  212.0140  149.6310 C   0  0  0  0  0  1  0  0  0  0  0  0
  159.5010  211.3820  152.2920 C   0  0  1  0  0  3  0  0  0  0  0  0
  160.0840  212.4510  151.5820 O   0  0  0  0  0  0  0  0  0  0  0  0
  158.2700  214.2100  152.6330 O   0  0  0  0  0  0  0  0  0  0  0  0
  157.7710  210.8550  153.8480 O   0  0  0  0  0  1  0  0  0  0  0  0
  159.1360  213.0250  150.6950 C   0  0  2  0  0  0  0  0  0  0  0  0
  157.8880  213.5790  151.4290 C   0  0  1  0  0  3  0  0  0  0  0  0
  159.8420  214.1860  149.9900 C   0  0  0  0  0  2  0  0  0  0  0  0
  159.9350  214.0140  148.4780 C   0  0  0  0  0  2  0  0  0  0  0  0
  158.5640  213.6760  147.9260 C   0  0  0  0  0  2  0  0  0  0  0  0
  158.5460  213.8320  146.4130 C   0  0  2  0  0  3  0  0  0  0  0  0
  156.2570  214.0800  145.4290 O   0  0  0  0  0  0  0  0  0  0  0  0
  157.1570  212.0030  145.7860 O   0  0  0  0  0  1  0  0  0  0  0  0
  157.2890  213.2520  145.8580 C   0  0  0  0  0  0  0  0  0  0  0  0
  160.3550  211.8380  146.4810 O   0  0  0  0  0  0  0  0  0  0  0  0
  159.9720  213.0450  145.6700 S   0  0  0  0  0  0  0  0  0  0  0  0
  161.1170  214.0200  145.6550 O   0  0  0  0  0  0  0  0  0  0  0  0
  159.5750  212.5570  144.0510 N   0  0  0  0  0  2  0  0  0  0  0  0
  162.2280  212.7600  143.8710 O   0  0  0  0  0  1  0  0  0  0  0  0
  160.9830  212.7440  143.0100 P   0  0  2  0  0  0  0  0  0  0  0  0
  160.8980  214.2090  142.1640 O   0  0  0  0  0  0  0  0  0  0  0  0
  162.1100  211.7120  140.7280 C   0  0  0  0  0  2  0  0  0  0  0  0
  161.1000  211.3770  141.8110 C   0  0  0  0  0  3  0  0  0  0  0  0
  160.6320  211.8550  140.4500 C   0  0  0  0  0  2  0  0  0  0  0  0
  1 37  1  6  0  0  0
  1 10  1  0  0  0  0
  2  6  1  0  0  0  0
  3  5  1  0  0  0  0
  4  7  1  0  0  0  0
  6  3  2  0  0  0  0
  7  5  2  0  0  0  0
  8  2  2  0  0  0  0
  9  4  2  0  0  0  0
 10  6  1  6  0  0  0
 10  4  1  0  0  0  0
 11  8  1  0  0  0  0
 11  1  1  0  0  0  0
 12 20  1  6  0  0  0
 12 19  1  0  0  0  0
 14 22  1  0  0  0  0
 15 14  2  0  0  0  0
 16 13  1  6  0  0  0
 16 15  1  0  0  0  0
 16 12  1  0  0  0  0
 17 18  1  0  0  0  0
 19 22  1  0  0  0  0
 19 23  1  1  0  0  0
 20 21  1  0  0  0  0
 21 24  1  6  0  0  0
 21 17  1  0  0  0  0
 22  8  1  1  0  0  0
 23 18  1  0  0  0  0
 24 25  1  1  0  0  0
 27 26  1  0  0  0  0
 27 24  1  0  0  0  0
 28 30  2  0  0  0  0
 30 29  2  0  0  0  0
 30 27  1  0  0  0  0
 31 36  1  0  0  0  0
 32 31  1  0  0  0  0
 35 34  1  1  0  0  0
 35 32  1  0  0  0  0
 35 33  1  0  0  0  0
 36 33  1  0  0  0  0
 36 30  1  1  0  0  0
 39 38  1  1  0  0  0
 39 40  1  0  0  0  0
 40 45  1  6  0  0  0
 42 37  1  1  0  0  0
 42 40  1  0  0  0  0
 43 42  1  0  0  0  0
 44 39  1  0  0  0  0
 46 41  1  6  0  0  0
 46 47  1  0  0  0  0
 46 43  1  0  0  0  0
 47 44  1  1  0  0  0
 47 39  1  0  0  0  0
 48 46  1  0  0  0  0
 49 48  1  0  0  0  0
 50 49  1  0  0  0  0
 51 50  1  1  0  0  0
 52 54  2  0  0  0  0
 53 54  1  0  0  0  0
 54 51  1  0  0  0  0
 56 51  1  0  0  0  0
 56 55  2  0  0  0  0
 57 56  2  0  0  0  0
 58 56  1  0  0  0  0
 60 61  2  6  0  0  0
 60 59  1  0  0  0  0
 60 58  1  0  0  0  0
 62 63  1  0  0  0  0
 63 60  1  0  0  0  0
 64 62  1  0  0  0  0
 64 63  1  0  0  0  0
M  END
>  <MODEL>
5

>  <REMARK>
 VINA RESULT:       0.2      2.209      3.660
  Name = 
  16 active torsions:
  status: ('A' for Active; 'I' for Inactive)
    1  A    between atoms: C_1  and  N_43
    2  A    between atoms: C_6  and  C_50
    3  A    between atoms: C_6  and  C_56
    4  A    between atoms: C_7  and  N_41
    5  A    between atoms: C_7  and  C_51
    6  A    between atoms: P_15  and  C_22
    7  A    between atoms: P_15  and  N_64
    8  A    between atoms: C_32  and  C_52
    9  A    between atoms: C_38  and  N_43
   10  A    between atoms: N_41  and  S_57
   11  A    between atoms: S_46  and  C_62
   12  A    between atoms: S_46  and  N_64
   13  A    between atoms: C_49  and  C_62
   14  A    between atoms: C_56  and  C_63
   15  A    between atoms: S_57  and  C_59
   16  A    between atoms: C_62  and  C_63
                            x       y       z     vdW  Elec       q    Type
                         _______ _______ _______ _____ _____    ______ ____

>  <TORSDO>
F 16

$$$$
=
 OpenBabel11042422243D

 64 71  0  0  1  0  0  0  0  0999 V2000
  161.6680  204.6050  150.4240 C   0  0  2  0  0  3  0  0  0  0  0  0
  160.4980  204.2580  153.0300 C   0  0  0  0  0  3  0  0  0  0  0  0
  159.6950  202.0080  152.3650 C   0  0  0  0  0  3  0  0  0  0  0  0
  160.9250  202.2350  149.8830 C   0  0  0  0  0  0  0  0  0  0  0  0
  159.6180  200.9790  151.4220 C   0  0  0  0  0  3  0  0  0  0  0  0
  160.4080  203.1640  152.0550 C   0  0  0  0  0  0  0  0  0  0  0  0
  160.2330  201.1140  150.2170 N   0  0  0  0  0  0  0  0  0  0  0  0
  161.2880  205.3010  152.7810 C   0  0  0  0  0  0  0  0  0  0  0  0
  161.4620  202.3220  148.7490 O   0  0  0  0  0  0  0  0  0  0  0  0
  161.0290  203.2910  150.8010 C   0  0  2  0  0  3  0  0  0  0  0  0
  162.0340  205.3530  151.5910 O   0  0  0  0  0  0  0  0  0  0  0  0
  160.6080  208.5090  154.5630 C   0  0  1  0  0  3  0  0  0  0  0  0
  160.4670  208.8430  156.9300 O   0  0  0  0  0  1  0  0  0  0  0  0
  161.1990  205.8660  155.1730 C   0  0  0  0  0  3  0  0  0  0  0  0
  160.6420  206.6000  156.1530 C   0  0  0  0  0  3  0  0  0  0  0  0
  160.0870  207.9800  155.8960 C   0  0  2  0  0  3  0  0  0  0  0  0
  161.3040  210.1860  152.2470 C   0  0  0  0  0  2  0  0  0  0  0  0
  161.7500  208.8650  152.0880 O   0  0  0  0  0  0  0  0  0  0  0  0
  160.3930  207.4980  153.5080 N   0  0  2  0  0  0  0  0  0  0  0  0
  160.0450  209.7520  154.2420 O   0  0  0  0  0  0  0  0  0  0  0  0
  161.1260  210.4830  153.7380 C   0  0  2  0  0  3  0  0  0  0  0  0
  161.3660  206.4200  153.7730 C   0  0  2  0  0  3  0  0  0  0  0  0
  160.5970  208.0650  152.1570 C   0  0  0  0  0  2  0  0  0  0  0  0
  161.0110  211.9640  154.1290 C   0  0  2  0  0  3  0  0  0  0  0  0
  160.5060  212.1970  155.5620 C   0  0  0  0  0  1  0  0  0  0  0  0
  160.3160  212.0010  151.9380 O   0  0  0  0  0  1  0  0  0  0  0  0
  160.1960  212.6560  153.1220 N   0  0  0  0  0  0  0  0  0  0  0  0
  157.9060  211.3060  153.2360 O   0  0  0  0  0  0  0  0  0  0  0  0
  158.3430  212.9360  155.0240 O   0  0  0  0  0  0  0  0  0  0  0  0
  158.5080  212.6500  153.5530 S   0  0  0  0  0  0  0  0  0  0  0  0
  156.1990  213.9600  152.9430 C   0  0  0  0  0  2  0  0  0  0  0  0
  155.3900  213.9600  151.7250 N   0  0  0  0  0  2  0  0  0  0  0  0
  157.8470  213.5860  150.8240 S   0  0  0  0  0  0  0  0  0  0  0  0
  155.6260  213.9810  149.3070 C   0  0  0  0  0  1  0  0  0  0  0  0
  156.2450  214.3880  150.6300 C   0  0  1  0  0  3  0  0  0  0  0  0
  157.6800  213.9060  152.5950 C   0  0  2  0  0  3  0  0  0  0  0  0
  160.7190  205.3750  149.6330 N   0  0  0  0  0  2  0  0  0  0  0  0
  162.1080  205.6410  144.9190 F   0  0  0  0  0  0  0  0  0  0  0  0
  161.6860  206.2420  146.0910 C   0  0  2  0  0  0  0  0  0  0  0  0
  161.2000  205.3720  147.2450 C   0  0  2  0  0  3  0  0  0  0  0  0
  163.3030  208.2210  148.4040 C   0  0  0  0  0  1  0  0  0  0  0  0
  161.4530  206.0640  148.5820 C   0  0  1  0  0  3  0  0  0  0  0  0
  161.0220  207.4050  148.5300 O   0  0  0  0  0  0  0  0  0  0  0  0
  160.7730  207.2760  145.8080 O   0  0  0  0  0  0  0  0  0  0  0  0
  161.8750  204.1500  147.2200 O   0  0  0  0  0  1  0  0  0  0  0  0
  161.9210  208.1780  147.7520 C   0  0  2  0  0  0  0  0  0  0  0  0
  162.0400  207.6710  146.2920 C   0  0  1  0  0  3  0  0  0  0  0  0
  161.3650  209.6050  147.7280 C   0  0  0  0  0  2  0  0  0  0  0  0
  162.0660  210.5480  148.6990 C   0  0  0  0  0  2  0  0  0  0  0  0
  161.4440  211.9260  148.6010 C   0  0  0  0  0  2  0  0  0  0  0  0
  161.6090  212.4880  147.1970 C   0  0  2  0  0  3  0  0  0  0  0  0
  163.4510  213.8500  146.1890 O   0  0  0  0  0  0  0  0  0  0  0  0
  162.5150  214.4510  148.1920 O   0  0  0  0  0  1  0  0  0  0  0  0
  162.5430  213.6490  147.2230 C   0  0  0  0  0  0  0  0  0  0  0  0
  160.1000  214.4120  146.0680 O   0  0  0  0  0  0  0  0  0  0  0  0
  160.0290  212.9760  146.5120 S   0  0  0  0  0  0  0  0  0  0  0  0
  158.9700  212.8330  147.5710 O   0  0  0  0  0  0  0  0  0  0  0  0
  159.6600  211.9630  145.1510 N   0  0  0  0  0  2  0  0  0  0  0  0
  161.0670  213.8310  143.8700 O   0  0  0  0  0  1  0  0  0  0  0  0
  159.9320  212.8520  143.6560 P   0  0  2  0  0  0  0  0  0  0  0  0
  158.5440  213.7240  143.2300 O   0  0  0  0  0  0  0  0  0  0  0  0
  161.5740  212.2470  141.5380 C   0  0  0  0  0  2  0  0  0  0  0  0
  160.3620  211.7260  142.2900 C   0  0  0  0  0  3  0  0  0  0  0  0
  160.1900  212.4460  140.9660 C   0  0  0  0  0  2  0  0  0  0  0  0
  1 37  1  1  0  0  0
  1 10  1  0  0  0  0
  1 11  1  0  0  0  0
  4  7  1  0  0  0  0
  5  3  1  0  0  0  0
  6  3  2  0  0  0  0
  6  2  1  0  0  0  0
  7  5  2  0  0  0  0
  8  2  2  0  0  0  0
  9  4  2  0  0  0  0
 10  4  1  6  0  0  0
 10  6  1  0  0  0  0
 11  8  1  0  0  0  0
 12 20  1  6  0  0  0
 12 16  1  0  0  0  0
 14 15  2  0  0  0  0
 16 15  1  0  0  0  0
 16 13  1  1  0  0  0
 17 21  1  0  0  0  0
 18 23  1  0  0  0  0
 18 17  1  0  0  0  0
 19 23  1  6  0  0  0
 19 22  1  0  0  0  0
 19 12  1  0  0  0  0
 21 24  1  6  0  0  0
 21 20  1  0  0  0  0
 22  8  1  6  0  0  0
 22 14  1  0  0  0  0
 24 25  1  1  0  0  0
 26 27  1  0  0  0  0
 27 30  1  0  0  0  0
 27 24  1  0  0  0  0
 28 30  2  0  0  0  0
 30 29  2  0  0  0  0
 32 31  1  0  0  0  0
 33 36  1  0  0  0  0
 35 34  1  6  0  0  0
 35 33  1  0  0  0  0
 35 32  1  0  0  0  0
 36 31  1  0  0  0  0
 36 30  1  1  0  0  0
 39 38  1  6  0  0  0
 39 47  1  0  0  0  0
 39 40  1  0  0  0  0
 40 45  1  1  0  0  0
 40 42  1  0  0  0  0
 42 37  1  1  0  0  0
 43 42  1  0  0  0  0
 44 39  1  0  0  0  0
 46 41  1  1  0  0  0
 46 43  1  0  0  0  0
 47 44  1  6  0  0  0
 47 46  1  0  0  0  0
 48 46  1  0  0  0  0
 48 49  1  0  0  0  0
 50 49  1  0  0  0  0
 51 54  1  0  0  0  0
 51 50  1  1  0  0  0
 52 54  2  0  0  0  0
 54 53  1  0  0  0  0
 55 56  2  0  0  0  0
 56 51  1  0  0  0  0
 56 57  2  0  0  0  0
 58 56  1  0  0  0  0
 60 61  2  6  0  0  0
 60 59  1  0  0  0  0
 60 58  1  0  0  0  0
 62 63  1  0  0  0  0
 63 60  1  0  0  0  0
 64 62  1  0  0  0  0
 64 63  1  0  0  0  0
M  END
>  <MODEL>
6

>  <REMARK>
 VINA RESULT:       0.6      3.465      8.263
  Name = 
  16 active torsions:
  status: ('A' for Active; 'I' for Inactive)
    1  A    between atoms: C_1  and  N_43
    2  A    between atoms: C_6  and  C_50
    3  A    between atoms: C_6  and  C_56
    4  A    between atoms: C_7  and  N_41
    5  A    between atoms: C_7  and  C_51
    6  A    between atoms: P_15  and  C_22
    7  A    between atoms: P_15  and  N_64
    8  A    between atoms: C_32  and  C_52
    9  A    between atoms: C_38  and  N_43
   10  A    between atoms: N_41  and  S_57
   11  A    between atoms: S_46  and  C_62
   12  A    between atoms: S_46  and  N_64
   13  A    between atoms: C_49  and  C_62
   14  A    between atoms: C_56  and  C_63
   15  A    between atoms: S_57  and  C_59
   16  A    between atoms: C_62  and  C_63
                            x       y       z     vdW  Elec       q    Type
                         _______ _______ _______ _____ _____    ______ ____

>  <TORSDO>
F 16

$$$$
