=
 OpenBabel11052409483D

 26 28  0  0  1  0  0  0  0  0999 V2000
  160.6660  202.7120  151.4810 C   0  0  0  0  0  3  0  0  0  0  0  0
  161.2140  205.7560  145.6450 C   0  0  0  0  0  3  0  0  0  0  0  0
  160.9650  203.6610  152.4510 C   0  0  0  0  0  3  0  0  0  0  0  0
  160.9750  201.7200  148.0480 C   0  0  0  0  0  3  0  0  0  0  0  0
  160.7580  203.0110  150.1180 C   0  0  0  0  0  0  0  0  0  0  0  0
  160.6440  206.0670  147.9670 C   0  0  0  0  0  3  0  0  0  0  0  0
  160.4730  201.9300  149.2220 N   0  0  0  0  0  0  0  0  0  0  0  0
  160.7130  206.5610  146.6640 C   0  0  0  0  0  3  0  0  0  0  0  0
  161.8460  202.6030  147.4190 O   0  0  0  0  0  0  0  0  0  0  0  0
  161.6150  204.4500  145.9280 C   0  0  0  0  0  3  0  0  0  0  0  0
  161.4510  205.2770  150.7120 C   0  0  0  0  0  0  0  0  0  0  0  0
  161.0680  204.7620  148.2790 C   0  0  0  0  0  0  0  0  0  0  0  0
  161.5180  203.9390  147.2270 C   0  0  0  0  0  0  0  0  0  0  0  0
  161.3680  204.9330  152.0670 C   0  0  0  0  0  3  0  0  0  0  0  0
  161.1060  204.3290  149.7080 C   0  0  0  0  0  0  0  0  0  0  0  0
  161.8920  206.5560  150.3560 O   0  0  0  0  0  0  0  0  0  0  0  0
  162.3780  207.4460  151.2890 N   0  0  0  0  0  2  0  0  0  0  0  0
  161.5320  208.6260  151.2280 C   0  0  1  0  0  3  0  0  0  0  0  0
  160.4960  208.1230  154.9350 C   0  0  0  0  0  1  0  0  0  0  0  0
  160.8590  208.8350  152.5450 C   0  0  0  0  0  0  0  0  0  0  0  0
  160.0600  209.8000  152.6830 O   0  0  0  0  0  0  0  0  0  0  0  0
  161.1240  207.9520  153.6360 N   0  0  0  0  0  2  0  0  0  0  0  0
  162.3620  209.8430  150.8420 C   0  0  0  0  0  2  0  0  0  0  0  0
  161.9400  211.6000  149.1230 O   0  0  0  0  0  1  0  0  0  0  0  0
  162.0720  210.2530  149.4390 C   0  0  0  0  0  0  0  0  0  0  0  0
  161.9740  209.3830  148.5370 O   0  0  0  0  0  0  0  0  0  0  0  0
  1  3  1  0  0  0  0
  2 10  2  0  0  0  0
  2  8  1  0  0  0  0
  4  7  2  0  0  0  0
  5  1  2  0  0  0  0
  6 12  1  0  0  0  0
  7  5  1  0  0  0  0
  8  6  2  0  0  0  0
  9  4  1  0  0  0  0
 10 13  1  0  0  0  0
 11 14  1  0  0  0  0
 12 15  1  0  0  0  0
 13  9  1  0  0  0  0
 13 12  2  0  0  0  0
 14  3  2  0  0  0  0
 15  5  1  0  0  0  0
 15 11  2  0  0  0  0
 16 11  1  0  0  0  0
 16 17  1  0  0  0  0
 18 23  1  1  0  0  0
 18 17  1  0  0  0  0
 18 20  1  0  0  0  0
 20 21  2  0  0  0  0
 20 22  1  0  0  0  0
 22 19  1  0  0  0  0
 24 25  1  0  0  0  0
 25 23  1  0  0  0  0
 26 25  2  0  0  0  0
M  END
>  <MODEL>
1

>  <REMARK>
 VINA RESULT:      -8.7      0.000      0.000
  Name = 
  6 active torsions:
  status: ('A' for Active; 'I' for Inactive)
    1  A    between atoms: C_8  and  C_20
    2  A    between atoms: C_14  and  O_16
    3  A    between atoms: C_15  and  C_24
    4  A    between atoms: O_16  and  N_18
    5  A    between atoms: N_18  and  C_24
    6  A    between atoms: C_20  and  C_24
                            x       y       z     vdW  Elec       q    Type
                         _______ _______ _______ _____ _____    ______ ____

>  <TORSDO>
F 6

$$$$
=
 OpenBabel11052409483D

 26 28  0  0  1  0  0  0  0  0999 V2000
  160.7120  202.9330  151.6430 C   0  0  0  0  0  3  0  0  0  0  0  0
  161.0650  205.7010  145.6560 C   0  0  0  0  0  3  0  0  0  0  0  0
  160.9310  203.9520  152.5620 C   0  0  0  0  0  3  0  0  0  0  0  0
  161.1200  201.7900  148.2670 C   0  0  0  0  0  3  0  0  0  0  0  0
  160.7900  203.1670  150.2660 C   0  0  0  0  0  0  0  0  0  0  0  0
  160.4570  206.0890  147.9570 C   0  0  0  0  0  3  0  0  0  0  0  0
  160.5950  202.0210  149.4280 N   0  0  0  0  0  0  0  0  0  0  0  0
  160.4960  206.5180  146.6310 C   0  0  0  0  0  3  0  0  0  0  0  0
  161.9250  202.7040  147.5960 O   0  0  0  0  0  0  0  0  0  0  0  0
  161.5630  204.4480  146.0090 C   0  0  0  0  0  3  0  0  0  0  0  0
  161.3030  205.5070  150.7420 C   0  0  0  0  0  0  0  0  0  0  0  0
  160.9780  204.8380  148.3390 C   0  0  0  0  0  0  0  0  0  0  0  0
  161.4960  203.9990  147.3320 C   0  0  0  0  0  0  0  0  0  0  0  0
  161.2370  205.2290  152.1130 C   0  0  0  0  0  3  0  0  0  0  0  0
  161.0390  204.4850  149.7880 C   0  0  0  0  0  0  0  0  0  0  0  0
  161.6470  206.7960  150.3210 O   0  0  0  0  0  0  0  0  0  0  0  0
  162.7200  207.4760  150.8550 N   0  0  0  0  0  2  0  0  0  0  0  0
  162.2790  208.8420  151.0890 C   0  0  1  0  0  3  0  0  0  0  0  0
  161.9010  211.7340  148.5280 C   0  0  0  0  0  1  0  0  0  0  0  0
  162.1670  209.5680  149.7880 C   0  0  0  0  0  0  0  0  0  0  0  0
  162.2180  208.9160  148.7110 O   0  0  0  0  0  0  0  0  0  0  0  0
  162.0080  210.9880  149.7700 N   0  0  0  0  0  2  0  0  0  0  0  0
  160.9460  208.8390  151.8270 C   0  0  0  0  0  2  0  0  0  0  0  0
  160.6920  208.5260  154.2870 O   0  0  0  0  0  1  0  0  0  0  0  0
  161.1200  209.3160  153.2270 C   0  0  0  0  0  0  0  0  0  0  0  0
  161.6790  210.4190  153.4520 O   0  0  0  0  0  0  0  0  0  0  0  0
  1  3  1  0  0  0  0
  2 10  2  0  0  0  0
  2  8  1  0  0  0  0
  4  7  2  0  0  0  0
  5  1  2  0  0  0  0
  6 12  1  0  0  0  0
  7  5  1  0  0  0  0
  8  6  2  0  0  0  0
  9  4  1  0  0  0  0
 10 13  1  0  0  0  0
 11 14  1  0  0  0  0
 12 15  1  0  0  0  0
 13  9  1  0  0  0  0
 13 12  2  0  0  0  0
 14  3  2  0  0  0  0
 15  5  1  0  0  0  0
 15 11  2  0  0  0  0
 16 11  1  0  0  0  0
 16 17  1  0  0  0  0
 17 18  1  0  0  0  0
 18 23  1  6  0  0  0
 19 22  1  0  0  0  0
 20 18  1  0  0  0  0
 21 20  2  0  0  0  0
 22 20  1  0  0  0  0
 23 25  1  0  0  0  0
 25 26  2  0  0  0  0
 25 24  1  0  0  0  0
M  END
>  <MODEL>
2

>  <REMARK>
 VINA RESULT:      -8.5      1.085      2.753
  Name = 
  6 active torsions:
  status: ('A' for Active; 'I' for Inactive)
    1  A    between atoms: C_8  and  C_20
    2  A    between atoms: C_14  and  O_16
    3  A    between atoms: C_15  and  C_24
    4  A    between atoms: O_16  and  N_18
    5  A    between atoms: N_18  and  C_24
    6  A    between atoms: C_20  and  C_24
                            x       y       z     vdW  Elec       q    Type
                         _______ _______ _______ _____ _____    ______ ____

>  <TORSDO>
F 6

$$$$
=
 OpenBabel11052409483D

 26 28  0  0  1  0  0  0  0  0999 V2000
  161.1360  203.5160  152.2350 C   0  0  0  0  0  3  0  0  0  0  0  0
  161.8520  209.8770  150.6060 C   0  0  0  0  0  3  0  0  0  0  0  0
  160.8950  202.8300  151.0500 C   0  0  0  0  0  3  0  0  0  0  0  0
  161.0780  206.6640  153.9520 C   0  0  0  0  0  3  0  0  0  0  0  0
  161.2660  204.9080  152.2550 C   0  0  0  0  0  0  0  0  0  0  0  0
  162.1810  207.6130  149.8410 C   0  0  0  0  0  3  0  0  0  0  0  0
  161.4620  205.4960  153.5470 N   0  0  0  0  0  0  0  0  0  0  0  0
  162.3600  208.9850  149.6640 C   0  0  0  0  0  3  0  0  0  0  0  0
  160.4600  207.5960  153.1250 O   0  0  0  0  0  0  0  0  0  0  0  0
  161.1950  209.3900  151.7350 C   0  0  0  0  0  3  0  0  0  0  0  0
  160.9180  204.9270  149.8370 C   0  0  0  0  0  0  0  0  0  0  0  0
  161.4970  207.1030  150.9610 C   0  0  0  0  0  0  0  0  0  0  0  0
  161.0410  208.0140  151.9350 C   0  0  0  0  0  0  0  0  0  0  0  0
  160.7730  203.5340  149.8600 C   0  0  0  0  0  3  0  0  0  0  0  0
  161.2100  205.6390  151.0340 C   0  0  0  0  0  0  0  0  0  0  0  0
  160.7570  205.6120  148.6290 O   0  0  0  0  0  0  0  0  0  0  0  0
  161.6600  205.4880  147.5940 N   0  0  0  0  0  2  0  0  0  0  0  0
  161.0230  204.6690  146.5750 C   0  0  1  0  0  3  0  0  0  0  0  0
  161.4980  205.8460  142.9070 C   0  0  0  0  0  1  0  0  0  0  0  0
  160.8680  205.4570  145.3160 C   0  0  0  0  0  0  0  0  0  0  0  0
  160.0630  206.4260  145.2900 O   0  0  0  0  0  0  0  0  0  0  0  0
  161.6230  205.1100  144.1540 N   0  0  0  0  0  2  0  0  0  0  0  0
  161.8450  203.4100  146.3300 C   0  0  0  0  0  2  0  0  0  0  0  0
  160.2290  201.9960  145.0620 O   0  0  0  0  0  0  0  0  0  0  0  0
  160.9580  202.2170  146.2240 C   0  0  0  0  0  0  0  0  0  0  0  0
  160.8910  201.3960  147.1730 O   0  0  0  0  0  1  0  0  0  0  0  0
  1  5  1  0  0  0  0
  2 10  1  0  0  0  0
  3  1  2  0  0  0  0
  5  7  1  0  0  0  0
  6 12  2  0  0  0  0
  7  4  2  0  0  0  0
  8  6  1  0  0  0  0
  8  2  2  0  0  0  0
  9  4  1  0  0  0  0
 10 13  2  0  0  0  0
 11 14  2  0  0  0  0
 11 15  1  0  0  0  0
 12 15  1  0  0  0  0
 12 13  1  0  0  0  0
 13  9  1  0  0  0  0
 14  3  1  0  0  0  0
 15  5  2  0  0  0  0
 16 11  1  0  0  0  0
 17 16  1  0  0  0  0
 18 23  1  6  0  0  0
 18 17  1  0  0  0  0
 19 22  1  0  0  0  0
 20 18  1  0  0  0  0
 21 20  2  0  0  0  0
 22 20  1  0  0  0  0
 24 25  2  0  0  0  0
 25 23  1  0  0  0  0
 25 26  1  0  0  0  0
M  END
>  <MODEL>
3

>  <REMARK>
 VINA RESULT:      -8.0      2.252      6.533
  Name = 
  6 active torsions:
  status: ('A' for Active; 'I' for Inactive)
    1  A    between atoms: C_8  and  C_20
    2  A    between atoms: C_14  and  O_16
    3  A    between atoms: C_15  and  C_24
    4  A    between atoms: O_16  and  N_18
    5  A    between atoms: N_18  and  C_24
    6  A    between atoms: C_20  and  C_24
                            x       y       z     vdW  Elec       q    Type
                         _______ _______ _______ _____ _____    ______ ____

>  <TORSDO>
F 6

$$$$
=
 OpenBabel11052409483D

 26 28  0  0  1  0  0  0  0  0999 V2000
  161.5000  209.8070  151.4490 C   0  0  0  0  0  3  0  0  0  0  0  0
  160.6550  203.2640  151.7780 C   0  0  0  0  0  3  0  0  0  0  0  0
  161.9190  210.0860  150.1530 C   0  0  0  0  0  3  0  0  0  0  0  0
  161.1860  207.3500  154.0440 C   0  0  0  0  0  3  0  0  0  0  0  0
  161.2960  208.4910  151.8800 C   0  0  0  0  0  0  0  0  0  0  0  0
  160.5400  205.1800  150.3180 C   0  0  0  0  0  3  0  0  0  0  0  0
  160.9140  208.3380  153.2520 N   0  0  0  0  0  0  0  0  0  0  0  0
  160.3120  203.8230  150.5490 C   0  0  0  0  0  3  0  0  0  0  0  0
  161.8490  206.1990  153.6330 O   0  0  0  0  0  0  0  0  0  0  0  0
  161.1950  204.0710  152.7790 C   0  0  0  0  0  3  0  0  0  0  0  0
  161.9330  207.7150  149.6530 C   0  0  0  0  0  0  0  0  0  0  0  0
  161.1090  206.0060  151.3050 C   0  0  0  0  0  0  0  0  0  0  0  0
  161.3960  205.4390  152.5630 C   0  0  0  0  0  0  0  0  0  0  0  0
  162.1460  209.0440  149.2650 C   0  0  0  0  0  3  0  0  0  0  0  0
  161.4610  207.4160  150.9620 C   0  0  0  0  0  0  0  0  0  0  0  0
  162.2020  206.6850  148.7460 O   0  0  0  0  0  0  0  0  0  0  0  0
  162.0100  206.8390  147.3900 N   0  0  0  0  0  2  0  0  0  0  0  0
  161.3430  205.6360  146.9190 C   0  0  1  0  0  3  0  0  0  0  0  0
  161.4300  205.7690  143.0410 C   0  0  0  0  0  1  0  0  0  0  0  0
  160.9010  205.8220  145.5040 C   0  0  0  0  0  0  0  0  0  0  0  0
  159.7130  206.1670  145.2690 O   0  0  0  0  0  0  0  0  0  0  0  0
  161.8190  205.6050  144.4310 N   0  0  0  0  0  2  0  0  0  0  0  0
  162.2770  204.4390  147.0440 C   0  0  0  0  0  2  0  0  0  0  0  0
  161.1680  202.6870  145.6600 O   0  0  0  0  0  0  0  0  0  0  0  0
  161.5170  203.1640  146.9170 C   0  0  0  0  0  0  0  0  0  0  0  0
  161.2160  202.5060  147.9450 O   0  0  0  0  0  1  0  0  0  0  0  0
  1  5  1  0  0  0  0
  2 10  1  0  0  0  0
  3  1  2  0  0  0  0
  5  7  1  0  0  0  0
  6  8  1  0  0  0  0
  6 12  2  0  0  0  0
  7  4  2  0  0  0  0
  8  2  2  0  0  0  0
  9  4  1  0  0  0  0
 11 15  1  0  0  0  0
 12 13  1  0  0  0  0
 13 10  2  0  0  0  0
 13  9  1  0  0  0  0
 14 11  2  0  0  0  0
 14  3  1  0  0  0  0
 15 12  1  0  0  0  0
 15  5  2  0  0  0  0
 16 11  1  0  0  0  0
 17 16  1  0  0  0  0
 18 23  1  6  0  0  0
 18 17  1  0  0  0  0
 19 22  1  0  0  0  0
 20 18  1  0  0  0  0
 21 20  2  0  0  0  0
 22 20  1  0  0  0  0
 24 25  2  0  0  0  0
 25 23  1  0  0  0  0
 25 26  1  0  0  0  0
M  END
>  <MODEL>
4

>  <REMARK>
 VINA RESULT:      -7.8      2.136      6.699
  Name = 
  6 active torsions:
  status: ('A' for Active; 'I' for Inactive)
    1  A    between atoms: C_8  and  C_20
    2  A    between atoms: C_14  and  O_16
    3  A    between atoms: C_15  and  C_24
    4  A    between atoms: O_16  and  N_18
    5  A    between atoms: N_18  and  C_24
    6  A    between atoms: C_20  and  C_24
                            x       y       z     vdW  Elec       q    Type
                         _______ _______ _______ _____ _____    ______ ____

>  <TORSDO>
F 6

$$$$
=
 OpenBabel11052409483D

 26 28  0  0  1  0  0  0  0  0999 V2000
  161.8510  204.4590  145.2710 C   0  0  0  0  0  3  0  0  0  0  0  0
  160.6320  201.9280  151.2490 C   0  0  0  0  0  3  0  0  0  0  0  0
  161.8720  205.8400  145.4240 C   0  0  0  0  0  3  0  0  0  0  0  0
  160.7690  201.3030  146.5900 C   0  0  0  0  0  3  0  0  0  0  0  0
  161.5450  203.6130  146.3420 C   0  0  0  0  0  0  0  0  0  0  0  0
  161.6660  203.7640  150.0760 C   0  0  0  0  0  3  0  0  0  0  0  0
  161.5080  202.2130  146.0390 N   0  0  0  0  0  0  0  0  0  0  0  0
  161.4210  203.0750  151.2640 C   0  0  0  0  0  3  0  0  0  0  0  0
  159.9230  201.5510  147.6650 O   0  0  0  0  0  0  0  0  0  0  0  0
  160.1180  201.4580  150.0410 C   0  0  0  0  0  3  0  0  0  0  0  0
  161.2910  205.5840  147.7620 C   0  0  0  0  0  0  0  0  0  0  0  0
  161.1350  203.3210  148.8500 C   0  0  0  0  0  0  0  0  0  0  0  0
  160.3880  202.1260  148.8410 C   0  0  0  0  0  0  0  0  0  0  0  0
  161.5810  206.3990  146.6600 C   0  0  0  0  0  3  0  0  0  0  0  0
  161.3090  204.1670  147.6320 C   0  0  0  0  0  0  0  0  0  0  0  0
  160.9690  206.1780  148.9870 O   0  0  0  0  0  0  0  0  0  0  0  0
  160.8620  207.5450  149.1290 N   0  0  0  0  0  2  0  0  0  0  0  0
  161.6960  207.9170  150.2600 C   0  0  1  0  0  3  0  0  0  0  0  0
  162.3320  211.4490  148.7810 C   0  0  0  0  0  1  0  0  0  0  0  0
  162.0570  209.3640  150.1690 C   0  0  0  0  0  0  0  0  0  0  0  0
  162.4110  209.9780  151.2100 O   0  0  0  0  0  0  0  0  0  0  0  0
  161.9950  210.0420  148.9130 N   0  0  0  0  0  2  0  0  0  0  0  0
  160.9680  207.6200  151.5650 C   0  0  0  0  0  2  0  0  0  0  0  0
  161.2490  206.2320  153.6170 O   0  0  0  0  0  1  0  0  0  0  0  0
  161.7590  206.6760  152.4040 C   0  0  0  0  0  0  0  0  0  0  0  0
  162.8750  206.2590  152.0010 O   0  0  0  0  0  0  0  0  0  0  0  0
  1  3  2  0  0  0  0
  1  5  1  0  0  0  0
  2  8  1  0  0  0  0
  3 14  1  0  0  0  0
  4  9  1  0  0  0  0
  5 15  2  0  0  0  0
  6  8  2  0  0  0  0
  7  5  1  0  0  0  0
  7  4  2  0  0  0  0
  9 13  1  0  0  0  0
 10  2  2  0  0  0  0
 11 16  1  0  0  0  0
 12  6  1  0  0  0  0
 13 12  2  0  0  0  0
 13 10  1  0  0  0  0
 14 11  2  0  0  0  0
 15 11  1  0  0  0  0
 15 12  1  0  0  0  0
 16 17  1  0  0  0  0
 17 18  1  0  0  0  0
 18 23  1  1  0  0  0
 19 22  1  0  0  0  0
 20 18  1  0  0  0  0
 20 21  2  0  0  0  0
 22 20  1  0  0  0  0
 23 25  1  0  0  0  0
 25 24  1  0  0  0  0
 26 25  2  0  0  0  0
M  END
>  <MODEL>
5

>  <REMARK>
 VINA RESULT:      -7.8      1.969      4.439
  Name = 
  6 active torsions:
  status: ('A' for Active; 'I' for Inactive)
    1  A    between atoms: C_8  and  C_20
    2  A    between atoms: C_14  and  O_16
    3  A    between atoms: C_15  and  C_24
    4  A    between atoms: O_16  and  N_18
    5  A    between atoms: N_18  and  C_24
    6  A    between atoms: C_20  and  C_24
                            x       y       z     vdW  Elec       q    Type
                         _______ _______ _______ _____ _____    ______ ____

>  <TORSDO>
F 6

$$$$
=
 OpenBabel11052409483D

 26 28  0  0  1  0  0  0  0  0999 V2000
  162.2450  209.4480  148.6940 C   0  0  0  0  0  3  0  0  0  0  0  0
  160.8870  203.5830  151.4130 C   0  0  0  0  0  3  0  0  0  0  0  0
  162.1210  210.3900  149.7070 C   0  0  0  0  0  3  0  0  0  0  0  0
  161.3900  206.1690  147.5170 C   0  0  0  0  0  3  0  0  0  0  0  0
  161.9530  208.0980  148.9170 C   0  0  0  0  0  0  0  0  0  0  0  0
  161.8120  205.7690  151.8390 C   0  0  0  0  0  3  0  0  0  0  0  0
  162.0710  207.2390  147.7770 N   0  0  0  0  0  0  0  0  0  0  0  0
  161.5580  204.4630  152.2580 C   0  0  0  0  0  3  0  0  0  0  0  0
  160.4550  205.6250  148.3920 O   0  0  0  0  0  0  0  0  0  0  0  0
  160.5010  204.0040  150.1410 C   0  0  0  0  0  3  0  0  0  0  0  0
  161.4150  208.6480  151.2360 C   0  0  0  0  0  0  0  0  0  0  0  0
  161.4090  206.2220  150.5680 C   0  0  0  0  0  0  0  0  0  0  0  0
  160.7830  205.3030  149.7020 C   0  0  0  0  0  0  0  0  0  0  0  0
  161.6960  209.9940  150.9670 C   0  0  0  0  0  3  0  0  0  0  0  0
  161.5790  207.6640  150.2200 C   0  0  0  0  0  0  0  0  0  0  0  0
  160.9570  208.2840  152.5060 O   0  0  0  0  0  0  0  0  0  0  0  0
  161.4860  208.8300  153.6560 N   0  0  0  0  0  2  0  0  0  0  0  0
  160.3950  209.5000  154.3450 C   0  0  1  0  0  3  0  0  0  0  0  0
  160.0840  206.9490  157.2540 C   0  0  0  0  0  1  0  0  0  0  0  0
  160.2490  208.9440  155.7240 C   0  0  0  0  0  0  0  0  0  0  0  0
  160.1590  209.7340  156.7010 O   0  0  0  0  0  0  0  0  0  0  0  0
  160.2180  207.5310  155.9290 N   0  0  0  0  0  2  0  0  0  0  0  0
  160.6500  211.0010  154.3880 C   0  0  0  0  0  2  0  0  0  0  0  0
  158.7640  211.0790  152.7580 O   0  0  0  0  0  0  0  0  0  0  0  0
  159.5630  211.7380  153.6830 C   0  0  0  0  0  0  0  0  0  0  0  0
  159.3510  212.9490  153.9470 O   0  0  0  0  0  1  0  0  0  0  0  0
  1  5  2  0  0  0  0
  1  3  1  0  0  0  0
  2  8  1  0  0  0  0
  3 14  2  0  0  0  0
  4  7  2  0  0  0  0
  4  9  1  0  0  0  0
  5 15  1  0  0  0  0
  6  8  2  0  0  0  0
  7  5  1  0  0  0  0
  9 13  1  0  0  0  0
 10  2  2  0  0  0  0
 11 16  1  0  0  0  0
 12  6  1  0  0  0  0
 13 10  1  0  0  0  0
 13 12  2  0  0  0  0
 14 11  1  0  0  0  0
 15 12  1  0  0  0  0
 15 11  2  0  0  0  0
 16 17  1  0  0  0  0
 17 18  1  0  0  0  0
 18 23  1  1  0  0  0
 18 20  1  0  0  0  0
 20 22  1  0  0  0  0
 20 21  2  0  0  0  0
 22 19  1  0  0  0  0
 24 25  2  0  0  0  0
 25 26  1  0  0  0  0
 25 23  1  0  0  0  0
M  END
>  <MODEL>
6

>  <REMARK>
 VINA RESULT:      -7.4      2.331      4.658
  Name = 
  6 active torsions:
  status: ('A' for Active; 'I' for Inactive)
    1  A    between atoms: C_8  and  C_20
    2  A    between atoms: C_14  and  O_16
    3  A    between atoms: C_15  and  C_24
    4  A    between atoms: O_16  and  N_18
    5  A    between atoms: N_18  and  C_24
    6  A    between atoms: C_20  and  C_24
                            x       y       z     vdW  Elec       q    Type
                         _______ _______ _______ _____ _____    ______ ____

>  <TORSDO>
F 6

$$$$
=
 OpenBabel11052409483D

 26 28  0  0  1  0  0  0  0  0999 V2000
  162.2170  209.5390  148.6890 C   0  0  0  0  0  3  0  0  0  0  0  0
  160.8720  203.9570  151.9560 C   0  0  0  0  0  3  0  0  0  0  0  0
  162.1230  210.5700  149.6150 C   0  0  0  0  0  3  0  0  0  0  0  0
  161.3100  206.1750  147.8320 C   0  0  0  0  0  3  0  0  0  0  0  0
  161.9190  208.2180  149.0390 C   0  0  0  0  0  0  0  0  0  0  0  0
  161.8240  206.1640  152.1620 C   0  0  0  0  0  3  0  0  0  0  0  0
  162.0060  207.2580  147.9790 N   0  0  0  0  0  0  0  0  0  0  0  0
  161.5690  204.9040  152.7030 C   0  0  0  0  0  3  0  0  0  0  0  0
  160.3910  205.7230  148.7720 O   0  0  0  0  0  0  0  0  0  0  0  0
  160.4620  204.2660  150.6590 C   0  0  0  0  0  3  0  0  0  0  0  0
  161.4360  208.9800  151.3100 C   0  0  0  0  0  0  0  0  0  0  0  0
  161.3970  206.5040  150.8650 C   0  0  0  0  0  0  0  0  0  0  0  0
  160.7450  205.5160  150.0990 C   0  0  0  0  0  0  0  0  0  0  0  0
  161.7220  210.2930  150.9150 C   0  0  0  0  0  3  0  0  0  0  0  0
  161.5710  207.9070  150.3840 C   0  0  0  0  0  0  0  0  0  0  0  0
  161.0040  208.7370  152.6170 O   0  0  0  0  0  0  0  0  0  0  0  0
  160.3390  209.6920  153.3550 N   0  0  0  0  0  2  0  0  0  0  0  0
  160.6540  209.4400  154.7520 C   0  0  1  0  0  3  0  0  0  0  0  0
  157.8220  211.5570  156.3540 C   0  0  0  0  0  1  0  0  0  0  0  0
  159.9570  210.4400  155.6160 C   0  0  0  0  0  0  0  0  0  0  0  0
  160.6300  211.1340  156.4240 O   0  0  0  0  0  0  0  0  0  0  0  0
  158.5400  210.6010  155.5280 N   0  0  0  0  0  2  0  0  0  0  0  0
  160.2500  208.0200  155.1290 C   0  0  0  0  0  2  0  0  0  0  0  0
  162.0760  208.0950  156.8250 O   0  0  0  0  0  0  0  0  0  0  0  0
  160.8120  207.6510  156.4590 C   0  0  0  0  0  0  0  0  0  0  0  0
  160.1310  206.9620  157.2600 O   0  0  0  0  0  1  0  0  0  0  0  0
  1  5  2  0  0  0  0
  1  3  1  0  0  0  0
  2  8  1  0  0  0  0
  3 14  2  0  0  0  0
  4  7  2  0  0  0  0
  4  9  1  0  0  0  0
  5 15  1  0  0  0  0
  6  8  2  0  0  0  0
  7  5  1  0  0  0  0
  9 13  1  0  0  0  0
 10  2  2  0  0  0  0
 11 16  1  0  0  0  0
 12  6  1  0  0  0  0
 13 10  1  0  0  0  0
 13 12  2  0  0  0  0
 14 11  1  0  0  0  0
 15 12  1  0  0  0  0
 15 11  2  0  0  0  0
 16 17  1  0  0  0  0
 17 18  1  0  0  0  0
 18 23  1  1  0  0  0
 18 20  1  0  0  0  0
 20 21  2  0  0  0  0
 22 20  1  0  0  0  0
 22 19  1  0  0  0  0
 23 25  1  0  0  0  0
 25 24  2  0  0  0  0
 25 26  1  0  0  0  0
M  END
>  <MODEL>
7

>  <REMARK>
 VINA RESULT:      -7.3      2.440      5.407
  Name = 
  6 active torsions:
  status: ('A' for Active; 'I' for Inactive)
    1  A    between atoms: C_8  and  C_20
    2  A    between atoms: C_14  and  O_16
    3  A    between atoms: C_15  and  C_24
    4  A    between atoms: O_16  and  N_18
    5  A    between atoms: N_18  and  C_24
    6  A    between atoms: C_20  and  C_24
                            x       y       z     vdW  Elec       q    Type
                         _______ _______ _______ _____ _____    ______ ____

>  <TORSDO>
F 6

$$$$
=
 OpenBabel11052409483D

 26 28  0  0  1  0  0  0  0  0999 V2000
  161.5630  209.8600  150.6470 C   0  0  0  0  0  3  0  0  0  0  0  0
  160.6680  203.4920  152.1590 C   0  0  0  0  0  3  0  0  0  0  0  0
  161.9770  209.8960  149.3210 C   0  0  0  0  0  3  0  0  0  0  0  0
  161.2440  207.9170  153.6460 C   0  0  0  0  0  3  0  0  0  0  0  0
  161.3520  208.6460  151.3100 C   0  0  0  0  0  0  0  0  0  0  0  0
  160.5600  205.1130  150.3760 C   0  0  0  0  0  3  0  0  0  0  0  0
  160.9760  208.7470  152.6890 N   0  0  0  0  0  0  0  0  0  0  0  0
  160.3220  203.8230  150.8510 C   0  0  0  0  0  3  0  0  0  0  0  0
  161.8960  206.7050  153.4470 O   0  0  0  0  0  0  0  0  0  0  0  0
  161.2200  204.4620  152.9950 C   0  0  0  0  0  3  0  0  0  0  0  0
  161.9700  207.4740  149.2580 C   0  0  0  0  0  0  0  0  0  0  0  0
  161.1410  206.1000  151.1960 C   0  0  0  0  0  0  0  0  0  0  0  0
  161.4300  205.7670  152.5340 C   0  0  0  0  0  0  0  0  0  0  0  0
  162.1910  208.7080  148.6350 C   0  0  0  0  0  3  0  0  0  0  0  0
  161.5030  207.4210  150.6010 C   0  0  0  0  0  0  0  0  0  0  0  0
  162.2250  206.2940  148.5510 O   0  0  0  0  0  0  0  0  0  0  0  0
  161.5490  205.9770  147.3930 N   0  0  0  0  0  2  0  0  0  0  0  0
  162.3440  204.9740  146.7020 C   0  0  1  0  0  3  0  0  0  0  0  0
  160.5300  201.7680  145.4800 C   0  0  0  0  0  1  0  0  0  0  0  0
  161.6340  203.6600  146.7250 C   0  0  0  0  0  0  0  0  0  0  0  0
  161.4090  203.0990  147.8300 O   0  0  0  0  0  0  0  0  0  0  0  0
  161.2180  203.0470  145.5030 N   0  0  0  0  0  2  0  0  0  0  0  0
  162.6160  205.4200  145.2710 C   0  0  0  0  0  2  0  0  0  0  0  0
  160.2890  206.3160  145.2440 O   0  0  0  0  0  1  0  0  0  0  0  0
  161.3400  205.7150  144.5610 C   0  0  0  0  0  0  0  0  0  0  0  0
  161.2220  205.4450  143.3390 O   0  0  0  0  0  0  0  0  0  0  0  0
  1  5  1  0  0  0  0
  2 10  1  0  0  0  0
  3  1  2  0  0  0  0
  5  7  1  0  0  0  0
  6  8  1  0  0  0  0
  6 12  2  0  0  0  0
  7  4  2  0  0  0  0
  8  2  2  0  0  0  0
  9  4  1  0  0  0  0
 11 15  1  0  0  0  0
 12 13  1  0  0  0  0
 13 10  2  0  0  0  0
 13  9  1  0  0  0  0
 14 11  2  0  0  0  0
 14  3  1  0  0  0  0
 15 12  1  0  0  0  0
 15  5  2  0  0  0  0
 16 11  1  0  0  0  0
 17 16  1  0  0  0  0
 18 23  1  6  0  0  0
 18 20  1  0  0  0  0
 18 17  1  0  0  0  0
 19 22  1  0  0  0  0
 20 21  2  0  0  0  0
 22 20  1  0  0  0  0
 25 24  1  0  0  0  0
 25 23  1  0  0  0  0
 26 25  2  0  0  0  0
M  END
>  <MODEL>
8

>  <REMARK>
 VINA RESULT:      -7.1      2.198      6.579
  Name = 
  6 active torsions:
  status: ('A' for Active; 'I' for Inactive)
    1  A    between atoms: C_8  and  C_20
    2  A    between atoms: C_14  and  O_16
    3  A    between atoms: C_15  and  C_24
    4  A    between atoms: O_16  and  N_18
    5  A    between atoms: N_18  and  C_24
    6  A    between atoms: C_20  and  C_24
                            x       y       z     vdW  Elec       q    Type
                         _______ _______ _______ _____ _____    ______ ____

>  <TORSDO>
F 6

$$$$
=
 OpenBabel11052409483D

 26 28  0  0  1  0  0  0  0  0999 V2000
  161.1060  204.3180  153.1460 C   0  0  0  0  0  3  0  0  0  0  0  0
  162.2210  208.9210  148.5410 C   0  0  0  0  0  3  0  0  0  0  0  0
  160.8320  203.1370  152.4650 C   0  0  0  0  0  3  0  0  0  0  0  0
  161.2270  207.9010  153.0230 C   0  0  0  0  0  3  0  0  0  0  0  0
  161.3200  205.5180  152.4610 C   0  0  0  0  0  0  0  0  0  0  0  0
  162.4170  206.5700  149.0440 C   0  0  0  0  0  3  0  0  0  0  0  0
  161.5430  206.6720  153.2810 N   0  0  0  0  0  0  0  0  0  0  0  0
  162.6810  207.6500  148.2020 C   0  0  0  0  0  3  0  0  0  0  0  0
  160.6740  208.3110  151.8150 O   0  0  0  0  0  0  0  0  0  0  0  0
  161.5270  209.1090  149.7360 C   0  0  0  0  0  3  0  0  0  0  0  0
  160.9920  204.3210  150.3570 C   0  0  0  0  0  0  0  0  0  0  0  0
  161.6950  206.7340  150.2420 C   0  0  0  0  0  0  0  0  0  0  0  0
  161.2880  208.0350  150.6000 C   0  0  0  0  0  0  0  0  0  0  0  0
  160.7630  203.1430  151.0790 C   0  0  0  0  0  3  0  0  0  0  0  0
  161.3180  205.5280  151.0370 C   0  0  0  0  0  0  0  0  0  0  0  0
  160.8830  204.3020  148.9630 O   0  0  0  0  0  0  0  0  0  0  0  0
  160.6260  203.1410  148.2670 N   0  0  0  0  0  2  0  0  0  0  0  0
  161.3420  203.2380  147.0050 C   0  0  1  0  0  3  0  0  0  0  0  0
  160.8990  199.5950  145.7400 C   0  0  0  0  0  1  0  0  0  0  0  0
  160.9810  202.0840  146.1280 C   0  0  0  0  0  0  0  0  0  0  0  0
  160.4460  202.3030  145.0090 O   0  0  0  0  0  0  0  0  0  0  0  0
  161.2390  200.7460  146.5590 N   0  0  0  0  0  2  0  0  0  0  0  0
  161.0180  204.5610  146.3230 C   0  0  0  0  0  2  0  0  0  0  0  0
  163.4740  204.8570  146.0110 O   0  0  0  0  0  1  0  0  0  0  0  0
  162.1840  205.0420  145.5300 C   0  0  0  0  0  0  0  0  0  0  0  0
  162.0020  205.5910  144.4140 O   0  0  0  0  0  0  0  0  0  0  0  0
  2 10  1  0  0  0  0
  3  1  1  0  0  0  0
  4  7  2  0  0  0  0
  5  1  2  0  0  0  0
  5  7  1  0  0  0  0
  6 12  2  0  0  0  0
  8  2  2  0  0  0  0
  8  6  1  0  0  0  0
  9  4  1  0  0  0  0
 10 13  2  0  0  0  0
 11 15  2  0  0  0  0
 11 14  1  0  0  0  0
 12 13  1  0  0  0  0
 12 15  1  0  0  0  0
 13  9  1  0  0  0  0
 14  3  2  0  0  0  0
 15  5  1  0  0  0  0
 16 11  1  0  0  0  0
 17 16  1  0  0  0  0
 18 23  1  6  0  0  0
 18 17  1  0  0  0  0
 19 22  1  0  0  0  0
 20 22  1  0  0  0  0
 20 18  1  0  0  0  0
 21 20  2  0  0  0  0
 25 24  1  0  0  0  0
 25 23  1  0  0  0  0
 26 25  2  0  0  0  0
M  END
>  <MODEL>
9

>  <REMARK>
 VINA RESULT:      -7.0      1.930      6.251
  Name = 
  6 active torsions:
  status: ('A' for Active; 'I' for Inactive)
    1  A    between atoms: C_8  and  C_20
    2  A    between atoms: C_14  and  O_16
    3  A    between atoms: C_15  and  C_24
    4  A    between atoms: O_16  and  N_18
    5  A    between atoms: N_18  and  C_24
    6  A    between atoms: C_20  and  C_24
                            x       y       z     vdW  Elec       q    Type
                         _______ _______ _______ _____ _____    ______ ____

>  <TORSDO>
F 6

$$$$
