=
 OpenBabel11052409473D

 63 69  0  0  1  0  0  0  0  0999 V2000
  162.2280  206.5800  149.0310 C   0  0  1  0  0  3  0  0  0  0  0  0
  161.8420  208.0170  148.6190 C   0  0  0  0  0  2  0  0  0  0  0  0
  162.0610  208.7880  149.8650 C   0  0  2  0  0  3  0  0  0  0  0  0
  161.3770  209.7140  151.8410 C   0  0  0  0  0  0  0  0  0  0  0  0
  161.9120  208.5620  152.1090 N   0  0  0  0  0  0  0  0  0  0  0  0
  162.3620  208.0300  150.8720 C   0  0  1  0  0  3  0  0  0  0  0  0
  161.2820  209.9570  150.3530 C   0  0  1  0  0  3  0  0  0  0  0  0
  162.4780  206.5950  150.5450 C   0  0  0  0  0  2  0  0  0  0  0  0
  161.1680  205.5370  148.6310 C   0  0  1  0  0  3  0  0  0  0  0  0
  160.8710  205.4810  147.1110 C   0  0  1  0  0  3  0  0  0  0  0  0
  161.0450  206.7310  146.5090 O   0  0  0  0  0  1  0  0  0  0  0  0
  161.7440  204.4820  146.4210 C   0  0  0  0  0  0  0  0  0  0  0  0
  161.1210  203.3050  145.7500 C   0  0  0  0  0  1  0  0  0  0  0  0
  162.9550  204.6450  146.3670 O   0  0  0  0  0  0  0  0  0  0  0  0
  161.4590  204.1770  149.2770 C   0  0  0  0  0  2  0  0  0  0  0  0
  160.1950  203.3790  149.5870 C   0  0  0  0  0  1  0  0  0  0  0  0
  161.9150  211.2700  149.9170 C   0  0  0  0  0  2  0  0  0  0  0  0
  160.6580  213.0280  148.5650 C   0  0  0  0  0  0  0  0  0  0  0  0
  159.7020  214.0610  148.5130 C   0  0  0  0  0  3  0  0  0  0  0  0
  160.1890  212.7670  150.9320 C   0  0  0  0  0  3  0  0  0  0  0  0
  160.8800  212.3540  149.7870 C   0  0  0  0  0  0  0  0  0  0  0  0
  159.2360  213.7850  150.8670 C   0  0  0  0  0  3  0  0  0  0  0  0
  158.9940  214.4340  149.6540 C   0  0  0  0  0  3  0  0  0  0  0  0
  161.4660  212.7260  147.3700 C   0  0  0  0  0  3  0  0  0  0  0  0
  161.0270  213.0180  146.1850 N   0  0  0  0  0  0  0  0  0  0  0  0
  161.8170  212.7340  145.0660 N   0  0  0  0  0  2  0  0  0  0  0  0
  161.5460  213.3390  143.8390 N   0  0  0  0  0  2  0  0  0  0  0  0
  162.3690  212.6630  142.8410 C   0  0  0  0  0  2  0  0  0  0  0  0
  162.2980  213.4010  141.5050 C   0  0  2  0  0  3  0  0  0  0  0  0
  161.2910  214.4490  141.5640 N   0  0  0  0  0  1  0  0  0  0  0  0
  162.0130  212.4800  140.3100 C   0  0  0  0  0  2  0  0  0  0  0  0
  159.7600  210.1970  138.6590 C   0  0  0  0  0  0  0  0  0  0  0  0
  162.2880  210.1660  139.9470 C   0  0  0  0  0  2  0  0  0  0  0  0
  158.4330  210.5620  139.0710 N   0  0  0  0  0  2  0  0  0  0  0  0
  159.9290  209.4900  137.6320 O   0  0  0  0  0  0  0  0  0  0  0  0
  160.8720  210.4440  139.5210 N   0  0  0  0  0  0  0  0  0  0  0  0
  161.5620  211.0750  140.6940 C   0  0  2  0  0  3  0  0  0  0  0  0
  154.4150  211.0620  138.4190 C   0  0  1  0  0  3  0  0  0  0  0  0
  157.2100  210.1520  138.3620 C   0  0  2  0  0  0  0  0  0  0  0  0
  157.5810  208.9680  137.4830 C   0  0  0  0  0  1  0  0  0  0  0  0
  154.9730  209.6660  138.7020 C   0  0  0  0  0  2  0  0  0  0  0  0
  153.7550  211.6020  139.6640 C   0  0  0  0  0  1  0  0  0  0  0  0
  156.7360  211.2910  137.4090 C   0  0  0  0  0  2  0  0  0  0  0  0
  155.5150  212.0350  137.9700 C   0  0  0  0  0  2  0  0  0  0  0  0
  156.2380  209.7600  139.3220 O   0  0  0  0  0  0  0  0  0  0  0  0
  160.5970  210.4830  152.8630 C   0  0  0  0  0  2  0  0  0  0  0  0
  159.9750  209.2860  154.9560 C   0  0  0  0  0  2  0  0  0  0  0  0
  157.7080  210.2970  155.2250 C   0  0  0  0  0  1  0  0  0  0  0  0
  161.0570  211.4120  155.1180 C   0  0  1  0  0  3  0  0  0  0  0  0
  159.1200  210.2220  155.7850 C   0  0  2  0  0  3  0  0  0  0  0  0
  161.0230  210.1500  154.2920 C   0  0  2  0  0  3  0  0  0  0  0  0
  159.7330  211.5510  155.7680 N   0  0  0  0  0  0  0  0  0  0  0  0
  163.0620  210.4950  155.4690 C   0  0  0  0  0  1  0  0  0  0  0  0
  162.1080  211.3380  156.0460 O   0  0  0  0  0  0  0  0  0  0  0  0
  159.8730  211.9700  157.1060 N   0  0  0  0  0  2  0  0  0  0  0  0
  159.6100  213.4060  157.1420 C   0  0  0  0  0  2  0  0  0  0  0  0
  157.4020  213.7140  154.1790 C   0  0  0  0  0  2  0  0  0  0  0  0
  155.9130  214.0330  154.3020 C   0  0  0  0  0  2  0  0  0  0  0  0
  155.8720  213.4850  156.6930 O   0  0  0  0  0  0  0  0  0  0  0  0
  155.4830  214.4500  155.7130 C   0  0  0  0  0  2  0  0  0  0  0  0
  158.2550  214.4530  155.2180 C   0  0  0  0  0  2  0  0  0  0  0  0
  157.1880  213.2580  157.1290 C   0  0  0  0  0  3  0  0  0  0  0  0
  158.2900  213.6920  156.5060 C   0  0  0  0  0  0  0  0  0  0  0  0
  1  9  1  1  0  0  0
  1  8  1  0  0  0  0
  2  1  1  0  0  0  0
  3  2  1  6  0  0  0
  3  7  1  0  0  0  0
  3  6  1  0  0  0  0
  4  5  2  0  0  0  0
  4 46  1  0  0  0  0
  6  8  1  6  0  0  0
  6  5  1  0  0  0  0
  7 17  1  1  0  0  0
  7  4  1  0  0  0  0
  9 15  1  6  0  0  0
 10 11  1  6  0  0  0
 10  9  1  0  0  0  0
 12 10  1  0  0  0  0
 13 12  1  0  0  0  0
 14 12  2  0  0  0  0
 15 16  1  0  0  0  0
 18 21  1  0  0  0  0
 19 18  2  0  0  0  0
 19 23  1  0  0  0  0
 21 17  1  0  0  0  0
 21 20  2  0  0  0  0
 22 20  1  0  0  0  0
 23 22  2  0  0  0  0
 24 18  1  0  0  0  0
 25 24  2  0  0  0  0
 26 25  1  0  0  0  0
 27 26  1  0  0  0  0
 28 27  1  0  0  0  0
 29 30  1  1  0  0  0
 29 28  1  0  0  0  0
 31 29  1  0  0  0  0
 32 34  1  0  0  0  0
 32 36  1  0  0  0  0
 33 37  1  0  0  0  0
 35 32  2  0  0  0  0
 36 33  1  0  0  0  0
 36 37  1  0  0  0  0
 37 31  1  6  0  0  0
 38 41  1  0  0  0  0
 38 42  1  1  0  0  0
 39 40  1  6  0  0  0
 39 34  1  0  0  0  0
 39 45  1  0  0  0  0
 41 45  1  0  0  0  0
 43 44  1  0  0  0  0
 43 39  1  0  0  0  0
 44 38  1  0  0  0  0
 47 50  1  0  0  0  0
 49 52  1  0  0  0  0
 49 54  1  1  0  0  0
 50 48  1  6  0  0  0
 51 46  1  6  0  0  0
 51 47  1  0  0  0  0
 51 49  1  0  0  0  0
 52 50  1  0  0  0  0
 52 55  1  0  0  0  0
 53 54  1  0  0  0  0
 55 56  1  0  0  0  0
 57 58  1  0  0  0  0
 57 61  1  0  0  0  0
 58 60  1  0  0  0  0
 59 62  1  0  0  0  0
 60 59  1  0  0  0  0
 61 63  1  0  0  0  0
 63 62  2  0  0  0  0
 63 56  1  0  0  0  0
M  END
>  <MODEL>
1

>  <REMARK>
 VINA RESULT:      -6.0      0.000      0.000
  Name = 
  20 active torsions:
  status: ('A' for Active; 'I' for Inactive)
    1  A    between atoms: C_1  and  C_15
    2  A    between atoms: C_1  and  C_41
    3  A    between atoms: C_6  and  C_14
    4  A    between atoms: C_8  and  C_28
    5  A    between atoms: N_12  and  N_16
    6  A    between atoms: N_12  and  C_61
    7  A    between atoms: C_15  and  C_61
    8  A    between atoms: N_16  and  N_20
    9  A    between atoms: C_17  and  N_27
   10  A    between atoms: C_18  and  C_28
   11  A    between atoms: C_23  and  O_50
   12  A    between atoms: C_28  and  C_42
   13  A    between atoms: C_31  and  C_32
   14  A    between atoms: C_31  and  C_59
   15  A    between atoms: C_33  and  C_42
   16  A    between atoms: C_34  and  C_43
   17  A    between atoms: C_34  and  C_52
   18  A    between atoms: N_40  and  N_49
   19  A    between atoms: N_40  and  C_51
   20  A    between atoms: C_51  and  C_54
                            x       y       z     vdW  Elec       q    Type
                         _______ _______ _______ _____ _____    ______ ____

>  <TORSDO>
F 20

$$$$
=
 OpenBabel11052409473D

 63 69  0  0  1  0  0  0  0  0999 V2000
  159.1910  212.7510  155.3120 C   0  0  1  0  0  3  0  0  0  0  0  0
  160.0880  211.8240  154.4640 C   0  0  0  0  0  2  0  0  0  0  0  0
  160.1420  212.5200  153.1570 C   0  0  2  0  0  3  0  0  0  0  0  0
  159.4170  212.9240  151.0270 C   0  0  0  0  0  0  0  0  0  0  0  0
  158.8620  213.8020  151.8060 N   0  0  0  0  0  0  0  0  0  0  0  0
  159.3610  213.5530  153.1120 C   0  0  1  0  0  3  0  0  0  0  0  0
  160.2100  211.9030  151.8050 C   0  0  1  0  0  3  0  0  0  0  0  0
  158.6470  213.8360  154.3730 C   0  0  0  0  0  2  0  0  0  0  0  0
  158.0630  211.9940  156.0360 C   0  0  1  0  0  3  0  0  0  0  0  0
  156.9350  211.4860  155.1040 C   0  0  1  0  0  3  0  0  0  0  0  0
  156.3300  210.3330  155.6130 O   0  0  0  0  0  1  0  0  0  0  0  0
  155.8880  212.5330  154.8940 C   0  0  0  0  0  0  0  0  0  0  0  0
  155.5210  213.4380  156.0220 C   0  0  0  0  0  1  0  0  0  0  0  0
  155.3640  212.6800  153.7990 O   0  0  0  0  0  0  0  0  0  0  0  0
  158.6310  210.9350  156.9900 C   0  0  0  0  0  2  0  0  0  0  0  0
  160.1560  210.8960  157.0020 C   0  0  0  0  0  1  0  0  0  0  0  0
  161.6480  211.7660  151.3270 C   0  0  0  0  0  2  0  0  0  0  0  0
  161.7360  209.3400  150.5460 C   0  0  0  0  0  0  0  0  0  0  0  0
  161.8880  208.4090  149.5000 C   0  0  0  0  0  3  0  0  0  0  0  0
  161.9980  211.1350  148.9330 C   0  0  0  0  0  3  0  0  0  0  0  0
  161.7630  210.7220  150.2500 C   0  0  0  0  0  0  0  0  0  0  0  0
  162.1360  210.2040  147.9020 C   0  0  0  0  0  3  0  0  0  0  0  0
  162.0820  208.8380  148.1880 C   0  0  0  0  0  3  0  0  0  0  0  0
  161.6380  208.8610  151.9360 C   0  0  0  0  0  3  0  0  0  0  0  0
  160.6340  208.1310  152.3140 N   0  0  0  0  0  0  0  0  0  0  0  0
  160.5680  207.6770  153.6340 N   0  0  0  0  0  2  0  0  0  0  0  0
  161.1170  206.4430  153.9840 N   0  0  0  0  0  2  0  0  0  0  0  0
  162.4350  206.3730  153.3640 C   0  0  0  0  0  2  0  0  0  0  0  0
  162.5060  205.1920  152.3960 C   0  0  2  0  0  3  0  0  0  0  0  0
  162.4620  205.6680  151.0220 N   0  0  0  0  0  1  0  0  0  0  0  0
  161.3980  204.1520  152.6160 C   0  0  0  0  0  2  0  0  0  0  0  0
  161.0910  203.5500  149.0720 C   0  0  0  0  0  0  0  0  0  0  0  0
  159.6590  203.0460  151.4700 C   0  0  0  0  0  2  0  0  0  0  0  0
  161.5500  204.7420  148.4140 N   0  0  0  0  0  2  0  0  0  0  0  0
  161.0170  202.4680  148.4360 O   0  0  0  0  0  0  0  0  0  0  0  0
  160.5140  203.6290  150.3770 N   0  0  0  0  0  0  0  0  0  0  0  0
  160.2030  204.3000  151.6820 C   0  0  2  0  0  3  0  0  0  0  0  0
  160.4800  204.6300  144.4560 C   0  0  1  0  0  3  0  0  0  0  0  0
  161.9480  204.7980  146.9980 C   0  0  2  0  0  0  0  0  0  0  0  0
  163.4640  204.9170  146.9660 C   0  0  0  0  0  1  0  0  0  0  0  0
  161.6230  203.7480  144.9620 C   0  0  0  0  0  2  0  0  0  0  0  0
  159.2370  203.7930  144.2830 C   0  0  0  0  0  1  0  0  0  0  0  0
  161.3800  206.0890  146.3330 C   0  0  0  0  0  2  0  0  0  0  0  0
  160.1800  205.7830  145.4250 C   0  0  0  0  0  2  0  0  0  0  0  0
  161.5410  203.5940  146.3640 O   0  0  0  0  0  0  0  0  0  0  0  0
  158.9750  212.7330  149.6080 C   0  0  0  0  0  2  0  0  0  0  0  0
  158.1640  214.3900  147.9360 C   0  0  0  0  0  2  0  0  0  0  0  0
  157.1250  212.7530  146.3620 C   0  0  0  0  0  1  0  0  0  0  0  0
  160.3390  213.4370  147.6570 C   0  0  1  0  0  3  0  0  0  0  0  0
  158.2590  213.7470  146.5680 C   0  0  2  0  0  3  0  0  0  0  0  0
  159.3680  213.9060  148.7120 C   0  0  2  0  0  3  0  0  0  0  0  0
  159.5470  213.0610  146.4620 N   0  0  0  0  0  0  0  0  0  0  0  0
  162.5250  213.8890  147.6410 C   0  0  0  0  0  1  0  0  0  0  0  0
  161.2700  214.4520  147.3890 O   0  0  0  0  0  0  0  0  0  0  0  0
  160.1720  213.5120  145.2840 N   0  0  0  0  0  2  0  0  0  0  0  0
  160.1390  212.4120  144.3250 C   0  0  0  0  0  2  0  0  0  0  0  0
  163.1300  213.7410  142.5840 C   0  0  0  0  0  2  0  0  0  0  0  0
  163.2230  213.8080  141.0610 C   0  0  0  0  0  2  0  0  0  0  0  0
  161.3390  212.2680  140.7580 O   0  0  0  0  0  0  0  0  0  0  0  0
  161.9000  213.5150  140.3450 C   0  0  0  0  0  2  0  0  0  0  0  0
  161.7190  214.0390  143.1060 C   0  0  0  0  0  2  0  0  0  0  0  0
  160.7510  212.0190  142.0100 C   0  0  0  0  0  3  0  0  0  0  0  0
  160.8800  212.8000  143.0890 C   0  0  0  0  0  0  0  0  0  0  0  0
  1  9  1  6  0  0  0
  2  1  1  0  0  0  0
  3  2  1  1  0  0  0
  4  7  1  0  0  0  0
  4  5  2  0  0  0  0
  5  6  1  0  0  0  0
  6  3  1  0  0  0  0
  6  8  1  1  0  0  0
  7 17  1  6  0  0  0
  7  3  1  0  0  0  0
  8  1  1  0  0  0  0
  9 15  1  6  0  0  0
 10 11  1  1  0  0  0
 10  9  1  0  0  0  0
 12 10  1  0  0  0  0
 12 13  1  0  0  0  0
 14 12  2  0  0  0  0
 15 16  1  0  0  0  0
 18 24  1  0  0  0  0
 19 18  2  0  0  0  0
 20 21  2  0  0  0  0
 21 18  1  0  0  0  0
 21 17  1  0  0  0  0
 22 23  2  0  0  0  0
 22 20  1  0  0  0  0
 23 19  1  0  0  0  0
 24 25  2  0  0  0  0
 25 26  1  0  0  0  0
 26 27  1  0  0  0  0
 28 27  1  0  0  0  0
 29 30  1  6  0  0  0
 29 31  1  0  0  0  0
 29 28  1  0  0  0  0
 32 36  1  0  0  0  0
 33 37  1  0  0  0  0
 34 32  1  0  0  0  0
 35 32  2  0  0  0  0
 36 33  1  0  0  0  0
 36 37  1  0  0  0  0
 37 31  1  1  0  0  0
 38 42  1  1  0  0  0
 38 41  1  0  0  0  0
 38 44  1  0  0  0  0
 39 40  1  6  0  0  0
 39 34  1  0  0  0  0
 41 45  1  0  0  0  0
 43 39  1  0  0  0  0
 44 43  1  0  0  0  0
 45 39  1  0  0  0  0
 46  4  1  0  0  0  0
 47 51  1  0  0  0  0
 49 54  1  6  0  0  0
 49 51  1  0  0  0  0
 50 48  1  1  0  0  0
 50 47  1  0  0  0  0
 51 46  1  1  0  0  0
 52 50  1  0  0  0  0
 52 49  1  0  0  0  0
 54 53  1  0  0  0  0
 55 52  1  0  0  0  0
 56 55  1  0  0  0  0
 57 61  1  0  0  0  0
 58 57  1  0  0  0  0
 59 62  1  0  0  0  0
 60 59  1  0  0  0  0
 60 58  1  0  0  0  0
 62 63  2  0  0  0  0
 63 61  1  0  0  0  0
 63 56  1  0  0  0  0
M  END
>  <MODEL>
2

>  <REMARK>
 VINA RESULT:      -3.3      3.342     10.664
  Name = 
  20 active torsions:
  status: ('A' for Active; 'I' for Inactive)
    1  A    between atoms: C_1  and  C_15
    2  A    between atoms: C_1  and  C_41
    3  A    between atoms: C_6  and  C_14
    4  A    between atoms: C_8  and  C_28
    5  A    between atoms: N_12  and  N_16
    6  A    between atoms: N_12  and  C_61
    7  A    between atoms: C_15  and  C_61
    8  A    between atoms: N_16  and  N_20
    9  A    between atoms: C_17  and  N_27
   10  A    between atoms: C_18  and  C_28
   11  A    between atoms: C_23  and  O_50
   12  A    between atoms: C_28  and  C_42
   13  A    between atoms: C_31  and  C_32
   14  A    between atoms: C_31  and  C_59
   15  A    between atoms: C_33  and  C_42
   16  A    between atoms: C_34  and  C_43
   17  A    between atoms: C_34  and  C_52
   18  A    between atoms: N_40  and  N_49
   19  A    between atoms: N_40  and  C_51
   20  A    between atoms: C_51  and  C_54
                            x       y       z     vdW  Elec       q    Type
                         _______ _______ _______ _____ _____    ______ ____

>  <TORSDO>
F 20

$$$$
=
 OpenBabel11052409473D

 63 69  0  0  1  0  0  0  0  0999 V2000
  161.6760  204.6250  151.4450 C   0  0  1  0  0  3  0  0  0  0  0  0
  161.8720  205.8940  150.5870 C   0  0  0  0  0  2  0  0  0  0  0  0
  161.8260  206.9820  151.5910 C   0  0  2  0  0  3  0  0  0  0  0  0
  160.7550  208.5910  152.8130 C   0  0  0  0  0  0  0  0  0  0  0  0
  160.8220  207.5190  153.5440 N   0  0  0  0  0  0  0  0  0  0  0  0
  161.5260  206.5530  152.7760 C   0  0  1  0  0  3  0  0  0  0  0  0
  161.2730  208.3520  151.4150 C   0  0  1  0  0  3  0  0  0  0  0  0
  161.3580  205.0900  152.8730 C   0  0  0  0  0  2  0  0  0  0  0  0
  160.5920  203.6850  150.8880 C   0  0  1  0  0  3  0  0  0  0  0  0
  160.6830  203.4420  149.3600 C   0  0  1  0  0  3  0  0  0  0  0  0
  161.9930  203.5940  148.8950 O   0  0  0  0  0  1  0  0  0  0  0  0
  160.1920  202.0780  148.9950 C   0  0  0  0  0  0  0  0  0  0  0  0
  161.0640  201.1780  148.1860 C   0  0  0  0  0  1  0  0  0  0  0  0
  159.1040  201.6800  149.3890 O   0  0  0  0  0  0  0  0  0  0  0  0
  160.4770  202.4100  151.7330 C   0  0  0  0  0  2  0  0  0  0  0  0
  161.7710  201.6030  151.7790 C   0  0  0  0  0  1  0  0  0  0  0  0
  162.3520  209.3400  150.9970 C   0  0  0  0  0  2  0  0  0  0  0  0
  161.6290  209.8340  148.6030 C   0  0  0  0  0  0  0  0  0  0  0  0
  161.1940  210.7610  147.6360 C   0  0  0  0  0  3  0  0  0  0  0  0
  161.6850  211.6270  150.2380 C   0  0  0  0  0  3  0  0  0  0  0  0
  161.8480  210.2710  149.9290 C   0  0  0  0  0  0  0  0  0  0  0  0
  161.2430  212.5350  149.2750 C   0  0  0  0  0  3  0  0  0  0  0  0
  160.9990  212.1000  147.9700 C   0  0  0  0  0  3  0  0  0  0  0  0
  161.9280  208.4490  148.1980 C   0  0  0  0  0  3  0  0  0  0  0  0
  161.0690  207.7620  147.5110 N   0  0  0  0  0  0  0  0  0  0  0  0
  161.3790  206.4540  147.1270 N   0  0  0  0  0  2  0  0  0  0  0  0
  162.6450  206.1460  146.6290 N   0  0  0  0  0  2  0  0  0  0  0  0
  162.4510  205.2380  145.5030 C   0  0  0  0  0  2  0  0  0  0  0  0
  161.2450  205.6730  144.6710 C   0  0  2  0  0  3  0  0  0  0  0  0
  160.5260  204.5050  144.1860 N   0  0  0  0  0  1  0  0  0  0  0  0
  161.6110  206.5810  143.4890 C   0  0  0  0  0  2  0  0  0  0  0  0
  161.7740  208.0180  140.1840 C   0  0  0  0  0  0  0  0  0  0  0  0
  162.6050  205.6750  141.5510 C   0  0  0  0  0  2  0  0  0  0  0  0
  160.4990  208.6350  139.9430 N   0  0  0  0  0  2  0  0  0  0  0  0
  162.7700  208.3360  139.4850 O   0  0  0  0  0  0  0  0  0  0  0  0
  161.8710  206.8930  141.0590 N   0  0  0  0  0  0  0  0  0  0  0  0
  161.3760  205.9540  142.1190 C   0  0  2  0  0  3  0  0  0  0  0  0
  161.9670  211.5880  137.5050 C   0  0  1  0  0  3  0  0  0  0  0  0
  160.2580  209.6440  138.9000 C   0  0  2  0  0  0  0  0  0  0  0  0
  158.7680  209.6230  138.5950 C   0  0  0  0  0  1  0  0  0  0  0  0
  160.7100  211.8440  138.3400 C   0  0  0  0  0  2  0  0  0  0  0  0
  163.1510  212.2550  138.1600 C   0  0  0  0  0  1  0  0  0  0  0  0
  160.9930  209.2420  137.5860 C   0  0  0  0  0  2  0  0  0  0  0  0
  162.2540  210.0870  137.3540 C   0  0  0  0  0  2  0  0  0  0  0  0
  160.6330  210.9190  139.4040 O   0  0  0  0  0  0  0  0  0  0  0  0
  159.8990  209.7580  153.1980 C   0  0  0  0  0  2  0  0  0  0  0  0
  158.8230  209.7610  155.4430 C   0  0  0  0  0  2  0  0  0  0  0  0
  156.6980  210.8810  154.7640 C   0  0  0  0  0  1  0  0  0  0  0  0
  160.1460  211.6430  154.7940 C   0  0  1  0  0  3  0  0  0  0  0  0
  157.9910  211.0210  155.5540 C   0  0  2  0  0  3  0  0  0  0  0  0
  160.0630  210.1420  154.6670 C   0  0  2  0  0  3  0  0  0  0  0  0
  158.7730  212.1440  155.0340 N   0  0  0  0  0  0  0  0  0  0  0  0
  162.1030  211.0890  155.7160 C   0  0  0  0  0  1  0  0  0  0  0  0
  161.0310  211.9800  155.8300 O   0  0  0  0  0  0  0  0  0  0  0  0
  158.7700  213.1520  156.0160 N   0  0  0  0  0  2  0  0  0  0  0  0
  157.8070  214.1670  155.5970 C   0  0  0  0  0  2  0  0  0  0  0  0
  158.9870  213.3420  152.1810 C   0  0  0  0  0  2  0  0  0  0  0  0
  158.0990  213.5070  150.9490 C   0  0  0  0  0  2  0  0  0  0  0  0
  156.0570  213.6760  152.2990 O   0  0  0  0  0  0  0  0  0  0  0  0
  156.7930  214.2620  151.2240 C   0  0  0  0  0  2  0  0  0  0  0  0
  158.7680  214.4440  153.2240 C   0  0  0  0  0  2  0  0  0  0  0  0
  156.4150  213.7400  153.6560 C   0  0  0  0  0  3  0  0  0  0  0  0
  157.6180  214.0990  154.1180 C   0  0  0  0  0  0  0  0  0  0  0  0
  1  9  1  6  0  0  0
  1  8  1  0  0  0  0
  2  1  1  0  0  0  0
  3  2  1  6  0  0  0
  3  6  1  0  0  0  0
  4 46  1  0  0  0  0
  4  5  2  0  0  0  0
  6  8  1  6  0  0  0
  6  5  1  0  0  0  0
  7 17  1  1  0  0  0
  7  3  1  0  0  0  0
  7  4  1  0  0  0  0
  9 15  1  1  0  0  0
 10 11  1  1  0  0  0
 10  9  1  0  0  0  0
 12 10  1  0  0  0  0
 12 14  2  0  0  0  0
 13 12  1  0  0  0  0
 15 16  1  0  0  0  0
 18 21  1  0  0  0  0
 19 23  1  0  0  0  0
 19 18  2  0  0  0  0
 21 20  2  0  0  0  0
 21 17  1  0  0  0  0
 22 20  1  0  0  0  0
 23 22  2  0  0  0  0
 24 18  1  0  0  0  0
 25 24  2  0  0  0  0
 26 25  1  0  0  0  0
 27 26  1  0  0  0  0
 28 27  1  0  0  0  0
 29 30  1  6  0  0  0
 29 28  1  0  0  0  0
 31 29  1  0  0  0  0
 32 36  1  0  0  0  0
 33 37  1  0  0  0  0
 34 32  1  0  0  0  0
 35 32  2  0  0  0  0
 36 33  1  0  0  0  0
 36 37  1  0  0  0  0
 37 31  1  1  0  0  0
 38 42  1  1  0  0  0
 38 41  1  0  0  0  0
 39 40  1  6  0  0  0
 39 45  1  0  0  0  0
 39 34  1  0  0  0  0
 41 45  1  0  0  0  0
 43 39  1  0  0  0  0
 44 38  1  0  0  0  0
 44 43  1  0  0  0  0
 47 50  1  0  0  0  0
 49 52  1  0  0  0  0
 49 54  1  1  0  0  0
 50 48  1  6  0  0  0
 51 46  1  6  0  0  0
 51 49  1  0  0  0  0
 51 47  1  0  0  0  0
 52 50  1  0  0  0  0
 52 55  1  0  0  0  0
 53 54  1  0  0  0  0
 56 55  1  0  0  0  0
 57 61  1  0  0  0  0
 58 60  1  0  0  0  0
 58 57  1  0  0  0  0
 59 62  1  0  0  0  0
 60 59  1  0  0  0  0
 61 63  1  0  0  0  0
 62 63  2  0  0  0  0
 63 56  1  0  0  0  0
M  END
>  <MODEL>
3

>  <REMARK>
 VINA RESULT:      -3.3      2.674      4.299
  Name = 
  20 active torsions:
  status: ('A' for Active; 'I' for Inactive)
    1  A    between atoms: C_1  and  C_15
    2  A    between atoms: C_1  and  C_41
    3  A    between atoms: C_6  and  C_14
    4  A    between atoms: C_8  and  C_28
    5  A    between atoms: N_12  and  N_16
    6  A    between atoms: N_12  and  C_61
    7  A    between atoms: C_15  and  C_61
    8  A    between atoms: N_16  and  N_20
    9  A    between atoms: C_17  and  N_27
   10  A    between atoms: C_18  and  C_28
   11  A    between atoms: C_23  and  O_50
   12  A    between atoms: C_28  and  C_42
   13  A    between atoms: C_31  and  C_32
   14  A    between atoms: C_31  and  C_59
   15  A    between atoms: C_33  and  C_42
   16  A    between atoms: C_34  and  C_43
   17  A    between atoms: C_34  and  C_52
   18  A    between atoms: N_40  and  N_49
   19  A    between atoms: N_40  and  C_51
   20  A    between atoms: C_51  and  C_54
                            x       y       z     vdW  Elec       q    Type
                         _______ _______ _______ _____ _____    ______ ____

>  <TORSDO>
F 20

$$$$
