=
 OpenBabel11042421313D

 27 31  0  0  0  0  0  0  0  0999 V2000
  161.5390  210.0720  151.8120 C   0  0  0  0  0  3  0  0  0  0  0  0
  161.5210  208.4560  149.8860 C   0  0  0  0  0  0  0  0  0  0  0  0
  161.1980  207.0790  151.9770 C   0  0  0  0  0  3  0  0  0  0  0  0
  161.2800  204.7920  147.9470 N   0  0  0  0  0  0  0  0  0  0  0  0
  161.0010  202.5780  148.9270 N   0  0  0  0  0  1  0  0  0  0  0  0
  161.5940  208.3930  148.4660 C   0  0  0  0  0  3  0  0  0  0  0  0
  161.1280  204.7060  150.2090 C   0  0  0  0  0  0  0  0  0  0  0  0
  160.5580  207.6580  155.5290 C   0  0  0  0  0  3  0  0  0  0  0  0
  160.9840  204.1290  151.5780 C   0  0  0  0  0  1  0  0  0  0  0  0
  160.1550  208.9580  155.8560 O   0  0  0  0  0  0  0  0  0  0  0  0
  161.2820  206.0370  149.8430 C   0  0  0  0  0  0  0  0  0  0  0  0
  161.6270  209.7470  150.4630 C   0  0  0  0  0  0  0  0  0  0  0  0
  161.1340  203.9920  149.0240 C   0  0  0  0  0  0  0  0  0  0  0  0
  161.3680  206.0300  148.4700 C   0  0  0  0  0  0  0  0  0  0  0  0
  161.3370  209.3400  152.9680 C   0  0  0  0  0  0  0  0  0  0  0  0
  161.3410  207.2290  150.6010 C   0  0  0  0  0  0  0  0  0  0  0  0
  160.9750  207.2250  154.3320 C   0  0  0  0  0  3  0  0  0  0  0  0
  161.5200  207.1980  147.7490 C   0  0  0  0  0  3  0  0  0  0  0  0
  160.0410  210.0220  154.9280 C   0  0  0  0  0  2  0  0  0  0  0  0
  161.3510  210.1840  154.1960 C   0  0  0  0  0  2  0  0  0  0  0  0
  161.1670  207.9500  153.0510 C   0  0  0  0  0  0  0  0  0  0  0  0
  162.3610  213.2040  148.0300 C   0  0  0  0  0  3  0  0  0  0  0  0
  161.8740  210.9350  149.6070 C   0  0  0  0  0  0  0  0  0  0  0  0
  162.9870  210.9800  148.7540 C   0  0  0  0  0  3  0  0  0  0  0  0
  163.2280  212.1090  147.9660 C   0  0  0  0  0  3  0  0  0  0  0  0
  161.2560  213.1720  148.8850 C   0  0  0  0  0  3  0  0  0  0  0  0
  161.0140  212.0420  149.6730 C   0  0  0  0  0  3  0  0  0  0  0  0
  1 15  1  0  0  0  0
  2 12  1  0  0  0  0
  2 16  1  0  0  0  0
  3 21  1  0  0  0  0
  4 14  1  0  0  0  0
  4 13  2  0  0  0  0
  5 13  1  0  0  0  0
  6  2  2  0  0  0  0
  7  9  1  0  0  0  0
  8 10  1  0  0  0  0
 11  7  2  0  0  0  0
 11 16  1  0  0  0  0
 12  1  2  0  0  0  0
 13  7  1  0  0  0  0
 14 11  1  0  0  0  0
 15 21  2  0  0  0  0
 15 20  1  0  0  0  0
 16  3  2  0  0  0  0
 17  8  2  0  0  0  0
 18  6  1  0  0  0  0
 18 14  2  0  0  0  0
 19 10  1  0  0  0  0
 20 19  1  0  0  0  0
 21 17  1  0  0  0  0
 22 26  1  0  0  0  0
 23 27  1  0  0  0  0
 23 12  1  0  0  0  0
 24 23  2  0  0  0  0
 25 22  2  0  0  0  0
 25 24  1  0  0  0  0
 26 27  2  0  0  0  0
M  END
>  <MODEL>
1

>  <REMARK>
 VINA RESULT:      -9.3      0.000      0.000
  Name = 
  1 active torsions:
  status: ('A' for Active; 'I' for Inactive)
    1  A    between atoms: C_9  and  C_15
                            x       y       z     vdW  Elec       q    Type
                         _______ _______ _______ _____ _____    ______ ____

>  <TORSDO>
F 1

$$$$
=
 OpenBabel11042421313D

 27 31  0  0  0  0  0  0  0  0999 V2000
  161.7220  208.3500  148.0880 C   0  0  0  0  0  3  0  0  0  0  0  0
  161.6420  209.2020  150.4530 C   0  0  0  0  0  0  0  0  0  0  0  0
  161.2540  206.7110  150.5770 C   0  0  0  0  0  3  0  0  0  0  0  0
  161.2520  209.0410  154.5840 N   0  0  0  0  0  0  0  0  0  0  0  0
  160.7900  207.1000  155.9840 N   0  0  0  0  0  1  0  0  0  0  0  0
  161.7890  210.3840  151.2310 C   0  0  0  0  0  3  0  0  0  0  0  0
  161.0040  207.0600  153.5060 C   0  0  0  0  0  0  0  0  0  0  0  0
  161.4280  203.8270  148.3370 C   0  0  0  0  0  3  0  0  0  0  0  0
  160.7680  205.6000  153.3050 C   0  0  0  0  0  1  0  0  0  0  0  0
  162.0910  204.0550  147.1260 O   0  0  0  0  0  0  0  0  0  0  0  0
  161.2580  208.0350  152.5510 C   0  0  0  0  0  0  0  0  0  0  0  0
  161.7760  209.3540  149.0490 C   0  0  0  0  0  0  0  0  0  0  0  0
  161.0100  207.7200  154.7210 C   0  0  0  0  0  0  0  0  0  0  0  0
  161.4000  209.2080  153.2550 C   0  0  0  0  0  0  0  0  0  0  0  0
  161.5370  206.9810  148.1360 C   0  0  0  0  0  0  0  0  0  0  0  0
  161.3820  207.9750  151.1440 C   0  0  0  0  0  0  0  0  0  0  0  0
  161.1170  204.7420  149.2660 C   0  0  0  0  0  3  0  0  0  0  0  0
  161.6720  210.4040  152.6220 C   0  0  0  0  0  3  0  0  0  0  0  0
  162.6240  205.3040  146.7240 C   0  0  0  0  0  2  0  0  0  0  0  0
  161.5380  206.3510  146.7860 C   0  0  0  0  0  2  0  0  0  0  0  0
  161.3300  206.2110  149.2900 C   0  0  0  0  0  0  0  0  0  0  0  0
  162.4010  213.2170  147.2890 C   0  0  0  0  0  3  0  0  0  0  0  0
  161.9870  210.6990  148.4550 C   0  0  0  0  0  0  0  0  0  0  0  0
  160.9160  211.3970  147.8750 C   0  0  0  0  0  3  0  0  0  0  0  0
  161.1220  212.6520  147.2980 C   0  0  0  0  0  3  0  0  0  0  0  0
  163.4740  212.5240  147.8550 C   0  0  0  0  0  3  0  0  0  0  0  0
  163.2690  211.2680  148.4340 C   0  0  0  0  0  3  0  0  0  0  0  0
  1 15  2  0  0  0  0
  1 12  1  0  0  0  0
  2 16  1  0  0  0  0
  2  6  1  0  0  0  0
  3 16  1  0  0  0  0
  4 13  1  0  0  0  0
  6 18  2  0  0  0  0
  7 13  2  0  0  0  0
  8 17  2  0  0  0  0
  9  7  1  0  0  0  0
 10  8  1  0  0  0  0
 11 14  1  0  0  0  0
 11  7  1  0  0  0  0
 12  2  2  0  0  0  0
 13  5  1  0  0  0  0
 14  4  2  0  0  0  0
 15 21  1  0  0  0  0
 16 11  2  0  0  0  0
 17 21  1  0  0  0  0
 18 14  1  0  0  0  0
 19 20  1  0  0  0  0
 19 10  1  0  0  0  0
 20 15  1  0  0  0  0
 21  3  2  0  0  0  0
 22 25  2  0  0  0  0
 22 26  1  0  0  0  0
 23 12  1  0  0  0  0
 24 23  2  0  0  0  0
 25 24  1  0  0  0  0
 26 27  2  0  0  0  0
 27 23  1  0  0  0  0
M  END
>  <MODEL>
2

>  <REMARK>
 VINA RESULT:      -9.0      3.135      5.286
  Name = 
  1 active torsions:
  status: ('A' for Active; 'I' for Inactive)
    1  A    between atoms: C_9  and  C_15
                            x       y       z     vdW  Elec       q    Type
                         _______ _______ _______ _____ _____    ______ ____

>  <TORSDO>
F 1

$$$$
=
 OpenBabel11042421313D

 27 31  0  0  0  0  0  0  0  0999 V2000
  161.1630  208.6030  152.4430 C   0  0  0  0  0  3  0  0  0  0  0  0
  161.0100  206.0960  152.3310 C   0  0  0  0  0  0  0  0  0  0  0  0
  161.2850  206.9020  149.9550 C   0  0  0  0  0  3  0  0  0  0  0  0
  160.9250  202.3250  150.5940 N   0  0  0  0  0  0  0  0  0  0  0  0
  161.0650  201.7460  148.2300 N   0  0  0  0  0  1  0  0  0  0  0  0
  160.8940  204.9360  153.1470 C   0  0  0  0  0  3  0  0  0  0  0  0
  161.1310  204.0590  149.1450 C   0  0  0  0  0  0  0  0  0  0  0  0
  162.0610  210.0290  148.2280 C   0  0  0  0  0  3  0  0  0  0  0  0
  161.2680  204.7870  147.8480 C   0  0  0  0  0  1  0  0  0  0  0  0
  162.5680  211.0480  149.0420 O   0  0  0  0  0  0  0  0  0  0  0  0
  161.0670  204.5830  150.4290 C   0  0  0  0  0  0  0  0  0  0  0  0
  161.0150  207.3420  153.0090 C   0  0  0  0  0  0  0  0  0  0  0  0
  161.0400  202.6870  149.2980 C   0  0  0  0  0  0  0  0  0  0  0  0
  160.9440  203.4950  151.2610 C   0  0  0  0  0  0  0  0  0  0  0  0
  161.3410  209.0650  151.1510 C   0  0  0  0  0  0  0  0  0  0  0  0
  161.1170  205.9100  150.9150 C   0  0  0  0  0  0  0  0  0  0  0  0
  161.5810  208.8440  148.6300 C   0  0  0  0  0  3  0  0  0  0  0  0
  160.8600  203.6390  152.6320 C   0  0  0  0  0  3  0  0  0  0  0  0
  162.7360  210.9470  150.4450 C   0  0  0  0  0  2  0  0  0  0  0  0
  161.4230  210.5500  151.0750 C   0  0  0  0  0  2  0  0  0  0  0  0
  161.4100  208.2790  149.9910 C   0  0  0  0  0  0  0  0  0  0  0  0
  160.4780  207.5510  157.2610 C   0  0  0  0  0  3  0  0  0  0  0  0
  160.8350  207.3970  154.4820 C   0  0  0  0  0  0  0  0  0  0  0  0
  159.6750  206.8790  155.0780 C   0  0  0  0  0  3  0  0  0  0  0  0
  159.4990  206.9530  156.4620 C   0  0  0  0  0  3  0  0  0  0  0  0
  161.6320  208.0780  156.6750 C   0  0  0  0  0  3  0  0  0  0  0  0
  161.8090  208.0050  155.2890 C   0  0  0  0  0  3  0  0  0  0  0  0
  1 12  1  0  0  0  0
  2 12  2  0  0  0  0
  2  6  1  0  0  0  0
  3 21  2  0  0  0  0
  3 16  1  0  0  0  0
  4 14  2  0  0  0  0
  5 13  1  0  0  0  0
  7 13  2  0  0  0  0
  7 11  1  0  0  0  0
  8 17  2  0  0  0  0
  8 10  1  0  0  0  0
  9  7  1  0  0  0  0
 10 19  1  0  0  0  0
 11 16  2  0  0  0  0
 11 14  1  0  0  0  0
 12 23  1  0  0  0  0
 13  4  1  0  0  0  0
 14 18  1  0  0  0  0
 15  1  2  0  0  0  0
 16  2  1  0  0  0  0
 17 21  1  0  0  0  0
 18  6  2  0  0  0  0
 19 20  1  0  0  0  0
 20 15  1  0  0  0  0
 21 15  1  0  0  0  0
 23 24  2  0  0  0  0
 23 27  1  0  0  0  0
 24 25  1  0  0  0  0
 25 22  2  0  0  0  0
 26 22  1  0  0  0  0
 27 26  2  0  0  0  0
M  END
>  <MODEL>
3

>  <REMARK>
 VINA RESULT:      -8.7      2.166      5.550
  Name = 
  1 active torsions:
  status: ('A' for Active; 'I' for Inactive)
    1  A    between atoms: C_9  and  C_15
                            x       y       z     vdW  Elec       q    Type
                         _______ _______ _______ _____ _____    ______ ____

>  <TORSDO>
F 1

$$$$
=
 OpenBabel11042421313D

 27 31  0  0  0  0  0  0  0  0999 V2000
  161.0360  204.1830  148.3330 C   0  0  0  0  0  3  0  0  0  0  0  0
  161.5370  206.6060  148.7820 C   0  0  0  0  0  0  0  0  0  0  0  0
  161.1160  205.5350  151.0290 C   0  0  0  0  0  3  0  0  0  0  0  0
  162.1190  210.0600  151.0120 N   0  0  0  0  0  0  0  0  0  0  0  0
  161.9410  210.3490  153.4260 N   0  0  0  0  0  1  0  0  0  0  0  0
  161.8960  207.8220  148.1360 C   0  0  0  0  0  3  0  0  0  0  0  0
  161.5680  208.2130  152.2080 C   0  0  0  0  0  0  0  0  0  0  0  0
  160.6770  202.1690  152.3860 C   0  0  0  0  0  3  0  0  0  0  0  0
  161.2490  207.3570  153.3900 C   0  0  0  0  0  1  0  0  0  0  0  0
  161.0450  201.1290  151.5250 O   0  0  0  0  0  0  0  0  0  0  0  0
  161.6200  207.8530  150.8680 C   0  0  0  0  0  0  0  0  0  0  0  0
  161.3430  205.4810  147.9400 C   0  0  0  0  0  0  0  0  0  0  0  0
  161.8770  209.5600  152.2430 C   0  0  0  0  0  0  0  0  0  0  0  0
  161.9560  209.0030  150.1940 C   0  0  0  0  0  0  0  0  0  0  0  0
  160.8280  203.5700  149.5560 C   0  0  0  0  0  0  0  0  0  0  0  0
  161.4090  206.6200  150.2080 C   0  0  0  0  0  0  0  0  0  0  0  0
  160.6190  203.4740  152.0880 C   0  0  0  0  0  3  0  0  0  0  0  0
  162.1070  209.0190  148.8220 C   0  0  0  0  0  3  0  0  0  0  0  0
  161.5050  201.3090  150.1970 C   0  0  0  0  0  2  0  0  0  0  0  0
  160.4950  202.1240  149.4270 C   0  0  0  0  0  2  0  0  0  0  0  0
  160.8740  204.1900  150.8130 C   0  0  0  0  0  0  0  0  0  0  0  0
  161.6340  205.8280  143.6740 C   0  0  0  0  0  3  0  0  0  0  0  0
  161.4470  205.6190  146.4650 C   0  0  0  0  0  0  0  0  0  0  0  0
  160.3610  206.0960  145.7160 C   0  0  0  0  0  3  0  0  0  0  0  0
  160.4550  206.2030  144.3260 C   0  0  0  0  0  3  0  0  0  0  0  0
  162.7170  205.3430  144.4110 C   0  0  0  0  0  3  0  0  0  0  0  0
  162.6230  205.2360  145.8030 C   0  0  0  0  0  3  0  0  0  0  0  0
  1 15  1  0  0  0  0
  2 16  1  0  0  0  0
  4 13  2  0  0  0  0
  6  2  2  0  0  0  0
  6 18  1  0  0  0  0
  7 13  1  0  0  0  0
  7  9  1  0  0  0  0
 10  8  1  0  0  0  0
 11  7  2  0  0  0  0
 12  1  2  0  0  0  0
 12  2  1  0  0  0  0
 13  5  1  0  0  0  0
 14 11  1  0  0  0  0
 14  4  1  0  0  0  0
 15 21  2  0  0  0  0
 16 11  1  0  0  0  0
 16  3  2  0  0  0  0
 17  8  2  0  0  0  0
 18 14  2  0  0  0  0
 19 10  1  0  0  0  0
 20 15  1  0  0  0  0
 20 19  1  0  0  0  0
 21  3  1  0  0  0  0
 21 17  1  0  0  0  0
 22 25  2  0  0  0  0
 22 26  1  0  0  0  0
 23 12  1  0  0  0  0
 24 23  2  0  0  0  0
 25 24  1  0  0  0  0
 26 27  2  0  0  0  0
 27 23  1  0  0  0  0
M  END
>  <MODEL>
4

>  <REMARK>
 VINA RESULT:      -8.7      3.207      6.214
  Name = 
  1 active torsions:
  status: ('A' for Active; 'I' for Inactive)
    1  A    between atoms: C_9  and  C_15
                            x       y       z     vdW  Elec       q    Type
                         _______ _______ _______ _____ _____    ______ ____

>  <TORSDO>
F 1

$$$$
=
 OpenBabel11042421313D

 27 31  0  0  0  0  0  0  0  0999 V2000
  160.8630  206.3480  153.0460 C   0  0  0  0  0  3  0  0  0  0  0  0
  161.4250  207.3270  150.7990 C   0  0  0  0  0  0  0  0  0  0  0  0
  161.1050  209.2770  152.3690 C   0  0  0  0  0  3  0  0  0  0  0  0
  162.1780  210.2740  147.9720 N   0  0  0  0  0  0  0  0  0  0  0  0
  162.1320  212.6940  148.2610 N   0  0  0  0  0  1  0  0  0  0  0  0
  161.7690  206.9680  149.4660 C   0  0  0  0  0  3  0  0  0  0  0  0
  161.6610  211.0290  150.0480 C   0  0  0  0  0  0  0  0  0  0  0  0
  160.6850  209.8240  155.9590 C   0  0  0  0  0  3  0  0  0  0  0  0
  161.3910  211.9910  151.1570 C   0  0  0  0  0  1  0  0  0  0  0  0
  160.9900  208.7230  156.7680 O   0  0  0  0  0  0  0  0  0  0  0  0
  161.6370  209.6410  150.0810 C   0  0  0  0  0  0  0  0  0  0  0  0
  161.1690  206.2550  151.6920 C   0  0  0  0  0  0  0  0  0  0  0  0
  161.9940  211.3630  148.7480 C   0  0  0  0  0  0  0  0  0  0  0  0
  161.9560  209.2400  148.8050 C   0  0  0  0  0  0  0  0  0  0  0  0
  160.7090  207.4000  153.9290 C   0  0  0  0  0  0  0  0  0  0  0  0
  161.3720  208.7210  151.1220 C   0  0  0  0  0  0  0  0  0  0  0  0
  160.6310  209.8460  154.6200 C   0  0  0  0  0  3  0  0  0  0  0  0
  162.0360  207.9040  148.4660 C   0  0  0  0  0  3  0  0  0  0  0  0
  161.3830  207.4520  156.2800 C   0  0  0  0  0  2  0  0  0  0  0  0
  160.3470  206.9530  155.3030 C   0  0  0  0  0  2  0  0  0  0  0  0
  160.8310  208.7640  153.6240 C   0  0  0  0  0  0  0  0  0  0  0  0
  161.2060  202.1910  150.3200 C   0  0  0  0  0  3  0  0  0  0  0  0
  161.1980  204.8520  151.2100 C   0  0  0  0  0  0  0  0  0  0  0  0
  160.8240  204.5430  149.8930 C   0  0  0  0  0  3  0  0  0  0  0  0
  160.8310  203.2180  149.4490 C   0  0  0  0  0  3  0  0  0  0  0  0
  161.5710  202.4880  151.6360 C   0  0  0  0  0  3  0  0  0  0  0  0
  161.5640  203.8140  152.0810 C   0  0  0  0  0  3  0  0  0  0  0  0
  1 15  1  0  0  0  0
  2 16  1  0  0  0  0
  2 12  1  0  0  0  0
  3 21  1  0  0  0  0
  4 13  2  0  0  0  0
  4 14  1  0  0  0  0
  5 13  1  0  0  0  0
  6  2  2  0  0  0  0
  7 11  2  0  0  0  0
  7  9  1  0  0  0  0
  8 10  1  0  0  0  0
 11 16  1  0  0  0  0
 12  1  2  0  0  0  0
 13  7  1  0  0  0  0
 14 11  1  0  0  0  0
 15 20  1  0  0  0  0
 16  3  2  0  0  0  0
 17  8  2  0  0  0  0
 18 14  2  0  0  0  0
 18  6  1  0  0  0  0
 19 10  1  0  0  0  0
 20 19  1  0  0  0  0
 21 15  2  0  0  0  0
 21 17  1  0  0  0  0
 22 26  1  0  0  0  0
 23 12  1  0  0  0  0
 23 27  1  0  0  0  0
 24 23  2  0  0  0  0
 25 24  1  0  0  0  0
 25 22  2  0  0  0  0
 26 27  2  0  0  0  0
M  END
>  <MODEL>
5

>  <REMARK>
 VINA RESULT:      -8.2      2.128      5.776
  Name = 
  1 active torsions:
  status: ('A' for Active; 'I' for Inactive)
    1  A    between atoms: C_9  and  C_15
                            x       y       z     vdW  Elec       q    Type
                         _______ _______ _______ _____ _____    ______ ____

>  <TORSDO>
F 1

$$$$
=
 OpenBabel11042421313D

 27 31  0  0  0  0  0  0  0  0999 V2000
  161.7280  207.0710  149.9970 C   0  0  0  0  0  3  0  0  0  0  0  0
  161.1220  206.8420  152.4270 C   0  0  0  0  0  0  0  0  0  0  0  0
  161.5310  209.2990  152.0200 C   0  0  0  0  0  3  0  0  0  0  0  0
  160.3520  208.0490  156.3250 N   0  0  0  0  0  0  0  0  0  0  0  0
  160.4600  210.2970  157.2610 N   0  0  0  0  0  1  0  0  0  0  0  0
  160.7310  205.8870  153.4060 C   0  0  0  0  0  3  0  0  0  0  0  0
  160.9460  209.7060  154.8930 C   0  0  0  0  0  0  0  0  0  0  0  0
  162.0690  211.5200  149.1670 C   0  0  0  0  0  3  0  0  0  0  0  0
  161.2700  211.0780  154.4030 C   0  0  0  0  0  1  0  0  0  0  0  0
  161.7630  210.9680  147.9180 O   0  0  0  0  0  0  0  0  0  0  0  0
  160.9410  208.5120  154.1840 C   0  0  0  0  0  0  0  0  0  0  0  0
  161.3800  206.3370  151.1260 C   0  0  0  0  0  0  0  0  0  0  0  0
  160.5830  209.3710  156.1860 C   0  0  0  0  0  0  0  0  0  0  0  0
  160.5750  207.5490  155.0940 C   0  0  0  0  0  0  0  0  0  0  0  0
  161.9310  208.4150  149.7460 C   0  0  0  0  0  0  0  0  0  0  0  0
  161.2150  208.2130  152.8290 C   0  0  0  0  0  0  0  0  0  0  0  0
  162.0830  210.8810  150.3450 C   0  0  0  0  0  3  0  0  0  0  0  0
  160.4560  206.2210  154.7330 C   0  0  0  0  0  3  0  0  0  0  0  0
  161.3280  209.6350  147.7130 C   0  0  0  0  0  2  0  0  0  0  0  0
  162.3240  208.6870  148.3350 C   0  0  0  0  0  2  0  0  0  0  0  0
  161.8300  209.4580  150.6790 C   0  0  0  0  0  0  0  0  0  0  0  0
  161.1170  202.1220  150.3700 C   0  0  0  0  0  3  0  0  0  0  0  0
  161.3060  204.8790  150.8570 C   0  0  0  0  0  0  0  0  0  0  0  0
  160.9210  204.4070  149.5920 C   0  0  0  0  0  3  0  0  0  0  0  0
  160.8310  203.0340  149.3490 C   0  0  0  0  0  3  0  0  0  0  0  0
  161.4910  202.5840  151.6350 C   0  0  0  0  0  3  0  0  0  0  0  0
  161.5820  203.9580  151.8790 C   0  0  0  0  0  3  0  0  0  0  0  0
  1 12  1  0  0  0  0
  2 16  1  0  0  0  0
  2  6  1  0  0  0  0
  3 16  1  0  0  0  0
  6 18  2  0  0  0  0
  7 13  2  0  0  0  0
  8 17  2  0  0  0  0
  9  7  1  0  0  0  0
 10  8  1  0  0  0  0
 11  7  1  0  0  0  0
 11 14  1  0  0  0  0
 12  2  2  0  0  0  0
 13  4  1  0  0  0  0
 13  5  1  0  0  0  0
 14  4  2  0  0  0  0
 15  1  2  0  0  0  0
 15 21  1  0  0  0  0
 16 11  2  0  0  0  0
 17 21  1  0  0  0  0
 18 14  1  0  0  0  0
 19 10  1  0  0  0  0
 19 20  1  0  0  0  0
 20 15  1  0  0  0  0
 21  3  2  0  0  0  0
 22 26  1  0  0  0  0
 23 12  1  0  0  0  0
 23 27  1  0  0  0  0
 24 23  2  0  0  0  0
 25 24  1  0  0  0  0
 25 22  2  0  0  0  0
 26 27  2  0  0  0  0
M  END
>  <MODEL>
6

>  <REMARK>
 VINA RESULT:      -8.1      3.314      7.096
  Name = 
  1 active torsions:
  status: ('A' for Active; 'I' for Inactive)
    1  A    between atoms: C_9  and  C_15
                            x       y       z     vdW  Elec       q    Type
                         _______ _______ _______ _____ _____    ______ ____

>  <TORSDO>
F 1

$$$$
=
 OpenBabel11042421313D

 27 31  0  0  0  0  0  0  0  0999 V2000
  161.7100  208.8050  148.7230 C   0  0  0  0  0  3  0  0  0  0  0  0
  161.3630  207.5570  150.8780 C   0  0  0  0  0  0  0  0  0  0  0  0
  161.3100  210.0130  151.4580 C   0  0  0  0  0  3  0  0  0  0  0  0
  160.7340  207.0170  154.9470 N   0  0  0  0  0  0  0  0  0  0  0  0
  160.5370  208.7150  156.6840 N   0  0  0  0  0  1  0  0  0  0  0  0
  161.2260  206.2460  151.4120 C   0  0  0  0  0  3  0  0  0  0  0  0
  160.9120  209.1750  154.2690 C   0  0  0  0  0  0  0  0  0  0  0  0
  161.2150  213.2120  149.6910 C   0  0  0  0  0  3  0  0  0  0  0  0
  160.9540  210.6650  154.3490 C   0  0  0  0  0  1  0  0  0  0  0  0
  160.9020  213.1300  148.3290 O   0  0  0  0  0  0  0  0  0  0  0  0
  161.0500  208.3650  153.1500 C   0  0  0  0  0  0  0  0  0  0  0  0
  161.5910  207.6460  149.4810 C   0  0  0  0  0  0  0  0  0  0  0  0
  160.7240  208.3110  155.3320 C   0  0  0  0  0  0  0  0  0  0  0  0
  160.9330  207.0760  153.6160 C   0  0  0  0  0  0  0  0  0  0  0  0
  161.6590  210.1560  149.0140 C   0  0  0  0  0  0  0  0  0  0  0  0
  161.2540  208.6620  151.7830 C   0  0  0  0  0  0  0  0  0  0  0  0
  161.4390  212.1880  150.5260 C   0  0  0  0  0  3  0  0  0  0  0  0
  161.0120  205.9900  152.7670 C   0  0  0  0  0  3  0  0  0  0  0  0
  160.6850  211.9200  147.6260 C   0  0  0  0  0  2  0  0  0  0  0  0
  161.8770  211.0140  147.8160 C   0  0  0  0  0  2  0  0  0  0  0  0
  161.4620  210.7250  150.2810 C   0  0  0  0  0  0  0  0  0  0  0  0
  161.9840  204.0960  147.1030 C   0  0  0  0  0  3  0  0  0  0  0  0
  161.7430  206.4150  148.6650 C   0  0  0  0  0  0  0  0  0  0  0  0
  162.4200  206.4540  147.4360 C   0  0  0  0  0  3  0  0  0  0  0  0
  162.5430  205.2980  146.6600 C   0  0  0  0  0  3  0  0  0  0  0  0
  161.2990  204.0500  148.3200 C   0  0  0  0  0  3  0  0  0  0  0  0
  161.1770  205.2060  149.0980 C   0  0  0  0  0  3  0  0  0  0  0  0
  1 15  2  0  0  0  0
  1 12  1  0  0  0  0
  2  6  1  0  0  0  0
  2 16  1  0  0  0  0
  3 16  1  0  0  0  0
  4 13  1  0  0  0  0
  6 18  2  0  0  0  0
  7  9  1  0  0  0  0
  7 13  2  0  0  0  0
  8 17  2  0  0  0  0
 10  8  1  0  0  0  0
 11 14  1  0  0  0  0
 11  7  1  0  0  0  0
 12  2  2  0  0  0  0
 13  5  1  0  0  0  0
 14  4  2  0  0  0  0
 15 21  1  0  0  0  0
 16 11  2  0  0  0  0
 18 14  1  0  0  0  0
 19 20  1  0  0  0  0
 19 10  1  0  0  0  0
 20 15  1  0  0  0  0
 21 17  1  0  0  0  0
 21  3  2  0  0  0  0
 22 26  1  0  0  0  0
 23 27  1  0  0  0  0
 23 12  1  0  0  0  0
 24 23  2  0  0  0  0
 25 22  2  0  0  0  0
 25 24  1  0  0  0  0
 26 27  2  0  0  0  0
M  END
>  <MODEL>
7

>  <REMARK>
 VINA RESULT:      -7.4      3.056      6.177
  Name = 
  1 active torsions:
  status: ('A' for Active; 'I' for Inactive)
    1  A    between atoms: C_9  and  C_15
                            x       y       z     vdW  Elec       q    Type
                         _______ _______ _______ _____ _____    ______ ____

>  <TORSDO>
F 1

$$$$
=
 OpenBabel11042421313D

 27 31  0  0  0  0  0  0  0  0999 V2000
  161.0840  205.6640  152.6910 C   0  0  0  0  0  3  0  0  0  0  0  0
  161.2550  208.1250  152.2010 C   0  0  0  0  0  0  0  0  0  0  0  0
  161.5970  206.9330  150.0030 C   0  0  0  0  0  3  0  0  0  0  0  0
  161.7710  211.5640  149.9320 N   0  0  0  0  0  0  0  0  0  0  0  0
  162.2380  211.7450  147.5460 N   0  0  0  0  0  1  0  0  0  0  0  0
  161.1560  209.4060  152.8120 C   0  0  0  0  0  3  0  0  0  0  0  0
  161.9460  209.6110  148.7900 C   0  0  0  0  0  0  0  0  0  0  0  0
  161.2950  203.5360  148.6870 C   0  0  0  0  0  3  0  0  0  0  0  0
  162.1460  208.6770  147.6430 C   0  0  0  0  0  1  0  0  0  0  0  0
  160.5990  202.6400  149.5080 O   0  0  0  0  0  0  0  0  0  0  0  0
  161.6820  209.3050  150.1190 C   0  0  0  0  0  0  0  0  0  0  0  0
  161.0800  207.0060  153.0560 C   0  0  0  0  0  0  0  0  0  0  0  0
  161.9910  210.9920  148.7290 C   0  0  0  0  0  0  0  0  0  0  0  0
  161.5860  210.5180  150.7600 C   0  0  0  0  0  0  0  0  0  0  0  0
  161.2430  204.9920  151.4930 C   0  0  0  0  0  0  0  0  0  0  0  0
  161.5130  208.0740  150.7930 C   0  0  0  0  0  0  0  0  0  0  0  0
  161.6540  204.7900  148.9920 C   0  0  0  0  0  3  0  0  0  0  0  0
  161.3180  210.6020  152.1120 C   0  0  0  0  0  3  0  0  0  0  0  0
  160.0790  202.9600  150.7860 C   0  0  0  0  0  2  0  0  0  0  0  0
  161.1870  203.5120  151.6500 C   0  0  0  0  0  2  0  0  0  0  0  0
  161.4710  205.5750  150.2380 C   0  0  0  0  0  0  0  0  0  0  0  0
  160.4810  207.6110  157.2610 C   0  0  0  0  0  3  0  0  0  0  0  0
  160.8780  207.1980  154.5140 C   0  0  0  0  0  0  0  0  0  0  0  0
  159.7030  206.7490  155.1360 C   0  0  0  0  0  3  0  0  0  0  0  0
  159.5070  206.9510  156.5040 C   0  0  0  0  0  3  0  0  0  0  0  0
  161.6490  208.0710  156.6470 C   0  0  0  0  0  3  0  0  0  0  0  0
  161.8460  207.8680  155.2780 C   0  0  0  0  0  3  0  0  0  0  0  0
  1 12  1  0  0  0  0
  2  6  1  0  0  0  0
  2 12  2  0  0  0  0
  3 21  2  0  0  0  0
  3 16  1  0  0  0  0
  4 14  2  0  0  0  0
  5 13  1  0  0  0  0
  7 11  1  0  0  0  0
  8 17  2  0  0  0  0
  8 10  1  0  0  0  0
  9  7  1  0  0  0  0
 10 19  1  0  0  0  0
 11 14  1  0  0  0  0
 11 16  2  0  0  0  0
 12 23  1  0  0  0  0
 13  7  2  0  0  0  0
 13  4  1  0  0  0  0
 14 18  1  0  0  0  0
 15 20  1  0  0  0  0
 15  1  2  0  0  0  0
 16  2  1  0  0  0  0
 17 21  1  0  0  0  0
 18  6  2  0  0  0  0
 19 20  1  0  0  0  0
 21 15  1  0  0  0  0
 23 24  2  0  0  0  0
 23 27  1  0  0  0  0
 24 25  1  0  0  0  0
 25 22  2  0  0  0  0
 26 22  1  0  0  0  0
 27 26  2  0  0  0  0
M  END
>  <MODEL>
8

>  <REMARK>
 VINA RESULT:      -7.3      3.060      6.651
  Name = 
  1 active torsions:
  status: ('A' for Active; 'I' for Inactive)
    1  A    between atoms: C_9  and  C_15
                            x       y       z     vdW  Elec       q    Type
                         _______ _______ _______ _____ _____    ______ ____

>  <TORSDO>
F 1

$$$$
=
 OpenBabel11042421313D

 27 31  0  0  0  0  0  0  0  0999 V2000
  160.1750  209.7650  154.0500 C   0  0  0  0  0  3  0  0  0  0  0  0
  159.7970  211.8520  152.7000 C   0  0  0  0  0  0  0  0  0  0  0  0
  161.2670  210.3530  151.2990 C   0  0  0  0  0  3  0  0  0  0  0  0
  160.1060  214.4530  149.4780 N   0  0  0  0  0  0  0  0  0  0  0  0
  161.3590  214.1540  147.4080 N   0  0  0  0  0  1  0  0  0  0  0  0
  159.1110  213.0990  152.7190 C   0  0  0  0  0  3  0  0  0  0  0  0
  161.2530  212.5070  149.2690 C   0  0  0  0  0  0  0  0  0  0  0  0
  162.4770  206.9040  151.3800 C   0  0  0  0  0  3  0  0  0  0  0  0
  162.1300  211.4600  148.6650 C   0  0  0  0  0  1  0  0  0  0  0  0
  161.8160  206.0630  152.2830 O   0  0  0  0  0  0  0  0  0  0  0  0
  160.6110  212.4930  150.5000 C   0  0  0  0  0  0  0  0  0  0  0  0
  159.6470  211.0350  153.8500 C   0  0  0  0  0  0  0  0  0  0  0  0
  160.9160  213.7160  148.6880 C   0  0  0  0  0  0  0  0  0  0  0  0
  159.9360  213.6880  150.5730 C   0  0  0  0  0  0  0  0  0  0  0  0
  160.9590  208.9160  153.2880 C   0  0  0  0  0  0  0  0  0  0  0  0
  160.5660  211.5310  151.5360 C   0  0  0  0  0  0  0  0  0  0  0  0
  162.3160  208.2280  151.2520 C   0  0  0  0  0  3  0  0  0  0  0  0
  159.1690  214.0200  151.6720 C   0  0  0  0  0  3  0  0  0  0  0  0
  160.7860  206.4790  153.1630 C   0  0  0  0  0  2  0  0  0  0  0  0
  161.2790  207.6420  153.9900 C   0  0  0  0  0  2  0  0  0  0  0  0
  161.4610  209.1780  152.0050 C   0  0  0  0  0  0  0  0  0  0  0  0
  157.3980  212.3810  157.2470 C   0  0  0  0  0  3  0  0  0  0  0  0
  158.8670  211.5170  155.0180 C   0  0  0  0  0  0  0  0  0  0  0  0
  159.4980  212.2270  156.0510 C   0  0  0  0  0  3  0  0  0  0  0  0
  158.7660  212.6600  157.1600 C   0  0  0  0  0  3  0  0  0  0  0  0
  156.7650  211.6660  156.2270 C   0  0  0  0  0  3  0  0  0  0  0  0
  157.4970  211.2330  155.1170 C   0  0  0  0  0  3  0  0  0  0  0  0
  2  6  1  0  0  0  0
  2 12  2  0  0  0  0
  3 16  1  0  0  0  0
  3 21  2  0  0  0  0
  4 14  2  0  0  0  0
  5 13  1  0  0  0  0
  7 11  1  0  0  0  0
  8 10  1  0  0  0  0
  9  7  1  0  0  0  0
 10 19  1  0  0  0  0
 11 14  1  0  0  0  0
 11 16  2  0  0  0  0
 12  1  1  0  0  0  0
 12 23  1  0  0  0  0
 13  7  2  0  0  0  0
 13  4  1  0  0  0  0
 14 18  1  0  0  0  0
 15 20  1  0  0  0  0
 15  1  2  0  0  0  0
 16  2  1  0  0  0  0
 17  8  2  0  0  0  0
 17 21  1  0  0  0  0
 18  6  2  0  0  0  0
 19 20  1  0  0  0  0
 21 15  1  0  0  0  0
 23 27  2  0  0  0  0
 23 24  1  0  0  0  0
 24 25  2  0  0  0  0
 25 22  1  0  0  0  0
 26 22  2  0  0  0  0
 27 26  1  0  0  0  0
M  END
>  <MODEL>
9

>  <REMARK>
 VINA RESULT:      -6.4      3.552      6.874
  Name = 
  1 active torsions:
  status: ('A' for Active; 'I' for Inactive)
    1  A    between atoms: C_9  and  C_15
                            x       y       z     vdW  Elec       q    Type
                         _______ _______ _______ _____ _____    ______ ____

>  <TORSDO>
F 1

$$$$
