=
 OpenBabel11052410443D

 35 41  0  0  1  0  0  0  0  0999 V2000
  161.4060  207.6230  151.9400 C   0  0  0  0  0  0  0  0  0  0  0  0
  162.1440  206.3700  152.2730 C   0  0  1  0  0  3  0  0  0  0  0  0
  161.1720  207.3970  154.1900 N   0  0  0  0  0  0  0  0  0  0  0  0
  160.9030  208.1690  153.0350 C   0  0  0  0  0  0  0  0  0  0  0  0
  161.9360  206.2250  153.7870 C   0  0  0  0  0  3  0  0  0  0  0  0
  159.3060  210.2370  155.5030 C   0  0  0  0  0  3  0  0  0  0  0  0
  158.8240  212.5130  153.7240 C   0  0  0  0  0  3  0  0  0  0  0  0
  160.2550  209.4410  153.1080 N   0  0  0  0  0  0  0  0  0  0  0  0
  158.4620  212.5420  155.0950 C   0  0  0  0  0  2  0  0  0  0  0  0
  159.4130  211.3350  153.3120 C   0  0  0  0  0  0  0  0  0  0  0  0
  158.6960  211.4310  155.9640 C   0  0  0  0  0  3  0  0  0  0  0  0
  159.6430  210.2450  154.1630 C   0  0  1  0  0  0  0  0  0  0  0  0
  160.0100  210.5580  152.2710 C   0  0  2  0  0  3  0  0  0  0  0  0
  160.8860  204.2140  152.2250 C   0  0  0  0  0  3  0  0  0  0  0  0
  161.8160  205.0300  150.1450 C   0  0  0  0  0  3  0  0  0  0  0  0
  161.5980  205.1900  151.5220 C   0  0  0  0  0  0  0  0  0  0  0  0
  160.5950  202.9340  150.1790 C   0  0  0  0  0  0  0  0  0  0  0  0
  161.3130  203.9080  149.4790 C   0  0  0  0  0  3  0  0  0  0  0  0
  160.3850  203.0910  151.5590 C   0  0  0  0  0  3  0  0  0  0  0  0
  160.0960  201.8290  149.4840 O   0  0  0  0  0  0  0  0  0  0  0  0
  160.9140  200.7330  149.0960 C   0  0  0  0  0  2  0  0  0  0  0  0
  161.0670  200.7220  147.6170 C   0  0  0  0  0  0  0  0  0  0  0  0
  160.6560  201.8160  146.8700 O   0  0  0  0  0  0  0  0  0  0  0  0
  161.6000  199.7350  147.0450 O   0  0  0  0  0  1  0  0  0  0  0  0
  162.0120  209.2520  150.2480 O   0  0  0  0  0  0  0  0  0  0  0  0
  161.6080  207.7960  148.4750 C   0  0  0  0  0  0  0  0  0  0  0  0
  162.3480  209.0180  148.8910 C   0  0  0  0  0  2  0  0  0  0  0  0
  161.0160  207.2980  149.5210 C   0  0  0  0  0  3  0  0  0  0  0  0
  161.2950  208.1510  150.6130 N   0  0  0  0  0  0  0  0  0  0  0  0
  162.5430  205.5300  145.5880 N   0  0  0  0  0  2  0  0  0  0  0  0
  160.1590  205.8490  145.5190 C   0  0  0  0  0  3  0  0  0  0  0  0
  161.5630  207.1850  147.1060 C   0  0  2  0  0  3  0  0  0  0  0  0
  160.2020  206.5240  146.8620 C   0  0  0  0  0  2  0  0  0  0  0  0
  162.6640  206.1400  146.9110 C   0  0  0  0  0  2  0  0  0  0  0  0
  161.2690  205.3650  144.9530 C   0  0  0  0  0  3  0  0  0  0  0  0
  1  2  1  0  0  0  0
  1  4  2  0  0  0  0
  2 16  1  6  0  0  0
  2  5  1  0  0  0  0
  4  8  1  0  0  0  0
  4  3  1  0  0  0  0
  5  3  2  0  0  0  0
  6 11  2  0  0  0  0
  7  9  1  0  0  0  0
  8 12  1  0  0  0  0
  9 11  1  0  0  0  0
 10  7  2  0  0  0  0
 10 12  1  0  0  0  0
 12  6  1  1  0  0  0
 13  8  1  0  0  0  0
 13 10  1  1  0  0  0
 13 12  1  0  0  0  0
 15 16  1  0  0  0  0
 16 14  2  0  0  0  0
 17 19  2  0  0  0  0
 18 15  2  0  0  0  0
 18 17  1  0  0  0  0
 19 14  1  0  0  0  0
 20 17  1  0  0  0  0
 21 20  1  0  0  0  0
 22 21  1  0  0  0  0
 23 22  2  0  0  0  0
 24 22  1  0  0  0  0
 25 29  1  0  0  0  0
 26 27  1  0  0  0  0
 26 28  2  0  0  0  0
 27 25  1  0  0  0  0
 28 29  1  0  0  0  0
 29  1  1  0  0  0  0
 30 34  1  0  0  0  0
 31 33  1  0  0  0  0
 32 26  1  1  0  0  0
 33 32  1  0  0  0  0
 34 32  1  0  0  0  0
 35 31  2  0  0  0  0
 35 30  1  0  0  0  0
M  END
>  <MODEL>
1

>  <REMARK>
 VINA RESULT:      -8.7      0.000      0.000
  Name = 
  7 active torsions:
  status: ('A' for Active; 'I' for Inactive)
    1  A    between atoms: C_3  and  N_26
    2  A    between atoms: N_5  and  C_33
    3  A    between atoms: C_6  and  C_19
    4  A    between atoms: C_10  and  C_12
    5  A    between atoms: O_13  and  C_24
    6  A    between atoms: O_13  and  C_27
    7  A    between atoms: C_25  and  C_27
                            x       y       z     vdW  Elec       q    Type
                         _______ _______ _______ _____ _____    ______ ____

>  <TORSDO>
F 7

$$$$
=
 OpenBabel11052410443D

 35 41  0  0  1  0  0  0  0  0999 V2000
  160.5020  211.2990  153.6300 C   0  0  0  0  0  0  0  0  0  0  0  0
  161.7660  210.5040  153.6440 C   0  0  1  0  0  3  0  0  0  0  0  0
  161.0790  211.1720  155.8250 N   0  0  0  0  0  0  0  0  0  0  0  0
  160.1720  211.6650  154.8580 C   0  0  0  0  0  0  0  0  0  0  0  0
  162.1080  210.4040  155.1370 C   0  0  0  0  0  3  0  0  0  0  0  0
  156.7830  211.4460  156.0340 C   0  0  0  0  0  3  0  0  0  0  0  0
  156.3720  214.3330  156.3120 C   0  0  0  0  0  3  0  0  0  0  0  0
  159.1010  212.5460  155.2020 N   0  0  0  0  0  0  0  0  0  0  0  0
  155.3660  213.3950  156.6580 C   0  0  0  0  0  2  0  0  0  0  0  0
  157.5420  213.7710  155.8400 C   0  0  0  0  0  0  0  0  0  0  0  0
  155.5670  211.9850  156.5220 C   0  0  0  0  0  3  0  0  0  0  0  0
  157.7390  212.3900  155.7060 C   0  0  1  0  0  0  0  0  0  0  0  0
  158.8740  213.9370  155.3480 C   0  0  1  0  0  3  0  0  0  0  0  0
  161.0280  208.1250  153.8050 C   0  0  0  0  0  3  0  0  0  0  0  0
  161.9610  208.8820  151.7050 C   0  0  0  0  0  3  0  0  0  0  0  0
  161.5730  209.1500  153.0260 C   0  0  0  0  0  0  0  0  0  0  0  0
  161.2380  206.5790  151.9410 C   0  0  0  0  0  0  0  0  0  0  0  0
  161.7890  207.6030  151.1660 C   0  0  0  0  0  3  0  0  0  0  0  0
  160.8590  206.8450  153.2670 C   0  0  0  0  0  3  0  0  0  0  0  0
  161.0690  205.3140  151.3720 O   0  0  0  0  0  0  0  0  0  0  0  0
  160.7930  205.1250  149.9890 C   0  0  0  0  0  2  0  0  0  0  0  0
  160.9240  203.6850  149.6450 C   0  0  0  0  0  0  0  0  0  0  0  0
  161.3480  203.3120  148.3780 O   0  0  0  0  0  0  0  0  0  0  0  0
  160.6840  202.8040  150.5120 O   0  0  0  0  0  1  0  0  0  0  0  0
  158.4840  212.0370  152.5050 O   0  0  0  0  0  0  0  0  0  0  0  0
  159.6350  212.9460  150.6960 C   0  0  0  0  0  0  0  0  0  0  0  0
  158.3630  212.9930  151.4660 C   0  0  0  0  0  2  0  0  0  0  0  0
  160.4570  212.1460  151.3090 C   0  0  0  0  0  3  0  0  0  0  0  0
  159.7810  211.6250  152.4350 N   0  0  0  0  0  0  0  0  0  0  0  0
  161.4170  213.8430  147.4760 N   0  0  0  0  0  2  0  0  0  0  0  0
  159.1010  214.4400  147.2150 C   0  0  0  0  0  3  0  0  0  0  0  0
  159.9690  213.7090  149.4480 C   0  0  2  0  0  3  0  0  0  0  0  0
  158.7660  213.7340  148.5000 C   0  0  0  0  0  2  0  0  0  0  0  0
  161.1680  213.1050  148.7140 C   0  0  0  0  0  2  0  0  0  0  0  0
  160.3490  214.4530  146.7400 C   0  0  0  0  0  3  0  0  0  0  0  0
  1  2  1  0  0  0  0
  1  4  2  0  0  0  0
  2 16  1  1  0  0  0
  2  5  1  0  0  0  0
  4  8  1  0  0  0  0
  4  3  1  0  0  0  0
  5  3  2  0  0  0  0
  6 11  2  0  0  0  0
  7  9  1  0  0  0  0
  8 13  1  0  0  0  0
  8 12  1  0  0  0  0
 10  7  2  0  0  0  0
 11  9  1  0  0  0  0
 12 10  1  0  0  0  0
 12  6  1  1  0  0  0
 13 12  1  0  0  0  0
 13 10  1  6  0  0  0
 15 16  1  0  0  0  0
 16 14  2  0  0  0  0
 17 19  2  0  0  0  0
 18 15  2  0  0  0  0
 18 17  1  0  0  0  0
 19 14  1  0  0  0  0
 20 17  1  0  0  0  0
 21 20  1  0  0  0  0
 22 21  1  0  0  0  0
 22 24  1  0  0  0  0
 23 22  2  0  0  0  0
 26 28  2  0  0  0  0
 26 27  1  0  0  0  0
 27 25  1  0  0  0  0
 28 29  1  0  0  0  0
 29 25  1  0  0  0  0
 29  1  1  0  0  0  0
 30 34  1  0  0  0  0
 31 33  1  0  0  0  0
 32 26  1  1  0  0  0
 33 32  1  0  0  0  0
 34 32  1  0  0  0  0
 35 31  2  0  0  0  0
 35 30  1  0  0  0  0
M  END
>  <MODEL>
2

>  <REMARK>
 VINA RESULT:      -8.2      3.158      5.138
  Name = 
  7 active torsions:
  status: ('A' for Active; 'I' for Inactive)
    1  A    between atoms: C_3  and  N_26
    2  A    between atoms: N_5  and  C_33
    3  A    between atoms: C_6  and  C_19
    4  A    between atoms: C_10  and  C_12
    5  A    between atoms: O_13  and  C_24
    6  A    between atoms: O_13  and  C_27
    7  A    between atoms: C_25  and  C_27
                            x       y       z     vdW  Elec       q    Type
                         _______ _______ _______ _____ _____    ______ ____

>  <TORSDO>
F 7

$$$$
=
 OpenBabel11052410443D

 35 41  0  0  1  0  0  0  0  0999 V2000
  161.8560  207.9050  150.2430 C   0  0  1  0  0  3  0  0  0  0  0  0
  162.3520  209.0710  151.0330 C   0  0  1  0  0  3  0  0  0  0  0  0
  161.9350  209.6190  148.7520 N   0  0  0  0  0  0  0  0  0  0  0  0
  161.6610  208.2500  148.9810 C   0  0  0  0  0  0  0  0  0  0  0  0
  162.3580  210.2170  150.0110 C   0  0  0  0  0  2  0  0  0  0  0  0
  163.2620  205.7580  146.9460 C   0  0  0  0  0  3  0  0  0  0  0  0
  160.8430  204.9380  145.5130 C   0  0  0  0  0  3  0  0  0  0  0  0
  161.3200  207.3570  147.9190 N   0  0  0  0  0  0  0  0  0  0  0  0
  162.0980  204.3200  145.2810 C   0  0  0  0  0  2  0  0  0  0  0  0
  160.8650  205.9440  146.4580 C   0  0  0  0  0  0  0  0  0  0  0  0
  163.2800  204.7210  145.9810 C   0  0  0  0  0  3  0  0  0  0  0  0
  162.0220  206.3370  147.1440 C   0  0  1  0  0  0  0  0  0  0  0  0
  160.1670  206.9390  147.2110 C   0  0  1  0  0  3  0  0  0  0  0  0
  160.4970  210.3820  152.0700 C   0  0  0  0  0  3  0  0  0  0  0  0
  161.5780  208.6870  153.4170 C   0  0  0  0  0  3  0  0  0  0  0  0
  161.4540  209.3700  152.1980 C   0  0  0  0  0  0  0  0  0  0  0  0
  159.7790  210.0110  154.3630 C   0  0  0  0  0  0  0  0  0  0  0  0
  160.7410  209.0050  154.4910 C   0  0  0  0  0  3  0  0  0  0  0  0
  159.6620  210.7020  153.1460 C   0  0  0  0  0  3  0  0  0  0  0  0
  158.9510  210.2990  155.4510 O   0  0  0  0  0  0  0  0  0  0  0  0
  158.3790  211.5840  155.6610 C   0  0  0  0  0  2  0  0  0  0  0  0
  156.8980  211.4690  155.7230 C   0  0  0  0  0  0  0  0  0  0  0  0
  156.2250  211.8150  156.8860 O   0  0  0  0  0  1  0  0  0  0  0  0
  156.2520  211.0900  154.7110 O   0  0  0  0  0  0  0  0  0  0  0  0
  160.5380  206.3270  151.5300 O   0  0  0  0  0  0  0  0  0  0  0  0
  161.3530  204.4690  150.3860 C   0  0  0  0  0  0  0  0  0  0  0  0
  160.2250  204.9830  151.2070 C   0  0  0  0  0  2  0  0  0  0  0  0
  162.1670  205.4550  150.1440 C   0  0  0  0  0  3  0  0  0  0  0  0
  161.6550  206.5990  150.7970 N   0  0  0  0  0  0  0  0  0  0  0  0
  160.9750  200.7080  150.1620 N   0  0  0  0  0  2  0  0  0  0  0  0
  161.1260  201.5570  147.9170 C   0  0  0  0  0  3  0  0  0  0  0  0
  161.5360  203.0740  149.8670 C   0  0  2  0  0  3  0  0  0  0  0  0
  161.0090  202.9650  148.4330 C   0  0  0  0  0  2  0  0  0  0  0  0
  160.8200  202.0410  150.7400 C   0  0  0  0  0  2  0  0  0  0  0  0
  161.0790  200.5110  148.7460 C   0  0  0  0  0  3  0  0  0  0  0  0
  1 29  1  6  0  0  0
  1  2  1  0  0  0  0
  2 16  1  1  0  0  0
  3  4  2  0  0  0  0
  3  5  1  0  0  0  0
  4  1  1  0  0  0  0
  5  2  1  0  0  0  0
  7 10  2  0  0  0  0
  8  4  1  0  0  0  0
  9  7  1  0  0  0  0
  9 11  1  0  0  0  0
 10 12  1  0  0  0  0
 11  6  2  0  0  0  0
 12  6  1  1  0  0  0
 12 13  1  0  0  0  0
 12  8  1  0  0  0  0
 13 10  1  6  0  0  0
 13  8  1  0  0  0  0
 14 16  2  0  0  0  0
 14 19  1  0  0  0  0
 15 18  2  0  0  0  0
 16 15  1  0  0  0  0
 17 18  1  0  0  0  0
 17 20  1  0  0  0  0
 19 17  2  0  0  0  0
 20 21  1  0  0  0  0
 21 22  1  0  0  0  0
 22 23  1  0  0  0  0
 24 22  2  0  0  0  0
 26 27  1  0  0  0  0
 27 25  1  0  0  0  0
 28 26  2  0  0  0  0
 28 29  1  0  0  0  0
 29 25  1  0  0  0  0
 30 34  1  0  0  0  0
 31 33  1  0  0  0  0
 31 35  2  0  0  0  0
 32 26  1  1  0  0  0
 32 34  1  0  0  0  0
 33 32  1  0  0  0  0
 35 30  1  0  0  0  0
M  END
>  <MODEL>
3

>  <REMARK>
 VINA RESULT:      -8.1      2.873      8.128
  Name = 
  7 active torsions:
  status: ('A' for Active; 'I' for Inactive)
    1  A    between atoms: C_3  and  N_26
    2  A    between atoms: N_5  and  C_33
    3  A    between atoms: C_6  and  C_19
    4  A    between atoms: C_10  and  C_12
    5  A    between atoms: O_13  and  C_24
    6  A    between atoms: O_13  and  C_27
    7  A    between atoms: C_25  and  C_27
                            x       y       z     vdW  Elec       q    Type
                         _______ _______ _______ _____ _____    ______ ____

>  <TORSDO>
F 7

$$$$
=
 OpenBabel11052410443D

 35 41  0  0  1  0  0  0  0  0999 V2000
  161.6280  207.3050  152.0000 C   0  0  0  0  0  0  0  0  0  0  0  0
  162.0550  205.8960  152.2490 C   0  0  1  0  0  3  0  0  0  0  0  0
  160.6930  206.7640  154.0010 N   0  0  0  0  0  0  0  0  0  0  0  0
  160.8940  207.7510  153.0070 C   0  0  0  0  0  0  0  0  0  0  0  0
  161.3790  205.5490  153.5830 C   0  0  0  0  0  3  0  0  0  0  0  0
  160.9200  210.3220  155.5180 C   0  0  0  0  0  3  0  0  0  0  0  0
  159.6620  212.3800  153.8560 C   0  0  0  0  0  3  0  0  0  0  0  0
  160.4320  209.0930  153.1670 N   0  0  0  0  0  0  0  0  0  0  0  0
  160.0790  212.6410  155.1860 C   0  0  0  0  0  2  0  0  0  0  0  0
  159.8990  211.0900  153.4240 C   0  0  0  0  0  0  0  0  0  0  0  0
  160.6920  211.6360  155.9980 C   0  0  0  0  0  3  0  0  0  0  0  0
  160.5000  210.1050  154.2190 C   0  0  1  0  0  0  0  0  0  0  0  0
  159.8270  210.1090  152.3860 C   0  0  1  0  0  3  0  0  0  0  0  0
  161.2270  203.6740  151.4660 C   0  0  0  0  0  3  0  0  0  0  0  0
  161.6010  205.3940  149.8050 C   0  0  0  0  0  3  0  0  0  0  0  0
  161.6080  204.9810  151.1460 C   0  0  0  0  0  0  0  0  0  0  0  0
  160.8140  203.2050  149.1170 C   0  0  0  0  0  0  0  0  0  0  0  0
  161.2020  204.5100  148.7980 C   0  0  0  0  0  3  0  0  0  0  0  0
  160.8310  202.7890  150.4580 C   0  0  0  0  0  3  0  0  0  0  0  0
  160.4100  202.3480  148.0900 O   0  0  0  0  0  0  0  0  0  0  0  0
  161.2980  201.8920  147.0770 C   0  0  0  0  0  2  0  0  0  0  0  0
  160.8330  202.3750  145.7500 C   0  0  0  0  0  0  0  0  0  0  0  0
  161.3090  203.5750  145.2430 O   0  0  0  0  0  1  0  0  0  0  0  0
  160.0330  201.6790  145.0710 O   0  0  0  0  0  0  0  0  0  0  0  0
  161.4720  207.7350  149.6180 O   0  0  0  0  0  0  0  0  0  0  0  0
  161.9740  210.0000  149.8330 C   0  0  0  0  0  0  0  0  0  0  0  0
  161.3210  208.9840  148.9640 C   0  0  0  0  0  2  0  0  0  0  0  0
  162.3400  209.4200  150.9390 C   0  0  0  0  0  3  0  0  0  0  0  0
  161.9970  208.0530  150.8350 N   0  0  0  0  0  0  0  0  0  0  0  0
  162.7800  213.1340  147.8670 N   0  0  0  0  0  0  0  0  0  0  0  0
  160.9800  213.6640  149.3720 C   0  0  0  0  0  2  0  0  0  0  0  0
  162.1570  211.4590  149.5430 C   0  0  2  0  0  3  0  0  0  0  0  0
  160.8320  212.2090  149.7200 C   0  0  0  0  0  2  0  0  0  0  0  0
  162.6760  211.6990  148.1240 C   0  0  0  0  0  2  0  0  0  0  0  0
  161.8840  214.0720  148.4770 C   0  0  0  0  0  3  0  0  0  0  0  0
  1  2  1  0  0  0  0
  1  4  2  0  0  0  0
  2 16  1  6  0  0  0
  2  5  1  0  0  0  0
  4  8  1  0  0  0  0
  4  3  1  0  0  0  0
  5  3  2  0  0  0  0
  6 11  2  0  0  0  0
  7  9  1  0  0  0  0
  8 12  1  0  0  0  0
  9 11  1  0  0  0  0
 10  7  2  0  0  0  0
 10 12  1  0  0  0  0
 12  6  1  6  0  0  0
 13  8  1  0  0  0  0
 13 10  1  1  0  0  0
 13 12  1  0  0  0  0
 15 16  2  0  0  0  0
 16 14  1  0  0  0  0
 17 19  1  0  0  0  0
 18 17  2  0  0  0  0
 18 15  1  0  0  0  0
 19 14  2  0  0  0  0
 20 17  1  0  0  0  0
 21 20  1  0  0  0  0
 22 21  1  0  0  0  0
 23 22  1  0  0  0  0
 24 22  2  0  0  0  0
 25 29  1  0  0  0  0
 26 28  2  0  0  0  0
 27 25  1  0  0  0  0
 27 26  1  0  0  0  0
 29 28  1  0  0  0  0
 29  1  1  0  0  0  0
 30 34  1  0  0  0  0
 30 35  2  0  0  0  0
 31 33  1  0  0  0  0
 32 33  1  0  0  0  0
 32 26  1  6  0  0  0
 34 32  1  0  0  0  0
 35 31  1  0  0  0  0
M  END
>  <MODEL>
4

>  <REMARK>
 VINA RESULT:      -7.8      2.078      3.359
  Name = 
  7 active torsions:
  status: ('A' for Active; 'I' for Inactive)
    1  A    between atoms: C_3  and  N_26
    2  A    between atoms: N_5  and  C_33
    3  A    between atoms: C_6  and  C_19
    4  A    between atoms: C_10  and  C_12
    5  A    between atoms: O_13  and  C_24
    6  A    between atoms: O_13  and  C_27
    7  A    between atoms: C_25  and  C_27
                            x       y       z     vdW  Elec       q    Type
                         _______ _______ _______ _____ _____    ______ ____

>  <TORSDO>
F 7

$$$$
=
 OpenBabel11052410443D

 35 41  0  0  1  0  0  0  0  0999 V2000
  160.8780  209.2710  154.3120 C   0  0  0  0  0  0  0  0  0  0  0  0
  161.2970  207.8500  154.4940 C   0  0  1  0  0  3  0  0  0  0  0  0
  159.5350  208.4830  155.9680 N   0  0  0  0  0  0  0  0  0  0  0  0
  159.9160  209.5830  155.1640 C   0  0  0  0  0  0  0  0  0  0  0  0
  160.3500  207.3370  155.5870 C   0  0  0  0  0  3  0  0  0  0  0  0
  156.7810  211.2870  154.7320 C   0  0  0  0  0  3  0  0  0  0  0  0
  157.6570  213.8310  155.8900 C   0  0  0  0  0  3  0  0  0  0  0  0
  159.3730  210.8900  155.3620 N   0  0  0  0  0  0  0  0  0  0  0  0
  156.3300  213.6330  155.4310 C   0  0  0  0  0  2  0  0  0  0  0  0
  158.4840  212.7340  155.7430 C   0  0  0  0  0  0  0  0  0  0  0  0
  155.9020  212.3910  154.8650 C   0  0  0  0  0  3  0  0  0  0  0  0
  158.0650  211.5170  155.1890 C   0  0  1  0  0  0  0  0  0  0  0  0
  159.7680  212.1320  155.9190 C   0  0  1  0  0  3  0  0  0  0  0  0
  161.4050  205.6900  153.2460 C   0  0  0  0  0  3  0  0  0  0  0  0
  160.8110  207.6850  152.0100 C   0  0  0  0  0  3  0  0  0  0  0  0
  161.1530  207.0650  153.2220 C   0  0  0  0  0  0  0  0  0  0  0  0
  160.9530  205.5530  150.8610 C   0  0  0  0  0  0  0  0  0  0  0  0
  160.7090  206.9290  150.8380 C   0  0  0  0  0  3  0  0  0  0  0  0
  161.3050  204.9360  152.0730 C   0  0  0  0  0  3  0  0  0  0  0  0
  160.8320  204.8230  149.6750 O   0  0  0  0  0  0  0  0  0  0  0  0
  160.8850  203.4030  149.6400 C   0  0  0  0  0  2  0  0  0  0  0  0
  161.2180  202.9490  148.2640 C   0  0  0  0  0  0  0  0  0  0  0  0
  160.8820  201.6650  147.8580 O   0  0  0  0  0  1  0  0  0  0  0  0
  161.7720  203.7390  147.4550 O   0  0  0  0  0  0  0  0  0  0  0  0
  162.7540  209.9600  152.9370 O   0  0  0  0  0  0  0  0  0  0  0  0
  161.4070  210.9520  151.3160 C   0  0  0  0  0  0  0  0  0  0  0  0
  162.7420  210.3480  151.5740 C   0  0  0  0  0  2  0  0  0  0  0  0
  160.6760  210.8010  152.3810 C   0  0  0  0  0  3  0  0  0  0  0  0
  161.4720  210.1580  153.3560 N   0  0  0  0  0  0  0  0  0  0  0  0
  160.0690  213.6320  148.9990 N   0  0  0  0  0  2  0  0  0  0  0  0
  161.6080  212.2820  147.7360 C   0  0  0  0  0  3  0  0  0  0  0  0
  160.9310  211.5910  150.0460 C   0  0  2  0  0  3  0  0  0  0  0  0
  162.0460  211.5880  148.9950 C   0  0  0  0  0  2  0  0  0  0  0  0
  160.4650  213.0310  150.2710 C   0  0  0  0  0  2  0  0  0  0  0  0
  160.6980  213.2590  147.7660 C   0  0  0  0  0  3  0  0  0  0  0  0
  1  2  1  0  0  0  0
  1  4  2  0  0  0  0
  2 16  1  6  0  0  0
  2  5  1  0  0  0  0
  4  8  1  0  0  0  0
  4  3  1  0  0  0  0
  5  3  2  0  0  0  0
  6 11  2  0  0  0  0
  8 13  1  0  0  0  0
  9  7  1  0  0  0  0
 10  7  2  0  0  0  0
 11  9  1  0  0  0  0
 12  6  1  1  0  0  0
 12  8  1  0  0  0  0
 12 10  1  0  0  0  0
 12 13  1  0  0  0  0
 13 10  1  6  0  0  0
 15 16  2  0  0  0  0
 16 14  1  0  0  0  0
 17 19  1  0  0  0  0
 18 17  2  0  0  0  0
 18 15  1  0  0  0  0
 19 14  2  0  0  0  0
 20 17  1  0  0  0  0
 21 20  1  0  0  0  0
 22 21  1  0  0  0  0
 23 22  1  0  0  0  0
 24 22  2  0  0  0  0
 25 29  1  0  0  0  0
 26 27  1  0  0  0  0
 26 28  2  0  0  0  0
 27 25  1  0  0  0  0
 28 29  1  0  0  0  0
 29  1  1  0  0  0  0
 30 34  1  0  0  0  0
 31 35  2  0  0  0  0
 31 33  1  0  0  0  0
 32 34  1  0  0  0  0
 32 26  1  1  0  0  0
 33 32  1  0  0  0  0
 35 30  1  0  0  0  0
M  END
>  <MODEL>
5

>  <REMARK>
 VINA RESULT:      -7.8      2.671      4.097
  Name = 
  7 active torsions:
  status: ('A' for Active; 'I' for Inactive)
    1  A    between atoms: C_3  and  N_26
    2  A    between atoms: N_5  and  C_33
    3  A    between atoms: C_6  and  C_19
    4  A    between atoms: C_10  and  C_12
    5  A    between atoms: O_13  and  C_24
    6  A    between atoms: O_13  and  C_27
    7  A    between atoms: C_25  and  C_27
                            x       y       z     vdW  Elec       q    Type
                         _______ _______ _______ _____ _____    ______ ____

>  <TORSDO>
F 7

$$$$
=
 OpenBabel11052410443D

 35 41  0  0  1  0  0  0  0  0999 V2000
  161.7140  208.4330  152.2590 C   0  0  0  0  0  0  0  0  0  0  0  0
  162.3170  207.1880  151.6980 C   0  0  1  0  0  3  0  0  0  0  0  0
  160.9410  206.7640  153.5960 N   0  0  0  0  0  0  0  0  0  0  0  0
  160.9780  208.1520  153.3220 C   0  0  0  0  0  0  0  0  0  0  0  0
  161.7480  206.0800  152.5950 C   0  0  0  0  0  3  0  0  0  0  0  0
  158.9600  211.1140  153.0510 C   0  0  0  0  0  3  0  0  0  0  0  0
  158.5830  211.4880  155.9320 C   0  0  0  0  0  3  0  0  0  0  0  0
  160.3660  209.1120  154.1860 N   0  0  0  0  0  0  0  0  0  0  0  0
  157.9880  212.3530  154.9780 C   0  0  0  0  0  2  0  0  0  0  0  0
  159.3440  210.4720  155.3870 C   0  0  0  0  0  0  0  0  0  0  0  0
  158.1730  212.1710  153.5720 C   0  0  0  0  0  3  0  0  0  0  0  0
  159.5250  210.2930  154.0090 C   0  0  1  0  0  0  0  0  0  0  0  0
  160.1650  209.3170  155.5740 C   0  0  1  0  0  3  0  0  0  0  0  0
  160.8230  206.1970  149.9610 C   0  0  0  0  0  3  0  0  0  0  0  0
  162.6870  207.5480  149.2150 C   0  0  0  0  0  3  0  0  0  0  0  0
  161.9350  206.9890  150.2600 C   0  0  0  0  0  0  0  0  0  0  0  0
  161.2020  206.5380  147.5840 C   0  0  0  0  0  0  0  0  0  0  0  0
  162.3180  207.3250  147.8850 C   0  0  0  0  0  3  0  0  0  0  0  0
  160.4560  205.9710  148.6300 C   0  0  0  0  0  3  0  0  0  0  0  0
  160.8530  206.3420  146.2450 O   0  0  0  0  0  0  0  0  0  0  0  0
  161.7650  205.8330  145.2810 C   0  0  0  0  0  2  0  0  0  0  0  0
  162.3000  204.5240  145.7400 C   0  0  0  0  0  0  0  0  0  0  0  0
  163.6130  204.4280  146.1770 O   0  0  0  0  0  1  0  0  0  0  0  0
  161.5530  203.5110  145.7650 O   0  0  0  0  0  0  0  0  0  0  0  0
  163.1700  210.3180  151.8030 O   0  0  0  0  0  0  0  0  0  0  0  0
  161.9790  210.9870  149.9170 C   0  0  0  0  0  0  0  0  0  0  0  0
  163.3010  211.0500  150.5970 C   0  0  0  0  0  2  0  0  0  0  0  0
  161.2080  210.1870  150.5930 C   0  0  0  0  0  3  0  0  0  0  0  0
  161.9390  209.7400  151.7160 N   0  0  0  0  0  0  0  0  0  0  0  0
  160.3040  213.5120  147.6450 N   0  0  0  0  0  2  0  0  0  0  0  0
  162.4300  212.9540  146.6680 C   0  0  0  0  0  3  0  0  0  0  0  0
  161.5790  211.6740  148.6460 C   0  0  2  0  0  3  0  0  0  0  0  0
  162.8150  212.2050  147.9130 C   0  0  0  0  0  2  0  0  0  0  0  0
  160.6170  212.8360  148.9030 C   0  0  0  0  0  2  0  0  0  0  0  0
  161.2550  213.5840  146.5760 C   0  0  0  0  0  3  0  0  0  0  0  0
  1  4  2  0  0  0  0
  2 16  1  6  0  0  0
  2  1  1  0  0  0  0
  2  5  1  0  0  0  0
  4  3  1  0  0  0  0
  4  8  1  0  0  0  0
  5  3  2  0  0  0  0
  6 11  2  0  0  0  0
  8 13  1  0  0  0  0
  9  7  1  0  0  0  0
 10  7  2  0  0  0  0
 11  9  1  0  0  0  0
 12  6  1  6  0  0  0
 12  8  1  0  0  0  0
 12 10  1  0  0  0  0
 12 13  1  0  0  0  0
 13 10  1  1  0  0  0
 14 16  1  0  0  0  0
 15 16  2  0  0  0  0
 17 18  2  0  0  0  0
 17 19  1  0  0  0  0
 18 15  1  0  0  0  0
 19 14  2  0  0  0  0
 20 17  1  0  0  0  0
 21 22  1  0  0  0  0
 21 20  1  0  0  0  0
 22 24  2  0  0  0  0
 22 23  1  0  0  0  0
 26 28  2  0  0  0  0
 26 27  1  0  0  0  0
 27 25  1  0  0  0  0
 28 29  1  0  0  0  0
 29 25  1  0  0  0  0
 29  1  1  0  0  0  0
 30 34  1  0  0  0  0
 31 33  1  0  0  0  0
 32 34  1  0  0  0  0
 32 26  1  1  0  0  0
 33 32  1  0  0  0  0
 35 31  2  0  0  0  0
 35 30  1  0  0  0  0
M  END
>  <MODEL>
6

>  <REMARK>
 VINA RESULT:      -7.5      2.451      4.126
  Name = 
  7 active torsions:
  status: ('A' for Active; 'I' for Inactive)
    1  A    between atoms: C_3  and  N_26
    2  A    between atoms: N_5  and  C_33
    3  A    between atoms: C_6  and  C_19
    4  A    between atoms: C_10  and  C_12
    5  A    between atoms: O_13  and  C_24
    6  A    between atoms: O_13  and  C_27
    7  A    between atoms: C_25  and  C_27
                            x       y       z     vdW  Elec       q    Type
                         _______ _______ _______ _____ _____    ______ ____

>  <TORSDO>
F 7

$$$$
=
 OpenBabel11052410443D

 35 41  0  0  1  0  0  0  0  0999 V2000
  161.5300  208.4190  152.0040 C   0  0  0  0  0  0  0  0  0  0  0  0
  161.8190  207.0440  152.5080 C   0  0  1  0  0  3  0  0  0  0  0  0
  160.2990  208.2320  153.9060 N   0  0  0  0  0  0  0  0  0  0  0  0
  160.7010  209.0470  152.8210 C   0  0  0  0  0  0  0  0  0  0  0  0
  160.9470  206.9350  153.7670 C   0  0  0  0  0  3  0  0  0  0  0  0
  157.9570  211.1510  153.8040 C   0  0  0  0  0  3  0  0  0  0  0  0
  159.1470  213.6570  152.8660 C   0  0  0  0  0  3  0  0  0  0  0  0
  160.3170  210.4200  152.7220 N   0  0  0  0  0  0  0  0  0  0  0  0
  157.8830  213.6200  153.5090 C   0  0  0  0  0  2  0  0  0  0  0  0
  159.7530  212.4250  152.7250 C   0  0  0  0  0  0  0  0  0  0  0  0
  157.3020  212.3970  153.9660 C   0  0  0  0  0  3  0  0  0  0  0  0
  159.1850  211.2250  153.1730 C   0  0  1  0  0  0  0  0  0  0  0  0
  160.8680  211.6480  152.2790 C   0  0  1  0  0  3  0  0  0  0  0  0
  161.8760  204.6790  151.7090 C   0  0  0  0  0  3  0  0  0  0  0  0
  160.7590  206.3180  150.3220 C   0  0  0  0  0  3  0  0  0  0  0  0
  161.4620  205.9970  151.4930 C   0  0  0  0  0  0  0  0  0  0  0  0
  160.8690  204.0030  149.6030 C   0  0  0  0  0  0  0  0  0  0  0  0
  160.4620  205.3230  149.3850 C   0  0  0  0  0  3  0  0  0  0  0  0
  161.5810  203.6860  150.7700 C   0  0  0  0  0  3  0  0  0  0  0  0
  160.5480  203.0300  148.6530 O   0  0  0  0  0  0  0  0  0  0  0  0
  161.5210  202.4440  147.7960 C   0  0  0  0  0  2  0  0  0  0  0  0
  161.2200  202.7960  146.3830 C   0  0  0  0  0  0  0  0  0  0  0  0
  160.5610  201.8880  145.5690 O   0  0  0  0  0  0  0  0  0  0  0  0
  161.5330  203.9310  145.9360 O   0  0  0  0  0  1  0  0  0  0  0  0
  162.1560  208.2210  149.6690 O   0  0  0  0  0  0  0  0  0  0  0  0
  161.9720  210.5060  149.2600 C   0  0  0  0  0  0  0  0  0  0  0  0
  161.9550  209.1600  148.6270 C   0  0  0  0  0  2  0  0  0  0  0  0
  162.0380  210.3520  150.5500 C   0  0  0  0  0  3  0  0  0  0  0  0
  162.1040  208.9650  150.8100 N   0  0  0  0  0  0  0  0  0  0  0  0
  163.0490  213.4820  147.1800 N   0  0  0  0  0  2  0  0  0  0  0  0
  160.7050  213.1220  146.7730 C   0  0  0  0  0  3  0  0  0  0  0  0
  161.8840  211.8350  148.5700 C   0  0  2  0  0  3  0  0  0  0  0  0
  160.7680  211.8190  147.5210 C   0  0  0  0  0  2  0  0  0  0  0  0
  163.2010  212.2120  147.8880 C   0  0  0  0  0  2  0  0  0  0  0  0
  161.7970  213.8730  146.6020 C   0  0  0  0  0  3  0  0  0  0  0  0
  1  2  1  0  0  0  0
  1  4  2  0  0  0  0
  2 16  1  6  0  0  0
  2  5  1  0  0  0  0
  4  3  1  0  0  0  0
  5  3  2  0  0  0  0
  6 11  2  0  0  0  0
  7  9  1  0  0  0  0
  8  4  1  0  0  0  0
  8 12  1  0  0  0  0
  9 11  1  0  0  0  0
 10  7  2  0  0  0  0
 10 12  1  0  0  0  0
 12  6  1  1  0  0  0
 13  8  1  0  0  0  0
 13 10  1  6  0  0  0
 13 12  1  0  0  0  0
 15 16  2  0  0  0  0
 16 14  1  0  0  0  0
 17 19  1  0  0  0  0
 18 17  2  0  0  0  0
 18 15  1  0  0  0  0
 19 14  2  0  0  0  0
 20 17  1  0  0  0  0
 21 20  1  0  0  0  0
 22 21  1  0  0  0  0
 23 22  2  0  0  0  0
 24 22  1  0  0  0  0
 25 29  1  0  0  0  0
 26 28  2  0  0  0  0
 27 26  1  0  0  0  0
 27 25  1  0  0  0  0
 28 29  1  0  0  0  0
 29  1  1  0  0  0  0
 30 34  1  0  0  0  0
 31 33  1  0  0  0  0
 32 26  1  6  0  0  0
 33 32  1  0  0  0  0
 34 32  1  0  0  0  0
 35 31  2  0  0  0  0
 35 30  1  0  0  0  0
M  END
>  <MODEL>
7

>  <REMARK>
 VINA RESULT:      -6.9      2.295      3.318
  Name = 
  7 active torsions:
  status: ('A' for Active; 'I' for Inactive)
    1  A    between atoms: C_3  and  N_26
    2  A    between atoms: N_5  and  C_33
    3  A    between atoms: C_6  and  C_19
    4  A    between atoms: C_10  and  C_12
    5  A    between atoms: O_13  and  C_24
    6  A    between atoms: O_13  and  C_27
    7  A    between atoms: C_25  and  C_27
                            x       y       z     vdW  Elec       q    Type
                         _______ _______ _______ _____ _____    ______ ____

>  <TORSDO>
F 7

$$$$
=
 OpenBabel11052410443D

 35 41  0  0  1  0  0  0  0  0999 V2000
  161.6660  208.3040  151.9520 C   0  0  0  0  0  0  0  0  0  0  0  0
  162.5640  207.4760  151.0930 C   0  0  1  0  0  3  0  0  0  0  0  0
  162.1830  206.4980  153.2310 N   0  0  0  0  0  0  0  0  0  0  0  0
  161.5020  207.7340  153.1340 C   0  0  0  0  0  0  0  0  0  0  0  0
  162.8630  206.2510  151.9670 C   0  0  0  0  0  3  0  0  0  0  0  0
  162.0240  210.3430  155.5500 C   0  0  0  0  0  3  0  0  0  0  0  0
  159.4060  210.0920  156.8370 C   0  0  0  0  0  3  0  0  0  0  0  0
  160.8190  208.3120  154.2480 N   0  0  0  0  0  0  0  0  0  0  0  0
  160.3510  211.0690  157.2430 C   0  0  0  0  0  2  0  0  0  0  0  0
  159.8260  209.2850  155.7990 C   0  0  0  0  0  0  0  0  0  0  0  0
  161.6300  211.1910  156.6150 C   0  0  0  0  0  3  0  0  0  0  0  0
  161.0790  209.4040  155.1830 C   0  0  1  0  0  0  0  0  0  0  0  0
  159.5590  208.2150  154.8900 C   0  0  1  0  0  3  0  0  0  0  0  0
  160.7470  206.2920  149.8550 C   0  0  0  0  0  3  0  0  0  0  0  0
  162.4130  207.4790  148.5620 C   0  0  0  0  0  3  0  0  0  0  0  0
  161.8940  207.0900  149.8060 C   0  0  0  0  0  0  0  0  0  0  0  0
  160.6270  206.2910  147.4280 C   0  0  0  0  0  0  0  0  0  0  0  0
  161.7780  207.0830  147.3800 C   0  0  0  0  0  3  0  0  0  0  0  0
  160.1150  205.8940  148.6730 C   0  0  0  0  0  3  0  0  0  0  0  0
  160.0100  205.9200  146.2300 O   0  0  0  0  0  0  0  0  0  0  0  0
  160.7420  205.6550  145.0400 C   0  0  0  0  0  2  0  0  0  0  0  0
  161.4100  204.3310  145.1490 C   0  0  0  0  0  0  0  0  0  0  0  0
  162.7730  204.2620  145.4000 O   0  0  0  0  0  1  0  0  0  0  0  0
  160.7350  203.2730  145.0480 O   0  0  0  0  0  0  0  0  0  0  0  0
  160.6580  210.4510  152.4620 O   0  0  0  0  0  0  0  0  0  0  0  0
  161.4250  211.4550  150.5060 C   0  0  0  0  0  0  0  0  0  0  0  0
  160.9590  211.7140  151.8940 C   0  0  0  0  0  2  0  0  0  0  0  0
  161.5160  210.1680  150.3360 C   0  0  0  0  0  3  0  0  0  0  0  0
  161.0960  209.5510  151.5360 N   0  0  0  0  0  0  0  0  0  0  0  0
  162.7860  212.8580  147.2620 N   0  0  0  0  0  0  0  0  0  0  0  0
  160.8560  214.1620  147.8640 C   0  0  0  0  0  2  0  0  0  0  0  0
  161.7840  212.4730  149.4640 C   0  0  2  0  0  3  0  0  0  0  0  0
  160.5250  213.1820  148.9550 C   0  0  0  0  0  2  0  0  0  0  0  0
  162.5130  211.8420  148.2760 C   0  0  0  0  0  2  0  0  0  0  0  0
  161.9080  213.9740  147.0630 C   0  0  0  0  0  3  0  0  0  0  0  0
  1  4  2  0  0  0  0
  2 16  1  6  0  0  0
  2  1  1  0  0  0  0
  2  5  1  0  0  0  0
  4  3  1  0  0  0  0
  4  8  1  0  0  0  0
  5  3  2  0  0  0  0
  6 11  2  0  0  0  0
  7  9  1  0  0  0  0
  8 13  1  0  0  0  0
  8 12  1  0  0  0  0
 10  7  2  0  0  0  0
 11  9  1  0  0  0  0
 12  6  1  6  0  0  0
 12 10  1  0  0  0  0
 13 12  1  0  0  0  0
 13 10  1  1  0  0  0
 15 16  2  0  0  0  0
 16 14  1  0  0  0  0
 17 19  1  0  0  0  0
 18 17  2  0  0  0  0
 18 15  1  0  0  0  0
 19 14  2  0  0  0  0
 20 17  1  0  0  0  0
 21 22  1  0  0  0  0
 21 20  1  0  0  0  0
 22 23  1  0  0  0  0
 24 22  2  0  0  0  0
 26 27  1  0  0  0  0
 27 25  1  0  0  0  0
 28 26  2  0  0  0  0
 28 29  1  0  0  0  0
 29  1  1  0  0  0  0
 29 25  1  0  0  0  0
 30 34  1  0  0  0  0
 31 33  1  0  0  0  0
 32 26  1  1  0  0  0
 33 32  1  0  0  0  0
 34 32  1  0  0  0  0
 35 30  2  0  0  0  0
 35 31  1  0  0  0  0
M  END
>  <MODEL>
8

>  <REMARK>
 VINA RESULT:      -6.9      2.674      4.339
  Name = 
  7 active torsions:
  status: ('A' for Active; 'I' for Inactive)
    1  A    between atoms: C_3  and  N_26
    2  A    between atoms: N_5  and  C_33
    3  A    between atoms: C_6  and  C_19
    4  A    between atoms: C_10  and  C_12
    5  A    between atoms: O_13  and  C_24
    6  A    between atoms: O_13  and  C_27
    7  A    between atoms: C_25  and  C_27
                            x       y       z     vdW  Elec       q    Type
                         _______ _______ _______ _____ _____    ______ ____

>  <TORSDO>
F 7

$$$$
=
 OpenBabel11052410443D

 35 41  0  0  1  0  0  0  0  0999 V2000
  160.5960  213.3970  142.6450 C   0  0  0  0  0  0  0  0  0  0  0  0
  161.8440  213.7560  141.9090 C   0  0  1  0  0  3  0  0  0  0  0  0
  162.2330  213.3310  144.2200 N   0  0  0  0  0  0  0  0  0  0  0  0
  160.8570  213.1920  143.9260 C   0  0  0  0  0  0  0  0  0  0  0  0
  162.9320  213.6660  142.9870 C   0  0  0  0  0  3  0  0  0  0  0  0
  160.3980  213.9180  147.4160 C   0  0  0  0  0  3  0  0  0  0  0  0
  157.6980  212.8000  147.6050 C   0  0  0  0  0  3  0  0  0  0  0  0
  159.8820  212.9650  144.9460 N   0  0  0  0  0  0  0  0  0  0  0  0
  158.3370  213.4100  148.7140 C   0  0  0  0  0  2  0  0  0  0  0  0
  158.4520  212.7810  146.4490 C   0  0  0  0  0  0  0  0  0  0  0  0
  159.6560  213.9550  148.6220 C   0  0  0  0  0  3  0  0  0  0  0  0
  159.7440  213.3160  146.3570 C   0  0  1  0  0  0  0  0  0  0  0  0
  158.5750  212.4330  145.0680 C   0  0  1  0  0  3  0  0  0  0  0  0
  161.8980  213.2510  139.4640 C   0  0  0  0  0  3  0  0  0  0  0  0
  162.5200  211.4870  140.9990 C   0  0  0  0  0  3  0  0  0  0  0  0
  162.1070  212.8090  140.7740 C   0  0  0  0  0  0  0  0  0  0  0  0
  162.5320  211.0660  138.6100 C   0  0  0  0  0  0  0  0  0  0  0  0
  162.7340  210.6230  139.9210 C   0  0  0  0  0  3  0  0  0  0  0  0
  162.1100  212.3860  138.3860 C   0  0  0  0  0  3  0  0  0  0  0  0
  162.7640  210.1820  137.5530 O   0  0  0  0  0  0  0  0  0  0  0  0
  161.7470  209.3480  137.0120 C   0  0  0  0  0  2  0  0  0  0  0  0
  161.8130  208.0040  137.6440 C   0  0  0  0  0  0  0  0  0  0  0  0
  161.1100  207.7550  138.8140 O   0  0  0  0  0  1  0  0  0  0  0  0
  162.4770  207.0830  137.1010 O   0  0  0  0  0  0  0  0  0  0  0  0
  158.6060  214.4530  141.7460 O   0  0  0  0  0  0  0  0  0  0  0  0
  158.1590  212.7130  140.2630 C   0  0  0  0  0  0  0  0  0  0  0  0
  157.9320  214.1580  140.5350 C   0  0  0  0  0  2  0  0  0  0  0  0
  158.9920  212.2550  141.1510 C   0  0  0  0  0  3  0  0  0  0  0  0
  159.3050  213.3170  142.0290 N   0  0  0  0  0  0  0  0  0  0  0  0
  157.2710  209.6520  138.2180 N   0  0  0  0  0  2  0  0  0  0  0  0
  155.4590  211.2200  138.0030 C   0  0  0  0  0  3  0  0  0  0  0  0
  157.5830  211.8990  139.1430 C   0  0  2  0  0  3  0  0  0  0  0  0
  156.0630  212.0780  139.0800 C   0  0  0  0  0  2  0  0  0  0  0  0
  157.9020  210.4110  139.2960 C   0  0  0  0  0  2  0  0  0  0  0  0
  156.0300  210.0700  137.6340 C   0  0  0  0  0  3  0  0  0  0  0  0
  1  4  2  0  0  0  0
  2 16  1  6  0  0  0
  2  1  1  0  0  0  0
  2  5  1  0  0  0  0
  4  3  1  0  0  0  0
  4  8  1  0  0  0  0
  5  3  2  0  0  0  0
  6 11  2  0  0  0  0
  7  9  1  0  0  0  0
  8 13  1  0  0  0  0
  8 12  1  0  0  0  0
 10  7  2  0  0  0  0
 11  9  1  0  0  0  0
 12 10  1  0  0  0  0
 12  6  1  6  0  0  0
 13 12  1  0  0  0  0
 13 10  1  1  0  0  0
 14 16  1  0  0  0  0
 16 15  2  0  0  0  0
 17 18  2  0  0  0  0
 18 15  1  0  0  0  0
 19 17  1  0  0  0  0
 19 14  2  0  0  0  0
 20 17  1  0  0  0  0
 21 20  1  0  0  0  0
 21 22  1  0  0  0  0
 22 23  1  0  0  0  0
 24 22  2  0  0  0  0
 25 29  1  0  0  0  0
 26 27  1  0  0  0  0
 26 28  2  0  0  0  0
 27 25  1  0  0  0  0
 28 29  1  0  0  0  0
 29  1  1  0  0  0  0
 30 34  1  0  0  0  0
 31 33  1  0  0  0  0
 32 34  1  0  0  0  0
 32 26  1  1  0  0  0
 33 32  1  0  0  0  0
 35 31  2  0  0  0  0
 35 30  1  0  0  0  0
M  END
>  <MODEL>
9

>  <REMARK>
 VINA RESULT:      -6.8      8.650     11.120
  Name = 
  7 active torsions:
  status: ('A' for Active; 'I' for Inactive)
    1  A    between atoms: C_3  and  N_26
    2  A    between atoms: N_5  and  C_33
    3  A    between atoms: C_6  and  C_19
    4  A    between atoms: C_10  and  C_12
    5  A    between atoms: O_13  and  C_24
    6  A    between atoms: O_13  and  C_27
    7  A    between atoms: C_25  and  C_27
                            x       y       z     vdW  Elec       q    Type
                         _______ _______ _______ _____ _____    ______ ____

>  <TORSDO>
F 7

$$$$
