=
 OpenBabel11052411043D

 34 35  0  0  1  0  0  0  0  0999 V2000
  162.0990  206.0930  153.2600 C   0  0  0  0  0  1  0  0  0  0  0  0
  160.9060  206.8680  152.7320 C   0  0  1  0  0  3  0  0  0  0  0  0
  160.5870  208.7640  154.3420 C   0  0  0  0  0  0  0  0  0  0  0  0
  161.1110  210.8420  153.1930 C   0  0  0  0  0  2  0  0  0  0  0  0
  161.6270  209.5260  152.0460 S   0  0  0  0  0  0  0  0  0  0  0  0
  160.7200  210.2370  154.5380 C   0  0  1  0  0  3  0  0  0  0  0  0
  160.9580  208.3090  153.1500 C   0  0  0  0  0  0  0  0  0  0  0  0
  160.1350  207.8830  155.3770 N   0  0  0  0  0  2  0  0  0  0  0  0
  160.8710  207.5710  156.3360 O   0  0  0  0  0  1  0  0  0  0  0  0
  159.3940  210.8290  155.0070 C   0  0  0  0  0  2  0  0  0  0  0  0
  159.3920  212.3540  154.9350 C   0  0  2  0  0  3  0  0  0  0  0  0
  160.1000  212.9330  156.1460 C   0  0  0  0  0  1  0  0  0  0  0  0
  157.9780  212.9240  154.7870 C   0  0  0  0  0  2  0  0  0  0  0  0
  157.7830  213.7270  153.5060 C   0  0  0  0  0  2  0  0  0  0  0  0
  158.9730  213.6430  152.6760 N   0  0  0  0  0  2  0  0  0  0  0  0
  160.1030  213.1660  150.5420 N   0  0  0  0  0  1  0  0  0  0  0  0
  158.9030  213.3200  151.2870 C   0  0  0  0  0  0  0  0  0  0  0  0
  157.7900  213.1690  150.7170 O   0  0  0  0  0  0  0  0  0  0  0  0
  160.8280  206.7490  151.2860 N   0  0  0  0  0  2  0  0  0  0  0  0
  161.6530  205.6090  150.9090 C   0  0  0  0  0  2  0  0  0  0  0  0
  161.4610  205.2510  149.4370 C   0  0  1  0  0  3  0  0  0  0  0  0
  160.5710  201.1430  148.9270 N   0  0  0  0  0  0  0  0  0  0  0  0
  161.1690  203.7930  149.2570 C   0  0  0  0  0  0  0  0  0  0  0  0
  160.9220  201.9010  147.8570 C   0  0  0  0  0  0  0  0  0  0  0  0
  161.2110  203.2170  148.0240 N   0  0  0  0  0  0  0  0  0  0  0  0
  160.5060  201.6810  150.1720 C   0  0  0  0  0  3  0  0  0  0  0  0
  160.8000  203.0290  150.3640 C   0  0  0  0  0  3  0  0  0  0  0  0
  160.9700  201.3200  146.5600 N   0  0  0  0  0  1  0  0  0  0  0  0
  160.4170  206.1270  148.7540 C   0  0  0  0  0  2  0  0  0  0  0  0
  161.0550  206.9490  147.6480 C   0  0  0  0  0  2  0  0  0  0  0  0
  160.8760  206.2340  146.3230 C   0  0  0  0  0  2  0  0  0  0  0  0
  162.2210  205.7640  145.7930 C   0  0  0  0  0  2  0  0  0  0  0  0
  162.0660  204.5670  145.0900 O   0  0  0  0  0  0  0  0  0  0  0  0
  160.7380  204.5830  144.6660 C   0  0  0  0  0  1  0  0  0  0  0  0
  2  7  1  0  0  0  0
  2  1  1  6  0  0  0
  3  6  1  0  0  0  0
  3  8  1  0  0  0  0
  4  6  1  0  0  0  0
  5  7  1  0  0  0  0
  5  4  1  0  0  0  0
  6 10  1  6  0  0  0
  7  3  2  0  0  0  0
  8  9  1  0  0  0  0
 11 10  1  0  0  0  0
 11 12  1  1  0  0  0
 13 11  1  0  0  0  0
 14 13  1  0  0  0  0
 15 14  1  0  0  0  0
 16 17  1  0  0  0  0
 17 15  1  0  0  0  0
 18 17  2  0  0  0  0
 19  2  1  0  0  0  0
 20 19  1  0  0  0  0
 21 29  1  1  0  0  0
 21 20  1  0  0  0  0
 22 26  1  0  0  0  0
 23 21  1  0  0  0  0
 23 27  1  0  0  0  0
 24 25  1  0  0  0  0
 24 22  2  0  0  0  0
 25 23  2  0  0  0  0
 26 27  2  0  0  0  0
 28 24  1  0  0  0  0
 30 29  1  0  0  0  0
 31 30  1  0  0  0  0
 32 31  1  0  0  0  0
 33 32  1  0  0  0  0
 34 33  1  0  0  0  0
M  END
>  <MODEL>
1

>  <REMARK>
 VINA RESULT:      -6.5      0.000      0.000
  Name = 
  16 active torsions:
  status: ('A' for Active; 'I' for Inactive)
    1  A    between atoms: C_1  and  C_9
    2  A    between atoms: C_1  and  C_21
    3  A    between atoms: C_2  and  C_3
    4  A    between atoms: C_2  and  N_4
    5  A    between atoms: C_3  and  C_29
    6  A    between atoms: C_6  and  C_15
    7  A    between atoms: C_6  and  C_29
    8  A    between atoms: C_7  and  N_12
    9  A    between atoms: O_8  and  C_27
   10  A    between atoms: C_9  and  C_31
   11  A    between atoms: C_13  and  C_21
   12  A    between atoms: C_21  and  C_32
   13  A    between atoms: C_23  and  C_25
   14  A    between atoms: C_23  and  N_33
   15  A    between atoms: C_27  and  C_31
   16  A    between atoms: C_32  and  N_33
                            x       y       z     vdW  Elec       q    Type
                         _______ _______ _______ _____ _____    ______ ____

>  <TORSDO>
F 16

$$$$
=
 OpenBabel11052411043D

 34 35  0  0  1  0  0  0  0  0999 V2000
  161.9730  209.8120  148.9490 C   0  0  0  0  0  1  0  0  0  0  0  0
  161.5810  208.7260  149.9340 C   0  0  1  0  0  3  0  0  0  0  0  0
  160.9120  206.3110  149.8300 C   0  0  0  0  0  0  0  0  0  0  0  0
  161.4760  205.4530  147.6260 C   0  0  0  0  0  2  0  0  0  0  0  0
  161.7420  207.2500  147.5140 S   0  0  0  0  0  0  0  0  0  0  0  0
  160.8140  205.1050  148.9570 C   0  0  1  0  0  3  0  0  0  0  0  0
  161.3920  207.4040  149.2470 C   0  0  0  0  0  0  0  0  0  0  0  0
  160.4780  206.3140  151.1960 N   0  0  0  0  0  2  0  0  0  0  0  0
  161.2590  206.0390  152.1300 O   0  0  0  0  0  1  0  0  0  0  0  0
  161.5350  203.9260  149.6020 C   0  0  0  0  0  2  0  0  0  0  0  0
  160.5650  202.9760  150.3000 C   0  0  2  0  0  3  0  0  0  0  0  0
  161.1420  202.5270  151.6300 C   0  0  0  0  0  1  0  0  0  0  0  0
  160.1930  201.7800  149.4200 C   0  0  0  0  0  2  0  0  0  0  0  0
  161.2580  201.4400  148.3830 C   0  0  0  0  0  2  0  0  0  0  0  0
  160.6370  200.9150  147.1790 N   0  0  0  0  0  2  0  0  0  0  0  0
  159.9280  201.1250  144.8320 N   0  0  0  0  0  1  0  0  0  0  0  0
  160.6250  201.6470  145.9540 C   0  0  0  0  0  0  0  0  0  0  0  0
  161.2250  202.7510  145.8590 O   0  0  0  0  0  0  0  0  0  0  0  0
  162.5720  208.6240  150.9920 N   0  0  0  0  0  2  0  0  0  0  0  0
  162.4680  209.8380  151.7900 C   0  0  0  0  0  2  0  0  0  0  0  0
  161.1400  209.8940  152.5420 C   0  0  1  0  0  3  0  0  0  0  0  0
  161.5820  209.0140  156.6600 N   0  0  0  0  0  0  0  0  0  0  0  0
  161.3130  209.5670  153.9930 C   0  0  0  0  0  0  0  0  0  0  0  0
  160.8470  208.1960  155.8640 C   0  0  0  0  0  0  0  0  0  0  0  0
  160.7100  208.4780  154.5430 N   0  0  0  0  0  0  0  0  0  0  0  0
  162.1920  210.1160  156.1530 C   0  0  0  0  0  3  0  0  0  0  0  0
  162.0650  210.4220  154.8000 C   0  0  0  0  0  3  0  0  0  0  0  0
  160.2060  207.0540  156.4180 N   0  0  0  0  0  1  0  0  0  0  0  0
  160.4110  211.2180  152.3410 C   0  0  0  0  0  2  0  0  0  0  0  0
  158.9970  211.1330  152.8910 C   0  0  0  0  0  2  0  0  0  0  0  0
  158.7540  212.2930  153.8360 C   0  0  0  0  0  2  0  0  0  0  0  0
  158.1130  211.7980  155.1220 C   0  0  0  0  0  2  0  0  0  0  0  0
  156.8270  212.3280  155.2510 O   0  0  0  0  0  0  0  0  0  0  0  0
  155.9980  211.2090  155.3310 C   0  0  0  0  0  1  0  0  0  0  0  0
  2  1  1  6  0  0  0
  2 19  1  0  0  0  0
  3  8  1  0  0  0  0
  4  6  1  0  0  0  0
  5  4  1  0  0  0  0
  5  7  1  0  0  0  0
  6 10  1  1  0  0  0
  6  3  1  0  0  0  0
  7  3  2  0  0  0  0
  7  2  1  0  0  0  0
  8  9  1  0  0  0  0
 10 11  1  0  0  0  0
 11 12  1  1  0  0  0
 13 11  1  0  0  0  0
 14 13  1  0  0  0  0
 15 14  1  0  0  0  0
 16 17  1  0  0  0  0
 17 15  1  0  0  0  0
 18 17  2  0  0  0  0
 19 20  1  0  0  0  0
 21 20  1  1  0  0  0
 21 23  1  0  0  0  0
 23 25  2  0  0  0  0
 23 27  1  0  0  0  0
 24 28  1  0  0  0  0
 24 22  2  0  0  0  0
 25 24  1  0  0  0  0
 26 22  1  0  0  0  0
 27 26  2  0  0  0  0
 29 21  1  0  0  0  0
 29 30  1  0  0  0  0
 30 31  1  0  0  0  0
 31 32  1  0  0  0  0
 32 33  1  0  0  0  0
 33 34  1  0  0  0  0
M  END
>  <MODEL>
2

>  <REMARK>
 VINA RESULT:      -6.2      2.541      9.467
  Name = 
  16 active torsions:
  status: ('A' for Active; 'I' for Inactive)
    1  A    between atoms: C_1  and  C_9
    2  A    between atoms: C_1  and  C_21
    3  A    between atoms: C_2  and  C_3
    4  A    between atoms: C_2  and  N_4
    5  A    between atoms: C_3  and  C_29
    6  A    between atoms: C_6  and  C_15
    7  A    between atoms: C_6  and  C_29
    8  A    between atoms: C_7  and  N_12
    9  A    between atoms: O_8  and  C_27
   10  A    between atoms: C_9  and  C_31
   11  A    between atoms: C_13  and  C_21
   12  A    between atoms: C_21  and  C_32
   13  A    between atoms: C_23  and  C_25
   14  A    between atoms: C_23  and  N_33
   15  A    between atoms: C_27  and  C_31
   16  A    between atoms: C_32  and  N_33
                            x       y       z     vdW  Elec       q    Type
                         _______ _______ _______ _____ _____    ______ ____

>  <TORSDO>
F 16

$$$$
=
 OpenBabel11052411043D

 34 35  0  0  1  0  0  0  0  0999 V2000
  161.8220  206.3610  153.4040 C   0  0  0  0  0  1  0  0  0  0  0  0
  161.7170  207.1570  152.1160 C   0  0  1  0  0  3  0  0  0  0  0  0
  161.7550  206.5930  149.6730 C   0  0  0  0  0  0  0  0  0  0  0  0
  160.7510  204.3970  149.3770 C   0  0  0  0  0  2  0  0  0  0  0  0
  160.9250  204.5970  151.1770 S   0  0  0  0  0  0  0  0  0  0  0  0
  161.4540  205.5440  148.6540 C   0  0  1  0  0  3  0  0  0  0  0  0
  161.4960  206.2600  150.9330 C   0  0  0  0  0  0  0  0  0  0  0  0
  162.3280  207.8600  149.3310 N   0  0  0  0  0  2  0  0  0  0  0  0
  161.6190  208.8200  148.9650 O   0  0  0  0  0  1  0  0  0  0  0  0
  160.5420  206.1090  147.5690 C   0  0  0  0  0  2  0  0  0  0  0  0
  161.2490  206.1980  146.2190 C   0  0  2  0  0  3  0  0  0  0  0  0
  160.2280  206.1960  145.0960 C   0  0  0  0  0  1  0  0  0  0  0  0
  162.2860  205.0860  146.0340 C   0  0  0  0  0  2  0  0  0  0  0  0
  161.7040  203.8150  145.4260 C   0  0  0  0  0  2  0  0  0  0  0  0
  161.7050  202.7430  146.4070 N   0  0  0  0  0  2  0  0  0  0  0  0
  160.8560  200.6110  147.2960 N   0  0  0  0  0  1  0  0  0  0  0  0
  160.8800  201.5870  146.2640 C   0  0  0  0  0  0  0  0  0  0  0  0
  160.1720  201.4250  145.2340 O   0  0  0  0  0  0  0  0  0  0  0  0
  160.6600  208.1470  152.2200 N   0  0  0  0  0  2  0  0  0  0  0  0
  161.3040  209.4350  152.4400 C   0  0  0  0  0  2  0  0  0  0  0  0
  160.6440  210.1950  153.5880 C   0  0  1  0  0  3  0  0  0  0  0  0
  162.6220  209.4040  157.2470 N   0  0  0  0  0  0  0  0  0  0  0  0
  161.3300  209.9320  154.8920 C   0  0  0  0  0  0  0  0  0  0  0  0
  162.9980  210.4630  156.4860 C   0  0  0  0  0  0  0  0  0  0  0  0
  162.3590  210.7180  155.3140 N   0  0  0  0  0  0  0  0  0  0  0  0
  161.6080  208.5890  156.8570 C   0  0  0  0  0  3  0  0  0  0  0  0
  160.9390  208.8340  155.6600 C   0  0  0  0  0  3  0  0  0  0  0  0
  164.0710  211.2950  156.9060 N   0  0  0  0  0  1  0  0  0  0  0  0
  160.5180  211.6880  153.3040 C   0  0  0  0  0  2  0  0  0  0  0  0
  159.0610  212.1170  153.3520 C   0  0  0  0  0  2  0  0  0  0  0  0
  158.2700  211.1190  154.1740 C   0  0  0  0  0  2  0  0  0  0  0  0
  156.9130  211.6980  154.5410 C   0  0  0  0  0  2  0  0  0  0  0  0
  157.0650  212.7080  155.4930 O   0  0  0  0  0  0  0  0  0  0  0  0
  157.2450  212.0260  156.6960 C   0  0  0  0  0  1  0  0  0  0  0  0
  2 19  1  0  0  0  0
  2  1  1  1  0  0  0
  3  7  2  0  0  0  0
  4  5  1  0  0  0  0
  6 10  1  6  0  0  0
  6  4  1  0  0  0  0
  6  3  1  0  0  0  0
  7  5  1  0  0  0  0
  7  2  1  0  0  0  0
  8  3  1  0  0  0  0
  9  8  1  0  0  0  0
 11 12  1  6  0  0  0
 11 10  1  0  0  0  0
 13 11  1  0  0  0  0
 14 13  1  0  0  0  0
 14 15  1  0  0  0  0
 17 15  1  0  0  0  0
 17 16  1  0  0  0  0
 18 17  2  0  0  0  0
 19 20  1  0  0  0  0
 21 20  1  6  0  0  0
 21 23  1  0  0  0  0
 23 25  2  0  0  0  0
 23 27  1  0  0  0  0
 24 28  1  0  0  0  0
 24 22  2  0  0  0  0
 25 24  1  0  0  0  0
 26 22  1  0  0  0  0
 27 26  2  0  0  0  0
 29 30  1  0  0  0  0
 29 21  1  0  0  0  0
 30 31  1  0  0  0  0
 31 32  1  0  0  0  0
 32 33  1  0  0  0  0
 33 34  1  0  0  0  0
M  END
>  <MODEL>
3

>  <REMARK>
 VINA RESULT:      -6.1      2.620      9.876
  Name = 
  16 active torsions:
  status: ('A' for Active; 'I' for Inactive)
    1  A    between atoms: C_1  and  C_9
    2  A    between atoms: C_1  and  C_21
    3  A    between atoms: C_2  and  C_3
    4  A    between atoms: C_2  and  N_4
    5  A    between atoms: C_3  and  C_29
    6  A    between atoms: C_6  and  C_15
    7  A    between atoms: C_6  and  C_29
    8  A    between atoms: C_7  and  N_12
    9  A    between atoms: O_8  and  C_27
   10  A    between atoms: C_9  and  C_31
   11  A    between atoms: C_13  and  C_21
   12  A    between atoms: C_21  and  C_32
   13  A    between atoms: C_23  and  C_25
   14  A    between atoms: C_23  and  N_33
   15  A    between atoms: C_27  and  C_31
   16  A    between atoms: C_32  and  N_33
                            x       y       z     vdW  Elec       q    Type
                         _______ _______ _______ _____ _____    ______ ____

>  <TORSDO>
F 16

$$$$
=
 OpenBabel11052411043D

 34 35  0  0  1  0  0  0  0  0999 V2000
  162.6650  206.2720  152.1960 C   0  0  0  0  0  1  0  0  0  0  0  0
  161.2840  206.9020  152.1650 C   0  0  1  0  0  3  0  0  0  0  0  0
  161.1450  208.4820  154.1070 C   0  0  0  0  0  0  0  0  0  0  0  0
  161.1960  210.7580  153.2510 C   0  0  0  0  0  2  0  0  0  0  0  0
  161.5730  209.7050  151.8140 S   0  0  0  0  0  0  0  0  0  0  0  0
  161.1730  209.9150  154.5230 C   0  0  1  0  0  3  0  0  0  0  0  0
  161.2870  208.2610  152.8050 C   0  0  0  0  0  0  0  0  0  0  0  0
  161.0200  207.4070  155.0460 N   0  0  0  0  0  2  0  0  0  0  0  0
  159.9040  206.9700  155.3920 O   0  0  0  0  0  1  0  0  0  0  0  0
  159.9320  210.2510  155.3440 C   0  0  0  0  0  2  0  0  0  0  0  0
  160.1380  211.4900  156.2120 C   0  0  2  0  0  3  0  0  0  0  0  0
  161.5120  211.4510  156.8550 C   0  0  0  0  0  1  0  0  0  0  0  0
  159.0340  211.6530  157.2600 C   0  0  0  0  0  2  0  0  0  0  0  0
  157.8230  212.4230  156.7440 C   0  0  0  0  0  2  0  0  0  0  0  0
  156.7410  211.5040  156.4320 N   0  0  0  0  0  2  0  0  0  0  0  0
  155.2470  210.3690  154.8390 N   0  0  0  0  0  1  0  0  0  0  0  0
  156.3690  211.2060  155.0870 C   0  0  0  0  0  0  0  0  0  0  0  0
  157.0230  211.6760  154.1180 O   0  0  0  0  0  0  0  0  0  0  0  0
  160.7930  206.9730  150.7990 N   0  0  0  0  0  2  0  0  0  0  0  0
  160.3640  205.6300  150.4330 C   0  0  0  0  0  2  0  0  0  0  0  0
  161.1570  205.1030  149.2380 C   0  0  1  0  0  3  0  0  0  0  0  0
  160.8000  200.8970  148.9110 N   0  0  0  0  0  0  0  0  0  0  0  0
  161.0540  203.6140  149.1200 C   0  0  0  0  0  0  0  0  0  0  0  0
  160.9280  201.6580  147.7940 C   0  0  0  0  0  0  0  0  0  0  0  0
  161.0460  203.0070  147.9020 N   0  0  0  0  0  0  0  0  0  0  0  0
  160.7920  201.4650  150.1450 C   0  0  0  0  0  3  0  0  0  0  0  0
  160.9140  202.8460  150.2760 C   0  0  0  0  0  3  0  0  0  0  0  0
  160.9200  201.0450  146.5120 N   0  0  0  0  0  1  0  0  0  0  0  0
  160.7840  205.8030  147.9360 C   0  0  0  0  0  2  0  0  0  0  0  0
  162.0150  206.4180  147.2920 C   0  0  0  0  0  2  0  0  0  0  0  0
  162.6060  205.4370  146.2990 C   0  0  0  0  0  2  0  0  0  0  0  0
  162.0770  205.7170  144.9030 C   0  0  0  0  0  2  0  0  0  0  0  0
  160.6920  205.5350  144.8700 O   0  0  0  0  0  0  0  0  0  0  0  0
  160.5270  204.1880  144.5520 C   0  0  0  0  0  1  0  0  0  0  0  0
  2  1  1  6  0  0  0
  2  7  1  0  0  0  0
  3  6  1  0  0  0  0
  3  8  1  0  0  0  0
  4  6  1  0  0  0  0
  5  7  1  0  0  0  0
  5  4  1  0  0  0  0
  6 10  1  6  0  0  0
  7  3  2  0  0  0  0
  8  9  1  0  0  0  0
 10 11  1  0  0  0  0
 11 12  1  1  0  0  0
 11 13  1  0  0  0  0
 14 13  1  0  0  0  0
 15 14  1  0  0  0  0
 16 17  1  0  0  0  0
 17 15  1  0  0  0  0
 18 17  2  0  0  0  0
 19  2  1  0  0  0  0
 20 19  1  0  0  0  0
 21 29  1  6  0  0  0
 21 20  1  0  0  0  0
 22 26  1  0  0  0  0
 23 21  1  0  0  0  0
 23 27  1  0  0  0  0
 24 25  1  0  0  0  0
 24 22  2  0  0  0  0
 25 23  2  0  0  0  0
 26 27  2  0  0  0  0
 28 24  1  0  0  0  0
 30 29  1  0  0  0  0
 31 30  1  0  0  0  0
 32 31  1  0  0  0  0
 33 32  1  0  0  0  0
 34 33  1  0  0  0  0
M  END
>  <MODEL>
4

>  <REMARK>
 VINA RESULT:      -6.1      1.961      2.181
  Name = 
  16 active torsions:
  status: ('A' for Active; 'I' for Inactive)
    1  A    between atoms: C_1  and  C_9
    2  A    between atoms: C_1  and  C_21
    3  A    between atoms: C_2  and  C_3
    4  A    between atoms: C_2  and  N_4
    5  A    between atoms: C_3  and  C_29
    6  A    between atoms: C_6  and  C_15
    7  A    between atoms: C_6  and  C_29
    8  A    between atoms: C_7  and  N_12
    9  A    between atoms: O_8  and  C_27
   10  A    between atoms: C_9  and  C_31
   11  A    between atoms: C_13  and  C_21
   12  A    between atoms: C_21  and  C_32
   13  A    between atoms: C_23  and  C_25
   14  A    between atoms: C_23  and  N_33
   15  A    between atoms: C_27  and  C_31
   16  A    between atoms: C_32  and  N_33
                            x       y       z     vdW  Elec       q    Type
                         _______ _______ _______ _____ _____    ______ ____

>  <TORSDO>
F 16

$$$$
=
 OpenBabel11052411043D

 34 35  0  0  1  0  0  0  0  0999 V2000
  162.2000  209.2410  151.3110 C   0  0  0  0  0  1  0  0  0  0  0  0
  161.6810  208.0200  152.0470 C   0  0  1  0  0  3  0  0  0  0  0  0
  160.4330  209.5390  153.6040 C   0  0  0  0  0  0  0  0  0  0  0  0
  160.3990  208.5170  155.8100 C   0  0  0  0  0  2  0  0  0  0  0  0
  161.0750  207.2360  154.7080 S   0  0  0  0  0  0  0  0  0  0  0  0
  159.9000  209.7020  154.9880 C   0  0  1  0  0  3  0  0  0  0  0  0
  161.0630  208.3950  153.3640 C   0  0  0  0  0  0  0  0  0  0  0  0
  160.2430  210.5240  152.5810 N   0  0  0  0  0  2  0  0  0  0  0  0
  159.1240  211.0320  152.3650 O   0  0  0  0  0  1  0  0  0  0  0  0
  160.4060  211.0060  155.5980 C   0  0  0  0  0  2  0  0  0  0  0  0
  159.2630  211.9620  155.9320 C   0  0  2  0  0  3  0  0  0  0  0  0
  157.9340  211.2320  155.8490 C   0  0  0  0  0  1  0  0  0  0  0  0
  159.2730  213.2090  155.0440 C   0  0  0  0  0  2  0  0  0  0  0  0
  158.1150  214.1590  155.3270 C   0  0  0  0  0  2  0  0  0  0  0  0
  157.3120  214.3430  154.1300 N   0  0  0  0  0  2  0  0  0  0  0  0
  155.2240  214.0780  152.8550 N   0  0  0  0  0  1  0  0  0  0  0  0
  155.9390  213.9570  154.0760 C   0  0  0  0  0  0  0  0  0  0  0  0
  155.3550  213.5120  155.1000 O   0  0  0  0  0  0  0  0  0  0  0  0
  160.7340  207.2960  151.2170 N   0  0  0  0  0  2  0  0  0  0  0  0
  161.2170  205.9260  151.1170 C   0  0  0  0  0  2  0  0  0  0  0  0
  161.2830  205.4670  149.6620 C   0  0  1  0  0  3  0  0  0  0  0  0
  160.7390  201.2820  149.3290 N   0  0  0  0  0  0  0  0  0  0  0  0
  161.1140  203.9840  149.5420 C   0  0  0  0  0  0  0  0  0  0  0  0
  160.9040  202.0370  148.2130 C   0  0  0  0  0  0  0  0  0  0  0  0
  161.0820  203.3790  148.3230 N   0  0  0  0  0  0  0  0  0  0  0  0
  160.7530  201.8480  150.5640 C   0  0  0  0  0  3  0  0  0  0  0  0
  160.9370  203.2220  150.6970 C   0  0  0  0  0  3  0  0  0  0  0  0
  160.8720  201.4260  146.9300 N   0  0  0  0  0  1  0  0  0  0  0  0
  160.3080  206.2240  148.7670 C   0  0  0  0  0  2  0  0  0  0  0  0
  161.0610  207.0100  147.7070 C   0  0  0  0  0  2  0  0  0  0  0  0
  161.0240  206.2500  146.3960 C   0  0  0  0  0  2  0  0  0  0  0  0
  162.3880  205.6480  146.0970 C   0  0  0  0  0  2  0  0  0  0  0  0
  162.2560  204.5890  145.1970 O   0  0  0  0  0  0  0  0  0  0  0  0
  160.9460  204.6880  144.7330 C   0  0  0  0  0  1  0  0  0  0  0  0
  2  1  1  6  0  0  0
  2  7  1  0  0  0  0
  3  6  1  0  0  0  0
  5  4  1  0  0  0  0
  6 10  1  1  0  0  0
  6  4  1  0  0  0  0
  7  3  2  0  0  0  0
  7  5  1  0  0  0  0
  8  3  1  0  0  0  0
  9  8  1  0  0  0  0
 10 11  1  0  0  0  0
 11 12  1  6  0  0  0
 13 14  1  0  0  0  0
 13 11  1  0  0  0  0
 15 14  1  0  0  0  0
 16 17  1  0  0  0  0
 17 15  1  0  0  0  0
 17 18  2  0  0  0  0
 19  2  1  0  0  0  0
 20 19  1  0  0  0  0
 21 29  1  6  0  0  0
 21 20  1  0  0  0  0
 22 26  1  0  0  0  0
 23 21  1  0  0  0  0
 23 27  1  0  0  0  0
 24 25  1  0  0  0  0
 24 22  2  0  0  0  0
 25 23  2  0  0  0  0
 26 27  2  0  0  0  0
 28 24  1  0  0  0  0
 30 29  1  0  0  0  0
 31 30  1  0  0  0  0
 32 31  1  0  0  0  0
 33 32  1  0  0  0  0
 34 33  1  0  0  0  0
M  END
>  <MODEL>
5

>  <REMARK>
 VINA RESULT:      -6.0      1.895      2.333
  Name = 
  16 active torsions:
  status: ('A' for Active; 'I' for Inactive)
    1  A    between atoms: C_1  and  C_9
    2  A    between atoms: C_1  and  C_21
    3  A    between atoms: C_2  and  C_3
    4  A    between atoms: C_2  and  N_4
    5  A    between atoms: C_3  and  C_29
    6  A    between atoms: C_6  and  C_15
    7  A    between atoms: C_6  and  C_29
    8  A    between atoms: C_7  and  N_12
    9  A    between atoms: O_8  and  C_27
   10  A    between atoms: C_9  and  C_31
   11  A    between atoms: C_13  and  C_21
   12  A    between atoms: C_21  and  C_32
   13  A    between atoms: C_23  and  C_25
   14  A    between atoms: C_23  and  N_33
   15  A    between atoms: C_27  and  C_31
   16  A    between atoms: C_32  and  N_33
                            x       y       z     vdW  Elec       q    Type
                         _______ _______ _______ _____ _____    ______ ____

>  <TORSDO>
F 16

$$$$
=
 OpenBabel11052411043D

 34 35  0  0  1  0  0  0  0  0999 V2000
  160.9360  208.8860  154.7140 C   0  0  0  0  0  1  0  0  0  0  0  0
  161.2090  208.8160  153.2230 C   0  0  1  0  0  3  0  0  0  0  0  0
  161.4950  207.0320  151.4850 C   0  0  0  0  0  0  0  0  0  0  0  0
  161.1740  204.8680  152.5460 C   0  0  0  0  0  2  0  0  0  0  0  0
  161.2180  206.0640  153.9180 S   0  0  0  0  0  0  0  0  0  0  0  0
  161.5440  205.5610  151.2380 C   0  0  1  0  0  3  0  0  0  0  0  0
  161.2980  207.3950  152.7470 C   0  0  0  0  0  0  0  0  0  0  0  0
  161.6930  207.9970  150.4450 N   0  0  0  0  0  2  0  0  0  0  0  0
  162.5950  207.8630  149.5930 O   0  0  0  0  0  1  0  0  0  0  0  0
  160.5490  205.1760  150.1480 C   0  0  0  0  0  2  0  0  0  0  0  0
  161.2110  204.3810  149.0250 C   0  0  2  0  0  3  0  0  0  0  0  0
  161.2500  205.2100  147.7540 C   0  0  0  0  0  1  0  0  0  0  0  0
  160.5290  203.0300  148.7910 C   0  0  0  0  0  2  0  0  0  0  0  0
  161.4740  201.9630  148.2520 C   0  0  0  0  0  2  0  0  0  0  0  0
  160.8290  201.2100  147.1900 N   0  0  0  0  0  2  0  0  0  0  0  0
  160.0070  200.9810  144.8820 N   0  0  0  0  0  1  0  0  0  0  0  0
  160.7250  201.7190  145.8600 C   0  0  0  0  0  0  0  0  0  0  0  0
  161.2610  202.8150  145.5470 O   0  0  0  0  0  0  0  0  0  0  0  0
  160.1900  209.5470  152.4900 N   0  0  0  0  0  2  0  0  0  0  0  0
  160.5800  210.9510  152.5050 C   0  0  0  0  0  2  0  0  0  0  0  0
  159.3610  211.8640  152.3870 C   0  0  1  0  0  3  0  0  0  0  0  0
  157.4190  212.4610  156.1020 N   0  0  0  0  0  0  0  0  0  0  0  0
  158.6850  212.0550  153.7090 C   0  0  0  0  0  0  0  0  0  0  0  0
  156.9050  211.5880  155.1980 C   0  0  0  0  0  0  0  0  0  0  0  0
  157.5320  211.3950  154.0080 N   0  0  0  0  0  0  0  0  0  0  0  0
  158.5600  213.1480  155.8370 C   0  0  0  0  0  3  0  0  0  0  0  0
  159.2190  212.9620  154.6240 C   0  0  0  0  0  3  0  0  0  0  0  0
  155.7020  210.8900  155.4890 N   0  0  0  0  0  1  0  0  0  0  0  0
  159.6910  213.1940  151.7200 C   0  0  0  0  0  2  0  0  0  0  0  0
  158.8980  213.3540  150.4340 C   0  0  0  0  0  2  0  0  0  0  0  0
  159.5570  214.4060  149.5640 C   0  0  0  0  0  2  0  0  0  0  0  0
  160.8130  213.8440  148.9190 C   0  0  0  0  0  2  0  0  0  0  0  0
  160.4730  212.8770  147.9710 O   0  0  0  0  0  0  0  0  0  0  0  0
  161.3170  213.1360  146.8920 C   0  0  0  0  0  1  0  0  0  0  0  0
  2  1  1  1  0  0  0
  3  7  2  0  0  0  0
  4  5  1  0  0  0  0
  6 10  1  6  0  0  0
  6  3  1  0  0  0  0
  6  4  1  0  0  0  0
  7  2  1  0  0  0  0
  7  5  1  0  0  0  0
  8  3  1  0  0  0  0
  9  8  1  0  0  0  0
 11 12  1  6  0  0  0
 11 10  1  0  0  0  0
 13 11  1  0  0  0  0
 14 13  1  0  0  0  0
 15 14  1  0  0  0  0
 16 17  1  0  0  0  0
 17 15  1  0  0  0  0
 18 17  2  0  0  0  0
 19 20  1  0  0  0  0
 19  2  1  0  0  0  0
 21 29  1  1  0  0  0
 21 20  1  0  0  0  0
 21 23  1  0  0  0  0
 23 25  2  0  0  0  0
 23 27  1  0  0  0  0
 24 28  1  0  0  0  0
 24 22  2  0  0  0  0
 25 24  1  0  0  0  0
 26 22  1  0  0  0  0
 27 26  2  0  0  0  0
 30 29  1  0  0  0  0
 31 30  1  0  0  0  0
 32 31  1  0  0  0  0
 33 32  1  0  0  0  0
 34 33  1  0  0  0  0
M  END
>  <MODEL>
6

>  <REMARK>
 VINA RESULT:      -5.8      2.436      9.481
  Name = 
  16 active torsions:
  status: ('A' for Active; 'I' for Inactive)
    1  A    between atoms: C_1  and  C_9
    2  A    between atoms: C_1  and  C_21
    3  A    between atoms: C_2  and  C_3
    4  A    between atoms: C_2  and  N_4
    5  A    between atoms: C_3  and  C_29
    6  A    between atoms: C_6  and  C_15
    7  A    between atoms: C_6  and  C_29
    8  A    between atoms: C_7  and  N_12
    9  A    between atoms: O_8  and  C_27
   10  A    between atoms: C_9  and  C_31
   11  A    between atoms: C_13  and  C_21
   12  A    between atoms: C_21  and  C_32
   13  A    between atoms: C_23  and  C_25
   14  A    between atoms: C_23  and  N_33
   15  A    between atoms: C_27  and  C_31
   16  A    between atoms: C_32  and  N_33
                            x       y       z     vdW  Elec       q    Type
                         _______ _______ _______ _____ _____    ______ ____

>  <TORSDO>
F 16

$$$$
=
 OpenBabel11052411043D

 34 35  0  0  1  0  0  0  0  0999 V2000
  161.0340  208.3280  154.0960 C   0  0  0  0  0  1  0  0  0  0  0  0
  161.2790  208.8060  152.6760 C   0  0  1  0  0  3  0  0  0  0  0  0
  161.5170  207.7780  150.4020 C   0  0  0  0  0  0  0  0  0  0  0  0
  161.0860  205.3920  150.5890 C   0  0  0  0  0  2  0  0  0  0  0  0
  161.1590  205.9940  152.3060 S   0  0  0  0  0  0  0  0  0  0  0  0
  161.5070  206.5010  149.6290 C   0  0  1  0  0  3  0  0  0  0  0  0
  161.3150  207.6580  151.7090 C   0  0  0  0  0  0  0  0  0  0  0  0
  161.7740  209.0490  149.7920 N   0  0  0  0  0  2  0  0  0  0  0  0
  162.3550  209.1380  148.6910 O   0  0  0  0  0  1  0  0  0  0  0  0
  160.5140  206.5910  148.4740 C   0  0  0  0  0  2  0  0  0  0  0  0
  161.2070  206.4910  147.1170 C   0  0  2  0  0  3  0  0  0  0  0  0
  160.1860  206.1950  146.0330 C   0  0  0  0  0  1  0  0  0  0  0  0
  162.3370  205.4580  147.1190 C   0  0  0  0  0  2  0  0  0  0  0  0
  161.8760  204.0600  146.7240 C   0  0  0  0  0  2  0  0  0  0  0  0
  161.5850  203.2740  147.9110 N   0  0  0  0  0  2  0  0  0  0  0  0
  160.6830  201.2720  149.0220 N   0  0  0  0  0  1  0  0  0  0  0  0
  161.0290  201.9620  147.8300 C   0  0  0  0  0  0  0  0  0  0  0  0
  160.8420  201.4100  146.7120 O   0  0  0  0  0  0  0  0  0  0  0  0
  160.2720  209.7790  152.2910 N   0  0  0  0  0  2  0  0  0  0  0  0
  160.8050  211.0950  152.6160 C   0  0  0  0  0  2  0  0  0  0  0  0
  159.6830  212.1070  152.8360 C   0  0  1  0  0  3  0  0  0  0  0  0
  158.7090  214.0890  149.2230 N   0  0  0  0  0  0  0  0  0  0  0  0
  159.3340  212.8270  151.5710 C   0  0  0  0  0  0  0  0  0  0  0  0
  157.7260  213.5600  149.9950 C   0  0  0  0  0  0  0  0  0  0  0  0
  158.0410  212.9280  151.1560 N   0  0  0  0  0  0  0  0  0  0  0  0
  160.0130  214.0010  149.5960 C   0  0  0  0  0  3  0  0  0  0  0  0
  160.3550  213.3580  150.7830 C   0  0  0  0  0  3  0  0  0  0  0  0
  156.3700  213.6520  149.5800 N   0  0  0  0  0  1  0  0  0  0  0  0
  158.4560  211.4850  153.4930 C   0  0  0  0  0  2  0  0  0  0  0  0
  158.0760  212.2560  154.7450 C   0  0  0  0  0  2  0  0  0  0  0  0
  157.8830  211.2870  155.8940 C   0  0  0  0  0  2  0  0  0  0  0  0
  159.0360  211.4000  156.8780 C   0  0  0  0  0  2  0  0  0  0  0  0
  160.1190  210.6370  156.4360 O   0  0  0  0  0  0  0  0  0  0  0  0
  161.2270  211.4590  156.6370 C   0  0  0  0  0  1  0  0  0  0  0  0
  2  1  1  1  0  0  0
  3  7  2  0  0  0  0
  4  5  1  0  0  0  0
  6 10  1  6  0  0  0
  6  3  1  0  0  0  0
  6  4  1  0  0  0  0
  7  5  1  0  0  0  0
  7  2  1  0  0  0  0
  8  3  1  0  0  0  0
  9  8  1  0  0  0  0
 11 12  1  6  0  0  0
 11 13  1  0  0  0  0
 11 10  1  0  0  0  0
 14 13  1  0  0  0  0
 14 15  1  0  0  0  0
 17 15  1  0  0  0  0
 17 16  1  0  0  0  0
 18 17  2  0  0  0  0
 19 20  1  0  0  0  0
 19  2  1  0  0  0  0
 21 20  1  6  0  0  0
 21 29  1  0  0  0  0
 22 26  1  0  0  0  0
 22 24  2  0  0  0  0
 23 21  1  0  0  0  0
 24 25  1  0  0  0  0
 25 23  2  0  0  0  0
 26 27  2  0  0  0  0
 27 23  1  0  0  0  0
 28 24  1  0  0  0  0
 29 30  1  0  0  0  0
 30 31  1  0  0  0  0
 31 32  1  0  0  0  0
 33 34  1  0  0  0  0
 33 32  1  0  0  0  0
M  END
>  <MODEL>
7

>  <REMARK>
 VINA RESULT:      -5.7      2.211      9.811
  Name = 
  16 active torsions:
  status: ('A' for Active; 'I' for Inactive)
    1  A    between atoms: C_1  and  C_9
    2  A    between atoms: C_1  and  C_21
    3  A    between atoms: C_2  and  C_3
    4  A    between atoms: C_2  and  N_4
    5  A    between atoms: C_3  and  C_29
    6  A    between atoms: C_6  and  C_15
    7  A    between atoms: C_6  and  C_29
    8  A    between atoms: C_7  and  N_12
    9  A    between atoms: O_8  and  C_27
   10  A    between atoms: C_9  and  C_31
   11  A    between atoms: C_13  and  C_21
   12  A    between atoms: C_21  and  C_32
   13  A    between atoms: C_23  and  C_25
   14  A    between atoms: C_23  and  N_33
   15  A    between atoms: C_27  and  C_31
   16  A    between atoms: C_32  and  N_33
                            x       y       z     vdW  Elec       q    Type
                         _______ _______ _______ _____ _____    ______ ____

>  <TORSDO>
F 16

$$$$
=
 OpenBabel11052411043D

 34 35  0  0  1  0  0  0  0  0999 V2000
  161.5750  207.3130  153.5430 C   0  0  0  0  0  1  0  0  0  0  0  0
  161.5250  207.9290  152.1570 C   0  0  1  0  0  3  0  0  0  0  0  0
  161.7000  207.0600  149.8110 C   0  0  0  0  0  0  0  0  0  0  0  0
  160.8280  204.7900  149.7660 C   0  0  0  0  0  2  0  0  0  0  0  0
  160.9120  205.2280  151.5300 S   0  0  0  0  0  0  0  0  0  0  0  0
  161.5000  205.8740  148.9270 C   0  0  1  0  0  3  0  0  0  0  0  0
  161.4040  206.8760  151.0930 C   0  0  0  0  0  0  0  0  0  0  0  0
  162.2190  208.3050  149.3280 N   0  0  0  0  0  2  0  0  0  0  0  0
  161.5220  209.0810  148.6430 O   0  0  0  0  0  1  0  0  0  0  0  0
  160.6080  206.2420  147.7450 C   0  0  0  0  0  2  0  0  0  0  0  0
  161.3570  206.1570  146.4170 C   0  0  2  0  0  3  0  0  0  0  0  0
  160.3730  206.2000  145.2620 C   0  0  0  0  0  1  0  0  0  0  0  0
  162.2580  204.9210  146.3380 C   0  0  0  0  0  2  0  0  0  0  0  0
  161.4920  203.6350  146.0480 C   0  0  0  0  0  2  0  0  0  0  0  0
  161.5500  202.7460  147.1960 N   0  0  0  0  0  2  0  0  0  0  0  0
  161.1340  200.5810  148.2900 N   0  0  0  0  0  1  0  0  0  0  0  0
  161.1390  201.3820  147.1160 C   0  0  0  0  0  0  0  0  0  0  0  0
  160.7800  200.8810  146.0170 O   0  0  0  0  0  0  0  0  0  0  0  0
  160.4330  208.8830  152.0690 N   0  0  0  0  0  2  0  0  0  0  0  0
  160.9920  210.1960  152.3580 C   0  0  0  0  0  2  0  0  0  0  0  0
  159.8910  211.2210  152.6190 C   0  0  1  0  0  3  0  0  0  0  0  0
  158.8820  211.4780  156.7230 N   0  0  0  0  0  0  0  0  0  0  0  0
  159.5320  211.2890  154.0710 C   0  0  0  0  0  0  0  0  0  0  0  0
  157.9040  211.3720  155.7870 C   0  0  0  0  0  0  0  0  0  0  0  0
  158.2310  211.2860  154.4720 N   0  0  0  0  0  0  0  0  0  0  0  0
  160.1920  211.4950  156.3640 C   0  0  0  0  0  3  0  0  0  0  0  0
  160.5470  211.4060  155.0200 C   0  0  0  0  0  3  0  0  0  0  0  0
  156.5390  211.3700  156.1830 N   0  0  0  0  0  1  0  0  0  0  0  0
  160.2270  212.5960  152.0530 C   0  0  0  0  0  2  0  0  0  0  0  0
  159.1110  213.0840  151.1450 C   0  0  0  0  0  2  0  0  0  0  0  0
  159.6000  214.2700  150.3380 C   0  0  0  0  0  2  0  0  0  0  0  0
  159.9540  213.8360  148.9250 C   0  0  0  0  0  2  0  0  0  0  0  0
  161.3370  213.8940  148.7390 O   0  0  0  0  0  0  0  0  0  0  0  0
  161.7230  212.5630  148.5910 C   0  0  0  0  0  1  0  0  0  0  0  0
  2  1  1  1  0  0  0
  3  7  2  0  0  0  0
  4  5  1  0  0  0  0
  6 10  1  6  0  0  0
  6  4  1  0  0  0  0
  6  3  1  0  0  0  0
  7  5  1  0  0  0  0
  7  2  1  0  0  0  0
  8  3  1  0  0  0  0
  9  8  1  0  0  0  0
 11 12  1  6  0  0  0
 11 10  1  0  0  0  0
 13 11  1  0  0  0  0
 14 13  1  0  0  0  0
 14 15  1  0  0  0  0
 17 15  1  0  0  0  0
 17 16  1  0  0  0  0
 18 17  2  0  0  0  0
 19  2  1  0  0  0  0
 19 20  1  0  0  0  0
 20 21  1  0  0  0  0
 21 29  1  1  0  0  0
 21 23  1  0  0  0  0
 23 25  2  0  0  0  0
 23 27  1  0  0  0  0
 24 28  1  0  0  0  0
 24 22  2  0  0  0  0
 25 24  1  0  0  0  0
 26 22  1  0  0  0  0
 27 26  2  0  0  0  0
 30 29  1  0  0  0  0
 31 30  1  0  0  0  0
 32 31  1  0  0  0  0
 33 32  1  0  0  0  0
 34 33  1  0  0  0  0
M  END
>  <MODEL>
8

>  <REMARK>
 VINA RESULT:      -5.7      2.533      9.547
  Name = 
  16 active torsions:
  status: ('A' for Active; 'I' for Inactive)
    1  A    between atoms: C_1  and  C_9
    2  A    between atoms: C_1  and  C_21
    3  A    between atoms: C_2  and  C_3
    4  A    between atoms: C_2  and  N_4
    5  A    between atoms: C_3  and  C_29
    6  A    between atoms: C_6  and  C_15
    7  A    between atoms: C_6  and  C_29
    8  A    between atoms: C_7  and  N_12
    9  A    between atoms: O_8  and  C_27
   10  A    between atoms: C_9  and  C_31
   11  A    between atoms: C_13  and  C_21
   12  A    between atoms: C_21  and  C_32
   13  A    between atoms: C_23  and  C_25
   14  A    between atoms: C_23  and  N_33
   15  A    between atoms: C_27  and  C_31
   16  A    between atoms: C_32  and  N_33
                            x       y       z     vdW  Elec       q    Type
                         _______ _______ _______ _____ _____    ______ ____

>  <TORSDO>
F 16

$$$$
=
 OpenBabel11052411043D

 34 35  0  0  1  0  0  0  0  0999 V2000
  161.3740  209.7460  154.4590 C   0  0  0  0  0  1  0  0  0  0  0  0
  161.2580  209.5420  152.9590 C   0  0  1  0  0  3  0  0  0  0  0  0
  161.5980  207.6290  151.3740 C   0  0  0  0  0  0  0  0  0  0  0  0
  161.1830  205.5550  152.5740 C   0  0  0  0  0  2  0  0  0  0  0  0
  161.1790  206.8490  153.8540 S   0  0  0  0  0  0  0  0  0  0  0  0
  161.6320  206.1430  151.2390 C   0  0  1  0  0  3  0  0  0  0  0  0
  161.3430  208.0880  152.5940 C   0  0  0  0  0  0  0  0  0  0  0  0
  161.8670  208.5120  150.2780 N   0  0  0  0  0  2  0  0  0  0  0  0
  162.5400  208.1430  149.2930 O   0  0  0  0  0  1  0  0  0  0  0  0
  160.6860  205.6930  150.1300 C   0  0  0  0  0  2  0  0  0  0  0  0
  161.3980  204.8360  149.0850 C   0  0  2  0  0  3  0  0  0  0  0  0
  161.4290  205.5600  147.7520 C   0  0  0  0  0  1  0  0  0  0  0  0
  160.7710  203.4450  148.9530 C   0  0  0  0  0  2  0  0  0  0  0  0
  161.5930  202.4940  148.0910 C   0  0  0  0  0  2  0  0  0  0  0  0
  160.7290  201.7800  147.1670 N   0  0  0  0  0  2  0  0  0  0  0  0
  159.7260  201.4530  144.9430 N   0  0  0  0  0  1  0  0  0  0  0  0
  160.6520  202.1260  145.7840 C   0  0  0  0  0  0  0  0  0  0  0  0
  161.3960  203.0220  145.3030 O   0  0  0  0  0  0  0  0  0  0  0  0
  160.0240  210.1290  152.4650 N   0  0  0  0  0  2  0  0  0  0  0  0
  159.4630  210.9190  153.5540 C   0  0  0  0  0  2  0  0  0  0  0  0
  159.7270  212.4090  153.3490 C   0  0  1  0  0  3  0  0  0  0  0  0
  158.5150  213.7580  149.5230 N   0  0  0  0  0  0  0  0  0  0  0  0
  159.2970  212.8640  151.9890 C   0  0  0  0  0  0  0  0  0  0  0  0
  159.8110  213.4230  149.7470 C   0  0  0  0  0  0  0  0  0  0  0  0
  160.1970  212.9860  150.9740 N   0  0  0  0  0  0  0  0  0  0  0  0
  157.5880  213.6610  150.5110 C   0  0  0  0  0  3  0  0  0  0  0  0
  157.9640  213.2140  151.7760 C   0  0  0  0  0  3  0  0  0  0  0  0
  160.7680  213.5450  148.7030 N   0  0  0  0  0  1  0  0  0  0  0  0
  159.1180  213.2660  154.4530 C   0  0  0  0  0  2  0  0  0  0  0  0
  158.4550  212.3890  155.5010 C   0  0  0  0  0  2  0  0  0  0  0  0
  157.0680  212.9230  155.7990 C   0  0  0  0  0  2  0  0  0  0  0  0
  156.0750  212.4130  154.7670 C   0  0  0  0  0  2  0  0  0  0  0  0
  156.1760  211.0250  154.6500 O   0  0  0  0  0  0  0  0  0  0  0  0
  155.3190  210.5310  155.6330 C   0  0  0  0  0  1  0  0  0  0  0  0
  2  1  1  1  0  0  0
  3  7  2  0  0  0  0
  4  5  1  0  0  0  0
  6 10  1  6  0  0  0
  6  3  1  0  0  0  0
  6  4  1  0  0  0  0
  7  2  1  0  0  0  0
  7  5  1  0  0  0  0
  8  3  1  0  0  0  0
  9  8  1  0  0  0  0
 11 12  1  6  0  0  0
 11 10  1  0  0  0  0
 13 11  1  0  0  0  0
 14 13  1  0  0  0  0
 15 14  1  0  0  0  0
 16 17  1  0  0  0  0
 17 15  1  0  0  0  0
 18 17  2  0  0  0  0
 19  2  1  0  0  0  0
 19 20  1  0  0  0  0
 21 20  1  1  0  0  0
 21 29  1  0  0  0  0
 22 24  2  0  0  0  0
 22 26  1  0  0  0  0
 23 21  1  0  0  0  0
 24 25  1  0  0  0  0
 25 23  2  0  0  0  0
 26 27  2  0  0  0  0
 27 23  1  0  0  0  0
 28 24  1  0  0  0  0
 29 30  1  0  0  0  0
 30 31  1  0  0  0  0
 32 31  1  0  0  0  0
 33 32  1  0  0  0  0
 33 34  1  0  0  0  0
M  END
>  <MODEL>
9

>  <REMARK>
 VINA RESULT:      -5.7      2.107      9.845
  Name = 
  16 active torsions:
  status: ('A' for Active; 'I' for Inactive)
    1  A    between atoms: C_1  and  C_9
    2  A    between atoms: C_1  and  C_21
    3  A    between atoms: C_2  and  C_3
    4  A    between atoms: C_2  and  N_4
    5  A    between atoms: C_3  and  C_29
    6  A    between atoms: C_6  and  C_15
    7  A    between atoms: C_6  and  C_29
    8  A    between atoms: C_7  and  N_12
    9  A    between atoms: O_8  and  C_27
   10  A    between atoms: C_9  and  C_31
   11  A    between atoms: C_13  and  C_21
   12  A    between atoms: C_21  and  C_32
   13  A    between atoms: C_23  and  C_25
   14  A    between atoms: C_23  and  N_33
   15  A    between atoms: C_27  and  C_31
   16  A    between atoms: C_32  and  N_33
                            x       y       z     vdW  Elec       q    Type
                         _______ _______ _______ _____ _____    ______ ____

>  <TORSDO>
F 16

$$$$
