=
 OpenBabel11042420073D

 30 34  0  0  1  0  0  0  0  0999 V2000
  161.5020  207.3810  149.1850 N   0  0  0  0  0  0  0  0  0  0  0  0
  161.8440  208.7150  152.6140 C   0  0  0  0  0  0  0  0  0  0  0  0
  161.1350  204.2700  151.8520 C   0  0  0  0  0  0  0  0  0  0  0  0
  161.4330  208.2650  153.9050 N   0  0  0  0  0  2  0  0  0  0  0  0
  161.2730  204.9540  149.5010 C   0  0  0  0  0  0  0  0  0  0  0  0
  162.5750  209.7370  152.5410 O   0  0  0  0  0  0  0  0  0  0  0  0
  161.0260  203.2470  152.7870 O   0  0  0  0  0  1  0  0  0  0  0  0
  160.4750  207.1950  154.1190 C   0  0  1  0  0  3  0  0  0  0  0  0
  161.0200  205.9270  153.6570 N   0  0  0  0  0  2  0  0  0  0  0  0
  161.3050  206.6020  151.2850 C   0  0  0  0  0  0  0  0  0  0  0  0
  161.4970  207.9690  151.3820 C   0  0  0  0  0  0  0  0  0  0  0  0
  161.1800  205.6120  152.2720 C   0  0  0  0  0  0  0  0  0  0  0  0
  160.1010  207.0730  155.8890 S   0  0  0  0  0  1  0  0  0  0  0  0
  161.1790  203.9500  150.4820 C   0  0  0  0  0  3  0  0  0  0  0  0
  161.5890  208.4160  150.0550 C   0  0  2  0  0  3  0  0  0  0  0  0
  161.3400  206.2850  149.9470 C   0  0  0  0  0  0  0  0  0  0  0  0
  161.9230  212.4450  148.6170 C   0  0  0  0  0  0  0  0  0  0  0  0
  161.7290  209.8100  149.5880 C   0  0  0  0  0  0  0  0  0  0  0  0
  161.2920  212.1870  149.8400 C   0  0  0  0  0  3  0  0  0  0  0  0
  162.3420  210.0680  148.3540 C   0  0  0  0  0  3  0  0  0  0  0  0
  162.4450  211.3760  147.8740 C   0  0  0  0  0  3  0  0  0  0  0  0
  161.1900  210.8780  150.3190 C   0  0  0  0  0  3  0  0  0  0  0  0
  160.9240  214.4530  147.5550 O   0  0  0  0  0  0  0  0  0  0  0  0
  163.1200  214.4510  148.1920 O   0  0  0  0  0  1  0  0  0  0  0  0
  162.0290  213.8250  148.1170 C   0  0  0  0  0  0  0  0  0  0  0  0
  161.1680  205.0090  145.8350 C   0  0  0  0  0  3  0  0  0  0  0  0
  161.3180  204.5820  148.0690 C   0  0  0  0  0  0  0  0  0  0  0  0
  161.5900  203.3120  147.6630 N   0  0  0  0  0  0  0  0  0  0  0  0
  161.0880  205.5120  147.0880 N   0  0  0  0  0  0  0  0  0  0  0  0
  161.5290  203.3960  146.0090 S   0  0  0  0  0  0  0  0  0  0  0  0
  1 16  2  0  0  0  0
  1 15  1  0  0  0  0
  2  4  1  0  0  0  0
  3 12  2  0  0  0  0
  3  7  1  0  0  0  0
  4  8  1  0  0  0  0
  5 16  1  0  0  0  0
  5 14  2  0  0  0  0
  6  2  2  0  0  0  0
  8 13  1  1  0  0  0
  9  8  1  0  0  0  0
 10 11  2  0  0  0  0
 10 12  1  0  0  0  0
 11  2  1  0  0  0  0
 12  9  1  0  0  0  0
 14  3  1  0  0  0  0
 15 18  1  6  0  0  0
 15 11  1  0  0  0  0
 16 10  1  0  0  0  0
 17 19  1  0  0  0  0
 18 22  1  0  0  0  0
 19 22  2  0  0  0  0
 20 18  2  0  0  0  0
 21 20  1  0  0  0  0
 21 17  2  0  0  0  0
 23 25  2  0  0  0  0
 25 24  1  0  0  0  0
 25 17  1  0  0  0  0
 26 30  1  0  0  0  0
 26 29  2  0  0  0  0
 27  5  1  0  0  0  0
 28 27  2  0  0  0  0
 29 27  1  0  0  0  0
 30 28  1  0  0  0  0
M  END
>  <MODEL>
1

>  <REMARK>
 VINA RESULT:      -7.1      0.000      0.000
  Name = 
  3 active torsions:
  status: ('A' for Active; 'I' for Inactive)
    1  A    between atoms: C_6  and  C_30
    2  A    between atoms: C_7  and  C_26
    3  A    between atoms: C_8  and  C_9
                            x       y       z     vdW  Elec       q    Type
                         _______ _______ _______ _____ _____    ______ ____

>  <TORSDO>
F 3

$$$$
=
 OpenBabel11042420073D

 30 34  0  0  1  0  0  0  0  0999 V2000
  160.6360  210.0910  150.8390 N   0  0  0  0  0  0  0  0  0  0  0  0
  160.9110  207.4730  153.4320 C   0  0  0  0  0  0  0  0  0  0  0  0
  159.9640  211.8050  154.5180 C   0  0  0  0  0  0  0  0  0  0  0  0
  161.1780  207.4820  154.8350 N   0  0  0  0  0  2  0  0  0  0  0  0
  159.9970  212.1110  152.0850 C   0  0  0  0  0  0  0  0  0  0  0  0
  160.5890  206.3830  152.8910 O   0  0  0  0  0  0  0  0  0  0  0  0
  159.7350  212.3420  155.7790 O   0  0  0  0  0  1  0  0  0  0  0  0
  161.7000  208.6340  155.5490 C   0  0  1  0  0  3  0  0  0  0  0  0
  160.7240  209.7130  155.5500 N   0  0  0  0  0  2  0  0  0  0  0  0
  160.6160  209.9860  153.0850 C   0  0  0  0  0  0  0  0  0  0  0  0
  160.9260  208.7170  152.6280 C   0  0  0  0  0  0  0  0  0  0  0  0
  160.4150  210.4790  154.3830 C   0  0  0  0  0  0  0  0  0  0  0  0
  162.0670  208.1600  157.2600 S   0  0  0  0  0  1  0  0  0  0  0  0
  159.7620  212.6090  153.3800 C   0  0  0  0  0  3  0  0  0  0  0  0
  160.9540  208.8330  151.2300 C   0  0  0  0  0  0  0  0  0  0  0  0
  160.4240  210.7770  151.9760 C   0  0  1  0  0  3  0  0  0  0  0  0
  161.8740  205.8040  148.3320 C   0  0  0  0  0  0  0  0  0  0  0  0
  161.3030  207.7830  150.2510 C   0  0  0  0  0  0  0  0  0  0  0  0
  162.6200  206.9890  148.3700 C   0  0  0  0  0  3  0  0  0  0  0  0
  160.5440  206.6060  150.1980 C   0  0  0  0  0  3  0  0  0  0  0  0
  160.8310  205.6200  149.2500 C   0  0  0  0  0  3  0  0  0  0  0  0
  162.3320  207.9740  149.3190 C   0  0  0  0  0  3  0  0  0  0  0  0
  162.9980  205.0650  146.2470 O   0  0  0  0  0  0  0  0  0  0  0  0
  161.7090  203.6070  147.4490 O   0  0  0  0  0  1  0  0  0  0  0  0
  162.1810  204.7690  147.3320 C   0  0  0  0  0  0  0  0  0  0  0  0
  160.4210  214.0850  149.0230 C   0  0  0  0  0  3  0  0  0  0  0  0
  159.7730  212.9830  150.9100 C   0  0  0  0  0  0  0  0  0  0  0  0
  158.5560  213.5250  150.6370 N   0  0  0  0  0  0  0  0  0  0  0  0
  160.7930  213.2780  150.0420 N   0  0  0  0  0  0  0  0  0  0  0  0
  158.8050  214.4010  149.2530 S   0  0  0  0  0  0  0  0  0  0  0  0
  1 15  2  0  0  0  0
  2  4  1  0  0  0  0
  3  7  1  0  0  0  0
  4  8  1  0  0  0  0
  5 14  2  0  0  0  0
  6  2  2  0  0  0  0
  8  9  1  0  0  0  0
  8 13  1  1  0  0  0
 10 12  1  0  0  0  0
 11 10  2  0  0  0  0
 11  2  1  0  0  0  0
 12  3  2  0  0  0  0
 12  9  1  0  0  0  0
 14  3  1  0  0  0  0
 15 11  1  0  0  0  0
 16  1  1  6  0  0  0
 16  5  1  0  0  0  0
 16 10  1  0  0  0  0
 17 19  2  0  0  0  0
 17 21  1  0  0  0  0
 18 15  1  0  0  0  0
 19 22  1  0  0  0  0
 20 18  1  0  0  0  0
 21 20  2  0  0  0  0
 22 18  2  0  0  0  0
 23 25  2  0  0  0  0
 25 24  1  0  0  0  0
 25 17  1  0  0  0  0
 26 30  1  0  0  0  0
 26 29  2  0  0  0  0
 27  5  1  0  0  0  0
 28 27  2  0  0  0  0
 29 27  1  0  0  0  0
 30 28  1  0  0  0  0
M  END
>  <MODEL>
2

>  <REMARK>
 VINA RESULT:      -6.1      4.056      6.799
  Name = 
  3 active torsions:
  status: ('A' for Active; 'I' for Inactive)
    1  A    between atoms: C_6  and  C_30
    2  A    between atoms: C_7  and  C_26
    3  A    between atoms: C_8  and  C_9
                            x       y       z     vdW  Elec       q    Type
                         _______ _______ _______ _____ _____    ______ ____

>  <TORSDO>
F 3

$$$$
=
 OpenBabel11042420073D

 30 34  0  0  1  0  0  0  0  0999 V2000
  160.9090  206.7940  152.3580 N   0  0  0  0  0  0  0  0  0  0  0  0
  162.1110  208.2160  149.1660 C   0  0  0  0  0  0  0  0  0  0  0  0
  161.2890  210.8670  152.7910 C   0  0  0  0  0  0  0  0  0  0  0  0
  162.0560  209.5110  148.5670 N   0  0  0  0  0  2  0  0  0  0  0  0
  160.8030  208.7230  153.8770 C   0  0  0  0  0  0  0  0  0  0  0  0
  162.7840  207.3190  148.5930 O   0  0  0  0  0  0  0  0  0  0  0  0
  161.4400  212.2450  152.8960 O   0  0  0  0  0  1  0  0  0  0  0  0
  161.2000  210.5840  149.0430 C   0  0  1  0  0  3  0  0  0  0  0  0
  161.6240  211.0200  150.3650 N   0  0  0  0  0  2  0  0  0  0  0  0
  161.2740  208.8390  151.4970 C   0  0  0  0  0  0  0  0  0  0  0  0
  161.4660  207.9320  150.4700 C   0  0  0  0  0  0  0  0  0  0  0  0
  161.4230  210.2330  151.5410 C   0  0  2  0  0  3  0  0  0  0  0  0
  161.3010  211.9820  147.8930 S   0  0  0  0  0  1  0  0  0  0  0  0
  160.9800  210.1180  153.9410 C   0  0  0  0  0  3  0  0  0  0  0  0
  161.2050  206.6780  151.0410 C   0  0  0  0  0  0  0  0  0  0  0  0
  160.9650  208.1110  152.6230 C   0  0  0  0  0  0  0  0  0  0  0  0
  161.0900  202.8500  149.1030 C   0  0  0  0  0  0  0  0  0  0  0  0
  161.2000  205.3670  150.3590 C   0  0  0  0  0  0  0  0  0  0  0  0
  161.0100  204.0240  148.3430 C   0  0  0  0  0  3  0  0  0  0  0  0
  161.2590  204.1910  151.1200 C   0  0  0  0  0  3  0  0  0  0  0  0
  161.2110  202.9410  150.4970 C   0  0  0  0  0  3  0  0  0  0  0  0
  161.0580  205.2730  148.9680 C   0  0  0  0  0  3  0  0  0  0  0  0
  160.8280  201.4510  147.0710 O   0  0  0  0  0  0  0  0  0  0  0  0
  161.1900  200.4780  149.1090 O   0  0  0  0  0  1  0  0  0  0  0  0
  161.0400  201.5370  148.4420 C   0  0  0  0  0  0  0  0  0  0  0  0
  159.1410  206.6790  156.4290 C   0  0  0  0  0  3  0  0  0  0  0  0
  160.4800  207.9660  155.1070 C   0  0  0  0  0  0  0  0  0  0  0  0
  161.3550  207.8680  156.1440 N   0  0  0  0  0  0  0  0  0  0  0  0
  159.2760  207.3250  155.2480 N   0  0  0  0  0  0  0  0  0  0  0  0
  160.5560  206.9400  157.2600 S   0  0  0  0  0  0  0  0  0  0  0  0
  1 16  1  0  0  0  0
  2 11  1  0  0  0  0
  3  7  1  0  0  0  0
  3 14  2  0  0  0  0
  4  8  1  0  0  0  0
  4  2  1  0  0  0  0
  5 14  1  0  0  0  0
  5 27  1  0  0  0  0
  6  2  2  0  0  0  0
  8 13  1  6  0  0  0
  8  9  1  0  0  0  0
 10 12  1  0  0  0  0
 10 16  1  0  0  0  0
 11 15  1  0  0  0  0
 11 10  2  0  0  0  0
 12  9  1  6  0  0  0
 12  3  1  0  0  0  0
 15  1  2  0  0  0  0
 16  5  2  0  0  0  0
 17 21  1  0  0  0  0
 18 15  1  0  0  0  0
 18 20  1  0  0  0  0
 19 22  1  0  0  0  0
 19 17  2  0  0  0  0
 21 20  2  0  0  0  0
 22 18  2  0  0  0  0
 23 25  2  0  0  0  0
 25 17  1  0  0  0  0
 25 24  1  0  0  0  0
 26 30  1  0  0  0  0
 27 29  1  0  0  0  0
 27 28  2  0  0  0  0
 28 30  1  0  0  0  0
 29 26  2  0  0  0  0
M  END
>  <MODEL>
3

>  <REMARK>
 VINA RESULT:      -6.1      3.071      7.827
  Name = 
  3 active torsions:
  status: ('A' for Active; 'I' for Inactive)
    1  A    between atoms: C_6  and  C_30
    2  A    between atoms: C_7  and  C_26
    3  A    between atoms: C_8  and  C_9
                            x       y       z     vdW  Elec       q    Type
                         _______ _______ _______ _____ _____    ______ ____

>  <TORSDO>
F 3

$$$$
=
 OpenBabel11042420073D

 30 34  0  0  1  0  0  0  0  0999 V2000
  161.3010  208.4890  150.4820 N   0  0  0  0  0  0  0  0  0  0  0  0
  160.4570  206.4670  153.4570 C   0  0  0  0  0  0  0  0  0  0  0  0
  160.9350  211.0000  153.7210 C   0  0  0  0  0  0  0  0  0  0  0  0
  160.5920  206.6590  154.8660 N   0  0  0  0  0  2  0  0  0  0  0  0
  161.2760  210.8070  151.3000 C   0  0  0  0  0  0  0  0  0  0  0  0
  159.8350  205.4520  153.0490 O   0  0  0  0  0  0  0  0  0  0  0  0
  160.7930  211.8120  154.8400 O   0  0  0  0  0  1  0  0  0  0  0  0
  161.4080  207.7010  155.4630 C   0  0  1  0  0  3  0  0  0  0  0  0
  160.8560  209.0130  155.1590 N   0  0  0  0  0  2  0  0  0  0  0  0
  161.0560  208.8280  152.6920 C   0  0  0  0  0  0  0  0  0  0  0  0
  160.9590  207.4640  152.4830 C   0  0  0  0  0  0  0  0  0  0  0  0
  160.9230  209.5990  153.8560 C   0  0  0  0  0  0  0  0  0  0  0  0
  161.4480  207.4730  157.2610 S   0  0  0  0  0  1  0  0  0  0  0  0
  161.1120  211.5920  152.4570 C   0  0  0  0  0  3  0  0  0  0  0  0
  161.1420  207.2950  151.1020 C   0  0  0  0  0  0  0  0  0  0  0  0
  161.2360  209.4120  151.4590 C   0  0  1  0  0  3  0  0  0  0  0  0
  161.2070  203.5740  148.9650 C   0  0  0  0  0  0  0  0  0  0  0  0
  161.2000  206.0220  150.3560 C   0  0  0  0  0  0  0  0  0  0  0  0
  161.1850  204.7860  148.2630 C   0  0  0  0  0  3  0  0  0  0  0  0
  161.2010  204.8080  151.0560 C   0  0  0  0  0  3  0  0  0  0  0  0
  161.2100  203.5920  150.3670 C   0  0  0  0  0  3  0  0  0  0  0  0
  161.1760  206.0010  148.9540 C   0  0  0  0  0  3  0  0  0  0  0  0
  161.2350  201.0930  148.9280 O   0  0  0  0  0  1  0  0  0  0  0  0
  161.2110  202.2810  146.9740 O   0  0  0  0  0  0  0  0  0  0  0  0
  161.2180  202.2970  148.2340 C   0  0  0  0  0  0  0  0  0  0  0  0
  161.0350  213.0620  148.4180 C   0  0  0  0  0  3  0  0  0  0  0  0
  161.4580  211.4630  149.9860 C   0  0  0  0  0  0  0  0  0  0  0  0
  162.3320  210.9870  149.0580 N   0  0  0  0  0  0  0  0  0  0  0  0
  160.7490  212.5890  149.6510 N   0  0  0  0  0  0  0  0  0  0  0  0
  162.1820  212.0380  147.7860 S   0  0  0  0  0  0  0  0  0  0  0  0
  1 15  2  0  0  0  0
  2  4  1  0  0  0  0
  3 12  2  0  0  0  0
  3  7  1  0  0  0  0
  4  8  1  0  0  0  0
  5 16  1  0  0  0  0
  5 14  2  0  0  0  0
  6  2  2  0  0  0  0
  8 13  1  1  0  0  0
  9  8  1  0  0  0  0
 10 12  1  0  0  0  0
 11 10  2  0  0  0  0
 11  2  1  0  0  0  0
 12  9  1  0  0  0  0
 14  3  1  0  0  0  0
 15 11  1  0  0  0  0
 16  1  1  6  0  0  0
 16 10  1  0  0  0  0
 17 21  1  0  0  0  0
 18 20  1  0  0  0  0
 18 15  1  0  0  0  0
 19 22  1  0  0  0  0
 19 17  2  0  0  0  0
 21 20  2  0  0  0  0
 22 18  2  0  0  0  0
 24 25  2  0  0  0  0
 25 23  1  0  0  0  0
 25 17  1  0  0  0  0
 26 29  2  0  0  0  0
 27  5  1  0  0  0  0
 28 27  2  0  0  0  0
 29 27  1  0  0  0  0
 30 26  1  0  0  0  0
 30 28  1  0  0  0  0
M  END
>  <MODEL>
4

>  <REMARK>
 VINA RESULT:      -5.8      3.237      6.822
  Name = 
  3 active torsions:
  status: ('A' for Active; 'I' for Inactive)
    1  A    between atoms: C_6  and  C_30
    2  A    between atoms: C_7  and  C_26
    3  A    between atoms: C_8  and  C_9
                            x       y       z     vdW  Elec       q    Type
                         _______ _______ _______ _____ _____    ______ ____

>  <TORSDO>
F 3

$$$$
=
 OpenBabel11042420073D

 30 34  0  0  1  0  0  0  0  0999 V2000
  161.2170  208.5380  150.4870 N   0  0  0  0  0  0  0  0  0  0  0  0
  160.4540  206.5300  153.4930 C   0  0  0  0  0  0  0  0  0  0  0  0
  160.9700  211.0600  153.7280 C   0  0  0  0  0  0  0  0  0  0  0  0
  160.6350  206.7250  154.8970 N   0  0  0  0  0  2  0  0  0  0  0  0
  161.2330  210.8580  151.2980 C   0  0  0  0  0  0  0  0  0  0  0  0
  159.8130  205.5170  153.1080 O   0  0  0  0  0  0  0  0  0  0  0  0
  160.8690  211.8770  154.8480 O   0  0  0  0  0  1  0  0  0  0  0  0
  161.4770  207.7640  155.4640 C   0  0  1  0  0  3  0  0  0  0  0  0
  160.9240  209.0780  155.1740 N   0  0  0  0  0  2  0  0  0  0  0  0
  161.0440  208.8850  152.7020 C   0  0  0  0  0  0  0  0  0  0  0  0
  160.9310  207.5210  152.5010 C   0  0  0  0  0  0  0  0  0  0  0  0
  160.9530  209.6590  153.8680 C   0  0  0  0  0  0  0  0  0  0  0  0
  161.5720  207.5400  157.2610 S   0  0  0  0  0  1  0  0  0  0  0  0
  161.1120  211.6470  152.4570 C   0  0  0  0  0  3  0  0  0  0  0  0
  161.0700  207.3470  151.1160 C   0  0  0  0  0  0  0  0  0  0  0  0
  161.1890  209.4630  151.4620 C   0  0  1  0  0  3  0  0  0  0  0  0
  161.2300  203.6770  148.8960 C   0  0  0  0  0  0  0  0  0  0  0  0
  161.0950  206.0710  150.3710 C   0  0  0  0  0  0  0  0  0  0  0  0
  161.5730  203.6910  150.2540 C   0  0  0  0  0  3  0  0  0  0  0  0
  160.7710  206.0590  149.0080 C   0  0  0  0  0  3  0  0  0  0  0  0
  160.8320  204.8700  148.2760 C   0  0  0  0  0  3  0  0  0  0  0  0
  161.5120  204.8810  150.9840 C   0  0  0  0  0  3  0  0  0  0  0  0
  161.1670  201.1990  148.7790 O   0  0  0  0  0  1  0  0  0  0  0  0
  161.4640  202.4420  146.8830 O   0  0  0  0  0  0  0  0  0  0  0  0
  161.2940  202.4220  148.1310 C   0  0  0  0  0  0  0  0  0  0  0  0
  162.3160  211.7770  147.9170 C   0  0  0  0  0  3  0  0  0  0  0  0
  161.3780  211.5090  149.9780 C   0  0  0  0  0  0  0  0  0  0  0  0
  160.5950  212.5550  149.5990 N   0  0  0  0  0  0  0  0  0  0  0  0
  162.3150  211.0770  149.0740 N   0  0  0  0  0  0  0  0  0  0  0  0
  161.1260  212.9260  148.0740 S   0  0  0  0  0  0  0  0  0  0  0  0
  1 15  2  0  0  0  0
  2  4  1  0  0  0  0
  3 12  2  0  0  0  0
  3  7  1  0  0  0  0
  4  8  1  0  0  0  0
  5 16  1  0  0  0  0
  5 14  2  0  0  0  0
  6  2  2  0  0  0  0
  8 13  1  1  0  0  0
  9  8  1  0  0  0  0
 10 12  1  0  0  0  0
 11 10  2  0  0  0  0
 11  2  1  0  0  0  0
 12  9  1  0  0  0  0
 14  3  1  0  0  0  0
 15 11  1  0  0  0  0
 16  1  1  6  0  0  0
 16 10  1  0  0  0  0
 17 19  1  0  0  0  0
 18 22  1  0  0  0  0
 18 15  1  0  0  0  0
 19 22  2  0  0  0  0
 20 18  2  0  0  0  0
 21 17  2  0  0  0  0
 21 20  1  0  0  0  0
 24 25  2  0  0  0  0
 25 23  1  0  0  0  0
 25 17  1  0  0  0  0
 26 30  1  0  0  0  0
 26 29  2  0  0  0  0
 27  5  1  0  0  0  0
 28 27  2  0  0  0  0
 29 27  1  0  0  0  0
 30 28  1  0  0  0  0
M  END
>  <MODEL>
5

>  <REMARK>
 VINA RESULT:      -5.4      3.314      6.781
  Name = 
  3 active torsions:
  status: ('A' for Active; 'I' for Inactive)
    1  A    between atoms: C_6  and  C_30
    2  A    between atoms: C_7  and  C_26
    3  A    between atoms: C_8  and  C_9
                            x       y       z     vdW  Elec       q    Type
                         _______ _______ _______ _____ _____    ______ ____

>  <TORSDO>
F 3

$$$$
=
 OpenBabel11042420073D

 30 34  0  0  1  0  0  0  0  0999 V2000
  160.9410  208.5060  152.6520 N   0  0  0  0  0  0  0  0  0  0  0  0
  161.2240  211.0020  149.9420 C   0  0  0  0  0  0  0  0  0  0  0  0
  160.0400  212.2180  154.1810 C   0  0  0  0  0  0  0  0  0  0  0  0
  160.6830  212.3060  149.7260 N   0  0  0  0  0  2  0  0  0  0  0  0
  160.4050  209.8390  154.6470 C   0  0  0  0  0  0  0  0  0  0  0  0
  162.0740  210.5640  149.1240 O   0  0  0  0  0  0  0  0  0  0  0  0
  159.7510  213.4910  154.6580 O   0  0  0  0  0  1  0  0  0  0  0  0
  159.5920  212.8660  150.5050 C   0  0  1  0  0  3  0  0  0  0  0  0
  160.0100  213.0760  151.8820 N   0  0  0  0  0  2  0  0  0  0  0  0
  160.5210  210.6980  152.3790 C   0  0  0  0  0  0  0  0  0  0  0  0
  160.8690  210.1990  151.1360 C   0  0  0  0  0  0  0  0  0  0  0  0
  160.2180  212.0010  152.8010 C   0  0  2  0  0  3  0  0  0  0  0  0
  159.0960  214.4530  149.7820 S   0  0  0  0  0  1  0  0  0  0  0  0
  160.1310  211.1460  155.0880 C   0  0  0  0  0  3  0  0  0  0  0  0
  161.0960  208.8310  151.3460 C   0  0  0  0  0  0  0  0  0  0  0  0
  160.6020  209.6520  153.2690 C   0  0  0  0  0  0  0  0  0  0  0  0
  161.9630  205.8750  148.3580 C   0  0  0  0  0  0  0  0  0  0  0  0
  161.4300  207.8120  150.3300 C   0  0  0  0  0  0  0  0  0  0  0  0
  162.5050  207.1610  148.2500 C   0  0  0  0  0  3  0  0  0  0  0  0
  160.8720  206.5300  150.4260 C   0  0  0  0  0  3  0  0  0  0  0  0
  161.1400  205.5660  149.4510 C   0  0  0  0  0  3  0  0  0  0  0  0
  162.2360  208.1250  149.2270 C   0  0  0  0  0  3  0  0  0  0  0  0
  161.7100  203.5860  147.4320 O   0  0  0  0  0  1  0  0  0  0  0  0
  162.9860  205.1420  146.3460 O   0  0  0  0  0  0  0  0  0  0  0  0
  162.2500  204.8630  147.3290 C   0  0  0  0  0  0  0  0  0  0  0  0
  161.5280  207.5230  157.2610 C   0  0  0  0  0  3  0  0  0  0  0  0
  160.4950  208.7350  155.6290 C   0  0  0  0  0  0  0  0  0  0  0  0
  159.4890  207.8360  155.7970 N   0  0  0  0  0  0  0  0  0  0  0  0
  161.6070  208.5770  156.4180 N   0  0  0  0  0  0  0  0  0  0  0  0
  160.0480  206.8210  156.9820 S   0  0  0  0  0  0  0  0  0  0  0  0
  1 16  1  0  0  0  0
  2 11  1  0  0  0  0
  3  7  1  0  0  0  0
  3 14  2  0  0  0  0
  4  2  1  0  0  0  0
  4  8  1  0  0  0  0
  5 14  1  0  0  0  0
  5 27  1  0  0  0  0
  6  2  2  0  0  0  0
  8 13  1  6  0  0  0
  8  9  1  0  0  0  0
 10 12  1  0  0  0  0
 10 16  1  0  0  0  0
 11 15  1  0  0  0  0
 11 10  2  0  0  0  0
 12  9  1  6  0  0  0
 12  3  1  0  0  0  0
 15  1  2  0  0  0  0
 16  5  2  0  0  0  0
 17 21  1  0  0  0  0
 18 20  1  0  0  0  0
 18 15  1  0  0  0  0
 19 17  2  0  0  0  0
 19 22  1  0  0  0  0
 21 20  2  0  0  0  0
 22 18  2  0  0  0  0
 24 25  2  0  0  0  0
 25 23  1  0  0  0  0
 25 17  1  0  0  0  0
 27 28  2  0  0  0  0
 27 29  1  0  0  0  0
 28 30  1  0  0  0  0
 29 26  2  0  0  0  0
 30 26  1  0  0  0  0
M  END
>  <MODEL>
6

>  <REMARK>
 VINA RESULT:      -5.4      3.601      7.374
  Name = 
  3 active torsions:
  status: ('A' for Active; 'I' for Inactive)
    1  A    between atoms: C_6  and  C_30
    2  A    between atoms: C_7  and  C_26
    3  A    between atoms: C_8  and  C_9
                            x       y       z     vdW  Elec       q    Type
                         _______ _______ _______ _____ _____    ______ ____

>  <TORSDO>
F 3

$$$$
=
 OpenBabel11042420073D

 30 34  0  0  1  0  0  0  0  0999 V2000
  161.4980  208.6500  151.8220 N   0  0  0  0  0  0  0  0  0  0  0  0
  161.1440  207.2860  148.4060 C   0  0  0  0  0  0  0  0  0  0  0  0
  160.8970  204.5890  152.0820 C   0  0  0  0  0  0  0  0  0  0  0  0
  161.3180  205.9930  147.8250 N   0  0  0  0  0  2  0  0  0  0  0  0
  161.1410  206.7100  153.2880 C   0  0  0  0  0  0  0  0  0  0  0  0
  160.6740  208.2070  147.6880 O   0  0  0  0  0  0  0  0  0  0  0  0
  160.6830  203.2160  152.1240 O   0  0  0  0  0  1  0  0  0  0  0  0
  161.9850  204.8910  148.4960 C   0  0  1  0  0  3  0  0  0  0  0  0
  161.2140  204.4610  149.6520 N   0  0  0  0  0  2  0  0  0  0  0  0
  161.3140  206.6230  150.8670 C   0  0  0  0  0  0  0  0  0  0  0  0
  161.4280  207.5420  149.8380 C   0  0  0  0  0  0  0  0  0  0  0  0
  161.1180  205.2340  150.8510 C   0  0  2  0  0  3  0  0  0  0  0  0
  162.1530  203.5030  147.3410 S   0  0  0  0  0  1  0  0  0  0  0  0
  160.9120  205.3220  153.2830 C   0  0  0  0  0  3  0  0  0  0  0  0
  161.5660  208.7830  150.4750 C   0  0  0  0  0  0  0  0  0  0  0  0
  161.3350  207.3340  152.0440 C   0  0  0  0  0  0  0  0  0  0  0  0
  162.1540  212.5690  148.5400 C   0  0  0  0  0  0  0  0  0  0  0  0
  161.7900  210.0970  149.8380 C   0  0  0  0  0  0  0  0  0  0  0  0
  161.3840  212.4900  149.7070 C   0  0  0  0  0  3  0  0  0  0  0  0
  162.5430  210.1750  148.6580 C   0  0  0  0  0  3  0  0  0  0  0  0
  162.7290  211.4020  148.0160 C   0  0  0  0  0  3  0  0  0  0  0  0
  161.1990  211.2610  150.3490 C   0  0  0  0  0  3  0  0  0  0  0  0
  161.3020  214.4510  147.1650 O   0  0  0  0  0  0  0  0  0  0  0  0
  163.4590  214.4530  147.9250 O   0  0  0  0  0  1  0  0  0  0  0  0
  162.3470  213.8630  147.8690 C   0  0  0  0  0  0  0  0  0  0  0  0
  160.6160  207.7490  156.7660 C   0  0  0  0  0  3  0  0  0  0  0  0
  161.1480  207.4500  154.5700 C   0  0  0  0  0  0  0  0  0  0  0  0
  161.7820  208.6460  154.7080 N   0  0  0  0  0  0  0  0  0  0  0  0
  160.5130  206.9520  155.6790 N   0  0  0  0  0  0  0  0  0  0  0  0
  161.5130  209.0640  156.2880 S   0  0  0  0  0  0  0  0  0  0  0  0
  1 16  1  0  0  0  0
  2 11  1  0  0  0  0
  3  7  1  0  0  0  0
  3 14  2  0  0  0  0
  4  2  1  0  0  0  0
  4  8  1  0  0  0  0
  5 27  1  0  0  0  0
  6  2  2  0  0  0  0
  8 13  1  6  0  0  0
  8  9  1  0  0  0  0
 10 16  1  0  0  0  0
 11 15  1  0  0  0  0
 11 10  2  0  0  0  0
 12  9  1  1  0  0  0
 12 10  1  0  0  0  0
 12  3  1  0  0  0  0
 14  5  1  0  0  0  0
 15  1  2  0  0  0  0
 16  5  2  0  0  0  0
 17 19  1  0  0  0  0
 18 22  1  0  0  0  0
 18 15  1  0  0  0  0
 19 22  2  0  0  0  0
 20 18  2  0  0  0  0
 21 17  2  0  0  0  0
 21 20  1  0  0  0  0
 23 25  2  0  0  0  0
 25 24  1  0  0  0  0
 25 17  1  0  0  0  0
 27 28  2  0  0  0  0
 27 29  1  0  0  0  0
 28 30  1  0  0  0  0
 29 26  2  0  0  0  0
 30 26  1  0  0  0  0
M  END
>  <MODEL>
7

>  <REMARK>
 VINA RESULT:      -5.3      1.589      5.026
  Name = 
  3 active torsions:
  status: ('A' for Active; 'I' for Inactive)
    1  A    between atoms: C_6  and  C_30
    2  A    between atoms: C_7  and  C_26
    3  A    between atoms: C_8  and  C_9
                            x       y       z     vdW  Elec       q    Type
                         _______ _______ _______ _____ _____    ______ ____

>  <TORSDO>
F 3

$$$$
=
 OpenBabel11042420073D

 30 34  0  0  1  0  0  0  0  0999 V2000
  161.5800  208.4280  149.5310 N   0  0  0  0  0  0  0  0  0  0  0  0
  160.6380  206.3070  152.4050 C   0  0  0  0  0  0  0  0  0  0  0  0
  161.2090  210.8140  152.8620 C   0  0  0  0  0  0  0  0  0  0  0  0
  160.7520  206.4390  153.8230 N   0  0  0  0  0  2  0  0  0  0  0  0
  161.5890  210.7110  150.4420 C   0  0  0  0  0  0  0  0  0  0  0  0
  160.0020  205.3230  151.9450 O   0  0  0  0  0  0  0  0  0  0  0  0
  161.0640  211.5830  154.0100 O   0  0  0  0  0  1  0  0  0  0  0  0
  161.5790  207.4380  154.4760 C   0  0  1  0  0  3  0  0  0  0  0  0
  161.0610  208.7730  154.2160 N   0  0  0  0  0  2  0  0  0  0  0  0
  161.3020  208.6830  151.7470 C   0  0  0  0  0  0  0  0  0  0  0  0
  161.1790  207.3310  151.4810 C   0  0  0  0  0  0  0  0  0  0  0  0
  161.1640  209.4090  152.9400 C   0  0  0  0  0  0  0  0  0  0  0  0
  161.5810  207.1360  156.2630 S   0  0  0  0  0  1  0  0  0  0  0  0
  161.4220  211.4520  151.6260 C   0  0  0  0  0  3  0  0  0  0  0  0
  161.3840  207.2140  150.0990 C   0  0  0  0  0  0  0  0  0  0  0  0
  161.5170  209.3120  150.5430 C   0  0  1  0  0  3  0  0  0  0  0  0
  161.4020  203.5900  147.8000 C   0  0  0  0  0  0  0  0  0  0  0  0
  161.4270  205.9710  149.3020 C   0  0  0  0  0  0  0  0  0  0  0  0
  161.5970  204.8240  147.1660 C   0  0  0  0  0  3  0  0  0  0  0  0
  161.2130  204.7370  149.9310 C   0  0  0  0  0  3  0  0  0  0  0  0
  161.2060  203.5550  149.1870 C   0  0  0  0  0  3  0  0  0  0  0  0
  161.6030  206.0070  147.9110 C   0  0  0  0  0  3  0  0  0  0  0  0
  161.2050  202.3920  145.6360 O   0  0  0  0  0  0  0  0  0  0  0  0
  161.5680  201.2330  147.5740 O   0  0  0  0  0  1  0  0  0  0  0  0
  161.3970  202.3480  147.0120 C   0  0  0  0  0  0  0  0  0  0  0  0
  163.1040  212.3130  147.5100 C   0  0  0  0  0  3  0  0  0  0  0  0
  161.8100  211.4160  149.1590 C   0  0  0  0  0  0  0  0  0  0  0  0
  160.7770  211.8450  148.3850 N   0  0  0  0  0  0  0  0  0  0  0  0
  163.0770  211.6620  148.6950 N   0  0  0  0  0  0  0  0  0  0  0  0
  161.5160  212.5560  147.0840 S   0  0  0  0  0  0  0  0  0  0  0  0
  1 15  2  0  0  0  0
  2  4  1  0  0  0  0
  3 12  2  0  0  0  0
  3  7  1  0  0  0  0
  4  8  1  0  0  0  0
  5 16  1  0  0  0  0
  5 14  2  0  0  0  0
  6  2  2  0  0  0  0
  8 13  1  1  0  0  0
  9  8  1  0  0  0  0
 10 12  1  0  0  0  0
 11 10  2  0  0  0  0
 11  2  1  0  0  0  0
 12  9  1  0  0  0  0
 14  3  1  0  0  0  0
 15 11  1  0  0  0  0
 16  1  1  6  0  0  0
 16 10  1  0  0  0  0
 17 21  1  0  0  0  0
 18 20  1  0  0  0  0
 18 15  1  0  0  0  0
 19 17  2  0  0  0  0
 19 22  1  0  0  0  0
 21 20  2  0  0  0  0
 22 18  2  0  0  0  0
 23 25  2  0  0  0  0
 25 24  1  0  0  0  0
 25 17  1  0  0  0  0
 26 29  2  0  0  0  0
 27  5  1  0  0  0  0
 28 27  2  0  0  0  0
 29 27  1  0  0  0  0
 30 26  1  0  0  0  0
 30 28  1  0  0  0  0
M  END
>  <MODEL>
8

>  <REMARK>
 VINA RESULT:      -5.2      3.000      6.689
  Name = 
  3 active torsions:
  status: ('A' for Active; 'I' for Inactive)
    1  A    between atoms: C_6  and  C_30
    2  A    between atoms: C_7  and  C_26
    3  A    between atoms: C_8  and  C_9
                            x       y       z     vdW  Elec       q    Type
                         _______ _______ _______ _____ _____    ______ ____

>  <TORSDO>
F 3

$$$$
=
 OpenBabel11042420073D

 30 34  0  0  1  0  0  0  0  0999 V2000
  160.8430  211.0810  152.8860 N   0  0  0  0  0  0  0  0  0  0  0  0
  161.1390  208.0520  150.7910 C   0  0  0  0  0  0  0  0  0  0  0  0
  160.3990  207.7700  155.2880 C   0  0  0  0  0  0  0  0  0  0  0  0
  161.4690  206.6870  151.0510 N   0  0  0  0  0  2  0  0  0  0  0  0
  160.3340  210.2170  155.1300 C   0  0  0  0  0  0  0  0  0  0  0  0
  160.7540  208.3650  149.6340 O   0  0  0  0  0  0  0  0  0  0  0  0
  160.2460  206.6260  156.0610 O   0  0  0  0  0  1  0  0  0  0  0  0
  162.0640  206.2240  152.2920 C   0  0  1  0  0  3  0  0  0  0  0  0
  161.1290  206.3910  153.3950 N   0  0  0  0  0  2  0  0  0  0  0  0
  160.9200  208.8570  153.2050 C   0  0  0  0  0  0  0  0  0  0  0  0
  161.1630  209.0770  151.8610 C   0  0  0  0  0  0  0  0  0  0  0  0
  160.7950  207.6690  153.9410 C   0  0  0  0  0  0  0  0  0  0  0  0
  162.4900  204.4690  152.1320 S   0  0  0  0  0  1  0  0  0  0  0  0
  160.1760  209.0310  155.8720 C   0  0  0  0  0  3  0  0  0  0  0  0
  161.1320  210.4720  151.7110 C   0  0  0  0  0  0  0  0  0  0  0  0
  160.7070  210.0870  153.7820 C   0  0  1  0  0  3  0  0  0  0  0  0
  161.8640  212.6420  148.0820 C   0  0  0  0  0  0  0  0  0  0  0  0
  161.3990  211.2470  150.4830 C   0  0  0  0  0  0  0  0  0  0  0  0
  160.8810  213.0830  148.9770 C   0  0  0  0  0  3  0  0  0  0  0  0
  162.3670  210.7950  149.5760 C   0  0  0  0  0  3  0  0  0  0  0  0
  162.6030  211.4900  148.3870 C   0  0  0  0  0  3  0  0  0  0  0  0
  160.6470  212.3870  150.1660 C   0  0  0  0  0  3  0  0  0  0  0  0
  161.6120  212.8960  145.6260 O   0  0  0  0  0  0  0  0  0  0  0  0
  162.7690  214.4510  146.8400 O   0  0  0  0  0  1  0  0  0  0  0  0
  162.1090  213.3780  146.8320 C   0  0  0  0  0  0  0  0  0  0  0  0
  158.9060  213.4390  156.1440 C   0  0  0  0  0  3  0  0  0  0  0  0
  160.0890  211.5260  155.7750 C   0  0  0  0  0  0  0  0  0  0  0  0
  160.9420  212.0450  156.7000 N   0  0  0  0  0  0  0  0  0  0  0  0
  158.9810  212.2720  155.4660 N   0  0  0  0  0  0  0  0  0  0  0  0
  160.2510  213.4910  157.1190 S   0  0  0  0  0  0  0  0  0  0  0  0
  2  4  1  0  0  0  0
  2 11  1  0  0  0  0
  3 14  1  0  0  0  0
  3  7  1  0  0  0  0
  4  8  1  0  0  0  0
  5 27  1  0  0  0  0
  5 14  2  0  0  0  0
  6  2  2  0  0  0  0
  8 13  1  6  0  0  0
  8  9  1  0  0  0  0
  9 12  1  0  0  0  0
 10 16  1  0  0  0  0
 10 12  1  0  0  0  0
 11 10  2  0  0  0  0
 12  3  2  0  0  0  0
 15 11  1  0  0  0  0
 15  1  2  0  0  0  0
 16  1  1  6  0  0  0
 16  5  1  0  0  0  0
 17 21  2  0  0  0  0
 17 19  1  0  0  0  0
 18 15  1  0  0  0  0
 19 22  2  0  0  0  0
 20 18  2  0  0  0  0
 21 20  1  0  0  0  0
 22 18  1  0  0  0  0
 23 25  2  0  0  0  0
 25 24  1  0  0  0  0
 25 17  1  0  0  0  0
 26 30  1  0  0  0  0
 27 28  2  0  0  0  0
 28 30  1  0  0  0  0
 29 27  1  0  0  0  0
 29 26  2  0  0  0  0
M  END
>  <MODEL>
9

>  <REMARK>
 VINA RESULT:      -5.0      3.027      6.125
  Name = 
  3 active torsions:
  status: ('A' for Active; 'I' for Inactive)
    1  A    between atoms: C_6  and  C_30
    2  A    between atoms: C_7  and  C_26
    3  A    between atoms: C_8  and  C_9
                            x       y       z     vdW  Elec       q    Type
                         _______ _______ _______ _____ _____    ______ ____

>  <TORSDO>
F 3

$$$$
