=
 OpenBabel11042421263D

 33 37  0  0  1  0  0  0  0  0999 V2000
  161.1920  209.9710  156.5080 N   0  0  0  0  0  0  0  0  0  0  0  0
  161.8930  209.0610  150.1060 C   0  0  0  0  0  2  0  0  0  0  0  0
  161.1820  208.9280  154.3440 C   0  0  1  0  0  3  0  0  0  0  0  0
  162.0080  207.5530  149.9360 C   0  0  1  0  0  3  0  0  0  0  0  0
  160.4780  210.4320  152.0390 S   0  0  0  0  0  0  0  0  0  0  0  0
  161.9730  206.9980  151.3050 N   0  0  1  0  0  0  0  0  0  0  0  0
  161.5650  207.7380  153.4620 C   0  0  1  0  0  3  0  0  0  0  0  0
  161.4070  208.8740  155.7350 C   0  0  0  0  0  0  0  0  0  0  0  0
  161.8110  207.8140  156.2810 O   0  0  0  0  0  0  0  0  0  0  0  0
  160.8620  206.4560  153.9170 C   0  0  0  0  0  2  0  0  0  0  0  0
  160.1480  204.4040  153.0280 O   0  0  0  0  0  0  0  0  0  0  0  0
  160.7730  205.4280  152.8150 C   0  0  0  0  0  0  0  0  0  0  0  0
  161.7320  209.2210  151.5960 C   0  0  1  0  0  3  0  0  0  0  0  0
  160.7760  211.1390  155.9690 C   0  0  0  0  0  3  0  0  0  0  0  0
  161.2480  207.9400  152.0530 N   0  0  1  0  0  0  0  0  0  0  0  0
  160.7640  210.1730  153.8030 C   0  0  0  0  0  0  0  0  0  0  0  0
  160.5710  211.2340  154.6330 N   0  0  0  0  0  0  0  0  0  0  0  0
  161.3420  205.6700  151.4260 C   0  0  2  0  0  3  0  0  0  0  0  0
  160.8630  207.0520  149.0390 C   0  0  0  0  0  2  0  0  0  0  0  0
  161.2650  206.9900  147.5710 C   0  0  0  0  0  2  0  0  0  0  0  0
  160.3420  206.2410  146.8390 O   0  0  0  0  0  0  0  0  0  0  0  0
  162.2830  205.9380  145.6760 O   0  0  0  0  0  1  0  0  0  0  0  0
  160.9020  206.1130  145.5660 C   0  0  0  0  0  2  0  0  0  0  0  0
  162.3630  204.5800  151.1050 C   0  0  0  0  0  2  0  0  0  0  0  0
  160.1690  201.9870  148.0730 C   0  0  0  0  0  3  0  0  0  0  0  0
  161.1170  202.8970  147.8630 C   0  0  0  0  0  0  0  0  0  0  0  0
  162.3290  201.7000  151.9670 C   0  0  0  0  0  1  0  0  0  0  0  0
  161.4990  202.1820  150.8260 C   0  0  0  0  0  0  0  0  0  0  0  0
  159.4970  201.7910  149.3900 C   0  0  0  0  0  2  0  0  0  0  0  0
  161.7950  203.5100  150.2230 C   0  0  0  0  0  0  0  0  0  0  0  0
  161.5820  203.0590  146.5990 F   0  0  0  0  0  0  0  0  0  0  0  0
  160.4800  201.4070  150.4460 C   0  0  0  0  0  3  0  0  0  0  0  0
  161.6410  203.7930  148.9160 C   0  0  0  0  0  3  0  0  0  0  0  0
  2 13  1  0  0  0  0
  3 16  1  6  0  0  0
  3  8  1  0  0  0  0
  4 19  1  6  0  0  0
  4  2  1  0  0  0  0
  4  6  1  0  0  0  0
  5 16  1  0  0  0  0
  6 18  1  0  0  0  0
  6 15  1  0  0  0  0
  7 10  1  0  0  0  0
  7  3  1  0  0  0  0
  8  9  2  0  0  0  0
  8  1  1  0  0  0  0
 12 11  2  0  0  0  0
 12 10  1  0  0  0  0
 13  5  1  0  0  0  0
 13 15  1  0  0  0  0
 14  1  2  0  0  0  0
 15  7  1  0  0  0  0
 16 17  2  0  0  0  0
 17 14  1  0  0  0  0
 18 12  1  0  0  0  0
 20 19  1  0  0  0  0
 21 20  1  0  0  0  0
 23 22  1  0  0  0  0
 23 21  1  0  0  0  0
 24 18  1  0  0  0  0
 25 29  1  0  0  0  0
 26 25  2  0  0  0  0
 26 33  1  0  0  0  0
 28 27  1  0  0  0  0
 29 32  1  0  0  0  0
 30 28  1  0  0  0  0
 30 24  1  0  0  0  0
 31 26  1  0  0  0  0
 32 28  2  0  0  0  0
 33 30  2  0  0  0  0
M  END
>  <MODEL>
1

>  <REMARK>
 VINA RESULT:      -6.4      0.000      0.000
  Name = 
  6 active torsions:
  status: ('A' for Active; 'I' for Inactive)
    1  A    between atoms: C_2  and  C_6
    2  A    between atoms: C_2  and  C_32
    3  A    between atoms: C_16  and  C_30
    4  A    between atoms: C_27  and  O_29
    5  A    between atoms: O_29  and  C_32
    6  A    between atoms: C_30  and  C_33
                            x       y       z     vdW  Elec       q    Type
                         _______ _______ _______ _____ _____    ______ ____

>  <TORSDO>
F 6

$$$$
=
 OpenBabel11042421263D

 33 37  0  0  1  0  0  0  0  0999 V2000
  160.7980  211.6860  154.3280 N   0  0  0  0  0  2  0  0  0  0  0  0
  160.7520  205.2560  153.3510 C   0  0  0  0  0  2  0  0  0  0  0  0
  161.0500  209.5440  153.2710 C   0  0  0  0  0  0  0  0  0  0  0  0
  160.7000  205.0910  151.8380 C   0  0  1  0  0  3  0  0  0  0  0  0
  161.9300  207.3030  154.7790 S   0  0  0  0  0  0  0  0  0  0  0  0
  160.6180  206.4620  151.2950 N   0  0  1  0  0  0  0  0  0  0  0  0
  160.7910  208.6410  152.0620 C   0  0  1  0  0  3  0  0  0  0  0  0
  160.6930  210.9070  153.2190 C   0  0  0  0  0  0  0  0  0  0  0  0
  160.2700  211.4220  152.1510 O   0  0  0  0  0  0  0  0  0  0  0  0
  161.4850  209.1750  150.8070 C   0  0  0  0  0  2  0  0  0  0  0  0
  162.3450  208.3810  148.7710 O   0  0  0  0  0  0  0  0  0  0  0  0
  161.7120  208.0980  149.7740 C   0  0  0  0  0  0  0  0  0  0  0  0
  160.7620  206.7530  153.5260 C   0  0  1  0  0  3  0  0  0  0  0  0
  161.2290  211.1790  155.5050 C   0  0  0  0  0  3  0  0  0  0  0  0
  161.2380  207.2680  152.2640 N   0  0  1  0  0  0  0  0  0  0  0  0
  161.4810  209.0340  154.5240 C   0  0  0  0  0  0  0  0  0  0  0  0
  161.5610  209.8680  155.5960 N   0  0  0  0  0  0  0  0  0  0  0  0
  161.2740  206.6580  149.9880 C   0  0  2  0  0  3  0  0  0  0  0  0
  161.9410  204.3150  151.3670 C   0  0  0  0  0  2  0  0  0  0  0  0
  161.7800  202.8100  151.5400 C   0  0  0  0  0  2  0  0  0  0  0  0
  160.4810  202.4140  151.2190 O   0  0  0  0  0  0  0  0  0  0  0  0
  159.5680  201.3190  149.4340 O   0  0  0  0  0  1  0  0  0  0  0  0
  160.6330  201.3410  150.3370 C   0  0  0  0  0  2  0  0  0  0  0  0
  160.3230  206.2500  148.8650 C   0  0  0  0  0  2  0  0  0  0  0  0
  162.8820  203.4270  146.3740 C   0  0  0  0  0  3  0  0  0  0  0  0
  161.9700  203.1320  147.2960 C   0  0  0  0  0  0  0  0  0  0  0  0
  160.2430  206.9990  145.9540 C   0  0  0  0  0  1  0  0  0  0  0  0
  161.2120  205.9930  146.4740 C   0  0  0  0  0  0  0  0  0  0  0  0
  163.3810  204.8110  146.1240 C   0  0  0  0  0  2  0  0  0  0  0  0
  160.9980  205.4080  147.8250 C   0  0  0  0  0  0  0  0  0  0  0  0
  161.6710  201.8260  147.5080 F   0  0  0  0  0  0  0  0  0  0  0  0
  162.2700  205.7180  145.7070 C   0  0  0  0  0  3  0  0  0  0  0  0
  161.3170  204.1430  148.1550 C   0  0  0  0  0  3  0  0  0  0  0  0
  1 14  1  0  0  0  0
  2 13  1  0  0  0  0
  3 16  2  0  0  0  0
  4 19  1  6  0  0  0
  4  2  1  0  0  0  0
  6  4  1  0  0  0  0
  6 15  1  0  0  0  0
  7 15  1  0  0  0  0
  7  3  1  0  0  0  0
  8  3  1  0  0  0  0
  8  1  1  0  0  0  0
  9  8  2  0  0  0  0
 10  7  1  0  0  0  0
 11 12  2  0  0  0  0
 12 18  1  0  0  0  0
 12 10  1  0  0  0  0
 13  5  1  0  0  0  0
 14 17  2  0  0  0  0
 15 13  1  0  0  0  0
 16  5  1  0  0  0  0
 16 17  1  0  0  0  0
 18  6  1  0  0  0  0
 19 20  1  0  0  0  0
 21 20  1  0  0  0  0
 22 23  1  0  0  0  0
 23 21  1  0  0  0  0
 24 18  1  0  0  0  0
 25 26  2  0  0  0  0
 26 31  1  0  0  0  0
 26 33  1  0  0  0  0
 27 28  1  0  0  0  0
 28 30  1  0  0  0  0
 29 25  1  0  0  0  0
 30 33  2  0  0  0  0
 30 24  1  0  0  0  0
 32 29  1  0  0  0  0
 32 28  2  0  0  0  0
M  END
>  <MODEL>
2

>  <REMARK>
 VINA RESULT:      -6.1      2.008      4.262
  Name = 
  6 active torsions:
  status: ('A' for Active; 'I' for Inactive)
    1  A    between atoms: C_2  and  C_6
    2  A    between atoms: C_2  and  C_32
    3  A    between atoms: C_16  and  C_30
    4  A    between atoms: C_27  and  O_29
    5  A    between atoms: O_29  and  C_32
    6  A    between atoms: C_30  and  C_33
                            x       y       z     vdW  Elec       q    Type
                         _______ _______ _______ _____ _____    ______ ____

>  <TORSDO>
F 6

$$$$
=
 OpenBabel11042421263D

 33 37  0  0  1  0  0  0  0  0999 V2000
  161.4320  202.4720  145.7520 N   0  0  0  0  0  2  0  0  0  0  0  0
  161.5840  204.0880  152.0500 C   0  0  0  0  0  2  0  0  0  0  0  0
  161.3250  203.7690  147.7710 C   0  0  0  0  0  0  0  0  0  0  0  0
  161.8560  205.5850  152.0630 C   0  0  1  0  0  3  0  0  0  0  0  0
  160.2210  202.6420  150.1330 S   0  0  0  0  0  0  0  0  0  0  0  0
  162.0250  205.9670  150.6460 N   0  0  1  0  0  0  0  0  0  0  0  0
  161.7530  205.0130  148.5520 C   0  0  1  0  0  3  0  0  0  0  0  0
  161.6940  203.6270  146.4170 C   0  0  0  0  0  0  0  0  0  0  0  0
  162.2710  204.5640  145.8060 O   0  0  0  0  0  0  0  0  0  0  0  0
  161.2530  206.2950  147.8800 C   0  0  0  0  0  2  0  0  0  0  0  0
  160.6970  208.5040  148.4470 O   0  0  0  0  0  0  0  0  0  0  0  0
  161.1740  207.4550  148.8430 C   0  0  0  0  0  0  0  0  0  0  0  0
  161.5570  203.7630  150.5790 C   0  0  1  0  0  3  0  0  0  0  0  0
  160.8310  201.4280  146.3660 C   0  0  0  0  0  3  0  0  0  0  0  0
  161.2730  205.0200  149.9300 N   0  0  1  0  0  0  0  0  0  0  0  0
  160.7120  202.6510  148.3950 C   0  0  0  0  0  0  0  0  0  0  0  0
  160.4820  201.5210  147.6730 N   0  0  0  0  0  0  0  0  0  0  0  0
  161.5680  207.3290  150.3060 C   0  0  2  0  0  3  0  0  0  0  0  0
  160.6930  206.3090  152.7610 C   0  0  0  0  0  2  0  0  0  0  0  0
  160.9380  206.4880  154.2540 C   0  0  0  0  0  2  0  0  0  0  0  0
  160.0490  207.4220  154.7900 O   0  0  0  0  0  0  0  0  0  0  0  0
  159.8380  206.9240  157.0090 O   0  0  0  0  0  1  0  0  0  0  0  0
  160.5330  207.6920  156.0720 C   0  0  0  0  0  2  0  0  0  0  0  0
  162.6710  208.3380  150.6180 C   0  0  0  0  0  2  0  0  0  0  0  0
  160.7950  211.2230  153.5980 C   0  0  0  0  0  3  0  0  0  0  0  0
  161.8260  210.3990  153.7690 C   0  0  0  0  0  0  0  0  0  0  0  0
  162.3030  211.0630  149.4010 C   0  0  0  0  0  1  0  0  0  0  0  0
  161.6940  210.7060  150.7150 C   0  0  0  0  0  0  0  0  0  0  0  0
  159.9150  211.1990  152.3930 C   0  0  0  0  0  2  0  0  0  0  0  0
  162.1720  209.4930  151.4320 C   0  0  0  0  0  0  0  0  0  0  0  0
  162.4900  210.4400  154.9510 F   0  0  0  0  0  0  0  0  0  0  0  0
  160.6950  211.4770  151.1500 C   0  0  0  0  0  3  0  0  0  0  0  0
  162.2420  209.3900  152.7710 C   0  0  0  0  0  3  0  0  0  0  0  0
  1 14  1  0  0  0  0
  1  8  1  0  0  0  0
  2  4  1  0  0  0  0
  3 16  2  0  0  0  0
  3  7  1  0  0  0  0
  4 19  1  6  0  0  0
  5 13  1  0  0  0  0
  6  4  1  0  0  0  0
  7 15  1  0  0  0  0
  8  3  1  0  0  0  0
  9  8  2  0  0  0  0
 10  7  1  0  0  0  0
 10 12  1  0  0  0  0
 11 12  2  0  0  0  0
 12 18  1  0  0  0  0
 13  2  1  0  0  0  0
 14 17  2  0  0  0  0
 15 13  1  0  0  0  0
 15  6  1  0  0  0  0
 16  5  1  0  0  0  0
 17 16  1  0  0  0  0
 18 24  1  0  0  0  0
 18  6  1  0  0  0  0
 19 20  1  0  0  0  0
 20 21  1  0  0  0  0
 21 23  1  0  0  0  0
 23 22  1  0  0  0  0
 24 30  1  0  0  0  0
 25 26  2  0  0  0  0
 26 31  1  0  0  0  0
 27 28  1  0  0  0  0
 28 32  2  0  0  0  0
 28 30  1  0  0  0  0
 29 25  1  0  0  0  0
 30 33  2  0  0  0  0
 32 29  1  0  0  0  0
 33 26  1  0  0  0  0
M  END
>  <MODEL>
3

>  <REMARK>
 VINA RESULT:      -6.0      3.340      8.420
  Name = 
  6 active torsions:
  status: ('A' for Active; 'I' for Inactive)
    1  A    between atoms: C_2  and  C_6
    2  A    between atoms: C_2  and  C_32
    3  A    between atoms: C_16  and  C_30
    4  A    between atoms: C_27  and  O_29
    5  A    between atoms: O_29  and  C_32
    6  A    between atoms: C_30  and  C_33
                            x       y       z     vdW  Elec       q    Type
                         _______ _______ _______ _____ _____    ______ ____

>  <TORSDO>
F 6

$$$$
=
 OpenBabel11042421263D

 33 37  0  0  1  0  0  0  0  0999 V2000
  160.6830  200.9400  149.1640 N   0  0  0  0  0  0  0  0  0  0  0  0
  161.1510  207.2270  147.5620 C   0  0  0  0  0  2  0  0  0  0  0  0
  161.0740  203.3050  149.3220 C   0  0  1  0  0  3  0  0  0  0  0  0
  161.0500  207.9750  148.8840 C   0  0  1  0  0  3  0  0  0  0  0  0
  162.2070  204.7130  147.1300 S   0  0  0  0  0  0  0  0  0  0  0  0
  160.8270  206.9350  149.9100 N   0  0  1  0  0  0  0  0  0  0  0  0
  160.8440  204.6240  150.0630 C   0  0  1  0  0  3  0  0  0  0  0  0
  160.5990  202.0960  149.8720 C   0  0  0  0  0  0  0  0  0  0  0  0
  160.0890  202.0700  151.0230 O   0  0  0  0  0  0  0  0  0  0  0  0
  161.4360  204.5830  151.4740 C   0  0  0  0  0  2  0  0  0  0  0  0
  162.2740  206.0570  153.0980 O   0  0  0  0  0  0  0  0  0  0  0  0
  161.7110  205.9630  152.0210 C   0  0  0  0  0  0  0  0  0  0  0  0
  161.0390  205.7840  147.9830 C   0  0  1  0  0  3  0  0  0  0  0  0
  161.2050  200.9160  147.9170 C   0  0  0  0  0  3  0  0  0  0  0  0
  161.4160  205.7770  149.3770 N   0  0  1  0  0  0  0  0  0  0  0  0
  161.6000  203.2530  148.0040 C   0  0  0  0  0  0  0  0  0  0  0  0
  161.6520  202.0620  147.3480 N   0  0  0  0  0  0  0  0  0  0  0  0
  161.4080  207.2270  151.2340 C   0  0  2  0  0  3  0  0  0  0  0  0
  162.3320  208.7940  149.1060 C   0  0  0  0  0  2  0  0  0  0  0  0
  162.3310  210.0940  148.3120 C   0  0  0  0  0  2  0  0  0  0  0  0
  161.9520  211.1650  149.1220 O   0  0  0  0  0  0  0  0  0  0  0  0
  163.4220  212.4030  147.8880 O   0  0  0  0  0  1  0  0  0  0  0  0
  162.0970  212.2990  148.3200 C   0  0  0  0  0  2  0  0  0  0  0  0
  160.4490  208.1020  152.0390 C   0  0  0  0  0  2  0  0  0  0  0  0
  161.5300  209.3950  156.2680 C   0  0  0  0  0  3  0  0  0  0  0  0
  161.3400  208.1670  155.7930 C   0  0  0  0  0  0  0  0  0  0  0  0
  162.7300  210.0610  152.0230 C   0  0  0  0  0  1  0  0  0  0  0  0
  161.9400  209.7950  153.2580 C   0  0  0  0  0  0  0  0  0  0  0  0
  161.2180  210.6320  155.4950 C   0  0  0  0  0  2  0  0  0  0  0  0
  161.0620  208.5940  153.3150 C   0  0  0  0  0  0  0  0  0  0  0  0
  161.5580  207.1170  156.6250 F   0  0  0  0  0  0  0  0  0  0  0  0
  162.0210  210.6990  154.2370 C   0  0  0  0  0  3  0  0  0  0  0  0
  160.8330  207.8830  154.4340 C   0  0  0  0  0  3  0  0  0  0  0  0
  1  8  1  0  0  0  0
  2 13  1  0  0  0  0
  2  4  1  0  0  0  0
  3 16  1  6  0  0  0
  3  8  1  0  0  0  0
  3  7  1  0  0  0  0
  4 19  1  1  0  0  0
  4  6  1  0  0  0  0
  5 13  1  0  0  0  0
  5 16  1  0  0  0  0
  6 18  1  0  0  0  0
  7 10  1  0  0  0  0
  8  9  2  0  0  0  0
 10 12  1  0  0  0  0
 12 11  2  0  0  0  0
 13 15  1  0  0  0  0
 14  1  2  0  0  0  0
 15  6  1  0  0  0  0
 15  7  1  0  0  0  0
 17 14  1  0  0  0  0
 17 16  2  0  0  0  0
 18 12  1  0  0  0  0
 18 24  1  0  0  0  0
 20 19  1  0  0  0  0
 20 21  1  0  0  0  0
 22 23  1  0  0  0  0
 23 21  1  0  0  0  0
 24 30  1  0  0  0  0
 26 25  2  0  0  0  0
 26 31  1  0  0  0  0
 27 28  1  0  0  0  0
 28 30  1  0  0  0  0
 28 32  2  0  0  0  0
 29 25  1  0  0  0  0
 30 33  2  0  0  0  0
 32 29  1  0  0  0  0
 33 26  1  0  0  0  0
M  END
>  <MODEL>
4

>  <REMARK>
 VINA RESULT:      -5.8      3.527      7.416
  Name = 
  6 active torsions:
  status: ('A' for Active; 'I' for Inactive)
    1  A    between atoms: C_2  and  C_6
    2  A    between atoms: C_2  and  C_32
    3  A    between atoms: C_16  and  C_30
    4  A    between atoms: C_27  and  O_29
    5  A    between atoms: O_29  and  C_32
    6  A    between atoms: C_30  and  C_33
                            x       y       z     vdW  Elec       q    Type
                         _______ _______ _______ _____ _____    ______ ____

>  <TORSDO>
F 6

$$$$
=
 OpenBabel11042421263D

 33 37  0  0  1  0  0  0  0  0999 V2000
  160.8890  202.0460  148.8180 N   0  0  0  0  0  0  0  0  0  0  0  0
  161.3050  208.5370  148.7690 C   0  0  0  0  0  2  0  0  0  0  0  0
  161.1870  204.3120  149.5570 C   0  0  1  0  0  3  0  0  0  0  0  0
  161.0530  208.9550  150.2110 C   0  0  1  0  0  3  0  0  0  0  0  0
  162.4780  206.2030  147.8760 S   0  0  0  0  0  0  0  0  0  0  0  0
  160.7660  207.7030  150.9410 N   0  0  1  0  0  0  0  0  0  0  0  0
  160.8440  205.4200  150.5560 C   0  0  1  0  0  3  0  0  0  0  0  0
  160.7000  203.0040  149.7620 C   0  0  0  0  0  0  0  0  0  0  0  0
  160.0830  202.7060  150.8180 O   0  0  0  0  0  0  0  0  0  0  0  0
  161.2980  205.0560  151.9720 C   0  0  0  0  0  2  0  0  0  0  0  0
  161.9290  206.1180  153.9690 O   0  0  0  0  0  0  0  0  0  0  0  0
  161.4750  206.2730  152.8480 C   0  0  0  0  0  0  0  0  0  0  0  0
  161.2000  207.0350  148.8310 C   0  0  1  0  0  3  0  0  0  0  0  0
  161.5290  202.3190  147.6580 C   0  0  0  0  0  3  0  0  0  0  0  0
  161.4410  206.7060  150.2160 N   0  0  1  0  0  0  0  0  0  0  0  0
  161.8380  204.5750  148.3230 C   0  0  0  0  0  0  0  0  0  0  0  0
  161.9920  203.5700  147.4180 N   0  0  0  0  0  0  0  0  0  0  0  0
  161.2090  207.6830  152.3480 C   0  0  2  0  0  3  0  0  0  0  0  0
  162.2810  209.7110  150.7440 C   0  0  0  0  0  2  0  0  0  0  0  0
  162.2660  211.1840  150.3540 C   0  0  0  0  0  2  0  0  0  0  0  0
  162.5700  211.3370  149.0000 O   0  0  0  0  0  0  0  0  0  0  0  0
  160.8360  212.7780  149.3650 O   0  0  0  0  0  1  0  0  0  0  0  0
  162.0090  212.5630  148.6370 C   0  0  0  0  0  2  0  0  0  0  0  0
  160.1490  208.3370  153.2330 C   0  0  0  0  0  2  0  0  0  0  0  0
  161.8590  211.4510  156.0800 C   0  0  0  0  0  3  0  0  0  0  0  0
  162.4810  210.4430  155.4730 C   0  0  0  0  0  0  0  0  0  0  0  0
  159.3110  211.1120  152.4330 C   0  0  0  0  0  1  0  0  0  0  0  0
  159.9770  210.8450  153.7400 C   0  0  0  0  0  0  0  0  0  0  0  0
  160.3770  211.6240  156.0760 C   0  0  0  0  0  2  0  0  0  0  0  0
  160.6720  209.5460  153.9490 C   0  0  0  0  0  0  0  0  0  0  0  0
  163.8230  210.3280  155.6340 F   0  0  0  0  0  0  0  0  0  0  0  0
  159.8560  211.7790  154.6850 C   0  0  0  0  0  3  0  0  0  0  0  0
  161.7820  209.3980  154.6950 C   0  0  0  0  0  3  0  0  0  0  0  0
  1  8  1  0  0  0  0
  2 13  1  0  0  0  0
  2  4  1  0  0  0  0
  3 16  1  6  0  0  0
  3  8  1  0  0  0  0
  3  7  1  0  0  0  0
  4 19  1  1  0  0  0
  4  6  1  0  0  0  0
  5 16  1  0  0  0  0
  5 13  1  0  0  0  0
  6 18  1  0  0  0  0
  7 10  1  0  0  0  0
  8  9  2  0  0  0  0
 10 12  1  0  0  0  0
 12 11  2  0  0  0  0
 13 15  1  0  0  0  0
 14  1  2  0  0  0  0
 15  7  1  0  0  0  0
 15  6  1  0  0  0  0
 17 14  1  0  0  0  0
 17 16  2  0  0  0  0
 18 12  1  0  0  0  0
 18 24  1  0  0  0  0
 20 19  1  0  0  0  0
 21 20  1  0  0  0  0
 23 21  1  0  0  0  0
 23 22  1  0  0  0  0
 24 30  1  0  0  0  0
 26 31  1  0  0  0  0
 26 25  2  0  0  0  0
 27 28  1  0  0  0  0
 28 30  1  0  0  0  0
 28 32  2  0  0  0  0
 29 25  1  0  0  0  0
 30 33  2  0  0  0  0
 32 29  1  0  0  0  0
 33 26  1  0  0  0  0
M  END
>  <MODEL>
5

>  <REMARK>
 VINA RESULT:      -5.1      3.437      7.607
  Name = 
  6 active torsions:
  status: ('A' for Active; 'I' for Inactive)
    1  A    between atoms: C_2  and  C_6
    2  A    between atoms: C_2  and  C_32
    3  A    between atoms: C_16  and  C_30
    4  A    between atoms: C_27  and  O_29
    5  A    between atoms: O_29  and  C_32
    6  A    between atoms: C_30  and  C_33
                            x       y       z     vdW  Elec       q    Type
                         _______ _______ _______ _____ _____    ______ ____

>  <TORSDO>
F 6

$$$$
=
 OpenBabel11042421263D

 33 37  0  0  1  0  0  0  0  0999 V2000
  160.8940  202.1160  148.0920 N   0  0  0  0  0  0  0  0  0  0  0  0
  161.4460  208.5220  149.0800 C   0  0  0  0  0  2  0  0  0  0  0  0
  161.2040  204.2310  149.1900 C   0  0  1  0  0  3  0  0  0  0  0  0
  161.1360  208.7170  150.5580 C   0  0  1  0  0  3  0  0  0  0  0  0
  162.6120  206.3240  147.8840 S   0  0  0  0  0  0  0  0  0  0  0  0
  160.7890  207.3750  151.0690 N   0  0  1  0  0  0  0  0  0  0  0  0
  160.8370  205.1780  150.3340 C   0  0  1  0  0  3  0  0  0  0  0  0
  160.6810  202.9210  149.1660 C   0  0  0  0  0  0  0  0  0  0  0  0
  160.0090  202.4790  150.1340 O   0  0  0  0  0  0  0  0  0  0  0  0
  161.2170  204.5860  151.6940 C   0  0  0  0  0  2  0  0  0  0  0  0
  161.7740  205.3060  153.8580 O   0  0  0  0  0  0  0  0  0  0  0  0
  161.3770  205.6460  152.7570 C   0  0  0  0  0  0  0  0  0  0  0  0
  161.3070  207.0320  148.9010 C   0  0  1  0  0  3  0  0  0  0  0  0
  161.5940  202.5490  147.0180 C   0  0  0  0  0  3  0  0  0  0  0  0
  161.4760  206.4850  150.2270 N   0  0  1  0  0  0  0  0  0  0  0  0
  161.9180  204.6640  148.0420 C   0  0  0  0  0  0  0  0  0  0  0  0
  162.0930  203.8090  146.9980 N   0  0  0  0  0  0  0  0  0  0  0  0
  161.1640  207.1240  152.4740 C   0  0  2  0  0  3  0  0  0  0  0  0
  162.3520  209.3460  151.2560 C   0  0  0  0  0  2  0  0  0  0  0  0
  162.5620  210.8000  150.8510 C   0  0  0  0  0  2  0  0  0  0  0  0
  161.4490  211.2840  150.1610 O   0  0  0  0  0  0  0  0  0  0  0  0
  161.1000  212.9060  148.5910 O   0  0  0  0  0  1  0  0  0  0  0  0
  161.9660  211.8950  149.0160 C   0  0  0  0  0  2  0  0  0  0  0  0
  160.0770  207.6620  153.4030 C   0  0  0  0  0  2  0  0  0  0  0  0
  162.1550  210.9780  155.7290 C   0  0  0  0  0  3  0  0  0  0  0  0
  161.1930  211.0750  154.8150 C   0  0  0  0  0  0  0  0  0  0  0  0
  160.1680  207.0300  156.3410 C   0  0  0  0  0  1  0  0  0  0  0  0
  160.9450  208.1640  155.7620 C   0  0  0  0  0  0  0  0  0  0  0  0
  162.8860  209.7100  156.0210 C   0  0  0  0  0  2  0  0  0  0  0  0
  160.6140  208.6480  154.3950 C   0  0  0  0  0  0  0  0  0  0  0  0
  160.6730  212.3020  154.5600 F   0  0  0  0  0  0  0  0  0  0  0  0
  161.9510  208.6460  156.4950 C   0  0  0  0  0  3  0  0  0  0  0  0
  160.7090  209.9340  154.0100 C   0  0  0  0  0  3  0  0  0  0  0  0
  1  8  1  0  0  0  0
  2  4  1  0  0  0  0
  3 16  1  6  0  0  0
  3  7  1  0  0  0  0
  4  6  1  0  0  0  0
  4 19  1  1  0  0  0
  5 16  1  0  0  0  0
  5 13  1  0  0  0  0
  6 18  1  0  0  0  0
  7 10  1  0  0  0  0
  8  3  1  0  0  0  0
  8  9  2  0  0  0  0
 10 12  1  0  0  0  0
 12 11  2  0  0  0  0
 13  2  1  0  0  0  0
 13 15  1  0  0  0  0
 14  1  2  0  0  0  0
 15  7  1  0  0  0  0
 15  6  1  0  0  0  0
 17 14  1  0  0  0  0
 17 16  2  0  0  0  0
 18 12  1  0  0  0  0
 18 24  1  0  0  0  0
 20 19  1  0  0  0  0
 21 20  1  0  0  0  0
 22 23  1  0  0  0  0
 23 21  1  0  0  0  0
 24 30  1  0  0  0  0
 25 29  1  0  0  0  0
 26 25  2  0  0  0  0
 28 27  1  0  0  0  0
 28 32  2  0  0  0  0
 29 32  1  0  0  0  0
 30 28  1  0  0  0  0
 31 26  1  0  0  0  0
 33 30  2  0  0  0  0
 33 26  1  0  0  0  0
M  END
>  <MODEL>
6

>  <REMARK>
 VINA RESULT:      -5.1      3.480      7.390
  Name = 
  6 active torsions:
  status: ('A' for Active; 'I' for Inactive)
    1  A    between atoms: C_2  and  C_6
    2  A    between atoms: C_2  and  C_32
    3  A    between atoms: C_16  and  C_30
    4  A    between atoms: C_27  and  O_29
    5  A    between atoms: O_29  and  C_32
    6  A    between atoms: C_30  and  C_33
                            x       y       z     vdW  Elec       q    Type
                         _______ _______ _______ _____ _____    ______ ____

>  <TORSDO>
F 6

$$$$
=
 OpenBabel11042421263D

 33 37  0  0  1  0  0  0  0  0999 V2000
  160.8540  206.9610  155.3290 N   0  0  0  0  0  0  0  0  0  0  0  0
  162.5900  210.6390  150.2530 C   0  0  0  0  0  2  0  0  0  0  0  0
  161.1000  207.7600  153.0770 C   0  0  1  0  0  3  0  0  0  0  0  0
  162.5270  209.7040  149.0530 C   0  0  1  0  0  3  0  0  0  0  0  0
  161.0450  210.5490  152.5390 S   0  0  0  0  0  0  0  0  0  0  0  0
  162.1650  208.3810  149.6030 N   0  0  1  0  0  0  0  0  0  0  0  0
  161.4720  207.4760  151.6200 C   0  0  1  0  0  3  0  0  0  0  0  0
  161.0550  206.7030  154.0100 C   0  0  0  0  0  0  0  0  0  0  0  0
  161.2020  205.5100  153.6380 O   0  0  0  0  0  0  0  0  0  0  0  0
  160.5280  206.4470  150.9920 C   0  0  0  0  0  2  0  0  0  0  0  0
  159.7150  205.8310  148.8770 O   0  0  0  0  0  0  0  0  0  0  0  0
  160.5030  206.5340  149.4850 C   0  0  0  0  0  0  0  0  0  0  0  0
  162.1820  209.7470  151.3970 C   0  0  1  0  0  3  0  0  0  0  0  0
  160.7080  208.2260  155.7830 C   0  0  0  0  0  3  0  0  0  0  0  0
  161.4500  208.6670  150.7780 N   0  0  1  0  0  0  0  0  0  0  0  0
  160.9630  209.0790  153.5850 C   0  0  0  0  0  0  0  0  0  0  0  0
  160.7670  209.2680  154.9180 N   0  0  0  0  0  0  0  0  0  0  0  0
  161.3460  207.5360  148.7130 C   0  0  2  0  0  3  0  0  0  0  0  0
  161.5090  210.2470  148.0370 C   0  0  0  0  0  2  0  0  0  0  0  0
  161.5800  211.7640  147.9040 C   0  0  0  0  0  2  0  0  0  0  0  0
  160.4920  212.2450  147.1740 O   0  0  0  0  0  0  0  0  0  0  0  0
  162.3660  212.9930  146.1060 O   0  0  0  0  0  1  0  0  0  0  0  0
  161.0160  213.2470  146.3550 C   0  0  0  0  0  2  0  0  0  0  0  0
  162.2500  206.7850  147.7360 C   0  0  0  0  0  2  0  0  0  0  0  0
  161.2060  202.4420  146.8580 C   0  0  0  0  0  3  0  0  0  0  0  0
  161.2100  203.0800  148.0260 C   0  0  0  0  0  0  0  0  0  0  0  0
  160.3320  206.5780  145.4300 C   0  0  0  0  0  1  0  0  0  0  0  0
  161.0080  205.3740  145.9930 C   0  0  0  0  0  0  0  0  0  0  0  0
  161.7560  203.0260  145.6000 C   0  0  0  0  0  2  0  0  0  0  0  0
  161.6690  205.4670  147.3230 C   0  0  0  0  0  0  0  0  0  0  0  0
  160.7810  202.4100  149.1240 F   0  0  0  0  0  0  0  0  0  0  0  0
  161.0350  204.2800  145.2280 C   0  0  0  0  0  3  0  0  0  0  0  0
  161.7250  204.4540  148.2070 C   0  0  0  0  0  3  0  0  0  0  0  0
  1 14  2  0  0  0  0
  2 13  1  0  0  0  0
  3 16  1  1  0  0  0
  3  8  1  0  0  0  0
  4 19  1  6  0  0  0
  4  6  1  0  0  0  0
  4  2  1  0  0  0  0
  5 16  1  0  0  0  0
  6 15  1  0  0  0  0
  7  3  1  0  0  0  0
  8  1  1  0  0  0  0
  9  8  2  0  0  0  0
 10  7  1  0  0  0  0
 11 12  2  0  0  0  0
 12 10  1  0  0  0  0
 13  5  1  0  0  0  0
 15 13  1  0  0  0  0
 15  7  1  0  0  0  0
 16 17  2  0  0  0  0
 17 14  1  0  0  0  0
 18 12  1  0  0  0  0
 18  6  1  0  0  0  0
 20 19  1  0  0  0  0
 21 20  1  0  0  0  0
 22 23  1  0  0  0  0
 23 21  1  0  0  0  0
 24 18  1  0  0  0  0
 25 26  2  0  0  0  0
 26 33  1  0  0  0  0
 26 31  1  0  0  0  0
 27 28  1  0  0  0  0
 28 30  1  0  0  0  0
 29 25  1  0  0  0  0
 30 24  1  0  0  0  0
 30 33  2  0  0  0  0
 32 29  1  0  0  0  0
 32 28  2  0  0  0  0
M  END
>  <MODEL>
7

>  <REMARK>
 VINA RESULT:      -5.0      2.475      3.863
  Name = 
  6 active torsions:
  status: ('A' for Active; 'I' for Inactive)
    1  A    between atoms: C_2  and  C_6
    2  A    between atoms: C_2  and  C_32
    3  A    between atoms: C_16  and  C_30
    4  A    between atoms: C_27  and  O_29
    5  A    between atoms: O_29  and  C_32
    6  A    between atoms: C_30  and  C_33
                            x       y       z     vdW  Elec       q    Type
                         _______ _______ _______ _____ _____    ______ ____

>  <TORSDO>
F 6

$$$$
=
 OpenBabel11042421263D

 33 37  0  0  1  0  0  0  0  0999 V2000
  162.2370  207.4350  147.5880 N   0  0  0  0  0  2  0  0  0  0  0  0
  161.4510  205.9890  153.8810 C   0  0  0  0  0  2  0  0  0  0  0  0
  161.5780  207.5900  149.8930 C   0  0  0  0  0  0  0  0  0  0  0  0
  161.2060  207.3280  154.5620 C   0  0  1  0  0  3  0  0  0  0  0  0
  160.7710  205.2620  151.3060 S   0  0  0  0  0  0  0  0  0  0  0  0
  161.3240  208.3420  153.4930 N   0  0  1  0  0  0  0  0  0  0  0  0
  161.5160  208.4080  151.1850 C   0  0  1  0  0  3  0  0  0  0  0  0
  162.0550  208.1850  148.7070 C   0  0  0  0  0  0  0  0  0  0  0  0
  162.3230  209.4140  148.6660 O   0  0  0  0  0  0  0  0  0  0  0  0
  160.6590  209.6650  151.0110 C   0  0  0  0  0  2  0  0  0  0  0  0
  159.3630  211.1310  152.3080 O   0  0  0  0  0  0  0  0  0  0  0  0
  160.1380  210.1900  152.3270 C   0  0  0  0  0  0  0  0  0  0  0  0
  161.6250  206.3740  152.4350 C   0  0  1  0  0  3  0  0  0  0  0  0
  161.9820  206.1070  147.5840 C   0  0  0  0  0  3  0  0  0  0  0  0
  160.9780  207.6590  152.3150 N   0  0  1  0  0  0  0  0  0  0  0  0
  161.3370  206.1910  149.8650 C   0  0  0  0  0  0  0  0  0  0  0  0
  161.5420  205.4980  148.7120 N   0  0  0  0  0  0  0  0  0  0  0  0
  160.4600  209.5270  153.6560 C   0  0  2  0  0  3  0  0  0  0  0  0
  159.8270  207.3090  155.2420 C   0  0  0  0  0  2  0  0  0  0  0  0
  159.9340  207.3170  156.7620 C   0  0  0  0  0  2  0  0  0  0  0  0
  160.6190  208.4520  157.2010 O   0  0  0  0  0  0  0  0  0  0  0  0
  162.7740  209.2030  157.2600 O   0  0  0  0  0  1  0  0  0  0  0  0
  161.9600  208.0680  157.2600 C   0  0  0  0  0  2  0  0  0  0  0  0
  161.1410  210.5410  154.5720 C   0  0  0  0  0  2  0  0  0  0  0  0
  157.7030  212.8200  156.5000 C   0  0  0  0  0  3  0  0  0  0  0  0
  157.7190  211.5760  156.0260 C   0  0  0  0  0  0  0  0  0  0  0  0
  162.0140  211.8570  157.1310 C   0  0  0  0  0  1  0  0  0  0  0  0
  160.6960  212.1650  156.5050 C   0  0  0  0  0  0  0  0  0  0  0  0
  158.8160  213.7920  156.2940 C   0  0  0  0  0  2  0  0  0  0  0  0
  160.1630  211.2610  155.4500 C   0  0  0  0  0  0  0  0  0  0  0  0
  156.6070  210.8160  156.1830 F   0  0  0  0  0  0  0  0  0  0  0  0
  160.0890  213.2890  156.8930 C   0  0  0  0  0  3  0  0  0  0  0  0
  158.8550  211.0010  155.2750 C   0  0  0  0  0  3  0  0  0  0  0  0
  1  8  1  0  0  0  0
  2  4  1  0  0  0  0
  3  7  1  0  0  0  0
  4 19  1  6  0  0  0
  5 13  1  0  0  0  0
  6 18  1  0  0  0  0
  6  4  1  0  0  0  0
  7 15  1  0  0  0  0
  8  3  1  0  0  0  0
  9  8  2  0  0  0  0
 10  7  1  0  0  0  0
 10 12  1  0  0  0  0
 11 12  2  0  0  0  0
 12 18  1  0  0  0  0
 13  2  1  0  0  0  0
 14  1  1  0  0  0  0
 14 17  2  0  0  0  0
 15 13  1  0  0  0  0
 15  6  1  0  0  0  0
 16  3  2  0  0  0  0
 16  5  1  0  0  0  0
 17 16  1  0  0  0  0
 18 24  1  0  0  0  0
 19 20  1  0  0  0  0
 20 21  1  0  0  0  0
 21 23  1  0  0  0  0
 22 23  1  0  0  0  0
 24 30  1  0  0  0  0
 26 31  1  0  0  0  0
 26 25  2  0  0  0  0
 28 32  2  0  0  0  0
 28 27  1  0  0  0  0
 29 25  1  0  0  0  0
 29 32  1  0  0  0  0
 30 28  1  0  0  0  0
 33 30  2  0  0  0  0
 33 26  1  0  0  0  0
M  END
>  <MODEL>
8

>  <REMARK>
 VINA RESULT:      -4.8      3.748      8.788
  Name = 
  6 active torsions:
  status: ('A' for Active; 'I' for Inactive)
    1  A    between atoms: C_2  and  C_6
    2  A    between atoms: C_2  and  C_32
    3  A    between atoms: C_16  and  C_30
    4  A    between atoms: C_27  and  O_29
    5  A    between atoms: O_29  and  C_32
    6  A    between atoms: C_30  and  C_33
                            x       y       z     vdW  Elec       q    Type
                         _______ _______ _______ _____ _____    ______ ____

>  <TORSDO>
F 6

$$$$
=
 OpenBabel11042421263D

 33 37  0  0  1  0  0  0  0  0999 V2000
  160.4920  206.9640  155.6570 N   0  0  0  0  0  0  0  0  0  0  0  0
  162.2390  210.5630  150.5280 C   0  0  0  0  0  2  0  0  0  0  0  0
  160.8730  207.6590  153.3890 C   0  0  1  0  0  3  0  0  0  0  0  0
  162.4490  209.5610  149.4020 C   0  0  1  0  0  3  0  0  0  0  0  0
  160.4730  210.3700  152.6410 S   0  0  0  0  0  0  0  0  0  0  0  0
  162.2240  208.2320  150.0080 N   0  0  1  0  0  0  0  0  0  0  0  0
  161.4460  207.3510  152.0040 C   0  0  1  0  0  3  0  0  0  0  0  0
  160.8770  206.6640  154.3890 C   0  0  0  0  0  0  0  0  0  0  0  0
  161.2380  205.4880  154.1240 O   0  0  0  0  0  0  0  0  0  0  0  0
  160.7400  206.1550  151.3610 C   0  0  0  0  0  2  0  0  0  0  0  0
  160.2720  205.2990  149.2250 O   0  0  0  0  0  0  0  0  0  0  0  0
  160.8750  206.1490  149.8570 C   0  0  0  0  0  0  0  0  0  0  0  0
  161.8370  209.6870  151.6870 C   0  0  1  0  0  3  0  0  0  0  0  0
  160.1120  208.2170  155.9980 C   0  0  0  0  0  3  0  0  0  0  0  0
  161.3460  208.4740  151.0780 N   0  0  1  0  0  0  0  0  0  0  0  0
  160.4880  208.9690  153.7800 C   0  0  0  0  0  0  0  0  0  0  0  0
  160.1170  209.2020  155.0680 N   0  0  0  0  0  0  0  0  0  0  0  0
  161.6440  207.2220  149.1030 C   0  0  2  0  0  3  0  0  0  0  0  0
  161.4860  209.8820  148.2470 C   0  0  0  0  0  2  0  0  0  0  0  0
  161.4550  211.3690  147.9180 C   0  0  0  0  0  2  0  0  0  0  0  0
  162.7510  211.8710  147.7860 O   0  0  0  0  0  0  0  0  0  0  0  0
  161.6000  213.6590  146.9560 O   0  0  0  0  0  1  0  0  0  0  0  0
  162.6120  213.2600  147.8320 C   0  0  0  0  0  2  0  0  0  0  0  0
  162.7530  206.5630  148.2850 C   0  0  0  0  0  2  0  0  0  0  0  0
  160.3810  204.7900  144.8270 C   0  0  0  0  0  3  0  0  0  0  0  0
  160.5170  206.0650  145.1790 C   0  0  0  0  0  0  0  0  0  0  0  0
  164.4110  204.5930  146.7320 C   0  0  0  0  0  1  0  0  0  0  0  0
  162.9440  204.7270  146.5050 C   0  0  0  0  0  0  0  0  0  0  0  0
  160.8550  203.6510  145.6670 C   0  0  0  0  0  2  0  0  0  0  0  0
  162.2330  205.9230  147.0330 C   0  0  0  0  0  0  0  0  0  0  0  0
  159.9530  207.0120  144.3870 F   0  0  0  0  0  0  0  0  0  0  0  0
  162.3310  203.7170  145.8830 C   0  0  0  0  0  3  0  0  0  0  0  0
  161.1860  206.5060  146.4220 C   0  0  0  0  0  3  0  0  0  0  0  0
  1 14  2  0  0  0  0
  2 13  1  0  0  0  0
  3 16  1  1  0  0  0
  3  8  1  0  0  0  0
  4 19  1  6  0  0  0
  4  6  1  0  0  0  0
  4  2  1  0  0  0  0
  5 16  1  0  0  0  0
  6 15  1  0  0  0  0
  7  3  1  0  0  0  0
  8  1  1  0  0  0  0
  9  8  2  0  0  0  0
 10  7  1  0  0  0  0
 11 12  2  0  0  0  0
 12 10  1  0  0  0  0
 13  5  1  0  0  0  0
 15 13  1  0  0  0  0
 15  7  1  0  0  0  0
 16 17  2  0  0  0  0
 17 14  1  0  0  0  0
 18 12  1  0  0  0  0
 18  6  1  0  0  0  0
 20 19  1  0  0  0  0
 21 23  1  0  0  0  0
 21 20  1  0  0  0  0
 22 23  1  0  0  0  0
 24 18  1  0  0  0  0
 25 26  2  0  0  0  0
 25 29  1  0  0  0  0
 26 33  1  0  0  0  0
 28 27  1  0  0  0  0
 28 30  1  0  0  0  0
 29 32  1  0  0  0  0
 30 24  1  0  0  0  0
 31 26  1  0  0  0  0
 32 28  2  0  0  0  0
 33 30  2  0  0  0  0
M  END
>  <MODEL>
9

>  <REMARK>
 VINA RESULT:      -4.7      2.688      3.907
  Name = 
  6 active torsions:
  status: ('A' for Active; 'I' for Inactive)
    1  A    between atoms: C_2  and  C_6
    2  A    between atoms: C_2  and  C_32
    3  A    between atoms: C_16  and  C_30
    4  A    between atoms: C_27  and  O_29
    5  A    between atoms: O_29  and  C_32
    6  A    between atoms: C_30  and  C_33
                            x       y       z     vdW  Elec       q    Type
                         _______ _______ _______ _____ _____    ______ ____

>  <TORSDO>
F 6

$$$$
