=
 OpenBabel11052411083D

 44 48  0  0  1  0  0  0  0  0999 V2000
  161.9540  211.0850  148.6780 C   0  0  0  0  0  0  0  0  0  0  0  0
  162.1490  208.9160  149.7570 C   0  0  0  0  0  3  0  0  0  0  0  0
  161.8170  209.4880  150.9920 C   0  0  0  0  0  0  0  0  0  0  0  0
  162.2190  209.7080  148.6090 C   0  0  0  0  0  3  0  0  0  0  0  0
  161.5480  210.8600  151.0600 C   0  0  0  0  0  3  0  0  0  0  0  0
  161.6210  211.6550  149.9110 C   0  0  0  0  0  3  0  0  0  0  0  0
  161.6060  207.2760  152.3120 C   0  0  0  0  0  0  0  0  0  0  0  0
  161.3590  206.7130  153.4590 N   0  0  0  0  0  0  0  0  0  0  0  0
  161.7030  208.7050  152.1880 N   0  0  0  0  0  2  0  0  0  0  0  0
  160.2570  206.6940  155.6350 C   0  0  0  0  0  3  0  0  0  0  0  0
  159.9660  207.2720  156.8740 C   0  0  0  0  0  3  0  0  0  0  0  0
  161.0970  207.3460  154.7260 C   0  0  0  0  0  0  0  0  0  0  0  0
  160.5120  208.5120  157.2120 C   0  0  0  0  0  3  0  0  0  0  0  0
  161.3490  209.1830  156.3160 C   0  0  0  0  0  0  0  0  0  0  0  0
  161.6350  208.5960  155.0740 C   0  0  0  0  0  3  0  0  0  0  0  0
  161.8840  210.4210  156.6780 O   0  0  0  0  0  0  0  0  0  0  0  0
  163.2800  210.6800  156.6780 C   0  0  0  0  0  1  0  0  0  0  0  0
  161.8440  206.3830  151.1370 C   0  0  0  0  0  2  0  0  0  0  0  0
  160.5290  205.8720  150.5680 C   0  0  1  0  0  3  0  0  0  0  0  0
  160.7900  202.1260  150.4300 C   0  0  0  0  0  3  0  0  0  0  0  0
  161.2300  201.2740  149.4090 C   0  0  0  0  0  3  0  0  0  0  0  0
  160.6800  205.7460  148.7420 S   0  0  0  0  0  0  0  0  0  0  0  0
  161.3630  203.1620  147.8790 C   0  0  0  0  0  3  0  0  0  0  0  0
  160.9130  203.9950  148.9060 C   0  0  0  0  0  0  0  0  0  0  0  0
  161.5180  201.7930  148.1350 C   0  0  0  0  0  3  0  0  0  0  0  0
  160.6420  203.4890  150.1610 C   0  0  0  0  0  0  0  0  0  0  0  0
  160.2010  204.4930  151.1550 C   0  0  0  0  0  2  0  0  0  0  0  0
  162.0140  211.9250  147.5190 N   0  0  0  0  0  2  0  0  0  0  0  0
  160.8980  212.5460  146.8570 C   0  0  0  0  0  0  0  0  0  0  0  0
  159.7230  212.4370  147.3080 O   0  0  0  0  0  0  0  0  0  0  0  0
  161.1310  213.3590  145.6290 C   0  0  0  0  0  2  0  0  0  0  0  0
  160.6250  212.6680  144.4030 C   0  0  0  0  0  0  0  0  0  0  0  0
  159.5060  212.0890  144.4420 O   0  0  0  0  0  0  0  0  0  0  0  0
  161.3760  212.7060  143.1850 N   0  0  0  0  0  2  0  0  0  0  0  0
  160.9080  212.0760  141.9590 C   0  0  1  0  0  3  0  0  0  0  0  0
  159.9010  212.8540  141.3820 O   0  0  0  0  0  1  0  0  0  0  0  0
  161.9010  213.4260  137.6380 C   0  0  0  0  0  1  0  0  0  0  0  0
  162.1380  212.9990  140.0300 N   0  0  0  0  0  0  0  0  0  0  0  0
  162.0690  211.8870  140.9840 C   0  0  2  0  0  3  0  0  0  0  0  0
  161.9030  210.2830  140.1330 S   0  0  0  0  0  0  0  0  0  0  0  0
  162.4150  212.4650  138.6990 C   0  0  1  0  0  3  0  0  0  0  0  0
  162.4060  210.3070  137.4640 C   0  0  0  0  0  1  0  0  0  0  0  0
  163.2810  213.8120  140.4120 C   0  0  0  0  0  1  0  0  0  0  0  0
  161.7360  211.1260  138.5510 C   0  0  1  0  0  3  0  0  0  0  0  0
  1  6  1  0  0  0  0
  2  3  2  0  0  0  0
  3  5  1  0  0  0  0
  3  9  1  0  0  0  0
  4  1  2  0  0  0  0
  4  2  1  0  0  0  0
  6  5  2  0  0  0  0
  7  8  2  0  0  0  0
  8 12  1  0  0  0  0
  9  7  1  0  0  0  0
 10 11  1  0  0  0  0
 11 13  2  0  0  0  0
 12 15  1  0  0  0  0
 12 10  2  0  0  0  0
 14 16  1  0  0  0  0
 14 13  1  0  0  0  0
 15 14  2  0  0  0  0
 17 16  1  0  0  0  0
 18  7  1  0  0  0  0
 19 18  1  1  0  0  0
 19 27  1  0  0  0  0
 21 20  2  0  0  0  0
 22 24  1  0  0  0  0
 22 19  1  0  0  0  0
 23 25  2  0  0  0  0
 23 24  1  0  0  0  0
 24 26  2  0  0  0  0
 25 21  1  0  0  0  0
 26 20  1  0  0  0  0
 26 27  1  0  0  0  0
 28  1  1  0  0  0  0
 29 30  2  0  0  0  0
 29 28  1  0  0  0  0
 31 29  1  0  0  0  0
 32 33  2  0  0  0  0
 32 31  1  0  0  0  0
 34 32  1  0  0  0  0
 35 36  1  6  0  0  0
 35 34  1  0  0  0  0
 38 43  1  0  0  0  0
 38 39  1  0  0  0  0
 39 35  1  1  0  0  0
 40 39  1  0  0  0  0
 41 37  1  6  0  0  0
 41 38  1  0  0  0  0
 44 42  1  6  0  0  0
 44 41  1  0  0  0  0
 44 40  1  0  0  0  0
M  END
>  <MODEL>
1

>  <REMARK>
 VINA RESULT:      -8.6      0.000      0.000
  Name = 
  10 active torsions:
  status: ('A' for Active; 'I' for Inactive)
    1  A    between atoms: C_2  and  C_13
    2  A    between atoms: C_2  and  N_26
    3  A    between atoms: C_3  and  N_32
    4  A    between atoms: C_4  and  C_36
    5  A    between atoms: C_11  and  C_12
    6  A    between atoms: C_11  and  C_41
    7  A    between atoms: C_17  and  C_36
    8  A    between atoms: C_18  and  N_29
    9  A    between atoms: N_20  and  C_23
   10  A    between atoms: C_37  and  O_40
                            x       y       z     vdW  Elec       q    Type
                         _______ _______ _______ _____ _____    ______ ____

>  <TORSDO>
F 10

$$$$
=
 OpenBabel11052411083D

 44 48  0  0  1  0  0  0  0  0999 V2000
  162.2110  210.4040  148.8140 C   0  0  0  0  0  0  0  0  0  0  0  0
  161.9380  208.9400  150.7340 C   0  0  0  0  0  3  0  0  0  0  0  0
  161.7160  207.8490  149.8850 C   0  0  0  0  0  0  0  0  0  0  0  0
  162.1820  210.2090  150.2030 C   0  0  0  0  0  3  0  0  0  0  0  0
  161.7490  208.0430  148.4990 C   0  0  0  0  0  3  0  0  0  0  0  0
  161.9900  209.3140  147.9660 C   0  0  0  0  0  3  0  0  0  0  0  0
  161.6850  206.0370  151.7270 C   0  0  0  0  0  0  0  0  0  0  0  0
  161.5820  204.7690  152.0040 N   0  0  0  0  0  0  0  0  0  0  0  0
  161.4930  206.5240  150.3880 N   0  0  0  0  0  2  0  0  0  0  0  0
  161.1850  202.3910  151.6360 C   0  0  0  0  0  3  0  0  0  0  0  0
  160.9500  201.2950  150.8000 C   0  0  0  0  0  3  0  0  0  0  0  0
  161.3330  203.6750  151.1020 C   0  0  0  0  0  0  0  0  0  0  0  0
  160.8640  201.4770  149.4180 C   0  0  0  0  0  3  0  0  0  0  0  0
  161.0150  202.7520  148.8620 C   0  0  0  0  0  0  0  0  0  0  0  0
  161.2520  203.8450  149.7100 C   0  0  0  0  0  3  0  0  0  0  0  0
  160.9240  202.9070  147.4780 O   0  0  0  0  0  0  0  0  0  0  0  0
  161.5040  204.0080  146.7930 C   0  0  0  0  0  1  0  0  0  0  0  0
  161.9510  206.9760  152.8590 C   0  0  0  0  0  2  0  0  0  0  0  0
  160.6530  207.3920  153.5360 C   0  0  1  0  0  3  0  0  0  0  0  0
  161.2250  210.8200  154.9630 C   0  0  0  0  0  3  0  0  0  0  0  0
  161.6760  211.2240  156.2260 C   0  0  0  0  0  3  0  0  0  0  0  0
  160.7080  206.8720  155.2960 S   0  0  0  0  0  0  0  0  0  0  0  0
  161.5570  208.9250  157.0140 C   0  0  0  0  0  3  0  0  0  0  0  0
  161.0990  208.5410  155.7520 C   0  0  0  0  0  0  0  0  0  0  0  0
  161.8440  210.2760  157.2500 C   0  0  0  0  0  3  0  0  0  0  0  0
  160.9460  209.4680  154.7420 C   0  0  0  0  0  0  0  0  0  0  0  0
  160.4790  208.9130  153.4530 C   0  0  0  0  0  2  0  0  0  0  0  0
  162.4620  211.6910  148.2360 N   0  0  0  0  0  2  0  0  0  0  0  0
  161.4880  212.5610  147.6330 C   0  0  0  0  0  0  0  0  0  0  0  0
  160.2600  212.2620  147.6170 O   0  0  0  0  0  0  0  0  0  0  0  0
  161.9270  213.8550  147.0350 C   0  0  0  0  0  2  0  0  0  0  0  0
  162.5090  213.6660  145.6710 C   0  0  0  0  0  0  0  0  0  0  0  0
  163.6770  213.2050  145.5600 O   0  0  0  0  0  0  0  0  0  0  0  0
  161.7350  213.9580  144.5030 N   0  0  0  0  0  2  0  0  0  0  0  0
  162.2480  213.7590  143.1560 C   0  0  1  0  0  3  0  0  0  0  0  0
  162.6590  212.4330  142.9970 O   0  0  0  0  0  1  0  0  0  0  0  0
  159.3250  211.4380  140.4090 C   0  0  0  0  0  1  0  0  0  0  0  0
  160.1720  213.0640  142.0210 N   0  0  0  0  0  0  0  0  0  0  0  0
  161.1830  214.1220  142.1240 C   0  0  2  0  0  3  0  0  0  0  0  0
  161.9710  214.4530  140.5130 S   0  0  0  0  0  0  0  0  0  0  0  0
  159.8500  212.8510  140.6130 C   0  0  1  0  0  3  0  0  0  0  0  0
  160.7230  213.3900  138.3480 C   0  0  0  0  0  1  0  0  0  0  0  0
  158.9680  213.5670  142.6650 C   0  0  0  0  0  1  0  0  0  0  0  0
  161.0910  213.0630  139.7830 C   0  0  1  0  0  3  0  0  0  0  0  0
  1  4  1  0  0  0  0
  3  9  1  0  0  0  0
  3  2  1  0  0  0  0
  4  2  2  0  0  0  0
  5  3  2  0  0  0  0
  6  5  1  0  0  0  0
  6  1  2  0  0  0  0
  7  8  2  0  0  0  0
  7 18  1  0  0  0  0
  9  7  1  0  0  0  0
 11 10  2  0  0  0  0
 12 10  1  0  0  0  0
 12  8  1  0  0  0  0
 13 11  1  0  0  0  0
 14 13  2  0  0  0  0
 14 15  1  0  0  0  0
 15 12  2  0  0  0  0
 16 14  1  0  0  0  0
 17 16  1  0  0  0  0
 19 18  1  1  0  0  0
 19 22  1  0  0  0  0
 20 21  1  0  0  0  0
 21 25  2  0  0  0  0
 22 24  1  0  0  0  0
 23 25  1  0  0  0  0
 24 23  2  0  0  0  0
 26 20  2  0  0  0  0
 26 24  1  0  0  0  0
 27 19  1  0  0  0  0
 27 26  1  0  0  0  0
 28  1  1  0  0  0  0
 29 28  1  0  0  0  0
 30 29  2  0  0  0  0
 31 29  1  0  0  0  0
 32 31  1  0  0  0  0
 33 32  2  0  0  0  0
 34 32  1  0  0  0  0
 35 36  1  1  0  0  0
 35 34  1  0  0  0  0
 38 39  1  0  0  0  0
 38 43  1  0  0  0  0
 39 35  1  1  0  0  0
 40 39  1  0  0  0  0
 41 37  1  1  0  0  0
 41 38  1  0  0  0  0
 44 42  1  6  0  0  0
 44 40  1  0  0  0  0
 44 41  1  0  0  0  0
M  END
>  <MODEL>
2

>  <REMARK>
 VINA RESULT:      -7.5      2.501      6.042
  Name = 
  10 active torsions:
  status: ('A' for Active; 'I' for Inactive)
    1  A    between atoms: C_2  and  C_13
    2  A    between atoms: C_2  and  N_26
    3  A    between atoms: C_3  and  N_32
    4  A    between atoms: C_4  and  C_36
    5  A    between atoms: C_11  and  C_12
    6  A    between atoms: C_11  and  C_41
    7  A    between atoms: C_17  and  C_36
    8  A    between atoms: C_18  and  N_29
    9  A    between atoms: N_20  and  C_23
   10  A    between atoms: C_37  and  O_40
                            x       y       z     vdW  Elec       q    Type
                         _______ _______ _______ _____ _____    ______ ____

>  <TORSDO>
F 10

$$$$
=
 OpenBabel11052411083D

 44 48  0  0  1  0  0  0  0  0999 V2000
  162.0390  209.1190  150.5220 C   0  0  0  0  0  0  0  0  0  0  0  0
  161.7790  209.4050  148.1230 C   0  0  0  0  0  3  0  0  0  0  0  0
  161.6400  210.7890  148.2910 C   0  0  0  0  0  0  0  0  0  0  0  0
  161.9750  208.5750  149.2300 C   0  0  0  0  0  3  0  0  0  0  0  0
  161.7090  211.3310  149.5800 C   0  0  0  0  0  3  0  0  0  0  0  0
  161.9020  210.5010  150.6900 C   0  0  0  0  0  3  0  0  0  0  0  0
  160.3220  212.4800  146.8480 C   0  0  0  0  0  0  0  0  0  0  0  0
  160.2560  213.1300  145.7220 N   0  0  0  0  0  0  0  0  0  0  0  0
  161.4690  211.6780  147.1790 N   0  0  0  0  0  2  0  0  0  0  0  0
  162.4560  213.7270  144.8570 C   0  0  0  0  0  3  0  0  0  0  0  0
  163.4090  213.7690  143.8350 C   0  0  0  0  0  3  0  0  0  0  0  0
  161.2050  213.1390  144.6400 C   0  0  0  0  0  0  0  0  0  0  0  0
  163.1150  213.2230  142.5830 C   0  0  0  0  0  3  0  0  0  0  0  0
  161.8680  212.6370  142.3430 C   0  0  0  0  0  0  0  0  0  0  0  0
  160.9180  212.6000  143.3750 C   0  0  0  0  0  3  0  0  0  0  0  0
  161.6000  212.0980  141.0830 O   0  0  0  0  0  0  0  0  0  0  0  0
  162.5730  211.3850  140.3340 C   0  0  0  0  0  1  0  0  0  0  0  0
  159.1910  212.6420  147.8110 C   0  0  0  0  0  2  0  0  0  0  0  0
  158.8670  214.1140  148.0260 C   0  0  1  0  0  3  0  0  0  0  0  0
  157.1740  214.3760  151.3700 C   0  0  0  0  0  3  0  0  0  0  0  0
  155.8190  214.3240  151.7180 C   0  0  0  0  0  3  0  0  0  0  0  0
  157.1840  214.4530  147.3750 S   0  0  0  0  0  0  0  0  0  0  0  0
  155.2040  214.3490  149.3640 C   0  0  0  0  0  3  0  0  0  0  0  0
  156.5600  214.4110  149.0350 C   0  0  0  0  0  0  0  0  0  0  0  0
  154.8340  214.3090  150.7150 C   0  0  0  0  0  3  0  0  0  0  0  0
  157.5280  214.4130  150.0180 C   0  0  0  0  0  0  0  0  0  0  0  0
  158.9200  214.4530  149.5210 C   0  0  0  0  0  2  0  0  0  0  0  0
  162.2430  208.2980  151.6780 N   0  0  0  0  0  2  0  0  0  0  0  0
  161.5220  207.1000  152.0120 C   0  0  0  0  0  0  0  0  0  0  0  0
  160.6440  206.6240  151.2380 O   0  0  0  0  0  0  0  0  0  0  0  0
  161.8310  206.3850  153.2840 C   0  0  0  0  0  2  0  0  0  0  0  0
  161.0510  206.9370  154.4340 C   0  0  0  0  0  0  0  0  0  0  0  0
  160.2480  206.1840  155.0490 O   0  0  0  0  0  0  0  0  0  0  0  0
  161.2480  208.2870  154.8660 N   0  0  0  0  0  2  0  0  0  0  0  0
  160.5360  208.8570  156.0000 C   0  0  1  0  0  3  0  0  0  0  0  0
  161.2220  208.5690  157.1820 O   0  0  0  0  0  1  0  0  0  0  0  0
  157.2300  211.7090  154.4470 C   0  0  0  0  0  1  0  0  0  0  0  0
  158.9620  210.7520  155.8760 N   0  0  0  0  0  0  0  0  0  0  0  0
  160.3760  210.3650  155.8210 C   0  0  2  0  0  3  0  0  0  0  0  0
  161.1530  210.8870  154.2560 S   0  0  0  0  0  0  0  0  0  0  0  0
  158.7000  211.7410  154.8340 C   0  0  1  0  0  3  0  0  0  0  0  0
  159.7380  212.6700  152.7750 C   0  0  0  0  0  1  0  0  0  0  0  0
  158.7540  211.4110  157.1550 C   0  0  0  0  0  1  0  0  0  0  0  0
  159.5550  211.4310  153.6300 C   0  0  1  0  0  3  0  0  0  0  0  0
  1  6  1  0  0  0  0
  1 28  1  0  0  0  0
  2  3  2  0  0  0  0
  2  4  1  0  0  0  0
  3  5  1  0  0  0  0
  4  1  2  0  0  0  0
  5  6  2  0  0  0  0
  7  9  1  0  0  0  0
  7 18  1  0  0  0  0
  8  7  2  0  0  0  0
  9  3  1  0  0  0  0
 11 10  2  0  0  0  0
 12 10  1  0  0  0  0
 12  8  1  0  0  0  0
 13 11  1  0  0  0  0
 14 13  2  0  0  0  0
 14 15  1  0  0  0  0
 15 12  2  0  0  0  0
 16 14  1  0  0  0  0
 17 16  1  0  0  0  0
 19 18  1  1  0  0  0
 19 27  1  0  0  0  0
 20 21  1  0  0  0  0
 22 19  1  0  0  0  0
 22 24  1  0  0  0  0
 23 25  1  0  0  0  0
 24 23  2  0  0  0  0
 24 26  1  0  0  0  0
 25 21  2  0  0  0  0
 26 20  2  0  0  0  0
 27 26  1  0  0  0  0
 28 29  1  0  0  0  0
 29 31  1  0  0  0  0
 30 29  2  0  0  0  0
 31 32  1  0  0  0  0
 32 34  1  0  0  0  0
 32 33  2  0  0  0  0
 34 35  1  0  0  0  0
 35 36  1  1  0  0  0
 38 43  1  0  0  0  0
 39 38  1  0  0  0  0
 39 35  1  6  0  0  0
 40 39  1  0  0  0  0
 41 37  1  6  0  0  0
 41 38  1  0  0  0  0
 44 42  1  6  0  0  0
 44 40  1  0  0  0  0
 44 41  1  0  0  0  0
M  END
>  <MODEL>
3

>  <REMARK>
 VINA RESULT:      -7.3      3.730     12.074
  Name = 
  10 active torsions:
  status: ('A' for Active; 'I' for Inactive)
    1  A    between atoms: C_2  and  C_13
    2  A    between atoms: C_2  and  N_26
    3  A    between atoms: C_3  and  N_32
    4  A    between atoms: C_4  and  C_36
    5  A    between atoms: C_11  and  C_12
    6  A    between atoms: C_11  and  C_41
    7  A    between atoms: C_17  and  C_36
    8  A    between atoms: C_18  and  N_29
    9  A    between atoms: N_20  and  C_23
   10  A    between atoms: C_37  and  O_40
                            x       y       z     vdW  Elec       q    Type
                         _______ _______ _______ _____ _____    ______ ____

>  <TORSDO>
F 10

$$$$
=
 OpenBabel11052411083D

 44 48  0  0  1  0  0  0  0  0999 V2000
  162.1470  207.7690  150.4220 C   0  0  0  0  0  0  0  0  0  0  0  0
  161.9790  210.1780  150.1540 C   0  0  0  0  0  3  0  0  0  0  0  0
  161.9750  210.0340  148.7610 C   0  0  0  0  0  0  0  0  0  0  0  0
  162.0670  209.0540  150.9790 C   0  0  0  0  0  3  0  0  0  0  0  0
  162.0500  208.7520  148.2060 C   0  0  0  0  0  3  0  0  0  0  0  0
  162.1410  207.6250  149.0300 C   0  0  0  0  0  3  0  0  0  0  0  0
  161.0290  212.3260  148.0320 C   0  0  0  0  0  0  0  0  0  0  0  0
  160.9130  213.2000  147.0740 N   0  0  0  0  0  0  0  0  0  0  0  0
  161.8550  211.1590  147.8790 N   0  0  0  0  0  2  0  0  0  0  0  0
  162.7960  213.6330  145.5860 C   0  0  0  0  0  3  0  0  0  0  0  0
  163.3960  213.6250  144.3230 C   0  0  0  0  0  3  0  0  0  0  0  0
  161.4900  213.1620  145.7550 C   0  0  0  0  0  0  0  0  0  0  0  0
  162.6910  213.1440  143.2170 C   0  0  0  0  0  3  0  0  0  0  0  0
  161.3820  212.6740  143.3640 C   0  0  0  0  0  0  0  0  0  0  0  0
  160.7870  212.6880  144.6350 C   0  0  0  0  0  3  0  0  0  0  0  0
  160.6990  212.1990  142.2430 O   0  0  0  0  0  0  0  0  0  0  0  0
  161.2250  211.1810  141.4030 C   0  0  0  0  0  1  0  0  0  0  0  0
  160.3200  212.6070  149.3170 C   0  0  0  0  0  2  0  0  0  0  0  0
  159.9450  214.0780  149.4210 C   0  0  1  0  0  3  0  0  0  0  0  0
  157.5830  214.3920  152.3260 C   0  0  0  0  0  3  0  0  0  0  0  0
  156.1850  214.3290  152.3820 C   0  0  0  0  0  3  0  0  0  0  0  0
  158.4330  214.3770  148.4220 S   0  0  0  0  0  0  0  0  0  0  0  0
  156.0790  214.2900  149.9520 C   0  0  0  0  0  3  0  0  0  0  0  0
  157.4740  214.3640  149.9140 C   0  0  0  0  0  0  0  0  0  0  0  0
  155.4340  214.2750  151.1950 C   0  0  0  0  0  3  0  0  0  0  0  0
  158.2120  214.4030  151.0780 C   0  0  0  0  0  0  0  0  0  0  0  0
  159.6780  214.4530  150.8840 C   0  0  0  0  0  2  0  0  0  0  0  0
  162.2340  206.5950  151.2390 N   0  0  0  0  0  2  0  0  0  0  0  0
  161.2520  205.5490  151.3370 C   0  0  0  0  0  0  0  0  0  0  0  0
  160.2070  205.5600  150.6270 O   0  0  0  0  0  0  0  0  0  0  0  0
  161.4790  204.4120  152.2750 C   0  0  0  0  0  2  0  0  0  0  0  0
  161.3770  203.0910  151.5800 C   0  0  0  0  0  0  0  0  0  0  0  0
  161.9980  202.1000  152.0520 O   0  0  0  0  0  0  0  0  0  0  0  0
  160.5470  202.9400  150.4240 N   0  0  0  0  0  2  0  0  0  0  0  0
  160.3920  201.6670  149.7350 C   0  0  1  0  0  3  0  0  0  0  0  0
  159.0580  201.4920  149.3610 O   0  0  0  0  0  1  0  0  0  0  0  0
  159.8810  202.0970  145.1490 C   0  0  0  0  0  1  0  0  0  0  0  0
  160.7550  202.4010  147.4090 N   0  0  0  0  0  0  0  0  0  0  0  0
  161.3080  201.6110  148.5140 C   0  0  2  0  0  3  0  0  0  0  0  0
  161.5790  199.8750  148.0270 S   0  0  0  0  0  0  0  0  0  0  0  0
  160.9260  201.6580  146.1630 C   0  0  1  0  0  3  0  0  0  0  0  0
  161.4650  199.3670  145.3610 C   0  0  0  0  0  1  0  0  0  0  0  0
  161.5650  203.6040  147.3040 C   0  0  0  0  0  1  0  0  0  0  0  0
  160.7810  200.1820  146.4420 C   0  0  1  0  0  3  0  0  0  0  0  0
  1  4  1  0  0  0  0
  1 28  1  0  0  0  0
  2  4  2  0  0  0  0
  3  2  1  0  0  0  0
  5  3  2  0  0  0  0
  5  6  1  0  0  0  0
  6  1  2  0  0  0  0
  7 18  1  0  0  0  0
  8  7  2  0  0  0  0
  9  7  1  0  0  0  0
  9  3  1  0  0  0  0
 10 12  1  0  0  0  0
 11 10  2  0  0  0  0
 12  8  1  0  0  0  0
 13 14  2  0  0  0  0
 13 11  1  0  0  0  0
 14 15  1  0  0  0  0
 15 12  2  0  0  0  0
 16 14  1  0  0  0  0
 17 16  1  0  0  0  0
 19 18  1  1  0  0  0
 19 27  1  0  0  0  0
 20 21  1  0  0  0  0
 22 19  1  0  0  0  0
 22 24  1  0  0  0  0
 23 25  1  0  0  0  0
 24 23  2  0  0  0  0
 24 26  1  0  0  0  0
 25 21  2  0  0  0  0
 26 20  2  0  0  0  0
 27 26  1  0  0  0  0
 28 29  1  0  0  0  0
 29 31  1  0  0  0  0
 30 29  2  0  0  0  0
 32 33  2  0  0  0  0
 32 31  1  0  0  0  0
 34 32  1  0  0  0  0
 35 36  1  6  0  0  0
 35 34  1  0  0  0  0
 38 39  1  0  0  0  0
 39 35  1  1  0  0  0
 40 39  1  0  0  0  0
 41 37  1  6  0  0  0
 41 44  1  0  0  0  0
 41 38  1  0  0  0  0
 43 38  1  0  0  0  0
 44 42  1  6  0  0  0
 44 40  1  0  0  0  0
M  END
>  <MODEL>
4

>  <REMARK>
 VINA RESULT:      -6.8      4.194     11.113
  Name = 
  10 active torsions:
  status: ('A' for Active; 'I' for Inactive)
    1  A    between atoms: C_2  and  C_13
    2  A    between atoms: C_2  and  N_26
    3  A    between atoms: C_3  and  N_32
    4  A    between atoms: C_4  and  C_36
    5  A    between atoms: C_11  and  C_12
    6  A    between atoms: C_11  and  C_41
    7  A    between atoms: C_17  and  C_36
    8  A    between atoms: C_18  and  N_29
    9  A    between atoms: N_20  and  C_23
   10  A    between atoms: C_37  and  O_40
                            x       y       z     vdW  Elec       q    Type
                         _______ _______ _______ _____ _____    ______ ____

>  <TORSDO>
F 10

$$$$
=
 OpenBabel11052411083D

 44 48  0  0  1  0  0  0  0  0999 V2000
  161.3840  204.8300  151.7700 C   0  0  0  0  0  0  0  0  0  0  0  0
  161.0730  207.2060  151.3680 C   0  0  0  0  0  3  0  0  0  0  0  0
  161.0230  207.4450  152.7470 C   0  0  0  0  0  0  0  0  0  0  0  0
  161.2500  205.9080  150.8820 C   0  0  0  0  0  3  0  0  0  0  0  0
  161.1620  206.3700  153.6320 C   0  0  0  0  0  3  0  0  0  0  0  0
  161.3360  205.0690  153.1480 C   0  0  0  0  0  3  0  0  0  0  0  0
  161.5190  209.9790  152.8620 C   0  0  0  0  0  0  0  0  0  0  0  0
  161.3980  211.0810  153.5440 N   0  0  0  0  0  0  0  0  0  0  0  0
  160.8750  208.7660  153.2860 N   0  0  0  0  0  2  0  0  0  0  0  0
  161.3980  211.0780  155.9820 C   0  0  0  0  0  3  0  0  0  0  0  0
  160.7640  211.2590  157.2150 C   0  0  0  0  0  3  0  0  0  0  0  0
  160.7030  211.2900  154.7870 C   0  0  0  0  0  0  0  0  0  0  0  0
  159.4240  211.6530  157.2600 C   0  0  0  0  0  3  0  0  0  0  0  0
  158.7100  211.8650  156.0780 C   0  0  0  0  0  0  0  0  0  0  0  0
  159.3540  211.6800  154.8450 C   0  0  0  0  0  3  0  0  0  0  0  0
  157.3730  212.2590  156.1500 O   0  0  0  0  0  0  0  0  0  0  0  0
  156.3710  211.7250  155.2950 C   0  0  0  0  0  1  0  0  0  0  0  0
  162.3030  210.0320  151.5900 C   0  0  0  0  0  2  0  0  0  0  0  0
  161.3770  210.1060  150.3840 C   0  0  1  0  0  3  0  0  0  0  0  0
  163.1260  212.1990  147.8000 C   0  0  0  0  0  3  0  0  0  0  0  0
  163.0830  213.5770  147.5550 C   0  0  0  0  0  3  0  0  0  0  0  0
  160.2970  211.5820  150.5540 S   0  0  0  0  0  0  0  0  0  0  0  0
  161.2840  213.8200  149.1750 C   0  0  0  0  0  3  0  0  0  0  0  0
  161.3330  212.4420  149.4000 C   0  0  0  0  0  0  0  0  0  0  0  0
  162.1640  214.3870  148.2430 C   0  0  0  0  0  3  0  0  0  0  0  0
  162.2440  211.6480  148.7340 C   0  0  0  0  0  0  0  0  0  0  0  0
  162.1990  210.2140  149.0940 C   0  0  0  0  0  2  0  0  0  0  0  0
  161.5710  203.4880  151.3060 N   0  0  0  0  0  2  0  0  0  0  0  0
  160.7910  202.8150  150.3020 C   0  0  0  0  0  0  0  0  0  0  0  0
  159.8680  203.4110  149.6790 O   0  0  0  0  0  0  0  0  0  0  0  0
  161.0910  201.3930  149.9670 C   0  0  0  0  0  2  0  0  0  0  0  0
  161.2950  201.2010  148.4980 C   0  0  0  0  0  0  0  0  0  0  0  0
  161.5830  200.0540  148.0630 O   0  0  0  0  0  0  0  0  0  0  0  0
  161.1160  202.2940  147.5900 N   0  0  0  0  0  2  0  0  0  0  0  0
  161.2720  202.1460  146.1510 C   0  0  1  0  0  3  0  0  0  0  0  0
  160.0640  201.7310  145.5850 O   0  0  0  0  0  1  0  0  0  0  0  0
  161.9540  206.4850  147.6310 C   0  0  0  0  0  1  0  0  0  0  0  0
  162.3410  204.3340  146.5420 N   0  0  0  0  0  0  0  0  0  0  0  0
  161.7350  203.4630  145.5300 C   0  0  2  0  0  3  0  0  0  0  0  0
  160.3320  204.2790  144.6980 S   0  0  0  0  0  0  0  0  0  0  0  0
  161.8780  205.7020  146.3290 C   0  0  1  0  0  3  0  0  0  0  0  0
  160.1200  206.9570  145.0970 C   0  0  0  0  0  1  0  0  0  0  0  0
  163.7760  204.3250  146.3010 C   0  0  0  0  0  1  0  0  0  0  0  0
  160.4540  205.6720  145.8310 C   0  0  1  0  0  3  0  0  0  0  0  0
  1  6  1  0  0  0  0
  2  3  2  0  0  0  0
  3  9  1  0  0  0  0
  3  5  1  0  0  0  0
  4  2  1  0  0  0  0
  4  1  2  0  0  0  0
  6  5  2  0  0  0  0
  7  9  1  0  0  0  0
  7  8  2  0  0  0  0
  8 12  1  0  0  0  0
 10 11  1  0  0  0  0
 11 13  2  0  0  0  0
 12 15  1  0  0  0  0
 12 10  2  0  0  0  0
 14 16  1  0  0  0  0
 14 13  1  0  0  0  0
 15 14  2  0  0  0  0
 17 16  1  0  0  0  0
 18  7  1  0  0  0  0
 19 22  1  0  0  0  0
 19 18  1  1  0  0  0
 20 26  1  0  0  0  0
 21 20  2  0  0  0  0
 21 25  1  0  0  0  0
 23 24  1  0  0  0  0
 24 22  1  0  0  0  0
 25 23  2  0  0  0  0
 26 27  1  0  0  0  0
 26 24  2  0  0  0  0
 27 19  1  0  0  0  0
 28  1  1  0  0  0  0
 29 28  1  0  0  0  0
 30 29  2  0  0  0  0
 31 29  1  0  0  0  0
 32 31  1  0  0  0  0
 33 32  2  0  0  0  0
 34 32  1  0  0  0  0
 35 36  1  6  0  0  0
 35 34  1  0  0  0  0
 39 35  1  1  0  0  0
 39 38  1  0  0  0  0
 40 39  1  0  0  0  0
 40 44  1  0  0  0  0
 41 38  1  0  0  0  0
 41 37  1  1  0  0  0
 43 38  1  0  0  0  0
 44 42  1  6  0  0  0
 44 41  1  0  0  0  0
M  END
>  <MODEL>
5

>  <REMARK>
 VINA RESULT:      -6.7      5.248      8.400
  Name = 
  10 active torsions:
  status: ('A' for Active; 'I' for Inactive)
    1  A    between atoms: C_2  and  C_13
    2  A    between atoms: C_2  and  N_26
    3  A    between atoms: C_3  and  N_32
    4  A    between atoms: C_4  and  C_36
    5  A    between atoms: C_11  and  C_12
    6  A    between atoms: C_11  and  C_41
    7  A    between atoms: C_17  and  C_36
    8  A    between atoms: C_18  and  N_29
    9  A    between atoms: N_20  and  C_23
   10  A    between atoms: C_37  and  O_40
                            x       y       z     vdW  Elec       q    Type
                         _______ _______ _______ _____ _____    ______ ____

>  <TORSDO>
F 10

$$$$
=
 OpenBabel11052411083D

 44 48  0  0  1  0  0  0  0  0999 V2000
  161.3860  205.0670  151.6380 C   0  0  0  0  0  0  0  0  0  0  0  0
  161.1040  206.7550  153.3630 C   0  0  0  0  0  3  0  0  0  0  0  0
  160.8310  207.7220  152.3880 C   0  0  0  0  0  0  0  0  0  0  0  0
  161.3810  205.4370  152.9920 C   0  0  0  0  0  3  0  0  0  0  0  0
  160.8310  207.3510  151.0380 C   0  0  0  0  0  3  0  0  0  0  0  0
  161.1120  206.0330  150.6640 C   0  0  0  0  0  3  0  0  0  0  0  0
  160.8560  210.2800  152.0190 C   0  0  0  0  0  0  0  0  0  0  0  0
  160.6210  211.4550  152.5290 N   0  0  0  0  0  0  0  0  0  0  0  0
  160.5100  209.0780  152.7280 N   0  0  0  0  0  2  0  0  0  0  0  0
  160.8400  211.5220  154.9570 C   0  0  0  0  0  3  0  0  0  0  0  0
  160.3420  211.8060  156.2320 C   0  0  0  0  0  3  0  0  0  0  0  0
  160.0670  211.7740  153.8190 C   0  0  0  0  0  0  0  0  0  0  0  0
  159.0620  212.3450  156.3770 C   0  0  0  0  0  3  0  0  0  0  0  0
  158.2700  212.5990  155.2530 C   0  0  0  0  0  0  0  0  0  0  0  0
  158.7780  212.3100  153.9780 C   0  0  0  0  0  3  0  0  0  0  0  0
  156.9940  213.1380  155.4260 O   0  0  0  0  0  0  0  0  0  0  0  0
  155.9820  213.0400  154.4340 C   0  0  0  0  0  1  0  0  0  0  0  0
  161.4440  210.2240  150.6470 C   0  0  0  0  0  2  0  0  0  0  0  0
  161.9630  211.5900  150.2210 C   0  0  1  0  0  3  0  0  0  0  0  0
  159.1300  213.3300  148.4700 C   0  0  0  0  0  3  0  0  0  0  0  0
  158.7730  213.3640  147.1160 C   0  0  0  0  0  3  0  0  0  0  0  0
  162.6610  211.4600  148.5280 S   0  0  0  0  0  0  0  0  0  0  0  0
  160.8300  212.2040  146.5330 C   0  0  0  0  0  3  0  0  0  0  0  0
  161.1760  212.1870  147.8860 C   0  0  0  0  0  0  0  0  0  0  0  0
  159.6210  212.8000  146.1490 C   0  0  0  0  0  3  0  0  0  0  0  0
  160.3380  212.7290  148.8380 C   0  0  0  0  0  0  0  0  0  0  0  0
  160.8220  212.6150  150.2310 C   0  0  0  0  0  2  0  0  0  0  0  0
  161.6620  203.7240  151.2220 N   0  0  0  0  0  2  0  0  0  0  0  0
  160.8280  202.8990  150.3900 C   0  0  0  0  0  0  0  0  0  0  0  0
  159.7570  203.3430  149.8880 O   0  0  0  0  0  0  0  0  0  0  0  0
  161.2450  201.4990  150.0880 C   0  0  0  0  0  2  0  0  0  0  0  0
  161.3710  201.2640  148.6170 C   0  0  0  0  0  0  0  0  0  0  0  0
  161.5810  200.0930  148.1980 O   0  0  0  0  0  0  0  0  0  0  0  0
  161.2060  202.3420  147.6910 N   0  0  0  0  0  2  0  0  0  0  0  0
  161.2880  202.1550  146.2500 C   0  0  1  0  0  3  0  0  0  0  0  0
  160.0320  201.8060  145.7470 O   0  0  0  0  0  1  0  0  0  0  0  0
  162.0060  206.5540  147.5180 C   0  0  0  0  0  1  0  0  0  0  0  0
  162.3890  204.3390  146.5660 N   0  0  0  0  0  0  0  0  0  0  0  0
  161.8050  203.4250  145.5780 C   0  0  2  0  0  3  0  0  0  0  0  0
  160.4550  204.2210  144.6450 S   0  0  0  0  0  0  0  0  0  0  0  0
  161.9650  205.7020  146.2590 C   0  0  1  0  0  3  0  0  0  0  0  0
  160.2870  206.9210  144.8880 C   0  0  0  0  0  1  0  0  0  0  0  0
  163.8310  204.2870  146.3860 C   0  0  0  0  0  1  0  0  0  0  0  0
  160.5630  205.6730  145.7040 C   0  0  1  0  0  3  0  0  0  0  0  0
  1  4  1  0  0  0  0
  3  9  1  0  0  0  0
  3  2  1  0  0  0  0
  4  2  2  0  0  0  0
  5  3  2  0  0  0  0
  6  5  1  0  0  0  0
  6  1  2  0  0  0  0
  7  8  2  0  0  0  0
  7  9  1  0  0  0  0
  8 12  1  0  0  0  0
 10 11  1  0  0  0  0
 11 13  2  0  0  0  0
 12 15  1  0  0  0  0
 12 10  2  0  0  0  0
 14 16  1  0  0  0  0
 14 13  1  0  0  0  0
 15 14  2  0  0  0  0
 17 16  1  0  0  0  0
 18  7  1  0  0  0  0
 19 27  1  0  0  0  0
 19 18  1  6  0  0  0
 20 26  1  0  0  0  0
 21 20  2  0  0  0  0
 22 19  1  0  0  0  0
 23 24  1  0  0  0  0
 24 22  1  0  0  0  0
 24 26  2  0  0  0  0
 25 23  2  0  0  0  0
 25 21  1  0  0  0  0
 26 27  1  0  0  0  0
 28  1  1  0  0  0  0
 29 28  1  0  0  0  0
 30 29  2  0  0  0  0
 31 29  1  0  0  0  0
 32 31  1  0  0  0  0
 33 32  2  0  0  0  0
 34 32  1  0  0  0  0
 35 36  1  6  0  0  0
 35 34  1  0  0  0  0
 39 35  1  1  0  0  0
 39 38  1  0  0  0  0
 40 39  1  0  0  0  0
 40 44  1  0  0  0  0
 41 38  1  0  0  0  0
 41 37  1  1  0  0  0
 43 38  1  0  0  0  0
 44 42  1  6  0  0  0
 44 41  1  0  0  0  0
M  END
>  <MODEL>
6

>  <REMARK>
 VINA RESULT:      -6.2      5.065      8.471
  Name = 
  10 active torsions:
  status: ('A' for Active; 'I' for Inactive)
    1  A    between atoms: C_2  and  C_13
    2  A    between atoms: C_2  and  N_26
    3  A    between atoms: C_3  and  N_32
    4  A    between atoms: C_4  and  C_36
    5  A    between atoms: C_11  and  C_12
    6  A    between atoms: C_11  and  C_41
    7  A    between atoms: C_17  and  C_36
    8  A    between atoms: C_18  and  N_29
    9  A    between atoms: N_20  and  C_23
   10  A    between atoms: C_37  and  O_40
                            x       y       z     vdW  Elec       q    Type
                         _______ _______ _______ _____ _____    ______ ____

>  <TORSDO>
F 10

$$$$
