=
 OpenBabel11052409523D

 26 29  0  0  1  0  0  0  0  0999 V2000
  161.8050  208.4490  152.2070 C   0  0  1  0  0  3  0  0  0  0  0  0
  162.3050  209.7140  150.0900 N   0  0  0  0  0  0  0  0  0  0  0  0
  160.9170  210.7100  151.6130 N   0  0  0  0  0  2  0  0  0  0  0  0
  162.2570  211.5280  148.4410 C   0  0  0  0  0  3  0  0  0  0  0  0
  161.6750  209.6280  151.2930 C   0  0  0  0  0  0  0  0  0  0  0  0
  160.8580  213.4170  149.1290 C   0  0  0  0  0  3  0  0  0  0  0  0
  161.9120  210.9130  149.6430 C   0  0  0  0  0  0  0  0  0  0  0  0
  161.0870  211.5070  150.5480 C   0  0  0  0  0  0  0  0  0  0  0  0
  161.7150  212.8020  148.1880 C   0  0  0  0  0  3  0  0  0  0  0  0
  160.5330  212.7660  150.3330 C   0  0  0  0  0  3  0  0  0  0  0  0
  160.9070  207.3670  154.3100 C   0  0  0  0  0  3  0  0  0  0  0  0
  161.7590  209.6980  154.3640 C   0  0  0  0  0  3  0  0  0  0  0  0
  161.2580  210.1720  155.5030 C   0  0  0  0  0  3  0  0  0  0  0  0
  159.1720  210.8230  157.1880 Cl  0  0  0  0  0  0  0  0  0  0  0  0
  160.0300  209.6900  156.1670 C   0  0  0  0  0  0  0  0  0  0  0  0
  160.2210  207.2820  155.4490 C   0  0  0  0  0  3  0  0  0  0  0  0
  161.0820  208.6450  153.5480 C   0  0  1  0  0  3  0  0  0  0  0  0
  159.6130  208.4180  156.1700 C   0  0  0  0  0  3  0  0  0  0  0  0
  161.0290  204.7190  150.1880 C   0  0  0  0  0  0  0  0  0  0  0  0
  162.0540  205.9300  152.0230 C   0  0  0  0  0  3  0  0  0  0  0  0
  161.5410  207.1360  151.5220 C   0  0  0  0  0  0  0  0  0  0  0  0
  160.7750  207.1240  150.3510 C   0  0  0  0  0  3  0  0  0  0  0  0
  161.7990  204.7270  151.3600 C   0  0  0  0  0  3  0  0  0  0  0  0
  160.5190  205.9210  149.6880 C   0  0  0  0  0  3  0  0  0  0  0  0
  161.1760  203.3400  148.2510 O   0  0  0  0  0  1  0  0  0  0  0  0
  160.7640  203.5300  149.5120 O   0  0  0  0  0  0  0  0  0  0  0  0
  1  5  1  6  0  0  0
  2  5  2  0  0  0  0
  4  7  1  0  0  0  0
  5  3  1  0  0  0  0
  6 10  2  0  0  0  0
  7  2  1  0  0  0  0
  7  8  2  0  0  0  0
  8  3  1  0  0  0  0
  9  4  2  0  0  0  0
  9  6  1  0  0  0  0
 10  8  1  0  0  0  0
 11 16  2  0  0  0  0
 12 13  2  0  0  0  0
 13 15  1  0  0  0  0
 15 18  2  0  0  0  0
 15 14  1  0  0  0  0
 16 18  1  0  0  0  0
 17  1  1  6  0  0  0
 17 11  1  0  0  0  0
 17 12  1  0  0  0  0
 19 23  1  0  0  0  0
 21 20  1  0  0  0  0
 21  1  1  0  0  0  0
 22 21  2  0  0  0  0
 23 20  2  0  0  0  0
 24 19  2  0  0  0  0
 24 22  1  0  0  0  0
 25 26  1  0  0  0  0
 26 19  1  0  0  0  0
M  END
>  <MODEL>
1

>  <REMARK>
 VINA RESULT:      -7.1      0.000      0.000
  Name = 
  4 active torsions:
  status: ('A' for Active; 'I' for Inactive)
    1  A    between atoms: C_2  and  O_11
    2  A    between atoms: C_7  and  C_24
    3  A    between atoms: C_10  and  C_24
    4  A    between atoms: C_22  and  C_24
                            x       y       z     vdW  Elec       q    Type
                         _______ _______ _______ _____ _____    ______ ____

>  <TORSDO>
F 4

$$$$
=
 OpenBabel11052409523D

 26 29  0  0  1  0  0  0  0  0999 V2000
  162.2280  207.0780  151.7040 C   0  0  1  0  0  3  0  0  0  0  0  0
  161.0340  208.6550  153.2590 N   0  0  0  0  0  0  0  0  0  0  0  0
  161.6370  206.6090  154.0880 N   0  0  0  0  0  2  0  0  0  0  0  0
  159.9980  209.4950  155.3160 C   0  0  0  0  0  3  0  0  0  0  0  0
  161.6250  207.4520  153.0230 C   0  0  0  0  0  0  0  0  0  0  0  0
  160.0790  207.8870  157.1620 C   0  0  0  0  0  3  0  0  0  0  0  0
  160.6590  208.5460  154.5400 C   0  0  0  0  0  0  0  0  0  0  0  0
  161.0180  207.3290  155.0350 C   0  0  0  0  0  0  0  0  0  0  0  0
  159.7070  209.1500  156.6500 C   0  0  0  0  0  3  0  0  0  0  0  0
  160.7470  206.9530  156.3480 C   0  0  0  0  0  3  0  0  0  0  0  0
  161.2060  204.8450  152.3120 C   0  0  0  0  0  3  0  0  0  0  0  0
  160.8980  205.7880  150.0370 C   0  0  0  0  0  3  0  0  0  0  0  0
  160.4990  204.7330  149.3280 C   0  0  0  0  0  3  0  0  0  0  0  0
  160.8300  202.1930  148.3050 Cl  0  0  0  0  0  0  0  0  0  0  0  0
  160.8090  203.3230  149.6400 C   0  0  0  0  0  0  0  0  0  0  0  0
  160.8580  203.5690  152.1470 C   0  0  0  0  0  3  0  0  0  0  0  0
  161.8010  205.6830  151.2230 C   0  0  1  0  0  3  0  0  0  0  0  0
  160.9200  202.8220  150.8760 C   0  0  0  0  0  3  0  0  0  0  0  0
  161.9560  210.2540  148.8010 C   0  0  0  0  0  0  0  0  0  0  0  0
  162.1300  207.8870  149.3000 C   0  0  0  0  0  3  0  0  0  0  0  0
  162.1280  208.1710  150.6750 C   0  0  0  0  0  0  0  0  0  0  0  0
  162.0430  209.5000  151.1040 C   0  0  0  0  0  3  0  0  0  0  0  0
  162.0440  208.9230  148.3680 C   0  0  0  0  0  3  0  0  0  0  0  0
  161.9560  210.5370  150.1710 C   0  0  0  0  0  3  0  0  0  0  0  0
  162.8290  212.2350  147.8050 O   0  0  0  0  0  1  0  0  0  0  0  0
  161.8700  211.3030  147.8870 O   0  0  0  0  0  0  0  0  0  0  0  0
  1 21  1  6  0  0  0
  1  5  1  0  0  0  0
  2  7  1  0  0  0  0
  3  8  1  0  0  0  0
  4  9  1  0  0  0  0
  5  2  2  0  0  0  0
  5  3  1  0  0  0  0
  7  8  1  0  0  0  0
  7  4  2  0  0  0  0
  8 10  2  0  0  0  0
  9  6  2  0  0  0  0
 10  6  1  0  0  0  0
 12 17  1  0  0  0  0
 13 15  1  0  0  0  0
 13 12  2  0  0  0  0
 14 15  1  0  0  0  0
 15 18  2  0  0  0  0
 16 11  2  0  0  0  0
 17  1  1  1  0  0  0
 17 11  1  0  0  0  0
 18 16  1  0  0  0  0
 19 24  1  0  0  0  0
 20 21  2  0  0  0  0
 21 22  1  0  0  0  0
 23 19  2  0  0  0  0
 23 20  1  0  0  0  0
 24 22  2  0  0  0  0
 25 26  1  0  0  0  0
 26 19  1  0  0  0  0
M  END
>  <MODEL>
2

>  <REMARK>
 VINA RESULT:      -7.1      3.753      6.597
  Name = 
  4 active torsions:
  status: ('A' for Active; 'I' for Inactive)
    1  A    between atoms: C_2  and  O_11
    2  A    between atoms: C_7  and  C_24
    3  A    between atoms: C_10  and  C_24
    4  A    between atoms: C_22  and  C_24
                            x       y       z     vdW  Elec       q    Type
                         _______ _______ _______ _____ _____    ______ ____

>  <TORSDO>
F 4

$$$$
=
 OpenBabel11052409523D

 26 29  0  0  1  0  0  0  0  0999 V2000
  162.1200  208.9980  150.3980 C   0  0  1  0  0  3  0  0  0  0  0  0
  161.1140  211.3030  150.3150 N   0  0  0  0  0  0  0  0  0  0  0  0
  162.4840  210.6870  148.5900 N   0  0  0  0  0  2  0  0  0  0  0  0
  160.6020  213.5490  149.4760 C   0  0  0  0  0  3  0  0  0  0  0  0
  161.9050  210.3410  149.7680 C   0  0  0  0  0  0  0  0  0  0  0  0
  161.7050  214.0570  147.3490 C   0  0  0  0  0  3  0  0  0  0  0  0
  161.2130  212.2980  149.4250 C   0  0  0  0  0  0  0  0  0  0  0  0
  162.0280  211.9330  148.3980 C   0  0  0  0  0  0  0  0  0  0  0  0
  160.8580  214.4380  148.4140 C   0  0  0  0  0  3  0  0  0  0  0  0
  162.3050  212.7840  147.3310 C   0  0  0  0  0  3  0  0  0  0  0  0
  161.6910  207.5330  152.4150 C   0  0  0  0  0  3  0  0  0  0  0  0
  162.0290  209.9770  152.6890 C   0  0  0  0  0  3  0  0  0  0  0  0
  161.5570  210.2090  153.9120 C   0  0  0  0  0  3  0  0  0  0  0  0
  159.5630  210.2020  155.8190 Cl  0  0  0  0  0  0  0  0  0  0  0  0
  160.5330  209.3990  154.6040 C   0  0  0  0  0  0  0  0  0  0  0  0
  161.1590  207.1810  153.5850 C   0  0  0  0  0  3  0  0  0  0  0  0
  161.5120  208.8890  151.8040 C   0  0  1  0  0  3  0  0  0  0  0  0
  160.4000  208.0730  154.4840 C   0  0  0  0  0  3  0  0  0  0  0  0
  161.2840  205.7220  147.7220 C   0  0  0  0  0  0  0  0  0  0  0  0
  160.7130  207.0040  149.7000 C   0  0  0  0  0  3  0  0  0  0  0  0
  161.8070  207.8530  149.4730 C   0  0  0  0  0  0  0  0  0  0  0  0
  162.6360  207.6280  148.3690 C   0  0  0  0  0  3  0  0  0  0  0  0
  160.4530  205.9440  148.8290 C   0  0  0  0  0  3  0  0  0  0  0  0
  162.3750  206.5680  147.4960 C   0  0  0  0  0  3  0  0  0  0  0  0
  161.3960  203.4140  147.1430 O   0  0  0  0  0  1  0  0  0  0  0  0
  161.0410  204.6700  146.8410 O   0  0  0  0  0  0  0  0  0  0  0  0
  1 21  1  6  0  0  0
  3  5  1  0  0  0  0
  5  2  2  0  0  0  0
  5  1  1  0  0  0  0
  6  9  1  0  0  0  0
  7  4  1  0  0  0  0
  7  2  1  0  0  0  0
  8  3  1  0  0  0  0
  8  7  2  0  0  0  0
  9  4  2  0  0  0  0
 10  6  2  0  0  0  0
 10  8  1  0  0  0  0
 11 16  2  0  0  0  0
 12 13  2  0  0  0  0
 13 15  1  0  0  0  0
 15 14  1  0  0  0  0
 16 18  1  0  0  0  0
 17  1  1  6  0  0  0
 17 11  1  0  0  0  0
 17 12  1  0  0  0  0
 18 15  2  0  0  0  0
 19 23  1  0  0  0  0
 21 20  1  0  0  0  0
 22 21  2  0  0  0  0
 23 20  2  0  0  0  0
 24 19  2  0  0  0  0
 24 22  1  0  0  0  0
 26 25  1  0  0  0  0
 26 19  1  0  0  0  0
M  END
>  <MODEL>
3

>  <REMARK>
 VINA RESULT:      -7.0      1.425      2.324
  Name = 
  4 active torsions:
  status: ('A' for Active; 'I' for Inactive)
    1  A    between atoms: C_2  and  O_11
    2  A    between atoms: C_7  and  C_24
    3  A    between atoms: C_10  and  C_24
    4  A    between atoms: C_22  and  C_24
                            x       y       z     vdW  Elec       q    Type
                         _______ _______ _______ _____ _____    ______ ____

>  <TORSDO>
F 4

$$$$
=
 OpenBabel11052409523D

 26 29  0  0  1  0  0  0  0  0999 V2000
  162.2480  207.0890  151.6390 C   0  0  1  0  0  3  0  0  0  0  0  0
  161.6590  206.6030  154.0360 N   0  0  0  0  0  0  0  0  0  0  0  0
  161.0680  208.6480  153.1970 N   0  0  0  0  0  2  0  0  0  0  0  0
  160.7530  206.9530  156.2880 C   0  0  0  0  0  3  0  0  0  0  0  0
  161.6580  207.4460  152.9690 C   0  0  0  0  0  0  0  0  0  0  0  0
  159.7160  209.1530  156.5770 C   0  0  0  0  0  3  0  0  0  0  0  0
  161.0350  207.3260  154.9750 C   0  0  0  0  0  0  0  0  0  0  0  0
  160.6830  208.5430  154.4770 C   0  0  0  0  0  0  0  0  0  0  0  0
  160.0810  207.8900  157.0950 C   0  0  0  0  0  3  0  0  0  0  0  0
  160.0170  209.4950  155.2460 C   0  0  0  0  0  3  0  0  0  0  0  0
  161.2060  204.8580  152.2210 C   0  0  0  0  0  3  0  0  0  0  0  0
  160.9170  205.8250  149.9520 C   0  0  0  0  0  3  0  0  0  0  0  0
  160.5130  204.7810  149.2320 C   0  0  0  0  0  3  0  0  0  0  0  0
  160.8310  202.2470  148.1860 Cl  0  0  0  0  0  0  0  0  0  0  0  0
  160.8110  203.3650  149.5320 C   0  0  0  0  0  0  0  0  0  0  0  0
  160.8490  203.5870  152.0410 C   0  0  0  0  0  3  0  0  0  0  0  0
  161.8140  205.7020  151.1420 C   0  0  1  0  0  3  0  0  0  0  0  0
  160.9130  202.8510  150.7640 C   0  0  0  0  0  3  0  0  0  0  0  0
  161.9560  210.3070  148.7840 C   0  0  0  0  0  0  0  0  0  0  0  0
  162.1430  207.9330  149.2480 C   0  0  0  0  0  3  0  0  0  0  0  0
  162.1410  208.1970  150.6260 C   0  0  0  0  0  0  0  0  0  0  0  0
  162.0490  209.5190  151.0750 C   0  0  0  0  0  3  0  0  0  0  0  0
  162.0500  208.9830  148.3310 C   0  0  0  0  0  3  0  0  0  0  0  0
  161.9560  210.5690  150.1580 C   0  0  0  0  0  3  0  0  0  0  0  0
  162.7670  212.3580  147.8820 O   0  0  0  0  0  1  0  0  0  0  0  0
  161.8630  211.3680  147.8860 O   0  0  0  0  0  0  0  0  0  0  0  0
  1 21  1  6  0  0  0
  1  5  1  0  0  0  0
  2  7  1  0  0  0  0
  3  8  1  0  0  0  0
  4  9  1  0  0  0  0
  5  3  1  0  0  0  0
  5  2  2  0  0  0  0
  6  9  2  0  0  0  0
  7  4  2  0  0  0  0
  8  7  1  0  0  0  0
  8 10  2  0  0  0  0
 10  6  1  0  0  0  0
 12 17  1  0  0  0  0
 13 15  1  0  0  0  0
 13 12  2  0  0  0  0
 14 15  1  0  0  0  0
 15 18  2  0  0  0  0
 16 11  2  0  0  0  0
 17  1  1  1  0  0  0
 17 11  1  0  0  0  0
 18 16  1  0  0  0  0
 19 24  1  0  0  0  0
 20 21  2  0  0  0  0
 21 22  1  0  0  0  0
 23 19  2  0  0  0  0
 23 20  1  0  0  0  0
 24 22  2  0  0  0  0
 25 26  1  0  0  0  0
 26 19  1  0  0  0  0
M  END
>  <MODEL>
4

>  <REMARK>
 VINA RESULT:      -7.0      3.769      6.580
  Name = 
  4 active torsions:
  status: ('A' for Active; 'I' for Inactive)
    1  A    between atoms: C_2  and  O_11
    2  A    between atoms: C_7  and  C_24
    3  A    between atoms: C_10  and  C_24
    4  A    between atoms: C_22  and  C_24
                            x       y       z     vdW  Elec       q    Type
                         _______ _______ _______ _____ _____    ______ ____

>  <TORSDO>
F 4

$$$$
=
 OpenBabel11052409523D

 26 29  0  0  1  0  0  0  0  0999 V2000
  161.9120  210.0160  150.8720 C   0  0  1  0  0  3  0  0  0  0  0  0
  161.6960  208.2500  149.0940 N   0  0  0  0  0  0  0  0  0  0  0  0
  161.4950  207.5840  151.2740 N   0  0  0  0  0  2  0  0  0  0  0  0
  161.3660  206.0350  148.0950 C   0  0  0  0  0  3  0  0  0  0  0  0
  161.7030  208.6080  150.4060 C   0  0  0  0  0  0  0  0  0  0  0  0
  161.0020  204.2730  149.7570 C   0  0  0  0  0  3  0  0  0  0  0  0
  161.4720  206.9310  149.1560 C   0  0  0  0  0  0  0  0  0  0  0  0
  161.3530  206.5330  150.4530 C   0  0  0  0  0  0  0  0  0  0  0  0
  161.1260  204.6840  148.4100 C   0  0  0  0  0  3  0  0  0  0  0  0
  161.1150  205.2070  150.8030 C   0  0  0  0  0  3  0  0  0  0  0  0
  160.9210  212.2980  150.4060 C   0  0  0  0  0  3  0  0  0  0  0  0
  162.6980  211.3770  148.9370 C   0  0  0  0  0  3  0  0  0  0  0  0
  162.6080  212.1380  147.8470 C   0  0  0  0  0  3  0  0  0  0  0  0
  161.2540  213.1720  145.6770 Cl  0  0  0  0  0  0  0  0  0  0  0  0
  161.3920  212.8410  147.3900 C   0  0  0  0  0  0  0  0  0  0  0  0
  160.4250  213.2920  149.6730 C   0  0  0  0  0  3  0  0  0  0  0  0
  161.5300  211.0630  149.8150 C   0  0  1  0  0  3  0  0  0  0  0  0
  160.4700  213.3760  148.2000 C   0  0  0  0  0  3  0  0  0  0  0  0
  160.4140  210.7610  154.8460 C   0  0  0  0  0  0  0  0  0  0  0  0
  159.9930  210.4340  152.4800 C   0  0  0  0  0  3  0  0  0  0  0  0
  161.3680  210.2710  152.2520 C   0  0  0  0  0  0  0  0  0  0  0  0
  162.2590  210.3570  153.3270 C   0  0  0  0  0  3  0  0  0  0  0  0
  159.5180  210.6770  153.7710 C   0  0  0  0  0  3  0  0  0  0  0  0
  161.7840  210.6000  154.6180 C   0  0  0  0  0  3  0  0  0  0  0  0
  159.9120  210.0240  157.0560 O   0  0  0  0  0  1  0  0  0  0  0  0
  159.9600  211.0030  156.1420 O   0  0  0  0  0  0  0  0  0  0  0  0
  1  5  1  6  0  0  0
  1 21  1  0  0  0  0
  2  7  1  0  0  0  0
  2  5  2  0  0  0  0
  4  9  2  0  0  0  0
  4  7  1  0  0  0  0
  5  3  1  0  0  0  0
  6 10  2  0  0  0  0
  7  8  2  0  0  0  0
  8 10  1  0  0  0  0
  8  3  1  0  0  0  0
  9  6  1  0  0  0  0
 12 17  1  0  0  0  0
 13 12  2  0  0  0  0
 14 15  1  0  0  0  0
 15 13  1  0  0  0  0
 15 18  2  0  0  0  0
 16 11  2  0  0  0  0
 17 11  1  0  0  0  0
 17  1  1  1  0  0  0
 18 16  1  0  0  0  0
 19 26  1  0  0  0  0
 20 23  1  0  0  0  0
 21 20  2  0  0  0  0
 21 22  1  0  0  0  0
 22 24  2  0  0  0  0
 23 19  2  0  0  0  0
 24 19  1  0  0  0  0
 26 25  1  0  0  0  0
M  END
>  <MODEL>
5

>  <REMARK>
 VINA RESULT:      -7.0      4.087      7.017
  Name = 
  4 active torsions:
  status: ('A' for Active; 'I' for Inactive)
    1  A    between atoms: C_2  and  O_11
    2  A    between atoms: C_7  and  C_24
    3  A    between atoms: C_10  and  C_24
    4  A    between atoms: C_22  and  C_24
                            x       y       z     vdW  Elec       q    Type
                         _______ _______ _______ _____ _____    ______ ____

>  <TORSDO>
F 4

$$$$
=
 OpenBabel11052409523D

 26 29  0  0  1  0  0  0  0  0999 V2000
  161.8940  210.0210  150.8780 C   0  0  1  0  0  3  0  0  0  0  0  0
  161.4650  207.5730  151.2710 N   0  0  0  0  0  0  0  0  0  0  0  0
  161.6870  208.2710  149.1030 N   0  0  0  0  0  2  0  0  0  0  0  0
  161.1000  205.2020  150.7630 C   0  0  0  0  0  3  0  0  0  0  0  0
  161.6770  208.6110  150.4180 C   0  0  0  0  0  0  0  0  0  0  0  0
  161.1390  204.7130  148.3640 C   0  0  0  0  0  3  0  0  0  0  0  0
  161.3360  206.5350  150.4340 C   0  0  0  0  0  0  0  0  0  0  0  0
  161.4680  206.9490  149.1440 C   0  0  0  0  0  0  0  0  0  0  0  0
  161.0020  204.2820  149.7020 C   0  0  0  0  0  3  0  0  0  0  0  0
  161.3770  206.0690  148.0690 C   0  0  0  0  0  3  0  0  0  0  0  0
  160.9140  212.3030  150.3960 C   0  0  0  0  0  3  0  0  0  0  0  0
  162.6970  211.3710  148.9420 C   0  0  0  0  0  3  0  0  0  0  0  0
  162.6180  212.1280  147.8500 C   0  0  0  0  0  3  0  0  0  0  0  0
  161.2810  213.1580  145.6670 Cl  0  0  0  0  0  0  0  0  0  0  0  0
  161.4070  212.8330  147.3810 C   0  0  0  0  0  0  0  0  0  0  0  0
  160.4260  213.2970  149.6560 C   0  0  0  0  0  3  0  0  0  0  0  0
  161.5220  211.0640  149.8140 C   0  0  1  0  0  3  0  0  0  0  0  0
  160.4810  213.3750  148.1830 C   0  0  0  0  0  3  0  0  0  0  0  0
  160.3890  210.7950  154.8440 C   0  0  0  0  0  0  0  0  0  0  0  0
  159.9740  210.4740  152.4750 C   0  0  0  0  0  3  0  0  0  0  0  0
  161.3470  210.2860  152.2550 C   0  0  0  0  0  0  0  0  0  0  0  0
  162.2340  210.3570  153.3340 C   0  0  0  0  0  3  0  0  0  0  0  0
  159.4970  210.7270  153.7640 C   0  0  0  0  0  3  0  0  0  0  0  0
  161.7580  210.6090  154.6230 C   0  0  0  0  0  3  0  0  0  0  0  0
  159.8690  210.0710  157.0530 O   0  0  0  0  0  1  0  0  0  0  0  0
  159.9330  211.0470  156.1360 O   0  0  0  0  0  0  0  0  0  0  0  0
  1  5  1  6  0  0  0
  1 21  1  0  0  0  0
  3  8  1  0  0  0  0
  3  5  1  0  0  0  0
  5  2  2  0  0  0  0
  6  9  1  0  0  0  0
  7  4  1  0  0  0  0
  7  2  1  0  0  0  0
  8  7  2  0  0  0  0
  9  4  2  0  0  0  0
 10  6  2  0  0  0  0
 10  8  1  0  0  0  0
 12 17  1  0  0  0  0
 13 12  2  0  0  0  0
 14 15  1  0  0  0  0
 15 13  1  0  0  0  0
 15 18  2  0  0  0  0
 16 11  2  0  0  0  0
 17 11  1  0  0  0  0
 17  1  1  1  0  0  0
 18 16  1  0  0  0  0
 19 26  1  0  0  0  0
 20 23  1  0  0  0  0
 21 20  2  0  0  0  0
 21 22  1  0  0  0  0
 22 24  2  0  0  0  0
 23 19  2  0  0  0  0
 24 19  1  0  0  0  0
 26 25  1  0  0  0  0
M  END
>  <MODEL>
6

>  <REMARK>
 VINA RESULT:      -6.9      4.097      7.077
  Name = 
  4 active torsions:
  status: ('A' for Active; 'I' for Inactive)
    1  A    between atoms: C_2  and  O_11
    2  A    between atoms: C_7  and  C_24
    3  A    between atoms: C_10  and  C_24
    4  A    between atoms: C_22  and  C_24
                            x       y       z     vdW  Elec       q    Type
                         _______ _______ _______ _____ _____    ______ ____

>  <TORSDO>
F 4

$$$$
=
 OpenBabel11052409523D

 26 29  0  0  1  0  0  0  0  0999 V2000
  162.1400  208.8980  150.4390 C   0  0  1  0  0  3  0  0  0  0  0  0
  162.3830  210.6280  148.6290 N   0  0  0  0  0  0  0  0  0  0  0  0
  161.1680  211.2010  150.4810 N   0  0  0  0  0  2  0  0  0  0  0  0
  162.1300  212.7670  147.4560 C   0  0  0  0  0  3  0  0  0  0  0  0
  161.8950  210.2490  149.8410 C   0  0  0  0  0  0  0  0  0  0  0  0
  160.8000  214.3990  148.7080 C   0  0  0  0  0  3  0  0  0  0  0  0
  161.9300  211.8830  148.5150 C   0  0  0  0  0  0  0  0  0  0  0  0
  161.2070  212.2260  149.6170 C   0  0  0  0  0  0  0  0  0  0  0  0
  161.5500  214.0450  147.5640 C   0  0  0  0  0  3  0  0  0  0  0  0
  160.6200  213.4800  149.7580 C   0  0  0  0  0  3  0  0  0  0  0  0
  161.7450  207.3780  152.4230 C   0  0  0  0  0  3  0  0  0  0  0  0
  162.0490  209.8200  152.7540 C   0  0  0  0  0  3  0  0  0  0  0  0
  161.5810  210.0150  153.9850 C   0  0  0  0  0  3  0  0  0  0  0  0
  159.5980  209.9330  155.9020 Cl  0  0  0  0  0  0  0  0  0  0  0  0
  160.5740  209.1740  154.6630 C   0  0  0  0  0  0  0  0  0  0  0  0
  161.2250  206.9910  153.5870 C   0  0  0  0  0  3  0  0  0  0  0  0
  161.5420  208.7460  151.8460 C   0  0  1  0  0  3  0  0  0  0  0  0
  160.4580  207.8490  154.5110 C   0  0  0  0  0  3  0  0  0  0  0  0
  161.3570  205.6630  147.6990 C   0  0  0  0  0  0  0  0  0  0  0  0
  160.7370  206.9260  149.6750 C   0  0  0  0  0  3  0  0  0  0  0  0
  161.8450  207.7670  149.4910 C   0  0  0  0  0  0  0  0  0  0  0  0
  162.7050  207.5480  148.4100 C   0  0  0  0  0  3  0  0  0  0  0  0
  160.4940  205.8790  148.7830 C   0  0  0  0  0  3  0  0  0  0  0  0
  162.4620  206.5010  147.5170 C   0  0  0  0  0  3  0  0  0  0  0  0
  161.9630  204.4010  145.7710 O   0  0  0  0  0  1  0  0  0  0  0  0
  161.1310  204.6240  146.7980 O   0  0  0  0  0  0  0  0  0  0  0  0
  1 21  1  6  0  0  0
  2  5  2  0  0  0  0
  4  9  2  0  0  0  0
  4  7  1  0  0  0  0
  5  1  1  0  0  0  0
  5  3  1  0  0  0  0
  6 10  2  0  0  0  0
  7  2  1  0  0  0  0
  7  8  2  0  0  0  0
  8 10  1  0  0  0  0
  8  3  1  0  0  0  0
  9  6  1  0  0  0  0
 11 16  2  0  0  0  0
 12 13  2  0  0  0  0
 13 15  1  0  0  0  0
 15 14  1  0  0  0  0
 16 18  1  0  0  0  0
 17  1  1  6  0  0  0
 17 11  1  0  0  0  0
 17 12  1  0  0  0  0
 18 15  2  0  0  0  0
 19 23  1  0  0  0  0
 21 20  1  0  0  0  0
 22 21  2  0  0  0  0
 23 20  2  0  0  0  0
 24 19  2  0  0  0  0
 24 22  1  0  0  0  0
 25 26  1  0  0  0  0
 26 19  1  0  0  0  0
M  END
>  <MODEL>
7

>  <REMARK>
 VINA RESULT:      -6.9      1.495      2.055
  Name = 
  4 active torsions:
  status: ('A' for Active; 'I' for Inactive)
    1  A    between atoms: C_2  and  O_11
    2  A    between atoms: C_7  and  C_24
    3  A    between atoms: C_10  and  C_24
    4  A    between atoms: C_22  and  C_24
                            x       y       z     vdW  Elec       q    Type
                         _______ _______ _______ _____ _____    ______ ____

>  <TORSDO>
F 4

$$$$
=
 OpenBabel11052409523D

 26 29  0  0  1  0  0  0  0  0999 V2000
  162.0150  209.5860  151.2930 C   0  0  1  0  0  3  0  0  0  0  0  0
  162.4520  210.3280  153.6570 N   0  0  0  0  0  0  0  0  0  0  0  0
  160.3370  209.6190  153.1470 N   0  0  0  0  0  2  0  0  0  0  0  0
  162.0170  210.8250  156.0180 C   0  0  0  0  0  3  0  0  0  0  0  0
  161.6020  209.8510  152.7080 C   0  0  0  0  0  0  0  0  0  0  0  0
  159.7060  210.3690  156.6890 C   0  0  0  0  0  3  0  0  0  0  0  0
  161.6670  210.3960  154.7400 C   0  0  0  0  0  0  0  0  0  0  0  0
  160.4090  209.9740  154.4380 C   0  0  0  0  0  0  0  0  0  0  0  0
  161.0120  210.8070  157.0040 C   0  0  0  0  0  3  0  0  0  0  0  0
  159.3890  209.9430  155.3860 C   0  0  0  0  0  3  0  0  0  0  0  0
  161.6450  208.0790  149.2950 C   0  0  0  0  0  3  0  0  0  0  0  0
  162.3310  207.1200  151.4790 C   0  0  0  0  0  3  0  0  0  0  0  0
  162.0450  205.8270  151.3410 C   0  0  0  0  0  3  0  0  0  0  0  0
  160.3120  203.7280  150.8860 Cl  0  0  0  0  0  0  0  0  0  0  0  0
  161.0150  205.2670  150.4410 C   0  0  0  0  0  0  0  0  0  0  0  0
  161.2160  207.0070  148.6290 C   0  0  0  0  0  3  0  0  0  0  0  0
  161.5720  208.2050  150.7860 C   0  0  1  0  0  3  0  0  0  0  0  0
  160.6950  205.7700  149.2420 C   0  0  0  0  0  3  0  0  0  0  0  0
  161.1500  212.9090  148.6860 C   0  0  0  0  0  0  0  0  0  0  0  0
  162.3310  210.8320  149.1050 C   0  0  0  0  0  3  0  0  0  0  0  0
  161.7230  210.7340  150.3650 C   0  0  0  0  0  0  0  0  0  0  0  0
  160.8310  211.7290  150.7800 C   0  0  0  0  0  3  0  0  0  0  0  0
  162.0460  211.9150  148.2690 C   0  0  0  0  0  3  0  0  0  0  0  0
  160.5450  212.8110  149.9430 C   0  0  0  0  0  3  0  0  0  0  0  0
  161.4530  214.1580  146.6800 O   0  0  0  0  0  1  0  0  0  0  0  0
  160.8520  213.9970  147.8670 O   0  0  0  0  0  0  0  0  0  0  0  0
  1 21  1  6  0  0  0
  1  5  1  0  0  0  0
  2  7  1  0  0  0  0
  3  8  1  0  0  0  0
  4  9  1  0  0  0  0
  5  3  1  0  0  0  0
  5  2  2  0  0  0  0
  6  9  2  0  0  0  0
  7  4  2  0  0  0  0
  8  7  1  0  0  0  0
  8 10  2  0  0  0  0
 10  6  1  0  0  0  0
 11 17  1  0  0  0  0
 13 12  2  0  0  0  0
 15 14  1  0  0  0  0
 15 13  1  0  0  0  0
 16 18  1  0  0  0  0
 16 11  2  0  0  0  0
 17  1  1  6  0  0  0
 17 12  1  0  0  0  0
 18 15  2  0  0  0  0
 19 24  1  0  0  0  0
 20 21  2  0  0  0  0
 21 22  1  0  0  0  0
 23 19  2  0  0  0  0
 23 20  1  0  0  0  0
 24 22  2  0  0  0  0
 25 26  1  0  0  0  0
 26 19  1  0  0  0  0
M  END
>  <MODEL>
8

>  <REMARK>
 VINA RESULT:      -6.8      3.754      6.567
  Name = 
  4 active torsions:
  status: ('A' for Active; 'I' for Inactive)
    1  A    between atoms: C_2  and  O_11
    2  A    between atoms: C_7  and  C_24
    3  A    between atoms: C_10  and  C_24
    4  A    between atoms: C_22  and  C_24
                            x       y       z     vdW  Elec       q    Type
                         _______ _______ _______ _____ _____    ______ ____

>  <TORSDO>
F 4

$$$$
=
 OpenBabel11052409523D

 26 29  0  0  1  0  0  0  0  0999 V2000
  162.1400  209.3790  151.7140 C   0  0  1  0  0  3  0  0  0  0  0  0
  160.0940  209.9540  153.0600 N   0  0  0  0  0  0  0  0  0  0  0  0
  162.1330  210.3130  154.0340 N   0  0  0  0  0  2  0  0  0  0  0  0
  158.7410  210.7440  154.9470 C   0  0  0  0  0  3  0  0  0  0  0  0
  161.4470  209.8820  152.9430 C   0  0  0  0  0  0  0  0  0  0  0  0
  160.0890  211.4930  156.8510 C   0  0  0  0  0  3  0  0  0  0  0  0
  159.9370  210.4570  154.2920 C   0  0  0  0  0  0  0  0  0  0  0  0
  161.1490  210.6710  154.8720 C   0  0  0  0  0  0  0  0  0  0  0  0
  158.8290  211.2710  156.2500 C   0  0  0  0  0  3  0  0  0  0  0  0
  161.2750  211.1910  156.1570 C   0  0  0  0  0  3  0  0  0  0  0  0
  161.5900  207.1200  152.7110 C   0  0  0  0  0  3  0  0  0  0  0  0
  160.8640  207.6840  150.4050 C   0  0  0  0  0  3  0  0  0  0  0  0
  160.5700  206.4940  149.8850 C   0  0  0  0  0  3  0  0  0  0  0  0
  161.2090  203.9190  149.1270 Cl  0  0  0  0  0  0  0  0  0  0  0  0
  161.1500  205.2040  150.3130 C   0  0  0  0  0  0  0  0  0  0  0  0
  161.4480  205.7960  152.7440 C   0  0  0  0  0  3  0  0  0  0  0  0
  161.9040  207.8830  151.4600 C   0  0  1  0  0  3  0  0  0  0  0  0
  161.4890  204.9000  151.5720 C   0  0  0  0  0  3  0  0  0  0  0  0
  161.5750  211.9880  148.3280 C   0  0  0  0  0  0  0  0  0  0  0  0
  162.3330  209.8680  149.2310 C   0  0  0  0  0  3  0  0  0  0  0  0
  161.9460  210.2720  150.5180 C   0  0  0  0  0  0  0  0  0  0  0  0
  161.3760  211.5360  150.7010 C   0  0  0  0  0  3  0  0  0  0  0  0
  162.1480  210.7220  148.1410 C   0  0  0  0  0  3  0  0  0  0  0  0
  161.1900  212.3900  149.6110 C   0  0  0  0  0  3  0  0  0  0  0  0
  162.2910  212.9610  146.2740 O   0  0  0  0  0  1  0  0  0  0  0  0
  161.3820  212.8540  147.2530 O   0  0  0  0  0  0  0  0  0  0  0  0
  1 21  1  6  0  0  0
  1  5  1  0  0  0  0
  2  7  1  0  0  0  0
  3  8  1  0  0  0  0
  4  9  1  0  0  0  0
  5  2  2  0  0  0  0
  5  3  1  0  0  0  0
  7  8  1  0  0  0  0
  7  4  2  0  0  0  0
  8 10  2  0  0  0  0
  9  6  2  0  0  0  0
 10  6  1  0  0  0  0
 11 16  2  0  0  0  0
 12 17  1  0  0  0  0
 13 15  1  0  0  0  0
 13 12  2  0  0  0  0
 14 15  1  0  0  0  0
 15 18  2  0  0  0  0
 17  1  1  1  0  0  0
 17 11  1  0  0  0  0
 18 16  1  0  0  0  0
 19 24  1  0  0  0  0
 20 21  2  0  0  0  0
 21 22  1  0  0  0  0
 23 19  2  0  0  0  0
 23 20  1  0  0  0  0
 24 22  2  0  0  0  0
 25 26  1  0  0  0  0
 26 19  1  0  0  0  0
M  END
>  <MODEL>
9

>  <REMARK>
 VINA RESULT:      -6.4      3.697      6.163
  Name = 
  4 active torsions:
  status: ('A' for Active; 'I' for Inactive)
    1  A    between atoms: C_2  and  O_11
    2  A    between atoms: C_7  and  C_24
    3  A    between atoms: C_10  and  C_24
    4  A    between atoms: C_22  and  C_24
                            x       y       z     vdW  Elec       q    Type
                         _______ _______ _______ _____ _____    ______ ____

>  <TORSDO>
F 4

$$$$
