=
 OpenBabel11052411573D

 56 60  0  0  1  0  0  0  0  0999 V2000
  161.0980  209.1730  154.7390 C   0  0  0  0  0  2  0  0  0  0  0  0
  161.6080  207.7880  154.3660 C   0  0  0  0  0  2  0  0  0  0  0  0
  159.8670  209.5800  153.9140 C   0  0  2  0  0  3  0  0  0  0  0  0
  162.5210  206.4150  152.5090 C   0  0  0  0  0  1  0  0  0  0  0  0
  160.9400  208.2630  151.9570 C   0  0  2  0  0  3  0  0  0  0  0  0
  159.6490  208.7580  152.6340 C   0  0  0  0  0  2  0  0  0  0  0  0
  162.0520  207.7980  152.9080 C   0  0  1  0  0  3  0  0  0  0  0  0
  162.3870  210.9780  148.9710 C   0  0  0  0  0  0  0  0  0  0  0  0
  162.0810  209.6660  148.6030 C   0  0  0  0  0  3  0  0  0  0  0  0
  161.6080  208.7730  149.5670 C   0  0  0  0  0  0  0  0  0  0  0  0
  162.8680  211.8960  147.9960 N   0  0  0  0  0  1  0  0  0  0  0  0
  162.2270  211.3780  150.2600 N   0  0  0  0  0  0  0  0  0  0  0  0
  161.4460  209.2030  150.8970 C   0  0  0  0  0  0  0  0  0  0  0  0
  161.7710  210.5280  151.2190 C   0  0  0  0  0  3  0  0  0  0  0  0
  161.0810  206.2890  148.8290 C   0  0  0  0  0  0  0  0  0  0  0  0
  161.3100  207.4200  149.1810 C   0  0  0  0  0  0  0  0  0  0  0  0
  160.8220  204.9180  148.3680 C   0  0  2  0  0  3  0  0  0  0  0  0
  161.2950  203.8830  149.4010 C   0  0  2  0  0  3  0  0  0  0  0  0
  160.6050  203.4390  151.7730 C   0  0  0  0  0  3  0  0  0  0  0  0
  160.7440  202.4860  149.0900 C   0  0  0  0  0  2  0  0  0  0  0  0
  160.9450  204.3120  150.8110 C   0  0  0  0  0  3  0  0  0  0  0  0
  160.4320  201.9660  151.5030 C   0  0  0  0  0  2  0  0  0  0  0  0
  160.7220  200.2370  149.8840 O   0  0  0  0  0  1  0  0  0  0  0  0
  161.1240  201.5310  150.2130 C   0  0  1  0  0  3  0  0  0  0  0  0
  162.3590  204.4140  144.2840 O   0  0  0  0  0  1  0  0  0  0  0  0
  162.4030  203.8670  146.9320 O   0  0  0  0  0  0  0  0  0  0  0  0
  161.1070  206.1930  143.5730 O   0  0  0  0  0  0  0  0  0  0  0  0
  161.0770  205.5090  145.9100 N   0  0  0  0  0  2  0  0  0  0  0  0
  161.5540  205.3390  144.5720 C   0  0  0  0  0  0  0  0  0  0  0  0
  161.4920  204.7310  147.0410 C   0  0  0  0  0  0  0  0  0  0  0  0
  159.8900  211.0700  153.5990 C   0  0  0  0  0  2  0  0  0  0  0  0
  157.9600  212.0590  156.6210 C   0  0  0  0  0  3  0  0  0  0  0  0
  157.1490  213.0870  156.1510 C   0  0  0  0  0  2  0  0  0  0  0  0
  158.8240  211.4500  155.7700 N   0  0  0  0  0  0  0  0  0  0  0  0
  158.9270  211.8200  154.4640 C   0  0  2  0  0  3  0  0  0  0  0  0
  157.2390  213.4640  154.8500 N   0  0  0  0  0  0  0  0  0  0  0  0
  158.1040  212.8720  153.9830 C   0  0  0  0  0  0  0  0  0  0  0  0
  159.0430  214.0390  152.0670 C   0  0  0  0  0  3  0  0  0  0  0  0
  158.1070  213.3430  152.6240 N   0  0  0  0  0  0  0  0  0  0  0  0
  158.9310  214.4530  150.6400 C   0  0  0  0  0  2  0  0  0  0  0  0
  160.0090  213.7950  149.7930 C   0  0  0  0  0  2  0  0  0  0  0  0
  159.3670  214.0530  146.3870 C   0  0  2  0  0  3  0  0  0  0  0  0
  158.1380  213.7440  148.3080 O   0  0  0  0  0  0  0  0  0  0  0  0
  160.2630  213.7320  147.4030 O   0  0  0  0  0  0  0  0  0  0  0  0
  159.4560  213.2920  148.4680 C   0  0  1  0  0  3  0  0  0  0  0  0
  157.9850  213.8600  146.9300 C   0  0  0  0  0  2  0  0  0  0  0  0
  159.6390  213.2960  145.0680 C   0  0  0  0  0  2  0  0  0  0  0  0
  160.4500  213.9890  144.0460 N   0  0  0  0  0  0  0  0  0  0  0  0
  159.4470  212.6350  142.4100 O   0  0  0  0  0  1  0  0  0  0  0  0
  160.6680  213.1610  142.8520 C   0  0  1  0  0  3  0  0  0  0  0  0
  161.2860  213.9830  141.7220 C   0  0  0  0  0  2  0  0  0  0  0  0
  160.8960  212.3770  139.8560 C   0  0  0  0  0  1  0  0  0  0  0  0
  162.8150  213.9290  139.7740 C   0  0  0  0  0  1  0  0  0  0  0  0
  161.9500  213.0860  140.6870 C   0  0  0  0  0  3  0  0  0  0  0  0
  161.7260  214.4190  144.6170 C   0  0  0  0  0  2  0  0  0  0  0  0
  162.5190  213.3060  144.8950 O   0  0  0  0  0  1  0  0  0  0  0  0
  2  1  1  0  0  0  0
  3 31  1  6  0  0  0
  3  1  1  0  0  0  0
  5 13  1  1  0  0  0
  5  6  1  0  0  0  0
  5  7  1  0  0  0  0
  6  3  1  0  0  0  0
  7  4  1  6  0  0  0
  7  2  1  0  0  0  0
  8 12  1  0  0  0  0
  9  8  2  0  0  0  0
  9 10  1  0  0  0  0
 10 13  2  0  0  0  0
 11  8  1  0  0  0  0
 12 14  2  0  0  0  0
 13 14  1  0  0  0  0
 15 16  3  0  0  0  0
 16 10  1  0  0  0  0
 17 15  1  1  0  0  0
 18 17  1  6  0  0  0
 18 21  1  0  0  0  0
 20 18  1  0  0  0  0
 20 24  1  0  0  0  0
 21 19  2  0  0  0  0
 22 19  1  0  0  0  0
 24 23  1  6  0  0  0
 24 22  1  0  0  0  0
 25 29  1  0  0  0  0
 26 30  2  0  0  0  0
 27 29  2  0  0  0  0
 28 30  1  0  0  0  0
 29 28  1  0  0  0  0
 30 17  1  0  0  0  0
 33 32  1  0  0  0  0
 34 32  2  0  0  0  0
 35 31  1  6  0  0  0
 35 34  1  0  0  0  0
 36 33  1  0  0  0  0
 37 35  1  0  0  0  0
 37 36  2  0  0  0  0
 38 39  2  0  0  0  0
 39 37  1  0  0  0  0
 40 38  1  0  0  0  0
 41 40  1  0  0  0  0
 42 47  1  6  0  0  0
 42 46  1  0  0  0  0
 42 44  1  0  0  0  0
 43 45  1  0  0  0  0
 44 45  1  0  0  0  0
 45 41  1  1  0  0  0
 46 43  1  0  0  0  0
 48 55  1  0  0  0  0
 48 47  1  0  0  0  0
 50 49  1  6  0  0  0
 50 48  1  0  0  0  0
 51 50  1  0  0  0  0
 52 54  1  0  0  0  0
 53 54  1  0  0  0  0
 54 51  1  0  0  0  0
 55 56  1  0  0  0  0
M  END
>  <MODEL>
1

>  <REMARK>
 VINA RESULT:      -5.2      0.000      0.000
  Name = 
  17 active torsions:
  status: ('A' for Active; 'I' for Inactive)
    1  A    between atoms: C_2  and  C_31
    2  A    between atoms: C_4  and  C_51
    3  A    between atoms: C_12  and  C_22
    4  A    between atoms: C_12  and  C_43
    5  A    between atoms: C_13  and  C_41
    6  A    between atoms: C_21  and  C_23
    7  A    between atoms: C_21  and  C_45
    8  A    between atoms: C_26  and  C_31
    9  A    between atoms: C_31  and  C_49
   10  A    between atoms: C_32  and  C_33
   11  A    between atoms: C_32  and  C_52
   12  A    between atoms: C_33  and  N_55
   13  A    between atoms: C_35  and  N_55
   14  A    between atoms: C_38  and  C_39
   15  A    between atoms: C_45  and  C_48
   16  A    between atoms: C_47  and  N_54
   17  A    between atoms: C_51  and  N_55
                            x       y       z     vdW  Elec       q    Type
                         _______ _______ _______ _____ _____    ______ ____

>  <TORSDO>
F 17

$$$$
=
 OpenBabel11052411573D

 56 60  0  0  1  0  0  0  0  0999 V2000
  161.4330  208.7790  154.5250 C   0  0  0  0  0  2  0  0  0  0  0  0
  161.9530  207.4310  154.0450 C   0  0  0  0  0  2  0  0  0  0  0  0
  160.1650  209.2130  153.7750 C   0  0  2  0  0  3  0  0  0  0  0  0
  162.8180  206.1980  152.0700 C   0  0  0  0  0  1  0  0  0  0  0  0
  161.1840  208.0450  151.6980 C   0  0  2  0  0  3  0  0  0  0  0  0
  159.9110  208.4690  152.4540 C   0  0  0  0  0  2  0  0  0  0  0  0
  162.3400  207.5430  152.5750 C   0  0  1  0  0  3  0  0  0  0  0  0
  162.4560  210.9740  148.8390 C   0  0  0  0  0  0  0  0  0  0  0  0
  162.3780  209.6360  148.4480 C   0  0  0  0  0  3  0  0  0  0  0  0
  161.9640  208.6730  149.3710 C   0  0  0  0  0  0  0  0  0  0  0  0
  162.8760  211.9640  147.9050 N   0  0  0  0  0  1  0  0  0  0  0  0
  162.1340  211.3320  150.1100 N   0  0  0  0  0  0  0  0  0  0  0  0
  161.6310  209.0600  150.6830 C   0  0  0  0  0  0  0  0  0  0  0  0
  161.7300  210.4150  151.0290 C   0  0  0  0  0  3  0  0  0  0  0  0
  161.8250  206.1480  148.5970 C   0  0  0  0  0  0  0  0  0  0  0  0
  161.9010  207.2950  148.9630 C   0  0  0  0  0  0  0  0  0  0  0  0
  161.7040  204.7610  148.1280 C   0  0  2  0  0  3  0  0  0  0  0  0
  160.7240  204.6540  146.9480 C   0  0  2  0  0  3  0  0  0  0  0  0
  160.7140  205.7110  144.6720 C   0  0  0  0  0  3  0  0  0  0  0  0
  160.8740  203.3180  146.2120 C   0  0  0  0  0  2  0  0  0  0  0  0
  160.8740  205.8270  146.0000 C   0  0  0  0  0  3  0  0  0  0  0  0
  160.4810  204.3830  143.9970 C   0  0  0  0  0  2  0  0  0  0  0  0
  160.0320  202.0680  144.3630 O   0  0  0  0  0  1  0  0  0  0  0  0
  159.9850  203.3200  144.9750 C   0  0  1  0  0  3  0  0  0  0  0  0
  160.7530  202.5180  151.7840 O   0  0  0  0  0  0  0  0  0  0  0  0
  161.1640  202.6630  149.1150 O   0  0  0  0  0  0  0  0  0  0  0  0
  160.4970  204.4770  152.9400 O   0  0  0  0  0  1  0  0  0  0  0  0
  161.0440  204.5000  150.5670 N   0  0  0  0  0  2  0  0  0  0  0  0
  160.7560  203.7780  151.7690 C   0  0  0  0  0  0  0  0  0  0  0  0
  161.2820  203.9060  149.2830 C   0  0  0  0  0  0  0  0  0  0  0  0
  160.1490  210.7190  153.5560 C   0  0  0  0  0  2  0  0  0  0  0  0
  157.1250  211.2450  155.6560 C   0  0  0  0  0  3  0  0  0  0  0  0
  156.4880  212.3110  155.0290 C   0  0  0  0  0  2  0  0  0  0  0  0
  158.2940  210.7760  155.1530 N   0  0  0  0  0  0  0  0  0  0  0  0
  158.8720  211.3240  154.0490 C   0  0  2  0  0  3  0  0  0  0  0  0
  157.0520  212.8650  153.9250 N   0  0  0  0  0  0  0  0  0  0  0  0
  158.2280  212.4160  153.4090 C   0  0  0  0  0  0  0  0  0  0  0  0
  158.1010  213.1840  151.1040 C   0  0  0  0  0  3  0  0  0  0  0  0
  158.7280  213.0690  152.2290 N   0  0  0  0  0  0  0  0  0  0  0  0
  158.7280  213.9000  149.9590 C   0  0  0  0  0  2  0  0  0  0  0  0
  159.0410  212.9420  148.8200 C   0  0  0  0  0  2  0  0  0  0  0  0
  160.3690  213.2380  145.6220 C   0  0  2  0  0  3  0  0  0  0  0  0
  160.5210  214.3790  147.6140 O   0  0  0  0  0  0  0  0  0  0  0  0
  159.3400  212.7790  146.4400 O   0  0  0  0  0  0  0  0  0  0  0  0
  159.3080  213.6820  147.5170 C   0  0  1  0  0  3  0  0  0  0  0  0
  160.9980  214.4110  146.3080 C   0  0  0  0  0  2  0  0  0  0  0  0
  159.9170  213.5230  144.1710 C   0  0  0  0  0  2  0  0  0  0  0  0
  160.8540  213.1610  143.0880 N   0  0  0  0  0  0  0  0  0  0  0  0
  159.2280  212.7030  141.4560 O   0  0  0  0  0  1  0  0  0  0  0  0
  160.2930  212.1520  142.1800 C   0  0  1  0  0  3  0  0  0  0  0  0
  161.3510  211.6540  141.1950 C   0  0  0  0  0  2  0  0  0  0  0  0
  159.9520  210.8660  139.2890 C   0  0  0  0  0  1  0  0  0  0  0  0
  162.0470  209.6900  139.8570 C   0  0  0  0  0  1  0  0  0  0  0  0
  160.8590  210.4360  140.4270 C   0  0  0  0  0  3  0  0  0  0  0  0
  162.1250  212.7050  143.6490 C   0  0  0  0  0  2  0  0  0  0  0  0
  163.0990  213.6890  143.4770 O   0  0  0  0  0  1  0  0  0  0  0  0
  2  1  1  0  0  0  0
  3 31  1  6  0  0  0
  3  1  1  0  0  0  0
  5 13  1  1  0  0  0
  5  6  1  0  0  0  0
  5  7  1  0  0  0  0
  6  3  1  0  0  0  0
  7  4  1  6  0  0  0
  7  2  1  0  0  0  0
  8 12  1  0  0  0  0
  9  8  2  0  0  0  0
  9 10  1  0  0  0  0
 10 13  2  0  0  0  0
 11  8  1  0  0  0  0
 12 14  2  0  0  0  0
 13 14  1  0  0  0  0
 15 16  3  0  0  0  0
 16 10  1  0  0  0  0
 17 15  1  1  0  0  0
 17 30  1  0  0  0  0
 18 17  1  1  0  0  0
 19 21  2  0  0  0  0
 20 18  1  0  0  0  0
 21 18  1  0  0  0  0
 22 19  1  0  0  0  0
 22 24  1  0  0  0  0
 24 23  1  6  0  0  0
 24 20  1  0  0  0  0
 26 30  2  0  0  0  0
 28 29  1  0  0  0  0
 29 25  2  0  0  0  0
 29 27  1  0  0  0  0
 30 28  1  0  0  0  0
 33 32  1  0  0  0  0
 34 32  2  0  0  0  0
 35 31  1  6  0  0  0
 35 34  1  0  0  0  0
 36 33  1  0  0  0  0
 37 36  2  0  0  0  0
 37 35  1  0  0  0  0
 38 39  2  0  0  0  0
 39 37  1  0  0  0  0
 40 38  1  0  0  0  0
 41 40  1  0  0  0  0
 42 47  1  6  0  0  0
 42 46  1  0  0  0  0
 42 44  1  0  0  0  0
 44 45  1  0  0  0  0
 45 43  1  0  0  0  0
 45 41  1  1  0  0  0
 46 43  1  0  0  0  0
 48 55  1  0  0  0  0
 48 47  1  0  0  0  0
 50 49  1  6  0  0  0
 50 48  1  0  0  0  0
 51 50  1  0  0  0  0
 52 54  1  0  0  0  0
 53 54  1  0  0  0  0
 54 51  1  0  0  0  0
 56 55  1  0  0  0  0
M  END
>  <MODEL>
2

>  <REMARK>
 VINA RESULT:      -4.5      1.620      3.160
  Name = 
  17 active torsions:
  status: ('A' for Active; 'I' for Inactive)
    1  A    between atoms: C_2  and  C_31
    2  A    between atoms: C_4  and  C_51
    3  A    between atoms: C_12  and  C_22
    4  A    between atoms: C_12  and  C_43
    5  A    between atoms: C_13  and  C_41
    6  A    between atoms: C_21  and  C_23
    7  A    between atoms: C_21  and  C_45
    8  A    between atoms: C_26  and  C_31
    9  A    between atoms: C_31  and  C_49
   10  A    between atoms: C_32  and  C_33
   11  A    between atoms: C_32  and  C_52
   12  A    between atoms: C_33  and  N_55
   13  A    between atoms: C_35  and  N_55
   14  A    between atoms: C_38  and  C_39
   15  A    between atoms: C_45  and  C_48
   16  A    between atoms: C_47  and  N_54
   17  A    between atoms: C_51  and  N_55
                            x       y       z     vdW  Elec       q    Type
                         _______ _______ _______ _____ _____    ______ ____

>  <TORSDO>
F 17

$$$$
=
 OpenBabel11052411573D

 56 60  0  0  1  0  0  0  0  0999 V2000
  163.1430  207.1070  147.2750 C   0  0  0  0  0  2  0  0  0  0  0  0
  162.6770  208.3010  148.0960 C   0  0  0  0  0  2  0  0  0  0  0  0
  161.9780  206.1920  146.8670 C   0  0  2  0  0  3  0  0  0  0  0  0
  161.5420  208.9720  150.2010 C   0  0  0  0  0  1  0  0  0  0  0  0
  160.9080  206.8030  149.1460 C   0  0  2  0  0  3  0  0  0  0  0  0
  160.6890  206.3900  147.6790 C   0  0  0  0  0  2  0  0  0  0  0  0
  162.0510  207.7980  149.3910 C   0  0  1  0  0  3  0  0  0  0  0  0
  161.0390  203.4300  151.7890 C   0  0  0  0  0  0  0  0  0  0  0  0
  161.1400  204.7150  152.3260 C   0  0  0  0  0  3  0  0  0  0  0  0
  161.0970  205.8220  151.4740 C   0  0  0  0  0  0  0  0  0  0  0  0
  161.0790  202.2960  152.6490 N   0  0  0  0  0  1  0  0  0  0  0  0
  160.9040  203.2620  150.4470 N   0  0  0  0  0  0  0  0  0  0  0  0
  160.9550  205.6300  150.0870 C   0  0  0  0  0  0  0  0  0  0  0  0
  160.8620  204.3210  149.5960 C   0  0  0  0  0  3  0  0  0  0  0  0
  161.3200  208.2330  152.5370 C   0  0  0  0  0  0  0  0  0  0  0  0
  161.2180  207.1410  152.0350 C   0  0  0  0  0  0  0  0  0  0  0  0
  161.4440  209.5470  153.1840 C   0  0  2  0  0  3  0  0  0  0  0  0
  161.5250  209.4110  154.7120 C   0  0  2  0  0  3  0  0  0  0  0  0
  160.5720  210.7970  156.5750 C   0  0  0  0  0  3  0  0  0  0  0  0
  160.6200  208.2860  155.2270 C   0  0  0  0  0  2  0  0  0  0  0  0
  161.2160  210.7260  155.3990 C   0  0  0  0  0  3  0  0  0  0  0  0
  160.0030  209.5800  157.2610 C   0  0  0  0  0  2  0  0  0  0  0  0
  159.8980  207.1970  157.2220 O   0  0  0  0  0  1  0  0  0  0  0  0
  160.6300  208.2850  156.7490 C   0  0  1  0  0  3  0  0  0  0  0  0
  158.2730  212.3970  152.1240 O   0  0  0  0  0  1  0  0  0  0  0  0
  159.1140  209.9490  152.9070 O   0  0  0  0  0  0  0  0  0  0  0  0
  159.8350  213.8660  151.3250 O   0  0  0  0  0  0  0  0  0  0  0  0
  160.5090  211.7030  152.2180 N   0  0  0  0  0  2  0  0  0  0  0  0
  159.4850  212.6480  151.8900 C   0  0  0  0  0  0  0  0  0  0  0  0
  160.2830  210.3930  152.7590 C   0  0  0  0  0  0  0  0  0  0  0  0
  162.4030  204.7300  146.8780 C   0  0  0  0  0  2  0  0  0  0  0  0
  160.0630  201.9060  146.2610 C   0  0  0  0  0  3  0  0  0  0  0  0
  159.5830  202.1710  144.9820 C   0  0  0  0  0  2  0  0  0  0  0  0
  160.9570  202.7560  146.8270 N   0  0  0  0  0  0  0  0  0  0  0  0
  161.3970  203.8690  146.1810 C   0  0  2  0  0  3  0  0  0  0  0  0
  160.0160  203.2770  144.3250 N   0  0  0  0  0  0  0  0  0  0  0  0
  160.9050  204.1460  144.8770 C   0  0  0  0  0  0  0  0  0  0  0  0
  161.3730  205.3150  142.7970 C   0  0  0  0  0  3  0  0  0  0  0  0
  161.3050  205.2790  144.0870 N   0  0  0  0  0  0  0  0  0  0  0  0
  161.7890  206.5620  142.0960 C   0  0  0  0  0  2  0  0  0  0  0  0
  162.3080  206.2570  140.6990 C   0  0  0  0  0  2  0  0  0  0  0  0
  160.7220  208.8290  138.9810 C   0  0  2  0  0  3  0  0  0  0  0  0
  162.1490  207.0980  138.4680 O   0  0  0  0  0  0  0  0  0  0  0  0
  161.2320  208.3450  140.1830 O   0  0  0  0  0  0  0  0  0  0  0  0
  162.2840  207.4900  139.8080 C   0  0  1  0  0  3  0  0  0  0  0  0
  161.4720  208.1570  137.8720 C   0  0  0  0  0  2  0  0  0  0  0  0
  160.7170  210.3720  138.8950 C   0  0  0  0  0  2  0  0  0  0  0  0
  161.6710  211.1000  139.7580 N   0  0  0  0  0  0  0  0  0  0  0  0
  160.3920  213.0160  139.2980 O   0  0  0  0  0  1  0  0  0  0  0  0
  161.0960  212.3380  140.3010 C   0  0  1  0  0  3  0  0  0  0  0  0
  160.1390  212.0360  141.4550 C   0  0  0  0  0  2  0  0  0  0  0  0
  159.9490  211.9890  143.9400 C   0  0  0  0  0  1  0  0  0  0  0  0
  162.1300  212.4370  142.8720 C   0  0  0  0  0  1  0  0  0  0  0  0
  160.6350  212.6480  142.7570 C   0  0  0  0  0  3  0  0  0  0  0  0
  162.9050  211.3790  139.0260 C   0  0  0  0  0  2  0  0  0  0  0  0
  163.5470  212.4840  139.5850 O   0  0  0  0  0  1  0  0  0  0  0  0
  1  2  1  0  0  0  0
  2  7  1  0  0  0  0
  3 31  1  1  0  0  0
  3  1  1  0  0  0  0
  3  6  1  0  0  0  0
  5  7  1  0  0  0  0
  5 13  1  1  0  0  0
  6  5  1  0  0  0  0
  7  4  1  6  0  0  0
  8  9  1  0  0  0  0
  8 11  1  0  0  0  0
 10 16  1  0  0  0  0
 10  9  2  0  0  0  0
 12  8  2  0  0  0  0
 13 10  1  0  0  0  0
 14 13  2  0  0  0  0
 14 12  1  0  0  0  0
 16 15  3  0  0  0  0
 17 15  1  6  0  0  0
 18 17  1  6  0  0  0
 18 20  1  0  0  0  0
 18 21  1  0  0  0  0
 19 22  1  0  0  0  0
 20 24  1  0  0  0  0
 21 19  2  0  0  0  0
 24 23  1  1  0  0  0
 24 22  1  0  0  0  0
 27 29  2  0  0  0  0
 28 30  1  0  0  0  0
 29 25  1  0  0  0  0
 29 28  1  0  0  0  0
 30 26  2  0  0  0  0
 30 17  1  0  0  0  0
 32 34  2  0  0  0  0
 33 32  1  0  0  0  0
 35 34  1  0  0  0  0
 35 31  1  6  0  0  0
 36 37  2  0  0  0  0
 36 33  1  0  0  0  0
 37 35  1  0  0  0  0
 38 39  2  0  0  0  0
 39 37  1  0  0  0  0
 40 38  1  0  0  0  0
 41 40  1  0  0  0  0
 42 47  1  1  0  0  0
 42 44  1  0  0  0  0
 43 45  1  0  0  0  0
 45 44  1  0  0  0  0
 45 41  1  1  0  0  0
 46 43  1  0  0  0  0
 46 42  1  0  0  0  0
 47 48  1  0  0  0  0
 48 50  1  0  0  0  0
 50 49  1  6  0  0  0
 50 51  1  0  0  0  0
 51 54  1  0  0  0  0
 54 53  1  0  0  0  0
 54 52  1  0  0  0  0
 55 56  1  0  0  0  0
 55 48  1  0  0  0  0
M  END
>  <MODEL>
3

>  <REMARK>
 VINA RESULT:      -3.6      3.203      8.907
  Name = 
  17 active torsions:
  status: ('A' for Active; 'I' for Inactive)
    1  A    between atoms: C_2  and  C_31
    2  A    between atoms: C_4  and  C_51
    3  A    between atoms: C_12  and  C_22
    4  A    between atoms: C_12  and  C_43
    5  A    between atoms: C_13  and  C_41
    6  A    between atoms: C_21  and  C_23
    7  A    between atoms: C_21  and  C_45
    8  A    between atoms: C_26  and  C_31
    9  A    between atoms: C_31  and  C_49
   10  A    between atoms: C_32  and  C_33
   11  A    between atoms: C_32  and  C_52
   12  A    between atoms: C_33  and  N_55
   13  A    between atoms: C_35  and  N_55
   14  A    between atoms: C_38  and  C_39
   15  A    between atoms: C_45  and  C_48
   16  A    between atoms: C_47  and  N_54
   17  A    between atoms: C_51  and  N_55
                            x       y       z     vdW  Elec       q    Type
                         _______ _______ _______ _____ _____    ______ ____

>  <TORSDO>
F 17

$$$$
=
 OpenBabel11052411573D

 56 60  0  0  1  0  0  0  0  0999 V2000
  161.4460  208.5490  154.5870 C   0  0  0  0  0  2  0  0  0  0  0  0
  161.9310  207.2190  154.0280 C   0  0  0  0  0  2  0  0  0  0  0  0
  160.1670  209.0410  153.8920 C   0  0  2  0  0  3  0  0  0  0  0  0
  162.7240  206.0720  151.9720 C   0  0  0  0  0  1  0  0  0  0  0  0
  161.1150  207.9620  151.7340 C   0  0  2  0  0  3  0  0  0  0  0  0
  159.8690  208.3680  152.5430 C   0  0  0  0  0  2  0  0  0  0  0  0
  162.2820  207.3980  152.5560 C   0  0  1  0  0  3  0  0  0  0  0  0
  162.3590  211.0120  148.9910 C   0  0  0  0  0  0  0  0  0  0  0  0
  162.4730  209.6730  148.6120 C   0  0  0  0  0  3  0  0  0  0  0  0
  162.0690  208.6710  149.4980 C   0  0  0  0  0  0  0  0  0  0  0  0
  162.7660  212.0410  148.0950 N   0  0  0  0  0  1  0  0  0  0  0  0
  161.8620  211.3330  150.2140 N   0  0  0  0  0  0  0  0  0  0  0  0
  161.5550  209.0200  150.7600 C   0  0  0  0  0  0  0  0  0  0  0  0
  161.4640  210.3780  151.0960 C   0  0  0  0  0  3  0  0  0  0  0  0
  162.2910  206.1430  148.7530 C   0  0  0  0  0  0  0  0  0  0  0  0
  162.2050  207.2940  149.1040 C   0  0  0  0  0  0  0  0  0  0  0  0
  162.3630  204.7450  148.3050 C   0  0  2  0  0  3  0  0  0  0  0  0
  162.2490  204.6420  146.7760 C   0  0  2  0  0  3  0  0  0  0  0  0
  160.9150  203.1210  145.2900 C   0  0  0  0  0  3  0  0  0  0  0  0
  161.4000  205.7790  146.1970 C   0  0  0  0  0  2  0  0  0  0  0  0
  161.7170  203.2870  146.3540 C   0  0  0  0  0  3  0  0  0  0  0  0
  160.3830  204.2830  144.4890 C   0  0  0  0  0  2  0  0  0  0  0  0
  160.5250  206.6410  144.1520 O   0  0  0  0  0  1  0  0  0  0  0  0
  161.2020  205.5540  144.7040 C   0  0  1  0  0  3  0  0  0  0  0  0
  159.1750  202.2100  149.9500 O   0  0  0  0  0  1  0  0  0  0  0  0
  160.4320  204.5900  149.6880 O   0  0  0  0  0  0  0  0  0  0  0  0
  160.2540  200.3350  149.2010 O   0  0  0  0  0  0  0  0  0  0  0  0
  161.2190  202.5440  148.8550 N   0  0  0  0  0  2  0  0  0  0  0  0
  160.1740  201.7110  149.3670 C   0  0  0  0  0  0  0  0  0  0  0  0
  161.2860  203.9700  149.0000 C   0  0  0  0  0  0  0  0  0  0  0  0
  160.1730  210.5570  153.7490 C   0  0  0  0  0  2  0  0  0  0  0  0
  158.7270  211.0870  157.1340 C   0  0  0  0  0  3  0  0  0  0  0  0
  158.0190  212.2760  156.9890 C   0  0  0  0  0  2  0  0  0  0  0  0
  159.4040  210.5810  156.0730 N   0  0  0  0  0  0  0  0  0  0  0  0
  159.4180  211.2080  154.8650 C   0  0  2  0  0  3  0  0  0  0  0  0
  158.0210  212.9090  155.7890 N   0  0  0  0  0  0  0  0  0  0  0  0
  158.7000  212.4240  154.7150 C   0  0  0  0  0  0  0  0  0  0  0  0
  157.5390  213.5110  152.8750 C   0  0  0  0  0  3  0  0  0  0  0  0
  158.6250  213.1710  153.4880 N   0  0  0  0  0  0  0  0  0  0  0  0
  157.5970  214.3000  151.6130 C   0  0  0  0  0  2  0  0  0  0  0  0
  157.8950  213.4050  150.4210 C   0  0  0  0  0  2  0  0  0  0  0  0
  159.5100  213.6810  147.3560 C   0  0  2  0  0  3  0  0  0  0  0  0
  159.8690  214.3990  149.5120 O   0  0  0  0  0  0  0  0  0  0  0  0
  158.3220  213.4930  148.0560 O   0  0  0  0  0  0  0  0  0  0  0  0
  158.5040  214.1860  149.2660 C   0  0  1  0  0  3  0  0  0  0  0  0
  160.4370  214.4530  148.2440 C   0  0  0  0  0  2  0  0  0  0  0  0
  159.3050  214.3100  145.9590 C   0  0  0  0  0  2  0  0  0  0  0  0
  160.2880  213.9660  144.9120 N   0  0  0  0  0  0  0  0  0  0  0  0
  158.3590  212.8740  144.1370 O   0  0  0  0  0  1  0  0  0  0  0  0
  159.6970  213.1600  143.8360 C   0  0  1  0  0  3  0  0  0  0  0  0
  159.7520  213.9030  142.5020 C   0  0  0  0  0  2  0  0  0  0  0  0
  158.8400  213.8850  140.1820 C   0  0  0  0  0  1  0  0  0  0  0  0
  160.3760  212.1000  140.9230 C   0  0  0  0  0  1  0  0  0  0  0  0
  159.2610  213.0250  141.3600 C   0  0  0  0  0  3  0  0  0  0  0  0
  161.4380  213.2810  145.5010 C   0  0  0  0  0  2  0  0  0  0  0  0
  162.4030  213.0470  144.5210 O   0  0  0  0  0  1  0  0  0  0  0  0
  2  1  1  0  0  0  0
  3 31  1  6  0  0  0
  3  1  1  0  0  0  0
  5 13  1  1  0  0  0
  5  6  1  0  0  0  0
  5  7  1  0  0  0  0
  6  3  1  0  0  0  0
  7  4  1  6  0  0  0
  7  2  1  0  0  0  0
  8 12  1  0  0  0  0
  9  8  2  0  0  0  0
  9 10  1  0  0  0  0
 10 13  2  0  0  0  0
 11  8  1  0  0  0  0
 12 14  2  0  0  0  0
 13 14  1  0  0  0  0
 15 16  3  0  0  0  0
 16 10  1  0  0  0  0
 17 15  1  6  0  0  0
 17 30  1  0  0  0  0
 18 17  1  1  0  0  0
 19 21  2  0  0  0  0
 20 18  1  0  0  0  0
 21 18  1  0  0  0  0
 22 24  1  0  0  0  0
 22 19  1  0  0  0  0
 24 23  1  1  0  0  0
 24 20  1  0  0  0  0
 27 29  2  0  0  0  0
 28 30  1  0  0  0  0
 28 29  1  0  0  0  0
 29 25  1  0  0  0  0
 30 26  2  0  0  0  0
 33 32  1  0  0  0  0
 34 32  2  0  0  0  0
 35 31  1  6  0  0  0
 35 34  1  0  0  0  0
 36 33  1  0  0  0  0
 37 35  1  0  0  0  0
 37 36  2  0  0  0  0
 38 39  2  0  0  0  0
 39 37  1  0  0  0  0
 40 38  1  0  0  0  0
 41 40  1  0  0  0  0
 42 47  1  6  0  0  0
 42 44  1  0  0  0  0
 42 46  1  0  0  0  0
 44 45  1  0  0  0  0
 45 43  1  0  0  0  0
 45 41  1  1  0  0  0
 46 43  1  0  0  0  0
 48 55  1  0  0  0  0
 48 47  1  0  0  0  0
 50 49  1  1  0  0  0
 50 48  1  0  0  0  0
 51 50  1  0  0  0  0
 52 54  1  0  0  0  0
 53 54  1  0  0  0  0
 54 51  1  0  0  0  0
 56 55  1  0  0  0  0
M  END
>  <MODEL>
4

>  <REMARK>
 VINA RESULT:      -3.3      1.464      3.110
  Name = 
  17 active torsions:
  status: ('A' for Active; 'I' for Inactive)
    1  A    between atoms: C_2  and  C_31
    2  A    between atoms: C_4  and  C_51
    3  A    between atoms: C_12  and  C_22
    4  A    between atoms: C_12  and  C_43
    5  A    between atoms: C_13  and  C_41
    6  A    between atoms: C_21  and  C_23
    7  A    between atoms: C_21  and  C_45
    8  A    between atoms: C_26  and  C_31
    9  A    between atoms: C_31  and  C_49
   10  A    between atoms: C_32  and  C_33
   11  A    between atoms: C_32  and  C_52
   12  A    between atoms: C_33  and  N_55
   13  A    between atoms: C_35  and  N_55
   14  A    between atoms: C_38  and  C_39
   15  A    between atoms: C_45  and  C_48
   16  A    between atoms: C_47  and  N_54
   17  A    between atoms: C_51  and  N_55
                            x       y       z     vdW  Elec       q    Type
                         _______ _______ _______ _____ _____    ______ ____

>  <TORSDO>
F 17

$$$$
