=
 OpenBabel11042420193D

 51 58  0  0  1  0  0  0  0  0999 V2000
  161.2180  202.5620  147.3890 N   0  0  0  0  0  0  0  0  0  0  0  0
  160.3110  203.3830  152.1400 C   0  0  0  0  0  3  0  0  0  0  0  0
  160.2970  202.7740  150.9680 C   0  0  0  0  0  3  0  0  0  0  0  0
  161.3670  205.6080  151.6620 C   0  0  0  0  0  0  0  0  0  0  0  0
  161.8960  206.7500  152.4810 C   0  0  0  0  0  2  0  0  0  0  0  0
  160.9100  204.6670  152.4770 C   0  0  0  0  0  0  0  0  0  0  0  0
  161.6450  206.3440  153.9260 C   0  0  2  0  0  3  0  0  0  0  0  0
  161.3480  205.6790  150.1720 C   0  0  0  0  0  0  0  0  0  0  0  0
  160.8810  202.2720  148.7540 C   0  0  0  0  0  3  0  0  0  0  0  0
  161.0310  205.0340  153.8380 N   0  0  0  0  0  2  0  0  0  0  0  0
  161.3490  204.9020  147.8560 C   0  0  0  0  0  3  0  0  0  0  0  0
  161.3790  203.9160  146.9660 C   0  0  0  0  0  3  0  0  0  0  0  0
  160.8420  203.2270  149.6900 C   0  0  0  0  0  0  0  0  0  0  0  0
  161.1670  204.6410  149.3120 C   0  0  0  0  0  0  0  0  0  0  0  0
  161.7430  209.4510  149.8380 C   0  0  0  0  0  0  0  0  0  0  0  0
  161.6890  208.4980  147.6130 C   0  0  0  0  0  2  0  0  0  0  0  0
  161.9160  210.5580  150.7290 N   0  0  0  0  0  2  0  0  0  0  0  0
  161.4920  208.1130  150.3990 C   0  0  0  0  0  3  0  0  0  0  0  0
  161.9000  209.5990  148.5540 N   0  0  0  0  0  0  0  0  0  0  0  0
  161.6280  207.0290  149.6260 C   0  0  0  0  0  0  0  0  0  0  0  0
  162.1410  207.1680  148.2190 C   0  0  0  0  0  2  0  0  0  0  0  0
  159.5420  212.2270  150.4980 N   0  0  0  0  0  2  0  0  0  0  0  0
  160.6780  212.6290  150.0310 C   0  0  0  0  0  0  0  0  0  0  0  0
  161.8810  211.9070  150.3300 N   0  0  0  0  0  2  0  0  0  0  0  0
  159.3950  214.4530  148.9520 C   0  0  0  0  0  1  0  0  0  0  0  0
  161.7310  213.9810  148.2480 C   0  0  0  0  0  1  0  0  0  0  0  0
  160.7630  213.9860  149.4150 C   0  0  0  0  0  3  0  0  0  0  0  0
  160.3450  199.0330  145.3800 O   0  0  0  0  0  0  0  0  0  0  0  0
  160.2970  200.1890  144.5800 C   0  0  0  0  0  2  0  0  0  0  0  0
  161.3700  201.4960  146.4060 C   0  0  0  0  0  3  0  0  0  0  0  0
  161.6040  200.1520  147.0950 C   0  0  0  0  0  2  0  0  0  0  0  0
  160.1660  201.4320  145.4610 C   0  0  0  0  0  2  0  0  0  0  0  0
  161.5880  199.0470  146.0390 C   0  0  0  0  0  2  0  0  0  0  0  0
  160.6810  207.3330  154.5630 C   0  0  0  0  0  2  0  0  0  0  0  0
  161.7770  210.9900  156.8080 C   0  0  0  0  0  2  0  0  0  0  0  0
  161.4050  208.5720  155.0660 C   0  0  2  0  0  3  0  0  0  0  0  0
  162.8070  209.8770  156.9250 C   0  0  0  0  0  2  0  0  0  0  0  0
  161.2260  211.0460  155.3890 C   0  0  1  0  0  3  0  0  0  0  0  0
  161.9970  208.2540  156.7620 S   0  0  0  0  0  0  0  0  0  0  0  0
  160.4620  209.7710  155.0570 C   0  0  0  0  0  2  0  0  0  0  0  0
  159.6670  213.4430  155.8150 C   0  0  0  0  0  0  0  0  0  0  0  0
  160.3410  212.1880  155.2590 N   0  0  0  0  0  0  0  0  0  0  0  0
  159.4750  214.2730  156.7410 O   0  0  0  0  0  0  0  0  0  0  0  0
  159.4080  212.9410  154.5480 C   0  0  1  0  0  3  0  0  0  0  0  0
  158.0710  212.2200  154.5440 C   0  0  0  0  0  2  0  0  0  0  0  0
  155.7510  213.1520  154.3600 C   0  0  0  0  0  2  0  0  0  0  0  0
  157.0910  212.9870  153.7920 N   0  0  0  0  0  0  0  0  0  0  0  0
  157.5180  213.7490  152.6550 C   0  0  0  0  0  3  0  0  0  0  0  0
  155.1960  214.3440  152.2530 C   0  0  0  0  0  3  0  0  0  0  0  0
  154.7810  213.7380  153.3670 C   0  0  0  0  0  3  0  0  0  0  0  0
  156.6260  214.4050  151.9150 C   0  0  0  0  0  3  0  0  0  0  0  0
  1  9  1  0  0  0  0
  2  6  1  0  0  0  0
  3  2  2  0  0  0  0
  4  6  2  0  0  0  0
  4  5  1  0  0  0  0
  5  7  1  0  0  0  0
  6 10  1  0  0  0  0
  7 34  1  6  0  0  0
  8  4  1  0  0  0  0
  9 13  2  0  0  0  0
 10  7  1  0  0  0  0
 11 14  1  0  0  0  0
 12  1  1  0  0  0  0
 12 11  2  0  0  0  0
 13  3  1  0  0  0  0
 14 13  1  0  0  0  0
 14  8  2  0  0  0  0
 15 18  1  0  0  0  0
 15 17  1  0  0  0  0
 16 21  1  0  0  0  0
 16 19  1  0  0  0  0
 19 15  2  0  0  0  0
 20  8  1  0  0  0  0
 20 18  2  0  0  0  0
 21 20  1  0  0  0  0
 23 24  1  0  0  0  0
 23 22  2  0  0  0  0
 24 17  1  0  0  0  0
 25 27  1  0  0  0  0
 26 27  1  0  0  0  0
 27 23  1  0  0  0  0
 28 33  1  0  0  0  0
 29 28  1  0  0  0  0
 29 32  1  0  0  0  0
 30 31  1  0  0  0  0
 30  1  1  0  0  0  0
 32 30  1  0  0  0  0
 33 31  1  0  0  0  0
 35 37  1  0  0  0  0
 36 34  1  1  0  0  0
 36 39  1  0  0  0  0
 38 40  1  1  0  0  0
 38 35  1  0  0  0  0
 39 37  1  0  0  0  0
 40 36  1  0  0  0  0
 41 43  2  0  0  0  0
 42 38  1  0  0  0  0
 42 41  1  0  0  0  0
 44 45  1  1  0  0  0
 44 42  1  0  0  0  0
 44 41  1  0  0  0  0
 47 46  1  0  0  0  0
 47 45  1  0  0  0  0
 48 47  1  0  0  0  0
 49 50  2  0  0  0  0
 50 46  1  0  0  0  0
 51 49  1  0  0  0  0
 51 48  2  0  0  0  0
M  END
>  <MODEL>
1

>  <REMARK>
 VINA RESULT:      -7.1      0.000      0.000
  Name = 
  9 active torsions:
  status: ('A' for Active; 'I' for Inactive)
    1  A    between atoms: N_3  and  C_19
    2  A    between atoms: C_13  and  C_29
    3  A    between atoms: C_14  and  N_16
    4  A    between atoms: C_14  and  CA_26
    5  A    between atoms: N_15  and  C_31
    6  A    between atoms: C_24  and  C_41
    7  A    between atoms: C_28  and  C_41
    8  A    between atoms: C_33  and  C_49
    9  A    between atoms: N_37  and  N_39
                            x       y       z     vdW  Elec       q    Type
                         _______ _______ _______ _____ _____    ______ ____

>  <TORSDO>
F 9

$$$$
=
 OpenBabel11042420193D

 51 58  0  0  1  0  0  0  0  0999 V2000
  161.1190  204.2500  147.8340 N   0  0  0  0  0  0  0  0  0  0  0  0
  160.5000  204.2030  152.7010 C   0  0  0  0  0  3  0  0  0  0  0  0
  160.4380  203.7990  151.4450 C   0  0  0  0  0  3  0  0  0  0  0  0
  161.3960  206.5420  152.5490 C   0  0  0  0  0  0  0  0  0  0  0  0
  161.9170  207.5640  153.5190 C   0  0  0  0  0  2  0  0  0  0  0  0
  161.0490  205.4500  153.2160 C   0  0  0  0  0  0  0  0  0  0  0  0
  161.7900  206.9060  154.8850 C   0  0  2  0  0  3  0  0  0  0  0  0
  161.2700  206.8600  151.0970 C   0  0  0  0  0  0  0  0  0  0  0  0
  160.8940  203.7140  149.1470 C   0  0  0  0  0  3  0  0  0  0  0  0
  161.2440  205.5920  154.6110 N   0  0  0  0  0  2  0  0  0  0  0  0
  161.1520  206.4830  148.6870 C   0  0  0  0  0  3  0  0  0  0  0  0
  161.1750  205.6630  147.6410 C   0  0  0  0  0  3  0  0  0  0  0  0
  160.8670  204.4950  150.2340 C   0  0  0  0  0  0  0  0  0  0  0  0
  161.0870  205.9700  150.0840 C   0  0  0  0  0  0  0  0  0  0  0  0
  161.6740  210.1320  149.1920 C   0  0  0  0  0  0  0  0  0  0  0  0
  162.3360  210.5090  151.4900 C   0  0  0  0  0  2  0  0  0  0  0  0
  161.3930  210.6020  147.8690 N   0  0  0  0  0  2  0  0  0  0  0  0
  161.4780  208.7050  149.5010 C   0  0  0  0  0  3  0  0  0  0  0  0
  162.0030  210.9630  150.1380 N   0  0  0  0  0  0  0  0  0  0  0  0
  161.4360  208.2980  150.7750 C   0  0  0  0  0  0  0  0  0  0  0  0
  161.4790  209.3070  151.8900 C   0  0  0  0  0  2  0  0  0  0  0  0
  159.7560  212.4680  146.3490 N   0  0  0  0  0  2  0  0  0  0  0  0
  161.0300  212.6490  146.4580 C   0  0  0  0  0  0  0  0  0  0  0  0
  161.7980  211.8560  147.3740 N   0  0  0  0  0  2  0  0  0  0  0  0
  160.7130  214.4530  144.7910 C   0  0  0  0  0  1  0  0  0  0  0  0
  162.9770  213.5140  145.2020 C   0  0  0  0  0  1  0  0  0  0  0  0
  161.6420  213.8580  145.8340 C   0  0  0  0  0  3  0  0  0  0  0  0
  159.9510  201.6300  144.8310 O   0  0  0  0  0  0  0  0  0  0  0  0
  160.4890  202.8450  144.3710 C   0  0  0  0  0  2  0  0  0  0  0  0
  161.2600  203.3760  146.6770 C   0  0  0  0  0  3  0  0  0  0  0  0
  160.8720  201.9400  147.0300 C   0  0  0  0  0  2  0  0  0  0  0  0
  160.4490  203.8930  145.4840 C   0  0  0  0  0  2  0  0  0  0  0  0
  160.8730  201.1010  145.7530 C   0  0  0  0  0  2  0  0  0  0  0  0
  160.8200  207.7090  155.7370 C   0  0  0  0  0  2  0  0  0  0  0  0
  161.1350  211.9830  156.8560 C   0  0  0  0  0  2  0  0  0  0  0  0
  161.1960  209.1820  155.7740 C   0  0  2  0  0  3  0  0  0  0  0  0
  162.4670  211.2520  156.8810 C   0  0  0  0  0  2  0  0  0  0  0  0
  160.3040  211.5160  155.6670 C   0  0  1  0  0  3  0  0  0  0  0  0
  162.2080  209.4890  157.2610 S   0  0  0  0  0  0  0  0  0  0  0  0
  159.9390  210.0440  155.8100 C   0  0  0  0  0  2  0  0  0  0  0  0
  157.7200  212.7370  156.1060 C   0  0  0  0  0  0  0  0  0  0  0  0
  159.0930  212.3090  155.5830 N   0  0  0  0  0  0  0  0  0  0  0  0
  156.7930  212.6680  156.9530 O   0  0  0  0  0  0  0  0  0  0  0  0
  158.2660  213.2180  154.9250 C   0  0  1  0  0  3  0  0  0  0  0  0
  157.6050  212.5370  153.7390 C   0  0  0  0  0  2  0  0  0  0  0  0
  157.2130  214.1200  151.8340 C   0  0  0  0  0  2  0  0  0  0  0  0
  158.0700  213.1330  152.4970 N   0  0  0  0  0  0  0  0  0  0  0  0
  159.4270  212.9270  152.0830 C   0  0  0  0  0  3  0  0  0  0  0  0
  158.9310  214.1480  150.0420 C   0  0  0  0  0  3  0  0  0  0  0  0
  157.6970  214.4520  150.4460 C   0  0  0  0  0  3  0  0  0  0  0  0
  159.8540  213.4100  150.9180 C   0  0  0  0  0  3  0  0  0  0  0  0
  1  9  1  0  0  0  0
  2  6  1  0  0  0  0
  3  2  2  0  0  0  0
  4  6  2  0  0  0  0
  4  5  1  0  0  0  0
  5  7  1  0  0  0  0
  6 10  1  0  0  0  0
  7 34  1  1  0  0  0
  8  4  1  0  0  0  0
  9 13  2  0  0  0  0
 10  7  1  0  0  0  0
 11 14  1  0  0  0  0
 12  1  1  0  0  0  0
 12 11  2  0  0  0  0
 13  3  1  0  0  0  0
 14 13  1  0  0  0  0
 14  8  2  0  0  0  0
 15 18  1  0  0  0  0
 15 19  2  0  0  0  0
 16 21  1  0  0  0  0
 17 15  1  0  0  0  0
 18 20  2  0  0  0  0
 19 16  1  0  0  0  0
 20  8  1  0  0  0  0
 20 21  1  0  0  0  0
 22 23  2  0  0  0  0
 23 24  1  0  0  0  0
 24 17  1  0  0  0  0
 25 27  1  0  0  0  0
 26 27  1  0  0  0  0
 27 23  1  0  0  0  0
 28 33  1  0  0  0  0
 29 28  1  0  0  0  0
 29 32  1  0  0  0  0
 30 31  1  0  0  0  0
 30  1  1  0  0  0  0
 32 30  1  0  0  0  0
 33 31  1  0  0  0  0
 35 37  1  0  0  0  0
 36 34  1  1  0  0  0
 36 40  1  0  0  0  0
 36 39  1  0  0  0  0
 37 39  1  0  0  0  0
 38 42  1  1  0  0  0
 38 40  1  0  0  0  0
 38 35  1  0  0  0  0
 41 43  2  0  0  0  0
 42 41  1  0  0  0  0
 44 45  1  6  0  0  0
 44 42  1  0  0  0  0
 44 41  1  0  0  0  0
 46 47  1  0  0  0  0
 47 45  1  0  0  0  0
 48 47  1  0  0  0  0
 49 50  2  0  0  0  0
 49 51  1  0  0  0  0
 50 46  1  0  0  0  0
 51 48  2  0  0  0  0
M  END
>  <MODEL>
2

>  <REMARK>
 VINA RESULT:      -6.8      1.665      2.395
  Name = 
  9 active torsions:
  status: ('A' for Active; 'I' for Inactive)
    1  A    between atoms: N_3  and  C_19
    2  A    between atoms: C_13  and  C_29
    3  A    between atoms: C_14  and  N_16
    4  A    between atoms: C_14  and  CA_26
    5  A    between atoms: N_15  and  C_31
    6  A    between atoms: C_24  and  C_41
    7  A    between atoms: C_28  and  C_41
    8  A    between atoms: C_33  and  C_49
    9  A    between atoms: N_37  and  N_39
                            x       y       z     vdW  Elec       q    Type
                         _______ _______ _______ _____ _____    ______ ____

>  <TORSDO>
F 9

$$$$
=
 OpenBabel11042420193D

 51 58  0  0  1  0  0  0  0  0999 V2000
  160.0260  211.4500  154.3210 N   0  0  0  0  0  0  0  0  0  0  0  0
  161.3160  207.2240  152.1880 C   0  0  0  0  0  3  0  0  0  0  0  0
  161.0480  208.0910  153.1480 C   0  0  0  0  0  3  0  0  0  0  0  0
  161.2530  208.5970  150.0890 C   0  0  0  0  0  0  0  0  0  0  0  0
  161.2620  208.3140  148.6140 C   0  0  0  0  0  2  0  0  0  0  0  0
  161.3060  207.4480  150.7490 C   0  0  0  0  0  0  0  0  0  0  0  0
  161.3620  206.7990  148.5070 C   0  0  2  0  0  3  0  0  0  0  0  0
  161.2600  209.9980  150.6000 C   0  0  0  0  0  0  0  0  0  0  0  0
  160.2500  210.0400  154.1800 C   0  0  0  0  0  3  0  0  0  0  0  0
  161.3820  206.3340  149.8790 N   0  0  0  0  0  2  0  0  0  0  0  0
  160.8790  211.8650  152.1270 C   0  0  0  0  0  3  0  0  0  0  0  0
  160.4240  212.3430  153.2800 C   0  0  0  0  0  3  0  0  0  0  0  0
  160.7030  209.5070  153.0390 C   0  0  0  0  0  0  0  0  0  0  0  0
  160.9770  210.4020  151.8670 C   0  0  0  0  0  0  0  0  0  0  0  0
  160.8440  212.5490  147.8030 C   0  0  0  0  0  0  0  0  0  0  0  0
  163.1810  211.9250  147.9150 C   0  0  0  0  0  2  0  0  0  0  0  0
  159.7800  213.3500  147.2810 N   0  0  0  0  0  2  0  0  0  0  0  0
  160.5480  211.5570  148.8510 C   0  0  0  0  0  3  0  0  0  0  0  0
  162.0750  212.7540  147.4330 N   0  0  0  0  0  0  0  0  0  0  0  0
  161.5450  211.0190  149.5630 C   0  0  0  0  0  0  0  0  0  0  0  0
  162.9550  211.5050  149.3690 C   0  0  0  0  0  2  0  0  0  0  0  0
  159.4960  212.3710  144.5550 N   0  0  0  0  0  2  0  0  0  0  0  0
  159.9320  213.5650  144.7830 C   0  0  0  0  0  0  0  0  0  0  0  0
  159.8710  214.1180  146.1050 N   0  0  0  0  0  2  0  0  0  0  0  0
  159.1060  214.4330  142.6140 C   0  0  0  0  0  1  0  0  0  0  0  0
  161.5340  214.0270  142.9570 C   0  0  0  0  0  1  0  0  0  0  0  0
  160.2400  214.4530  143.6240 C   0  0  0  0  0  3  0  0  0  0  0  0
  157.1520  213.2930  156.6860 O   0  0  0  0  0  0  0  0  0  0  0  0
  157.4710  211.9780  157.0710 C   0  0  0  0  0  2  0  0  0  0  0  0
  159.4240  212.0020  155.5280 C   0  0  0  0  0  3  0  0  0  0  0  0
  159.1500  213.4970  155.3640 C   0  0  0  0  0  2  0  0  0  0  0  0
  158.1510  211.2430  155.9150 C   0  0  0  0  0  2  0  0  0  0  0  0
  158.3690  213.9910  156.5810 C   0  0  0  0  0  2  0  0  0  0  0  0
  162.6630  206.4330  147.8110 C   0  0  0  0  0  2  0  0  0  0  0  0
  160.8060  203.7080  144.8530 C   0  0  0  0  0  2  0  0  0  0  0  0
  162.4190  205.5370  146.6060 C   0  0  2  0  0  3  0  0  0  0  0  0
  161.2580  205.0310  144.2560 C   0  0  0  0  0  2  0  0  0  0  0  0
  161.8260  203.2200  145.8750 C   0  0  1  0  0  3  0  0  0  0  0  0
  161.1950  206.3430  145.5190 S   0  0  0  0  0  0  0  0  0  0  0  0
  161.9020  204.1760  147.0580 C   0  0  0  0  0  2  0  0  0  0  0  0
  160.8620  200.5050  146.1180 C   0  0  0  0  0  0  0  0  0  0  0  0
  161.4480  201.9000  146.3430 N   0  0  0  0  0  0  0  0  0  0  0  0
  160.3520  199.6310  145.3710 O   0  0  0  0  0  0  0  0  0  0  0  0
  161.2840  200.9600  147.3590 C   0  0  1  0  0  3  0  0  0  0  0  0
  160.0800  201.3330  148.2070 C   0  0  0  0  0  2  0  0  0  0  0  0
  161.5390  201.2380  150.2440 C   0  0  0  0  0  2  0  0  0  0  0  0
  160.5150  201.9320  149.4580 N   0  0  0  0  0  0  0  0  0  0  0  0
  160.1190  203.2740  149.7690 C   0  0  0  0  0  3  0  0  0  0  0  0
  161.2200  203.0400  151.9230 C   0  0  0  0  0  3  0  0  0  0  0  0
  161.6990  201.8320  151.6200 C   0  0  0  0  0  3  0  0  0  0  0  0
  160.4520  203.8180  150.9380 C   0  0  0  0  0  3  0  0  0  0  0  0
  1 30  1  0  0  0  0
  2  3  2  0  0  0  0
  4  8  1  0  0  0  0
  4  6  2  0  0  0  0
  5  4  1  0  0  0  0
  6  2  1  0  0  0  0
  7 34  1  1  0  0  0
  7  5  1  0  0  0  0
  7 10  1  0  0  0  0
  8 14  2  0  0  0  0
  9  1  1  0  0  0  0
 10  6  1  0  0  0  0
 11 12  2  0  0  0  0
 12  1  1  0  0  0  0
 13  3  1  0  0  0  0
 13  9  2  0  0  0  0
 14 11  1  0  0  0  0
 14 13  1  0  0  0  0
 15 18  1  0  0  0  0
 16 21  1  0  0  0  0
 17 15  1  0  0  0  0
 18 20  2  0  0  0  0
 19 15  2  0  0  0  0
 19 16  1  0  0  0  0
 20  8  1  0  0  0  0
 21 20  1  0  0  0  0
 22 23  2  0  0  0  0
 23 24  1  0  0  0  0
 24 17  1  0  0  0  0
 25 27  1  0  0  0  0
 26 27  1  0  0  0  0
 27 23  1  0  0  0  0
 28 29  1  0  0  0  0
 30 32  1  0  0  0  0
 31 30  1  0  0  0  0
 31 33  1  0  0  0  0
 32 29  1  0  0  0  0
 33 28  1  0  0  0  0
 36 40  1  0  0  0  0
 36 34  1  1  0  0  0
 37 35  1  0  0  0  0
 37 39  1  0  0  0  0
 38 35  1  6  0  0  0
 38 42  1  0  0  0  0
 38 40  1  0  0  0  0
 39 36  1  0  0  0  0
 41 42  1  0  0  0  0
 41 44  1  0  0  0  0
 42 44  1  0  0  0  0
 43 41  2  0  0  0  0
 44 45  1  1  0  0  0
 45 47  1  0  0  0  0
 46 50  1  0  0  0  0
 47 48  1  0  0  0  0
 47 46  1  0  0  0  0
 48 51  2  0  0  0  0
 50 49  2  0  0  0  0
 51 49  1  0  0  0  0
M  END
>  <MODEL>
3

>  <REMARK>
 VINA RESULT:      -6.1      2.912     10.485
  Name = 
  9 active torsions:
  status: ('A' for Active; 'I' for Inactive)
    1  A    between atoms: N_3  and  C_19
    2  A    between atoms: C_13  and  C_29
    3  A    between atoms: C_14  and  N_16
    4  A    between atoms: C_14  and  CA_26
    5  A    between atoms: N_15  and  C_31
    6  A    between atoms: C_24  and  C_41
    7  A    between atoms: C_28  and  C_41
    8  A    between atoms: C_33  and  C_49
    9  A    between atoms: N_37  and  N_39
                            x       y       z     vdW  Elec       q    Type
                         _______ _______ _______ _____ _____    ______ ____

>  <TORSDO>
F 9

$$$$
=
 OpenBabel11042420193D

 51 58  0  0  1  0  0  0  0  0999 V2000
  161.0730  204.1760  147.6050 N   0  0  0  0  0  0  0  0  0  0  0  0
  160.4430  204.1530  152.4710 C   0  0  0  0  0  3  0  0  0  0  0  0
  160.3740  203.7490  151.2150 C   0  0  0  0  0  3  0  0  0  0  0  0
  161.3970  206.4690  152.3160 C   0  0  0  0  0  0  0  0  0  0  0  0
  161.9410  207.4790  153.2860 C   0  0  0  0  0  2  0  0  0  0  0  0
  161.0220  205.3860  152.9850 C   0  0  0  0  0  0  0  0  0  0  0  0
  161.7950  206.8260  154.6530 C   0  0  2  0  0  3  0  0  0  0  0  0
  161.2820  206.7870  150.8640 C   0  0  0  0  0  0  0  0  0  0  0  0
  160.8330  203.6480  148.9180 C   0  0  0  0  0  3  0  0  0  0  0  0
  161.2170  205.5260  154.3800 N   0  0  0  0  0  2  0  0  0  0  0  0
  161.1600  206.4090  148.4540 C   0  0  0  0  0  3  0  0  0  0  0  0
  161.1650  205.5870  147.4090 C   0  0  0  0  0  3  0  0  0  0  0  0
  160.8230  204.4310  150.0030 C   0  0  0  0  0  0  0  0  0  0  0  0
  161.0790  205.9000  149.8520 C   0  0  0  0  0  0  0  0  0  0  0  0
  161.6090  210.0690  148.9610 C   0  0  0  0  0  0  0  0  0  0  0  0
  162.5970  210.3640  151.1530 C   0  0  0  0  0  2  0  0  0  0  0  0
  161.1800  210.5810  147.6950 N   0  0  0  0  0  2  0  0  0  0  0  0
  161.3770  208.6490  149.2770 C   0  0  0  0  0  3  0  0  0  0  0  0
  162.1100  210.8620  149.8650 N   0  0  0  0  0  0  0  0  0  0  0  0
  161.4850  208.2200  150.5390 C   0  0  0  0  0  0  0  0  0  0  0  0
  161.7350  209.2030  151.6500 C   0  0  0  0  0  2  0  0  0  0  0  0
  159.4420  212.6240  146.5640 N   0  0  0  0  0  2  0  0  0  0  0  0
  160.7250  212.7040  146.4330 C   0  0  0  0  0  0  0  0  0  0  0  0
  161.5850  211.8200  147.1650 N   0  0  0  0  0  2  0  0  0  0  0  0
  160.4390  214.2960  144.5570 C   0  0  0  0  0  1  0  0  0  0  0  0
  162.7150  213.5930  145.2650 C   0  0  0  0  0  1  0  0  0  0  0  0
  161.3040  213.8900  145.7360 C   0  0  0  0  0  3  0  0  0  0  0  0
  159.9570  201.2860  144.8390 O   0  0  0  0  0  0  0  0  0  0  0  0
  160.2030  202.5580  144.2900 C   0  0  0  0  0  2  0  0  0  0  0  0
  161.1960  203.2970  146.4490 C   0  0  0  0  0  3  0  0  0  0  0  0
  161.1190  201.8300  146.8720 C   0  0  0  0  0  2  0  0  0  0  0  0
  160.1430  203.6230  145.3840 C   0  0  0  0  0  2  0  0  0  0  0  0
  161.0810  200.9570  145.6180 C   0  0  0  0  0  2  0  0  0  0  0  0
  160.8430  207.6540  155.5020 C   0  0  0  0  0  2  0  0  0  0  0  0
  160.8300  212.0510  156.0350 C   0  0  0  0  0  2  0  0  0  0  0  0
  161.2430  209.1220  155.5200 C   0  0  2  0  0  3  0  0  0  0  0  0
  161.9280  211.3500  156.8200 C   0  0  0  0  0  2  0  0  0  0  0  0
  160.6700  211.4010  154.6660 C   0  0  1  0  0  3  0  0  0  0  0  0
  161.4040  209.6600  157.2560 S   0  0  0  0  0  0  0  0  0  0  0  0
  160.1900  209.9620  154.8070 C   0  0  0  0  0  2  0  0  0  0  0  0
  159.3510  213.0870  152.7220 C   0  0  0  0  0  0  0  0  0  0  0  0
  159.7110  212.1560  153.8820 N   0  0  0  0  0  0  0  0  0  0  0  0
  159.6720  213.7680  151.7140 O   0  0  0  0  0  0  0  0  0  0  0  0
  158.4240  212.6370  153.6510 C   0  0  1  0  0  3  0  0  0  0  0  0
  158.1100  213.7440  154.6420 C   0  0  0  0  0  2  0  0  0  0  0  0
  157.1970  211.9750  156.1670 C   0  0  0  0  0  2  0  0  0  0  0  0
  157.0790  213.3080  155.5700 N   0  0  0  0  0  0  0  0  0  0  0  0
  156.1220  214.2590  156.0540 C   0  0  0  0  0  3  0  0  0  0  0  0
  155.0070  212.4520  157.2360 C   0  0  0  0  0  3  0  0  0  0  0  0
  155.9430  211.5650  156.8940 C   0  0  0  0  0  3  0  0  0  0  0  0
  155.1320  213.8670  156.8540 C   0  0  0  0  0  3  0  0  0  0  0  0
  1  9  1  0  0  0  0
  2  6  1  0  0  0  0
  3  2  2  0  0  0  0
  4  6  2  0  0  0  0
  4  5  1  0  0  0  0
  5  7  1  0  0  0  0
  6 10  1  0  0  0  0
  7 34  1  1  0  0  0
  8  4  1  0  0  0  0
  9 13  2  0  0  0  0
 10  7  1  0  0  0  0
 11 14  1  0  0  0  0
 12  1  1  0  0  0  0
 12 11  2  0  0  0  0
 13  3  1  0  0  0  0
 14 13  1  0  0  0  0
 14  8  2  0  0  0  0
 15 18  1  0  0  0  0
 15 19  2  0  0  0  0
 16 21  1  0  0  0  0
 17 15  1  0  0  0  0
 18 20  2  0  0  0  0
 19 16  1  0  0  0  0
 20  8  1  0  0  0  0
 20 21  1  0  0  0  0
 23 22  2  0  0  0  0
 23 24  1  0  0  0  0
 24 17  1  0  0  0  0
 25 27  1  0  0  0  0
 26 27  1  0  0  0  0
 27 23  1  0  0  0  0
 28 33  1  0  0  0  0
 29 28  1  0  0  0  0
 29 32  1  0  0  0  0
 30 31  1  0  0  0  0
 30  1  1  0  0  0  0
 32 30  1  0  0  0  0
 33 31  1  0  0  0  0
 35 37  1  0  0  0  0
 36 34  1  1  0  0  0
 36 39  1  0  0  0  0
 37 39  1  0  0  0  0
 38 42  1  6  0  0  0
 38 40  1  0  0  0  0
 38 35  1  0  0  0  0
 40 36  1  0  0  0  0
 41 44  1  0  0  0  0
 41 42  1  0  0  0  0
 43 41  2  0  0  0  0
 44 42  1  0  0  0  0
 44 45  1  1  0  0  0
 45 47  1  0  0  0  0
 46 50  1  0  0  0  0
 47 48  1  0  0  0  0
 47 46  1  0  0  0  0
 48 51  2  0  0  0  0
 50 49  2  0  0  0  0
 51 49  1  0  0  0  0
M  END
>  <MODEL>
4

>  <REMARK>
 VINA RESULT:      -6.0      1.867      2.553
  Name = 
  9 active torsions:
  status: ('A' for Active; 'I' for Inactive)
    1  A    between atoms: N_3  and  C_19
    2  A    between atoms: C_13  and  C_29
    3  A    between atoms: C_14  and  N_16
    4  A    between atoms: C_14  and  CA_26
    5  A    between atoms: N_15  and  C_31
    6  A    between atoms: C_24  and  C_41
    7  A    between atoms: C_28  and  C_41
    8  A    between atoms: C_33  and  C_49
    9  A    between atoms: N_37  and  N_39
                            x       y       z     vdW  Elec       q    Type
                         _______ _______ _______ _____ _____    ______ ____

>  <TORSDO>
F 9

$$$$
=
 OpenBabel11042420193D

 51 58  0  0  1  0  0  0  0  0999 V2000
  160.9780  202.1390  147.5460 N   0  0  0  0  0  0  0  0  0  0  0  0
  162.3670  206.6810  146.3160 C   0  0  0  0  0  3  0  0  0  0  0  0
  162.2170  205.3710  146.2340 C   0  0  0  0  0  3  0  0  0  0  0  0
  161.5130  207.2520  148.6060 C   0  0  0  0  0  0  0  0  0  0  0  0
  161.1790  208.5140  149.3500 C   0  0  0  0  0  2  0  0  0  0  0  0
  161.9360  207.5670  147.3890 C   0  0  0  0  0  0  0  0  0  0  0  0
  161.5070  209.6380  148.3780 C   0  0  2  0  0  3  0  0  0  0  0  0
  161.4120  205.9220  149.2720 C   0  0  0  0  0  0  0  0  0  0  0  0
  161.3970  203.2260  146.7080 C   0  0  0  0  0  3  0  0  0  0  0  0
  161.9710  208.9670  147.1810 N   0  0  0  0  0  2  0  0  0  0  0  0
  161.1340  203.5060  149.5000 C   0  0  0  0  0  3  0  0  0  0  0  0
  160.9250  202.3090  148.9620 C   0  0  0  0  0  3  0  0  0  0  0  0
  161.6160  204.4520  147.1980 C   0  0  0  0  0  0  0  0  0  0  0  0
  161.4100  204.7060  148.6620 C   0  0  0  0  0  0  0  0  0  0  0  0
  161.1020  207.2300  152.8350 C   0  0  0  0  0  0  0  0  0  0  0  0
  161.4930  204.8420  152.9380 C   0  0  0  0  0  2  0  0  0  0  0  0
  160.8010  208.4830  153.4560 N   0  0  0  0  0  0  0  0  0  0  0  0
  161.2540  207.1730  151.3710 C   0  0  0  0  0  3  0  0  0  0  0  0
  161.1470  206.1330  153.5350 N   0  0  0  0  0  0  0  0  0  0  0  0
  161.2310  205.9920  150.7420 C   0  0  0  0  0  0  0  0  0  0  0  0
  160.9430  204.7340  151.5150 C   0  0  0  0  0  2  0  0  0  0  0  0
  159.4950  210.6210  154.9380 N   0  0  0  0  0  2  0  0  0  0  0  0
  160.4180  209.9060  155.4910 C   0  0  0  0  0  0  0  0  0  0  0  0
  160.9080  208.7260  154.8380 N   0  0  0  0  0  0  0  0  0  0  0  0
  160.6520  211.6390  157.2460 C   0  0  0  0  0  1  0  0  0  0  0  0
  162.1740  209.6740  157.2170 C   0  0  0  0  0  1  0  0  0  0  0  0
  160.7690  210.1610  156.9190 C   0  0  0  0  0  3  0  0  0  0  0  0
  161.2420  198.8540  145.0180 O   0  0  0  0  0  0  0  0  0  0  0  0
  161.4280  198.5600  146.3810 C   0  0  0  0  0  2  0  0  0  0  0  0
  160.6330  200.8410  146.9810 C   0  0  0  0  0  3  0  0  0  0  0  0
  160.2300  200.9780  145.5120 C   0  0  0  0  0  2  0  0  0  0  0  0
  161.7760  199.8350  147.1510 C   0  0  0  0  0  2  0  0  0  0  0  0
  160.0420  199.5820  144.9200 C   0  0  0  0  0  2  0  0  0  0  0  0
  162.6200  210.4940  148.9630 C   0  0  0  0  0  2  0  0  0  0  0  0
  160.7570  214.3590  147.8620 C   0  0  0  0  0  2  0  0  0  0  0  0
  162.3570  211.9760  148.7470 C   0  0  2  0  0  3  0  0  0  0  0  0
  161.0810  214.2440  149.3430 C   0  0  0  0  0  2  0  0  0  0  0  0
  161.8710  213.7310  147.0330 C   0  0  1  0  0  3  0  0  0  0  0  0
  161.0150  212.5000  149.8660 S   0  0  0  0  0  0  0  0  0  0  0  0
  161.9610  212.2340  147.2970 C   0  0  0  0  0  2  0  0  0  0  0  0
  160.7050  213.9060  144.3930 C   0  0  0  0  0  0  0  0  0  0  0  0
  161.6120  213.9590  145.6240 N   0  0  0  0  0  0  0  0  0  0  0  0
  159.6050  213.6370  143.8440 O   0  0  0  0  0  0  0  0  0  0  0  0
  162.0240  214.3360  144.3470 C   0  0  1  0  0  3  0  0  0  0  0  0
  162.9000  213.2460  143.7540 C   0  0  0  0  0  2  0  0  0  0  0  0
  163.1480  214.1820  141.4410 C   0  0  0  0  0  2  0  0  0  0  0  0
  162.6510  213.1250  142.3270 N   0  0  0  0  0  0  0  0  0  0  0  0
  162.1500  211.8890  141.8030 C   0  0  0  0  0  3  0  0  0  0  0  0
  162.0310  212.9290  139.6110 C   0  0  0  0  0  3  0  0  0  0  0  0
  162.5990  214.0560  140.0430 C   0  0  0  0  0  3  0  0  0  0  0  0
  161.8550  211.7780  140.5090 C   0  0  0  0  0  3  0  0  0  0  0  0
  1 12  1  0  0  0  0
  2  6  1  0  0  0  0
  3  2  2  0  0  0  0
  3 13  1  0  0  0  0
  4  8  1  0  0  0  0
  4  5  1  0  0  0  0
  6  4  2  0  0  0  0
  7 34  1  1  0  0  0
  7  5  1  0  0  0  0
  8 20  1  0  0  0  0
  9 13  2  0  0  0  0
  9  1  1  0  0  0  0
 10  6  1  0  0  0  0
 10  7  1  0  0  0  0
 12 11  2  0  0  0  0
 13 14  1  0  0  0  0
 14  8  2  0  0  0  0
 14 11  1  0  0  0  0
 15 17  1  0  0  0  0
 15 19  2  0  0  0  0
 16 19  1  0  0  0  0
 17 24  2  0  0  0  0
 18 15  1  0  0  0  0
 20 18  2  0  0  0  0
 20 21  1  0  0  0  0
 21 16  1  0  0  0  0
 22 23  2  0  0  0  0
 23 27  1  0  0  0  0
 24 23  1  0  0  0  0
 27 26  1  0  0  0  0
 27 25  1  0  0  0  0
 28 29  1  0  0  0  0
 29 32  1  0  0  0  0
 30 32  1  0  0  0  0
 30  1  1  0  0  0  0
 31 30  1  0  0  0  0
 33 28  1  0  0  0  0
 33 31  1  0  0  0  0
 35 37  1  0  0  0  0
 36 34  1  6  0  0  0
 36 39  1  0  0  0  0
 37 39  1  0  0  0  0
 38 42  1  6  0  0  0
 38 40  1  0  0  0  0
 38 35  1  0  0  0  0
 40 36  1  0  0  0  0
 41 42  1  0  0  0  0
 43 41  2  0  0  0  0
 44 45  1  6  0  0  0
 44 41  1  0  0  0  0
 44 42  1  0  0  0  0
 46 47  1  0  0  0  0
 47 45  1  0  0  0  0
 48 47  1  0  0  0  0
 49 50  2  0  0  0  0
 49 51  1  0  0  0  0
 50 46  1  0  0  0  0
 51 48  2  0  0  0  0
M  END
>  <MODEL>
5

>  <REMARK>
 VINA RESULT:      -4.6      3.802      7.718
  Name = 
  9 active torsions:
  status: ('A' for Active; 'I' for Inactive)
    1  A    between atoms: N_3  and  C_19
    2  A    between atoms: C_13  and  C_29
    3  A    between atoms: C_14  and  N_16
    4  A    between atoms: C_14  and  CA_26
    5  A    between atoms: N_15  and  C_31
    6  A    between atoms: C_24  and  C_41
    7  A    between atoms: C_28  and  C_41
    8  A    between atoms: C_33  and  C_49
    9  A    between atoms: N_37  and  N_39
                            x       y       z     vdW  Elec       q    Type
                         _______ _______ _______ _____ _____    ______ ____

>  <TORSDO>
F 9

$$$$
