=
 OpenBabel11042422503D

 38 44  0  0  1  0  0  0  0  0999 V2000
  161.1750  211.3400  151.8640 C   0  0  2  0  0  3  0  0  0  0  0  0
  162.6450  210.3070  151.5580 S   0  0  0  0  0  0  0  0  0  0  0  0
  160.6720  209.1120  152.9010 C   0  0  2  0  0  3  0  0  0  0  0  0
  161.6690  208.8780  151.8770 N   0  0  0  0  0  0  0  0  0  0  0  0
  160.1310  210.5260  152.6480 C   0  0  1  0  0  3  0  0  0  0  0  0
  161.5280  207.8230  150.9110 C   0  0  0  0  0  0  0  0  0  0  0  0
  161.1860  205.4820  150.3760 C   0  0  0  0  0  0  0  0  0  0  0  0
  160.9570  203.4500  148.3420 C   0  0  0  0  0  2  0  0  0  0  0  0
  161.3110  206.5020  151.3190 C   0  0  0  0  0  3  0  0  0  0  0  0
  161.2840  205.8000  149.0040 C   0  0  0  0  0  0  0  0  0  0  0  0
  160.8330  203.1520  149.8060 C   0  0  0  0  0  0  0  0  0  0  0  0
  161.6220  208.0920  149.5400 C   0  0  0  0  0  3  0  0  0  0  0  0
  160.6170  201.9750  150.1930 O   0  0  0  0  0  0  0  0  0  0  0  0
  161.1740  204.8810  148.0850 N   0  0  0  0  0  0  0  0  0  0  0  0
  160.9710  204.2330  150.7860 C   0  0  0  0  0  3  0  0  0  0  0  0
  161.4960  207.0900  148.6300 N   0  0  0  0  0  0  0  0  0  0  0  0
  158.2590  211.7220  153.7700 C   0  0  0  0  0  2  0  0  0  0  0  0
  159.3970  212.7030  153.5910 C   0  0  0  0  0  2  0  0  0  0  0  0
  159.6950  211.2540  153.9150 C   0  0  0  0  0  3  0  0  0  0  0  0
  161.2750  209.0100  154.1600 O   0  0  0  0  0  0  0  0  0  0  0  0
  161.0980  207.5510  156.0210 C   0  0  0  0  0  2  0  0  0  0  0  0
  160.6030  206.8250  154.7910 C   0  0  0  0  0  2  0  0  0  0  0  0
  160.3560  208.3110  154.9420 C   0  0  0  0  0  3  0  0  0  0  0  0
  160.6240  211.8720  150.5370 C   0  0  2  0  0  3  0  0  0  0  0  0
  161.1600  212.4060  148.2000 C   0  0  1  0  0  3  0  0  0  0  0  0
  161.5090  211.0700  148.4680 O   0  0  0  0  0  0  0  0  0  0  0  0
  161.7300  211.9950  149.5020 C   0  0  2  0  0  3  0  0  0  0  0  0
  162.2370  213.0590  147.3370 C   0  0  1  0  0  3  0  0  0  0  0  0
  161.7820  213.1570  145.8650 C   0  0  2  0  0  0  0  0  0  0  0  0
  160.3670  212.7000  145.5300 C   0  0  0  0  0  1  0  0  0  0  0  0
  162.8490  213.1420  144.7650 C   0  0  2  0  0  3  0  0  0  0  0  0
  162.1670  214.4440  145.1640 C   0  0  0  0  0  2  0  0  0  0  0  0
  162.3190  212.6910  143.4130 C   0  0  0  0  0  1  0  0  0  0  0  0
  162.6630  214.4010  147.9370 C   0  0  0  0  0  2  0  0  0  0  0  0
  164.1630  214.4420  148.1580 C   0  0  0  0  0  1  0  0  0  0  0  0
  159.9670  213.1610  150.7170 N   0  0  0  0  0  2  0  0  0  0  0  0
  157.9160  214.2250  150.4250 O   0  0  0  0  0  1  0  0  0  0  0  0
  158.6000  213.0240  150.2370 C   0  0  0  0  0  2  0  0  0  0  0  0
  1 24  1  6  0  0  0
  1  5  1  0  0  0  0
  2  1  1  0  0  0  0
  2  4  1  0  0  0  0
  3 20  1  1  0  0  0
  4  3  1  0  0  0  0
  5  3  1  0  0  0  0
  5 19  1  1  0  0  0
  6  9  2  0  0  0  0
  6  4  1  0  0  0  0
  7 15  2  0  0  0  0
  7  9  1  0  0  0  0
  8 11  1  0  0  0  0
 10  7  1  0  0  0  0
 11 13  2  0  0  0  0
 11 15  1  0  0  0  0
 12  6  1  0  0  0  0
 14  8  1  0  0  0  0
 14 10  2  0  0  0  0
 16 10  1  0  0  0  0
 16 12  2  0  0  0  0
 17 19  1  0  0  0  0
 18 17  1  0  0  0  0
 18 19  1  0  0  0  0
 20 23  1  0  0  0  0
 22 23  1  0  0  0  0
 22 21  1  0  0  0  0
 23 21  1  0  0  0  0
 24 36  1  1  0  0  0
 25 28  1  6  0  0  0
 25 26  1  0  0  0  0
 25 27  1  0  0  0  0
 26 27  1  0  0  0  0
 27 24  1  1  0  0  0
 28 34  1  1  0  0  0
 29 30  1  6  0  0  0
 29 28  1  0  0  0  0
 31 33  1  6  0  0  0
 31 32  1  0  0  0  0
 31 29  1  0  0  0  0
 32 29  1  0  0  0  0
 34 35  1  0  0  0  0
 38 37  1  0  0  0  0
 38 36  1  0  0  0  0
M  END
>  <MODEL>
1

>  <REMARK>
 VINA RESULT:      -5.8      0.000      0.000
  Name = 
  11 active torsions:
  status: ('A' for Active; 'I' for Inactive)
    1  A    between atoms: C_1  and  N_31
    2  A    between atoms: C_3  and  C_24
    3  A    between atoms: C_7  and  C_24
    4  A    between atoms: O_11  and  C_22
    5  A    between atoms: O_11  and  C_29
    6  A    between atoms: C_12  and  C_24
    7  A    between atoms: C_14  and  C_26
    8  A    between atoms: N_17  and  C_26
    9  A    between atoms: N_17  and  C_38
   10  A    between atoms: C_23  and  C_26
   11  A    between atoms: C_33  and  C_34
                            x       y       z     vdW  Elec       q    Type
                         _______ _______ _______ _____ _____    ______ ____

>  <TORSDO>
F 11

$$$$
=
 OpenBabel11042422503D

 38 44  0  0  1  0  0  0  0  0999 V2000
  159.6910  210.9980  154.6810 C   0  0  2  0  0  3  0  0  0  0  0  0
  158.2280  210.9470  153.5940 S   0  0  0  0  0  0  0  0  0  0  0  0
  159.0140  213.3890  154.3340 C   0  0  2  0  0  3  0  0  0  0  0  0
  158.4960  212.6430  153.2050 N   0  0  0  0  0  0  0  0  0  0  0  0
  160.0200  212.4610  155.0270 C   0  0  1  0  0  3  0  0  0  0  0  0
  158.6790  213.0930  151.8530 C   0  0  0  0  0  0  0  0  0  0  0  0
  160.0440  213.2810  149.8570 C   0  0  0  0  0  0  0  0  0  0  0  0
  160.3020  214.2710  147.1610 C   0  0  0  0  0  2  0  0  0  0  0  0
  159.8690  212.8320  151.1650 C   0  0  0  0  0  3  0  0  0  0  0  0
  159.0030  214.0060  149.2360 C   0  0  0  0  0  0  0  0  0  0  0  0
  161.3760  213.4770  147.8410 C   0  0  0  0  0  0  0  0  0  0  0  0
  157.6750  213.8180  151.2000 C   0  0  0  0  0  3  0  0  0  0  0  0
  162.4450  213.2140  147.2330 O   0  0  0  0  0  0  0  0  0  0  0  0
  159.1190  214.4480  148.0140 N   0  0  0  0  0  0  0  0  0  0  0  0
  161.1810  213.0140  149.2170 C   0  0  0  0  0  3  0  0  0  0  0  0
  157.8550  214.2500  149.9230 N   0  0  0  0  0  0  0  0  0  0  0  0
  161.2940  211.8960  157.0890 C   0  0  0  0  0  2  0  0  0  0  0  0
  159.8930  211.3470  157.2430 C   0  0  0  0  0  2  0  0  0  0  0  0
  160.1110  212.6680  156.5350 C   0  0  0  0  0  3  0  0  0  0  0  0
  157.9550  213.7270  155.1850 O   0  0  0  0  0  0  0  0  0  0  0  0
  155.7230  214.4510  154.8440 C   0  0  0  0  0  2  0  0  0  0  0  0
  155.6950  213.0380  155.3810 C   0  0  0  0  0  2  0  0  0  0  0  0
  156.8030  213.4680  154.4430 C   0  0  0  0  0  3  0  0  0  0  0  0
  160.8650  210.2780  154.0090 C   0  0  2  0  0  3  0  0  0  0  0  0
  161.4630  208.6210  152.2980 C   0  0  1  0  0  3  0  0  0  0  0  0
  160.4280  209.4420  151.8140 O   0  0  0  0  0  0  0  0  0  0  0  0
  160.3760  209.1040  153.1780 C   0  0  2  0  0  3  0  0  0  0  0  0
  161.2070  207.1710  151.8920 C   0  0  1  0  0  3  0  0  0  0  0  0
  161.5060  206.9550  150.3930 C   0  0  2  0  0  0  0  0  0  0  0  0
  162.5560  207.8500  149.7460 C   0  0  0  0  0  1  0  0  0  0  0  0
  160.4230  206.3210  149.5130 C   0  0  2  0  0  3  0  0  0  0  0  0
  161.6250  205.5050  149.9710 C   0  0  0  0  0  2  0  0  0  0  0  0
  160.5720  206.6510  148.0360 C   0  0  0  0  0  1  0  0  0  0  0  0
  161.9680  206.2150  152.8130 C   0  0  0  0  0  2  0  0  0  0  0  0
  161.0080  205.3690  153.6270 C   0  0  0  0  0  1  0  0  0  0  0  0
  161.8350  209.8180  154.9960 N   0  0  0  0  0  2  0  0  0  0  0  0
  161.9630  208.3360  156.7870 O   0  0  0  0  0  1  0  0  0  0  0  0
  161.3160  208.5900  155.5780 C   0  0  0  0  0  2  0  0  0  0  0  0
  1 24  1  6  0  0  0
  1  5  1  0  0  0  0
  2  1  1  0  0  0  0
  3  5  1  0  0  0  0
  3 20  1  1  0  0  0
  4  2  1  0  0  0  0
  4  3  1  0  0  0  0
  5 19  1  1  0  0  0
  6  4  1  0  0  0  0
  7  9  1  0  0  0  0
  8 11  1  0  0  0  0
  8 14  1  0  0  0  0
  9  6  2  0  0  0  0
 10  7  1  0  0  0  0
 10 16  1  0  0  0  0
 11 15  1  0  0  0  0
 12  6  1  0  0  0  0
 13 11  2  0  0  0  0
 14 10  2  0  0  0  0
 15  7  2  0  0  0  0
 16 12  2  0  0  0  0
 17 18  1  0  0  0  0
 19 17  1  0  0  0  0
 19 18  1  0  0  0  0
 21 22  1  0  0  0  0
 23 21  1  0  0  0  0
 23 20  1  0  0  0  0
 23 22  1  0  0  0  0
 24 36  1  1  0  0  0
 25 28  1  6  0  0  0
 25 27  1  0  0  0  0
 26 25  1  0  0  0  0
 26 27  1  0  0  0  0
 27 24  1  1  0  0  0
 28 34  1  1  0  0  0
 29 30  1  6  0  0  0
 29 28  1  0  0  0  0
 31 33  1  6  0  0  0
 31 32  1  0  0  0  0
 31 29  1  0  0  0  0
 32 29  1  0  0  0  0
 34 35  1  0  0  0  0
 36 38  1  0  0  0  0
 38 37  1  0  0  0  0
M  END
>  <MODEL>
2

>  <REMARK>
 VINA RESULT:      -5.4      3.094      7.444
  Name = 
  11 active torsions:
  status: ('A' for Active; 'I' for Inactive)
    1  A    between atoms: C_1  and  N_31
    2  A    between atoms: C_3  and  C_24
    3  A    between atoms: C_7  and  C_24
    4  A    between atoms: O_11  and  C_22
    5  A    between atoms: O_11  and  C_29
    6  A    between atoms: C_12  and  C_24
    7  A    between atoms: C_14  and  C_26
    8  A    between atoms: N_17  and  C_26
    9  A    between atoms: N_17  and  C_38
   10  A    between atoms: C_23  and  C_26
   11  A    between atoms: C_33  and  C_34
                            x       y       z     vdW  Elec       q    Type
                         _______ _______ _______ _____ _____    ______ ____

>  <TORSDO>
F 11

$$$$
=
 OpenBabel11042422503D

 38 44  0  0  1  0  0  0  0  0999 V2000
  161.9240  208.4590  150.8300 C   0  0  2  0  0  3  0  0  0  0  0  0
  163.1310  207.1440  151.2000 S   0  0  0  0  0  0  0  0  0  0  0  0
  160.8820  207.0640  152.6370 C   0  0  2  0  0  3  0  0  0  0  0  0
  161.8430  206.2170  151.9600 N   0  0  0  0  0  0  0  0  0  0  0  0
  160.6900  208.2890  151.7330 C   0  0  1  0  0  3  0  0  0  0  0  0
  161.5060  204.8880  151.5270 C   0  0  0  0  0  0  0  0  0  0  0  0
  161.1670  203.2670  149.7550 C   0  0  0  0  0  0  0  0  0  0  0  0
  160.4350  200.5780  149.0130 C   0  0  0  0  0  2  0  0  0  0  0  0
  161.5050  204.5560  150.1670 C   0  0  0  0  0  3  0  0  0  0  0  0
  160.8210  202.3040  150.7270 C   0  0  0  0  0  0  0  0  0  0  0  0
  160.8310  201.6190  148.0090 C   0  0  0  0  0  0  0  0  0  0  0  0
  161.1540  203.9020  152.4570 C   0  0  0  0  0  3  0  0  0  0  0  0
  160.8570  201.3340  146.7840 O   0  0  0  0  0  0  0  0  0  0  0  0
  160.4970  201.0860  150.3910 N   0  0  0  0  0  0  0  0  0  0  0  0
  161.1800  202.9690  148.4570 C   0  0  0  0  0  3  0  0  0  0  0  0
  160.8280  202.6490  152.0430 N   0  0  0  0  0  0  0  0  0  0  0  0
  160.7480  210.7760  151.6480 C   0  0  0  0  0  2  0  0  0  0  0  0
  161.6620  210.3280  152.7660 C   0  0  0  0  0  2  0  0  0  0  0  0
  160.3780  209.5730  152.4950 C   0  0  0  0  0  3  0  0  0  0  0  0
  161.3930  207.4250  153.8890 O   0  0  0  0  0  0  0  0  0  0  0  0
  159.9800  208.1030  155.6700 C   0  0  0  0  0  2  0  0  0  0  0  0
  161.0010  207.1280  156.2090 C   0  0  0  0  0  2  0  0  0  0  0  0
  160.4560  206.9520  154.8080 C   0  0  0  0  0  3  0  0  0  0  0  0
  161.5650  208.4340  149.3400 C   0  0  2  0  0  3  0  0  0  0  0  0
  161.0870  206.9930  147.4100 C   0  0  1  0  0  3  0  0  0  0  0  0
  160.2840  206.6020  148.4970 O   0  0  0  0  0  0  0  0  0  0  0  0
  161.5940  207.0140  148.8000 C   0  0  2  0  0  3  0  0  0  0  0  0
  161.6070  205.7560  146.6800 C   0  0  1  0  0  3  0  0  0  0  0  0
  160.7020  205.4010  145.4810 C   0  0  2  0  0  0  0  0  0  0  0  0
  159.4180  206.2020  145.3020 C   0  0  0  0  0  1  0  0  0  0  0  0
  160.7870  203.9890  144.8910 C   0  0  2  0  0  3  0  0  0  0  0  0
  161.4380  205.1660  144.1770 C   0  0  0  0  0  2  0  0  0  0  0  0
  159.5350  203.5720  144.1350 C   0  0  0  0  0  1  0  0  0  0  0  0
  163.0800  205.9360  146.3050 C   0  0  0  0  0  2  0  0  0  0  0  0
  163.8240  204.6160  146.3870 C   0  0  0  0  0  1  0  0  0  0  0  0
  162.4670  209.2780  148.5670 N   0  0  0  0  0  2  0  0  0  0  0  0
  162.9310  211.5270  148.1800 O   0  0  0  0  0  1  0  0  0  0  0  0
  161.9560  210.6380  148.6330 C   0  0  0  0  0  2  0  0  0  0  0  0
  1 24  1  6  0  0  0
  1  2  1  0  0  0  0
  1  5  1  0  0  0  0
  2  4  1  0  0  0  0
  3 20  1  1  0  0  0
  4  3  1  0  0  0  0
  5 19  1  1  0  0  0
  5  3  1  0  0  0  0
  6  4  1  0  0  0  0
  6 12  1  0  0  0  0
  7  9  1  0  0  0  0
  7 10  1  0  0  0  0
  8 14  1  0  0  0  0
  9  6  2  0  0  0  0
 10 16  1  0  0  0  0
 11 15  1  0  0  0  0
 11  8  1  0  0  0  0
 13 11  2  0  0  0  0
 14 10  2  0  0  0  0
 15  7  2  0  0  0  0
 16 12  2  0  0  0  0
 17 19  1  0  0  0  0
 17 18  1  0  0  0  0
 19 18  1  0  0  0  0
 20 23  1  0  0  0  0
 21 22  1  0  0  0  0
 23 21  1  0  0  0  0
 23 22  1  0  0  0  0
 24 36  1  6  0  0  0
 25 28  1  6  0  0  0
 25 26  1  0  0  0  0
 25 27  1  0  0  0  0
 26 27  1  0  0  0  0
 27 24  1  1  0  0  0
 28 34  1  6  0  0  0
 29 30  1  6  0  0  0
 29 28  1  0  0  0  0
 31 33  1  6  0  0  0
 31 29  1  0  0  0  0
 32 31  1  0  0  0  0
 32 29  1  0  0  0  0
 34 35  1  0  0  0  0
 36 38  1  0  0  0  0
 37 38  1  0  0  0  0
M  END
>  <MODEL>
3

>  <REMARK>
 VINA RESULT:      -5.3      2.945      5.118
  Name = 
  11 active torsions:
  status: ('A' for Active; 'I' for Inactive)
    1  A    between atoms: C_1  and  N_31
    2  A    between atoms: C_3  and  C_24
    3  A    between atoms: C_7  and  C_24
    4  A    between atoms: O_11  and  C_22
    5  A    between atoms: O_11  and  C_29
    6  A    between atoms: C_12  and  C_24
    7  A    between atoms: C_14  and  C_26
    8  A    between atoms: N_17  and  C_26
    9  A    between atoms: N_17  and  C_38
   10  A    between atoms: C_23  and  C_26
   11  A    between atoms: C_33  and  C_34
                            x       y       z     vdW  Elec       q    Type
                         _______ _______ _______ _____ _____    ______ ____

>  <TORSDO>
F 11

$$$$
=
 OpenBabel11042422503D

 38 44  0  0  1  0  0  0  0  0999 V2000
  160.9780  211.3340  152.0550 C   0  0  2  0  0  3  0  0  0  0  0  0
  162.5000  210.3650  151.7970 S   0  0  0  0  0  0  0  0  0  0  0  0
  160.5850  209.1300  153.1870 C   0  0  2  0  0  3  0  0  0  0  0  0
  161.5980  208.9030  152.1760 N   0  0  0  0  0  0  0  0  0  0  0  0
  159.9740  210.5020  152.8720 C   0  0  1  0  0  3  0  0  0  0  0  0
  161.5150  207.8010  151.2580 C   0  0  0  0  0  0  0  0  0  0  0  0
  161.7650  206.8910  149.0230 C   0  0  0  0  0  0  0  0  0  0  0  0
  161.5190  204.6120  147.2730 C   0  0  0  0  0  2  0  0  0  0  0  0
  161.8580  207.9630  149.9110 C   0  0  0  0  0  3  0  0  0  0  0  0
  161.3160  205.6410  149.5020 C   0  0  0  0  0  0  0  0  0  0  0  0
  162.0160  205.9460  146.8040 C   0  0  0  0  0  0  0  0  0  0  0  0
  161.0720  206.5440  151.6880 C   0  0  0  0  0  3  0  0  0  0  0  0
  162.3490  206.1080  145.6020 O   0  0  0  0  0  0  0  0  0  0  0  0
  161.2110  204.6100  148.7100 N   0  0  0  0  0  0  0  0  0  0  0  0
  162.1050  207.0640  147.7470 C   0  0  0  0  0  3  0  0  0  0  0  0
  160.9870  205.5060  150.8140 N   0  0  0  0  0  0  0  0  0  0  0  0
  158.1180  211.8420  153.8480 C   0  0  0  0  0  2  0  0  0  0  0  0
  159.3400  212.7290  153.7690 C   0  0  0  0  0  2  0  0  0  0  0  0
  159.4960  211.2610  154.1050 C   0  0  0  0  0  3  0  0  0  0  0  0
  161.1880  209.1140  154.4510 O   0  0  0  0  0  0  0  0  0  0  0  0
  160.1820  208.4410  156.4900 C   0  0  0  0  0  2  0  0  0  0  0  0
  161.4680  207.6680  156.3090 C   0  0  0  0  0  2  0  0  0  0  0  0
  160.6220  208.0190  155.1040 C   0  0  0  0  0  3  0  0  0  0  0  0
  160.4060  211.7780  150.7040 C   0  0  2  0  0  3  0  0  0  0  0  0
  160.9300  212.2560  148.3530 C   0  0  1  0  0  3  0  0  0  0  0  0
  161.3780  210.9630  148.6800 O   0  0  0  0  0  0  0  0  0  0  0  0
  161.5130  211.9450  149.6770 C   0  0  2  0  0  3  0  0  0  0  0  0
  161.9630  212.9550  147.4740 C   0  0  1  0  0  3  0  0  0  0  0  0
  161.5010  212.9960  146.0010 C   0  0  2  0  0  0  0  0  0  0  0  0
  160.1820  212.3150  145.6550 C   0  0  0  0  0  1  0  0  0  0  0  0
  162.5570  213.1730  144.9050 C   0  0  2  0  0  3  0  0  0  0  0  0
  161.6680  214.3380  145.3190 C   0  0  0  0  0  2  0  0  0  0  0  0
  162.1120  212.6580  143.5450 C   0  0  0  0  0  1  0  0  0  0  0  0
  162.3090  214.3320  148.0460 C   0  0  0  0  0  2  0  0  0  0  0  0
  163.7950  214.4430  148.3280 C   0  0  0  0  0  1  0  0  0  0  0  0
  159.6560  213.0210  150.8330 N   0  0  0  0  0  2  0  0  0  0  0  0
  157.5820  213.9620  150.3460 O   0  0  0  0  0  1  0  0  0  0  0  0
  158.3160  212.7760  150.3230 C   0  0  0  0  0  2  0  0  0  0  0  0
  1 24  1  6  0  0  0
  1  5  1  0  0  0  0
  2  1  1  0  0  0  0
  2  4  1  0  0  0  0
  3 20  1  1  0  0  0
  4  3  1  0  0  0  0
  5  3  1  0  0  0  0
  5 19  1  1  0  0  0
  6 12  1  0  0  0  0
  6  4  1  0  0  0  0
  7 10  1  0  0  0  0
  7  9  1  0  0  0  0
  8 14  1  0  0  0  0
  9  6  2  0  0  0  0
 10 16  1  0  0  0  0
 11  8  1  0  0  0  0
 11 15  1  0  0  0  0
 13 11  2  0  0  0  0
 14 10  2  0  0  0  0
 15  7  2  0  0  0  0
 16 12  2  0  0  0  0
 17 19  1  0  0  0  0
 18 17  1  0  0  0  0
 18 19  1  0  0  0  0
 20 23  1  0  0  0  0
 22 21  1  0  0  0  0
 23 22  1  0  0  0  0
 23 21  1  0  0  0  0
 24 36  1  1  0  0  0
 25 28  1  6  0  0  0
 25 26  1  0  0  0  0
 25 27  1  0  0  0  0
 26 27  1  0  0  0  0
 27 24  1  1  0  0  0
 28 34  1  1  0  0  0
 29 30  1  6  0  0  0
 29 28  1  0  0  0  0
 31 33  1  6  0  0  0
 31 32  1  0  0  0  0
 31 29  1  0  0  0  0
 32 29  1  0  0  0  0
 34 35  1  0  0  0  0
 38 37  1  0  0  0  0
 38 36  1  0  0  0  0
M  END
>  <MODEL>
4

>  <REMARK>
 VINA RESULT:      -5.3      1.329      1.728
  Name = 
  11 active torsions:
  status: ('A' for Active; 'I' for Inactive)
    1  A    between atoms: C_1  and  N_31
    2  A    between atoms: C_3  and  C_24
    3  A    between atoms: C_7  and  C_24
    4  A    between atoms: O_11  and  C_22
    5  A    between atoms: O_11  and  C_29
    6  A    between atoms: C_12  and  C_24
    7  A    between atoms: C_14  and  C_26
    8  A    between atoms: N_17  and  C_26
    9  A    between atoms: N_17  and  C_38
   10  A    between atoms: C_23  and  C_26
   11  A    between atoms: C_33  and  C_34
                            x       y       z     vdW  Elec       q    Type
                         _______ _______ _______ _____ _____    ______ ____

>  <TORSDO>
F 11

$$$$
=
 OpenBabel11042422503D

 38 44  0  0  1  0  0  0  0  0999 V2000
  161.9430  211.0850  151.4150 C   0  0  2  0  0  3  0  0  0  0  0  0
  162.9690  209.9790  152.4370 S   0  0  0  0  0  0  0  0  0  0  0  0
  160.3600  209.9550  153.0000 C   0  0  2  0  0  3  0  0  0  0  0  0
  161.5170  209.0910  152.8810 N   0  0  0  0  0  0  0  0  0  0  0  0
  160.4730  210.9700  151.8550 C   0  0  1  0  0  3  0  0  0  0  0  0
  161.3850  207.6800  152.6400 C   0  0  0  0  0  0  0  0  0  0  0  0
  161.1430  205.8130  151.1110 C   0  0  0  0  0  0  0  0  0  0  0  0
  160.8450  202.9660  150.7630 C   0  0  0  0  0  2  0  0  0  0  0  0
  161.2820  207.1820  151.3360 C   0  0  0  0  0  3  0  0  0  0  0  0
  161.1060  204.9360  152.2170 C   0  0  0  0  0  0  0  0  0  0  0  0
  160.9140  203.9220  149.6110 C   0  0  0  0  0  0  0  0  0  0  0  0
  161.3400  206.7750  153.7070 C   0  0  0  0  0  3  0  0  0  0  0  0
  160.8440  203.4930  148.4310 O   0  0  0  0  0  0  0  0  0  0  0  0
  160.9770  203.6480  152.0580 N   0  0  0  0  0  0  0  0  0  0  0  0
  161.0560  205.3590  149.8620 C   0  0  0  0  0  3  0  0  0  0  0  0
  161.2060  205.4410  153.4760 N   0  0  0  0  0  0  0  0  0  0  0  0
  158.6400  212.5760  151.3460 C   0  0  0  0  0  2  0  0  0  0  0  0
  159.9490  213.2280  150.9610 C   0  0  0  0  0  2  0  0  0  0  0  0
  159.8820  212.3370  152.1840 C   0  0  0  0  0  3  0  0  0  0  0  0
  160.3850  210.5850  154.2500 O   0  0  0  0  0  0  0  0  0  0  0  0
  159.3130  210.5810  156.3650 C   0  0  0  0  0  2  0  0  0  0  0  0
  159.9220  209.2170  156.1310 C   0  0  0  0  0  2  0  0  0  0  0  0
  159.3440  209.9960  154.9680 C   0  0  0  0  0  3  0  0  0  0  0  0
  162.1360  210.7550  149.9310 C   0  0  2  0  0  3  0  0  0  0  0  0
  161.3340  211.6510  147.7900 C   0  0  1  0  0  3  0  0  0  0  0  0
  162.7230  211.8500  147.8900 O   0  0  0  0  0  0  0  0  0  0  0  0
  161.9800  212.0000  149.0740 C   0  0  2  0  0  3  0  0  0  0  0  0
  160.6770  212.8860  147.1790 C   0  0  1  0  0  3  0  0  0  0  0  0
  160.9400  212.9580  145.6590 C   0  0  2  0  0  0  0  0  0  0  0  0
  160.1060  212.0600  144.7540 C   0  0  0  0  0  1  0  0  0  0  0  0
  162.3140  213.4330  145.1740 C   0  0  2  0  0  3  0  0  0  0  0  0
  161.1070  214.3600  145.1080 C   0  0  0  0  0  2  0  0  0  0  0  0
  162.6600  212.9570  143.7720 C   0  0  0  0  0  1  0  0  0  0  0  0
  159.1930  212.9410  147.5470 C   0  0  0  0  0  2  0  0  0  0  0  0
  158.7340  214.3750  147.7310 C   0  0  0  0  0  1  0  0  0  0  0  0
  161.1980  209.7290  149.4930 N   0  0  0  0  0  2  0  0  0  0  0  0
  161.2070  208.0390  147.8910 O   0  0  0  0  0  1  0  0  0  0  0  0
  161.9730  208.6650  148.8750 C   0  0  0  0  0  2  0  0  0  0  0  0
  1 24  1  6  0  0  0
  1  5  1  0  0  0  0
  1  2  1  0  0  0  0
  2  4  1  0  0  0  0
  3 20  1  1  0  0  0
  4  3  1  0  0  0  0
  5 19  1  1  0  0  0
  5  3  1  0  0  0  0
  6  4  1  0  0  0  0
  6 12  1  0  0  0  0
  7  9  1  0  0  0  0
  7 10  1  0  0  0  0
  8 14  1  0  0  0  0
  9  6  2  0  0  0  0
 10 16  1  0  0  0  0
 11 15  1  0  0  0  0
 11  8  1  0  0  0  0
 13 11  2  0  0  0  0
 14 10  2  0  0  0  0
 15  7  2  0  0  0  0
 16 12  2  0  0  0  0
 17 19  1  0  0  0  0
 18 17  1  0  0  0  0
 18 19  1  0  0  0  0
 20 23  1  0  0  0  0
 22 21  1  0  0  0  0
 23 22  1  0  0  0  0
 23 21  1  0  0  0  0
 24 36  1  6  0  0  0
 25 28  1  6  0  0  0
 25 26  1  0  0  0  0
 25 27  1  0  0  0  0
 26 27  1  0  0  0  0
 27 24  1  1  0  0  0
 28 34  1  6  0  0  0
 29 30  1  6  0  0  0
 29 28  1  0  0  0  0
 31 33  1  6  0  0  0
 31 29  1  0  0  0  0
 32 31  1  0  0  0  0
 32 29  1  0  0  0  0
 34 35  1  0  0  0  0
 37 38  1  0  0  0  0
 38 36  1  0  0  0  0
M  END
>  <MODEL>
5

>  <REMARK>
 VINA RESULT:      -5.1      1.948      2.825
  Name = 
  11 active torsions:
  status: ('A' for Active; 'I' for Inactive)
    1  A    between atoms: C_1  and  N_31
    2  A    between atoms: C_3  and  C_24
    3  A    between atoms: C_7  and  C_24
    4  A    between atoms: O_11  and  C_22
    5  A    between atoms: O_11  and  C_29
    6  A    between atoms: C_12  and  C_24
    7  A    between atoms: C_14  and  C_26
    8  A    between atoms: N_17  and  C_26
    9  A    between atoms: N_17  and  C_38
   10  A    between atoms: C_23  and  C_26
   11  A    between atoms: C_33  and  C_34
                            x       y       z     vdW  Elec       q    Type
                         _______ _______ _______ _____ _____    ______ ____

>  <TORSDO>
F 11

$$$$
=
 OpenBabel11042422503D

 38 44  0  0  1  0  0  0  0  0999 V2000
  161.9930  208.2460  152.4340 C   0  0  2  0  0  3  0  0  0  0  0  0
  163.2000  207.4540  151.3220 S   0  0  0  0  0  0  0  0  0  0  0  0
  161.0240  206.0040  151.8600 C   0  0  2  0  0  3  0  0  0  0  0  0
  161.9390  206.3470  150.7910 N   0  0  0  0  0  0  0  0  0  0  0  0
  160.8030  207.2960  152.6580 C   0  0  1  0  0  3  0  0  0  0  0  0
  161.5630  206.2290  149.4080 C   0  0  0  0  0  0  0  0  0  0  0  0
  161.2080  204.8790  147.4250 C   0  0  0  0  0  0  0  0  0  0  0  0
  160.4710  204.7810  144.6390 C   0  0  0  0  0  2  0  0  0  0  0  0
  161.5630  204.9840  148.7700 C   0  0  0  0  0  3  0  0  0  0  0  0
  160.8510  206.0470  146.7160 C   0  0  0  0  0  0  0  0  0  0  0  0
  160.8310  203.5580  145.4270 C   0  0  0  0  0  0  0  0  0  0  0  0
  161.2060  207.3620  148.6660 C   0  0  0  0  0  3  0  0  0  0  0  0
  160.8170  202.4270  144.8780 O   0  0  0  0  0  0  0  0  0  0  0  0
  160.5130  206.0000  145.4580 N   0  0  0  0  0  0  0  0  0  0  0  0
  161.2060  203.6830  146.8380 C   0  0  0  0  0  3  0  0  0  0  0  0
  160.8590  207.2470  147.3560 N   0  0  0  0  0  0  0  0  0  0  0  0
  160.1350  208.3710  154.8010 C   0  0  0  0  0  2  0  0  0  0  0  0
  161.5480  207.8570  154.9600 C   0  0  0  0  0  2  0  0  0  0  0  0
  160.5460  207.0670  154.1430 C   0  0  0  0  0  3  0  0  0  0  0  0
  161.6010  205.0040  152.6520 O   0  0  0  0  0  0  0  0  0  0  0  0
  161.3840  202.7320  152.0080 C   0  0  0  0  0  2  0  0  0  0  0  0
  160.4520  203.5660  151.1580 C   0  0  0  0  0  2  0  0  0  0  0  0
  160.6970  203.9430  152.6040 C   0  0  0  0  0  3  0  0  0  0  0  0
  161.5610  209.5990  151.8580 C   0  0  2  0  0  3  0  0  0  0  0  0
  160.0810  211.4800  152.4090 C   0  0  1  0  0  3  0  0  0  0  0  0
  160.3620  210.7480  153.5770 O   0  0  0  0  0  0  0  0  0  0  0  0
  160.1980  210.0050  152.3940 C   0  0  2  0  0  3  0  0  0  0  0  0
  158.6110  211.8910  152.3970 C   0  0  1  0  0  3  0  0  0  0  0  0
  158.1560  212.3580  153.7970 C   0  0  2  0  0  0  0  0  0  0  0  0
  159.0170  213.3920  154.5120 C   0  0  0  0  0  1  0  0  0  0  0  0
  157.2670  211.4270  154.6280 C   0  0  2  0  0  3  0  0  0  0  0  0
  156.6720  212.6380  153.9230 C   0  0  0  0  0  2  0  0  0  0  0  0
  157.3350  211.6980  156.1230 C   0  0  0  0  0  1  0  0  0  0  0  0
  158.3510  212.9200  151.2940 C   0  0  0  0  0  2  0  0  0  0  0  0
  159.6290  213.6470  150.9210 C   0  0  0  0  0  1  0  0  0  0  0  0
  161.5330  209.5670  150.4010 N   0  0  0  0  0  2  0  0  0  0  0  0
  161.9540  210.9980  148.6140 O   0  0  0  0  0  1  0  0  0  0  0  0
  162.3190  210.6940  149.9250 C   0  0  0  0  0  2  0  0  0  0  0  0
  1 24  1  6  0  0  0
  1  5  1  0  0  0  0
  2  1  1  0  0  0  0
  3 20  1  1  0  0  0
  3  5  1  0  0  0  0
  4  2  1  0  0  0  0
  4  3  1  0  0  0  0
  5 19  1  1  0  0  0
  6  4  1  0  0  0  0
  7  9  1  0  0  0  0
  8 11  1  0  0  0  0
  8 14  1  0  0  0  0
  9  6  2  0  0  0  0
 10 16  1  0  0  0  0
 10  7  1  0  0  0  0
 11 15  1  0  0  0  0
 12  6  1  0  0  0  0
 13 11  2  0  0  0  0
 14 10  2  0  0  0  0
 15  7  2  0  0  0  0
 16 12  2  0  0  0  0
 17 18  1  0  0  0  0
 19 17  1  0  0  0  0
 19 18  1  0  0  0  0
 21 23  1  0  0  0  0
 22 21  1  0  0  0  0
 22 23  1  0  0  0  0
 23 20  1  0  0  0  0
 24 36  1  6  0  0  0
 25 28  1  1  0  0  0
 25 26  1  0  0  0  0
 27 24  1  6  0  0  0
 27 25  1  0  0  0  0
 27 26  1  0  0  0  0
 28 34  1  6  0  0  0
 28 29  1  0  0  0  0
 29 32  1  0  0  0  0
 29 30  1  1  0  0  0
 29 31  1  0  0  0  0
 31 33  1  1  0  0  0
 32 31  1  0  0  0  0
 35 34  1  0  0  0  0
 37 38  1  0  0  0  0
 38 36  1  0  0  0  0
M  END
>  <MODEL>
6

>  <REMARK>
 VINA RESULT:      -4.7      2.976      5.532
  Name = 
  11 active torsions:
  status: ('A' for Active; 'I' for Inactive)
    1  A    between atoms: C_1  and  N_31
    2  A    between atoms: C_3  and  C_24
    3  A    between atoms: C_7  and  C_24
    4  A    between atoms: O_11  and  C_22
    5  A    between atoms: O_11  and  C_29
    6  A    between atoms: C_12  and  C_24
    7  A    between atoms: C_14  and  C_26
    8  A    between atoms: N_17  and  C_26
    9  A    between atoms: N_17  and  C_38
   10  A    between atoms: C_23  and  C_26
   11  A    between atoms: C_33  and  C_34
                            x       y       z     vdW  Elec       q    Type
                         _______ _______ _______ _____ _____    ______ ____

>  <TORSDO>
F 11

$$$$
=
 OpenBabel11042422503D

 38 44  0  0  1  0  0  0  0  0999 V2000
  162.2920  209.0340  151.2940 C   0  0  2  0  0  3  0  0  0  0  0  0
  163.2980  207.5510  151.6290 S   0  0  0  0  0  0  0  0  0  0  0  0
  160.8730  207.5600  152.7450 C   0  0  2  0  0  3  0  0  0  0  0  0
  161.8290  206.6950  152.0850 N   0  0  0  0  0  0  0  0  0  0  0  0
  160.9330  208.9010  152.0020 C   0  0  1  0  0  3  0  0  0  0  0  0
  161.4250  205.4790  151.4340 C   0  0  0  0  0  0  0  0  0  0  0  0
  161.2150  204.1240  149.4340 C   0  0  0  0  0  0  0  0  0  0  0  0
  160.3250  201.6530  148.2410 C   0  0  0  0  0  2  0  0  0  0  0  0
  161.6190  205.3030  150.0590 C   0  0  0  0  0  3  0  0  0  0  0  0
  160.6030  203.1120  150.2050 C   0  0  0  0  0  0  0  0  0  0  0  0
  161.0010  202.7380  147.4560 C   0  0  0  0  0  0  0  0  0  0  0  0
  160.8120  204.4510  152.1600 C   0  0  0  0  0  3  0  0  0  0  0  0
  161.2030  202.5910  146.2230 O   0  0  0  0  0  0  0  0  0  0  0  0
  160.2070  201.9930  149.6650 N   0  0  0  0  0  0  0  0  0  0  0  0
  161.4170  203.9720  148.1260 C   0  0  0  0  0  3  0  0  0  0  0  0
  160.4230  203.3050  151.5400 N   0  0  0  0  0  0  0  0  0  0  0  0
  159.1700  210.4520  152.8280 C   0  0  0  0  0  2  0  0  0  0  0  0
  160.1680  211.2640  152.0330 C   0  0  0  0  0  2  0  0  0  0  0  0
  160.6470  210.1090  152.8880 C   0  0  0  0  0  3  0  0  0  0  0  0
  161.2360  207.7010  154.0900 O   0  0  0  0  0  0  0  0  0  0  0  0
  159.5130  207.7330  155.7210 C   0  0  0  0  0  2  0  0  0  0  0  0
  160.6780  206.9380  156.2650 C   0  0  0  0  0  2  0  0  0  0  0  0
  160.3490  206.8810  154.7880 C   0  0  0  0  0  3  0  0  0  0  0  0
  162.1460  209.2350  149.7820 C   0  0  2  0  0  3  0  0  0  0  0  0
  161.6130  210.9420  148.0990 C   0  0  1  0  0  3  0  0  0  0  0  0
  163.0080  210.8580  148.2550 O   0  0  0  0  0  0  0  0  0  0  0  0
  162.2360  210.7080  149.4200 C   0  0  2  0  0  3  0  0  0  0  0  0
  161.1940  212.4050  147.9670 C   0  0  1  0  0  3  0  0  0  0  0  0
  161.2380  212.8620  146.4930 C   0  0  2  0  0  0  0  0  0  0  0  0
  160.2490  212.2220  145.5250 C   0  0  0  0  0  1  0  0  0  0  0  0
  162.5430  213.4470  145.9450 C   0  0  2  0  0  3  0  0  0  0  0  0
  161.3740  214.3580  146.2950 C   0  0  0  0  0  2  0  0  0  0  0  0
  162.6660  213.3450  144.4320 C   0  0  0  0  0  1  0  0  0  0  0  0
  159.8400  212.6370  148.6410 C   0  0  0  0  0  2  0  0  0  0  0  0
  159.8760  213.8760  149.5150 C   0  0  0  0  0  1  0  0  0  0  0  0
  160.8900  208.6790  149.2950 N   0  0  0  0  0  2  0  0  0  0  0  0
  162.5890  207.6650  148.0680 O   0  0  0  0  0  1  0  0  0  0  0  0
  161.2160  207.6560  148.3140 C   0  0  0  0  0  2  0  0  0  0  0  0
  1 24  1  6  0  0  0
  1  2  1  0  0  0  0
  1  5  1  0  0  0  0
  2  4  1  0  0  0  0
  3 20  1  1  0  0  0
  4  3  1  0  0  0  0
  5  3  1  0  0  0  0
  5 19  1  1  0  0  0
  6  4  1  0  0  0  0
  6 12  1  0  0  0  0
  7  9  1  0  0  0  0
  7 10  1  0  0  0  0
  8 14  1  0  0  0  0
  9  6  2  0  0  0  0
 10 16  1  0  0  0  0
 11 15  1  0  0  0  0
 11  8  1  0  0  0  0
 13 11  2  0  0  0  0
 14 10  2  0  0  0  0
 15  7  2  0  0  0  0
 16 12  2  0  0  0  0
 17 19  1  0  0  0  0
 18 17  1  0  0  0  0
 18 19  1  0  0  0  0
 20 23  1  0  0  0  0
 21 22  1  0  0  0  0
 23 21  1  0  0  0  0
 23 22  1  0  0  0  0
 24 36  1  1  0  0  0
 25 28  1  1  0  0  0
 25 26  1  0  0  0  0
 25 27  1  0  0  0  0
 26 27  1  0  0  0  0
 27 24  1  6  0  0  0
 28 34  1  6  0  0  0
 29 30  1  6  0  0  0
 29 28  1  0  0  0  0
 31 33  1  6  0  0  0
 31 32  1  0  0  0  0
 31 29  1  0  0  0  0
 32 29  1  0  0  0  0
 34 35  1  0  0  0  0
 37 38  1  0  0  0  0
 38 36  1  0  0  0  0
M  END
>  <MODEL>
7

>  <REMARK>
 VINA RESULT:      -4.7      2.082      3.018
  Name = 
  11 active torsions:
  status: ('A' for Active; 'I' for Inactive)
    1  A    between atoms: C_1  and  N_31
    2  A    between atoms: C_3  and  C_24
    3  A    between atoms: C_7  and  C_24
    4  A    between atoms: O_11  and  C_22
    5  A    between atoms: O_11  and  C_29
    6  A    between atoms: C_12  and  C_24
    7  A    between atoms: C_14  and  C_26
    8  A    between atoms: N_17  and  C_26
    9  A    between atoms: N_17  and  C_38
   10  A    between atoms: C_23  and  C_26
   11  A    between atoms: C_33  and  C_34
                            x       y       z     vdW  Elec       q    Type
                         _______ _______ _______ _____ _____    ______ ____

>  <TORSDO>
F 11

$$$$
=
 OpenBabel11042422503D

 38 44  0  0  1  0  0  0  0  0999 V2000
  161.6320  208.4950  152.1490 C   0  0  2  0  0  3  0  0  0  0  0  0
  162.9410  208.1210  150.9370 S   0  0  0  0  0  0  0  0  0  0  0  0
  161.3580  206.0680  151.5760 C   0  0  2  0  0  3  0  0  0  0  0  0
  162.0450  206.6840  150.4580 N   0  0  0  0  0  0  0  0  0  0  0  0
  160.8090  207.2240  152.4220 C   0  0  1  0  0  3  0  0  0  0  0  0
  161.6270  206.4660  149.1010 C   0  0  0  0  0  0  0  0  0  0  0  0
  161.2220  204.9770  147.2290 C   0  0  0  0  0  0  0  0  0  0  0  0
  160.3970  204.6770  144.4820 C   0  0  0  0  0  2  0  0  0  0  0  0
  161.6200  205.1790  148.5510 C   0  0  0  0  0  3  0  0  0  0  0  0
  160.8300  206.0890  146.4530 C   0  0  0  0  0  0  0  0  0  0  0  0
  160.7950  203.5160  145.3420 C   0  0  0  0  0  0  0  0  0  0  0  0
  161.2330  207.5400  148.2940 C   0  0  0  0  0  3  0  0  0  0  0  0
  160.7760  202.3490  144.8730 O   0  0  0  0  0  0  0  0  0  0  0  0
  160.4510  205.9510  145.2130 N   0  0  0  0  0  0  0  0  0  0  0  0
  161.2140  203.7430  146.7280 C   0  0  0  0  0  3  0  0  0  0  0  0
  160.8450  207.3310  147.0070 N   0  0  0  0  0  0  0  0  0  0  0  0
  159.9350  207.9880  154.6240 C   0  0  0  0  0  2  0  0  0  0  0  0
  161.4460  208.0090  154.6910 C   0  0  0  0  0  2  0  0  0  0  0  0
  160.7410  206.9160  153.9140 C   0  0  0  0  0  3  0  0  0  0  0  0
  162.2680  205.2880  152.2990 O   0  0  0  0  0  0  0  0  0  0  0  0
  161.8870  203.0440  151.6350 C   0  0  0  0  0  2  0  0  0  0  0  0
  160.5870  203.8070  151.5240 C   0  0  0  0  0  2  0  0  0  0  0  0
  161.5620  204.1330  152.6350 C   0  0  0  0  0  3  0  0  0  0  0  0
  160.7670  209.6540  151.6410 C   0  0  2  0  0  3  0  0  0  0  0  0
  160.9230  211.3000  149.8260 C   0  0  1  0  0  3  0  0  0  0  0  0
  161.9460  210.3450  149.6820 O   0  0  0  0  0  0  0  0  0  0  0  0
  161.6250  210.7290  150.9960 C   0  0  2  0  0  3  0  0  0  0  0  0
  161.4680  212.6920  149.5140 C   0  0  1  0  0  3  0  0  0  0  0  0
  161.4220  212.9770  147.9970 C   0  0  2  0  0  0  0  0  0  0  0  0
  160.4010  212.2110  147.1640 C   0  0  0  0  0  1  0  0  0  0  0  0
  162.6800  213.5230  147.3150 C   0  0  2  0  0  3  0  0  0  0  0  0
  161.5070  214.4430  147.6230 C   0  0  0  0  0  2  0  0  0  0  0  0
  162.7260  213.2500  145.8190 C   0  0  0  0  0  1  0  0  0  0  0  0
  160.7510  213.7480  150.3580 C   0  0  0  0  0  2  0  0  0  0  0  0
  159.2820  213.4040  150.5230 C   0  0  0  0  0  1  0  0  0  0  0  0
  159.9740  210.2320  152.7200 N   0  0  0  0  0  2  0  0  0  0  0  0
  159.9350  212.3150  153.7590 O   0  0  0  0  0  1  0  0  0  0  0  0
  160.7710  211.2850  153.3300 C   0  0  0  0  0  2  0  0  0  0  0  0
  1 24  1  6  0  0  0
  1  5  1  0  0  0  0
  2  1  1  0  0  0  0
  3 20  1  1  0  0  0
  3  5  1  0  0  0  0
  4  2  1  0  0  0  0
  4  3  1  0  0  0  0
  5 19  1  1  0  0  0
  6  4  1  0  0  0  0
  7  9  1  0  0  0  0
  8 14  1  0  0  0  0
  8 11  1  0  0  0  0
  9  6  2  0  0  0  0
 10 16  1  0  0  0  0
 10  7  1  0  0  0  0
 11 15  1  0  0  0  0
 12  6  1  0  0  0  0
 13 11  2  0  0  0  0
 14 10  2  0  0  0  0
 15  7  2  0  0  0  0
 16 12  2  0  0  0  0
 17 18  1  0  0  0  0
 19 17  1  0  0  0  0
 19 18  1  0  0  0  0
 20 23  1  0  0  0  0
 21 23  1  0  0  0  0
 22 21  1  0  0  0  0
 22 23  1  0  0  0  0
 24 36  1  1  0  0  0
 25 28  1  6  0  0  0
 25 27  1  0  0  0  0
 26 25  1  0  0  0  0
 26 27  1  0  0  0  0
 27 24  1  1  0  0  0
 28 34  1  1  0  0  0
 29 30  1  6  0  0  0
 29 28  1  0  0  0  0
 31 33  1  6  0  0  0
 31 32  1  0  0  0  0
 31 29  1  0  0  0  0
 32 29  1  0  0  0  0
 34 35  1  0  0  0  0
 36 38  1  0  0  0  0
 38 37  1  0  0  0  0
M  END
>  <MODEL>
8

>  <REMARK>
 VINA RESULT:      -4.5      2.058      3.544
  Name = 
  11 active torsions:
  status: ('A' for Active; 'I' for Inactive)
    1  A    between atoms: C_1  and  N_31
    2  A    between atoms: C_3  and  C_24
    3  A    between atoms: C_7  and  C_24
    4  A    between atoms: O_11  and  C_22
    5  A    between atoms: O_11  and  C_29
    6  A    between atoms: C_12  and  C_24
    7  A    between atoms: C_14  and  C_26
    8  A    between atoms: N_17  and  C_26
    9  A    between atoms: N_17  and  C_38
   10  A    between atoms: C_23  and  C_26
   11  A    between atoms: C_33  and  C_34
                            x       y       z     vdW  Elec       q    Type
                         _______ _______ _______ _____ _____    ______ ____

>  <TORSDO>
F 11

$$$$
=
 OpenBabel11042422503D

 38 44  0  0  1  0  0  0  0  0999 V2000
  161.7120  206.5500  151.4880 C   0  0  2  0  0  3  0  0  0  0  0  0
  163.1380  207.5670  150.9840 S   0  0  0  0  0  0  0  0  0  0  0  0
  161.3180  207.1350  149.0800 C   0  0  2  0  0  3  0  0  0  0  0  0
  162.2000  208.1520  149.6160 N   0  0  0  0  0  0  0  0  0  0  0  0
  160.7570  206.3820  150.2930 C   0  0  1  0  0  3  0  0  0  0  0  0
  161.9540  209.5530  149.4060 C   0  0  0  0  0  0  0  0  0  0  0  0
  161.3500  211.3950  147.9490 C   0  0  0  0  0  0  0  0  0  0  0  0
  160.9220  214.2310  147.6490 C   0  0  0  0  0  2  0  0  0  0  0  0
  161.5770  210.0340  148.1470 C   0  0  0  0  0  3  0  0  0  0  0  0
  161.5090  212.2830  149.0360 C   0  0  0  0  0  0  0  0  0  0  0  0
  160.7380  213.2590  146.5240 C   0  0  0  0  0  0  0  0  0  0  0  0
  162.1030  210.4690  150.4550 C   0  0  0  0  0  3  0  0  0  0  0  0
  160.3800  213.6680  145.3900 O   0  0  0  0  0  0  0  0  0  0  0  0
  161.3090  213.5640  148.9000 N   0  0  0  0  0  0  0  0  0  0  0  0
  160.9830  211.8310  146.7450 C   0  0  0  0  0  3  0  0  0  0  0  0
  161.8770  211.7940  150.2510 N   0  0  0  0  0  0  0  0  0  0  0  0
  160.1230  204.2050  151.3210 C   0  0  0  0  0  2  0  0  0  0  0  0
  161.4970  204.0480  150.7100 C   0  0  0  0  0  2  0  0  0  0  0  0
  160.4600  204.9110  150.0210 C   0  0  0  0  0  3  0  0  0  0  0  0
  162.0530  206.2870  148.2430 O   0  0  0  0  0  0  0  0  0  0  0  0
  161.2360  204.9270  146.4800 C   0  0  0  0  0  2  0  0  0  0  0  0
  162.3200  205.8260  145.9330 C   0  0  0  0  0  2  0  0  0  0  0  0
  161.3930  206.3350  147.0160 C   0  0  0  0  0  3  0  0  0  0  0  0
  161.0230  207.1810  152.7030 C   0  0  2  0  0  3  0  0  0  0  0  0
  160.0550  209.3200  153.4210 C   0  0  1  0  0  3  0  0  0  0  0  0
  160.0810  209.2660  152.0160 O   0  0  0  0  0  0  0  0  0  0  0  0
  161.1750  208.6930  152.6860 C   0  0  2  0  0  3  0  0  0  0  0  0
  160.4520  210.7170  153.8930 C   0  0  1  0  0  3  0  0  0  0  0  0
  159.3050  211.7250  153.6670 C   0  0  2  0  0  0  0  0  0  0  0  0
  157.9030  211.3060  154.0930 C   0  0  0  0  0  1  0  0  0  0  0  0
  159.4640  212.7860  152.5730 C   0  0  2  0  0  3  0  0  0  0  0  0
  159.6320  213.1560  154.0410 C   0  0  0  0  0  2  0  0  0  0  0  0
  158.1410  213.3360  152.0640 C   0  0  0  0  0  1  0  0  0  0  0  0
  160.9530  210.6720  155.3380 C   0  0  0  0  0  2  0  0  0  0  0  0
  162.4690  210.7000  155.3870 C   0  0  0  0  0  1  0  0  0  0  0  0
  161.5530  206.6410  153.9490 N   0  0  0  0  0  2  0  0  0  0  0  0
  160.8220  207.2220  156.0820 O   0  0  0  0  0  1  0  0  0  0  0  0
  160.4540  206.5800  154.9000 C   0  0  0  0  0  2  0  0  0  0  0  0
  1 24  1  1  0  0  0
  2  1  1  0  0  0  0
  3 20  1  6  0  0  0
  3  4  1  0  0  0  0
  3  5  1  0  0  0  0
  4  2  1  0  0  0  0
  5 19  1  6  0  0  0
  5  1  1  0  0  0  0
  6  4  1  0  0  0  0
  6 12  1  0  0  0  0
  7  9  1  0  0  0  0
  7 10  1  0  0  0  0
  8 14  1  0  0  0  0
  9  6  2  0  0  0  0
 10 16  1  0  0  0  0
 11 15  1  0  0  0  0
 11  8  1  0  0  0  0
 13 11  2  0  0  0  0
 14 10  2  0  0  0  0
 15  7  2  0  0  0  0
 16 12  2  0  0  0  0
 18 17  1  0  0  0  0
 19 18  1  0  0  0  0
 19 17  1  0  0  0  0
 21 23  1  0  0  0  0
 22 21  1  0  0  0  0
 22 23  1  0  0  0  0
 23 20  1  0  0  0  0
 24 36  1  1  0  0  0
 25 28  1  6  0  0  0
 26 27  1  0  0  0  0
 26 25  1  0  0  0  0
 27 24  1  1  0  0  0
 27 25  1  0  0  0  0
 28 34  1  1  0  0  0
 29 28  1  0  0  0  0
 29 32  1  0  0  0  0
 29 30  1  1  0  0  0
 31 33  1  1  0  0  0
 31 29  1  0  0  0  0
 31 32  1  0  0  0  0
 34 35  1  0  0  0  0
 36 38  1  0  0  0  0
 38 37  1  0  0  0  0
M  END
>  <MODEL>
9

>  <REMARK>
 VINA RESULT:      -4.5      2.268      7.562
  Name = 
  11 active torsions:
  status: ('A' for Active; 'I' for Inactive)
    1  A    between atoms: C_1  and  N_31
    2  A    between atoms: C_3  and  C_24
    3  A    between atoms: C_7  and  C_24
    4  A    between atoms: O_11  and  C_22
    5  A    between atoms: O_11  and  C_29
    6  A    between atoms: C_12  and  C_24
    7  A    between atoms: C_14  and  C_26
    8  A    between atoms: N_17  and  C_26
    9  A    between atoms: N_17  and  C_38
   10  A    between atoms: C_23  and  C_26
   11  A    between atoms: C_33  and  C_34
                            x       y       z     vdW  Elec       q    Type
                         _______ _______ _______ _____ _____    ______ ____

>  <TORSDO>
F 11

$$$$
