=
 OpenBabel11042422173D

 52 56  0  0  1  0  0  0  0  0999 V2000
  157.8480  212.5330  150.9070 O   0  0  0  0  0  0  0  0  0  0  0  0
  158.3350  213.3510  153.0970 C   0  0  0  0  0  2  0  0  0  0  0  0
  162.2820  209.3700  148.7200 C   0  0  0  0  0  0  0  0  0  0  0  0
  161.1290  211.5510  148.3100 C   0  0  0  0  0  2  0  0  0  0  0  0
  159.9620  206.4870  151.7720 S   0  0  0  0  0  0  0  0  0  0  0  0
  161.1960  204.0430  152.5120 C   0  0  0  0  0  1  0  0  0  0  0  0
  160.9970  206.4250  149.1000 C   0  0  1  0  0  3  0  0  0  0  0  0
  160.9530  212.0430  149.7420 C   0  0  0  0  0  2  0  0  0  0  0  0
  161.1550  205.5180  152.7130 C   0  0  0  0  0  0  0  0  0  0  0  0
  160.8380  209.5730  154.5260 C   0  0  0  0  0  2  0  0  0  0  0  0
  159.4410  211.5920  154.1950 C   0  0  0  0  0  2  0  0  0  0  0  0
  159.8560  213.7140  151.1140 N   0  0  0  0  0  2  0  0  0  0  0  0
  161.1440  206.9450  150.5070 C   0  0  1  0  0  3  0  0  0  0  0  0
  162.0870  207.5440  153.8760 C   0  0  0  0  0  2  0  0  0  0  0  0
  162.0020  206.0720  153.6010 C   0  0  0  0  0  3  0  0  0  0  0  0
  162.4210  210.7530  148.1750 C   0  0  0  0  0  2  0  0  0  0  0  0
  159.4310  210.0780  154.2840 C   0  0  0  0  0  2  0  0  0  0  0  0
  162.1290  208.3760  147.8740 N   0  0  0  0  0  0  0  0  0  0  0  0
  157.3490  212.3170  154.9400 C   0  0  0  0  0  1  0  0  0  0  0  0
  162.1290  206.9220  148.1550 C   0  0  0  0  0  2  0  0  0  0  0  0
  158.6500  213.1630  151.6470 C   0  0  0  0  0  0  0  0  0  0  0  0
  161.7190  208.0980  150.5760 C   0  0  0  0  0  2  0  0  0  0  0  0
  162.2760  209.1910  150.1880 C   0  0  0  0  0  2  0  0  0  0  0  0
  158.1390  212.0650  153.7460 N   0  0  0  0  0  0  0  0  0  0  0  0
  160.3110  213.4190  149.7610 C   0  0  1  0  0  3  0  0  0  0  0  0
  160.8240  208.0580  154.5420 C   0  0  0  0  0  2  0  0  0  0  0  0
  160.9100  204.3090  148.0350 N   0  0  0  0  0  0  0  0  0  0  0  0
  161.0040  204.9690  149.1180 N   0  0  0  0  0  0  0  0  0  0  0  0
  160.8950  201.9580  146.5110 S   0  0  0  0  0  0  0  0  0  0  0  0
  160.9480  202.8830  148.0310 C   0  0  0  0  0  0  0  0  0  0  0  0
  161.2560  200.7710  148.9000 C   0  0  0  0  0  2  0  0  0  0  0  0
  161.6100  200.5630  147.4350 C   0  0  0  0  0  2  0  0  0  0  0  0
  161.1430  202.2010  149.1090 N   0  0  0  0  0  0  0  0  0  0  0  0
  161.3480  214.4470  149.3310 C   0  0  0  0  0  2  0  0  0  0  0  0
  162.2370  213.9050  148.2190 C   0  0  0  0  0  2  0  0  0  0  0  0
  161.6800  214.3210  146.8640 C   0  0  0  0  0  2  0  0  0  0  0  0
  162.4870  213.7280  145.7180 C   0  0  0  0  0  2  0  0  0  0  0  0
  162.1750  212.7890  143.3980 N   0  0  0  0  0  2  0  0  0  0  0  0
  162.2120  211.7210  141.1040 C   0  0  0  0  0  2  0  0  0  0  0  0
  159.1790  211.9780  138.3010 S   0  0  0  0  0  0  0  0  0  0  0  0
  161.4650  212.4580  142.1940 C   0  0  0  0  0  0  0  0  0  0  0  0
  160.3530  213.5080  144.6900 O   0  0  0  0  0  0  0  0  0  0  0  0
  161.5570  211.9040  139.7270 C   0  0  0  0  0  2  0  0  0  0  0  0
  158.3380  212.9790  140.6100 N   0  0  0  0  0  0  0  0  0  0  0  0
  160.0720  211.5730  139.8280 C   0  0  1  0  0  3  0  0  0  0  0  0
  157.7940  212.6430  139.3030 C   0  0  2  0  0  3  0  0  0  0  0  0
  161.6000  213.3630  144.5800 C   0  0  0  0  0  0  0  0  0  0  0  0
  159.4740  212.4350  140.8740 C   0  0  0  0  0  0  0  0  0  0  0  0
  160.2040  212.7650  142.0600 N   0  0  0  0  0  0  0  0  0  0  0  0
  157.2180  210.3170  139.3150 O   0  0  0  0  0  1  0  0  0  0  0  0
  156.6910  211.6010  139.4500 C   0  0  2  0  0  3  0  0  0  0  0  0
  155.6740  211.8140  138.4320 N   0  0  0  0  0  1  0  0  0  0  0  0
  1 21  2  0  0  0  0
  2 24  1  0  0  0  0
  3 23  1  0  0  0  0
  4  8  1  0  0  0  0
  5  9  1  0  0  0  0
  6  9  1  0  0  0  0
  7 28  1  1  0  0  0
  7 13  1  0  0  0  0
  8 25  1  0  0  0  0
  9 15  2  0  0  0  0
 10 26  1  0  0  0  0
 11 17  1  0  0  0  0
 12 21  1  0  0  0  0
 13 22  1  6  0  0  0
 13  5  1  0  0  0  0
 14 26  1  0  0  0  0
 15 14  1  0  0  0  0
 16  4  1  0  0  0  0
 16  3  1  0  0  0  0
 17 10  1  0  0  0  0
 18 20  1  0  0  0  0
 18  3  2  0  0  0  0
 20  7  1  0  0  0  0
 21  2  1  0  0  0  0
 23 22  1  0  0  0  0
 24 11  1  0  0  0  0
 24 19  1  0  0  0  0
 25 34  1  1  0  0  0
 25 12  1  0  0  0  0
 27 28  2  0  0  0  0
 29 32  1  0  0  0  0
 29 30  1  0  0  0  0
 30 27  1  0  0  0  0
 30 33  2  0  0  0  0
 31 33  1  0  0  0  0
 32 31  1  0  0  0  0
 35 34  1  0  0  0  0
 36 35  1  0  0  0  0
 37 36  1  0  0  0  0
 38 47  1  0  0  0  0
 39 41  1  0  0  0  0
 40 46  1  0  0  0  0
 40 45  1  0  0  0  0
 41 38  1  0  0  0  0
 43 39  1  0  0  0  0
 44 48  2  0  0  0  0
 45 43  1  6  0  0  0
 45 48  1  0  0  0  0
 46 51  1  1  0  0  0
 46 44  1  0  0  0  0
 47 42  2  0  0  0  0
 47 37  1  0  0  0  0
 48 49  1  0  0  0  0
 49 41  2  0  0  0  0
 50 51  1  0  0  0  0
 51 52  1  6  0  0  0
M  END
>  <MODEL>
1

>  <REMARK>
 VINA RESULT:      -5.2      0.000      0.000
  Name = 
  8 active torsions:
  status: ('A' for Active; 'I' for Inactive)
    1  A    between atoms: C_6  and  C_14
    2  A    between atoms: C_6  and  C_21
    3  A    between atoms: C_9  and  N_22
    4  A    between atoms: C_14  and  C_24
    5  A    between atoms: C_17  and  N_41
    6  A    between atoms: C_21  and  C_48
    7  A    between atoms: C_24  and  C_42
    8  A    between atoms: C_32  and  C_40
                            x       y       z     vdW  Elec       q    Type
                         _______ _______ _______ _____ _____    ______ ____

>  <TORSDO>
F 8

$$$$
=
 OpenBabel11042422173D

 52 56  0  0  1  0  0  0  0  0999 V2000
  158.3860  211.5060  151.6820 O   0  0  0  0  0  0  0  0  0  0  0  0
  159.2310  211.9240  153.8760 C   0  0  0  0  0  2  0  0  0  0  0  0
  162.1810  208.4320  148.4270 C   0  0  0  0  0  0  0  0  0  0  0  0
  161.1900  210.7260  148.5200 C   0  0  0  0  0  2  0  0  0  0  0  0
  160.0260  205.2660  151.3170 S   0  0  0  0  0  0  0  0  0  0  0  0
  161.1160  202.6530  151.4950 C   0  0  0  0  0  1  0  0  0  0  0  0
  160.6900  205.5630  148.5440 C   0  0  1  0  0  3  0  0  0  0  0  0
  161.2510  210.9920  150.0200 C   0  0  0  0  0  2  0  0  0  0  0  0
  161.2390  204.0760  151.9190 C   0  0  0  0  0  0  0  0  0  0  0  0
  161.5400  207.7970  154.3450 C   0  0  0  0  0  2  0  0  0  0  0  0
  160.3040  209.9370  154.5260 C   0  0  0  0  0  2  0  0  0  0  0  0
  160.5040  212.4930  151.7710 N   0  0  0  0  0  2  0  0  0  0  0  0
  161.0690  205.8370  149.9760 C   0  0  1  0  0  3  0  0  0  0  0  0
  162.4990  205.8160  153.2250 C   0  0  0  0  0  2  0  0  0  0  0  0
  162.2430  204.4180  152.7470 C   0  0  0  0  0  3  0  0  0  0  0  0
  162.3740  209.8710  148.0810 C   0  0  0  0  0  2  0  0  0  0  0  0
  160.1670  208.4330  154.3880 C   0  0  0  0  0  2  0  0  0  0  0  0
  161.8260  207.6010  147.4730 N   0  0  0  0  0  0  0  0  0  0  0  0
  158.4050  210.6790  155.6670 C   0  0  0  0  0  1  0  0  0  0  0  0
  161.7280  206.1240  147.5300 C   0  0  0  0  0  2  0  0  0  0  0  0
  159.3340  211.9510  152.3850 C   0  0  0  0  0  0  0  0  0  0  0  0
  161.7520  206.9200  150.1330 C   0  0  0  0  0  2  0  0  0  0  0  0
  162.3520  208.0190  149.8370 C   0  0  0  0  0  2  0  0  0  0  0  0
  159.0040  210.5670  154.3470 N   0  0  0  0  0  0  0  0  0  0  0  0
  160.7470  212.3890  150.3370 C   0  0  1  0  0  3  0  0  0  0  0  0
  161.3880  206.3040  154.1360 C   0  0  0  0  0  2  0  0  0  0  0  0
  161.1440  203.5580  147.3640 N   0  0  0  0  0  0  0  0  0  0  0  0
  160.5640  204.1260  148.3420 N   0  0  0  0  0  0  0  0  0  0  0  0
  160.4240  201.4550  145.6570 S   0  0  0  0  0  0  0  0  0  0  0  0
  161.0580  202.1470  147.1700 C   0  0  0  0  0  0  0  0  0  0  0  0
  161.4590  199.9200  147.6120 C   0  0  0  0  0  2  0  0  0  0  0  0
  161.2860  199.9150  146.1010 C   0  0  0  0  0  2  0  0  0  0  0  0
  161.5430  201.3080  148.0230 N   0  0  0  0  0  0  0  0  0  0  0  0
  161.8100  213.3970  149.9210 C   0  0  0  0  0  2  0  0  0  0  0  0
  161.2340  214.4530  148.9850 C   0  0  0  0  0  2  0  0  0  0  0  0
  161.6130  214.1290  147.5460 C   0  0  0  0  0  2  0  0  0  0  0  0
  160.4140  213.6470  146.7430 C   0  0  0  0  0  2  0  0  0  0  0  0
  159.8570  213.3940  144.2970 N   0  0  0  0  0  2  0  0  0  0  0  0
  158.9930  213.3380  141.9180 C   0  0  0  0  0  2  0  0  0  0  0  0
  160.7270  211.2500  138.7950 S   0  0  0  0  0  0  0  0  0  0  0  0
  160.0690  213.0090  142.9290 C   0  0  0  0  0  0  0  0  0  0  0  0
  162.0050  212.9400  145.1240 O   0  0  0  0  0  0  0  0  0  0  0  0
  159.0700  212.4390  140.6750 C   0  0  0  0  0  2  0  0  0  0  0  0
  162.3420  211.2000  140.8990 N   0  0  0  0  0  0  0  0  0  0  0  0
  160.4930  212.4580  140.1300 C   0  0  1  0  0  3  0  0  0  0  0  0
  162.3630  210.8100  139.4980 C   0  0  2  0  0  3  0  0  0  0  0  0
  160.8150  213.2840  145.3580 C   0  0  0  0  0  0  0  0  0  0  0  0
  161.4120  212.0320  141.2110 C   0  0  0  0  0  0  0  0  0  0  0  0
  161.1740  212.4150  142.5700 N   0  0  0  0  0  0  0  0  0  0  0  0
  163.7480  212.7630  139.4000 O   0  0  0  0  0  1  0  0  0  0  0  0
  163.4760  211.5520  138.7660 C   0  0  2  0  0  3  0  0  0  0  0  0
  163.0750  211.8060  137.3910 N   0  0  0  0  0  1  0  0  0  0  0  0
  1 21  2  0  0  0  0
  2 24  1  0  0  0  0
  3 23  1  0  0  0  0
  4  8  1  0  0  0  0
  5  9  1  0  0  0  0
  6  9  1  0  0  0  0
  7 28  1  1  0  0  0
  7 13  1  0  0  0  0
  8 25  1  0  0  0  0
  9 15  2  0  0  0  0
 10 17  1  0  0  0  0
 12 21  1  0  0  0  0
 13 22  1  6  0  0  0
 13  5  1  0  0  0  0
 14 26  1  0  0  0  0
 15 14  1  0  0  0  0
 16  3  1  0  0  0  0
 16  4  1  0  0  0  0
 17 11  1  0  0  0  0
 18 20  1  0  0  0  0
 18  3  2  0  0  0  0
 20  7  1  0  0  0  0
 21  2  1  0  0  0  0
 23 22  1  0  0  0  0
 24 11  1  0  0  0  0
 24 19  1  0  0  0  0
 25 34  1  1  0  0  0
 25 12  1  0  0  0  0
 26 10  1  0  0  0  0
 27 28  2  0  0  0  0
 29 32  1  0  0  0  0
 29 30  1  0  0  0  0
 30 27  1  0  0  0  0
 30 33  2  0  0  0  0
 31 33  1  0  0  0  0
 32 31  1  0  0  0  0
 35 34  1  0  0  0  0
 36 35  1  0  0  0  0
 37 36  1  0  0  0  0
 38 47  1  0  0  0  0
 39 41  1  0  0  0  0
 40 46  1  0  0  0  0
 40 45  1  0  0  0  0
 41 38  1  0  0  0  0
 42 47  2  0  0  0  0
 43 39  1  0  0  0  0
 44 48  2  0  0  0  0
 45 43  1  1  0  0  0
 45 48  1  0  0  0  0
 46 51  1  6  0  0  0
 46 44  1  0  0  0  0
 47 37  1  0  0  0  0
 48 49  1  0  0  0  0
 49 41  2  0  0  0  0
 51 52  1  6  0  0  0
 51 50  1  0  0  0  0
M  END
>  <MODEL>
2

>  <REMARK>
 VINA RESULT:      -4.0      1.887      2.480
  Name = 
  8 active torsions:
  status: ('A' for Active; 'I' for Inactive)
    1  A    between atoms: C_6  and  C_14
    2  A    between atoms: C_6  and  C_21
    3  A    between atoms: C_9  and  N_22
    4  A    between atoms: C_14  and  C_24
    5  A    between atoms: C_17  and  N_41
    6  A    between atoms: C_21  and  C_48
    7  A    between atoms: C_24  and  C_42
    8  A    between atoms: C_32  and  C_40
                            x       y       z     vdW  Elec       q    Type
                         _______ _______ _______ _____ _____    ______ ____

>  <TORSDO>
F 8

$$$$
