=
 OpenBabel11042421303D

 69 73  0  0  1  0  0  0  0  0999 V2000
  160.6460  204.0270  144.7900 C   0  0  0  0  0  0  0  0  0  0  0  0
  161.8740  204.1910  145.4610 C   0  0  0  0  0  3  0  0  0  0  0  0
  159.9500  202.4640  146.5260 C   0  0  0  0  0  3  0  0  0  0  0  0
  159.6810  203.1600  145.3350 C   0  0  0  0  0  3  0  0  0  0  0  0
  161.1660  202.6170  147.1770 C   0  0  0  0  0  0  0  0  0  0  0  0
  162.1350  203.4850  146.6390 C   0  0  0  0  0  0  0  0  0  0  0  0
  163.4500  203.7400  147.3360 C   0  0  0  0  0  1  0  0  0  0  0  0
  159.2800  204.3130  142.8380 O   0  0  0  0  0  1  0  0  0  0  0  0
  160.2430  204.9340  143.6410 C   0  0  2  0  0  3  0  0  0  0  0  0
  162.4510  205.9440  143.3890 C   0  0  0  0  0  2  0  0  0  0  0  0
  161.3830  205.4380  142.7950 C   0  0  0  0  0  0  0  0  0  0  0  0
  161.1200  205.8710  141.4540 N   0  0  0  0  0  2  0  0  0  0  0  0
  162.0550  208.7190  139.4020 N   0  0  0  0  0  0  0  0  0  0  0  0
  162.0430  206.8170  140.7960 C   0  0  1  0  0  3  0  0  0  0  0  0
  162.6770  207.6110  138.6530 C   0  0  0  0  0  2  0  0  0  0  0  0
  162.3620  206.3360  139.3960 C   0  0  0  0  0  2  0  0  0  0  0  0
  161.3980  208.1590  140.5740 C   0  0  0  0  0  2  0  0  0  0  0  0
  161.0300  209.4150  138.6100 C   0  0  2  0  0  3  0  0  0  0  0  0
  161.2900  210.8060  138.5130 O   0  0  0  0  0  0  0  0  0  0  0  0
  162.6890  211.0080  138.4650 C   0  0  0  0  0  2  0  0  0  0  0  0
  162.7680  213.0260  137.0160 C   0  0  0  0  0  1  0  0  0  0  0  0
  163.0030  212.5040  138.4150 C   0  0  2  0  0  3  0  0  0  0  0  0
  164.5940  214.2590  139.2070 C   0  0  0  0  0  1  0  0  0  0  0  0
  164.4450  212.7850  138.8530 C   0  0  0  0  0  2  0  0  0  0  0  0
  159.6360  209.0540  139.1540 C   0  0  0  0  0  2  0  0  0  0  0  0
  158.0040  210.6530  138.3510 C   0  0  0  0  0  0  0  0  0  0  0  0
  158.2980  211.5880  139.4780 C   0  0  0  0  0  1  0  0  0  0  0  0
  158.6180  209.5150  138.2230 N   0  0  0  0  0  0  0  0  0  0  0  0
  156.9920  211.0470  137.3250 C   0  0  0  0  0  2  0  0  0  0  0  0
  155.6930  210.4990  137.6790 N   0  0  0  0  0  0  0  0  0  0  0  0
  154.2800  208.4770  137.4300 C   0  0  0  0  0  2  0  0  0  0  0  0
  153.2620  210.7670  137.1490 C   0  0  0  0  0  2  0  0  0  0  0  0
  154.6940  211.3470  137.0390 C   0  0  0  0  0  2  0  0  0  0  0  0
  155.6290  209.1450  137.1080 C   0  0  0  0  0  2  0  0  0  0  0  0
  153.2430  209.4680  137.9700 C   0  0  0  0  0  2  0  0  0  0  0  0
  160.6130  200.8240  148.6870 O   0  0  0  0  0  1  0  0  0  0  0  0
  161.3980  201.9600  148.5190 C   0  0  2  0  0  3  0  0  0  0  0  0
  162.3360  203.2270  150.2850 O   0  0  0  0  0  0  0  0  0  0  0  0
  161.3180  202.8960  149.6920 C   0  0  0  0  0  0  0  0  0  0  0  0
  159.9970  203.1270  150.3400 C   0  0  0  0  0  2  0  0  0  0  0  0
  160.1030  204.3370  151.2630 C   0  0  0  0  0  3  0  0  0  0  0  0
  160.9070  205.5200  150.7190 C   0  0  0  0  0  3  0  0  0  0  0  0
  160.9790  206.8180  151.5340 C   0  0  2  0  0  0  0  0  0  0  0  0
  160.9920  206.5400  153.0280 C   0  0  0  0  0  1  0  0  0  0  0  0
  159.8540  207.5980  151.2010 O   0  0  0  0  0  1  0  0  0  0  0  0
  162.2480  207.4980  151.1790 N   0  0  0  0  0  2  0  0  0  0  0  0
  162.0570  208.8600  150.6580 C   0  0  1  0  0  3  0  0  0  0  0  0
  161.6620  208.7940  149.3000 O   0  0  0  0  0  0  0  0  0  0  0  0
  162.0910  209.9650  148.6250 C   0  0  1  0  0  3  0  0  0  0  0  0
  161.0750  210.4430  147.5570 C   0  0  0  0  0  2  0  0  0  0  0  0
  162.5570  211.0630  149.6130 C   0  0  0  0  0  2  0  0  0  0  0  0
  159.8760  212.2590  146.6660 C   0  0  0  0  0  1  0  0  0  0  0  0
  160.7440  211.8560  147.7540 N   0  0  0  0  0  0  0  0  0  0  0  0
  161.9910  212.5920  147.6510 C   0  0  0  0  0  2  0  0  0  0  0  0
  162.8490  212.3960  148.9040 C   0  0  0  0  0  2  0  0  0  0  0  0
  160.9550  209.5420  151.4710 C   0  0  0  0  0  2  0  0  0  0  0  0
  162.9230  210.3110  152.6580 O   0  0  0  0  0  1  0  0  0  0  0  0
  161.5160  210.1950  152.7600 C   0  0  2  0  0  3  0  0  0  0  0  0
  161.1250  209.4550  153.9050 O   0  0  0  0  0  0  0  0  0  0  0  0
  160.7030  210.3540  154.9010 C   0  0  2  0  0  3  0  0  0  0  0  0
  161.6040  208.5330  156.1440 C   0  0  0  0  0  2  0  0  0  0  0  0
  160.5950  209.6210  156.1840 N   0  0  0  0  0  0  0  0  0  0  0  0
  160.2040  208.2400  155.8530 C   0  0  0  0  0  2  0  0  0  0  0  0
  159.3700  211.0370  154.5430 C   0  0  0  0  0  2  0  0  0  0  0  0
  160.2880  212.5020  152.8960 O   0  0  0  0  0  0  0  0  0  0  0  0
  159.5590  212.3680  153.8650 C   0  0  0  0  0  0  0  0  0  0  0  0
  158.1500  214.1960  153.3750 O   0  0  0  0  0  1  0  0  0  0  0  0
  158.8070  213.5360  154.4210 C   0  0  2  0  0  3  0  0  0  0  0  0
  159.7160  214.4510  155.1030 N   0  0  0  0  0  1  0  0  0  0  0  0
  1  4  2  0  0  0  0
  1  2  1  0  0  0  0
  2  6  2  0  0  0  0
  3  5  2  0  0  0  0
  4  3  1  0  0  0  0
  5 37  1  0  0  0  0
  6  5  1  0  0  0  0
  6  7  1  0  0  0  0
  9  8  1  6  0  0  0
  9  1  1  0  0  0  0
 11 10  2  0  0  0  0
 11  9  1  0  0  0  0
 12 11  1  0  0  0  0
 13 17  1  0  0  0  0
 14 12  1  6  0  0  0
 15 16  1  0  0  0  0
 15 13  1  0  0  0  0
 16 14  1  0  0  0  0
 17 14  1  0  0  0  0
 18 25  1  1  0  0  0
 18 13  1  0  0  0  0
 19 18  1  0  0  0  0
 20 19  1  0  0  0  0
 22 21  1  6  0  0  0
 22 20  1  0  0  0  0
 22 24  1  0  0  0  0
 24 23  1  0  0  0  0
 26 27  1  0  0  0  0
 28 26  2  0  0  0  0
 28 25  1  0  0  0  0
 29 30  1  0  0  0  0
 29 26  1  0  0  0  0
 31 35  1  0  0  0  0
 32 35  1  0  0  0  0
 33 32  1  0  0  0  0
 33 30  1  0  0  0  0
 34 31  1  0  0  0  0
 34 30  1  0  0  0  0
 37 36  1  1  0  0  0
 37 39  1  0  0  0  0
 39 38  2  0  0  0  0
 39 40  1  0  0  0  0
 40 41  1  0  0  0  0
 42 41  2  0  0  0  0
 42 43  1  0  0  0  0
 43 44  1  1  0  0  0
 45 43  1  0  0  0  0
 46 43  1  0  0  0  0
 47 46  1  0  0  0  0
 47 56  1  1  0  0  0
 48 47  1  0  0  0  0
 49 48  1  1  0  0  0
 49 51  1  0  0  0  0
 50 53  1  0  0  0  0
 50 49  1  0  0  0  0
 52 53  1  0  0  0  0
 54 53  1  0  0  0  0
 54 55  1  0  0  0  0
 55 51  1  0  0  0  0
 56 58  1  0  0  0  0
 58 57  1  6  0  0  0
 58 59  1  0  0  0  0
 59 60  1  0  0  0  0
 60 64  1  6  0  0  0
 60 62  1  0  0  0  0
 61 62  1  0  0  0  0
 63 61  1  0  0  0  0
 63 62  1  0  0  0  0
 65 66  2  0  0  0  0
 66 68  1  0  0  0  0
 66 64  1  0  0  0  0
 68 67  1  6  0  0  0
 68 69  1  0  0  0  0
M  END
>  <MODEL>
1

>  <REMARK>
 VINA RESULT:       2.4      0.000      0.000
  Name = 
  31 active torsions:
  status: ('A' for Active; 'I' for Inactive)
    1  A    between atoms: C_2  and  C_11
    2  A    between atoms: C_2  and  C_42
    3  A    between atoms: N_3  and  C_30
    4  A    between atoms: C_5  and  C_39
    5  A    between atoms: C_5  and  C_48
    6  A    between atoms: C_6  and  C_29
    7  A    between atoms: C_6  and  N_60
    8  A    between atoms: C_7  and  O_19
    9  A    between atoms: N_9  and  C_29
   10  A    between atoms: C_11  and  C_55
   11  A    between atoms: O_12  and  C_48
   12  A    between atoms: O_12  and  C_54
   13  A    between atoms: C_14  and  N_15
   14  A    between atoms: N_15  and  C_31
   15  A    between atoms: N_17  and  C_20
   16  A    between atoms: N_17  and  C_39
   17  A    between atoms: C_18  and  C_40
   18  A    between atoms: O_19  and  C_39
   19  A    between atoms: C_20  and  C_55
   20  A    between atoms: C_21  and  C_37
   21  A    between atoms: C_21  and  C_42
   22  A    between atoms: C_27  and  C_54
   23  A    between atoms: C_27  and  C_68
   24  A    between atoms: C_29  and  O_57
   25  A    between atoms: C_30  and  C_41
   26  A    between atoms: C_31  and  C_40
   27  A    between atoms: C_34  and  C_68
   28  A    between atoms: N_38  and  C_54
   29  A    between atoms: C_43  and  C_56
   30  A    between atoms: C_56  and  C_69
   31  A    between atoms: O_57  and  C_69
                            x       y       z     vdW  Elec       q    Type
                         _______ _______ _______ _____ _____    ______ ____

>  <TORSDO>
F 31

$$$$
