=
 OpenBabel11042420223D

 30 35  0  0  1  0  0  0  0  0999 V2000
  160.7850  201.6870  148.2800 C   0  0  0  0  0  2  0  0  0  0  0  0
  161.2200  202.9510  146.0540 C   0  0  0  0  0  3  0  0  0  0  0  0
  161.1600  205.4780  150.1700 C   0  0  0  0  0  0  0  0  0  0  0  0
  160.8790  204.7600  152.2610 C   0  0  0  0  0  3  0  0  0  0  0  0
  160.9920  200.6070  146.1660 O   0  0  0  0  0  0  0  0  0  0  0  0
  160.9360  204.3680  150.9250 C   0  0  0  0  0  0  0  0  0  0  0  0
  160.9350  203.0360  148.9270 C   0  0  0  0  0  0  0  0  0  0  0  0
  160.8140  203.1160  150.3320 C   0  0  0  0  0  3  0  0  0  0  0  0
  161.5260  206.7760  148.0550 C   0  0  1  0  0  3  0  0  0  0  0  0
  161.0090  201.6970  146.7940 C   0  0  0  0  0  0  0  0  0  0  0  0
  162.9060  207.3400  148.4070 C   0  0  0  0  0  2  0  0  0  0  0  0
  161.2910  205.4700  148.7940 C   0  0  0  0  0  0  0  0  0  0  0  0
  161.1700  204.2170  148.1490 C   0  0  0  0  0  0  0  0  0  0  0  0
  161.0930  206.1470  152.2060 C   0  0  0  0  0  0  0  0  0  0  0  0
  161.6740  208.0090  148.9730 C   0  0  2  0  0  0  0  0  0  0  0  0
  161.5210  207.8310  150.4240 N   0  0  0  0  0  2  0  0  0  0  0  0
  161.2610  206.5520  150.9320 N   0  0  0  0  0  0  0  0  0  0  0  0
  161.2900  204.1210  146.6830 C   0  0  0  0  0  3  0  0  0  0  0  0
  161.1690  207.7560  154.3020 C   0  0  0  0  0  3  0  0  0  0  0  0
  161.1380  207.0230  153.3460 C   0  0  0  0  0  0  0  0  0  0  0  0
  161.4010  209.3840  148.3950 C   0  0  0  0  0  2  0  0  0  0  0  0
  162.3090  210.4120  149.0420 C   0  0  0  0  0  2  0  0  0  0  0  0
  163.2840  212.4380  148.2640 O   0  0  0  0  0  0  0  0  0  0  0  0
  161.0910  212.0310  147.5430 N   0  0  0  0  0  2  0  0  0  0  0  0
  162.2780  211.6790  148.2640 C   0  0  0  0  0  0  0  0  0  0  0  0
  159.3080  214.4270  145.6110 C   0  0  0  0  0  2  0  0  0  0  0  0
  160.9290  213.2570  146.7690 C   0  0  1  0  0  3  0  0  0  0  0  0
  161.2360  213.0230  145.3040 C   0  0  0  0  0  2  0  0  0  0  0  0
  160.1430  213.7420  144.5500 C   0  0  0  0  0  2  0  0  0  0  0  0
  159.5660  213.7580  146.8770 N   0  0  0  0  0  2  0  0  0  0  0  0
  1  7  1  0  0  0  0
  2 18  2  0  0  0  0
  2 10  1  0  0  0  0
  3  6  1  0  0  0  0
  3 17  1  0  0  0  0
  5 10  2  0  0  0  0
  6  4  1  0  0  0  0
  7  8  1  0  0  0  0
  8  6  2  0  0  0  0
  9 11  1  1  0  0  0
  9 12  1  0  0  0  0
  9 15  1  0  0  0  0
 10  1  1  0  0  0  0
 11 15  1  0  0  0  0
 12  3  2  0  0  0  0
 13 12  1  0  0  0  0
 13  7  2  0  0  0  0
 14  4  2  0  0  0  0
 14 20  1  0  0  0  0
 15 21  1  6  0  0  0
 15 16  1  0  0  0  0
 16 17  1  0  0  0  0
 17 14  1  0  0  0  0
 18 13  1  0  0  0  0
 20 19  3  0  0  0  0
 21 22  1  0  0  0  0
 24 25  1  0  0  0  0
 25 23  2  0  0  0  0
 25 22  1  0  0  0  0
 26 30  1  0  0  0  0
 27 30  1  0  0  0  0
 27 24  1  1  0  0  0
 28 27  1  0  0  0  0
 29 28  1  0  0  0  0
 29 26  1  0  0  0  0
M  END
>  <MODEL>
1

>  <REMARK>
 VINA RESULT:      -9.6      0.000      0.000
  Name = 
  5 active torsions:
  status: ('A' for Active; 'I' for Inactive)
    1  A    between atoms: C_7  and  C_13
    2  A    between atoms: C_7  and  C_24
    3  A    between atoms: C_13  and  C_17
    4  A    between atoms: C_15  and  N_16
    5  A    between atoms: C_23  and  C_29
                            x       y       z     vdW  Elec       q    Type
                         _______ _______ _______ _____ _____    ______ ____

>  <TORSDO>
F 5

$$$$
=
 OpenBabel11042420223D

 30 35  0  0  1  0  0  0  0  0999 V2000
  161.2090  202.4260  146.0050 C   0  0  0  0  0  2  0  0  0  0  0  0
  160.9400  200.9480  148.1230 C   0  0  0  0  0  3  0  0  0  0  0  0
  161.5690  205.7030  148.6920 C   0  0  0  0  0  0  0  0  0  0  0  0
  161.7790  207.2930  147.1440 C   0  0  0  0  0  3  0  0  0  0  0  0
  160.7510  200.0890  145.9360 O   0  0  0  0  0  0  0  0  0  0  0  0
  161.6150  205.9240  147.3500 C   0  0  0  0  0  0  0  0  0  0  0  0
  161.3200  203.5710  146.9750 C   0  0  0  0  0  0  0  0  0  0  0  0
  161.4940  204.8700  146.4500 C   0  0  0  0  0  3  0  0  0  0  0  0
  161.3780  204.3330  150.7840 C   0  0  1  0  0  3  0  0  0  0  0  0
  160.9460  201.0990  146.6600 C   0  0  0  0  0  0  0  0  0  0  0  0
  160.1310  205.0170  151.3530 C   0  0  0  0  0  2  0  0  0  0  0  0
  161.3980  204.4590  149.2700 C   0  0  0  0  0  0  0  0  0  0  0  0
  161.2760  203.3580  148.3910 C   0  0  0  0  0  0  0  0  0  0  0  0
  161.8130  207.8190  148.4450 C   0  0  0  0  0  0  0  0  0  0  0  0
  161.4780  205.6770  151.5370 C   0  0  2  0  0  0  0  0  0  0  0  0
  161.6390  206.9120  150.7570 N   0  0  0  0  0  2  0  0  0  0  0  0
  161.6830  206.8370  149.3590 N   0  0  0  0  0  0  0  0  0  0  0  0
  161.0970  201.9960  148.9260 C   0  0  0  0  0  3  0  0  0  0  0  0
  162.0850  210.3810  149.0370 C   0  0  0  0  0  3  0  0  0  0  0  0
  161.9580  209.2130  148.7700 C   0  0  0  0  0  0  0  0  0  0  0  0
  161.9740  205.6740  152.9700 C   0  0  0  0  0  2  0  0  0  0  0  0
  160.8710  206.1330  153.9040 C   0  0  0  0  0  2  0  0  0  0  0  0
  161.6280  207.7480  155.4800 O   0  0  0  0  0  0  0  0  0  0  0  0
  160.7760  208.6150  153.4750 N   0  0  0  0  0  2  0  0  0  0  0  0
  161.1270  207.5300  154.3440 C   0  0  0  0  0  0  0  0  0  0  0  0
  159.7110  211.8710  154.4320 C   0  0  0  0  0  2  0  0  0  0  0  0
  160.9510  210.0250  153.8050 C   0  0  1  0  0  3  0  0  0  0  0  0
  160.8660  210.8910  152.5640 C   0  0  0  0  0  2  0  0  0  0  0  0
  160.0080  212.0690  152.9610 C   0  0  0  0  0  2  0  0  0  0  0  0
  159.9270  210.4660  154.7420 N   0  0  0  0  0  2  0  0  0  0  0  0
  1 10  1  0  0  0  0
  1  7  1  0  0  0  0
  2 18  2  0  0  0  0
  3 12  1  0  0  0  0
  3 17  1  0  0  0  0
  4  6  1  0  0  0  0
  4 14  2  0  0  0  0
  5 10  2  0  0  0  0
  6  3  2  0  0  0  0
  7 13  1  0  0  0  0
  8  7  2  0  0  0  0
  8  6  1  0  0  0  0
  9 11  1  6  0  0  0
  9 15  1  0  0  0  0
 10  2  1  0  0  0  0
 11 15  1  0  0  0  0
 12  9  1  0  0  0  0
 13 18  1  0  0  0  0
 13 12  2  0  0  0  0
 14 20  1  0  0  0  0
 14 17  1  0  0  0  0
 15 21  1  1  0  0  0
 16 15  1  0  0  0  0
 17 16  1  0  0  0  0
 20 19  3  0  0  0  0
 21 22  1  0  0  0  0
 22 25  1  0  0  0  0
 24 25  1  0  0  0  0
 25 23  2  0  0  0  0
 26 30  1  0  0  0  0
 27 24  1  6  0  0  0
 27 30  1  0  0  0  0
 28 29  1  0  0  0  0
 28 27  1  0  0  0  0
 29 26  1  0  0  0  0
M  END
>  <MODEL>
2

>  <REMARK>
 VINA RESULT:      -9.2      3.116      5.285
  Name = 
  5 active torsions:
  status: ('A' for Active; 'I' for Inactive)
    1  A    between atoms: C_7  and  C_13
    2  A    between atoms: C_7  and  C_24
    3  A    between atoms: C_13  and  C_17
    4  A    between atoms: C_15  and  N_16
    5  A    between atoms: C_23  and  C_29
                            x       y       z     vdW  Elec       q    Type
                         _______ _______ _______ _____ _____    ______ ____

>  <TORSDO>
F 5

$$$$
=
 OpenBabel11042420223D

 30 35  0  0  1  0  0  0  0  0999 V2000
  160.7380  201.7490  148.1670 C   0  0  0  0  0  2  0  0  0  0  0  0
  161.2290  203.1760  146.0550 C   0  0  0  0  0  3  0  0  0  0  0  0
  161.1780  205.3660  150.3600 C   0  0  0  0  0  0  0  0  0  0  0  0
  160.8560  204.4900  152.3830 C   0  0  0  0  0  3  0  0  0  0  0  0
  160.9460  200.8370  145.9760 O   0  0  0  0  0  0  0  0  0  0  0  0
  160.9190  204.2050  151.0210 C   0  0  0  0  0  0  0  0  0  0  0  0
  160.9120  203.0380  148.9220 C   0  0  0  0  0  0  0  0  0  0  0  0
  160.7760  203.0070  150.3270 C   0  0  0  0  0  3  0  0  0  0  0  0
  161.5990  206.8200  148.3600 C   0  0  1  0  0  3  0  0  0  0  0  0
  160.9800  201.8730  146.6900 C   0  0  0  0  0  0  0  0  0  0  0  0
  162.9880  207.3210  148.7700 C   0  0  0  0  0  2  0  0  0  0  0  0
  161.3260  205.4650  148.9890 C   0  0  0  0  0  0  0  0  0  0  0  0
  161.1830  204.2710  148.2440 C   0  0  0  0  0  0  0  0  0  0  0  0
  161.1030  205.8710  152.4420 C   0  0  0  0  0  0  0  0  0  0  0  0
  161.7650  207.9720  149.3750 C   0  0  2  0  0  0  0  0  0  0  0  0
  161.5910  207.6820  150.8050 N   0  0  0  0  0  2  0  0  0  0  0  0
  161.2950  206.3730  151.2060 N   0  0  0  0  0  0  0  0  0  0  0  0
  161.3190  204.2900  146.7770 C   0  0  0  0  0  3  0  0  0  0  0  0
  161.1900  207.3050  154.6610 C   0  0  0  0  0  3  0  0  0  0  0  0
  161.1540  206.6510  153.6500 C   0  0  0  0  0  0  0  0  0  0  0  0
  161.5310  209.3950  148.9070 C   0  0  0  0  0  2  0  0  0  0  0  0
  162.3410  210.3610  149.7500 C   0  0  0  0  0  2  0  0  0  0  0  0
  160.9800  212.3050  149.9270 O   0  0  0  0  0  0  0  0  0  0  0  0
  161.0990  210.9770  151.8550 N   0  0  0  0  0  2  0  0  0  0  0  0
  161.4310  211.2730  150.4930 C   0  0  0  0  0  0  0  0  0  0  0  0
  159.3710  211.8680  154.8330 C   0  0  0  0  0  2  0  0  0  0  0  0
  160.2430  211.8080  152.6950 C   0  0  1  0  0  3  0  0  0  0  0  0
  158.7860  211.4170  152.5450 C   0  0  0  0  0  2  0  0  0  0  0  0
  158.2330  211.4030  153.9500 C   0  0  0  0  0  2  0  0  0  0  0  0
  160.6110  211.6740  154.0980 N   0  0  0  0  0  2  0  0  0  0  0  0
  1  7  1  0  0  0  0
  2 10  1  0  0  0  0
  2 18  2  0  0  0  0
  3  6  1  0  0  0  0
  3 17  1  0  0  0  0
  4 14  2  0  0  0  0
  5 10  2  0  0  0  0
  6  4  1  0  0  0  0
  7  8  1  0  0  0  0
  8  6  2  0  0  0  0
  9 11  1  1  0  0  0
  9 12  1  0  0  0  0
  9 15  1  0  0  0  0
 10  1  1  0  0  0  0
 11 15  1  0  0  0  0
 12  3  2  0  0  0  0
 13  7  2  0  0  0  0
 13 12  1  0  0  0  0
 14 20  1  0  0  0  0
 15 21  1  6  0  0  0
 15 16  1  0  0  0  0
 16 17  1  0  0  0  0
 17 14  1  0  0  0  0
 18 13  1  0  0  0  0
 20 19  3  0  0  0  0
 21 22  1  0  0  0  0
 22 25  1  0  0  0  0
 23 25  2  0  0  0  0
 25 24  1  0  0  0  0
 27 24  1  6  0  0  0
 27 30  1  0  0  0  0
 28 27  1  0  0  0  0
 28 29  1  0  0  0  0
 29 26  1  0  0  0  0
 30 26  1  0  0  0  0
M  END
>  <MODEL>
3

>  <REMARK>
 VINA RESULT:      -9.2      2.528      3.567
  Name = 
  5 active torsions:
  status: ('A' for Active; 'I' for Inactive)
    1  A    between atoms: C_7  and  C_13
    2  A    between atoms: C_7  and  C_24
    3  A    between atoms: C_13  and  C_17
    4  A    between atoms: C_15  and  N_16
    5  A    between atoms: C_23  and  C_29
                            x       y       z     vdW  Elec       q    Type
                         _______ _______ _______ _____ _____    ______ ____

>  <TORSDO>
F 5

$$$$
=
 OpenBabel11042420223D

 30 35  0  0  1  0  0  0  0  0999 V2000
  161.0580  207.8800  154.7860 C   0  0  0  0  0  2  0  0  0  0  0  0
  161.4530  209.8580  153.1510 C   0  0  0  0  0  3  0  0  0  0  0  0
  161.2090  205.3850  151.3450 C   0  0  0  0  0  0  0  0  0  0  0  0
  160.8330  203.4580  152.3990 C   0  0  0  0  0  3  0  0  0  0  0  0
  161.0700  210.1660  155.4560 O   0  0  0  0  0  0  0  0  0  0  0  0
  160.9820  204.8330  152.5680 C   0  0  0  0  0  0  0  0  0  0  0  0
  161.1020  207.0200  153.5520 C   0  0  0  0  0  0  0  0  0  0  0  0
  160.9220  205.6280  153.7080 C   0  0  0  0  0  3  0  0  0  0  0  0
  161.6520  207.2370  149.7130 C   0  0  1  0  0  3  0  0  0  0  0  0
  161.1800  209.3510  154.5040 C   0  0  0  0  0  0  0  0  0  0  0  0
  160.4090  207.0320  148.8410 C   0  0  0  0  0  2  0  0  0  0  0  0
  161.3900  206.7370  151.1230 C   0  0  0  0  0  0  0  0  0  0  0  0
  161.3420  207.5810  152.2570 C   0  0  0  0  0  0  0  0  0  0  0  0
  160.9820  203.2780  151.0140 C   0  0  0  0  0  0  0  0  0  0  0  0
  161.6100  206.1380  148.6290 C   0  0  2  0  0  0  0  0  0  0  0  0
  161.3860  204.7460  149.0440 N   0  0  0  0  0  2  0  0  0  0  0  0
  161.2070  204.4590  150.4030 N   0  0  0  0  0  0  0  0  0  0  0  0
  161.5320  209.0360  152.1080 C   0  0  0  0  0  3  0  0  0  0  0  0
  160.8260  200.9560  149.7610 C   0  0  0  0  0  3  0  0  0  0  0  0
  160.9000  202.0160  150.3300 C   0  0  0  0  0  0  0  0  0  0  0  0
  162.3320  206.3790  147.3180 C   0  0  0  0  0  2  0  0  0  0  0  0
  161.3330  206.4570  146.1790 C   0  0  0  0  0  2  0  0  0  0  0  0
  161.5040  205.2400  144.1410 O   0  0  0  0  0  0  0  0  0  0  0  0
  161.1990  203.9420  146.0690 N   0  0  0  0  0  2  0  0  0  0  0  0
  161.3610  205.1950  145.3930 C   0  0  0  0  0  0  0  0  0  0  0  0
  159.7060  200.9530  144.8500 C   0  0  0  0  0  2  0  0  0  0  0  0
  161.1800  202.6430  145.4050 C   0  0  1  0  0  3  0  0  0  0  0  0
  161.4660  201.5240  146.3870 C   0  0  0  0  0  2  0  0  0  0  0  0
  160.4640  200.4430  146.0570 C   0  0  0  0  0  2  0  0  0  0  0  0
  159.8810  202.3960  144.7940 N   0  0  0  0  0  2  0  0  0  0  0  0
  2 10  1  0  0  0  0
  3  6  1  0  0  0  0
  4  6  1  0  0  0  0
  6  8  2  0  0  0  0
  7  8  1  0  0  0  0
  7  1  1  0  0  0  0
  9 11  1  6  0  0  0
  9 12  1  0  0  0  0
 10  1  1  0  0  0  0
 10  5  2  0  0  0  0
 12  3  2  0  0  0  0
 12 13  1  0  0  0  0
 13  7  2  0  0  0  0
 14  4  2  0  0  0  0
 15 21  1  6  0  0  0
 15 11  1  0  0  0  0
 15 16  1  0  0  0  0
 15  9  1  0  0  0  0
 16 17  1  0  0  0  0
 17 14  1  0  0  0  0
 17  3  1  0  0  0  0
 18 13  1  0  0  0  0
 18  2  2  0  0  0  0
 19 20  3  0  0  0  0
 20 14  1  0  0  0  0
 22 21  1  0  0  0  0
 23 25  2  0  0  0  0
 25 24  1  0  0  0  0
 25 22  1  0  0  0  0
 26 29  1  0  0  0  0
 27 24  1  1  0  0  0
 27 28  1  0  0  0  0
 29 28  1  0  0  0  0
 30 26  1  0  0  0  0
 30 27  1  0  0  0  0
M  END
>  <MODEL>
4

>  <REMARK>
 VINA RESULT:      -9.0      4.171      7.603
  Name = 
  5 active torsions:
  status: ('A' for Active; 'I' for Inactive)
    1  A    between atoms: C_7  and  C_13
    2  A    between atoms: C_7  and  C_24
    3  A    between atoms: C_13  and  C_17
    4  A    between atoms: C_15  and  N_16
    5  A    between atoms: C_23  and  C_29
                            x       y       z     vdW  Elec       q    Type
                         _______ _______ _______ _____ _____    ______ ____

>  <TORSDO>
F 5

$$$$
=
 OpenBabel11042420223D

 30 35  0  0  1  0  0  0  0  0999 V2000
  161.6020  209.7590  153.3130 C   0  0  0  0  0  2  0  0  0  0  0  0
  160.8850  207.8800  154.9550 C   0  0  0  0  0  3  0  0  0  0  0  0
  161.5310  206.7560  150.3020 C   0  0  0  0  0  0  0  0  0  0  0  0
  162.1890  208.0560  148.6160 C   0  0  0  0  0  3  0  0  0  0  0  0
  161.3680  210.0760  155.6630 O   0  0  0  0  0  0  0  0  0  0  0  0
  161.8940  208.0260  149.9780 C   0  0  0  0  0  0  0  0  0  0  0  0
  161.5830  208.6770  152.2680 C   0  0  0  0  0  0  0  0  0  0  0  0
  161.9300  209.0260  150.9450 C   0  0  0  0  0  3  0  0  0  0  0  0
  160.7810  204.9020  151.8170 C   0  0  1  0  0  3  0  0  0  0  0  0
  161.2950  209.2700  154.7000 C   0  0  0  0  0  0  0  0  0  0  0  0
  161.9840  203.9780  151.6070 C   0  0  0  0  0  2  0  0  0  0  0  0
  161.1830  206.3470  151.5760 C   0  0  0  0  0  0  0  0  0  0  0  0
  161.2020  207.3340  152.5900 C   0  0  0  0  0  0  0  0  0  0  0  0
  161.9780  206.7290  148.2060 C   0  0  0  0  0  0  0  0  0  0  0  0
  160.8840  203.9960  150.5700 C   0  0  2  0  0  0  0  0  0  0  0  0
  161.2900  204.5990  149.2930 N   0  0  0  0  0  2  0  0  0  0  0  0
  161.5830  205.9670  149.2440 N   0  0  0  0  0  0  0  0  0  0  0  0
  160.8380  206.9820  153.9750 C   0  0  0  0  0  3  0  0  0  0  0  0
  162.3250  205.8290  145.7440 C   0  0  0  0  0  3  0  0  0  0  0  0
  162.1640  206.2390  146.8660 C   0  0  0  0  0  0  0  0  0  0  0  0
  160.0610  202.7240  150.5250 C   0  0  0  0  0  2  0  0  0  0  0  0
  160.9720  201.5190  150.3890 C   0  0  0  0  0  2  0  0  0  0  0  0
  161.8700  200.2030  148.6200 O   0  0  0  0  0  0  0  0  0  0  0  0
  160.7970  202.1820  147.9630 N   0  0  0  0  0  2  0  0  0  0  0  0
  161.2400  201.2440  148.9520 C   0  0  0  0  0  0  0  0  0  0  0  0
  160.0660  202.6220  144.5100 C   0  0  0  0  0  2  0  0  0  0  0  0
  161.0250  202.0370  146.5290 C   0  0  1  0  0  3  0  0  0  0  0  0
  160.3940  200.7640  146.0020 C   0  0  0  0  0  2  0  0  0  0  0  0
  159.7210  201.1620  144.7100 C   0  0  0  0  0  2  0  0  0  0  0  0
  160.4570  203.1650  145.8020 N   0  0  0  0  0  2  0  0  0  0  0  0
  1 10  1  0  0  0  0
  3 12  1  0  0  0  0
  4  6  1  0  0  0  0
  6  3  2  0  0  0  0
  6  8  1  0  0  0  0
  7 13  1  0  0  0  0
  7  1  1  0  0  0  0
  8  7  2  0  0  0  0
  9 11  1  1  0  0  0
 10  2  1  0  0  0  0
 10  5  2  0  0  0  0
 12  9  1  0  0  0  0
 12 13  2  0  0  0  0
 13 18  1  0  0  0  0
 14  4  2  0  0  0  0
 14 17  1  0  0  0  0
 15 21  1  6  0  0  0
 15 11  1  0  0  0  0
 15  9  1  0  0  0  0
 16 15  1  0  0  0  0
 17 16  1  0  0  0  0
 17  3  1  0  0  0  0
 18  2  2  0  0  0  0
 19 20  3  0  0  0  0
 20 14  1  0  0  0  0
 22 21  1  0  0  0  0
 23 25  2  0  0  0  0
 24 25  1  0  0  0  0
 25 22  1  0  0  0  0
 26 29  1  0  0  0  0
 26 30  1  0  0  0  0
 27 24  1  1  0  0  0
 28 27  1  0  0  0  0
 29 28  1  0  0  0  0
 30 27  1  0  0  0  0
M  END
>  <MODEL>
5

>  <REMARK>
 VINA RESULT:      -8.3      3.719      8.397
  Name = 
  5 active torsions:
  status: ('A' for Active; 'I' for Inactive)
    1  A    between atoms: C_7  and  C_13
    2  A    between atoms: C_7  and  C_24
    3  A    between atoms: C_13  and  C_17
    4  A    between atoms: C_15  and  N_16
    5  A    between atoms: C_23  and  C_29
                            x       y       z     vdW  Elec       q    Type
                         _______ _______ _______ _____ _____    ______ ____

>  <TORSDO>
F 5

$$$$
=
 OpenBabel11042420223D

 30 35  0  0  1  0  0  0  0  0999 V2000
  161.0970  203.4130  149.2460 C   0  0  0  0  0  2  0  0  0  0  0  0
  160.8510  203.0020  151.7980 C   0  0  0  0  0  3  0  0  0  0  0  0
  161.6180  207.5130  150.2490 C   0  0  0  0  0  0  0  0  0  0  0  0
  161.8240  208.2720  148.1640 C   0  0  0  0  0  3  0  0  0  0  0  0
  160.5780  201.2920  150.1990 O   0  0  0  0  0  0  0  0  0  0  0  0
  161.6310  207.1320  148.9430 C   0  0  0  0  0  0  0  0  0  0  0  0
  161.2650  204.8590  149.6250 C   0  0  0  0  0  0  0  0  0  0  0  0
  161.4580  205.7980  148.5880 C   0  0  0  0  0  3  0  0  0  0  0  0
  161.4510  207.1850  152.7300 C   0  0  1  0  0  3  0  0  0  0  0  0
  160.8200  202.5080  150.4120 C   0  0  0  0  0  0  0  0  0  0  0  0
  160.2390  208.0920  152.9670 C   0  0  0  0  0  2  0  0  0  0  0  0
  161.4320  206.6470  151.3100 C   0  0  0  0  0  0  0  0  0  0  0  0
  161.2560  205.2790  150.9940 C   0  0  0  0  0  0  0  0  0  0  0  0
  161.9090  209.3060  149.1100 C   0  0  0  0  0  0  0  0  0  0  0  0
  161.6080  208.7190  152.8280 C   0  0  2  0  0  0  0  0  0  0  0  0
  161.7770  209.4910  151.5890 N   0  0  0  0  0  2  0  0  0  0  0  0
  161.7800  208.8190  150.3600 N   0  0  0  0  0  0  0  0  0  0  0  0
  161.0580  204.2880  152.0680 C   0  0  0  0  0  3  0  0  0  0  0  0
  162.2580  211.8640  148.5440 C   0  0  0  0  0  3  0  0  0  0  0  0
  162.0990  210.6970  148.7990 C   0  0  0  0  0  0  0  0  0  0  0  0
  162.1440  209.3160  154.1140 C   0  0  0  0  0  2  0  0  0  0  0  0
  161.9170  210.8160  154.1270 C   0  0  0  0  0  2  0  0  0  0  0  0
  160.9050  210.9680  156.2760 O   0  0  0  0  0  0  0  0  0  0  0  0
  159.5660  211.6560  154.4780 N   0  0  0  0  0  2  0  0  0  0  0  0
  160.7870  211.1500  155.0340 C   0  0  0  0  0  0  0  0  0  0  0  0
  156.1750  211.3520  155.5080 C   0  0  0  0  0  2  0  0  0  0  0  0
  158.3810  211.9920  155.2600 C   0  0  1  0  0  3  0  0  0  0  0  0
  157.5710  213.0790  154.5830 C   0  0  0  0  0  2  0  0  0  0  0  0
  156.1330  212.6300  154.6970 C   0  0  0  0  0  2  0  0  0  0  0  0
  157.5280  210.8240  155.4310 N   0  0  0  0  0  2  0  0  0  0  0  0
  1  7  1  0  0  0  0
  1 10  1  0  0  0  0
  2 18  2  0  0  0  0
  3 17  1  0  0  0  0
  3 12  1  0  0  0  0
  4  6  1  0  0  0  0
  4 14  2  0  0  0  0
  5 10  2  0  0  0  0
  6  3  2  0  0  0  0
  7 13  1  0  0  0  0
  8  6  1  0  0  0  0
  8  7  2  0  0  0  0
  9 15  1  0  0  0  0
  9 11  1  6  0  0  0
 10  2  1  0  0  0  0
 12  9  1  0  0  0  0
 13 12  2  0  0  0  0
 13 18  1  0  0  0  0
 14 17  1  0  0  0  0
 15 11  1  0  0  0  0
 15 21  1  1  0  0  0
 16 15  1  0  0  0  0
 17 16  1  0  0  0  0
 19 20  3  0  0  0  0
 20 14  1  0  0  0  0
 21 22  1  0  0  0  0
 22 25  1  0  0  0  0
 24 25  1  0  0  0  0
 25 23  2  0  0  0  0
 27 24  1  6  0  0  0
 27 30  1  0  0  0  0
 28 29  1  0  0  0  0
 28 27  1  0  0  0  0
 29 26  1  0  0  0  0
 30 26  1  0  0  0  0
M  END
>  <MODEL>
6

>  <REMARK>
 VINA RESULT:      -8.2      3.547      6.030
  Name = 
  5 active torsions:
  status: ('A' for Active; 'I' for Inactive)
    1  A    between atoms: C_7  and  C_13
    2  A    between atoms: C_7  and  C_24
    3  A    between atoms: C_13  and  C_17
    4  A    between atoms: C_15  and  N_16
    5  A    between atoms: C_23  and  C_29
                            x       y       z     vdW  Elec       q    Type
                         _______ _______ _______ _____ _____    ______ ____

>  <TORSDO>
F 5

$$$$
=
 OpenBabel11042420223D

 30 35  0  0  1  0  0  0  0  0999 V2000
  161.9520  211.2710  150.1350 C   0  0  0  0  0  2  0  0  0  0  0  0
  162.2390  209.4990  148.2600 C   0  0  0  0  0  3  0  0  0  0  0  0
  161.2750  207.9790  152.7420 C   0  0  0  0  0  0  0  0  0  0  0  0
  160.9090  209.1740  154.5880 C   0  0  0  0  0  3  0  0  0  0  0  0
  162.2910  211.8180  147.8420 O   0  0  0  0  0  0  0  0  0  0  0  0
  161.2120  209.2490  153.2290 C   0  0  0  0  0  0  0  0  0  0  0  0
  161.7020  210.0910  151.0350 C   0  0  0  0  0  0  0  0  0  0  0  0
  161.4240  210.3430  152.3960 C   0  0  0  0  0  3  0  0  0  0  0  0
  161.5990  206.2080  150.9970 C   0  0  1  0  0  3  0  0  0  0  0  0
  162.1590  210.9020  148.6940 C   0  0  0  0  0  0  0  0  0  0  0  0
  160.2100  205.5700  151.1040 C   0  0  0  0  0  2  0  0  0  0  0  0
  161.5390  207.6650  151.4230 C   0  0  0  0  0  0  0  0  0  0  0  0
  161.7660  208.7480  150.5420 C   0  0  0  0  0  0  0  0  0  0  0  0
  160.7990  207.7950  154.8250 C   0  0  0  0  0  0  0  0  0  0  0  0
  161.2680  205.2010  152.1200 C   0  0  2  0  0  0  0  0  0  0  0  0
  160.9920  205.7160  153.4690 N   0  0  0  0  0  2  0  0  0  0  0  0
  161.0230  207.0980  153.6930 N   0  0  0  0  0  0  0  0  0  0  0  0
  162.0610  208.4990  149.1190 C   0  0  0  0  0  3  0  0  0  0  0  0
  160.2200  206.7010  157.1610 C   0  0  0  0  0  3  0  0  0  0  0  0
  160.4840  207.1970  156.0950 C   0  0  0  0  0  0  0  0  0  0  0  0
  161.7720  203.7780  151.9940 C   0  0  0  0  0  2  0  0  0  0  0  0
  160.6700  202.8790  151.4660 C   0  0  0  0  0  2  0  0  0  0  0  0
  161.3730  201.0590  150.1030 O   0  0  0  0  0  0  0  0  0  0  0  0
  161.1570  203.1190  149.0040 N   0  0  0  0  0  2  0  0  0  0  0  0
  161.0790  202.2840  150.1660 C   0  0  0  0  0  0  0  0  0  0  0  0
  161.2210  203.1240  145.4480 C   0  0  0  0  0  2  0  0  0  0  0  0
  161.5720  202.6590  147.6840 C   0  0  1  0  0  3  0  0  0  0  0  0
  160.6670  201.5520  147.1820 C   0  0  0  0  0  2  0  0  0  0  0  0
  160.3940  201.8890  145.7350 C   0  0  0  0  0  2  0  0  0  0  0  0
  161.5350  203.7520  146.7220 N   0  0  0  0  0  2  0  0  0  0  0  0
  1  7  1  0  0  0  0
  2 10  1  0  0  0  0
  2 18  2  0  0  0  0
  3  6  1  0  0  0  0
  3 17  1  0  0  0  0
  4 14  2  0  0  0  0
  5 10  2  0  0  0  0
  6  4  1  0  0  0  0
  7  8  1  0  0  0  0
  8  6  2  0  0  0  0
  9 11  1  6  0  0  0
  9 12  1  0  0  0  0
  9 15  1  0  0  0  0
 10  1  1  0  0  0  0
 11 15  1  0  0  0  0
 12  3  2  0  0  0  0
 13  7  2  0  0  0  0
 13 12  1  0  0  0  0
 14 20  1  0  0  0  0
 15 21  1  6  0  0  0
 15 16  1  0  0  0  0
 16 17  1  0  0  0  0
 17 14  1  0  0  0  0
 18 13  1  0  0  0  0
 20 19  3  0  0  0  0
 22 21  1  0  0  0  0
 23 25  2  0  0  0  0
 24 25  1  0  0  0  0
 25 22  1  0  0  0  0
 26 29  1  0  0  0  0
 26 30  1  0  0  0  0
 27 24  1  1  0  0  0
 28 27  1  0  0  0  0
 29 28  1  0  0  0  0
 30 27  1  0  0  0  0
M  END
>  <MODEL>
7

>  <REMARK>
 VINA RESULT:      -8.1      3.212      7.638
  Name = 
  5 active torsions:
  status: ('A' for Active; 'I' for Inactive)
    1  A    between atoms: C_7  and  C_13
    2  A    between atoms: C_7  and  C_24
    3  A    between atoms: C_13  and  C_17
    4  A    between atoms: C_15  and  N_16
    5  A    between atoms: C_23  and  C_29
                            x       y       z     vdW  Elec       q    Type
                         _______ _______ _______ _____ _____    ______ ____

>  <TORSDO>
F 5

$$$$
=
 OpenBabel11042420223D

 30 35  0  0  1  0  0  0  0  0999 V2000
  160.4830  211.3210  154.8880 C   0  0  0  0  0  2  0  0  0  0  0  0
  160.2580  209.3940  156.6140 C   0  0  0  0  0  3  0  0  0  0  0  0
  161.3330  208.2810  152.0380 C   0  0  0  0  0  0  0  0  0  0  0  0
  161.6610  209.6340  150.2980 C   0  0  0  0  0  3  0  0  0  0  0  0
  160.0980  211.6680  157.2140 O   0  0  0  0  0  0  0  0  0  0  0  0
  161.3430  209.5860  151.6540 C   0  0  0  0  0  0  0  0  0  0  0  0
  160.7940  210.2290  153.9020 C   0  0  0  0  0  0  0  0  0  0  0  0
  161.0740  210.6000  152.5680 C   0  0  0  0  0  3  0  0  0  0  0  0
  161.0720  206.3630  153.6340 C   0  0  1  0  0  3  0  0  0  0  0  0
  160.2790  210.8300  156.2930 C   0  0  0  0  0  0  0  0  0  0  0  0
  162.4890  205.7980  153.4940 C   0  0  0  0  0  2  0  0  0  0  0  0
  161.0710  207.8510  153.3260 C   0  0  0  0  0  0  0  0  0  0  0  0
  160.7870  208.8490  154.2860 C   0  0  0  0  0  0  0  0  0  0  0  0
  161.8350  208.2830  149.9540 C   0  0  0  0  0  0  0  0  0  0  0  0
  161.4590  205.4650  152.4390 C   0  0  2  0  0  0  0  0  0  0  0  0
  161.7240  206.0970  151.1390 N   0  0  0  0  0  2  0  0  0  0  0  0
  161.6320  207.4900  151.0240 N   0  0  0  0  0  0  0  0  0  0  0  0
  160.4900  208.4750  155.6810 C   0  0  0  0  0  3  0  0  0  0  0  0
  162.4900  207.4050  147.5480 C   0  0  0  0  0  3  0  0  0  0  0  0
  162.1890  207.8030  148.6450 C   0  0  0  0  0  0  0  0  0  0  0  0
  161.0190  204.0150  152.4450 C   0  0  0  0  0  2  0  0  0  0  0  0
  160.0250  203.7670  151.3270 C   0  0  0  0  0  2  0  0  0  0  0  0
  161.1390  201.8790  150.3990 O   0  0  0  0  0  0  0  0  0  0  0  0
  160.8260  203.6850  148.9380 N   0  0  0  0  0  2  0  0  0  0  0  0
  160.6870  203.0410  150.2100 C   0  0  0  0  0  0  0  0  0  0  0  0
  161.4660  203.2120  145.4710 C   0  0  0  0  0  2  0  0  0  0  0  0
  161.4810  203.0890  147.7780 C   0  0  1  0  0  3  0  0  0  0  0  0
  160.7470  201.8470  147.3160 C   0  0  0  0  0  2  0  0  0  0  0  0
  160.6900  201.9570  145.8110 C   0  0  0  0  0  2  0  0  0  0  0  0
  161.5250  204.0340  146.6700 N   0  0  0  0  0  2  0  0  0  0  0  0
  1 10  1  0  0  0  0
  3 12  1  0  0  0  0
  4  6  1  0  0  0  0
  6  3  2  0  0  0  0
  6  8  1  0  0  0  0
  7 13  1  0  0  0  0
  7  1  1  0  0  0  0
  8  7  2  0  0  0  0
  9 11  1  1  0  0  0
 10  2  1  0  0  0  0
 10  5  2  0  0  0  0
 12  9  1  0  0  0  0
 12 13  2  0  0  0  0
 13 18  1  0  0  0  0
 14  4  2  0  0  0  0
 14 17  1  0  0  0  0
 15 21  1  6  0  0  0
 15 11  1  0  0  0  0
 15  9  1  0  0  0  0
 16 15  1  0  0  0  0
 17 16  1  0  0  0  0
 17  3  1  0  0  0  0
 18  2  2  0  0  0  0
 19 20  3  0  0  0  0
 20 14  1  0  0  0  0
 22 21  1  0  0  0  0
 24 25  1  0  0  0  0
 25 23  2  0  0  0  0
 25 22  1  0  0  0  0
 26 29  1  0  0  0  0
 26 30  1  0  0  0  0
 27 24  1  1  0  0  0
 28 27  1  0  0  0  0
 29 28  1  0  0  0  0
 30 27  1  0  0  0  0
M  END
>  <MODEL>
8

>  <REMARK>
 VINA RESULT:      -7.9      3.700      8.646
  Name = 
  5 active torsions:
  status: ('A' for Active; 'I' for Inactive)
    1  A    between atoms: C_7  and  C_13
    2  A    between atoms: C_7  and  C_24
    3  A    between atoms: C_13  and  C_17
    4  A    between atoms: C_15  and  N_16
    5  A    between atoms: C_23  and  C_29
                            x       y       z     vdW  Elec       q    Type
                         _______ _______ _______ _____ _____    ______ ____

>  <TORSDO>
F 5

$$$$
=
 OpenBabel11042420223D

 30 35  0  0  1  0  0  0  0  0999 V2000
  161.3980  203.0010  146.6270 C   0  0  0  0  0  2  0  0  0  0  0  0
  161.0010  201.5680  148.7550 C   0  0  0  0  0  3  0  0  0  0  0  0
  161.6290  206.3300  149.2640 C   0  0  0  0  0  0  0  0  0  0  0  0
  161.9360  207.8860  147.7000 C   0  0  0  0  0  3  0  0  0  0  0  0
  160.9300  200.6650  146.5780 O   0  0  0  0  0  0  0  0  0  0  0  0
  161.7510  206.5230  147.9230 C   0  0  0  0  0  0  0  0  0  0  0  0
  161.4620  204.1640  147.5790 C   0  0  0  0  0  0  0  0  0  0  0  0
  161.6740  205.4520  147.0380 C   0  0  0  0  0  3  0  0  0  0  0  0
  161.3100  205.0030  151.3690 C   0  0  1  0  0  3  0  0  0  0  0  0
  161.0910  201.6890  147.2920 C   0  0  0  0  0  0  0  0  0  0  0  0
  160.0380  205.7050  151.8530 C   0  0  0  0  0  2  0  0  0  0  0  0
  161.4170  205.0990  149.8570 C   0  0  0  0  0  0  0  0  0  0  0  0
  161.3370  203.9810  148.9940 C   0  0  0  0  0  0  0  0  0  0  0  0
  161.9000  208.4390  148.9900 C   0  0  0  0  0  0  0  0  0  0  0  0
  161.3770  206.3620  152.1000 C   0  0  2  0  0  0  0  0  0  0  0  0
  161.5900  207.5800  151.3050 N   0  0  0  0  0  2  0  0  0  0  0  0
  161.7120  207.4760  149.9140 N   0  0  0  0  0  0  0  0  0  0  0  0
  161.1200  202.6310  149.5450 C   0  0  0  0  0  3  0  0  0  0  0  0
  162.1470  211.0090  149.5540 C   0  0  0  0  0  3  0  0  0  0  0  0
  162.0360  209.8380  149.2940 C   0  0  0  0  0  0  0  0  0  0  0  0
  161.7920  206.3850  153.5580 C   0  0  0  0  0  2  0  0  0  0  0  0
  160.6280  205.9670  154.4370 C   0  0  0  0  0  2  0  0  0  0  0  0
  159.3140  206.9590  156.1550 O   0  0  0  0  0  0  0  0  0  0  0  0
  161.3040  208.0820  155.6310 N   0  0  0  0  0  2  0  0  0  0  0  0
  160.3650  207.0120  155.4620 C   0  0  0  0  0  0  0  0  0  0  0  0
  160.7920  211.4610  156.6140 C   0  0  0  0  0  2  0  0  0  0  0  0
  161.1430  209.1780  156.5800 C   0  0  1  0  0  3  0  0  0  0  0  0
  162.4830  209.7840  156.9470 C   0  0  0  0  0  2  0  0  0  0  0  0
  162.2640  211.2780  156.9140 C   0  0  0  0  0  2  0  0  0  0  0  0
  160.3050  210.2280  156.0170 N   0  0  0  0  0  2  0  0  0  0  0  0
  1 10  1  0  0  0  0
  1  7  1  0  0  0  0
  2 18  2  0  0  0  0
  3 12  1  0  0  0  0
  3 17  1  0  0  0  0
  4  6  1  0  0  0  0
  4 14  2  0  0  0  0
  5 10  2  0  0  0  0
  6  3  2  0  0  0  0
  7 13  1  0  0  0  0
  8  7  2  0  0  0  0
  8  6  1  0  0  0  0
  9 11  1  6  0  0  0
  9 15  1  0  0  0  0
 10  2  1  0  0  0  0
 11 15  1  0  0  0  0
 12  9  1  0  0  0  0
 13 18  1  0  0  0  0
 13 12  2  0  0  0  0
 14 20  1  0  0  0  0
 14 17  1  0  0  0  0
 15 21  1  1  0  0  0
 16 15  1  0  0  0  0
 17 16  1  0  0  0  0
 20 19  3  0  0  0  0
 21 22  1  0  0  0  0
 22 25  1  0  0  0  0
 25 24  1  0  0  0  0
 25 23  2  0  0  0  0
 26 29  1  0  0  0  0
 27 24  1  6  0  0  0
 27 28  1  0  0  0  0
 29 28  1  0  0  0  0
 30 27  1  0  0  0  0
 30 26  1  0  0  0  0
M  END
>  <MODEL>
9

>  <REMARK>
 VINA RESULT:      -7.4      3.243      6.402
  Name = 
  5 active torsions:
  status: ('A' for Active; 'I' for Inactive)
    1  A    between atoms: C_7  and  C_13
    2  A    between atoms: C_7  and  C_24
    3  A    between atoms: C_13  and  C_17
    4  A    between atoms: C_15  and  N_16
    5  A    between atoms: C_23  and  C_29
                            x       y       z     vdW  Elec       q    Type
                         _______ _______ _______ _____ _____    ______ ____

>  <TORSDO>
F 5

$$$$
