=
 OpenBabel11042421103D

 28 30  0  0  1  0  0  0  0  0999 V2000
  161.5220  202.9280  147.7260 C   0  0  0  0  0  0  0  0  0  0  0  0
  160.2640  204.4890  149.1090 O   0  0  0  0  0  0  0  0  0  0  0  0
  160.4380  204.6350  150.4980 C   0  0  1  0  0  3  0  0  0  0  0  0
  161.0690  202.9630  152.3580 C   0  0  0  0  0  1  0  0  0  0  0  0
  160.6120  202.3260  149.9890 C   0  0  1  0  0  3  0  0  0  0  0  0
  162.2390  201.8900  147.7450 O   0  0  0  0  0  0  0  0  0  0  0  0
  159.6010  201.3860  149.7910 O   0  0  0  0  0  1  0  0  0  0  0  0
  160.6790  203.2200  148.8520 N   0  0  0  0  0  0  0  0  0  0  0  0
  160.2400  203.2440  151.1120 C   0  0  2  0  0  3  0  0  0  0  0  0
  162.1540  205.0190  146.6100 N   0  0  0  0  0  0  0  0  0  0  0  0
  160.9050  204.3420  144.2860 N   0  0  0  0  0  0  0  0  0  0  0  0
  161.5270  203.8120  146.5350 C   0  0  0  0  0  0  0  0  0  0  0  0
  160.2200  202.2170  145.1630 N   0  0  0  0  0  1  0  0  0  0  0  0
  162.1720  205.8880  145.5670 C   0  0  0  0  0  3  0  0  0  0  0  0
  160.8800  203.4680  145.3270 C   0  0  0  0  0  0  0  0  0  0  0  0
  161.5340  205.5420  144.3790 C   0  0  0  0  0  3  0  0  0  0  0  0
  161.8120  205.2540  150.7960 C   0  0  0  0  0  2  0  0  0  0  0  0
  163.0600  207.2940  150.9850 O   0  0  0  0  0  1  0  0  0  0  0  0
  161.7640  206.7700  151.0030 C   0  0  2  0  0  3  0  0  0  0  0  0
  161.6610  206.5020  153.5270 C   0  0  0  0  0  2  0  0  0  0  0  0
  160.5600  208.1830  154.9260 N   0  0  0  0  0  2  0  0  0  0  0  0
  160.7660  206.7530  154.7350 C   0  0  0  0  0  2  0  0  0  0  0  0
  160.2740  210.2990  154.0060 O   0  0  0  0  0  0  0  0  0  0  0  0
  160.5400  209.0830  153.8140 C   0  0  0  0  0  0  0  0  0  0  0  0
  160.8880  208.6040  152.5020 N   0  0  0  0  0  0  0  0  0  0  0  0
  161.0180  207.1460  152.2970 C   0  0  1  0  0  3  0  0  0  0  0  0
  162.5530  210.2660  151.8230 C   0  0  0  0  0  1  0  0  0  0  0  0
  161.2550  209.5670  151.4640 C   0  0  0  0  0  2  0  0  0  0  0  0
  1  6  2  0  0  0  0
  1  8  1  0  0  0  0
  2  3  1  0  0  0  0
  3 17  1  6  0  0  0
  3  9  1  0  0  0  0
  5  7  1  6  0  0  0
  5  9  1  0  0  0  0
  8  2  1  0  0  0  0
  8  5  1  0  0  0  0
  9  4  1  1  0  0  0
 11 16  2  0  0  0  0
 11 15  1  0  0  0  0
 12 10  1  0  0  0  0
 12  1  1  0  0  0  0
 13 15  1  0  0  0  0
 14 10  2  0  0  0  0
 15 12  2  0  0  0  0
 16 14  1  0  0  0  0
 17 19  1  0  0  0  0
 19 18  1  1  0  0  0
 20 22  1  0  0  0  0
 22 21  1  0  0  0  0
 24 23  2  0  0  0  0
 24 21  1  0  0  0  0
 25 24  1  0  0  0  0
 26 19  1  6  0  0  0
 26 25  1  0  0  0  0
 26 20  1  0  0  0  0
 28 27  1  0  0  0  0
 28 25  1  0  0  0  0
M  END
>  <MODEL>
1

>  <REMARK>
 VINA RESULT:      -7.1      0.000      0.000
  Name = 
  5 active torsions:
  status: ('A' for Active; 'I' for Inactive)
    1  A    between atoms: C_1  and  C_13
    2  A    between atoms: C_1  and  C_28
    3  A    between atoms: C_3  and  C_11
    4  A    between atoms: N_21  and  C_23
    5  A    between atoms: C_25  and  C_28
                            x       y       z     vdW  Elec       q    Type
                         _______ _______ _______ _____ _____    ______ ____

>  <TORSDO>
F 5

$$$$
=
 OpenBabel11042421103D

 28 30  0  0  1  0  0  0  0  0999 V2000
  160.8920  206.0580  149.3780 C   0  0  0  0  0  0  0  0  0  0  0  0
  162.3310  207.2370  150.9500 O   0  0  0  0  0  0  0  0  0  0  0  0
  162.2260  208.6100  151.2450 C   0  0  1  0  0  3  0  0  0  0  0  0
  161.5310  210.6460  149.8220 C   0  0  0  0  0  1  0  0  0  0  0  0
  161.8380  208.3390  148.9210 C   0  0  1  0  0  3  0  0  0  0  0  0
  160.0920  206.2030  148.4140 O   0  0  0  0  0  0  0  0  0  0  0  0
  162.7580  208.2050  147.8810 O   0  0  0  0  0  1  0  0  0  0  0  0
  161.8010  207.1210  149.7030 N   0  0  0  0  0  0  0  0  0  0  0  0
  162.3300  209.3530  149.9070 C   0  0  2  0  0  3  0  0  0  0  0  0
  160.7980  204.8240  151.4960 N   0  0  0  0  0  0  0  0  0  0  0  0
  161.1190  202.4050  150.2840 N   0  0  0  0  0  0  0  0  0  0  0  0
  160.9140  204.7840  150.1390 C   0  0  0  0  0  0  0  0  0  0  0  0
  161.1900  203.4010  148.1030 N   0  0  0  0  0  1  0  0  0  0  0  0
  160.8390  203.6980  152.2550 C   0  0  0  0  0  3  0  0  0  0  0  0
  161.0820  203.5260  149.5180 C   0  0  0  0  0  0  0  0  0  0  0  0
  161.0030  202.4630  151.6350 C   0  0  0  0  0  3  0  0  0  0  0  0
  160.9210  208.8870  152.0080 C   0  0  0  0  0  2  0  0  0  0  0  0
  162.4100  210.3280  153.2170 O   0  0  0  0  0  1  0  0  0  0  0  0
  161.0660  209.9630  153.0860 C   0  0  2  0  0  3  0  0  0  0  0  0
  161.5290  208.8590  155.3280 C   0  0  0  0  0  2  0  0  0  0  0  0
  160.0860  209.2850  157.2600 N   0  0  0  0  0  2  0  0  0  0  0  0
  160.8380  208.2600  156.5460 C   0  0  0  0  0  2  0  0  0  0  0  0
  158.7800  211.2070  157.2000 O   0  0  0  0  0  0  0  0  0  0  0  0
  159.4950  210.3870  156.5650 C   0  0  0  0  0  0  0  0  0  0  0  0
  159.7770  210.5840  155.1670 N   0  0  0  0  0  0  0  0  0  0  0  0
  160.4700  209.5060  154.4320 C   0  0  1  0  0  3  0  0  0  0  0  0
  158.1580  211.9000  153.8870 C   0  0  0  0  0  1  0  0  0  0  0  0
  159.5160  211.8900  154.5630 C   0  0  0  0  0  2  0  0  0  0  0  0
  1  8  1  0  0  0  0
  1 12  1  0  0  0  0
  2  3  1  0  0  0  0
  3 17  1  6  0  0  0
  5  7  1  6  0  0  0
  5  8  1  0  0  0  0
  5  9  1  0  0  0  0
  6  1  2  0  0  0  0
  8  2  1  0  0  0  0
  9  4  1  1  0  0  0
  9  3  1  0  0  0  0
 10 14  1  0  0  0  0
 11 16  1  0  0  0  0
 12 10  2  0  0  0  0
 13 15  1  0  0  0  0
 15 12  1  0  0  0  0
 15 11  2  0  0  0  0
 16 14  2  0  0  0  0
 17 19  1  0  0  0  0
 19 18  1  1  0  0  0
 20 22  1  0  0  0  0
 22 21  1  0  0  0  0
 24 23  2  0  0  0  0
 24 21  1  0  0  0  0
 25 24  1  0  0  0  0
 26 19  1  6  0  0  0
 26 25  1  0  0  0  0
 26 20  1  0  0  0  0
 27 28  1  0  0  0  0
 28 25  1  0  0  0  0
M  END
>  <MODEL>
2

>  <REMARK>
 VINA RESULT:      -7.0      2.753      4.911
  Name = 
  5 active torsions:
  status: ('A' for Active; 'I' for Inactive)
    1  A    between atoms: C_1  and  C_13
    2  A    between atoms: C_1  and  C_28
    3  A    between atoms: C_3  and  C_11
    4  A    between atoms: N_21  and  C_23
    5  A    between atoms: C_25  and  C_28
                            x       y       z     vdW  Elec       q    Type
                         _______ _______ _______ _____ _____    ______ ____

>  <TORSDO>
F 5

$$$$
=
 OpenBabel11042421103D

 28 30  0  0  1  0  0  0  0  0999 V2000
  161.5810  202.8490  147.7440 C   0  0  0  0  0  0  0  0  0  0  0  0
  160.4170  204.4280  149.1870 O   0  0  0  0  0  0  0  0  0  0  0  0
  160.6350  204.5450  150.5730 C   0  0  1  0  0  3  0  0  0  0  0  0
  161.2630  202.8220  152.3860 C   0  0  0  0  0  1  0  0  0  0  0  0
  160.7160  202.2400  150.0220 C   0  0  1  0  0  3  0  0  0  0  0  0
  162.2620  201.7870  147.7250 O   0  0  0  0  0  0  0  0  0  0  0  0
  159.6680  201.3380  149.8400 O   0  0  0  0  0  1  0  0  0  0  0  0
  160.7800  203.1500  148.8980 N   0  0  0  0  0  0  0  0  0  0  0  0
  160.4080  203.1510  151.1700 C   0  0  2  0  0  3  0  0  0  0  0  0
  162.2350  204.9440  146.6480 N   0  0  0  0  0  0  0  0  0  0  0  0
  160.9260  204.3310  144.3390 N   0  0  0  0  0  0  0  0  0  0  0  0
  161.5810  203.7520  146.5660 C   0  0  0  0  0  0  0  0  0  0  0  0
  160.2130  202.2070  145.1960 N   0  0  0  0  0  1  0  0  0  0  0  0
  162.2510  205.8280  145.6180 C   0  0  0  0  0  3  0  0  0  0  0  0
  160.9030  203.4410  145.3660 C   0  0  0  0  0  0  0  0  0  0  0  0
  161.5820  205.5150  144.4390 C   0  0  0  0  0  3  0  0  0  0  0  0
  162.0380  205.1130  150.8390 C   0  0  0  0  0  2  0  0  0  0  0  0
  160.7850  206.6730  152.1620 O   0  0  0  0  0  1  0  0  0  0  0  0
  162.0200  206.4750  151.5360 C   0  0  2  0  0  3  0  0  0  0  0  0
  161.5820  207.4770  149.2420 C   0  0  0  0  0  2  0  0  0  0  0  0
  161.9560  209.8600  148.8190 N   0  0  0  0  0  2  0  0  0  0  0  0
  162.0980  208.5210  148.2590 C   0  0  0  0  0  2  0  0  0  0  0  0
  162.0090  211.2660  150.6690 O   0  0  0  0  0  0  0  0  0  0  0  0
  162.0510  210.0860  150.2280 C   0  0  0  0  0  0  0  0  0  0  0  0
  162.1250  208.9650  151.1280 N   0  0  0  0  0  0  0  0  0  0  0  0
  162.3480  207.6200  150.5590 C   0  0  1  0  0  3  0  0  0  0  0  0
  160.4300  209.7440  152.7130 C   0  0  0  0  0  1  0  0  0  0  0  0
  161.8220  209.1660  152.5450 C   0  0  0  0  0  2  0  0  0  0  0  0
  1  8  1  0  0  0  0
  2  3  1  0  0  0  0
  3 17  1  6  0  0  0
  3  9  1  0  0  0  0
  5  7  1  6  0  0  0
  5  9  1  0  0  0  0
  6  1  2  0  0  0  0
  8  2  1  0  0  0  0
  8  5  1  0  0  0  0
  9  4  1  1  0  0  0
 11 16  2  0  0  0  0
 11 15  1  0  0  0  0
 12 10  1  0  0  0  0
 12  1  1  0  0  0  0
 13 15  1  0  0  0  0
 14 10  2  0  0  0  0
 15 12  2  0  0  0  0
 16 14  1  0  0  0  0
 17 19  1  0  0  0  0
 19 18  1  6  0  0  0
 20 26  1  0  0  0  0
 21 24  1  0  0  0  0
 22 21  1  0  0  0  0
 22 20  1  0  0  0  0
 24 23  2  0  0  0  0
 24 25  1  0  0  0  0
 25 28  1  0  0  0  0
 26 25  1  0  0  0  0
 26 19  1  1  0  0  0
 28 27  1  0  0  0  0
M  END
>  <MODEL>
3

>  <REMARK>
 VINA RESULT:      -6.9      1.550      2.413
  Name = 
  5 active torsions:
  status: ('A' for Active; 'I' for Inactive)
    1  A    between atoms: C_1  and  C_13
    2  A    between atoms: C_1  and  C_28
    3  A    between atoms: C_3  and  C_11
    4  A    between atoms: N_21  and  C_23
    5  A    between atoms: C_25  and  C_28
                            x       y       z     vdW  Elec       q    Type
                         _______ _______ _______ _____ _____    ______ ____

>  <TORSDO>
F 5

$$$$
=
 OpenBabel11042421103D

 28 30  0  0  1  0  0  0  0  0999 V2000
  160.2570  211.7670  151.9840 C   0  0  0  0  0  0  0  0  0  0  0  0
  161.9820  210.0680  152.2360 O   0  0  0  0  0  0  0  0  0  0  0  0
  161.7970  208.8430  152.9050 C   0  0  1  0  0  3  0  0  0  0  0  0
  160.3530  208.1700  154.9340 C   0  0  0  0  0  1  0  0  0  0  0  0
  160.6400  210.5140  154.1270 C   0  0  1  0  0  3  0  0  0  0  0  0
  159.1510  212.1790  152.4300 O   0  0  0  0  0  0  0  0  0  0  0  0
  161.1320  211.4280  155.0590 O   0  0  0  0  0  1  0  0  0  0  0  0
  161.0610  210.8960  152.7950 N   0  0  0  0  0  0  0  0  0  0  0  0
  161.3050  209.1860  154.3170 C   0  0  2  0  0  3  0  0  0  0  0  0
  161.4890  211.3640  149.9020 N   0  0  0  0  0  0  0  0  0  0  0  0
  160.9540  213.8460  148.9170 N   0  0  0  0  0  0  0  0  0  0  0  0
  160.7330  212.2140  150.6510 C   0  0  0  0  0  0  0  0  0  0  0  0
  159.6620  214.4380  150.8500 N   0  0  0  0  0  1  0  0  0  0  0  0
  161.9790  211.7180  148.6860 C   0  0  0  0  0  3  0  0  0  0  0  0
  160.4600  213.5000  150.1350 C   0  0  0  0  0  0  0  0  0  0  0  0
  161.7060  212.9870  148.1840 C   0  0  0  0  0  3  0  0  0  0  0  0
  160.8290  207.9500  152.1120 C   0  0  0  0  0  2  0  0  0  0  0  0
  162.8010  206.6010  151.8880 O   0  0  0  0  0  1  0  0  0  0  0  0
  161.4070  206.5710  151.7840 C   0  0  2  0  0  3  0  0  0  0  0  0
  161.5820  206.9000  149.2710 C   0  0  0  0  0  2  0  0  0  0  0  0
  161.1130  205.0590  147.7270 N   0  0  0  0  0  2  0  0  0  0  0  0
  160.9430  206.4890  147.9500 C   0  0  0  0  0  2  0  0  0  0  0  0
  161.2210  202.9020  148.5890 O   0  0  0  0  0  0  0  0  0  0  0  0
  161.1600  204.1390  148.8220 C   0  0  0  0  0  0  0  0  0  0  0  0
  161.2040  204.6390  150.1710 N   0  0  0  0  0  0  0  0  0  0  0  0
  160.9530  206.0770  150.3970 C   0  0  1  0  0  3  0  0  0  0  0  0
  160.4570  203.2330  152.0310 C   0  0  0  0  0  1  0  0  0  0  0  0
  161.6480  203.7510  151.2470 C   0  0  0  0  0  2  0  0  0  0  0  0
  1  6  2  0  0  0  0
  1  8  1  0  0  0  0
  2  8  1  0  0  0  0
  2  3  1  0  0  0  0
  3 17  1  6  0  0  0
  3  9  1  0  0  0  0
  5  9  1  0  0  0  0
  5  7  1  1  0  0  0
  8  5  1  0  0  0  0
  9  4  1  6  0  0  0
 10 12  1  0  0  0  0
 11 15  1  0  0  0  0
 12  1  1  0  0  0  0
 14 10  2  0  0  0  0
 15 12  2  0  0  0  0
 15 13  1  0  0  0  0
 16 14  1  0  0  0  0
 16 11  2  0  0  0  0
 19 18  1  6  0  0  0
 19 17  1  0  0  0  0
 20 26  1  0  0  0  0
 21 22  1  0  0  0  0
 21 24  1  0  0  0  0
 22 20  1  0  0  0  0
 23 24  2  0  0  0  0
 24 25  1  0  0  0  0
 25 26  1  0  0  0  0
 25 28  1  0  0  0  0
 26 19  1  1  0  0  0
 28 27  1  0  0  0  0
M  END
>  <MODEL>
4

>  <REMARK>
 VINA RESULT:      -6.5      2.789      7.868
  Name = 
  5 active torsions:
  status: ('A' for Active; 'I' for Inactive)
    1  A    between atoms: C_1  and  C_13
    2  A    between atoms: C_1  and  C_28
    3  A    between atoms: C_3  and  C_11
    4  A    between atoms: N_21  and  C_23
    5  A    between atoms: C_25  and  C_28
                            x       y       z     vdW  Elec       q    Type
                         _______ _______ _______ _____ _____    ______ ____

>  <TORSDO>
F 5

$$$$
=
 OpenBabel11042421103D

 28 30  0  0  1  0  0  0  0  0999 V2000
  162.1570  206.6520  151.6500 C   0  0  0  0  0  0  0  0  0  0  0  0
  160.3550  208.0410  152.5190 O   0  0  0  0  0  0  0  0  0  0  0  0
  160.4020  208.7210  153.7510 C   0  0  1  0  0  3  0  0  0  0  0  0
  161.5210  208.1590  156.0060 C   0  0  0  0  0  1  0  0  0  0  0  0
  161.4330  206.6070  154.0550 C   0  0  1  0  0  3  0  0  0  0  0  0
  163.2030  206.0180  151.9590 O   0  0  0  0  0  0  0  0  0  0  0  0
  160.8470  205.3630  154.2870 O   0  0  0  0  0  1  0  0  0  0  0  0
  161.2170  207.0010  152.6780 N   0  0  0  0  0  0  0  0  0  0  0  0
  160.7020  207.6640  154.8220 C   0  0  2  0  0  3  0  0  0  0  0  0
  162.2630  208.2210  149.7670 N   0  0  0  0  0  0  0  0  0  0  0  0
  160.9990  206.5110  148.0650 N   0  0  0  0  0  0  0  0  0  0  0  0
  161.8890  206.9960  150.2310 C   0  0  0  0  0  0  0  0  0  0  0  0
  160.8290  204.8100  149.7480 N   0  0  0  0  0  1  0  0  0  0  0  0
  162.0230  208.6100  148.4890 C   0  0  0  0  0  3  0  0  0  0  0  0
  161.2330  206.1150  149.3430 C   0  0  0  0  0  0  0  0  0  0  0  0
  161.3770  207.7360  147.6190 C   0  0  0  0  0  3  0  0  0  0  0  0
  161.4400  209.8520  153.6900 C   0  0  0  0  0  2  0  0  0  0  0  0
  161.4070  211.4710  155.4600 O   0  0  0  0  0  1  0  0  0  0  0  0
  160.9020  211.1970  154.1850 C   0  0  2  0  0  3  0  0  0  0  0  0
  158.7770  211.1810  155.5780 C   0  0  0  0  0  2  0  0  0  0  0  0
  156.6930  212.1240  154.7030 N   0  0  0  0  0  2  0  0  0  0  0  0
  157.2640  211.0270  155.4750 C   0  0  0  0  0  2  0  0  0  0  0  0
  156.8730  213.6310  152.9420 O   0  0  0  0  0  0  0  0  0  0  0  0
  157.4290  212.7450  153.6450 C   0  0  0  0  0  0  0  0  0  0  0  0
  158.8110  212.4000  153.4380 N   0  0  0  0  0  0  0  0  0  0  0  0
  159.3620  211.2380  154.1650 C   0  0  1  0  0  3  0  0  0  0  0  0
  159.7430  212.8110  151.2120 C   0  0  0  0  0  1  0  0  0  0  0  0
  159.6590  213.2930  152.6480 C   0  0  0  0  0  2  0  0  0  0  0  0
  1  6  2  0  0  0  0
  1  8  1  0  0  0  0
  2  8  1  0  0  0  0
  2  3  1  0  0  0  0
  3 17  1  6  0  0  0
  3  9  1  0  0  0  0
  5  7  1  6  0  0  0
  5  9  1  0  0  0  0
  8  5  1  0  0  0  0
  9  4  1  1  0  0  0
 10 12  1  0  0  0  0
 11 15  1  0  0  0  0
 12  1  1  0  0  0  0
 14 10  2  0  0  0  0
 15 13  1  0  0  0  0
 15 12  2  0  0  0  0
 16 11  2  0  0  0  0
 16 14  1  0  0  0  0
 17 19  1  0  0  0  0
 19 18  1  1  0  0  0
 21 22  1  0  0  0  0
 22 20  1  0  0  0  0
 23 24  2  0  0  0  0
 24 21  1  0  0  0  0
 25 24  1  0  0  0  0
 25 26  1  0  0  0  0
 26 19  1  1  0  0  0
 26 20  1  0  0  0  0
 27 28  1  0  0  0  0
 28 25  1  0  0  0  0
M  END
>  <MODEL>
5

>  <REMARK>
 VINA RESULT:      -6.5      3.281      5.201
  Name = 
  5 active torsions:
  status: ('A' for Active; 'I' for Inactive)
    1  A    between atoms: C_1  and  C_13
    2  A    between atoms: C_1  and  C_28
    3  A    between atoms: C_3  and  C_11
    4  A    between atoms: N_21  and  C_23
    5  A    between atoms: C_25  and  C_28
                            x       y       z     vdW  Elec       q    Type
                         _______ _______ _______ _____ _____    ______ ____

>  <TORSDO>
F 5

$$$$
=
 OpenBabel11042421103D

 28 30  0  0  1  0  0  0  0  0999 V2000
  161.9770  209.7710  152.7860 C   0  0  0  0  0  0  0  0  0  0  0  0
  160.5610  208.3980  151.3570 O   0  0  0  0  0  0  0  0  0  0  0  0
  161.0340  207.6270  150.2780 C   0  0  1  0  0  3  0  0  0  0  0  0
  162.9710  207.9730  148.6100 C   0  0  0  0  0  1  0  0  0  0  0  0
  162.2410  209.6680  150.2900 C   0  0  1  0  0  3  0  0  0  0  0  0
  163.1010  210.3360  152.8760 O   0  0  0  0  0  0  0  0  0  0  0  0
  161.8750  210.9150  149.7840 O   0  0  0  0  0  1  0  0  0  0  0  0
  161.4850  209.3860  151.4920 N   0  0  0  0  0  0  0  0  0  0  0  0
  161.7930  208.5880  149.3550 C   0  0  2  0  0  3  0  0  0  0  0  0
  161.2490  208.3450  154.6450 N   0  0  0  0  0  0  0  0  0  0  0  0
  159.5320  210.2220  155.6200 N   0  0  0  0  0  0  0  0  0  0  0  0
  161.1600  209.5440  154.0040 C   0  0  0  0  0  0  0  0  0  0  0  0
  160.1320  211.7960  153.9120 N   0  0  0  0  0  1  0  0  0  0  0  0
  160.5090  208.0630  155.7480 C   0  0  0  0  0  3  0  0  0  0  0  0
  160.2670  210.5120  154.5150 C   0  0  0  0  0  0  0  0  0  0  0  0
  159.6320  209.0210  156.2460 C   0  0  0  0  0  3  0  0  0  0  0  0
  161.8890  206.4610  150.7970 C   0  0  0  0  0  2  0  0  0  0  0  0
  161.1890  205.3990  152.8320 O   0  0  0  0  0  1  0  0  0  0  0  0
  161.0640  205.3430  151.4400 C   0  0  2  0  0  3  0  0  0  0  0  0
  160.8890  202.8280  151.7550 C   0  0  0  0  0  2  0  0  0  0  0  0
  161.1740  201.3020  149.8610 N   0  0  0  0  0  2  0  0  0  0  0  0
  161.4740  201.5050  151.2730 C   0  0  0  0  0  2  0  0  0  0  0  0
  160.8850  202.1920  147.7330 O   0  0  0  0  0  0  0  0  0  0  0  0
  161.0580  202.4080  148.9620 C   0  0  0  0  0  0  0  0  0  0  0  0
  161.0750  203.7520  149.4790 N   0  0  0  0  0  0  0  0  0  0  0  0
  161.4560  203.9570  150.8910 C   0  0  1  0  0  3  0  0  0  0  0  0
  161.4880  205.0830  147.4660 C   0  0  0  0  0  1  0  0  0  0  0  0
  160.5660  204.8430  148.6470 C   0  0  0  0  0  2  0  0  0  0  0  0
  1  6  2  0  0  0  0
  1 12  1  0  0  0  0
  2  8  1  0  0  0  0
  3 17  1  1  0  0  0
  3  2  1  0  0  0  0
  5  7  1  6  0  0  0
  5  8  1  0  0  0  0
  8  1  1  0  0  0  0
  9  4  1  1  0  0  0
  9  3  1  0  0  0  0
  9  5  1  0  0  0  0
 10 14  1  0  0  0  0
 11 16  1  0  0  0  0
 12 15  1  0  0  0  0
 12 10  2  0  0  0  0
 13 15  1  0  0  0  0
 14 16  2  0  0  0  0
 15 11  2  0  0  0  0
 17 19  1  0  0  0  0
 19 18  1  1  0  0  0
 21 22  1  0  0  0  0
 22 20  1  0  0  0  0
 23 24  2  0  0  0  0
 24 25  1  0  0  0  0
 24 21  1  0  0  0  0
 25 26  1  0  0  0  0
 26 19  1  1  0  0  0
 26 20  1  0  0  0  0
 27 28  1  0  0  0  0
 28 25  1  0  0  0  0
M  END
>  <MODEL>
6

>  <REMARK>
 VINA RESULT:      -6.4      2.277      8.059
  Name = 
  5 active torsions:
  status: ('A' for Active; 'I' for Inactive)
    1  A    between atoms: C_1  and  C_13
    2  A    between atoms: C_1  and  C_28
    3  A    between atoms: C_3  and  C_11
    4  A    between atoms: N_21  and  C_23
    5  A    between atoms: C_25  and  C_28
                            x       y       z     vdW  Elec       q    Type
                         _______ _______ _______ _____ _____    ______ ____

>  <TORSDO>
F 5

$$$$
=
 OpenBabel11042421103D

 28 30  0  0  1  0  0  0  0  0999 V2000
  161.9110  209.5030  152.6650 C   0  0  0  0  0  0  0  0  0  0  0  0
  160.4880  208.1500  151.2240 O   0  0  0  0  0  0  0  0  0  0  0  0
  160.9460  207.4430  150.0960 C   0  0  1  0  0  3  0  0  0  0  0  0
  162.8120  207.9230  148.3820 C   0  0  0  0  0  1  0  0  0  0  0  0
  162.0910  209.5180  150.1590 C   0  0  1  0  0  3  0  0  0  0  0  0
  163.0200  210.0990  152.7420 O   0  0  0  0  0  0  0  0  0  0  0  0
  161.6690  210.7740  149.7220 O   0  0  0  0  0  1  0  0  0  0  0  0
  161.3860  209.1600  151.3720 N   0  0  0  0  0  0  0  0  0  0  0  0
  161.6440  208.4670  149.1920 C   0  0  2  0  0  3  0  0  0  0  0  0
  161.1670  207.9290  154.3920 N   0  0  0  0  0  0  0  0  0  0  0  0
  159.6670  209.8030  155.6800 N   0  0  0  0  0  0  0  0  0  0  0  0
  161.1450  209.1980  153.8980 C   0  0  0  0  0  0  0  0  0  0  0  0
  160.3040  211.5170  154.1270 N   0  0  0  0  0  1  0  0  0  0  0  0
  160.4670  207.5760  155.5000 C   0  0  0  0  0  3  0  0  0  0  0  0
  160.3630  210.1650  154.5700 C   0  0  0  0  0  0  0  0  0  0  0  0
  159.7000  208.5330  156.1580 C   0  0  0  0  0  3  0  0  0  0  0  0
  161.8530  206.2830  150.5340 C   0  0  0  0  0  2  0  0  0  0  0  0
  161.9150  203.9570  151.1190 O   0  0  0  0  0  1  0  0  0  0  0  0
  161.1930  204.9090  150.3930 C   0  0  2  0  0  3  0  0  0  0  0  0
  162.3020  204.8110  148.1090 C   0  0  0  0  0  2  0  0  0  0  0  0
  161.5710  203.1900  146.4250 N   0  0  0  0  0  2  0  0  0  0  0  0
  162.0120  204.5640  146.6330 C   0  0  0  0  0  2  0  0  0  0  0  0
  160.3940  201.3350  147.1860 O   0  0  0  0  0  0  0  0  0  0  0  0
  160.8350  202.4890  147.4320 C   0  0  0  0  0  0  0  0  0  0  0  0
  160.6630  203.0810  148.7330 N   0  0  0  0  0  0  0  0  0  0  0  0
  161.0400  204.4980  148.9160 C   0  0  1  0  0  3  0  0  0  0  0  0
  161.2320  201.0600  149.9910 C   0  0  0  0  0  1  0  0  0  0  0  0
  160.2770  202.2310  149.8590 C   0  0  0  0  0  2  0  0  0  0  0  0
  1  6  2  0  0  0  0
  1 12  1  0  0  0  0
  2  8  1  0  0  0  0
  3 17  1  1  0  0  0
  3  2  1  0  0  0  0
  5  7  1  6  0  0  0
  5  8  1  0  0  0  0
  8  1  1  0  0  0  0
  9  4  1  1  0  0  0
  9  3  1  0  0  0  0
  9  5  1  0  0  0  0
 10 14  1  0  0  0  0
 11 16  1  0  0  0  0
 12 10  2  0  0  0  0
 12 15  1  0  0  0  0
 13 15  1  0  0  0  0
 14 16  2  0  0  0  0
 15 11  2  0  0  0  0
 19 17  1  0  0  0  0
 19 18  1  1  0  0  0
 20 26  1  0  0  0  0
 21 22  1  0  0  0  0
 21 24  1  0  0  0  0
 22 20  1  0  0  0  0
 23 24  2  0  0  0  0
 24 25  1  0  0  0  0
 25 26  1  0  0  0  0
 25 28  1  0  0  0  0
 26 19  1  1  0  0  0
 28 27  1  0  0  0  0
M  END
>  <MODEL>
7

>  <REMARK>
 VINA RESULT:      -6.1      1.966      8.370
  Name = 
  5 active torsions:
  status: ('A' for Active; 'I' for Inactive)
    1  A    between atoms: C_1  and  C_13
    2  A    between atoms: C_1  and  C_28
    3  A    between atoms: C_3  and  C_11
    4  A    between atoms: N_21  and  C_23
    5  A    between atoms: C_25  and  C_28
                            x       y       z     vdW  Elec       q    Type
                         _______ _______ _______ _____ _____    ______ ____

>  <TORSDO>
F 5

$$$$
=
 OpenBabel11042421103D

 28 30  0  0  1  0  0  0  0  0999 V2000
  160.0370  211.0580  152.2160 C   0  0  0  0  0  0  0  0  0  0  0  0
  162.0220  209.6530  152.1050 O   0  0  0  0  0  0  0  0  0  0  0  0
  162.0360  208.2760  152.3980 C   0  0  1  0  0  3  0  0  0  0  0  0
  160.6910  206.8390  154.0660 C   0  0  0  0  0  1  0  0  0  0  0  0
  160.5880  209.3290  153.9520 C   0  0  1  0  0  3  0  0  0  0  0  0
  158.8680  211.1470  152.6830 O   0  0  0  0  0  0  0  0  0  0  0  0
  160.8990  210.0100  155.1300 O   0  0  0  0  0  1  0  0  0  0  0  0
  160.9620  210.1330  152.8080 N   0  0  0  0  0  0  0  0  0  0  0  0
  161.4660  208.1250  153.8140 C   0  0  2  0  0  3  0  0  0  0  0  0
  161.3070  211.4350  150.1520 N   0  0  0  0  0  0  0  0  0  0  0  0
  160.4740  214.0190  149.9230 N   0  0  0  0  0  0  0  0  0  0  0  0
  160.4540  211.9310  151.0910 C   0  0  0  0  0  0  0  0  0  0  0  0
  159.1220  213.8580  151.8970 N   0  0  0  0  0  1  0  0  0  0  0  0
  161.7500  212.1890  149.1130 C   0  0  0  0  0  3  0  0  0  0  0  0
  160.0280  213.2730  150.9670 C   0  0  0  0  0  0  0  0  0  0  0  0
  161.3250  213.5090  148.9960 C   0  0  0  0  0  3  0  0  0  0  0  0
  161.2510  207.5010  151.3290 C   0  0  0  0  0  2  0  0  0  0  0  0
  162.4900  208.2320  149.4090 O   0  0  0  0  0  1  0  0  0  0  0  0
  162.1040  207.0940  150.1250 C   0  0  2  0  0  3  0  0  0  0  0  0
  161.9560  206.0580  147.8100 C   0  0  0  0  0  2  0  0  0  0  0  0
  160.9660  203.8420  147.4860 N   0  0  0  0  0  2  0  0  0  0  0  0
  161.0690  205.1860  146.9300 C   0  0  0  0  0  2  0  0  0  0  0  0
  160.8440  202.4560  149.3490 O   0  0  0  0  0  0  0  0  0  0  0  0
  161.0230  203.6190  148.8980 C   0  0  0  0  0  0  0  0  0  0  0  0
  161.3490  204.7090  149.7800 N   0  0  0  0  0  0  0  0  0  0  0  0
  161.3740  206.0790  149.2250 C   0  0  1  0  0  3  0  0  0  0  0  0
  160.6300  203.9440  151.9910 C   0  0  0  0  0  1  0  0  0  0  0  0
  161.7950  204.4170  151.1420 C   0  0  0  0  0  2  0  0  0  0  0  0
  1  6  2  0  0  0  0
  1  8  1  0  0  0  0
  2  3  1  0  0  0  0
  2  8  1  0  0  0  0
  3 17  1  6  0  0  0
  3  9  1  0  0  0  0
  5  7  1  1  0  0  0
  8  5  1  0  0  0  0
  9  5  1  0  0  0  0
  9  4  1  6  0  0  0
 10 12  1  0  0  0  0
 11 15  1  0  0  0  0
 12  1  1  0  0  0  0
 14 10  2  0  0  0  0
 15 12  2  0  0  0  0
 15 13  1  0  0  0  0
 16 14  1  0  0  0  0
 16 11  2  0  0  0  0
 19 18  1  6  0  0  0
 19 17  1  0  0  0  0
 20 26  1  0  0  0  0
 21 24  1  0  0  0  0
 22 21  1  0  0  0  0
 22 20  1  0  0  0  0
 24 23  2  0  0  0  0
 24 25  1  0  0  0  0
 25 28  1  0  0  0  0
 26 25  1  0  0  0  0
 26 19  1  1  0  0  0
 28 27  1  0  0  0  0
M  END
>  <MODEL>
8

>  <REMARK>
 VINA RESULT:      -5.9      2.594      7.770
  Name = 
  5 active torsions:
  status: ('A' for Active; 'I' for Inactive)
    1  A    between atoms: C_1  and  C_13
    2  A    between atoms: C_1  and  C_28
    3  A    between atoms: C_3  and  C_11
    4  A    between atoms: N_21  and  C_23
    5  A    between atoms: C_25  and  C_28
                            x       y       z     vdW  Elec       q    Type
                         _______ _______ _______ _____ _____    ______ ____

>  <TORSDO>
F 5

$$$$
=
 OpenBabel11042421103D

 28 30  0  0  1  0  0  0  0  0999 V2000
  160.8150  205.6930  148.7000 C   0  0  0  0  0  0  0  0  0  0  0  0
  162.4680  206.1830  150.4190 O   0  0  0  0  0  0  0  0  0  0  0  0
  162.4740  207.3530  151.2030 C   0  0  1  0  0  3  0  0  0  0  0  0
  161.7650  209.7830  150.7050 C   0  0  0  0  0  1  0  0  0  0  0  0
  161.8460  207.9640  148.9990 C   0  0  1  0  0  3  0  0  0  0  0  0
  159.9350  206.1980  147.9510 O   0  0  0  0  0  0  0  0  0  0  0  0
  162.6500  208.2040  147.8850 O   0  0  0  0  0  1  0  0  0  0  0  0
  161.8130  206.5450  149.2840 N   0  0  0  0  0  0  0  0  0  0  0  0
  162.4910  208.5340  150.2240 C   0  0  2  0  0  3  0  0  0  0  0  0
  161.2040  203.3990  147.9220 N   0  0  0  0  0  0  0  0  0  0  0  0
  160.4790  202.2990  150.3060 N   0  0  0  0  0  0  0  0  0  0  0  0
  160.8360  204.2280  148.9390 C   0  0  0  0  0  0  0  0  0  0  0  0
  160.0810  204.4510  151.2870 N   0  0  0  0  0  1  0  0  0  0  0  0
  161.2180  202.0490  148.0650 C   0  0  0  0  0  3  0  0  0  0  0  0
  160.4600  203.6500  150.1720 C   0  0  0  0  0  0  0  0  0  0  0  0
  160.8470  201.4870  149.2830 C   0  0  0  0  0  3  0  0  0  0  0  0
  161.2690  207.3560  152.1560 C   0  0  0  0  0  2  0  0  0  0  0  0
  161.9430  205.8320  153.8820 O   0  0  0  0  0  1  0  0  0  0  0  0
  161.6570  207.1770  153.6260 C   0  0  2  0  0  3  0  0  0  0  0  0
  160.5480  206.9530  155.9010 C   0  0  0  0  0  2  0  0  0  0  0  0
  159.3650  208.8430  156.9130 N   0  0  0  0  0  2  0  0  0  0  0  0
  159.3320  207.4010  156.7030 C   0  0  0  0  0  2  0  0  0  0  0  0
  159.8880  210.9650  156.1190 O   0  0  0  0  0  0  0  0  0  0  0  0
  159.9540  209.7190  155.9470 C   0  0  0  0  0  0  0  0  0  0  0  0
  160.6700  209.1670  154.8260 N   0  0  0  0  0  0  0  0  0  0  0  0
  160.5680  207.7140  154.5730 C   0  0  1  0  0  3  0  0  0  0  0  0
  162.7050  210.5180  154.9800 C   0  0  0  0  0  1  0  0  0  0  0  0
  161.5920  210.0210  154.0770 C   0  0  0  0  0  2  0  0  0  0  0  0
  1 12  1  0  0  0  0
  1  8  1  0  0  0  0
  2  3  1  0  0  0  0
  3 17  1  6  0  0  0
  5  7  1  6  0  0  0
  5  8  1  0  0  0  0
  5  9  1  0  0  0  0
  6  1  2  0  0  0  0
  8  2  1  0  0  0  0
  9  4  1  1  0  0  0
  9  3  1  0  0  0  0
 10 14  2  0  0  0  0
 10 12  1  0  0  0  0
 12 15  2  0  0  0  0
 14 16  1  0  0  0  0
 15 11  1  0  0  0  0
 15 13  1  0  0  0  0
 16 11  2  0  0  0  0
 17 19  1  0  0  0  0
 19 18  1  1  0  0  0
 20 22  1  0  0  0  0
 22 21  1  0  0  0  0
 24 23  2  0  0  0  0
 24 21  1  0  0  0  0
 25 24  1  0  0  0  0
 26 19  1  6  0  0  0
 26 25  1  0  0  0  0
 26 20  1  0  0  0  0
 28 25  1  0  0  0  0
 28 27  1  0  0  0  0
M  END
>  <MODEL>
9

>  <REMARK>
 VINA RESULT:      -5.7      2.447      4.265
  Name = 
  5 active torsions:
  status: ('A' for Active; 'I' for Inactive)
    1  A    between atoms: C_1  and  C_13
    2  A    between atoms: C_1  and  C_28
    3  A    between atoms: C_3  and  C_11
    4  A    between atoms: N_21  and  C_23
    5  A    between atoms: C_25  and  C_28
                            x       y       z     vdW  Elec       q    Type
                         _______ _______ _______ _____ _____    ______ ____

>  <TORSDO>
F 5

$$$$
