=
 OpenBabel11052409513D

 26 28  0  0  1  0  0  0  0  0999 V2000
  162.0820  208.9490  148.8230 C   0  0  0  0  0  0  0  0  0  0  0  0
  162.8350  206.6230  151.4360 N   0  0  0  0  0  0  0  0  0  0  0  0
  162.5720  210.2720  148.6430 N   0  0  0  0  0  1  0  0  0  0  0  0
  161.1670  204.9720  152.1680 C   0  0  2  0  0  3  0  0  0  0  0  0
  161.0340  206.1520  149.9110 C   0  0  0  0  0  0  0  0  0  0  0  0
  162.1590  207.0000  150.3910 C   0  0  0  0  0  0  0  0  0  0  0  0
  160.5920  207.3050  147.7060 C   0  0  0  0  0  3  0  0  0  0  0  0
  162.6460  205.3470  152.1230 C   0  0  0  0  0  2  0  0  0  0  0  0
  160.5960  204.9640  150.7480 C   0  0  1  0  0  3  0  0  0  0  0  0
  160.3920  206.3140  148.7600 C   0  0  0  0  0  3  0  0  0  0  0  0
  162.4400  208.3110  149.8940 N   0  0  0  0  0  0  0  0  0  0  0  0
  161.3030  208.3850  147.7650 N   0  0  0  0  0  0  0  0  0  0  0  0
  161.1270  203.6260  148.6980 C   0  0  0  0  0  3  0  0  0  0  0  0
  160.8620  203.6490  150.0710 C   0  0  0  0  0  0  0  0  0  0  0  0
  161.0820  201.2370  150.1090 C   0  0  0  0  0  3  0  0  0  0  0  0
  161.3620  202.4430  148.0670 N   0  0  0  0  0  0  0  0  0  0  0  0
  160.8380  202.4390  150.7760 C   0  0  0  0  0  3  0  0  0  0  0  0
  161.5960  200.0450  148.0440 N   0  0  0  0  0  1  0  0  0  0  0  0
  161.3460  201.2610  148.7390 C   0  0  0  0  0  0  0  0  0  0  0  0
  160.3670  205.9270  153.0550 C   0  0  0  0  0  2  0  0  0  0  0  0
  161.2510  206.8770  153.8610 C   0  0  1  0  0  3  0  0  0  0  0  0
  160.9750  208.2060  153.5280 O   0  0  0  0  0  1  0  0  0  0  0  0
  161.0920  206.6560  155.3570 C   0  0  0  0  0  2  0  0  0  0  0  0
  159.9300  207.4740  155.8890 C   0  0  0  0  0  2  0  0  0  0  0  0
  160.3840  208.3320  157.0560 C   0  0  0  0  0  2  0  0  0  0  0  0
  161.7760  208.4340  157.0590 O   0  0  0  0  0  1  0  0  0  0  0  0
  1 11  2  0  0  0  0
  2  8  1  0  0  0  0
  3  1  1  0  0  0  0
  4 20  1  1  0  0  0
  5  6  1  0  0  0  0
  5  9  1  0  0  0  0
  6  2  2  0  0  0  0
  7 12  2  0  0  0  0
  7 10  1  0  0  0  0
  8  4  1  0  0  0  0
  9 14  1  6  0  0  0
  9  4  1  0  0  0  0
 10  5  2  0  0  0  0
 11  6  1  0  0  0  0
 12  1  1  0  0  0  0
 13 14  1  0  0  0  0
 14 17  2  0  0  0  0
 15 17  1  0  0  0  0
 16 13  2  0  0  0  0
 16 19  1  0  0  0  0
 18 19  1  0  0  0  0
 19 15  2  0  0  0  0
 20 21  1  0  0  0  0
 21 22  1  1  0  0  0
 21 23  1  0  0  0  0
 23 24  1  0  0  0  0
 24 25  1  0  0  0  0
 25 26  1  0  0  0  0
M  END
>  <MODEL>
1

>  <REMARK>
 VINA RESULT:      -6.5      0.000      0.000
  Name = 
  6 active torsions:
  status: ('A' for Active; 'I' for Inactive)
    1  A    between atoms: C_4  and  C_21
    2  A    between atoms: C_6  and  C_14
    3  A    between atoms: C_11  and  C_14
    4  A    between atoms: C_11  and  C_25
    5  A    between atoms: C_12  and  C_24
    6  A    between atoms: C_24  and  C_25
                            x       y       z     vdW  Elec       q    Type
                         _______ _______ _______ _____ _____    ______ ____

>  <TORSDO>
F 6

$$$$
=
 OpenBabel11052409513D

 26 28  0  0  1  0  0  0  0  0999 V2000
  160.9160  207.8550  155.8490 C   0  0  0  0  0  0  0  0  0  0  0  0
  162.4950  206.2880  153.0460 N   0  0  0  0  0  0  0  0  0  0  0  0
  160.9760  207.4880  157.2220 N   0  0  0  0  0  1  0  0  0  0  0  0
  161.4470  206.3400  150.8230 C   0  0  2  0  0  3  0  0  0  0  0  0
  160.8240  207.9800  152.6740 C   0  0  0  0  0  0  0  0  0  0  0  0
  161.6720  207.1480  153.5710 C   0  0  0  0  0  0  0  0  0  0  0  0
  159.9180  209.6000  154.3890 C   0  0  0  0  0  3  0  0  0  0  0  0
  162.7410  206.1530  151.6120 C   0  0  0  0  0  2  0  0  0  0  0  0
  160.8150  207.6870  151.1850 C   0  0  1  0  0  3  0  0  0  0  0  0
  160.0910  209.0170  153.0620 C   0  0  0  0  0  3  0  0  0  0  0  0
  161.5150  207.0890  154.9910 N   0  0  0  0  0  0  0  0  0  0  0  0
  160.2760  209.0920  155.5250 N   0  0  0  0  0  0  0  0  0  0  0  0
  161.6620  208.5980  149.0110 C   0  0  0  0  0  3  0  0  0  0  0  0
  161.4200  208.7980  150.3730 C   0  0  0  0  0  0  0  0  0  0  0  0
  162.3310  211.0320  150.1630 C   0  0  0  0  0  3  0  0  0  0  0  0
  162.2170  209.5900  148.2620 N   0  0  0  0  0  0  0  0  0  0  0  0
  161.7630  210.0280  150.9490 C   0  0  0  0  0  3  0  0  0  0  0  0
  163.1290  211.8040  147.9910 N   0  0  0  0  0  1  0  0  0  0  0  0
  162.5510  210.7920  148.8060 C   0  0  0  0  0  0  0  0  0  0  0  0
  160.4560  205.2040  151.0800 C   0  0  0  0  0  2  0  0  0  0  0  0
  161.1220  203.8300  151.1270 C   0  0  1  0  0  3  0  0  0  0  0  0
  160.9540  203.2470  152.3860 O   0  0  0  0  0  1  0  0  0  0  0  0
  160.5890  202.9130  150.0370 C   0  0  0  0  0  2  0  0  0  0  0  0
  161.2060  203.2730  148.6980 C   0  0  0  0  0  2  0  0  0  0  0  0
  160.9560  202.1650  147.6910 C   0  0  0  0  0  2  0  0  0  0  0  0
  161.2060  200.9230  148.2780 O   0  0  0  0  0  1  0  0  0  0  0  0
  1  3  1  0  0  0  0
  2  6  2  0  0  0  0
  4 20  1  1  0  0  0
  4  9  1  0  0  0  0
  4  8  1  0  0  0  0
  5 10  2  0  0  0  0
  5  6  1  0  0  0  0
  6 11  1  0  0  0  0
  7 12  2  0  0  0  0
  8  2  1  0  0  0  0
  9 14  1  6  0  0  0
  9  5  1  0  0  0  0
 10  7  1  0  0  0  0
 11  1  2  0  0  0  0
 12  1  1  0  0  0  0
 13 14  1  0  0  0  0
 14 17  2  0  0  0  0
 15 17  1  0  0  0  0
 16 19  1  0  0  0  0
 16 13  2  0  0  0  0
 18 19  1  0  0  0  0
 19 15  2  0  0  0  0
 20 21  1  0  0  0  0
 21 22  1  1  0  0  0
 23 21  1  0  0  0  0
 24 23  1  0  0  0  0
 25 26  1  0  0  0  0
 25 24  1  0  0  0  0
M  END
>  <MODEL>
2

>  <REMARK>
 VINA RESULT:      -6.1      3.040      6.940
  Name = 
  6 active torsions:
  status: ('A' for Active; 'I' for Inactive)
    1  A    between atoms: C_4  and  C_21
    2  A    between atoms: C_6  and  C_14
    3  A    between atoms: C_11  and  C_14
    4  A    between atoms: C_11  and  C_25
    5  A    between atoms: C_12  and  C_24
    6  A    between atoms: C_24  and  C_25
                            x       y       z     vdW  Elec       q    Type
                         _______ _______ _______ _____ _____    ______ ____

>  <TORSDO>
F 6

$$$$
=
 OpenBabel11052409513D

 26 28  0  0  1  0  0  0  0  0999 V2000
  161.2220  201.7820  149.4090 C   0  0  0  0  0  0  0  0  0  0  0  0
  162.3790  204.4710  147.3520 N   0  0  0  0  0  0  0  0  0  0  0  0
  161.4110  200.3830  149.2320 N   0  0  0  0  0  1  0  0  0  0  0  0
  161.0960  206.5610  147.1780 C   0  0  2  0  0  3  0  0  0  0  0  0
  160.7870  204.9160  149.1010 C   0  0  0  0  0  0  0  0  0  0  0  0
  161.6750  203.9970  148.3370 C   0  0  0  0  0  0  0  0  0  0  0  0
  160.1800  203.3720  151.0080 C   0  0  0  0  0  3  0  0  0  0  0  0
  162.4550  205.8880  147.0000 C   0  0  0  0  0  2  0  0  0  0  0  0
  160.5950  206.3370  148.6060 C   0  0  1  0  0  3  0  0  0  0  0  0
  160.1680  204.6110  150.2360 C   0  0  0  0  0  3  0  0  0  0  0  0
  161.6740  202.5750  148.4880 N   0  0  0  0  0  0  0  0  0  0  0  0
  160.6290  202.2170  150.6360 N   0  0  0  0  0  0  0  0  0  0  0  0
  161.6490  208.5700  149.0310 C   0  0  0  0  0  3  0  0  0  0  0  0
  161.1740  207.3590  149.5440 C   0  0  0  0  0  0  0  0  0  0  0  0
  161.8180  208.0970  151.7590 C   0  0  0  0  0  3  0  0  0  0  0  0
  162.1840  209.5030  149.8640 N   0  0  0  0  0  0  0  0  0  0  0  0
  161.2660  207.1260  150.9220 C   0  0  0  0  0  3  0  0  0  0  0  0
  162.8430  210.2920  152.0430 N   0  0  0  0  0  1  0  0  0  0  0  0
  162.2760  209.2930  151.2050 C   0  0  0  0  0  0  0  0  0  0  0  0
  160.0710  206.0430  146.1690 C   0  0  0  0  0  2  0  0  0  0  0  0
  160.6610  205.8210  144.7770 C   0  0  1  0  0  3  0  0  0  0  0  0
  162.0530  205.9440  144.8090 O   0  0  0  0  0  1  0  0  0  0  0  0
  160.2560  204.4710  144.2070 C   0  0  0  0  0  2  0  0  0  0  0  0
  160.9130  203.3490  144.9920 C   0  0  0  0  0  2  0  0  0  0  0  0
  160.0400  202.1080  144.9610 C   0  0  0  0  0  2  0  0  0  0  0  0
  160.6350  201.0890  145.7060 O   0  0  0  0  0  1  0  0  0  0  0  0
  1 12  1  0  0  0  0
  2  6  2  0  0  0  0
  3  1  1  0  0  0  0
  4 20  1  6  0  0  0
  4  9  1  0  0  0  0
  5 10  2  0  0  0  0
  6 11  1  0  0  0  0
  6  5  1  0  0  0  0
  8  4  1  0  0  0  0
  8  2  1  0  0  0  0
  9  5  1  0  0  0  0
  9 14  1  1  0  0  0
 10  7  1  0  0  0  0
 11  1  2  0  0  0  0
 12  7  2  0  0  0  0
 13 14  2  0  0  0  0
 13 16  1  0  0  0  0
 14 17  1  0  0  0  0
 16 19  2  0  0  0  0
 17 15  2  0  0  0  0
 19 15  1  0  0  0  0
 19 18  1  0  0  0  0
 21 22  1  1  0  0  0
 21 20  1  0  0  0  0
 23 21  1  0  0  0  0
 23 24  1  0  0  0  0
 25 24  1  0  0  0  0
 25 26  1  0  0  0  0
M  END
>  <MODEL>
3

>  <REMARK>
 VINA RESULT:      -5.9      3.735      7.777
  Name = 
  6 active torsions:
  status: ('A' for Active; 'I' for Inactive)
    1  A    between atoms: C_4  and  C_21
    2  A    between atoms: C_6  and  C_14
    3  A    between atoms: C_11  and  C_14
    4  A    between atoms: C_11  and  C_25
    5  A    between atoms: C_12  and  C_24
    6  A    between atoms: C_24  and  C_25
                            x       y       z     vdW  Elec       q    Type
                         _______ _______ _______ _____ _____    ______ ____

>  <TORSDO>
F 6

$$$$
=
 OpenBabel11052409513D

 26 28  0  0  1  0  0  0  0  0999 V2000
  161.1860  206.5720  147.1720 C   0  0  0  0  0  0  0  0  0  0  0  0
  160.0180  204.8740  150.0980 N   0  0  0  0  0  0  0  0  0  0  0  0
  160.9500  206.2530  145.8060 N   0  0  0  0  0  1  0  0  0  0  0  0
  161.3520  204.8680  152.1630 C   0  0  2  0  0  3  0  0  0  0  0  0
  161.6970  206.5850  150.3100 C   0  0  0  0  0  0  0  0  0  0  0  0
  160.7510  205.7680  149.5020 C   0  0  0  0  0  0  0  0  0  0  0  0
  162.3420  208.2830  148.5520 C   0  0  0  0  0  3  0  0  0  0  0  0
  159.9680  204.6820  151.5460 C   0  0  0  0  0  2  0  0  0  0  0  0
  161.9090  206.2390  151.7720 C   0  0  1  0  0  3  0  0  0  0  0  0
  162.3560  207.6500  149.8680 C   0  0  0  0  0  3  0  0  0  0  0  0
  160.7180  205.7640  148.0720 N   0  0  0  0  0  0  0  0  0  0  0  0
  161.8440  207.8090  147.4560 N   0  0  0  0  0  0  0  0  0  0  0  0
  161.3150  207.0430  154.0690 C   0  0  0  0  0  3  0  0  0  0  0  0
  161.4010  207.3070  152.6990 C   0  0  0  0  0  0  0  0  0  0  0  0
  160.5190  209.5250  153.1160 C   0  0  0  0  0  3  0  0  0  0  0  0
  160.8490  207.9960  154.9210 N   0  0  0  0  0  0  0  0  0  0  0  0
  160.9940  208.5610  152.2240 C   0  0  0  0  0  3  0  0  0  0  0  0
  159.9730  210.1900  155.3990 N   0  0  0  0  0  1  0  0  0  0  0  0
  160.4550  209.2200  154.4760 C   0  0  0  0  0  0  0  0  0  0  0  0
  162.3170  203.7620  151.7340 C   0  0  0  0  0  2  0  0  0  0  0  0
  161.7050  202.3660  151.8240 C   0  0  1  0  0  3  0  0  0  0  0  0
  160.4020  202.4330  152.3260 O   0  0  0  0  0  1  0  0  0  0  0  0
  161.7220  201.6590  150.4770 C   0  0  0  0  0  2  0  0  0  0  0  0
  160.3100  201.3060  150.0490 C   0  0  0  0  0  2  0  0  0  0  0  0
  160.1000  201.6650  148.5890 C   0  0  0  0  0  2  0  0  0  0  0  0
  161.2490  202.2680  148.0760 O   0  0  0  0  0  1  0  0  0  0  0  0
  1 12  1  0  0  0  0
  1 11  2  0  0  0  0
  2  8  1  0  0  0  0
  3  1  1  0  0  0  0
  4 20  1  6  0  0  0
  5  9  1  0  0  0  0
  6  2  2  0  0  0  0
  6  5  1  0  0  0  0
  7 10  1  0  0  0  0
  8  4  1  0  0  0  0
  9  4  1  0  0  0  0
  9 14  1  1  0  0  0
 10  5  2  0  0  0  0
 11  6  1  0  0  0  0
 12  7  2  0  0  0  0
 13 16  1  0  0  0  0
 14 13  2  0  0  0  0
 15 19  1  0  0  0  0
 17 14  1  0  0  0  0
 17 15  2  0  0  0  0
 19 16  2  0  0  0  0
 19 18  1  0  0  0  0
 20 21  1  0  0  0  0
 21 22  1  6  0  0  0
 23 21  1  0  0  0  0
 24 23  1  0  0  0  0
 25 24  1  0  0  0  0
 26 25  1  0  0  0  0
M  END
>  <MODEL>
4

>  <REMARK>
 VINA RESULT:      -5.6      2.891      6.299
  Name = 
  6 active torsions:
  status: ('A' for Active; 'I' for Inactive)
    1  A    between atoms: C_4  and  C_21
    2  A    between atoms: C_6  and  C_14
    3  A    between atoms: C_11  and  C_14
    4  A    between atoms: C_11  and  C_25
    5  A    between atoms: C_12  and  C_24
    6  A    between atoms: C_24  and  C_25
                            x       y       z     vdW  Elec       q    Type
                         _______ _______ _______ _____ _____    ______ ____

>  <TORSDO>
F 6

$$$$
=
 OpenBabel11052409513D

 26 28  0  0  1  0  0  0  0  0999 V2000
  161.2930  201.6470  148.7350 C   0  0  0  0  0  0  0  0  0  0  0  0
  162.5930  204.4680  146.9580 N   0  0  0  0  0  0  0  0  0  0  0  0
  161.4940  200.2630  148.4740 N   0  0  0  0  0  1  0  0  0  0  0  0
  161.3250  206.5710  146.8390 C   0  0  2  0  0  3  0  0  0  0  0  0
  160.8800  204.7970  148.6160 C   0  0  0  0  0  0  0  0  0  0  0  0
  161.8200  203.9300  147.8550 C   0  0  0  0  0  0  0  0  0  0  0  0
  160.1390  203.1270  150.3630 C   0  0  0  0  0  3  0  0  0  0  0  0
  162.6930  205.9050  146.7130 C   0  0  0  0  0  2  0  0  0  0  0  0
  160.7220  206.2500  148.2100 C   0  0  1  0  0  3  0  0  0  0  0  0
  160.1810  204.4170  149.6800 C   0  0  0  0  0  3  0  0  0  0  0  0
  161.8080  202.5010  147.9060 N   0  0  0  0  0  0  0  0  0  0  0  0
  160.6130  201.9980  149.9430 N   0  0  0  0  0  0  0  0  0  0  0  0
  161.6330  208.4870  148.8770 C   0  0  0  0  0  3  0  0  0  0  0  0
  161.2330  207.2020  149.2550 C   0  0  0  0  0  0  0  0  0  0  0  0
  161.8220  207.7400  151.5420 C   0  0  0  0  0  3  0  0  0  0  0  0
  162.1060  209.3580  149.8090 N   0  0  0  0  0  0  0  0  0  0  0  0
  161.3340  206.8310  150.6030 C   0  0  0  0  0  3  0  0  0  0  0  0
  162.7060  209.9530  152.0660 N   0  0  0  0  0  1  0  0  0  0  0  0
  162.2060  209.0140  151.1210 C   0  0  0  0  0  0  0  0  0  0  0  0
  160.3740  206.1290  145.7260 C   0  0  0  0  0  2  0  0  0  0  0  0
  161.0970  205.5000  144.5370 C   0  0  1  0  0  3  0  0  0  0  0  0
  160.4560  204.3240  144.1380 O   0  0  0  0  0  1  0  0  0  0  0  0
  161.2060  206.4710  143.3720 C   0  0  0  0  0  2  0  0  0  0  0  0
  161.9550  205.8280  142.2180 C   0  0  0  0  0  2  0  0  0  0  0  0
  161.9570  206.7520  141.0150 C   0  0  0  0  0  2  0  0  0  0  0  0
  162.7620  206.2200  140.0060 O   0  0  0  0  0  1  0  0  0  0  0  0
  1 12  1  0  0  0  0
  2  6  2  0  0  0  0
  3  1  1  0  0  0  0
  4 20  1  6  0  0  0
  4  9  1  0  0  0  0
  5 10  2  0  0  0  0
  6 11  1  0  0  0  0
  6  5  1  0  0  0  0
  8  4  1  0  0  0  0
  8  2  1  0  0  0  0
  9  5  1  0  0  0  0
  9 14  1  1  0  0  0
 10  7  1  0  0  0  0
 11  1  2  0  0  0  0
 12  7  2  0  0  0  0
 13 14  2  0  0  0  0
 13 16  1  0  0  0  0
 14 17  1  0  0  0  0
 16 19  2  0  0  0  0
 17 15  2  0  0  0  0
 19 15  1  0  0  0  0
 19 18  1  0  0  0  0
 21 22  1  6  0  0  0
 21 20  1  0  0  0  0
 23 21  1  0  0  0  0
 24 23  1  0  0  0  0
 25 24  1  0  0  0  0
 26 25  1  0  0  0  0
M  END
>  <MODEL>
5

>  <REMARK>
 VINA RESULT:      -5.5      4.195      8.457
  Name = 
  6 active torsions:
  status: ('A' for Active; 'I' for Inactive)
    1  A    between atoms: C_4  and  C_21
    2  A    between atoms: C_6  and  C_14
    3  A    between atoms: C_11  and  C_14
    4  A    between atoms: C_11  and  C_25
    5  A    between atoms: C_12  and  C_24
    6  A    between atoms: C_24  and  C_25
                            x       y       z     vdW  Elec       q    Type
                         _______ _______ _______ _____ _____    ______ ____

>  <TORSDO>
F 6

$$$$
=
 OpenBabel11052409513D

 26 28  0  0  1  0  0  0  0  0999 V2000
  158.9460  212.7230  155.8310 C   0  0  0  0  0  0  0  0  0  0  0  0
  161.7370  210.8280  154.6380 N   0  0  0  0  0  0  0  0  0  0  0  0
  158.6480  213.1240  157.1630 N   0  0  0  0  0  1  0  0  0  0  0  0
  161.5140  209.3640  152.6760 C   0  0  2  0  0  3  0  0  0  0  0  0
  159.8790  211.2570  153.1690 C   0  0  0  0  0  0  0  0  0  0  0  0
  160.5790  211.4000  154.4740 C   0  0  0  0  0  0  0  0  0  0  0  0
  158.0390  212.9520  153.5300 C   0  0  0  0  0  3  0  0  0  0  0  0
  162.4710  210.1380  153.5790 C   0  0  0  0  0  2  0  0  0  0  0  0
  160.4460  210.3130  152.1260 C   0  0  1  0  0  3  0  0  0  0  0  0
  158.7980  211.9380  152.8040 C   0  0  0  0  0  3  0  0  0  0  0  0
  159.9850  211.9710  155.6430 N   0  0  0  0  0  0  0  0  0  0  0  0
  158.1280  213.2540  154.7850 N   0  0  0  0  0  0  0  0  0  0  0  0
  161.8670  210.4000  150.0650 C   0  0  0  0  0  3  0  0  0  0  0  0
  160.9460  211.0320  150.9050 C   0  0  0  0  0  0  0  0  0  0  0  0
  161.0210  212.9710  149.4540 C   0  0  0  0  0  3  0  0  0  0  0  0
  162.3370  211.0400  148.9600 N   0  0  0  0  0  0  0  0  0  0  0  0
  160.5260  212.3320  150.5920 C   0  0  0  0  0  3  0  0  0  0  0  0
  162.4500  212.9360  147.4770 N   0  0  0  0  0  1  0  0  0  0  0  0
  161.9350  212.2990  148.6400 C   0  0  0  0  0  0  0  0  0  0  0  0
  160.8570  208.1970  153.4140 C   0  0  0  0  0  2  0  0  0  0  0  0
  161.5140  206.8520  153.1100 C   0  0  1  0  0  3  0  0  0  0  0  0
  160.9390  205.8400  153.8850 O   0  0  0  0  0  1  0  0  0  0  0  0
  161.4280  206.5080  151.6320 C   0  0  0  0  0  2  0  0  0  0  0  0
  161.5810  205.0110  151.4290 C   0  0  0  0  0  2  0  0  0  0  0  0
  160.9010  204.5850  150.1410 C   0  0  0  0  0  2  0  0  0  0  0  0
  160.4670  203.2620  150.2460 O   0  0  0  0  0  1  0  0  0  0  0  0
  1  3  1  0  0  0  0
  4 20  1  1  0  0  0
  4  8  1  0  0  0  0
  5  6  1  0  0  0  0
  6  2  2  0  0  0  0
  6 11  1  0  0  0  0
  7 12  2  0  0  0  0
  8  2  1  0  0  0  0
  9 14  1  6  0  0  0
  9  4  1  0  0  0  0
  9  5  1  0  0  0  0
 10  5  2  0  0  0  0
 10  7  1  0  0  0  0
 11  1  2  0  0  0  0
 12  1  1  0  0  0  0
 13 14  1  0  0  0  0
 15 17  1  0  0  0  0
 16 13  2  0  0  0  0
 17 14  2  0  0  0  0
 18 19  1  0  0  0  0
 19 16  1  0  0  0  0
 19 15  2  0  0  0  0
 21 20  1  0  0  0  0
 21 22  1  1  0  0  0
 23 21  1  0  0  0  0
 24 23  1  0  0  0  0
 25 26  1  0  0  0  0
 25 24  1  0  0  0  0
M  END
>  <MODEL>
6

>  <REMARK>
 VINA RESULT:      -5.1      4.474      7.608
  Name = 
  6 active torsions:
  status: ('A' for Active; 'I' for Inactive)
    1  A    between atoms: C_4  and  C_21
    2  A    between atoms: C_6  and  C_14
    3  A    between atoms: C_11  and  C_14
    4  A    between atoms: C_11  and  C_25
    5  A    between atoms: C_12  and  C_24
    6  A    between atoms: C_24  and  C_25
                            x       y       z     vdW  Elec       q    Type
                         _______ _______ _______ _____ _____    ______ ____

>  <TORSDO>
F 6

$$$$
=
 OpenBabel11052409513D

 26 28  0  0  1  0  0  0  0  0999 V2000
  161.3790  204.1620  146.3350 C   0  0  0  0  0  0  0  0  0  0  0  0
  160.1480  205.3500  149.4780 N   0  0  0  0  0  0  0  0  0  0  0  0
  160.9900  203.0020  145.6100 N   0  0  0  0  0  1  0  0  0  0  0  0
  161.6090  206.6070  151.0050 C   0  0  2  0  0  3  0  0  0  0  0  0
  162.1150  206.3520  148.5190 C   0  0  0  0  0  0  0  0  0  0  0  0
  160.9820  205.3880  148.4800 C   0  0  0  0  0  0  0  0  0  0  0  0
  162.9190  206.1010  146.1360 C   0  0  0  0  0  3  0  0  0  0  0  0
  160.1720  206.2790  150.6070 C   0  0  0  0  0  2  0  0  0  0  0  0
  162.3700  207.1420  149.7900 C   0  0  1  0  0  3  0  0  0  0  0  0
  162.9190  206.6280  147.4980 C   0  0  0  0  0  3  0  0  0  0  0  0
  160.8430  204.3560  147.5000 N   0  0  0  0  0  0  0  0  0  0  0  0
  162.2660  205.0780  145.6870 N   0  0  0  0  0  0  0  0  0  0  0  0
  161.9010  209.1240  148.3300 C   0  0  0  0  0  3  0  0  0  0  0  0
  162.1290  208.6150  149.6120 C   0  0  0  0  0  0  0  0  0  0  0  0
  161.9240  210.8630  150.4920 C   0  0  0  0  0  3  0  0  0  0  0  0
  161.6900  210.4560  148.1500 N   0  0  0  0  0  0  0  0  0  0  0  0
  162.1430  209.5000  150.6990 C   0  0  0  0  0  3  0  0  0  0  0  0
  161.4710  212.7120  148.9670 N   0  0  0  0  0  1  0  0  0  0  0  0
  161.6950  211.3260  149.1960 C   0  0  0  0  0  0  0  0  0  0  0  0
  162.3280  205.3900  151.5870 C   0  0  0  0  0  2  0  0  0  0  0  0
  161.6250  204.8090  152.8120 C   0  0  1  0  0  3  0  0  0  0  0  0
  160.8730  205.7930  153.4590 O   0  0  0  0  0  1  0  0  0  0  0  0
  160.7480  203.6230  152.4430 C   0  0  0  0  0  2  0  0  0  0  0  0
  161.5070  202.6660  151.5420 C   0  0  0  0  0  2  0  0  0  0  0  0
  160.5590  202.0180  150.5490 C   0  0  0  0  0  2  0  0  0  0  0  0
  161.2330  201.0420  149.8140 O   0  0  0  0  0  1  0  0  0  0  0  0
  1 11  2  0  0  0  0
  2  8  1  0  0  0  0
  3  1  1  0  0  0  0
  4 20  1  6  0  0  0
  5  9  1  0  0  0  0
  6  5  1  0  0  0  0
  6  2  2  0  0  0  0
  7 10  1  0  0  0  0
  8  4  1  0  0  0  0
  9 14  1  6  0  0  0
  9  4  1  0  0  0  0
 10  5  2  0  0  0  0
 11  6  1  0  0  0  0
 12  7  2  0  0  0  0
 12  1  1  0  0  0  0
 13 14  1  0  0  0  0
 14 17  2  0  0  0  0
 15 17  1  0  0  0  0
 16 13  2  0  0  0  0
 16 19  1  0  0  0  0
 18 19  1  0  0  0  0
 19 15  2  0  0  0  0
 20 21  1  0  0  0  0
 21 22  1  6  0  0  0
 23 21  1  0  0  0  0
 24 23  1  0  0  0  0
 25 24  1  0  0  0  0
 26 25  1  0  0  0  0
M  END
>  <MODEL>
7

>  <REMARK>
 VINA RESULT:      -4.9      2.521      6.192
  Name = 
  6 active torsions:
  status: ('A' for Active; 'I' for Inactive)
    1  A    between atoms: C_4  and  C_21
    2  A    between atoms: C_6  and  C_14
    3  A    between atoms: C_11  and  C_14
    4  A    between atoms: C_11  and  C_25
    5  A    between atoms: C_12  and  C_24
    6  A    between atoms: C_24  and  C_25
                            x       y       z     vdW  Elec       q    Type
                         _______ _______ _______ _____ _____    ______ ____

>  <TORSDO>
F 6

$$$$
=
 OpenBabel11052409513D

 26 28  0  0  1  0  0  0  0  0999 V2000
  163.3280  211.0680  156.5450 C   0  0  0  0  0  0  0  0  0  0  0  0
  162.6480  210.4120  153.0940 N   0  0  0  0  0  0  0  0  0  0  0  0
  164.5720  211.0070  157.2330 N   0  0  0  0  0  1  0  0  0  0  0  0
  160.4710  209.5090  152.3930 C   0  0  2  0  0  3  0  0  0  0  0  0
  160.8180  210.6710  154.6360 C   0  0  0  0  0  0  0  0  0  0  0  0
  162.2710  210.6580  154.3150 C   0  0  0  0  0  0  0  0  0  0  0  0
  160.9460  211.6270  156.9720 C   0  0  0  0  0  3  0  0  0  0  0  0
  161.7330  210.2560  151.9650 C   0  0  0  0  0  2  0  0  0  0  0  0
  159.8240  210.2300  153.5770 C   0  0  1  0  0  3  0  0  0  0  0  0
  160.2920  211.0920  155.7810 C   0  0  0  0  0  3  0  0  0  0  0  0
  163.3080  210.7140  155.2980 N   0  0  0  0  0  0  0  0  0  0  0  0
  162.2080  211.6030  157.2560 N   0  0  0  0  0  0  0  0  0  0  0  0
  157.7360  211.6020  153.7620 C   0  0  0  0  0  3  0  0  0  0  0  0
  158.9450  211.3540  153.1050 C   0  0  0  0  0  0  0  0  0  0  0  0
  158.4500  213.1840  151.5970 C   0  0  0  0  0  3  0  0  0  0  0  0
  156.9230  212.6100  153.3430 N   0  0  0  0  0  0  0  0  0  0  0  0
  159.2970  212.1550  152.0110 C   0  0  0  0  0  3  0  0  0  0  0  0
  156.3780  214.4420  151.8760 N   0  0  0  0  0  1  0  0  0  0  0  0
  157.2540  213.3980  152.2850 C   0  0  0  0  0  0  0  0  0  0  0  0
  160.7700  208.0540  152.7570 C   0  0  0  0  0  2  0  0  0  0  0  0
  161.1490  207.2010  151.5480 C   0  0  1  0  0  3  0  0  0  0  0  0
  162.3890  207.5960  151.0380 O   0  0  0  0  0  1  0  0  0  0  0  0
  161.1590  205.7200  151.8890 C   0  0  0  0  0  2  0  0  0  0  0  0
  160.6700  204.9030  150.7070 C   0  0  0  0  0  2  0  0  0  0  0  0
  161.1920  203.4810  150.8010 C   0  0  0  0  0  2  0  0  0  0  0  0
  160.7970  202.7540  149.6770 O   0  0  0  0  0  1  0  0  0  0  0  0
  1  3  1  0  0  0  0
  1 12  1  0  0  0  0
  2  6  2  0  0  0  0
  4 20  1  1  0  0  0
  4  9  1  0  0  0  0
  5 10  2  0  0  0  0
  6  5  1  0  0  0  0
  6 11  1  0  0  0  0
  7 12  2  0  0  0  0
  8  4  1  0  0  0  0
  8  2  1  0  0  0  0
  9 14  1  6  0  0  0
  9  5  1  0  0  0  0
 10  7  1  0  0  0  0
 11  1  2  0  0  0  0
 14 13  2  0  0  0  0
 15 17  2  0  0  0  0
 15 19  1  0  0  0  0
 16 13  1  0  0  0  0
 17 14  1  0  0  0  0
 18 19  1  0  0  0  0
 19 16  2  0  0  0  0
 21 22  1  1  0  0  0
 21 23  1  0  0  0  0
 21 20  1  0  0  0  0
 24 25  1  0  0  0  0
 24 23  1  0  0  0  0
 26 25  1  0  0  0  0
M  END
>  <MODEL>
8

>  <REMARK>
 VINA RESULT:      -4.8      4.873      8.425
  Name = 
  6 active torsions:
  status: ('A' for Active; 'I' for Inactive)
    1  A    between atoms: C_4  and  C_21
    2  A    between atoms: C_6  and  C_14
    3  A    between atoms: C_11  and  C_14
    4  A    between atoms: C_11  and  C_25
    5  A    between atoms: C_12  and  C_24
    6  A    between atoms: C_24  and  C_25
                            x       y       z     vdW  Elec       q    Type
                         _______ _______ _______ _____ _____    ______ ____

>  <TORSDO>
F 6

$$$$
=
 OpenBabel11052409513D

 26 28  0  0  1  0  0  0  0  0999 V2000
  161.6030  205.8680  151.2950 C   0  0  0  0  0  0  0  0  0  0  0  0
  160.3520  207.5720  154.1820 N   0  0  0  0  0  0  0  0  0  0  0  0
  161.8160  204.4740  151.1090 N   0  0  0  0  0  1  0  0  0  0  0  0
  161.0800  209.8620  154.7030 C   0  0  2  0  0  3  0  0  0  0  0  0
  161.3100  208.8430  152.3770 C   0  0  0  0  0  0  0  0  0  0  0  0
  160.8900  207.5570  152.9980 C   0  0  0  0  0  0  0  0  0  0  0  0
  161.7980  208.0050  150.0430 C   0  0  0  0  0  3  0  0  0  0  0  0
  160.0150  208.7880  154.9190 C   0  0  0  0  0  2  0  0  0  0  0  0
  161.2580  210.1140  153.2040 C   0  0  1  0  0  3  0  0  0  0  0  0
  161.6900  208.9920  151.1130 C   0  0  0  0  0  3  0  0  0  0  0  0
  161.2070  206.2700  152.4630 N   0  0  0  0  0  0  0  0  0  0  0  0
  161.7540  206.7160  150.1530 N   0  0  0  0  0  0  0  0  0  0  0  0
  160.5510  211.9210  151.6200 C   0  0  0  0  0  3  0  0  0  0  0  0
  160.2340  211.0910  152.7000 C   0  0  0  0  0  0  0  0  0  0  0  0
  158.0490  212.1330  152.8010 C   0  0  0  0  0  3  0  0  0  0  0  0
  159.6390  212.8180  151.1550 N   0  0  0  0  0  0  0  0  0  0  0  0
  158.9700  211.2060  153.2930 C   0  0  0  0  0  3  0  0  0  0  0  0
  157.4800  213.8870  151.2050 N   0  0  0  0  0  1  0  0  0  0  0  0
  158.4060  212.9380  151.7180 C   0  0  0  0  0  0  0  0  0  0  0  0
  162.4150  209.4710  155.3380 C   0  0  0  0  0  2  0  0  0  0  0  0
  162.6360  210.1110  156.7070 C   0  0  1  0  0  3  0  0  0  0  0  0
  163.6520  211.0700  156.6420 O   0  0  0  0  0  1  0  0  0  0  0  0
  161.3560  210.7250  157.2510 C   0  0  0  0  0  2  0  0  0  0  0  0
  161.3740  212.2320  157.0680 C   0  0  0  0  0  2  0  0  0  0  0  0
  159.9640  212.7510  156.8560 C   0  0  0  0  0  2  0  0  0  0  0  0
  159.9200  213.5630  155.7220 O   0  0  0  0  0  1  0  0  0  0  0  0
  1 11  2  0  0  0  0
  2  8  1  0  0  0  0
  3  1  1  0  0  0  0
  4  8  1  0  0  0  0
  4 20  1  6  0  0  0
  5  6  1  0  0  0  0
  5  9  1  0  0  0  0
  6  2  2  0  0  0  0
  7 12  2  0  0  0  0
  7 10  1  0  0  0  0
  9 14  1  6  0  0  0
  9  4  1  0  0  0  0
 10  5  2  0  0  0  0
 11  6  1  0  0  0  0
 12  1  1  0  0  0  0
 13 14  1  0  0  0  0
 14 17  2  0  0  0  0
 15 17  1  0  0  0  0
 16 13  2  0  0  0  0
 16 19  1  0  0  0  0
 18 19  1  0  0  0  0
 19 15  2  0  0  0  0
 20 21  1  0  0  0  0
 21 22  1  6  0  0  0
 21 23  1  0  0  0  0
 24 23  1  0  0  0  0
 25 24  1  0  0  0  0
 26 25  1  0  0  0  0
M  END
>  <MODEL>
9

>  <REMARK>
 VINA RESULT:      -4.7      3.752      6.921
  Name = 
  6 active torsions:
  status: ('A' for Active; 'I' for Inactive)
    1  A    between atoms: C_4  and  C_21
    2  A    between atoms: C_6  and  C_14
    3  A    between atoms: C_11  and  C_14
    4  A    between atoms: C_11  and  C_25
    5  A    between atoms: C_12  and  C_24
    6  A    between atoms: C_24  and  C_25
                            x       y       z     vdW  Elec       q    Type
                         _______ _______ _______ _____ _____    ______ ____

>  <TORSDO>
F 6

$$$$
