=
 OpenBabel11042421423D

 47 52  0  0  1  0  0  0  0  0999 V2000
  161.3030  211.0900  153.1490 C   0  0  0  0  0  2  0  0  0  0  0  0
  161.1290  206.8050  152.4200 C   0  0  1  0  0  3  0  0  0  0  0  0
  161.2870  209.6940  155.0860 C   0  0  1  0  0  3  0  0  0  0  0  0
  160.2930  209.5460  157.2610 O   0  0  0  0  0  0  0  0  0  0  0  0
  160.9550  207.5340  153.7190 C   0  0  0  0  0  0  0  0  0  0  0  0
  161.7390  209.7110  152.6720 C   0  0  2  0  0  0  0  0  0  0  0  0
  163.1410  209.8100  152.0980 C   0  0  0  0  0  1  0  0  0  0  0  0
  160.7530  209.2460  151.5850 C   0  0  0  0  0  2  0  0  0  0  0  0
  160.8710  207.7550  151.2160 C   0  0  1  0  0  3  0  0  0  0  0  0
  160.5750  210.8820  154.4640 C   0  0  2  0  0  3  0  0  0  0  0  0
  160.1640  207.0170  154.6610 C   0  0  0  0  0  3  0  0  0  0  0  0
  160.4940  208.9860  156.1500 C   0  0  0  0  0  0  0  0  0  0  0  0
  161.7460  208.8090  153.9240 C   0  0  1  0  0  3  0  0  0  0  0  0
  159.9490  207.6900  155.9020 N   0  0  0  0  0  2  0  0  0  0  0  0
  162.4970  206.1190  152.3790 C   0  0  0  0  0  2  0  0  0  0  0  0
  162.3540  204.6490  152.0170 C   0  0  0  0  0  2  0  0  0  0  0  0
  160.9980  204.3990  151.3800 C   0  0  0  0  0  2  0  0  0  0  0  0
  160.6290  203.0660  151.5530 O   0  0  0  0  0  0  0  0  0  0  0  0
  160.7120  202.5090  150.2730 C   0  0  0  0  0  1  0  0  0  0  0  0
  159.2130  210.5660  154.1920 O   0  0  0  0  0  0  0  0  0  0  0  0
  156.2830  212.1380  155.7720 C   0  0  0  0  0  3  0  0  0  0  0  0
  157.3750  211.3070  155.5210 C   0  0  0  0  0  3  0  0  0  0  0  0
  156.6710  213.2740  153.6740 C   0  0  0  0  0  3  0  0  0  0  0  0
  157.7730  212.4530  153.4160 C   0  0  0  0  0  0  0  0  0  0  0  0
  155.9220  213.1260  154.8490 C   0  0  0  0  0  0  0  0  0  0  0  0
  158.1370  211.4510  154.3540 C   0  0  0  0  0  0  0  0  0  0  0  0
  158.5880  212.6980  151.8750 Cl  0  0  0  0  0  0  0  0  0  0  0  0
  154.7900  213.9730  155.1050 N   0  0  0  0  0  0  0  0  0  0  0  0
  154.3990  214.2340  156.4010 O   0  0  0  0  0  0  0  0  0  0  0  0
  154.1020  214.4140  154.1570 O   0  0  0  0  0  0  0  0  0  0  0  0
  161.7810  207.5180  149.9980 C   0  0  0  0  0  2  0  0  0  0  0  0
  161.4400  208.3910  148.7880 C   0  0  1  0  0  3  0  0  0  0  0  0
  161.9550  209.6830  148.9430 O   0  0  0  0  0  1  0  0  0  0  0  0
  161.9270  207.7740  147.5140 C   0  0  0  0  0  3  0  0  0  0  0  0
  162.2530  206.4860  147.4570 C   0  0  0  0  0  3  0  0  0  0  0  0
  162.7390  205.9020  146.1730 C   0  0  0  0  0  2  0  0  0  0  0  0
  161.8480  204.7850  145.7530 C   0  0  0  0  0  0  0  0  0  0  0  0
  161.0370  204.8450  144.6820 N   0  0  0  0  0  0  0  0  0  0  0  0
  160.8050  202.9760  145.7050 C   0  0  0  0  0  0  0  0  0  0  0  0
  160.3870  203.6950  144.6420 N   0  0  0  0  0  0  0  0  0  0  0  0
  161.7410  203.6230  146.4260 N   0  0  0  0  0  2  0  0  0  0  0  0
  160.6800  198.7070  145.8180 C   0  0  0  0  0  3  0  0  0  0  0  0
  161.8150  199.4570  146.4540 C   0  0  0  0  0  2  0  0  0  0  0  0
  160.1150  200.7960  144.6740 C   0  0  0  0  0  2  0  0  0  0  0  0
  160.3740  201.5620  145.9820 C   0  0  1  0  0  3  0  0  0  0  0  0
  159.8710  199.3430  144.9650 C   0  0  0  0  0  3  0  0  0  0  0  0
  161.3570  200.8400  146.9390 C   0  0  0  0  0  2  0  0  0  0  0  0
  1 10  1  0  0  0  0
  2 15  1  6  0  0  0
  2  5  1  0  0  0  0
  3 12  1  1  0  0  0
  5 11  2  0  0  0  0
  6  7  1  6  0  0  0
  6  1  1  0  0  0  0
  6 13  1  0  0  0  0
  8  6  1  0  0  0  0
  9 31  1  6  0  0  0
  9  8  1  0  0  0  0
  9  2  1  0  0  0  0
 10 20  1  6  0  0  0
 10  3  1  0  0  0  0
 11 14  1  0  0  0  0
 12  4  2  0  0  0  0
 13  5  1  6  0  0  0
 13  3  1  0  0  0  0
 14 12  1  0  0  0  0
 16 15  1  0  0  0  0
 17 18  1  0  0  0  0
 17 16  1  0  0  0  0
 19 18  1  0  0  0  0
 20 26  1  0  0  0  0
 22 21  1  0  0  0  0
 23 25  1  0  0  0  0
 24 23  2  0  0  0  0
 24 26  1  0  0  0  0
 25 28  1  0  0  0  0
 25 21  2  0  0  0  0
 26 22  2  0  0  0  0
 27 24  1  0  0  0  0
 28 29  2  0  0  0  0
 30 28  2  0  0  0  0
 32 33  1  1  0  0  0
 32 31  1  0  0  0  0
 34 32  1  0  0  0  0
 35 34  2  0  0  0  0
 36 35  1  0  0  0  0
 37 36  1  0  0  0  0
 37 41  1  0  0  0  0
 38 37  2  0  0  0  0
 39 41  1  0  0  0  0
 40 38  1  0  0  0  0
 40 39  2  0  0  0  0
 42 43  1  0  0  0  0
 43 47  1  0  0  0  0
 44 46  1  0  0  0  0
 44 45  1  0  0  0  0
 45 39  1  6  0  0  0
 45 47  1  0  0  0  0
 46 42  2  0  0  0  0
M  END
>  <MODEL>
1

>  <REMARK>
 VINA RESULT:      -5.2      0.000      0.000
  Name = 
  13 active torsions:
  status: ('A' for Active; 'I' for Inactive)
    1  A    between atoms: N_2  and  C_34
    2  A    between atoms: C_4  and  C_21
    3  A    between atoms: C_5  and  C_18
    4  A    between atoms: C_6  and  C_7
    5  A    between atoms: C_7  and  C_11
    6  A    between atoms: O_14  and  C_20
    7  A    between atoms: C_18  and  C_32
    8  A    between atoms: C_20  and  C_30
    9  A    between atoms: C_21  and  C_30
   10  A    between atoms: C_22  and  C_29
   11  A    between atoms: O_31  and  C_37
   12  A    between atoms: O_31  and  C_40
   13  A    between atoms: C_32  and  C_35
                            x       y       z     vdW  Elec       q    Type
                         _______ _______ _______ _____ _____    ______ ____

>  <TORSDO>
F 13

$$$$
=
 OpenBabel11042421423D

 47 52  0  0  1  0  0  0  0  0999 V2000
  161.3870  211.1820  153.3830 C   0  0  0  0  0  2  0  0  0  0  0  0
  161.3010  206.9560  152.3590 C   0  0  1  0  0  3  0  0  0  0  0  0
  161.0590  209.6670  155.1990 C   0  0  1  0  0  3  0  0  0  0  0  0
  159.7360  209.3990  157.1780 O   0  0  0  0  0  0  0  0  0  0  0  0
  160.9310  207.6040  153.6590 C   0  0  0  0  0  0  0  0  0  0  0  0
  161.8830  209.8300  152.8910 C   0  0  2  0  0  0  0  0  0  0  0  0
  163.3590  209.9410  152.5510 C   0  0  0  0  0  1  0  0  0  0  0  0
  161.0770  209.4510  151.6360 C   0  0  0  0  0  2  0  0  0  0  0  0
  161.2420  207.9840  151.1940 C   0  0  1  0  0  3  0  0  0  0  0  0
  160.4610  210.9040  154.5520 C   0  0  2  0  0  3  0  0  0  0  0  0
  159.9990  207.0420  154.4310 C   0  0  0  0  0  3  0  0  0  0  0  0
  160.1050  208.9070  156.0780 C   0  0  0  0  0  0  0  0  0  0  0  0
  161.6890  208.8500  154.0670 C   0  0  1  0  0  3  0  0  0  0  0  0
  159.5970  207.6380  155.6640 N   0  0  0  0  0  2  0  0  0  0  0  0
  162.6540  206.2510  152.4870 C   0  0  0  0  0  2  0  0  0  0  0  0
  162.5170  204.7620  152.2090 C   0  0  0  0  0  2  0  0  0  0  0  0
  161.0950  204.4410  151.7840 C   0  0  0  0  0  2  0  0  0  0  0  0
  161.0800  204.0120  150.4570 O   0  0  0  0  0  0  0  0  0  0  0  0
  160.8710  202.6310  150.5380 C   0  0  0  0  0  1  0  0  0  0  0  0
  159.1560  210.6280  154.0510 O   0  0  0  0  0  0  0  0  0  0  0  0
  155.9710  212.1280  155.1270 C   0  0  0  0  0  3  0  0  0  0  0  0
  157.0810  211.2900  155.0270 C   0  0  0  0  0  3  0  0  0  0  0  0
  156.8230  213.4670  153.3030 C   0  0  0  0  0  3  0  0  0  0  0  0
  157.9440  212.6390  153.1990 C   0  0  0  0  0  0  0  0  0  0  0  0
  155.8320  213.2220  154.2650 C   0  0  0  0  0  0  0  0  0  0  0  0
  158.0820  211.5300  154.0750 C   0  0  0  0  0  0  0  0  0  0  0  0
  159.0800  213.0170  151.9090 Cl  0  0  0  0  0  0  0  0  0  0  0  0
  154.6820  214.0770  154.3630 N   0  0  0  0  0  0  0  0  0  0  0  0
  154.1760  214.4180  155.6000 O   0  0  0  0  0  0  0  0  0  0  0  0
  154.0830  214.4530  153.3310 O   0  0  0  0  0  0  0  0  0  0  0  0
  162.3300  207.8090  150.1200 C   0  0  0  0  0  2  0  0  0  0  0  0
  162.0490  208.5710  148.8220 C   0  0  1  0  0  3  0  0  0  0  0  0
  160.8530  208.1390  148.2380 O   0  0  0  0  0  1  0  0  0  0  0  0
  162.0250  210.0500  149.0490 C   0  0  0  0  0  3  0  0  0  0  0  0
  161.3550  210.8580  148.2320 C   0  0  0  0  0  3  0  0  0  0  0  0
  161.3540  212.3290  148.4830 C   0  0  0  0  0  2  0  0  0  0  0  0
  161.8020  213.0530  147.2620 C   0  0  0  0  0  0  0  0  0  0  0  0
  162.7280  214.0280  147.2750 N   0  0  0  0  0  0  0  0  0  0  0  0
  161.9660  213.7350  145.2940 C   0  0  0  0  0  0  0  0  0  0  0  0
  162.8440  214.4510  146.0290 N   0  0  0  0  0  0  0  0  0  0  0  0
  161.2960  212.8290  146.0340 N   0  0  0  0  0  2  0  0  0  0  0  0
  162.5510  213.1320  141.1050 C   0  0  0  0  0  3  0  0  0  0  0  0
  162.0820  212.0070  141.9830 C   0  0  0  0  0  2  0  0  0  0  0  0
  163.1600  214.3090  143.1640 C   0  0  0  0  0  2  0  0  0  0  0  0
  161.8390  213.8430  143.7990 C   0  0  1  0  0  3  0  0  0  0  0  0
  163.0710  214.2290  141.6670 C   0  0  0  0  0  3  0  0  0  0  0  0
  161.2760  212.5400  143.1760 C   0  0  0  0  0  2  0  0  0  0  0  0
  1 10  1  0  0  0  0
  2 15  1  1  0  0  0
  2  5  1  0  0  0  0
  3 12  1  6  0  0  0
  5 11  2  0  0  0  0
  6  7  1  6  0  0  0
  6  1  1  0  0  0  0
  6 13  1  0  0  0  0
  8  6  1  0  0  0  0
  9 31  1  1  0  0  0
  9  8  1  0  0  0  0
  9  2  1  0  0  0  0
 10 20  1  6  0  0  0
 10  3  1  0  0  0  0
 11 14  1  0  0  0  0
 12  4  2  0  0  0  0
 13  5  1  6  0  0  0
 13  3  1  0  0  0  0
 14 12  1  0  0  0  0
 16 15  1  0  0  0  0
 17 16  1  0  0  0  0
 18 19  1  0  0  0  0
 18 17  1  0  0  0  0
 20 26  1  0  0  0  0
 22 21  1  0  0  0  0
 23 25  1  0  0  0  0
 24 23  2  0  0  0  0
 24 26  1  0  0  0  0
 25 28  1  0  0  0  0
 25 21  2  0  0  0  0
 26 22  2  0  0  0  0
 27 24  1  0  0  0  0
 28 29  2  0  0  0  0
 30 28  2  0  0  0  0
 32 33  1  1  0  0  0
 32 34  1  0  0  0  0
 32 31  1  0  0  0  0
 35 36  1  0  0  0  0
 35 34  2  0  0  0  0
 37 38  2  0  0  0  0
 37 36  1  0  0  0  0
 39 40  2  0  0  0  0
 39 41  1  0  0  0  0
 40 38  1  0  0  0  0
 41 37  1  0  0  0  0
 42 46  2  0  0  0  0
 42 43  1  0  0  0  0
 43 47  1  0  0  0  0
 44 45  1  0  0  0  0
 45 39  1  1  0  0  0
 46 44  1  0  0  0  0
 47 45  1  0  0  0  0
M  END
>  <MODEL>
2

>  <REMARK>
 VINA RESULT:      -4.8      3.891      6.080
  Name = 
  13 active torsions:
  status: ('A' for Active; 'I' for Inactive)
    1  A    between atoms: N_2  and  C_34
    2  A    between atoms: C_4  and  C_21
    3  A    between atoms: C_5  and  C_18
    4  A    between atoms: C_6  and  C_7
    5  A    between atoms: C_7  and  C_11
    6  A    between atoms: O_14  and  C_20
    7  A    between atoms: C_18  and  C_32
    8  A    between atoms: C_20  and  C_30
    9  A    between atoms: C_21  and  C_30
   10  A    between atoms: C_22  and  C_29
   11  A    between atoms: O_31  and  C_37
   12  A    between atoms: O_31  and  C_40
   13  A    between atoms: C_32  and  C_35
                            x       y       z     vdW  Elec       q    Type
                         _______ _______ _______ _____ _____    ______ ____

>  <TORSDO>
F 13

$$$$
=
 OpenBabel11042421423D

 47 52  0  0  1  0  0  0  0  0999 V2000
  162.7380  208.2880  150.7240 C   0  0  0  0  0  2  0  0  0  0  0  0
  160.6210  205.1540  148.5780 C   0  0  1  0  0  3  0  0  0  0  0  0
  162.3420  206.2680  151.9340 C   0  0  1  0  0  3  0  0  0  0  0  0
  161.6500  205.5040  154.0960 O   0  0  0  0  0  0  0  0  0  0  0  0
  160.9390  205.2250  150.0400 C   0  0  0  0  0  0  0  0  0  0  0  0
  162.4670  207.2200  149.6730 C   0  0  2  0  0  0  0  0  0  0  0  0
  163.6920  207.0790  148.7880 C   0  0  0  0  0  1  0  0  0  0  0  0
  161.2560  207.6690  148.8360 C   0  0  0  0  0  2  0  0  0  0  0  0
  160.6640  206.5680  147.9340 C   0  0  1  0  0  3  0  0  0  0  0  0
  162.1540  207.7720  152.0260 C   0  0  2  0  0  3  0  0  0  0  0  0
  160.1200  204.6450  150.9200 C   0  0  0  0  0  3  0  0  0  0  0  0
  161.4520  205.4760  152.8520 C   0  0  0  0  0  0  0  0  0  0  0  0
  162.2270  205.9080  150.4500 C   0  0  1  0  0  3  0  0  0  0  0  0
  160.3700  204.7100  152.3240 N   0  0  0  0  0  2  0  0  0  0  0  0
  161.5350  204.1370  147.8870 C   0  0  0  0  0  2  0  0  0  0  0  0
  161.3310  202.7460  148.4670 C   0  0  0  0  0  2  0  0  0  0  0  0
  160.8540  201.7950  147.3840 C   0  0  0  0  0  2  0  0  0  0  0  0
  161.1310  202.3300  146.1260 O   0  0  0  0  0  0  0  0  0  0  0  0
  160.2160  201.7080  145.2710 C   0  0  0  0  0  1  0  0  0  0  0  0
  160.7700  208.1030  152.0740 O   0  0  0  0  0  0  0  0  0  0  0  0
  159.4130  211.4820  152.6180 C   0  0  0  0  0  3  0  0  0  0  0  0
  159.9480  210.3430  152.0160 C   0  0  0  0  0  3  0  0  0  0  0  0
  159.4480  210.3620  154.7600 C   0  0  0  0  0  3  0  0  0  0  0  0
  159.9760  209.2110  154.1660 C   0  0  0  0  0  0  0  0  0  0  0  0
  159.1610  211.5010  153.9950 C   0  0  0  0  0  0  0  0  0  0  0  0
  160.2310  209.1960  152.7700 C   0  0  0  0  0  0  0  0  0  0  0  0
  160.3520  207.8750  155.2480 Cl  0  0  0  0  0  0  0  0  0  0  0  0
  158.6200  212.6790  154.6130 N   0  0  0  0  0  0  0  0  0  0  0  0
  158.5630  212.7760  155.9880 O   0  0  0  0  0  0  0  0  0  0  0  0
  158.1250  213.5910  153.9140 O   0  0  0  0  0  0  0  0  0  0  0  0
  161.2270  206.6120  146.5030 C   0  0  0  0  0  2  0  0  0  0  0  0
  160.5300  205.6570  145.5310 C   0  0  1  0  0  3  0  0  0  0  0  0
  159.3110  206.1890  145.0960 O   0  0  0  0  0  1  0  0  0  0  0  0
  161.4090  205.3220  144.3660 C   0  0  0  0  0  3  0  0  0  0  0  0
  161.3810  206.0510  143.2540 C   0  0  0  0  0  3  0  0  0  0  0  0
  162.2660  205.6900  142.1090 C   0  0  0  0  0  2  0  0  0  0  0  0
  162.0070  206.5990  140.9590 C   0  0  0  0  0  0  0  0  0  0  0  0
  162.2050  206.2490  139.6760 N   0  0  0  0  0  0  0  0  0  0  0  0
  161.5440  208.2830  139.8110 C   0  0  0  0  0  0  0  0  0  0  0  0
  161.8990  207.3080  138.9480 N   0  0  0  0  0  0  0  0  0  0  0  0
  161.5840  207.8710  141.0940 N   0  0  0  0  0  2  0  0  0  0  0  0
  159.2710  211.8940  139.6030 C   0  0  0  0  0  3  0  0  0  0  0  0
  160.0710  211.5620  140.8300 C   0  0  0  0  0  2  0  0  0  0  0  0
  159.5670  209.5560  138.9390 C   0  0  0  0  0  2  0  0  0  0  0  0
  161.0360  209.6340  139.3890 C   0  0  1  0  0  3  0  0  0  0  0  0
  159.0250  210.9370  138.7020 C   0  0  0  0  0  3  0  0  0  0  0  0
  161.2980  210.7100  140.4730 C   0  0  0  0  0  2  0  0  0  0  0  0
  1 10  1  0  0  0  0
  2 15  1  6  0  0  0
  2  5  1  0  0  0  0
  3 10  1  0  0  0  0
  3 12  1  1  0  0  0
  5 11  2  0  0  0  0
  6  7  1  6  0  0  0
  6 13  1  0  0  0  0
  6  1  1  0  0  0  0
  8  6  1  0  0  0  0
  9 31  1  6  0  0  0
  9  2  1  0  0  0  0
  9  8  1  0  0  0  0
 10 20  1  6  0  0  0
 11 14  1  0  0  0  0
 12  4  2  0  0  0  0
 13  5  1  1  0  0  0
 13  3  1  0  0  0  0
 14 12  1  0  0  0  0
 15 16  1  0  0  0  0
 17 16  1  0  0  0  0
 18 17  1  0  0  0  0
 19 18  1  0  0  0  0
 20 26  1  0  0  0  0
 21 25  1  0  0  0  0
 22 21  2  0  0  0  0
 22 26  1  0  0  0  0
 24 23  1  0  0  0  0
 24 27  1  0  0  0  0
 25 28  1  0  0  0  0
 25 23  2  0  0  0  0
 26 24  2  0  0  0  0
 28 29  2  0  0  0  0
 30 28  2  0  0  0  0
 32 33  1  6  0  0  0
 32 31  1  0  0  0  0
 34 32  1  0  0  0  0
 35 34  2  0  0  0  0
 36 35  1  0  0  0  0
 37 41  1  0  0  0  0
 37 36  1  0  0  0  0
 38 37  2  0  0  0  0
 39 41  1  0  0  0  0
 40 38  1  0  0  0  0
 40 39  2  0  0  0  0
 42 43  1  0  0  0  0
 44 45  1  0  0  0  0
 45 39  1  1  0  0  0
 45 47  1  0  0  0  0
 46 44  1  0  0  0  0
 46 42  2  0  0  0  0
 47 43  1  0  0  0  0
M  END
>  <MODEL>
3

>  <REMARK>
 VINA RESULT:      -4.3      4.300      6.270
  Name = 
  13 active torsions:
  status: ('A' for Active; 'I' for Inactive)
    1  A    between atoms: N_2  and  C_34
    2  A    between atoms: C_4  and  C_21
    3  A    between atoms: C_5  and  C_18
    4  A    between atoms: C_6  and  C_7
    5  A    between atoms: C_7  and  C_11
    6  A    between atoms: O_14  and  C_20
    7  A    between atoms: C_18  and  C_32
    8  A    between atoms: C_20  and  C_30
    9  A    between atoms: C_21  and  C_30
   10  A    between atoms: C_22  and  C_29
   11  A    between atoms: O_31  and  C_37
   12  A    between atoms: O_31  and  C_40
   13  A    between atoms: C_32  and  C_35
                            x       y       z     vdW  Elec       q    Type
                         _______ _______ _______ _____ _____    ______ ____

>  <TORSDO>
F 13

$$$$
=
 OpenBabel11042421423D

 47 52  0  0  1  0  0  0  0  0999 V2000
  161.5490  211.1070  154.2120 C   0  0  0  0  0  2  0  0  0  0  0  0
  161.2900  207.8330  151.3620 C   0  0  1  0  0  3  0  0  0  0  0  0
  161.5160  208.9070  155.1390 C   0  0  1  0  0  3  0  0  0  0  0  0
  160.5320  207.6610  156.9330 O   0  0  0  0  0  0  0  0  0  0  0  0
  161.1370  207.7800  152.8520 C   0  0  0  0  0  0  0  0  0  0  0  0
  161.9560  210.1730  153.0810 C   0  0  2  0  0  0  0  0  0  0  0  0
  163.3570  210.5370  152.6230 C   0  0  0  0  0  1  0  0  0  0  0  0
  160.9570  210.3560  151.9260 C   0  0  0  0  0  2  0  0  0  0  0  0
  161.0440  209.2740  150.8320 C   0  0  1  0  0  3  0  0  0  0  0  0
  160.8240  210.2550  155.2370 C   0  0  2  0  0  3  0  0  0  0  0  0
  160.3410  206.8590  153.3990 C   0  0  0  0  0  3  0  0  0  0  0  0
  160.7160  207.7590  155.6900 C   0  0  0  0  0  0  0  0  0  0  0  0
  161.9530  208.7510  153.6800 C   0  0  1  0  0  3  0  0  0  0  0  0
  160.1450  206.7890  154.8110 N   0  0  0  0  0  2  0  0  0  0  0  0
  162.6440  207.2500  150.9500 C   0  0  0  0  0  2  0  0  0  0  0  0
  162.4670  205.9120  150.2500 C   0  0  0  0  0  2  0  0  0  0  0  0
  161.3550  206.0060  149.2200 C   0  0  0  0  0  2  0  0  0  0  0  0
  161.8420  206.5800  148.0460 O   0  0  0  0  0  0  0  0  0  0  0  0
  161.2540  205.8330  147.0200 C   0  0  0  0  0  1  0  0  0  0  0  0
  159.4550  210.1450  154.8600 O   0  0  0  0  0  0  0  0  0  0  0  0
  157.0070  212.1560  156.7350 C   0  0  0  0  0  3  0  0  0  0  0  0
  157.9830  211.2160  156.4030 C   0  0  0  0  0  3  0  0  0  0  0  0
  156.9770  212.9290  154.4460 C   0  0  0  0  0  3  0  0  0  0  0  0
  157.9610  211.9970  154.1020 C   0  0  0  0  0  0  0  0  0  0  0  0
  156.4950  213.0180  155.7590 C   0  0  0  0  0  0  0  0  0  0  0  0
  158.4780  211.1240  155.0950 C   0  0  0  0  0  0  0  0  0  0  0  0
  158.4310  211.9450  152.4070 Cl  0  0  0  0  0  0  0  0  0  0  0  0
  155.4830  213.9770  156.1030 N   0  0  0  0  0  0  0  0  0  0  0  0
  154.6230  214.4530  155.1360 O   0  0  0  0  0  0  0  0  0  0  0  0
  155.4230  214.4470  157.2610 O   0  0  0  0  0  0  0  0  0  0  0  0
  161.9430  209.6940  149.6570 C   0  0  0  0  0  2  0  0  0  0  0  0
  161.8570  211.1820  149.3090 C   0  0  1  0  0  3  0  0  0  0  0  0
  163.1210  211.6970  149.0010 O   0  0  0  0  0  1  0  0  0  0  0  0
  160.8960  211.4280  148.1880 C   0  0  0  0  0  3  0  0  0  0  0  0
  161.1020  212.4060  147.3110 C   0  0  0  0  0  3  0  0  0  0  0  0
  160.1240  212.6280  146.2060 C   0  0  0  0  0  2  0  0  0  0  0  0
  160.8170  212.5510  144.8900 C   0  0  0  0  0  0  0  0  0  0  0  0
  162.0560  213.0270  144.6750 N   0  0  0  0  0  0  0  0  0  0  0  0
  161.2270  212.2270  142.8680 C   0  0  0  0  0  0  0  0  0  0  0  0
  162.3230  212.8100  143.3990 N   0  0  0  0  0  0  0  0  0  0  0  0
  160.2560  212.0320  143.7820 N   0  0  0  0  0  2  0  0  0  0  0  0
  160.6570  212.0760  138.6370 C   0  0  0  0  0  3  0  0  0  0  0  0
  161.7150  212.9570  139.2360 C   0  0  0  0  0  2  0  0  0  0  0  0
  159.7200  211.8920  140.8910 C   0  0  0  0  0  2  0  0  0  0  0  0
  161.1440  211.7320  141.4500 C   0  0  1  0  0  3  0  0  0  0  0  0
  159.7010  211.5710  139.4240 C   0  0  0  0  0  3  0  0  0  0  0  0
  162.2380  212.3700  140.5550 C   0  0  0  0  0  2  0  0  0  0  0  0
  1 10  1  0  0  0  0
  2 15  1  1  0  0  0
  2  5  1  0  0  0  0
  3 10  1  0  0  0  0
  3 12  1  6  0  0  0
  5 11  2  0  0  0  0
  6  7  1  6  0  0  0
  6 13  1  0  0  0  0
  6  1  1  0  0  0  0
  8  6  1  0  0  0  0
  9 31  1  6  0  0  0
  9  2  1  0  0  0  0
  9  8  1  0  0  0  0
 10 20  1  6  0  0  0
 11 14  1  0  0  0  0
 12  4  2  0  0  0  0
 13  5  1  6  0  0  0
 13  3  1  0  0  0  0
 14 12  1  0  0  0  0
 16 15  1  0  0  0  0
 17 16  1  0  0  0  0
 18 17  1  0  0  0  0
 19 18  1  0  0  0  0
 20 26  1  0  0  0  0
 22 21  1  0  0  0  0
 23 25  1  0  0  0  0
 24 23  2  0  0  0  0
 24 26  1  0  0  0  0
 25 28  1  0  0  0  0
 25 21  2  0  0  0  0
 26 22  2  0  0  0  0
 27 24  1  0  0  0  0
 28 30  2  0  0  0  0
 29 28  2  0  0  0  0
 32 33  1  6  0  0  0
 32 31  1  0  0  0  0
 34 32  1  0  0  0  0
 35 34  2  0  0  0  0
 36 35  1  0  0  0  0
 37 36  1  0  0  0  0
 38 37  2  0  0  0  0
 39 40  2  0  0  0  0
 39 41  1  0  0  0  0
 40 38  1  0  0  0  0
 41 37  1  0  0  0  0
 42 43  1  0  0  0  0
 42 46  2  0  0  0  0
 43 47  1  0  0  0  0
 44 45  1  0  0  0  0
 45 39  1  1  0  0  0
 46 44  1  0  0  0  0
 47 45  1  0  0  0  0
M  END
>  <MODEL>
4

>  <REMARK>
 VINA RESULT:      -4.0      4.242      6.017
  Name = 
  13 active torsions:
  status: ('A' for Active; 'I' for Inactive)
    1  A    between atoms: N_2  and  C_34
    2  A    between atoms: C_4  and  C_21
    3  A    between atoms: C_5  and  C_18
    4  A    between atoms: C_6  and  C_7
    5  A    between atoms: C_7  and  C_11
    6  A    between atoms: O_14  and  C_20
    7  A    between atoms: C_18  and  C_32
    8  A    between atoms: C_20  and  C_30
    9  A    between atoms: C_21  and  C_30
   10  A    between atoms: C_22  and  C_29
   11  A    between atoms: O_31  and  C_37
   12  A    between atoms: O_31  and  C_40
   13  A    between atoms: C_32  and  C_35
                            x       y       z     vdW  Elec       q    Type
                         _______ _______ _______ _____ _____    ______ ____

>  <TORSDO>
F 13

$$$$
=
 OpenBabel11042421423D

 47 52  0  0  1  0  0  0  0  0999 V2000
  162.0400  210.5970  153.1140 C   0  0  0  0  0  2  0  0  0  0  0  0
  161.5880  208.5140  149.3230 C   0  0  1  0  0  3  0  0  0  0  0  0
  161.9260  208.2150  153.2300 C   0  0  1  0  0  3  0  0  0  0  0  0
  160.9180  206.4640  154.5170 O   0  0  0  0  0  0  0  0  0  0  0  0
  161.4580  207.9580  150.7080 C   0  0  0  0  0  0  0  0  0  0  0  0
  162.3860  210.0950  151.7190 C   0  0  2  0  0  0  0  0  0  0  0  0
  163.7940  210.5440  151.3700 C   0  0  0  0  0  1  0  0  0  0  0  0
  161.3770  210.7000  150.7280 C   0  0  0  0  0  2  0  0  0  0  0  0
  161.3970  210.0570  149.3270 C   0  0  1  0  0  3  0  0  0  0  0  0
  161.2960  209.4700  153.8060 C   0  0  2  0  0  3  0  0  0  0  0  0
  160.6320  206.9340  150.9300 C   0  0  0  0  0  3  0  0  0  0  0  0
  161.0850  206.9770  153.3780 C   0  0  0  0  0  0  0  0  0  0  0  0
  162.3300  208.5550  151.7930 C   0  0  1  0  0  3  0  0  0  0  0  0
  160.4570  206.3900  152.2380 N   0  0  0  0  0  2  0  0  0  0  0  0
  162.9080  208.0610  148.6940 C   0  0  0  0  0  2  0  0  0  0  0  0
  162.6920  206.8530  147.7950 C   0  0  0  0  0  2  0  0  0  0  0  0
  161.2120  206.6780  147.5040 C   0  0  0  0  0  2  0  0  0  0  0  0
  160.9740  205.3980  147.0050 O   0  0  0  0  0  0  0  0  0  0  0  0
  161.2020  204.5490  148.0920 C   0  0  0  0  0  1  0  0  0  0  0  0
  159.9170  209.5460  153.4570 O   0  0  0  0  0  0  0  0  0  0  0  0
  157.6920  212.4460  153.0200 C   0  0  0  0  0  3  0  0  0  0  0  0
  158.5530  211.3780  152.7670 C   0  0  0  0  0  3  0  0  0  0  0  0
  157.8300  211.9890  155.3900 C   0  0  0  0  0  3  0  0  0  0  0  0
  158.6860  210.9110  155.1470 C   0  0  0  0  0  0  0  0  0  0  0  0
  157.3250  212.7610  154.3340 C   0  0  0  0  0  0  0  0  0  0  0  0
  159.0560  210.5950  153.8140 C   0  0  0  0  0  0  0  0  0  0  0  0
  159.3000  210.0660  156.5640 Cl  0  0  0  0  0  0  0  0  0  0  0  0
  156.4480  213.8680  154.5920 N   0  0  0  0  0  0  0  0  0  0  0  0
  155.7180  214.4280  153.5650 O   0  0  0  0  0  0  0  0  0  0  0  0
  156.3970  214.3840  155.7310 O   0  0  0  0  0  0  0  0  0  0  0  0
  162.2940  210.8240  148.3400 C   0  0  0  0  0  2  0  0  0  0  0  0
  161.8470  212.2650  148.0840 C   0  0  1  0  0  3  0  0  0  0  0  0
  162.9490  213.0990  147.8650 O   0  0  0  0  0  1  0  0  0  0  0  0
  160.8860  212.3450  146.9390 C   0  0  0  0  0  3  0  0  0  0  0  0
  161.2310  212.9270  145.7940 C   0  0  0  0  0  3  0  0  0  0  0  0
  160.2490  212.9950  144.6730 C   0  0  0  0  0  2  0  0  0  0  0  0
  160.8970  212.5640  143.4030 C   0  0  0  0  0  0  0  0  0  0  0  0
  162.2190  212.6570  143.1760 N   0  0  0  0  0  0  0  0  0  0  0  0
  161.2070  211.8810  141.4530 C   0  0  0  0  0  0  0  0  0  0  0  0
  162.4190  212.2120  141.9480 N   0  0  0  0  0  0  0  0  0  0  0  0
  160.2180  212.0740  142.3480 N   0  0  0  0  0  2  0  0  0  0  0  0
  159.9480  209.2130  138.3630 C   0  0  0  0  0  3  0  0  0  0  0  0
  158.9400  209.9570  139.1910 C   0  0  0  0  0  2  0  0  0  0  0  0
  161.6010  209.8330  140.0590 C   0  0  0  0  0  2  0  0  0  0  0  0
  160.9960  211.2460  140.1060 C   0  0  1  0  0  3  0  0  0  0  0  0
  161.2180  209.1490  138.7790 C   0  0  0  0  0  3  0  0  0  0  0  0
  159.5080  211.2990  139.6750 C   0  0  0  0  0  2  0  0  0  0  0  0
  1 10  1  0  0  0  0
  2 15  1  1  0  0  0
  2  9  1  0  0  0  0
  2  5  1  0  0  0  0
  3 12  1  6  0  0  0
  3 10  1  0  0  0  0
  5 11  2  0  0  0  0
  6  7  1  6  0  0  0
  6 13  1  0  0  0  0
  6  1  1  0  0  0  0
  8  6  1  0  0  0  0
  9 31  1  6  0  0  0
  9  8  1  0  0  0  0
 10 20  1  6  0  0  0
 11 14  1  0  0  0  0
 12  4  2  0  0  0  0
 13  5  1  6  0  0  0
 13  3  1  0  0  0  0
 14 12  1  0  0  0  0
 16 15  1  0  0  0  0
 17 16  1  0  0  0  0
 18 17  1  0  0  0  0
 18 19  1  0  0  0  0
 20 26  1  0  0  0  0
 21 25  1  0  0  0  0
 22 21  2  0  0  0  0
 22 26  1  0  0  0  0
 24 23  1  0  0  0  0
 24 27  1  0  0  0  0
 25 28  1  0  0  0  0
 25 23  2  0  0  0  0
 26 24  2  0  0  0  0
 28 30  2  0  0  0  0
 29 28  2  0  0  0  0
 32 33  1  6  0  0  0
 32 31  1  0  0  0  0
 34 32  1  0  0  0  0
 35 34  2  0  0  0  0
 36 35  1  0  0  0  0
 37 36  1  0  0  0  0
 38 37  2  0  0  0  0
 39 40  2  0  0  0  0
 39 41  1  0  0  0  0
 40 38  1  0  0  0  0
 41 37  1  0  0  0  0
 42 46  2  0  0  0  0
 42 43  1  0  0  0  0
 43 47  1  0  0  0  0
 44 45  1  0  0  0  0
 45 39  1  1  0  0  0
 46 44  1  0  0  0  0
 47 45  1  0  0  0  0
M  END
>  <MODEL>
5

>  <REMARK>
 VINA RESULT:      -3.8      4.520      6.086
  Name = 
  13 active torsions:
  status: ('A' for Active; 'I' for Inactive)
    1  A    between atoms: N_2  and  C_34
    2  A    between atoms: C_4  and  C_21
    3  A    between atoms: C_5  and  C_18
    4  A    between atoms: C_6  and  C_7
    5  A    between atoms: C_7  and  C_11
    6  A    between atoms: O_14  and  C_20
    7  A    between atoms: C_18  and  C_32
    8  A    between atoms: C_20  and  C_30
    9  A    between atoms: C_21  and  C_30
   10  A    between atoms: C_22  and  C_29
   11  A    between atoms: O_31  and  C_37
   12  A    between atoms: O_31  and  C_40
   13  A    between atoms: C_32  and  C_35
                            x       y       z     vdW  Elec       q    Type
                         _______ _______ _______ _____ _____    ______ ____

>  <TORSDO>
F 13

$$$$
=
 OpenBabel11042421423D

 47 52  0  0  1  0  0  0  0  0999 V2000
  162.6550  208.5210  150.7730 C   0  0  0  0  0  2  0  0  0  0  0  0
  160.7200  205.1770  148.7770 C   0  0  1  0  0  3  0  0  0  0  0  0
  162.3820  206.5360  152.0730 C   0  0  1  0  0  3  0  0  0  0  0  0
  161.7420  205.8280  154.2700 O   0  0  0  0  0  0  0  0  0  0  0  0
  161.0370  205.3300  150.2340 C   0  0  0  0  0  0  0  0  0  0  0  0
  162.4440  207.3940  149.7720 C   0  0  2  0  0  0  0  0  0  0  0  0
  163.6730  207.2860  148.8870 C   0  0  0  0  0  1  0  0  0  0  0  0
  161.2070  207.7340  148.9220 C   0  0  0  0  0  2  0  0  0  0  0  0
  160.6780  206.5620  148.0720 C   0  0  1  0  0  3  0  0  0  0  0  0
  162.1060  208.0290  152.1000 C   0  0  2  0  0  3  0  0  0  0  0  0
  160.2560  204.7430  151.1420 C   0  0  0  0  0  3  0  0  0  0  0  0
  161.5420  205.7350  153.0290 C   0  0  0  0  0  0  0  0  0  0  0  0
  162.2840  206.1060  150.6070 C   0  0  1  0  0  3  0  0  0  0  0  0
  160.5050  204.8840  152.5400 N   0  0  0  0  0  2  0  0  0  0  0  0
  161.6900  204.1860  148.1270 C   0  0  0  0  0  2  0  0  0  0  0  0
  160.9420  202.9910  147.5580 C   0  0  0  0  0  2  0  0  0  0  0  0
  160.6650  201.9790  148.6550 C   0  0  0  0  0  2  0  0  0  0  0  0
  161.6440  200.9850  148.6430 O   0  0  0  0  0  0  0  0  0  0  0  0
  161.3370  200.2050  147.5230 C   0  0  0  0  0  1  0  0  0  0  0  0
  160.7050  208.2810  152.1410 O   0  0  0  0  0  0  0  0  0  0  0  0
  159.1740  211.5970  152.6010 C   0  0  0  0  0  3  0  0  0  0  0  0
  159.7730  210.4750  152.0280 C   0  0  0  0  0  3  0  0  0  0  0  0
  159.2360  210.5210  154.7650 C   0  0  0  0  0  3  0  0  0  0  0  0
  159.8290  209.3870  154.2010 C   0  0  0  0  0  0  0  0  0  0  0  0
  158.9030  211.6300  153.9730 C   0  0  0  0  0  0  0  0  0  0  0  0
  160.1030  209.3580  152.8080 C   0  0  0  0  0  0  0  0  0  0  0  0
  160.2570  208.0930  155.3140 Cl  0  0  0  0  0  0  0  0  0  0  0  0
  158.2970  212.7910  154.5620 N   0  0  0  0  0  0  0  0  0  0  0  0
  158.6500  214.0520  154.1290 O   0  0  0  0  0  0  0  0  0  0  0  0
  157.5040  212.6730  155.5230 O   0  0  0  0  0  0  0  0  0  0  0  0
  161.2340  206.5760  146.6380 C   0  0  0  0  0  2  0  0  0  0  0  0
  160.4990  205.6370  145.6770 C   0  0  1  0  0  3  0  0  0  0  0  0
  159.2930  206.2040  145.2510 O   0  0  0  0  0  1  0  0  0  0  0  0
  161.3570  205.2710  144.5060 C   0  0  0  0  0  3  0  0  0  0  0  0
  161.3050  205.9670  143.3740 C   0  0  0  0  0  3  0  0  0  0  0  0
  162.1690  205.5750  142.2230 C   0  0  0  0  0  2  0  0  0  0  0  0
  161.9720  206.5240  141.0930 C   0  0  0  0  0  0  0  0  0  0  0  0
  162.2050  206.2050  139.8070 N   0  0  0  0  0  0  0  0  0  0  0  0
  161.5920  208.2510  139.9810 C   0  0  0  0  0  0  0  0  0  0  0  0
  161.9510  207.2920  139.1010 N   0  0  0  0  0  0  0  0  0  0  0  0
  161.5790  207.8020  141.2520 N   0  0  0  0  0  2  0  0  0  0  0  0
  161.5510  212.2540  138.4890 C   0  0  0  0  0  3  0  0  0  0  0  0
  161.8790  211.1020  137.5830 C   0  0  0  0  0  2  0  0  0  0  0  0
  161.9020  210.7110  140.3580 C   0  0  0  0  0  2  0  0  0  0  0  0
  161.1340  209.6270  139.5820 C   0  0  1  0  0  3  0  0  0  0  0  0
  161.5670  212.0710  139.8130 C   0  0  0  0  0  3  0  0  0  0  0  0
  161.1700  209.8200  138.0450 C   0  0  0  0  0  2  0  0  0  0  0  0
  1 10  1  0  0  0  0
  2 15  1  6  0  0  0
  2  5  1  0  0  0  0
  3 10  1  0  0  0  0
  3 12  1  1  0  0  0
  5 11  2  0  0  0  0
  6  7  1  6  0  0  0
  6 13  1  0  0  0  0
  6  1  1  0  0  0  0
  8  6  1  0  0  0  0
  9 31  1  6  0  0  0
  9  2  1  0  0  0  0
  9  8  1  0  0  0  0
 10 20  1  6  0  0  0
 11 14  1  0  0  0  0
 12  4  2  0  0  0  0
 13  5  1  1  0  0  0
 13  3  1  0  0  0  0
 14 12  1  0  0  0  0
 16 15  1  0  0  0  0
 16 17  1  0  0  0  0
 18 17  1  0  0  0  0
 19 18  1  0  0  0  0
 20 26  1  0  0  0  0
 21 25  1  0  0  0  0
 22 21  2  0  0  0  0
 22 26  1  0  0  0  0
 24 23  1  0  0  0  0
 24 27  1  0  0  0  0
 25 28  1  0  0  0  0
 25 23  2  0  0  0  0
 26 24  2  0  0  0  0
 28 30  2  0  0  0  0
 29 28  2  0  0  0  0
 32 33  1  6  0  0  0
 32 31  1  0  0  0  0
 34 32  1  0  0  0  0
 35 34  2  0  0  0  0
 36 35  1  0  0  0  0
 37 41  1  0  0  0  0
 37 36  1  0  0  0  0
 38 37  2  0  0  0  0
 39 41  1  0  0  0  0
 40 38  1  0  0  0  0
 40 39  2  0  0  0  0
 42 46  2  0  0  0  0
 43 47  1  0  0  0  0
 43 42  1  0  0  0  0
 45 39  1  6  0  0  0
 45 44  1  0  0  0  0
 46 44  1  0  0  0  0
 47 45  1  0  0  0  0
M  END
>  <MODEL>
6

>  <REMARK>
 VINA RESULT:      -3.7      4.334      6.295
  Name = 
  13 active torsions:
  status: ('A' for Active; 'I' for Inactive)
    1  A    between atoms: N_2  and  C_34
    2  A    between atoms: C_4  and  C_21
    3  A    between atoms: C_5  and  C_18
    4  A    between atoms: C_6  and  C_7
    5  A    between atoms: C_7  and  C_11
    6  A    between atoms: O_14  and  C_20
    7  A    between atoms: C_18  and  C_32
    8  A    between atoms: C_20  and  C_30
    9  A    between atoms: C_21  and  C_30
   10  A    between atoms: C_22  and  C_29
   11  A    between atoms: O_31  and  C_37
   12  A    between atoms: O_31  and  C_40
   13  A    between atoms: C_32  and  C_35
                            x       y       z     vdW  Elec       q    Type
                         _______ _______ _______ _____ _____    ______ ____

>  <TORSDO>
F 13

$$$$
=
 OpenBabel11042421423D

 47 52  0  0  1  0  0  0  0  0999 V2000
  161.9540  209.6780  152.4240 C   0  0  0  0  0  2  0  0  0  0  0  0
  160.7200  205.5340  151.9530 C   0  0  1  0  0  3  0  0  0  0  0  0
  161.8260  208.3850  154.4270 C   0  0  1  0  0  3  0  0  0  0  0  0
  161.0670  208.5410  156.6940 O   0  0  0  0  0  0  0  0  0  0  0  0
  160.8610  206.3220  153.2200 C   0  0  0  0  0  0  0  0  0  0  0  0
  162.0070  208.2220  151.9830 C   0  0  2  0  0  0  0  0  0  0  0  0
  163.3240  207.9710  151.2710 C   0  0  0  0  0  1  0  0  0  0  0  0
  160.8300  207.9680  151.0250 C   0  0  0  0  0  2  0  0  0  0  0  0
  160.5600  206.4800  150.7290 C   0  0  1  0  0  3  0  0  0  0  0  0
  161.3440  209.6870  153.8130 C   0  0  2  0  0  3  0  0  0  0  0  0
  160.0790  206.0350  154.2620 C   0  0  0  0  0  3  0  0  0  0  0  0
  161.0120  207.9150  155.6010 C   0  0  0  0  0  0  0  0  0  0  0  0
  161.9410  207.3820  153.2760 C   0  0  1  0  0  3  0  0  0  0  0  0
  160.1600  206.7760  155.4790 N   0  0  0  0  0  2  0  0  0  0  0  0
  161.8810  204.5450  151.8150 C   0  0  0  0  0  2  0  0  0  0  0  0
  161.3720  203.1120  151.8010 C   0  0  0  0  0  2  0  0  0  0  0  0
  160.8240  202.7670  150.4280 C   0  0  0  0  0  2  0  0  0  0  0  0
  160.6170  201.3920  150.3300 O   0  0  0  0  0  0  0  0  0  0  0  0
  159.9280  201.2260  149.1240 C   0  0  0  0  0  1  0  0  0  0  0  0
  159.9250  209.6910  153.6940 O   0  0  0  0  0  0  0  0  0  0  0  0
  157.6200  211.5860  155.8490 C   0  0  0  0  0  3  0  0  0  0  0  0
  158.4710  210.5980  155.3540 C   0  0  0  0  0  3  0  0  0  0  0  0
  157.9650  212.8850  153.8400 C   0  0  0  0  0  3  0  0  0  0  0  0
  158.8270  211.9060  153.3370 C   0  0  0  0  0  0  0  0  0  0  0  0
  157.3590  212.7360  155.0950 C   0  0  0  0  0  0  0  0  0  0  0  0
  159.0900  210.7400  154.1050 C   0  0  0  0  0  0  0  0  0  0  0  0
  159.4710  212.1840  151.7230 Cl  0  0  0  0  0  0  0  0  0  0  0  0
  156.4730  213.7460  155.6030 N   0  0  0  0  0  0  0  0  0  0  0  0
  155.3160  214.0600  154.9210 O   0  0  0  0  0  0  0  0  0  0  0  0
  156.7810  214.4050  156.6210 O   0  0  0  0  0  0  0  0  0  0  0  0
  161.2540  205.9990  149.4430 C   0  0  0  0  0  2  0  0  0  0  0  0
  161.3410  207.0650  148.3480 C   0  0  1  0  0  3  0  0  0  0  0  0
  160.3380  206.8780  147.3890 O   0  0  0  0  0  1  0  0  0  0  0  0
  161.2760  208.4460  148.9220 C   0  0  0  0  0  3  0  0  0  0  0  0
  162.0290  209.4270  148.4330 C   0  0  0  0  0  3  0  0  0  0  0  0
  161.9450  210.7920  149.0290 C   0  0  0  0  0  2  0  0  0  0  0  0
  162.0370  211.8210  147.9570 C   0  0  0  0  0  0  0  0  0  0  0  0
  163.0670  212.6780  147.8370 N   0  0  0  0  0  0  0  0  0  0  0  0
  161.5870  213.0570  146.3340 C   0  0  0  0  0  0  0  0  0  0  0  0
  162.7900  213.4520  146.8020 N   0  0  0  0  0  0  0  0  0  0  0  0
  161.0820  212.0180  147.0280 N   0  0  0  0  0  2  0  0  0  0  0  0
  158.8850  213.7140  143.0910 C   0  0  0  0  0  3  0  0  0  0  0  0
  158.4240  213.8600  144.5130 C   0  0  0  0  0  2  0  0  0  0  0  0
  160.8550  212.5690  143.9850 C   0  0  0  0  0  2  0  0  0  0  0  0
  160.9400  213.6250  145.1000 C   0  0  1  0  0  3  0  0  0  0  0  0
  160.0420  213.0940  142.8370 C   0  0  0  0  0  3  0  0  0  0  0  0
  159.5810  214.2970  145.4230 C   0  0  0  0  0  2  0  0  0  0  0  0
  1 10  1  0  0  0  0
  2 15  1  6  0  0  0
  2  5  1  0  0  0  0
  3 12  1  1  0  0  0
  5 11  2  0  0  0  0
  6  7  1  6  0  0  0
  6  1  1  0  0  0  0
  6 13  1  0  0  0  0
  8  6  1  0  0  0  0
  9 31  1  6  0  0  0
  9  8  1  0  0  0  0
  9  2  1  0  0  0  0
 10 20  1  6  0  0  0
 10  3  1  0  0  0  0
 11 14  1  0  0  0  0
 12  4  2  0  0  0  0
 13  5  1  6  0  0  0
 13  3  1  0  0  0  0
 14 12  1  0  0  0  0
 16 15  1  0  0  0  0
 17 16  1  0  0  0  0
 18 17  1  0  0  0  0
 19 18  1  0  0  0  0
 20 26  1  0  0  0  0
 22 21  1  0  0  0  0
 23 25  1  0  0  0  0
 24 23  2  0  0  0  0
 24 26  1  0  0  0  0
 25 28  1  0  0  0  0
 25 21  2  0  0  0  0
 26 22  2  0  0  0  0
 27 24  1  0  0  0  0
 28 30  2  0  0  0  0
 29 28  2  0  0  0  0
 32 33  1  6  0  0  0
 32 34  1  0  0  0  0
 32 31  1  0  0  0  0
 35 34  2  0  0  0  0
 35 36  1  0  0  0  0
 37 36  1  0  0  0  0
 38 37  2  0  0  0  0
 39 40  2  0  0  0  0
 39 41  1  0  0  0  0
 40 38  1  0  0  0  0
 41 37  1  0  0  0  0
 42 43  1  0  0  0  0
 43 47  1  0  0  0  0
 44 45  1  0  0  0  0
 45 47  1  0  0  0  0
 45 39  1  1  0  0  0
 46 42  2  0  0  0  0
 46 44  1  0  0  0  0
M  END
>  <MODEL>
7

>  <REMARK>
 VINA RESULT:      -3.3      3.669      5.977
  Name = 
  13 active torsions:
  status: ('A' for Active; 'I' for Inactive)
    1  A    between atoms: N_2  and  C_34
    2  A    between atoms: C_4  and  C_21
    3  A    between atoms: C_5  and  C_18
    4  A    between atoms: C_6  and  C_7
    5  A    between atoms: C_7  and  C_11
    6  A    between atoms: O_14  and  C_20
    7  A    between atoms: C_18  and  C_32
    8  A    between atoms: C_20  and  C_30
    9  A    between atoms: C_21  and  C_30
   10  A    between atoms: C_22  and  C_29
   11  A    between atoms: O_31  and  C_37
   12  A    between atoms: O_31  and  C_40
   13  A    between atoms: C_32  and  C_35
                            x       y       z     vdW  Elec       q    Type
                         _______ _______ _______ _____ _____    ______ ____

>  <TORSDO>
F 13

$$$$
=
 OpenBabel11042421423D

 47 52  0  0  1  0  0  0  0  0999 V2000
  158.7740  208.6260  154.9170 C   0  0  0  0  0  2  0  0  0  0  0  0
  160.1030  212.7640  155.0690 C   0  0  1  0  0  3  0  0  0  0  0  0
  160.5230  209.1120  156.4680 C   0  0  1  0  0  3  0  0  0  0  0  0
  162.6040  208.2280  157.2600 O   0  0  0  0  0  0  0  0  0  0  0  0
  160.7410  211.5610  155.6940 C   0  0  0  0  0  0  0  0  0  0  0  0
  158.7150  210.1290  155.1520 C   0  0  2  0  0  0  0  0  0  0  0  0
  157.3630  210.4810  155.7470 C   0  0  0  0  0  1  0  0  0  0  0  0
  158.8980  210.8340  153.7970 C   0  0  0  0  0  2  0  0  0  0  0  0
  159.1670  212.3480  153.8990 C   0  0  1  0  0  3  0  0  0  0  0  0
  160.1660  208.1790  155.3260 C   0  0  2  0  0  3  0  0  0  0  0  0
  162.0650  211.5320  155.8610 C   0  0  0  0  0  3  0  0  0  0  0  0
  161.9970  209.2080  156.7510 C   0  0  0  0  0  0  0  0  0  0  0  0
  159.8330  210.4460  156.1680 C   0  0  1  0  0  3  0  0  0  0  0  0
  162.7180  210.3970  156.4270 N   0  0  0  0  0  2  0  0  0  0  0  0
  159.4060  213.6080  156.1400 C   0  0  0  0  0  2  0  0  0  0  0  0
  157.9920  213.1060  156.3890 C   0  0  0  0  0  2  0  0  0  0  0  0
  157.1650  214.1890  157.0580 C   0  0  0  0  0  2  0  0  0  0  0  0
  155.8610  213.7380  157.2560 O   0  0  0  0  0  0  0  0  0  0  0  0
  155.4110  213.3940  155.9780 C   0  0  0  0  0  1  0  0  0  0  0  0
  161.0520  208.3670  154.2270 O   0  0  0  0  0  0  0  0  0  0  0  0
  161.2050  205.2690  152.2450 C   0  0  0  0  0  3  0  0  0  0  0  0
  161.1490  206.1650  153.3120 C   0  0  0  0  0  3  0  0  0  0  0  0
  161.1920  207.1210  150.6930 C   0  0  0  0  0  3  0  0  0  0  0  0
  161.1270  208.0290  151.7540 C   0  0  0  0  0  0  0  0  0  0  0  0
  161.2290  205.7400  150.9280 C   0  0  0  0  0  0  0  0  0  0  0  0
  161.1030  207.5480  153.0890 C   0  0  0  0  0  0  0  0  0  0  0  0
  161.1530  209.7360  151.3250 Cl  0  0  0  0  0  0  0  0  0  0  0  0
  161.2970  204.8140  149.8320 N   0  0  0  0  0  0  0  0  0  0  0  0
  161.5920  205.2640  148.5620 O   0  0  0  0  0  0  0  0  0  0  0  0
  161.0130  203.6070  150.0030 O   0  0  0  0  0  0  0  0  0  0  0  0
  157.8830  213.1850  153.7660 C   0  0  0  0  0  2  0  0  0  0  0  0
  157.3040  213.2140  152.3490 C   0  0  1  0  0  3  0  0  0  0  0  0
  156.3130  214.1950  152.2350 O   0  0  0  0  0  1  0  0  0  0  0  0
  158.3750  213.4180  151.3240 C   0  0  0  0  0  3  0  0  0  0  0  0
  159.3860  214.2540  151.5460 C   0  0  0  0  0  3  0  0  0  0  0  0
  160.4360  214.4400  150.5020 C   0  0  0  0  0  2  0  0  0  0  0  0
  159.9470  213.9300  149.1920 C   0  0  0  0  0  0  0  0  0  0  0  0
  158.6540  213.9550  148.8220 N   0  0  0  0  0  0  0  0  0  0  0  0
  159.8580  213.0300  147.3090 C   0  0  0  0  0  0  0  0  0  0  0  0
  158.5980  213.3990  147.6240 N   0  0  0  0  0  0  0  0  0  0  0  0
  160.7450  213.3610  148.2680 N   0  0  0  0  0  2  0  0  0  0  0  0
  160.8350  212.5900  143.1730 C   0  0  0  0  0  3  0  0  0  0  0  0
  161.6740  213.4540  144.0710 C   0  0  0  0  0  2  0  0  0  0  0  0
  159.1400  212.6310  144.9390 C   0  0  0  0  0  2  0  0  0  0  0  0
  160.2500  212.4350  145.9850 C   0  0  1  0  0  3  0  0  0  0  0  0
  159.6240  212.2010  143.5840 C   0  0  0  0  0  3  0  0  0  0  0  0
  161.6390  212.9400  145.5180 C   0  0  0  0  0  2  0  0  0  0  0  0
  1  6  1  0  0  0  0
  1 10  1  0  0  0  0
  2  5  1  0  0  0  0
  2 15  1  1  0  0  0
  3 12  1  6  0  0  0
  5 11  2  0  0  0  0
  6  7  1  1  0  0  0
  6 13  1  0  0  0  0
  8  9  1  0  0  0  0
  8  6  1  0  0  0  0
  9 31  1  1  0  0  0
  9  2  1  0  0  0  0
 10 20  1  6  0  0  0
 10  3  1  0  0  0  0
 11 14  1  0  0  0  0
 12  4  2  0  0  0  0
 13  5  1  6  0  0  0
 13  3  1  0  0  0  0
 14 12  1  0  0  0  0
 15 16  1  0  0  0  0
 16 17  1  0  0  0  0
 17 18  1  0  0  0  0
 19 18  1  0  0  0  0
 21 22  1  0  0  0  0
 23 25  1  0  0  0  0
 23 24  2  0  0  0  0
 24 26  1  0  0  0  0
 25 21  2  0  0  0  0
 26 22  2  0  0  0  0
 26 20  1  0  0  0  0
 27 24  1  0  0  0  0
 28 30  2  0  0  0  0
 28 25  1  0  0  0  0
 29 28  2  0  0  0  0
 32 33  1  1  0  0  0
 32 31  1  0  0  0  0
 34 35  2  0  0  0  0
 34 32  1  0  0  0  0
 36 35  1  0  0  0  0
 37 36  1  0  0  0  0
 38 37  2  0  0  0  0
 39 40  2  0  0  0  0
 39 41  1  0  0  0  0
 40 38  1  0  0  0  0
 41 37  1  0  0  0  0
 42 46  2  0  0  0  0
 42 43  1  0  0  0  0
 43 47  1  0  0  0  0
 44 45  1  0  0  0  0
 45 39  1  1  0  0  0
 46 44  1  0  0  0  0
 47 45  1  0  0  0  0
M  END
>  <MODEL>
8

>  <REMARK>
 VINA RESULT:      -3.1      3.962      8.938
  Name = 
  13 active torsions:
  status: ('A' for Active; 'I' for Inactive)
    1  A    between atoms: N_2  and  C_34
    2  A    between atoms: C_4  and  C_21
    3  A    between atoms: C_5  and  C_18
    4  A    between atoms: C_6  and  C_7
    5  A    between atoms: C_7  and  C_11
    6  A    between atoms: O_14  and  C_20
    7  A    between atoms: C_18  and  C_32
    8  A    between atoms: C_20  and  C_30
    9  A    between atoms: C_21  and  C_30
   10  A    between atoms: C_22  and  C_29
   11  A    between atoms: O_31  and  C_37
   12  A    between atoms: O_31  and  C_40
   13  A    between atoms: C_32  and  C_35
                            x       y       z     vdW  Elec       q    Type
                         _______ _______ _______ _____ _____    ______ ____

>  <TORSDO>
F 13

$$$$
=
 OpenBabel11042421423D

 47 52  0  0  1  0  0  0  0  0999 V2000
  159.2380  212.3920  146.0520 C   0  0  0  0  0  2  0  0  0  0  0  0
  162.0810  212.9150  142.8030 C   0  0  1  0  0  3  0  0  0  0  0  0
  161.0740  213.8550  146.4870 C   0  0  1  0  0  3  0  0  0  0  0  0
  162.6620  214.3840  148.2010 O   0  0  0  0  0  0  0  0  0  0  0  0
  162.2140  213.3500  144.2310 C   0  0  0  0  0  0  0  0  0  0  0  0
  159.7770  212.8010  144.6880 C   0  0  2  0  0  0  0  0  0  0  0  0
  158.6840  213.5300  143.9260 C   0  0  0  0  0  1  0  0  0  0  0  0
  160.1880  211.5250  143.9330 C   0  0  0  0  0  2  0  0  0  0  0  0
  161.0290  211.7780  142.6670 C   0  0  1  0  0  3  0  0  0  0  0  0
  160.3540  212.6430  147.0500 C   0  0  2  0  0  3  0  0  0  0  0  0
  163.4250  213.4140  144.7880 C   0  0  0  0  0  3  0  0  0  0  0  0
  162.4750  214.0370  147.0040 C   0  0  0  0  0  0  0  0  0  0  0  0
  160.9540  213.7600  144.9640 C   0  0  1  0  0  3  0  0  0  0  0  0
  163.5960  213.7980  146.1520 N   0  0  0  0  0  2  0  0  0  0  0  0
  161.7960  214.1250  141.9080 C   0  0  0  0  0  2  0  0  0  0  0  0
  163.0030  214.4520  141.0410 C   0  0  0  0  0  2  0  0  0  0  0  0
  163.5010  213.1980  140.3460 C   0  0  0  0  0  2  0  0  0  0  0  0
  162.8070  213.0080  139.1510 O   0  0  0  0  0  0  0  0  0  0  0  0
  163.4530  213.8440  138.2350 C   0  0  0  0  0  1  0  0  0  0  0  0
  161.2160  211.5100  147.0720 O   0  0  0  0  0  0  0  0  0  0  0  0
  162.0170  208.5240  149.0700 C   0  0  0  0  0  3  0  0  0  0  0  0
  161.7310  209.3740  148.0010 C   0  0  0  0  0  3  0  0  0  0  0  0
  161.8260  210.3880  150.5980 C   0  0  0  0  0  3  0  0  0  0  0  0
  161.5470  211.2510  149.5330 C   0  0  0  0  0  0  0  0  0  0  0  0
  162.0650  209.0240  150.3760 C   0  0  0  0  0  0  0  0  0  0  0  0
  161.4990  210.7400  148.2090 C   0  0  0  0  0  0  0  0  0  0  0  0
  161.2020  212.9250  149.9530 Cl  0  0  0  0  0  0  0  0  0  0  0  0
  162.3490  208.1450  151.4760 N   0  0  0  0  0  0  0  0  0  0  0  0
  162.6480  206.8180  151.2430 O   0  0  0  0  0  0  0  0  0  0  0  0
  162.2490  208.5520  152.6550 O   0  0  0  0  0  0  0  0  0  0  0  0
  160.1730  211.8370  141.3910 C   0  0  0  0  0  2  0  0  0  0  0  0
  160.7290  211.0090  140.2300 C   0  0  1  0  0  3  0  0  0  0  0  0
  161.1710  209.7580  140.6750 O   0  0  0  0  0  1  0  0  0  0  0  0
  159.7220  210.8570  139.1330 C   0  0  0  0  0  3  0  0  0  0  0  0
  158.7950  209.9040  139.1820 C   0  0  0  0  0  3  0  0  0  0  0  0
  157.8060  209.7760  138.0720 C   0  0  0  0  0  2  0  0  0  0  0  0
  156.8270  210.8950  138.1300 C   0  0  0  0  0  0  0  0  0  0  0  0
  156.9590  212.0340  137.4260 N   0  0  0  0  0  0  0  0  0  0  0  0
  155.2100  212.1060  138.6630 C   0  0  0  0  0  0  0  0  0  0  0  0
  155.9290  212.7950  137.7510 N   0  0  0  0  0  0  0  0  0  0  0  0
  155.7370  210.8920  138.9200 N   0  0  0  0  0  2  0  0  0  0  0  0
  152.2310  213.5500  141.3630 C   0  0  0  0  0  3  0  0  0  0  0  0
  153.4430  214.3780  141.0460 C   0  0  0  0  0  2  0  0  0  0  0  0
  153.4260  211.6590  140.3680 C   0  0  0  0  0  2  0  0  0  0  0  0
  153.9020  212.5810  139.2330 C   0  0  1  0  0  3  0  0  0  0  0  0
  152.2230  212.2520  141.0450 C   0  0  0  0  0  3  0  0  0  0  0  0
  153.9590  214.0780  139.6310 C   0  0  0  0  0  2  0  0  0  0  0  0
  1 10  1  0  0  0  0
  2 15  1  6  0  0  0
  2  5  1  0  0  0  0
  3 12  1  6  0  0  0
  3 10  1  0  0  0  0
  5 11  2  0  0  0  0
  6  7  1  6  0  0  0
  6 13  1  0  0  0  0
  6  1  1  0  0  0  0
  8  6  1  0  0  0  0
  9 31  1  6  0  0  0
  9  2  1  0  0  0  0
  9  8  1  0  0  0  0
 10 20  1  6  0  0  0
 11 14  1  0  0  0  0
 12  4  2  0  0  0  0
 13  5  1  6  0  0  0
 13  3  1  0  0  0  0
 14 12  1  0  0  0  0
 16 15  1  0  0  0  0
 17 16  1  0  0  0  0
 18 17  1  0  0  0  0
 19 18  1  0  0  0  0
 20 26  1  0  0  0  0
 21 25  1  0  0  0  0
 22 26  1  0  0  0  0
 22 21  2  0  0  0  0
 24 27  1  0  0  0  0
 24 23  1  0  0  0  0
 25 23  2  0  0  0  0
 25 28  1  0  0  0  0
 26 24  2  0  0  0  0
 28 30  2  0  0  0  0
 29 28  2  0  0  0  0
 32 33  1  1  0  0  0
 32 31  1  0  0  0  0
 34 35  2  0  0  0  0
 34 32  1  0  0  0  0
 36 37  1  0  0  0  0
 36 35  1  0  0  0  0
 37 41  1  0  0  0  0
 38 40  1  0  0  0  0
 38 37  2  0  0  0  0
 39 41  1  0  0  0  0
 40 39  2  0  0  0  0
 43 42  1  0  0  0  0
 44 46  1  0  0  0  0
 45 39  1  1  0  0  0
 45 47  1  0  0  0  0
 45 44  1  0  0  0  0
 46 42  2  0  0  0  0
 47 43  1  0  0  0  0
M  END
>  <MODEL>
9

>  <REMARK>
 VINA RESULT:      -3.0      8.194     11.411
  Name = 
  13 active torsions:
  status: ('A' for Active; 'I' for Inactive)
    1  A    between atoms: N_2  and  C_34
    2  A    between atoms: C_4  and  C_21
    3  A    between atoms: C_5  and  C_18
    4  A    between atoms: C_6  and  C_7
    5  A    between atoms: C_7  and  C_11
    6  A    between atoms: O_14  and  C_20
    7  A    between atoms: C_18  and  C_32
    8  A    between atoms: C_20  and  C_30
    9  A    between atoms: C_21  and  C_30
   10  A    between atoms: C_22  and  C_29
   11  A    between atoms: O_31  and  C_37
   12  A    between atoms: O_31  and  C_40
   13  A    between atoms: C_32  and  C_35
                            x       y       z     vdW  Elec       q    Type
                         _______ _______ _______ _____ _____    ______ ____

>  <TORSDO>
F 13

$$$$
