=
 OpenBabel11052411063D

 34 35  0  0  1  0  0  0  0  0999 V2000
  161.2210  205.5740  153.3880 C   0  0  0  0  0  2  0  0  0  0  0  0
  161.0200  206.7130  152.4060 C   0  0  2  0  0  3  0  0  0  0  0  0
  162.3360  205.9690  152.4330 C   0  0  2  0  0  3  0  0  0  0  0  0
  161.9310  210.4150  152.9100 N   0  0  0  0  0  0  0  0  0  0  0  0
  161.0010  209.5790  154.8870 C   0  0  0  0  0  0  0  0  0  0  0  0
  160.0750  207.0120  155.2190 Cl  0  0  0  0  0  0  0  0  0  0  0  0
  160.7960  208.3290  154.2820 C   0  0  0  0  0  0  0  0  0  0  0  0
  161.7240  209.2500  152.2390 C   0  0  0  0  0  0  0  0  0  0  0  0
  161.1770  208.1330  152.9380 C   0  0  0  0  0  0  0  0  0  0  0  0
  161.5900  210.5740  154.1870 N   0  0  0  0  0  0  0  0  0  0  0  0
  162.0140  209.2710  150.7950 C   0  0  0  0  0  0  0  0  0  0  0  0
  161.8070  210.4720  150.0450 N   0  0  0  0  0  2  0  0  0  0  0  0
  162.5080  208.2510  150.2410 O   0  0  0  0  0  0  0  0  0  0  0  0
  162.2580  210.6330  148.6730 C   0  0  0  0  0  2  0  0  0  0  0  0
  161.8170  211.9710  148.0960 C   0  0  0  0  0  2  0  0  0  0  0  0
  163.0140  212.8620  147.7850 C   0  0  0  0  0  2  0  0  0  0  0  0
  161.4830  214.1790  148.7060 C   0  0  0  0  0  1  0  0  0  0  0  0
  162.6970  214.2060  148.0150 O   0  0  0  0  0  0  0  0  0  0  0  0
  160.5760  209.8440  156.2940 C   0  0  0  0  0  2  0  0  0  0  0  0
  159.2870  210.5160  156.2980 N   0  0  0  0  0  1  0  0  0  0  0  0
  162.3870  204.9890  151.2770 C   0  0  0  0  0  2  0  0  0  0  0  0
  160.9910  204.7500  150.7140 C   0  0  1  0  0  3  0  0  0  0  0  0
  161.6460  204.7210  148.2790 N   0  0  0  0  0  2  0  0  0  0  0  0
  160.8760  205.3050  149.3330 C   0  0  0  0  0  0  0  0  0  0  0  0
  160.1100  206.2810  149.0950 O   0  0  0  0  0  0  0  0  0  0  0  0
  161.5660  205.1640  146.8900 C   0  0  1  0  0  3  0  0  0  0  0  0
  162.0490  206.6000  146.7670 C   0  0  0  0  0  1  0  0  0  0  0  0
  162.3190  204.2780  145.9950 N   0  0  0  0  0  2  0  0  0  0  0  0
  160.4000  204.3520  144.6690 O   0  0  0  0  0  1  0  0  0  0  0  0
  161.4260  203.5250  145.1200 C   0  0  2  0  0  3  0  0  0  0  0  0
  160.0510  201.5630  145.0030 O   0  0  0  0  0  1  0  0  0  0  0  0
  160.8460  202.3300  145.8590 C   0  0  0  0  0  2  0  0  0  0  0  0
  160.6620  203.3160  150.7150 C   0  0  0  0  0  0  0  0  0  0  0  0
  160.3980  202.1390  150.7170 C   0  0  0  0  0  3  0  0  0  0  0  0
  2  3  1  0  0  0  0
  2  9  1  1  0  0  0
  2  1  1  0  0  0  0
  3 21  1  6  0  0  0
  3  1  1  0  0  0  0
  4 10  1  0  0  0  0
  5 19  1  0  0  0  0
  7  5  1  0  0  0  0
  7  6  1  0  0  0  0
  8  4  2  0  0  0  0
  8  9  1  0  0  0  0
  9  7  2  0  0  0  0
 10  5  2  0  0  0  0
 11  8  1  0  0  0  0
 12 11  1  0  0  0  0
 13 11  2  0  0  0  0
 14 12  1  0  0  0  0
 15 14  1  0  0  0  0
 16 18  1  0  0  0  0
 16 15  1  0  0  0  0
 18 17  1  0  0  0  0
 19 20  1  0  0  0  0
 22 33  1  6  0  0  0
 22 21  1  0  0  0  0
 23 24  1  0  0  0  0
 24 22  1  0  0  0  0
 25 24  2  0  0  0  0
 26 27  1  1  0  0  0
 26 23  1  0  0  0  0
 28 26  1  0  0  0  0
 30 29  1  1  0  0  0
 30 32  1  0  0  0  0
 30 28  1  0  0  0  0
 31 32  1  0  0  0  0
 33 34  3  0  0  0  0
M  END
>  <MODEL>
1

>  <REMARK>
 VINA RESULT:      -7.3      0.000      0.000
  Name = 
  15 active torsions:
  status: ('A' for Active; 'I' for Inactive)
    1  A    between atoms: C_2  and  C_16
    2  A    between atoms: C_3  and  C_8
    3  A    between atoms: C_3  and  O_20
    4  A    between atoms: C_4  and  C_8
    5  A    between atoms: C_4  and  N_17
    6  A    between atoms: N_6  and  C_14
    7  A    between atoms: C_7  and  C_31
    8  A    between atoms: C_9  and  C_31
    9  A    between atoms: C_10  and  C_26
   10  A    between atoms: C_13  and  C_22
   11  A    between atoms: C_13  and  N_25
   12  A    between atoms: C_14  and  N_25
   13  A    between atoms: C_24  and  C_29
   14  A    between atoms: C_28  and  C_34
   15  A    between atoms: C_31  and  C_34
                            x       y       z     vdW  Elec       q    Type
                         _______ _______ _______ _____ _____    ______ ____

>  <TORSDO>
F 15

$$$$
=
 OpenBabel11052411063D

 34 35  0  0  1  0  0  0  0  0999 V2000
  161.0380  211.2360  151.3880 C   0  0  0  0  0  2  0  0  0  0  0  0
  160.5870  211.3860  152.8290 C   0  0  2  0  0  3  0  0  0  0  0  0
  160.3630  210.0770  152.1050 C   0  0  2  0  0  3  0  0  0  0  0  0
  157.6300  213.8450  152.7850 N   0  0  0  0  0  0  0  0  0  0  0  0
  157.3570  212.3490  154.5640 C   0  0  0  0  0  0  0  0  0  0  0  0
  159.0770  210.2870  155.1540 Cl  0  0  0  0  0  0  0  0  0  0  0  0
  158.5310  211.6730  154.1970 C   0  0  0  0  0  0  0  0  0  0  0  0
  158.7510  213.2160  152.3390 C   0  0  0  0  0  0  0  0  0  0  0  0
  159.2700  212.1120  153.0790 C   0  0  0  0  0  0  0  0  0  0  0  0
  156.9610  213.4340  153.8610 N   0  0  0  0  0  0  0  0  0  0  0  0
  159.2970  213.6920  151.0570 C   0  0  0  0  0  0  0  0  0  0  0  0
  158.6370  213.3510  149.8330 N   0  0  0  0  0  2  0  0  0  0  0  0
  160.3020  214.4530  151.0480 O   0  0  0  0  0  0  0  0  0  0  0  0
  158.9920  213.9450  148.5550 C   0  0  0  0  0  2  0  0  0  0  0  0
  159.0000  212.9060  147.4420 C   0  0  0  0  0  2  0  0  0  0  0  0
  160.4180  212.6220  146.9600 C   0  0  0  0  0  2  0  0  0  0  0  0
  162.4650  212.6270  147.8180 C   0  0  0  0  0  1  0  0  0  0  0  0
  161.1900  212.0830  147.9950 O   0  0  0  0  0  0  0  0  0  0  0  0
  156.5220  211.8950  155.7160 C   0  0  0  0  0  2  0  0  0  0  0  0
  155.6440  210.8180  155.2900 N   0  0  0  0  0  1  0  0  0  0  0  0
  161.4090  209.0700  152.5440 C   0  0  0  0  0  2  0  0  0  0  0  0
  160.7840  207.6920  152.7220 C   0  0  1  0  0  3  0  0  0  0  0  0
  160.7060  206.0960  150.7710 N   0  0  0  0  0  2  0  0  0  0  0  0
  161.4510  206.6910  151.8380 C   0  0  0  0  0  0  0  0  0  0  0  0
  162.6570  206.3690  152.0280 O   0  0  0  0  0  0  0  0  0  0  0  0
  161.2830  205.1440  149.8270 C   0  0  1  0  0  3  0  0  0  0  0  0
  160.9980  203.7200  150.2750 C   0  0  0  0  0  1  0  0  0  0  0  0
  160.7970  205.3730  148.4620 N   0  0  0  0  0  2  0  0  0  0  0  0
  161.8460  207.3720  147.8700 O   0  0  0  0  0  1  0  0  0  0  0  0
  161.8220  206.0000  147.6320 C   0  0  2  0  0  3  0  0  0  0  0  0
  160.4120  206.4260  145.7390 O   0  0  0  0  0  1  0  0  0  0  0  0
  161.5480  205.7300  146.1620 C   0  0  0  0  0  2  0  0  0  0  0  0
  160.8560  207.2590  154.1270 C   0  0  0  0  0  0  0  0  0  0  0  0
  160.9220  206.9050  155.2780 C   0  0  0  0  0  3  0  0  0  0  0  0
  1  3  1  0  0  0  0
  1  2  1  0  0  0  0
  2  9  1  6  0  0  0
  3 21  1  1  0  0  0
  3  2  1  0  0  0  0
  4 10  1  0  0  0  0
  5 19  1  0  0  0  0
  7  5  1  0  0  0  0
  7  6  1  0  0  0  0
  8  4  2  0  0  0  0
  8  9  1  0  0  0  0
  9  7  2  0  0  0  0
 10  5  2  0  0  0  0
 11  8  1  0  0  0  0
 12 11  1  0  0  0  0
 13 11  2  0  0  0  0
 14 12  1  0  0  0  0
 15 14  1  0  0  0  0
 16 15  1  0  0  0  0
 16 18  1  0  0  0  0
 17 18  1  0  0  0  0
 20 19  1  0  0  0  0
 22 21  1  1  0  0  0
 22 33  1  0  0  0  0
 23 24  1  0  0  0  0
 24 25  2  0  0  0  0
 24 22  1  0  0  0  0
 26 27  1  1  0  0  0
 26 23  1  0  0  0  0
 28 26  1  0  0  0  0
 30 29  1  6  0  0  0
 30 28  1  0  0  0  0
 31 32  1  0  0  0  0
 32 30  1  0  0  0  0
 33 34  3  0  0  0  0
M  END
>  <MODEL>
2

>  <REMARK>
 VINA RESULT:      -6.8      2.862      4.381
  Name = 
  15 active torsions:
  status: ('A' for Active; 'I' for Inactive)
    1  A    between atoms: C_2  and  C_16
    2  A    between atoms: C_3  and  C_8
    3  A    between atoms: C_3  and  O_20
    4  A    between atoms: C_4  and  C_8
    5  A    between atoms: C_4  and  N_17
    6  A    between atoms: N_6  and  C_14
    7  A    between atoms: C_7  and  C_31
    8  A    between atoms: C_9  and  C_31
    9  A    between atoms: C_10  and  C_26
   10  A    between atoms: C_13  and  C_22
   11  A    between atoms: C_13  and  N_25
   12  A    between atoms: C_14  and  N_25
   13  A    between atoms: C_24  and  C_29
   14  A    between atoms: C_28  and  C_34
   15  A    between atoms: C_31  and  C_34
                            x       y       z     vdW  Elec       q    Type
                         _______ _______ _______ _____ _____    ______ ____

>  <TORSDO>
F 15

$$$$
=
 OpenBabel11052411063D

 34 35  0  0  1  0  0  0  0  0999 V2000
  162.0090  209.1920  149.3660 C   0  0  0  0  0  2  0  0  0  0  0  0
  162.1250  209.9000  150.7030 C   0  0  2  0  0  3  0  0  0  0  0  0
  161.2910  208.6450  150.5890 C   0  0  2  0  0  3  0  0  0  0  0  0
  160.3840  213.3200  150.4490 N   0  0  0  0  0  0  0  0  0  0  0  0
  159.8360  212.3310  152.4980 C   0  0  0  0  0  0  0  0  0  0  0  0
  160.6930  209.8510  153.3190 Cl  0  0  0  0  0  0  0  0  0  0  0  0
  160.5840  211.1900  152.1660 C   0  0  0  0  0  0  0  0  0  0  0  0
  161.0880  212.2330  150.0350 C   0  0  0  0  0  0  0  0  0  0  0  0
  161.2490  211.1280  150.9240 C   0  0  0  0  0  0  0  0  0  0  0  0
  159.7850  213.3730  151.6380 N   0  0  0  0  0  0  0  0  0  0  0  0
  161.5670  212.2600  148.6420 C   0  0  0  0  0  0  0  0  0  0  0  0
  160.6240  212.3380  147.5680 N   0  0  0  0  0  2  0  0  0  0  0  0
  162.8050  212.2840  148.4060 O   0  0  0  0  0  0  0  0  0  0  0  0
  161.0180  212.5730  146.1890 C   0  0  0  0  0  2  0  0  0  0  0  0
  160.2510  213.7400  145.5830 C   0  0  0  0  0  2  0  0  0  0  0  0
  159.6980  213.3860  144.2070 C   0  0  0  0  0  2  0  0  0  0  0  0
  160.3290  211.8460  142.7390 C   0  0  0  0  0  1  0  0  0  0  0  0
  159.7480  212.0030  144.0000 O   0  0  0  0  0  0  0  0  0  0  0  0
  159.0830  212.4240  153.7840 C   0  0  0  0  0  2  0  0  0  0  0  0
  157.6570  212.4980  153.5130 N   0  0  0  0  0  1  0  0  0  0  0  0
  162.0670  207.4690  151.1520 C   0  0  0  0  0  2  0  0  0  0  0  0
  161.1150  206.4030  151.6820 C   0  0  1  0  0  3  0  0  0  0  0  0
  160.9810  204.7560  149.7770 N   0  0  0  0  0  2  0  0  0  0  0  0
  161.4380  205.0690  151.0960 C   0  0  0  0  0  0  0  0  0  0  0  0
  162.1040  204.2220  151.7560 O   0  0  0  0  0  0  0  0  0  0  0  0
  161.2850  203.4970  149.1030 C   0  0  1  0  0  3  0  0  0  0  0  0
  160.2690  202.4350  149.4880 C   0  0  0  0  0  1  0  0  0  0  0  0
  161.3450  203.6640  147.6470 N   0  0  0  0  0  2  0  0  0  0  0  0
  160.6980  205.7080  146.7240 O   0  0  0  0  0  1  0  0  0  0  0  0
  161.7670  205.0130  147.2840 C   0  0  2  0  0  3  0  0  0  0  0  0
  162.6550  205.7480  145.1800 O   0  0  0  0  0  1  0  0  0  0  0  0
  162.9250  204.9570  146.3010 C   0  0  0  0  0  2  0  0  0  0  0  0
  161.1610  206.3400  153.1510 C   0  0  0  0  0  0  0  0  0  0  0  0
  161.2010  206.2800  154.3550 C   0  0  0  0  0  3  0  0  0  0  0  0
  1  3  1  0  0  0  0
  1  2  1  0  0  0  0
  2  9  1  6  0  0  0
  3  2  1  0  0  0  0
  3 21  1  1  0  0  0
  4 10  1  0  0  0  0
  5 19  1  0  0  0  0
  7  5  1  0  0  0  0
  7  6  1  0  0  0  0
  8  4  2  0  0  0  0
  8  9  1  0  0  0  0
  9  7  2  0  0  0  0
 10  5  2  0  0  0  0
 11  8  1  0  0  0  0
 12 11  1  0  0  0  0
 13 11  2  0  0  0  0
 14 12  1  0  0  0  0
 15 14  1  0  0  0  0
 16 15  1  0  0  0  0
 17 18  1  0  0  0  0
 18 16  1  0  0  0  0
 20 19  1  0  0  0  0
 22 21  1  6  0  0  0
 22 33  1  0  0  0  0
 23 24  1  0  0  0  0
 24 22  1  0  0  0  0
 24 25  2  0  0  0  0
 26 27  1  6  0  0  0
 26 23  1  0  0  0  0
 28 26  1  0  0  0  0
 30 29  1  6  0  0  0
 30 28  1  0  0  0  0
 31 32  1  0  0  0  0
 32 30  1  0  0  0  0
 33 34  3  0  0  0  0
M  END
>  <MODEL>
3

>  <REMARK>
 VINA RESULT:      -6.8      2.738      3.899
  Name = 
  15 active torsions:
  status: ('A' for Active; 'I' for Inactive)
    1  A    between atoms: C_2  and  C_16
    2  A    between atoms: C_3  and  C_8
    3  A    between atoms: C_3  and  O_20
    4  A    between atoms: C_4  and  C_8
    5  A    between atoms: C_4  and  N_17
    6  A    between atoms: N_6  and  C_14
    7  A    between atoms: C_7  and  C_31
    8  A    between atoms: C_9  and  C_31
    9  A    between atoms: C_10  and  C_26
   10  A    between atoms: C_13  and  C_22
   11  A    between atoms: C_13  and  N_25
   12  A    between atoms: C_14  and  N_25
   13  A    between atoms: C_24  and  C_29
   14  A    between atoms: C_28  and  C_34
   15  A    between atoms: C_31  and  C_34
                            x       y       z     vdW  Elec       q    Type
                         _______ _______ _______ _____ _____    ______ ____

>  <TORSDO>
F 15

$$$$
=
 OpenBabel11052411063D

 34 35  0  0  1  0  0  0  0  0999 V2000
  160.6850  206.0090  149.0220 C   0  0  0  0  0  2  0  0  0  0  0  0
  161.8070  206.2530  150.0130 C   0  0  2  0  0  3  0  0  0  0  0  0
  160.9100  205.0470  150.1780 C   0  0  2  0  0  3  0  0  0  0  0  0
  161.5990  209.4580  152.1290 N   0  0  0  0  0  0  0  0  0  0  0  0
  161.0530  207.6190  153.4680 C   0  0  0  0  0  0  0  0  0  0  0  0
  160.9490  205.0160  152.5880 Cl  0  0  0  0  0  0  0  0  0  0  0  0
  161.2010  206.7550  152.3720 C   0  0  0  0  0  0  0  0  0  0  0  0
  161.7160  208.6940  151.0090 C   0  0  0  0  0  0  0  0  0  0  0  0
  161.5600  207.2800  151.1130 C   0  0  0  0  0  0  0  0  0  0  0  0
  161.2860  208.9410  153.3160 N   0  0  0  0  0  0  0  0  0  0  0  0
  161.9190  209.4210  149.7450 C   0  0  0  0  0  0  0  0  0  0  0  0
  161.8670  210.8520  149.7320 N   0  0  0  0  0  2  0  0  0  0  0  0
  162.2050  208.7840  148.6960 O   0  0  0  0  0  0  0  0  0  0  0  0
  162.2560  211.6440  148.5760 C   0  0  0  0  0  2  0  0  0  0  0  0
  161.5680  213.0020  148.5770 C   0  0  0  0  0  2  0  0  0  0  0  0
  160.9390  213.3060  147.2220 C   0  0  0  0  0  2  0  0  0  0  0  0
  158.9760  213.5260  148.2350 C   0  0  0  0  0  1  0  0  0  0  0  0
  159.6140  212.8600  147.1850 O   0  0  0  0  0  0  0  0  0  0  0  0
  160.6340  207.1120  154.8100 C   0  0  0  0  0  2  0  0  0  0  0  0
  161.1800  207.9690  155.8490 N   0  0  0  0  0  1  0  0  0  0  0  0
  161.6300  203.8090  149.6790 C   0  0  0  0  0  2  0  0  0  0  0  0
  160.6290  202.7210  149.3070 C   0  0  1  0  0  3  0  0  0  0  0  0
  160.6920  203.1650  146.8250 N   0  0  0  0  0  2  0  0  0  0  0  0
  160.8580  202.2470  147.9100 C   0  0  0  0  0  0  0  0  0  0  0  0
  161.1930  201.0500  147.6850 O   0  0  0  0  0  0  0  0  0  0  0  0
  160.9380  202.8070  145.4310 C   0  0  1  0  0  3  0  0  0  0  0  0
  159.7990  201.9520  144.8980 C   0  0  0  0  0  1  0  0  0  0  0  0
  161.1380  203.9960  144.5950 N   0  0  0  0  0  2  0  0  0  0  0  0
  160.2790  206.1510  144.8510 O   0  0  0  0  0  1  0  0  0  0  0  0
  161.1510  205.2140  145.4000 C   0  0  2  0  0  3  0  0  0  0  0  0
  163.4440  204.8490  146.0020 O   0  0  0  0  0  1  0  0  0  0  0  0
  162.5570  205.7870  145.4670 C   0  0  0  0  0  2  0  0  0  0  0  0
  160.7060  201.5920  150.2470 C   0  0  0  0  0  0  0  0  0  0  0  0
  160.7630  200.6630  151.0150 C   0  0  0  0  0  3  0  0  0  0  0  0
  1  2  1  0  0  0  0
  1  3  1  0  0  0  0
  2  3  1  0  0  0  0
  2  9  1  1  0  0  0
  3 21  1  6  0  0  0
  4 10  1  0  0  0  0
  5 19  1  0  0  0  0
  7  6  1  0  0  0  0
  7  5  1  0  0  0  0
  8  9  1  0  0  0  0
  8  4  2  0  0  0  0
  9  7  2  0  0  0  0
 10  5  2  0  0  0  0
 11  8  1  0  0  0  0
 12 11  1  0  0  0  0
 13 11  2  0  0  0  0
 14 15  1  0  0  0  0
 14 12  1  0  0  0  0
 16 15  1  0  0  0  0
 18 16  1  0  0  0  0
 18 17  1  0  0  0  0
 19 20  1  0  0  0  0
 22 21  1  1  0  0  0
 22 33  1  0  0  0  0
 23 24  1  0  0  0  0
 24 22  1  0  0  0  0
 25 24  2  0  0  0  0
 26 27  1  6  0  0  0
 26 23  1  0  0  0  0
 28 30  1  0  0  0  0
 28 26  1  0  0  0  0
 30 29  1  6  0  0  0
 30 32  1  0  0  0  0
 32 31  1  0  0  0  0
 33 34  3  0  0  0  0
M  END
>  <MODEL>
4

>  <REMARK>
 VINA RESULT:      -6.8      1.855      2.814
  Name = 
  15 active torsions:
  status: ('A' for Active; 'I' for Inactive)
    1  A    between atoms: C_2  and  C_16
    2  A    between atoms: C_3  and  C_8
    3  A    between atoms: C_3  and  O_20
    4  A    between atoms: C_4  and  C_8
    5  A    between atoms: C_4  and  N_17
    6  A    between atoms: N_6  and  C_14
    7  A    between atoms: C_7  and  C_31
    8  A    between atoms: C_9  and  C_31
    9  A    between atoms: C_10  and  C_26
   10  A    between atoms: C_13  and  C_22
   11  A    between atoms: C_13  and  N_25
   12  A    between atoms: C_14  and  N_25
   13  A    between atoms: C_24  and  C_29
   14  A    between atoms: C_28  and  C_34
   15  A    between atoms: C_31  and  C_34
                            x       y       z     vdW  Elec       q    Type
                         _______ _______ _______ _____ _____    ______ ____

>  <TORSDO>
F 15

$$$$
=
 OpenBabel11052411063D

 34 35  0  0  1  0  0  0  0  0999 V2000
  161.9890  207.0590  148.0560 C   0  0  0  0  0  2  0  0  0  0  0  0
  160.8690  206.0800  148.3520 C   0  0  2  0  0  3  0  0  0  0  0  0
  161.8040  206.5070  149.4600 C   0  0  2  0  0  3  0  0  0  0  0  0
  161.4800  202.7800  146.4740 N   0  0  0  0  0  0  0  0  0  0  0  0
  160.9310  202.3060  148.6980 C   0  0  0  0  0  0  0  0  0  0  0  0
  160.4180  204.2000  150.6230 Cl  0  0  0  0  0  0  0  0  0  0  0  0
  160.8480  203.6770  148.9870 C   0  0  0  0  0  0  0  0  0  0  0  0
  161.4650  204.1240  146.6850 C   0  0  0  0  0  0  0  0  0  0  0  0
  161.0950  204.6210  147.9700 C   0  0  0  0  0  0  0  0  0  0  0  0
  161.2170  201.9020  147.4400 N   0  0  0  0  0  0  0  0  0  0  0  0
  161.9210  204.9630  145.5640 C   0  0  0  0  0  0  0  0  0  0  0  0
  160.9830  205.3990  144.5750 N   0  0  0  0  0  2  0  0  0  0  0  0
  163.1200  205.3500  145.5190 O   0  0  0  0  0  0  0  0  0  0  0  0
  161.3090  206.3880  143.5610 C   0  0  0  0  0  2  0  0  0  0  0  0
  161.8370  205.7300  142.2930 C   0  0  0  0  0  2  0  0  0  0  0  0
  161.8890  206.7200  141.1350 C   0  0  0  0  0  2  0  0  0  0  0  0
  162.1480  206.9070  138.9380 C   0  0  0  0  0  1  0  0  0  0  0  0
  162.5700  206.1650  140.0460 O   0  0  0  0  0  0  0  0  0  0  0  0
  160.7170  201.2710  149.7540 C   0  0  0  0  0  2  0  0  0  0  0  0
  159.2990  200.9740  149.8680 N   0  0  0  0  0  1  0  0  0  0  0  0
  161.1170  207.5440  150.3300 C   0  0  0  0  0  2  0  0  0  0  0  0
  161.9220  207.7970  151.5980 C   0  0  1  0  0  3  0  0  0  0  0  0
  160.4510  209.4970  152.7410 N   0  0  0  0  0  2  0  0  0  0  0  0
  161.6920  209.1830  152.1030 C   0  0  0  0  0  0  0  0  0  0  0  0
  162.5810  210.0710  151.9680 O   0  0  0  0  0  0  0  0  0  0  0  0
  160.1520  210.8090  153.3070 C   0  0  1  0  0  3  0  0  0  0  0  0
  158.9100  211.3930  152.6550 C   0  0  0  0  0  1  0  0  0  0  0  0
  160.0010  210.7470  154.7650 N   0  0  0  0  0  2  0  0  0  0  0  0
  159.7320  208.8240  156.0590 O   0  0  0  0  0  1  0  0  0  0  0  0
  160.6510  209.5620  155.3160 C   0  0  2  0  0  3  0  0  0  0  0  0
  162.7770  210.6640  155.4440 O   0  0  0  0  0  1  0  0  0  0  0  0
  161.8260  209.9640  156.1920 C   0  0  0  0  0  2  0  0  0  0  0  0
  161.5860  206.8130  152.6400 C   0  0  0  0  0  0  0  0  0  0  0  0
  161.3160  206.0020  153.4910 C   0  0  0  0  0  3  0  0  0  0  0  0
  1  2  1  0  0  0  0
  1  3  1  0  0  0  0
  2  9  1  6  0  0  0
  2  3  1  0  0  0  0
  3 21  1  1  0  0  0
  4  8  2  0  0  0  0
  4 10  1  0  0  0  0
  5  7  1  0  0  0  0
  5 19  1  0  0  0  0
  7  6  1  0  0  0  0
  8  9  1  0  0  0  0
  9  7  2  0  0  0  0
 10  5  2  0  0  0  0
 11  8  1  0  0  0  0
 12 11  1  0  0  0  0
 13 11  2  0  0  0  0
 14 12  1  0  0  0  0
 15 14  1  0  0  0  0
 16 15  1  0  0  0  0
 17 18  1  0  0  0  0
 18 16  1  0  0  0  0
 19 20  1  0  0  0  0
 22 21  1  6  0  0  0
 22 24  1  0  0  0  0
 22 33  1  0  0  0  0
 23 26  1  0  0  0  0
 24 23  1  0  0  0  0
 25 24  2  0  0  0  0
 26 27  1  6  0  0  0
 26 28  1  0  0  0  0
 28 30  1  0  0  0  0
 30 29  1  1  0  0  0
 30 32  1  0  0  0  0
 31 32  1  0  0  0  0
 33 34  3  0  0  0  0
M  END
>  <MODEL>
5

>  <REMARK>
 VINA RESULT:      -6.8      3.161      8.544
  Name = 
  15 active torsions:
  status: ('A' for Active; 'I' for Inactive)
    1  A    between atoms: C_2  and  C_16
    2  A    between atoms: C_3  and  C_8
    3  A    between atoms: C_3  and  O_20
    4  A    between atoms: C_4  and  C_8
    5  A    between atoms: C_4  and  N_17
    6  A    between atoms: N_6  and  C_14
    7  A    between atoms: C_7  and  C_31
    8  A    between atoms: C_9  and  C_31
    9  A    between atoms: C_10  and  C_26
   10  A    between atoms: C_13  and  C_22
   11  A    between atoms: C_13  and  N_25
   12  A    between atoms: C_14  and  N_25
   13  A    between atoms: C_24  and  C_29
   14  A    between atoms: C_28  and  C_34
   15  A    between atoms: C_31  and  C_34
                            x       y       z     vdW  Elec       q    Type
                         _______ _______ _______ _____ _____    ______ ____

>  <TORSDO>
F 15

$$$$
=
 OpenBabel11052411063D

 34 35  0  0  1  0  0  0  0  0999 V2000
  161.4980  208.0190  148.6460 C   0  0  0  0  0  2  0  0  0  0  0  0
  160.6370  206.9360  149.2680 C   0  0  2  0  0  3  0  0  0  0  0  0
  161.7690  207.5450  150.0640 C   0  0  2  0  0  3  0  0  0  0  0  0
  161.5950  203.2120  149.2760 N   0  0  0  0  0  0  0  0  0  0  0  0
  161.4340  203.9570  147.0640 C   0  0  0  0  0  0  0  0  0  0  0  0
  160.7330  206.5090  146.3180 Cl  0  0  0  0  0  0  0  0  0  0  0  0
  161.0540  205.2340  147.5040 C   0  0  0  0  0  0  0  0  0  0  0  0
  161.1880  204.4070  149.7800 C   0  0  0  0  0  0  0  0  0  0  0  0
  160.9430  205.4920  148.8860 C   0  0  0  0  0  0  0  0  0  0  0  0
  161.7210  202.9940  147.9680 N   0  0  0  0  0  0  0  0  0  0  0  0
  160.9530  204.4540  151.2330 C   0  0  0  0  0  0  0  0  0  0  0  0
  161.8540  205.1800  152.0760 N   0  0  0  0  0  2  0  0  0  0  0  0
  159.9240  203.9120  151.7190 O   0  0  0  0  0  0  0  0  0  0  0  0
  161.5820  205.4430  153.4790 C   0  0  0  0  0  2  0  0  0  0  0  0
  160.6870  206.6620  153.6530 C   0  0  0  0  0  2  0  0  0  0  0  0
  160.9150  207.3300  155.0050 C   0  0  0  0  0  2  0  0  0  0  0  0
  160.0840  207.3540  157.0630 C   0  0  0  0  0  1  0  0  0  0  0  0
  159.7130  207.4200  155.7170 O   0  0  0  0  0  0  0  0  0  0  0  0
  161.5240  203.6280  145.6090 C   0  0  0  0  0  2  0  0  0  0  0  0
  160.8090  202.3910  145.3420 N   0  0  0  0  0  1  0  0  0  0  0  0
  161.2090  208.5490  151.0540 C   0  0  0  0  0  2  0  0  0  0  0  0
  162.1850  209.7010  151.2580 C   0  0  1  0  0  3  0  0  0  0  0  0
  162.3310  211.1370  149.1900 N   0  0  0  0  0  2  0  0  0  0  0  0
  161.7570  210.9000  150.4780 C   0  0  0  0  0  0  0  0  0  0  0  0
  160.8990  211.6990  150.9490 O   0  0  0  0  0  0  0  0  0  0  0  0
  161.9430  212.2550  148.3350 C   0  0  1  0  0  3  0  0  0  0  0  0
  163.1420  212.7580  147.5480 C   0  0  0  0  0  1  0  0  0  0  0  0
  160.8410  211.8920  147.4370 N   0  0  0  0  0  2  0  0  0  0  0  0
  159.4990  213.4930  148.4790 O   0  0  0  0  0  1  0  0  0  0  0  0
  159.9240  213.0120  147.2430 C   0  0  2  0  0  3  0  0  0  0  0  0
  157.5770  212.5200  147.2040 O   0  0  0  0  0  1  0  0  0  0  0  0
  158.7280  212.5760  146.4130 C   0  0  0  0  0  2  0  0  0  0  0  0
  162.3100  210.0390  152.6840 C   0  0  0  0  0  0  0  0  0  0  0  0
  162.4160  210.3220  153.8520 C   0  0  0  0  0  3  0  0  0  0  0  0
  1  2  1  0  0  0  0
  1  3  1  0  0  0  0
  2  9  1  6  0  0  0
  2  3  1  0  0  0  0
  3 21  1  1  0  0  0
  4  8  1  0  0  0  0
  5  7  2  0  0  0  0
  5 10  1  0  0  0  0
  6  7  1  0  0  0  0
  7  9  1  0  0  0  0
  8 11  1  0  0  0  0
  9  8  2  0  0  0  0
 10  4  2  0  0  0  0
 11 13  2  0  0  0  0
 11 12  1  0  0  0  0
 12 14  1  0  0  0  0
 14 15  1  0  0  0  0
 15 16  1  0  0  0  0
 16 18  1  0  0  0  0
 18 17  1  0  0  0  0
 19  5  1  0  0  0  0
 20 19  1  0  0  0  0
 22 21  1  1  0  0  0
 22 33  1  0  0  0  0
 23 24  1  0  0  0  0
 24 25  2  0  0  0  0
 24 22  1  0  0  0  0
 26 27  1  6  0  0  0
 26 23  1  0  0  0  0
 28 26  1  0  0  0  0
 30 28  1  0  0  0  0
 30 29  1  1  0  0  0
 32 31  1  0  0  0  0
 32 30  1  0  0  0  0
 33 34  3  0  0  0  0
M  END
>  <MODEL>
6

>  <REMARK>
 VINA RESULT:      -6.7      3.287      8.081
  Name = 
  15 active torsions:
  status: ('A' for Active; 'I' for Inactive)
    1  A    between atoms: C_2  and  C_16
    2  A    between atoms: C_3  and  C_8
    3  A    between atoms: C_3  and  O_20
    4  A    between atoms: C_4  and  C_8
    5  A    between atoms: C_4  and  N_17
    6  A    between atoms: N_6  and  C_14
    7  A    between atoms: C_7  and  C_31
    8  A    between atoms: C_9  and  C_31
    9  A    between atoms: C_10  and  C_26
   10  A    between atoms: C_13  and  C_22
   11  A    between atoms: C_13  and  N_25
   12  A    between atoms: C_14  and  N_25
   13  A    between atoms: C_24  and  C_29
   14  A    between atoms: C_28  and  C_34
   15  A    between atoms: C_31  and  C_34
                            x       y       z     vdW  Elec       q    Type
                         _______ _______ _______ _____ _____    ______ ____

>  <TORSDO>
F 15

$$$$
=
 OpenBabel11052411063D

 34 35  0  0  1  0  0  0  0  0999 V2000
  161.1860  208.0520  150.3450 C   0  0  0  0  0  2  0  0  0  0  0  0
  161.8050  207.8220  151.7100 C   0  0  2  0  0  3  0  0  0  0  0  0
  160.9020  206.7690  151.1090 C   0  0  2  0  0  3  0  0  0  0  0  0
  160.4060  210.3600  154.2380 N   0  0  0  0  0  0  0  0  0  0  0  0
  160.3190  208.2180  155.1750 C   0  0  0  0  0  0  0  0  0  0  0  0
  161.1110  205.9160  153.8970 Cl  0  0  0  0  0  0  0  0  0  0  0  0
  160.8360  207.6630  153.9940 C   0  0  0  0  0  0  0  0  0  0  0  0
  160.8660  209.8950  153.0460 C   0  0  0  0  0  0  0  0  0  0  0  0
  161.1430  208.5020  152.9030 C   0  0  0  0  0  0  0  0  0  0  0  0
  160.1480  209.5550  155.2680 N   0  0  0  0  0  0  0  0  0  0  0  0
  160.9630  210.8810  151.9570 C   0  0  0  0  0  0  0  0  0  0  0  0
  160.0240  211.9590  151.8880 N   0  0  0  0  0  2  0  0  0  0  0  0
  161.9130  210.8100  151.1310 O   0  0  0  0  0  0  0  0  0  0  0  0
  160.1750  213.0780  150.9730 C   0  0  0  0  0  2  0  0  0  0  0  0
  159.1460  214.1660  151.2510 C   0  0  0  0  0  2  0  0  0  0  0  0
  158.6380  214.0950  152.6870 C   0  0  0  0  0  2  0  0  0  0  0  0
  157.2410  212.8060  153.8330 C   0  0  0  0  0  1  0  0  0  0  0  0
  157.3140  213.6440  152.7170 O   0  0  0  0  0  0  0  0  0  0  0  0
  159.9420  207.3620  156.3400 C   0  0  0  0  0  2  0  0  0  0  0  0
  161.0630  207.2670  157.2610 N   0  0  0  0  0  1  0  0  0  0  0  0
  161.7460  205.6420  150.5440 C   0  0  0  0  0  2  0  0  0  0  0  0
  160.8760  204.4350  150.2150 C   0  0  1  0  0  3  0  0  0  0  0  0
  161.3540  204.9350  147.7900 N   0  0  0  0  0  2  0  0  0  0  0  0
  161.1250  203.9680  148.8200 C   0  0  0  0  0  0  0  0  0  0  0  0
  161.1320  202.7340  148.5470 O   0  0  0  0  0  0  0  0  0  0  0  0
  161.6520  204.5740  146.4070 C   0  0  1  0  0  3  0  0  0  0  0  0
  163.0530  205.0300  146.0340 C   0  0  0  0  0  1  0  0  0  0  0  0
  161.4890  203.1350  146.1760 N   0  0  0  0  0  2  0  0  0  0  0  0
  160.0290  203.9720  144.5590 O   0  0  0  0  0  1  0  0  0  0  0  0
  160.8120  202.8750  144.9090 C   0  0  2  0  0  3  0  0  0  0  0  0
  160.5360  200.6960  145.8750 O   0  0  0  0  0  1  0  0  0  0  0  0
  159.9450  201.6310  145.0200 C   0  0  0  0  0  2  0  0  0  0  0  0
  161.1140  203.3400  151.1690 C   0  0  0  0  0  0  0  0  0  0  0  0
  161.3010  202.4420  151.9530 C   0  0  0  0  0  3  0  0  0  0  0  0
  1  3  1  0  0  0  0
  1  2  1  0  0  0  0
  2  9  1  1  0  0  0
  3 21  1  6  0  0  0
  3  2  1  0  0  0  0
  4 10  1  0  0  0  0
  5 10  2  0  0  0  0
  5 19  1  0  0  0  0
  6  7  1  0  0  0  0
  7  5  1  0  0  0  0
  8  4  2  0  0  0  0
  9  8  1  0  0  0  0
  9  7  2  0  0  0  0
 11  8  1  0  0  0  0
 12 11  1  0  0  0  0
 13 11  2  0  0  0  0
 14 15  1  0  0  0  0
 14 12  1  0  0  0  0
 15 16  1  0  0  0  0
 16 18  1  0  0  0  0
 18 17  1  0  0  0  0
 19 20  1  0  0  0  0
 22 21  1  1  0  0  0
 22 33  1  0  0  0  0
 23 24  1  0  0  0  0
 24 22  1  0  0  0  0
 25 24  2  0  0  0  0
 26 27  1  1  0  0  0
 26 23  1  0  0  0  0
 28 26  1  0  0  0  0
 30 29  1  1  0  0  0
 30 32  1  0  0  0  0
 30 28  1  0  0  0  0
 32 31  1  0  0  0  0
 33 34  3  0  0  0  0
M  END
>  <MODEL>
7

>  <REMARK>
 VINA RESULT:      -6.6      2.478      2.943
  Name = 
  15 active torsions:
  status: ('A' for Active; 'I' for Inactive)
    1  A    between atoms: C_2  and  C_16
    2  A    between atoms: C_3  and  C_8
    3  A    between atoms: C_3  and  O_20
    4  A    between atoms: C_4  and  C_8
    5  A    between atoms: C_4  and  N_17
    6  A    between atoms: N_6  and  C_14
    7  A    between atoms: C_7  and  C_31
    8  A    between atoms: C_9  and  C_31
    9  A    between atoms: C_10  and  C_26
   10  A    between atoms: C_13  and  C_22
   11  A    between atoms: C_13  and  N_25
   12  A    between atoms: C_14  and  N_25
   13  A    between atoms: C_24  and  C_29
   14  A    between atoms: C_28  and  C_34
   15  A    between atoms: C_31  and  C_34
                            x       y       z     vdW  Elec       q    Type
                         _______ _______ _______ _____ _____    ______ ____

>  <TORSDO>
F 15

$$$$
=
 OpenBabel11052411063D

 34 35  0  0  1  0  0  0  0  0999 V2000
  160.3010  204.4620  150.9620 C   0  0  0  0  0  2  0  0  0  0  0  0
  161.6220  204.6320  150.2350 C   0  0  2  0  0  3  0  0  0  0  0  0
  160.9090  205.8440  150.7900 C   0  0  2  0  0  3  0  0  0  0  0  0
  161.5770  205.5880  146.5100 N   0  0  0  0  0  0  0  0  0  0  0  0
  161.1090  203.3060  146.7210 C   0  0  0  0  0  0  0  0  0  0  0  0
  161.0320  201.9360  149.1040 Cl  0  0  0  0  0  0  0  0  0  0  0  0
  161.2630  203.3850  148.1140 C   0  0  0  0  0  0  0  0  0  0  0  0
  161.7890  205.7380  147.8460 C   0  0  0  0  0  0  0  0  0  0  0  0
  161.5880  204.6210  148.7110 C   0  0  0  0  0  0  0  0  0  0  0  0
  161.2430  204.4190  145.9670 N   0  0  0  0  0  0  0  0  0  0  0  0
  162.2960  207.0500  148.2810 C   0  0  0  0  0  0  0  0  0  0  0  0
  161.4160  208.1790  148.3070 N   0  0  0  0  0  2  0  0  0  0  0  0
  163.4830  207.1580  148.6920 O   0  0  0  0  0  0  0  0  0  0  0  0
  161.7820  209.4490  148.9110 C   0  0  0  0  0  2  0  0  0  0  0  0
  161.6650  210.5930  147.9130 C   0  0  0  0  0  2  0  0  0  0  0  0
  162.0850  211.9190  148.5380 C   0  0  0  0  0  2  0  0  0  0  0  0
  160.9040  212.7400  146.8470 C   0  0  0  0  0  1  0  0  0  0  0  0
  162.0790  212.9370  147.5780 O   0  0  0  0  0  0  0  0  0  0  0  0
  160.8050  202.0100  146.0430 C   0  0  0  0  0  2  0  0  0  0  0  0
  160.0550  202.2600  144.8230 N   0  0  0  0  0  1  0  0  0  0  0  0
  161.5750  206.2740  152.0840 C   0  0  0  0  0  2  0  0  0  0  0  0
  160.8880  207.5080  152.6560 C   0  0  1  0  0  3  0  0  0  0  0  0
  160.9440  208.6190  154.9200 N   0  0  0  0  0  2  0  0  0  0  0  0
  160.8030  207.4240  154.1440 C   0  0  0  0  0  0  0  0  0  0  0  0
  160.6120  206.3140  154.7150 O   0  0  0  0  0  0  0  0  0  0  0  0
  160.8300  208.6440  156.3750 C   0  0  1  0  0  3  0  0  0  0  0  0
  162.1810  208.9460  157.0040 C   0  0  0  0  0  1  0  0  0  0  0  0
  159.8160  209.6060  156.8210 N   0  0  0  0  0  2  0  0  0  0  0  0
  160.3510  211.8420  156.4140 O   0  0  0  0  0  1  0  0  0  0  0  0
  159.7020  210.7260  155.8910 C   0  0  2  0  0  3  0  0  0  0  0  0
  157.9130  212.3020  156.1530 O   0  0  0  0  0  1  0  0  0  0  0  0
  158.2390  211.0480  155.6300 C   0  0  0  0  0  2  0  0  0  0  0  0
  161.5930  208.7350  152.2540 C   0  0  0  0  0  0  0  0  0  0  0  0
  162.1760  209.7380  151.9220 C   0  0  0  0  0  3  0  0  0  0  0  0
  2  9  1  6  0  0  0
  2  3  1  0  0  0  0
  2  1  1  0  0  0  0
  3  1  1  0  0  0  0
  3 21  1  1  0  0  0
  4  8  1  0  0  0  0
  5  7  2  0  0  0  0
  7  9  1  0  0  0  0
  7  6  1  0  0  0  0
  8 11  1  0  0  0  0
  8  9  2  0  0  0  0
 10  4  2  0  0  0  0
 10  5  1  0  0  0  0
 11 12  1  0  0  0  0
 11 13  2  0  0  0  0
 12 14  1  0  0  0  0
 15 16  1  0  0  0  0
 15 14  1  0  0  0  0
 17 18  1  0  0  0  0
 18 16  1  0  0  0  0
 19  5  1  0  0  0  0
 20 19  1  0  0  0  0
 22 21  1  1  0  0  0
 22 24  1  0  0  0  0
 23 26  1  0  0  0  0
 24 25  2  0  0  0  0
 24 23  1  0  0  0  0
 26 28  1  0  0  0  0
 26 27  1  1  0  0  0
 30 29  1  1  0  0  0
 30 28  1  0  0  0  0
 32 30  1  0  0  0  0
 32 31  1  0  0  0  0
 33 22  1  0  0  0  0
 34 33  3  0  0  0  0
M  END
>  <MODEL>
8

>  <REMARK>
 VINA RESULT:      -6.6      2.934      8.176
  Name = 
  15 active torsions:
  status: ('A' for Active; 'I' for Inactive)
    1  A    between atoms: C_2  and  C_16
    2  A    between atoms: C_3  and  C_8
    3  A    between atoms: C_3  and  O_20
    4  A    between atoms: C_4  and  C_8
    5  A    between atoms: C_4  and  N_17
    6  A    between atoms: N_6  and  C_14
    7  A    between atoms: C_7  and  C_31
    8  A    between atoms: C_9  and  C_31
    9  A    between atoms: C_10  and  C_26
   10  A    between atoms: C_13  and  C_22
   11  A    between atoms: C_13  and  N_25
   12  A    between atoms: C_14  and  N_25
   13  A    between atoms: C_24  and  C_29
   14  A    between atoms: C_28  and  C_34
   15  A    between atoms: C_31  and  C_34
                            x       y       z     vdW  Elec       q    Type
                         _______ _______ _______ _____ _____    ______ ____

>  <TORSDO>
F 15

$$$$
=
 OpenBabel11052411063D

 34 35  0  0  1  0  0  0  0  0999 V2000
  162.1220  208.8240  148.8570 C   0  0  0  0  0  2  0  0  0  0  0  0
  162.2050  209.1080  150.3450 C   0  0  2  0  0  3  0  0  0  0  0  0
  161.2990  208.0080  149.8400 C   0  0  2  0  0  3  0  0  0  0  0  0
  160.6300  212.5630  150.9590 N   0  0  0  0  0  0  0  0  0  0  0  0
  160.1010  211.1500  152.7480 C   0  0  0  0  0  0  0  0  0  0  0  0
  160.8580  208.5140  152.9390 Cl  0  0  0  0  0  0  0  0  0  0  0  0
  160.7780  210.0870  152.1310 C   0  0  0  0  0  0  0  0  0  0  0  0
  161.2650  211.5720  150.2760 C   0  0  0  0  0  0  0  0  0  0  0  0
  161.3980  210.2860  150.8800 C   0  0  0  0  0  0  0  0  0  0  0  0
  160.0740  212.3630  152.1530 N   0  0  0  0  0  0  0  0  0  0  0  0
  161.6990  211.9010  148.9080 C   0  0  0  0  0  0  0  0  0  0  0  0
  160.7220  212.0890  147.8780 N   0  0  0  0  0  2  0  0  0  0  0  0
  162.9230  212.0830  148.6660 O   0  0  0  0  0  0  0  0  0  0  0  0
  161.0540  212.6110  146.5630 C   0  0  0  0  0  2  0  0  0  0  0  0
  160.0250  212.1910  145.5230 C   0  0  0  0  0  2  0  0  0  0  0  0
  158.8970  213.2120  145.4150 C   0  0  0  0  0  2  0  0  0  0  0  0
  157.0760  213.4870  146.6540 C   0  0  0  0  0  1  0  0  0  0  0  0
  157.6690  212.6210  145.7310 O   0  0  0  0  0  0  0  0  0  0  0  0
  159.3950  210.9730  154.0530 C   0  0  0  0  0  2  0  0  0  0  0  0
  159.5930  212.1520  154.8800 N   0  0  0  0  0  1  0  0  0  0  0  0
  161.9610  206.6620  150.0670 C   0  0  0  0  0  2  0  0  0  0  0  0
  160.9450  205.5350  149.9310 C   0  0  1  0  0  3  0  0  0  0  0  0
  161.6320  205.3950  147.5090 N   0  0  0  0  0  2  0  0  0  0  0  0
  161.2090  204.7300  148.7030 C   0  0  0  0  0  0  0  0  0  0  0  0
  161.0600  203.4750  148.7130 O   0  0  0  0  0  0  0  0  0  0  0  0
  161.9590  204.6890  146.2730 C   0  0  1  0  0  3  0  0  0  0  0  0
  163.4620  204.6980  146.0440 C   0  0  0  0  0  1  0  0  0  0  0  0
  161.4360  203.3190  146.2790 N   0  0  0  0  0  2  0  0  0  0  0  0
  160.1610  204.1600  144.5150 O   0  0  0  0  0  1  0  0  0  0  0  0
  160.7510  203.0070  145.0280 C   0  0  2  0  0  3  0  0  0  0  0  0
  160.1790  200.6820  144.8840 O   0  0  0  0  0  1  0  0  0  0  0  0
  159.6940  201.9390  145.2570 C   0  0  0  0  0  2  0  0  0  0  0  0
  160.9570  204.6700  151.1210 C   0  0  0  0  0  0  0  0  0  0  0  0
  160.9690  203.9660  152.1010 C   0  0  0  0  0  3  0  0  0  0  0  0
  1  3  1  0  0  0  0
  1  2  1  0  0  0  0
  2  9  1  6  0  0  0
  3 21  1  1  0  0  0
  3  2  1  0  0  0  0
  4 10  1  0  0  0  0
  5 19  1  0  0  0  0
  7  5  1  0  0  0  0
  7  6  1  0  0  0  0
  8  9  1  0  0  0  0
  8  4  2  0  0  0  0
  9  7  2  0  0  0  0
 10  5  2  0  0  0  0
 11  8  1  0  0  0  0
 12 11  1  0  0  0  0
 13 11  2  0  0  0  0
 14 12  1  0  0  0  0
 15 14  1  0  0  0  0
 16 15  1  0  0  0  0
 16 18  1  0  0  0  0
 18 17  1  0  0  0  0
 19 20  1  0  0  0  0
 22 21  1  1  0  0  0
 22 33  1  0  0  0  0
 23 24  1  0  0  0  0
 24 25  2  0  0  0  0
 24 22  1  0  0  0  0
 26 27  1  1  0  0  0
 26 28  1  0  0  0  0
 26 23  1  0  0  0  0
 30 29  1  1  0  0  0
 30 32  1  0  0  0  0
 30 28  1  0  0  0  0
 31 32  1  0  0  0  0
 33 34  3  0  0  0  0
M  END
>  <MODEL>
9

>  <REMARK>
 VINA RESULT:      -6.6      2.318      2.979
  Name = 
  15 active torsions:
  status: ('A' for Active; 'I' for Inactive)
    1  A    between atoms: C_2  and  C_16
    2  A    between atoms: C_3  and  C_8
    3  A    between atoms: C_3  and  O_20
    4  A    between atoms: C_4  and  C_8
    5  A    between atoms: C_4  and  N_17
    6  A    between atoms: N_6  and  C_14
    7  A    between atoms: C_7  and  C_31
    8  A    between atoms: C_9  and  C_31
    9  A    between atoms: C_10  and  C_26
   10  A    between atoms: C_13  and  C_22
   11  A    between atoms: C_13  and  N_25
   12  A    between atoms: C_14  and  N_25
   13  A    between atoms: C_24  and  C_29
   14  A    between atoms: C_28  and  C_34
   15  A    between atoms: C_31  and  C_34
                            x       y       z     vdW  Elec       q    Type
                         _______ _______ _______ _____ _____    ______ ____

>  <TORSDO>
F 15

$$$$
