=
 OpenBabel11052409303D

 35 37  0  0  1  0  0  0  0  0999 V2000
  161.4790  208.7710  151.7170 C   0  0  0  0  0  0  0  0  0  0  0  0
  161.3930  206.5210  150.7970 C   0  0  0  0  0  3  0  0  0  0  0  0
  161.2820  207.3850  151.8880 C   0  0  0  0  0  0  0  0  0  0  0  0
  161.5420  210.8770  152.8500 O   0  0  0  0  0  0  0  0  0  0  0  0
  161.8850  208.3850  149.3510 C   0  0  0  0  0  3  0  0  0  0  0  0
  160.8000  207.7830  154.3420 C   0  0  0  0  0  0  0  0  0  0  0  0
  160.4190  207.2850  155.6900 C   0  0  0  0  0  1  0  0  0  0  0  0
  161.6950  207.0100  149.5280 C   0  0  0  0  0  0  0  0  0  0  0  0
  161.7820  209.2770  150.4290 C   0  0  0  0  0  0  0  0  0  0  0  0
  160.9920  209.0560  154.1710 N   0  0  0  0  0  0  0  0  0  0  0  0
  161.3510  209.6340  152.9140 C   0  0  0  0  0  0  0  0  0  0  0  0
  160.9680  206.7830  153.2300 C   0  0  0  0  0  2  0  0  0  0  0  0
  161.9730  210.6880  150.2280 N   0  0  0  0  0  2  0  0  0  0  0  0
  161.9680  211.4070  148.9860 C   0  0  0  0  0  0  0  0  0  0  0  0
  162.0260  212.7960  146.6030 C   0  0  0  0  0  0  0  0  0  0  0  0
  163.1830  212.5210  147.2680 N   0  0  0  0  0  0  0  0  0  0  0  0
  160.8110  212.3670  147.1480 C   0  0  0  0  0  3  0  0  0  0  0  0
  160.8100  211.6840  148.3240 N   0  0  0  0  0  0  0  0  0  0  0  0
  163.1800  211.8390  148.4460 C   0  0  0  0  0  3  0  0  0  0  0  0
  163.2370  214.0060  143.1440 C   0  0  0  0  0  1  0  0  0  0  0  0
  161.1260  214.3120  145.0140 O   0  0  0  0  0  0  0  0  0  0  0  0
  163.1650  213.3360  144.4320 N   0  0  0  0  0  2  0  0  0  0  0  0
  162.0640  213.5250  145.3250 C   0  0  0  0  0  0  0  0  0  0  0  0
  161.7950  206.1140  148.4580 O   0  0  0  0  0  0  0  0  0  0  0  0
  162.1400  206.5290  147.1440 C   0  0  0  0  0  2  0  0  0  0  0  0
  161.6150  205.5220  146.1440 C   0  0  0  0  0  2  0  0  0  0  0  0
  161.8120  204.2090  146.6480 O   0  0  0  0  0  0  0  0  0  0  0  0
  160.8200  203.0770  144.9210 O   0  0  0  0  0  0  0  0  0  0  0  0
  161.1180  203.1060  146.1440 C   0  0  0  0  0  0  0  0  0  0  0  0
  161.1340  200.7520  146.4360 O   0  0  0  0  0  1  0  0  0  0  0  0
  160.7420  201.9560  147.0280 C   0  0  1  0  0  3  0  0  0  0  0  0
  161.3970  202.1040  148.3920 C   0  0  0  0  0  2  0  0  0  0  0  0
  159.3980  201.3760  149.4660 O   0  0  0  0  0  0  0  0  0  0  0  0
  160.3600  202.1900  149.4570 C   0  0  0  0  0  0  0  0  0  0  0  0
  160.4730  203.1430  150.4640 O   0  0  0  0  0  1  0  0  0  0  0  0
  1  3  1  0  0  0  0
  1 11  1  0  0  0  0
  2  3  2  0  0  0  0
  3 12  1  0  0  0  0
  4 11  2  0  0  0  0
  5  8  2  0  0  0  0
  5  9  1  0  0  0  0
  6  7  1  0  0  0  0
  8  2  1  0  0  0  0
  9  1  2  0  0  0  0
 10  6  2  0  0  0  0
 11 10  1  0  0  0  0
 12  6  1  0  0  0  0
 13  9  1  0  0  0  0
 14 13  1  0  0  0  0
 15 17  2  0  0  0  0
 15 16  1  0  0  0  0
 16 19  2  0  0  0  0
 17 18  1  0  0  0  0
 18 14  2  0  0  0  0
 19 14  1  0  0  0  0
 20 22  1  0  0  0  0
 21 23  2  0  0  0  0
 22 23  1  0  0  0  0
 23 15  1  0  0  0  0
 24  8  1  0  0  0  0
 25 24  1  0  0  0  0
 26 27  1  0  0  0  0
 26 25  1  0  0  0  0
 28 29  2  0  0  0  0
 29 27  1  0  0  0  0
 29 31  1  0  0  0  0
 31 30  1  6  0  0  0
 31 32  1  0  0  0  0
 32 34  1  0  0  0  0
 34 33  2  0  0  0  0
 34 35  1  0  0  0  0
M  END
>  <MODEL>
1

>  <REMARK>
 VINA RESULT:      -7.5      0.000      0.000
  Name = 
  11 active torsions:
  status: ('A' for Active; 'I' for Inactive)
    1  A    between atoms: C_5  and  N_22
    2  A    between atoms: C_7  and  C_18
    3  A    between atoms: O_12  and  C_32
    4  A    between atoms: O_12  and  C_34
    5  A    between atoms: C_14  and  C_28
    6  A    between atoms: C_16  and  C_32
    7  A    between atoms: C_16  and  O_33
    8  A    between atoms: C_17  and  O_33
    9  A    between atoms: C_18  and  C_24
   10  A    between atoms: N_22  and  C_23
   11  A    between atoms: C_24  and  C_34
                            x       y       z     vdW  Elec       q    Type
                         _______ _______ _______ _____ _____    ______ ____

>  <TORSDO>
F 11

$$$$
=
 OpenBabel11052409303D

 35 37  0  0  1  0  0  0  0  0999 V2000
  160.9030  208.3600  153.6480 C   0  0  0  0  0  0  0  0  0  0  0  0
  161.2760  210.2070  152.1110 C   0  0  0  0  0  3  0  0  0  0  0  0
  160.8330  209.7350  153.3480 C   0  0  0  0  0  0  0  0  0  0  0  0
  160.4140  206.7070  155.3080 O   0  0  0  0  0  0  0  0  0  0  0  0
  161.8720  207.9670  151.4530 C   0  0  0  0  0  3  0  0  0  0  0  0
  159.8770  210.1630  155.6530 C   0  0  0  0  0  0  0  0  0  0  0  0
  159.3770  211.0900  156.7030 C   0  0  0  0  0  1  0  0  0  0  0  0
  161.7950  209.3320  151.1580 C   0  0  0  0  0  0  0  0  0  0  0  0
  161.4330  207.4630  152.6870 C   0  0  0  0  0  0  0  0  0  0  0  0
  159.9400  208.8920  155.9120 N   0  0  0  0  0  0  0  0  0  0  0  0
  160.4140  207.9220  154.9760 C   0  0  0  0  0  0  0  0  0  0  0  0
  160.2720  210.7370  154.3200 C   0  0  0  0  0  2  0  0  0  0  0  0
  161.5270  206.0580  152.9760 N   0  0  0  0  0  2  0  0  0  0  0  0
  161.2640  204.9600  152.0900 C   0  0  0  0  0  0  0  0  0  0  0  0
  160.7530  202.8930  150.3360 C   0  0  0  0  0  0  0  0  0  0  0  0
  160.8210  204.1780  149.8860 N   0  0  0  0  0  0  0  0  0  0  0  0
  160.9420  202.6410  151.6990 C   0  0  0  0  0  3  0  0  0  0  0  0
  161.1920  203.6770  152.5420 N   0  0  0  0  0  0  0  0  0  0  0  0
  161.0710  205.2140  150.7320 C   0  0  0  0  0  3  0  0  0  0  0  0
  161.3730  200.1520  147.6900 C   0  0  0  0  0  1  0  0  0  0  0  0
  159.3290  201.3170  149.2760 O   0  0  0  0  0  0  0  0  0  0  0  0
  161.5660  201.2600  148.6120 N   0  0  0  0  0  2  0  0  0  0  0  0
  160.4940  201.7920  149.3930 C   0  0  0  0  0  0  0  0  0  0  0  0
  162.2320  209.8420  149.9310 O   0  0  0  0  0  0  0  0  0  0  0  0
  161.9990  209.1730  148.7000 C   0  0  0  0  0  2  0  0  0  0  0  0
  162.3120  207.7010  148.8590 C   0  0  0  0  0  2  0  0  0  0  0  0
  162.5950  207.1380  147.5860 O   0  0  0  0  0  0  0  0  0  0  0  0
  160.5290  206.2340  147.1910 O   0  0  0  0  0  0  0  0  0  0  0  0
  161.7720  206.1780  146.9960 C   0  0  0  0  0  0  0  0  0  0  0  0
  163.7000  204.9340  146.3940 O   0  0  0  0  0  1  0  0  0  0  0  0
  162.3390  205.0990  146.1240 C   0  0  1  0  0  3  0  0  0  0  0  0
  161.5990  203.7910  146.3550 C   0  0  0  0  0  2  0  0  0  0  0  0
  160.3390  202.2650  145.0280 O   0  0  0  0  0  1  0  0  0  0  0  0
  160.7930  203.4330  145.1550 C   0  0  0  0  0  0  0  0  0  0  0  0
  160.5090  204.3980  144.1940 O   0  0  0  0  0  0  0  0  0  0  0  0
  1 11  1  0  0  0  0
  2  3  2  0  0  0  0
  3  1  1  0  0  0  0
  3 12  1  0  0  0  0
  5  9  1  0  0  0  0
  6 10  2  0  0  0  0
  6  7  1  0  0  0  0
  8  5  2  0  0  0  0
  8  2  1  0  0  0  0
  9 13  1  0  0  0  0
  9  1  2  0  0  0  0
 11  4  2  0  0  0  0
 11 10  1  0  0  0  0
 12  6  1  0  0  0  0
 14 18  2  0  0  0  0
 14 13  1  0  0  0  0
 15 17  2  0  0  0  0
 16 15  1  0  0  0  0
 16 19  2  0  0  0  0
 17 18  1  0  0  0  0
 19 14  1  0  0  0  0
 20 22  1  0  0  0  0
 21 23  2  0  0  0  0
 22 23  1  0  0  0  0
 23 15  1  0  0  0  0
 24  8  1  0  0  0  0
 25 26  1  0  0  0  0
 25 24  1  0  0  0  0
 27 26  1  0  0  0  0
 29 28  2  0  0  0  0
 29 27  1  0  0  0  0
 31 32  1  0  0  0  0
 31 30  1  1  0  0  0
 31 29  1  0  0  0  0
 33 34  1  0  0  0  0
 34 32  1  0  0  0  0
 35 34  2  0  0  0  0
M  END
>  <MODEL>
2

>  <REMARK>
 VINA RESULT:      -7.5      3.800      6.730
  Name = 
  11 active torsions:
  status: ('A' for Active; 'I' for Inactive)
    1  A    between atoms: C_5  and  N_22
    2  A    between atoms: C_7  and  C_18
    3  A    between atoms: O_12  and  C_32
    4  A    between atoms: O_12  and  C_34
    5  A    between atoms: C_14  and  C_28
    6  A    between atoms: C_16  and  C_32
    7  A    between atoms: C_16  and  O_33
    8  A    between atoms: C_17  and  O_33
    9  A    between atoms: C_18  and  C_24
   10  A    between atoms: N_22  and  C_23
   11  A    between atoms: C_24  and  C_34
                            x       y       z     vdW  Elec       q    Type
                         _______ _______ _______ _____ _____    ______ ____

>  <TORSDO>
F 11

$$$$
=
 OpenBabel11052409303D

 35 37  0  0  1  0  0  0  0  0999 V2000
  161.0680  204.9500  150.4520 C   0  0  0  0  0  0  0  0  0  0  0  0
  161.3710  206.0970  148.3290 C   0  0  0  0  0  3  0  0  0  0  0  0
  161.2040  204.9130  149.0500 C   0  0  0  0  0  0  0  0  0  0  0  0
  160.7990  203.6050  152.4130 O   0  0  0  0  0  0  0  0  0  0  0  0
  161.2610  207.3720  150.3710 C   0  0  0  0  0  3  0  0  0  0  0  0
  160.9460  202.3940  149.1170 C   0  0  0  0  0  0  0  0  0  0  0  0
  160.8500  201.0780  148.4340 C   0  0  0  0  0  1  0  0  0  0  0  0
  161.4020  207.3290  148.9790 C   0  0  0  0  0  0  0  0  0  0  0  0
  161.0940  206.1990  151.1220 C   0  0  0  0  0  0  0  0  0  0  0  0
  160.8300  202.4440  150.4100 N   0  0  0  0  0  0  0  0  0  0  0  0
  160.8970  203.6590  151.1590 C   0  0  0  0  0  0  0  0  0  0  0  0
  161.1950  203.6200  148.2810 C   0  0  0  0  0  2  0  0  0  0  0  0
  160.9420  206.2620  152.5500 N   0  0  0  0  0  2  0  0  0  0  0  0
  161.0060  207.4250  153.3890 C   0  0  0  0  0  0  0  0  0  0  0  0
  161.1260  209.6200  155.0560 C   0  0  0  0  0  0  0  0  0  0  0  0
  161.1360  208.3600  155.5750 N   0  0  0  0  0  0  0  0  0  0  0  0
  161.0490  209.7820  153.6680 C   0  0  0  0  0  3  0  0  0  0  0  0
  160.9900  208.6840  152.8690 N   0  0  0  0  0  0  0  0  0  0  0  0
  161.0770  207.2620  154.7730 C   0  0  0  0  0  3  0  0  0  0  0  0
  160.2140  212.9630  156.7560 C   0  0  0  0  0  1  0  0  0  0  0  0
  162.1510  210.8900  156.7790 O   0  0  0  0  0  0  0  0  0  0  0  0
  160.2020  211.8050  155.8770 N   0  0  0  0  0  2  0  0  0  0  0  0
  161.2040  210.7870  155.9490 C   0  0  0  0  0  0  0  0  0  0  0  0
  161.5680  208.4940  148.2240 O   0  0  0  0  0  0  0  0  0  0  0  0
  162.3740  209.5790  148.6610 C   0  0  0  0  0  2  0  0  0  0  0  0
  161.5620  210.8550  148.6300 C   0  0  0  0  0  2  0  0  0  0  0  0
  162.2440  211.8310  147.8540 O   0  0  0  0  0  0  0  0  0  0  0  0
  161.5660  214.0100  147.6660 O   0  0  0  0  0  0  0  0  0  0  0  0
  161.5700  212.8490  147.1770 C   0  0  0  0  0  0  0  0  0  0  0  0
  159.4880  212.6480  146.0580 O   0  0  0  0  0  1  0  0  0  0  0  0
  160.8720  212.5870  145.8770 C   0  0  1  0  0  3  0  0  0  0  0  0
  161.3070  213.6030  144.8320 C   0  0  0  0  0  2  0  0  0  0  0  0
  163.5630  213.1800  144.1940 O   0  0  0  0  0  1  0  0  0  0  0  0
  162.3410  213.0130  143.9380 C   0  0  0  0  0  0  0  0  0  0  0  0
  161.9590  212.2470  142.8410 O   0  0  0  0  0  0  0  0  0  0  0  0
  1  9  1  0  0  0  0
  1 11  1  0  0  0  0
  2  8  2  0  0  0  0
  2  3  1  0  0  0  0
  3  1  2  0  0  0  0
  5  9  2  0  0  0  0
  6 10  2  0  0  0  0
  7  6  1  0  0  0  0
  8  5  1  0  0  0  0
  9 13  1  0  0  0  0
 10 11  1  0  0  0  0
 11  4  2  0  0  0  0
 12  3  1  0  0  0  0
 12  6  1  0  0  0  0
 13 14  1  0  0  0  0
 14 19  1  0  0  0  0
 15 16  1  0  0  0  0
 15 23  1  0  0  0  0
 17 15  2  0  0  0  0
 18 14  2  0  0  0  0
 18 17  1  0  0  0  0
 19 16  2  0  0  0  0
 22 23  1  0  0  0  0
 22 20  1  0  0  0  0
 23 21  2  0  0  0  0
 24 25  1  0  0  0  0
 24  8  1  0  0  0  0
 26 25  1  0  0  0  0
 27 26  1  0  0  0  0
 29 28  2  0  0  0  0
 29 27  1  0  0  0  0
 31 30  1  1  0  0  0
 31 29  1  0  0  0  0
 32 31  1  0  0  0  0
 34 33  1  0  0  0  0
 34 32  1  0  0  0  0
 35 34  2  0  0  0  0
M  END
>  <MODEL>
3

>  <REMARK>
 VINA RESULT:      -7.4      3.317      8.604
  Name = 
  11 active torsions:
  status: ('A' for Active; 'I' for Inactive)
    1  A    between atoms: C_5  and  N_22
    2  A    between atoms: C_7  and  C_18
    3  A    between atoms: O_12  and  C_32
    4  A    between atoms: O_12  and  C_34
    5  A    between atoms: C_14  and  C_28
    6  A    between atoms: C_16  and  C_32
    7  A    between atoms: C_16  and  O_33
    8  A    between atoms: C_17  and  O_33
    9  A    between atoms: C_18  and  C_24
   10  A    between atoms: N_22  and  C_23
   11  A    between atoms: C_24  and  C_34
                            x       y       z     vdW  Elec       q    Type
                         _______ _______ _______ _____ _____    ______ ____

>  <TORSDO>
F 11

$$$$
=
 OpenBabel11052409303D

 35 37  0  0  1  0  0  0  0  0999 V2000
  161.1350  208.8000  152.8680 C   0  0  0  0  0  0  0  0  0  0  0  0
  161.2090  206.5630  151.9150 C   0  0  0  0  0  3  0  0  0  0  0  0
  161.0180  207.4020  153.0140 C   0  0  0  0  0  0  0  0  0  0  0  0
  161.0420  210.8880  154.0320 O   0  0  0  0  0  0  0  0  0  0  0  0
  161.6250  208.4750  150.5090 C   0  0  0  0  0  3  0  0  0  0  0  0
  160.4500  207.7320  155.4610 C   0  0  0  0  0  0  0  0  0  0  0  0
  160.0660  207.1920  156.7910 C   0  0  0  0  0  1  0  0  0  0  0  0
  161.5140  207.0890  150.6610 C   0  0  0  0  0  0  0  0  0  0  0  0
  161.4410  209.3430  151.5960 C   0  0  0  0  0  0  0  0  0  0  0  0
  160.5700  209.0170  155.3120 N   0  0  0  0  0  0  0  0  0  0  0  0
  160.9250  209.6350  154.0730 C   0  0  0  0  0  0  0  0  0  0  0  0
  160.7070  206.7620  154.3390 C   0  0  0  0  0  2  0  0  0  0  0  0
  161.5510  210.7660  151.4200 N   0  0  0  0  0  2  0  0  0  0  0  0
  161.4590  211.5090  150.1960 C   0  0  0  0  0  0  0  0  0  0  0  0
  161.3310  212.8980  147.8150 C   0  0  0  0  0  0  0  0  0  0  0  0
  162.1650  211.8280  147.9440 N   0  0  0  0  0  0  0  0  0  0  0  0
  160.5450  213.2810  148.9070 C   0  0  0  0  0  3  0  0  0  0  0  0
  160.6280  212.5800  150.0690 N   0  0  0  0  0  0  0  0  0  0  0  0
  162.2470  211.1280  149.1090 C   0  0  0  0  0  3  0  0  0  0  0  0
  162.2340  214.1100  144.2640 C   0  0  0  0  0  1  0  0  0  0  0  0
  160.2930  214.4120  146.3100 O   0  0  0  0  0  0  0  0  0  0  0  0
  162.2750  213.4400  145.5540 N   0  0  0  0  0  2  0  0  0  0  0  0
  161.2560  213.6260  146.5380 C   0  0  0  0  0  0  0  0  0  0  0  0
  161.6950  206.2170  149.5830 O   0  0  0  0  0  0  0  0  0  0  0  0
  160.6310  205.4570  149.0280 C   0  0  0  0  0  2  0  0  0  0  0  0
  160.9620  203.9830  149.1230 C   0  0  0  0  0  2  0  0  0  0  0  0
  161.7980  203.6160  148.0340 O   0  0  0  0  0  0  0  0  0  0  0  0
  160.7030  201.7790  147.2140 O   0  0  0  0  0  0  0  0  0  0  0  0
  161.3360  202.8400  146.9690 C   0  0  0  0  0  0  0  0  0  0  0  0
  160.3620  203.2060  144.8370 O   0  0  0  0  0  1  0  0  0  0  0  0
  161.5640  203.2580  145.5480 C   0  0  1  0  0  3  0  0  0  0  0  0
  162.1390  204.6650  145.4990 C   0  0  0  0  0  2  0  0  0  0  0  0
  161.3990  205.7130  143.4910 O   0  0  0  0  0  0  0  0  0  0  0  0
  161.2350  205.5660  144.7320 C   0  0  0  0  0  0  0  0  0  0  0  0
  160.1870  206.2150  145.3760 O   0  0  0  0  0  1  0  0  0  0  0  0
  1  3  1  0  0  0  0
  1 11  1  0  0  0  0
  2  3  2  0  0  0  0
  3 12  1  0  0  0  0
  4 11  2  0  0  0  0
  5  8  2  0  0  0  0
  5  9  1  0  0  0  0
  6  7  1  0  0  0  0
  8  2  1  0  0  0  0
  9  1  2  0  0  0  0
 10  6  2  0  0  0  0
 11 10  1  0  0  0  0
 12  6  1  0  0  0  0
 13  9  1  0  0  0  0
 14 13  1  0  0  0  0
 15 16  1  0  0  0  0
 15 17  2  0  0  0  0
 16 19  2  0  0  0  0
 17 18  1  0  0  0  0
 18 14  2  0  0  0  0
 19 14  1  0  0  0  0
 20 22  1  0  0  0  0
 21 23  2  0  0  0  0
 22 23  1  0  0  0  0
 23 15  1  0  0  0  0
 24  8  1  0  0  0  0
 25 26  1  0  0  0  0
 25 24  1  0  0  0  0
 27 26  1  0  0  0  0
 29 28  2  0  0  0  0
 29 27  1  0  0  0  0
 31 30  1  6  0  0  0
 31 29  1  0  0  0  0
 32 31  1  0  0  0  0
 33 34  2  0  0  0  0
 34 35  1  0  0  0  0
 34 32  1  0  0  0  0
M  END
>  <MODEL>
4

>  <REMARK>
 VINA RESULT:      -7.3      1.392      2.566
  Name = 
  11 active torsions:
  status: ('A' for Active; 'I' for Inactive)
    1  A    between atoms: C_5  and  N_22
    2  A    between atoms: C_7  and  C_18
    3  A    between atoms: O_12  and  C_32
    4  A    between atoms: O_12  and  C_34
    5  A    between atoms: C_14  and  C_28
    6  A    between atoms: C_16  and  C_32
    7  A    between atoms: C_16  and  O_33
    8  A    between atoms: C_17  and  O_33
    9  A    between atoms: C_18  and  C_24
   10  A    between atoms: N_22  and  C_23
   11  A    between atoms: C_24  and  C_34
                            x       y       z     vdW  Elec       q    Type
                         _______ _______ _______ _____ _____    ______ ____

>  <TORSDO>
F 11

$$$$
=
 OpenBabel11052409303D

 35 37  0  0  1  0  0  0  0  0999 V2000
  161.2580  205.3590  150.4660 C   0  0  0  0  0  0  0  0  0  0  0  0
  161.5030  206.6620  148.4270 C   0  0  0  0  0  3  0  0  0  0  0  0
  161.3090  205.4320  149.0590 C   0  0  0  0  0  0  0  0  0  0  0  0
  161.0280  203.8710  152.3260 O   0  0  0  0  0  0  0  0  0  0  0  0
  161.5870  207.7650  150.5680 C   0  0  0  0  0  3  0  0  0  0  0  0
  160.9100  202.9340  148.9410 C   0  0  0  0  0  0  0  0  0  0  0  0
  160.6970  201.6860  148.1610 C   0  0  0  0  0  1  0  0  0  0  0  0
  161.6430  207.8320  149.1710 C   0  0  0  0  0  0  0  0  0  0  0  0
  161.3960  206.5440  151.2310 C   0  0  0  0  0  0  0  0  0  0  0  0
  160.8730  202.8820  150.2380 N   0  0  0  0  0  0  0  0  0  0  0  0
  161.0540  204.0240  151.0770 C   0  0  0  0  0  0  0  0  0  0  0  0
  161.1800  204.2110  148.1910 C   0  0  0  0  0  2  0  0  0  0  0  0
  161.3330  206.4950  152.6670 N   0  0  0  0  0  2  0  0  0  0  0  0
  160.9390  207.5440  153.5640 C   0  0  0  0  0  0  0  0  0  0  0  0
  160.1610  209.5120  155.3330 C   0  0  0  0  0  0  0  0  0  0  0  0
  160.0600  208.1970  155.6780 N   0  0  0  0  0  0  0  0  0  0  0  0
  160.6600  209.8460  154.0690 C   0  0  0  0  0  3  0  0  0  0  0  0
  161.0360  208.8570  153.2160 N   0  0  0  0  0  0  0  0  0  0  0  0
  160.4360  207.2090  154.8220 C   0  0  0  0  0  3  0  0  0  0  0  0
  157.9400  212.0130  157.2610 C   0  0  0  0  0  1  0  0  0  0  0  0
  160.6060  211.0610  157.0760 O   0  0  0  0  0  0  0  0  0  0  0  0
  158.3990  211.0050  156.3180 N   0  0  0  0  0  2  0  0  0  0  0  0
  159.7570  210.5590  156.2860 C   0  0  0  0  0  0  0  0  0  0  0  0
  161.8320  209.0460  148.5030 O   0  0  0  0  0  0  0  0  0  0  0  0
  161.9240  210.2870  149.1860 C   0  0  0  0  0  2  0  0  0  0  0  0
  162.5200  211.3280  148.2640 C   0  0  0  0  0  2  0  0  0  0  0  0
  162.1660  212.6250  148.7250 O   0  0  0  0  0  0  0  0  0  0  0  0
  160.1570  213.1380  149.6960 O   0  0  0  0  0  0  0  0  0  0  0  0
  160.8600  213.1110  148.6510 C   0  0  0  0  0  0  0  0  0  0  0  0
  161.3250  213.9660  146.4880 O   0  0  0  0  0  1  0  0  0  0  0  0
  160.2910  213.6170  147.3600 C   0  0  1  0  0  3  0  0  0  0  0  0
  159.4060  212.5580  146.7230 C   0  0  0  0  0  2  0  0  0  0  0  0
  157.0770  212.1750  146.3960 O   0  0  0  0  0  0  0  0  0  0  0  0
  157.9720  212.9370  146.8510 C   0  0  0  0  0  0  0  0  0  0  0  0
  157.6170  214.1120  147.5050 O   0  0  0  0  0  1  0  0  0  0  0  0
  1 11  1  0  0  0  0
  1  9  1  0  0  0  0
  2  3  1  0  0  0  0
  2  8  2  0  0  0  0
  3  1  2  0  0  0  0
  5  9  2  0  0  0  0
  6 10  2  0  0  0  0
  7  6  1  0  0  0  0
  8  5  1  0  0  0  0
  9 13  1  0  0  0  0
 10 11  1  0  0  0  0
 11  4  2  0  0  0  0
 12  6  1  0  0  0  0
 12  3  1  0  0  0  0
 13 14  1  0  0  0  0
 14 19  1  0  0  0  0
 15 16  1  0  0  0  0
 15 23  1  0  0  0  0
 17 15  2  0  0  0  0
 18 14  2  0  0  0  0
 18 17  1  0  0  0  0
 19 16  2  0  0  0  0
 22 20  1  0  0  0  0
 23 22  1  0  0  0  0
 23 21  2  0  0  0  0
 24  8  1  0  0  0  0
 24 25  1  0  0  0  0
 26 27  1  0  0  0  0
 26 25  1  0  0  0  0
 29 27  1  0  0  0  0
 29 28  2  0  0  0  0
 31 30  1  6  0  0  0
 31 29  1  0  0  0  0
 32 34  1  0  0  0  0
 32 31  1  0  0  0  0
 33 34  2  0  0  0  0
 34 35  1  0  0  0  0
M  END
>  <MODEL>
5

>  <REMARK>
 VINA RESULT:      -7.3      3.549      8.695
  Name = 
  11 active torsions:
  status: ('A' for Active; 'I' for Inactive)
    1  A    between atoms: C_5  and  N_22
    2  A    between atoms: C_7  and  C_18
    3  A    between atoms: O_12  and  C_32
    4  A    between atoms: O_12  and  C_34
    5  A    between atoms: C_14  and  C_28
    6  A    between atoms: C_16  and  C_32
    7  A    between atoms: C_16  and  O_33
    8  A    between atoms: C_17  and  O_33
    9  A    between atoms: C_18  and  C_24
   10  A    between atoms: N_22  and  C_23
   11  A    between atoms: C_24  and  C_34
                            x       y       z     vdW  Elec       q    Type
                         _______ _______ _______ _____ _____    ______ ____

>  <TORSDO>
F 11

$$$$
=
 OpenBabel11052409303D

 35 37  0  0  1  0  0  0  0  0999 V2000
  161.4260  205.6110  150.6540 C   0  0  0  0  0  0  0  0  0  0  0  0
  161.7080  206.8530  148.5820 C   0  0  0  0  0  3  0  0  0  0  0  0
  161.4360  205.6550  149.2450 C   0  0  0  0  0  0  0  0  0  0  0  0
  161.1370  204.1800  152.5500 O   0  0  0  0  0  0  0  0  0  0  0  0
  161.9540  207.9840  150.6960 C   0  0  0  0  0  3  0  0  0  0  0  0
  160.8290  203.1970  149.1900 C   0  0  0  0  0  0  0  0  0  0  0  0
  160.4890  201.9570  148.4430 C   0  0  0  0  0  1  0  0  0  0  0  0
  161.9690  208.0200  149.2970 C   0  0  0  0  0  0  0  0  0  0  0  0
  161.6860  206.7940  151.3900 C   0  0  0  0  0  0  0  0  0  0  0  0
  160.8310  203.1700  150.4890 N   0  0  0  0  0  0  0  0  0  0  0  0
  161.1340  204.3090  151.2980 C   0  0  0  0  0  0  0  0  0  0  0  0
  161.1780  204.4330  148.4070 C   0  0  0  0  0  2  0  0  0  0  0  0
  161.6670  206.7770  152.8280 N   0  0  0  0  0  2  0  0  0  0  0  0
  161.0450  207.7230  153.7090 C   0  0  0  0  0  0  0  0  0  0  0  0
  159.8640  209.5930  155.3590 C   0  0  0  0  0  0  0  0  0  0  0  0
  160.3570  209.9610  154.1420 N   0  0  0  0  0  0  0  0  0  0  0  0
  159.9690  208.2550  155.7570 C   0  0  0  0  0  3  0  0  0  0  0  0
  160.5560  207.3540  154.9250 N   0  0  0  0  0  0  0  0  0  0  0  0
  160.9450  209.0570  153.3120 C   0  0  0  0  0  3  0  0  0  0  0  0
  157.2220  212.0370  156.7520 C   0  0  0  0  0  1  0  0  0  0  0  0
  159.8210  211.0180  157.2560 O   0  0  0  0  0  0  0  0  0  0  0  0
  157.9150  211.0740  155.9100 N   0  0  0  0  0  2  0  0  0  0  0  0
  159.2220  210.5910  156.2290 C   0  0  0  0  0  0  0  0  0  0  0  0
  162.2340  209.2030  148.5990 O   0  0  0  0  0  0  0  0  0  0  0  0
  162.0190  210.4880  149.1640 C   0  0  0  0  0  2  0  0  0  0  0  0
  162.0330  211.5300  148.0670 C   0  0  0  0  0  2  0  0  0  0  0  0
  160.8860  212.3600  148.1890 O   0  0  0  0  0  0  0  0  0  0  0  0
  162.0160  214.3410  148.4000 O   0  0  0  0  0  0  0  0  0  0  0  0
  160.9670  213.6820  148.6300 C   0  0  0  0  0  0  0  0  0  0  0  0
  158.6440  213.6270  149.1050 O   0  0  0  0  0  1  0  0  0  0  0  0
  159.8250  214.3310  149.3510 C   0  0  1  0  0  3  0  0  0  0  0  0
  160.1040  214.3770  150.8450 C   0  0  0  0  0  2  0  0  0  0  0  0
  159.5580  212.3350  151.9440 O   0  0  0  0  0  1  0  0  0  0  0  0
  159.1700  213.4750  151.5730 C   0  0  0  0  0  0  0  0  0  0  0  0
  157.8820  213.9040  151.8770 O   0  0  0  0  0  0  0  0  0  0  0  0
  1 11  1  0  0  0  0
  1  9  1  0  0  0  0
  2  3  1  0  0  0  0
  2  8  2  0  0  0  0
  3  1  2  0  0  0  0
  5  9  2  0  0  0  0
  6 10  2  0  0  0  0
  7  6  1  0  0  0  0
  8  5  1  0  0  0  0
  9 13  1  0  0  0  0
 10 11  1  0  0  0  0
 11  4  2  0  0  0  0
 12  6  1  0  0  0  0
 12  3  1  0  0  0  0
 13 14  1  0  0  0  0
 14 18  2  0  0  0  0
 15 17  2  0  0  0  0
 15 23  1  0  0  0  0
 16 15  1  0  0  0  0
 18 17  1  0  0  0  0
 19 14  1  0  0  0  0
 19 16  2  0  0  0  0
 22 23  1  0  0  0  0
 22 20  1  0  0  0  0
 23 21  2  0  0  0  0
 24 25  1  0  0  0  0
 24  8  1  0  0  0  0
 26 27  1  0  0  0  0
 26 25  1  0  0  0  0
 27 29  1  0  0  0  0
 28 29  2  0  0  0  0
 29 31  1  0  0  0  0
 31 30  1  1  0  0  0
 31 32  1  0  0  0  0
 32 34  1  0  0  0  0
 34 35  2  0  0  0  0
 34 33  1  0  0  0  0
M  END
>  <MODEL>
6

>  <REMARK>
 VINA RESULT:      -7.0      3.780      8.762
  Name = 
  11 active torsions:
  status: ('A' for Active; 'I' for Inactive)
    1  A    between atoms: C_5  and  N_22
    2  A    between atoms: C_7  and  C_18
    3  A    between atoms: O_12  and  C_32
    4  A    between atoms: O_12  and  C_34
    5  A    between atoms: C_14  and  C_28
    6  A    between atoms: C_16  and  C_32
    7  A    between atoms: C_16  and  O_33
    8  A    between atoms: C_17  and  O_33
    9  A    between atoms: C_18  and  C_24
   10  A    between atoms: N_22  and  C_23
   11  A    between atoms: C_24  and  C_34
                            x       y       z     vdW  Elec       q    Type
                         _______ _______ _______ _____ _____    ______ ____

>  <TORSDO>
F 11

$$$$
=
 OpenBabel11052409303D

 35 37  0  0  1  0  0  0  0  0999 V2000
  161.4740  207.1260  149.7790 C   0  0  0  0  0  0  0  0  0  0  0  0
  160.9050  204.8440  150.4010 C   0  0  0  0  0  3  0  0  0  0  0  0
  161.0800  205.8200  149.4190 C   0  0  0  0  0  0  0  0  0  0  0  0
  161.9580  209.3100  148.9320 O   0  0  0  0  0  0  0  0  0  0  0  0
  161.5160  206.4320  152.1080 C   0  0  0  0  0  3  0  0  0  0  0  0
  161.0890  206.5170  146.9840 C   0  0  0  0  0  0  0  0  0  0  0  0
  160.9240  206.2030  145.5410 C   0  0  0  0  0  1  0  0  0  0  0  0
  161.1190  205.1400  151.7460 C   0  0  0  0  0  0  0  0  0  0  0  0
  161.6980  207.4340  151.1440 C   0  0  0  0  0  0  0  0  0  0  0  0
  161.4440  207.7170  147.3320 N   0  0  0  0  0  0  0  0  0  0  0  0
  161.6390  208.1170  148.6910 C   0  0  0  0  0  0  0  0  0  0  0  0
  160.8160  205.4320  147.9900 C   0  0  0  0  0  2  0  0  0  0  0  0
  162.1140  208.7540  151.5330 N   0  0  0  0  0  2  0  0  0  0  0  0
  161.4510  209.6540  152.4330 C   0  0  0  0  0  0  0  0  0  0  0  0
  160.1640  211.4250  154.1120 C   0  0  0  0  0  0  0  0  0  0  0  0
  160.2270  211.6680  152.7730 N   0  0  0  0  0  0  0  0  0  0  0  0
  160.7650  210.2680  154.6210 C   0  0  0  0  0  3  0  0  0  0  0  0
  161.3930  209.4120  153.7730 N   0  0  0  0  0  0  0  0  0  0  0  0
  160.8570  210.8090  151.9250 C   0  0  0  0  0  3  0  0  0  0  0  0
  157.3350  213.5580  155.6440 C   0  0  0  0  0  1  0  0  0  0  0  0
  160.0790  212.9100  155.9620 O   0  0  0  0  0  0  0  0  0  0  0  0
  158.0830  212.6610  154.7780 N   0  0  0  0  0  2  0  0  0  0  0  0
  159.4640  212.3660  155.0020 C   0  0  0  0  0  0  0  0  0  0  0  0
  160.9370  204.1350  152.7020 O   0  0  0  0  0  0  0  0  0  0  0  0
  160.6800  202.7830  152.3500 C   0  0  0  0  0  2  0  0  0  0  0  0
  161.8300  202.2490  151.5250 C   0  0  0  0  0  2  0  0  0  0  0  0
  161.3810  201.1510  150.7440 O   0  0  0  0  0  0  0  0  0  0  0  0
  159.3130  201.3750  149.7880 O   0  0  0  0  0  0  0  0  0  0  0  0
  160.5600  201.3180  149.6270 C   0  0  0  0  0  0  0  0  0  0  0  0
  161.5810  200.2020  147.7990 O   0  0  0  0  0  1  0  0  0  0  0  0
  161.1390  201.4480  148.2510 C   0  0  1  0  0  3  0  0  0  0  0  0
  160.1000  202.0110  147.2940 C   0  0  0  0  0  2  0  0  0  0  0  0
  161.5820  202.8630  145.6330 O   0  0  0  0  0  1  0  0  0  0  0  0
  160.6470  202.0650  145.9100 C   0  0  0  0  0  0  0  0  0  0  0  0
  160.1530  201.2070  144.9320 O   0  0  0  0  0  0  0  0  0  0  0  0
  1  9  1  0  0  0  0
  2  8  2  0  0  0  0
  3  1  2  0  0  0  0
  3  2  1  0  0  0  0
  6 10  2  0  0  0  0
  6 12  1  0  0  0  0
  7  6  1  0  0  0  0
  8  5  1  0  0  0  0
  8 24  1  0  0  0  0
  9 13  1  0  0  0  0
  9  5  2  0  0  0  0
 10 11  1  0  0  0  0
 11  4  2  0  0  0  0
 11  1  1  0  0  0  0
 12  3  1  0  0  0  0
 13 14  1  0  0  0  0
 14 18  2  0  0  0  0
 15 17  2  0  0  0  0
 15 23  1  0  0  0  0
 16 15  1  0  0  0  0
 18 17  1  0  0  0  0
 19 14  1  0  0  0  0
 19 16  2  0  0  0  0
 22 23  1  0  0  0  0
 22 20  1  0  0  0  0
 23 21  2  0  0  0  0
 25 24  1  0  0  0  0
 26 25  1  0  0  0  0
 27 26  1  0  0  0  0
 29 28  2  0  0  0  0
 29 27  1  0  0  0  0
 31 30  1  6  0  0  0
 31 29  1  0  0  0  0
 32 31  1  0  0  0  0
 33 34  1  0  0  0  0
 34 32  1  0  0  0  0
 35 34  2  0  0  0  0
M  END
>  <MODEL>
7

>  <REMARK>
 VINA RESULT:      -7.0      3.318      6.226
  Name = 
  11 active torsions:
  status: ('A' for Active; 'I' for Inactive)
    1  A    between atoms: C_5  and  N_22
    2  A    between atoms: C_7  and  C_18
    3  A    between atoms: O_12  and  C_32
    4  A    between atoms: O_12  and  C_34
    5  A    between atoms: C_14  and  C_28
    6  A    between atoms: C_16  and  C_32
    7  A    between atoms: C_16  and  O_33
    8  A    between atoms: C_17  and  O_33
    9  A    between atoms: C_18  and  C_24
   10  A    between atoms: N_22  and  C_23
   11  A    between atoms: C_24  and  C_34
                            x       y       z     vdW  Elec       q    Type
                         _______ _______ _______ _____ _____    ______ ____

>  <TORSDO>
F 11

$$$$
=
 OpenBabel11052409303D

 35 37  0  0  1  0  0  0  0  0999 V2000
  161.4340  206.4800  151.0590 C   0  0  0  0  0  0  0  0  0  0  0  0
  161.0430  205.7820  148.7620 C   0  0  0  0  0  3  0  0  0  0  0  0
  161.1130  205.4760  150.1220 C   0  0  0  0  0  0  0  0  0  0  0  0
  161.8070  206.9220  153.3810 O   0  0  0  0  0  0  0  0  0  0  0  0
  161.5970  208.0790  149.2350 C   0  0  0  0  0  3  0  0  0  0  0  0
  160.8840  203.8150  152.0210 C   0  0  0  0  0  0  0  0  0  0  0  0
  160.5700  202.4530  152.5270 C   0  0  0  0  0  1  0  0  0  0  0  0
  161.2840  207.0770  148.3090 C   0  0  0  0  0  0  0  0  0  0  0  0
  161.6770  207.8010  150.6070 C   0  0  0  0  0  0  0  0  0  0  0  0
  161.1890  204.7490  152.8700 N   0  0  0  0  0  0  0  0  0  0  0  0
  161.4960  206.0910  152.4870 C   0  0  0  0  0  0  0  0  0  0  0  0
  160.8540  204.0530  150.5350 C   0  0  0  0  0  2  0  0  0  0  0  0
  161.9920  208.8450  151.5460 N   0  0  0  0  0  2  0  0  0  0  0  0
  161.1380  209.9030  152.0010 C   0  0  0  0  0  0  0  0  0  0  0  0
  159.4730  211.8980  152.9280 C   0  0  0  0  0  0  0  0  0  0  0  0
  159.5810  210.7210  153.6070 N   0  0  0  0  0  0  0  0  0  0  0  0
  160.2140  212.0760  151.7550 C   0  0  0  0  0  3  0  0  0  0  0  0
  161.0270  211.0770  151.3200 N   0  0  0  0  0  0  0  0  0  0  0  0
  160.3950  209.7220  153.1680 C   0  0  0  0  0  3  0  0  0  0  0  0
  156.5780  213.6440  154.7920 C   0  0  0  0  0  1  0  0  0  0  0  0
  158.8400  214.1740  153.1630 O   0  0  0  0  0  0  0  0  0  0  0  0
  157.4610  212.6290  154.2400 N   0  0  0  0  0  2  0  0  0  0  0  0
  158.5940  212.9650  153.4350 C   0  0  0  0  0  0  0  0  0  0  0  0
  161.2010  207.3470  146.9390 O   0  0  0  0  0  0  0  0  0  0  0  0
  160.7960  206.3690  145.9920 C   0  0  0  0  0  2  0  0  0  0  0  0
  162.0190  205.7630  145.3380 C   0  0  0  0  0  2  0  0  0  0  0  0
  161.9760  204.3500  145.4740 O   0  0  0  0  0  0  0  0  0  0  0  0
  160.1340  203.9180  144.1830 O   0  0  0  0  0  0  0  0  0  0  0  0
  160.8270  203.6090  145.1880 C   0  0  0  0  0  0  0  0  0  0  0  0
  160.5510  201.2570  145.3210 O   0  0  0  0  0  1  0  0  0  0  0  0
  160.4200  202.4470  146.0420 C   0  0  1  0  0  3  0  0  0  0  0  0
  161.2740  202.3920  147.2990 C   0  0  0  0  0  2  0  0  0  0  0  0
  161.5610  200.2030  148.1950 O   0  0  0  0  0  0  0  0  0  0  0  0
  160.8580  201.2490  148.1570 C   0  0  0  0  0  0  0  0  0  0  0  0
  159.7160  201.3480  148.9450 O   0  0  0  0  0  1  0  0  0  0  0  0
  1 11  1  0  0  0  0
  2  3  1  0  0  0  0
  3 12  1  0  0  0  0
  3  1  2  0  0  0  0
  5  9  2  0  0  0  0
  6  7  1  0  0  0  0
  6 10  2  0  0  0  0
  8  2  2  0  0  0  0
  8  5  1  0  0  0  0
  9  1  1  0  0  0  0
  9 13  1  0  0  0  0
 11 10  1  0  0  0  0
 11  4  2  0  0  0  0
 12  6  1  0  0  0  0
 13 14  1  0  0  0  0
 14 19  1  0  0  0  0
 15 23  1  0  0  0  0
 15 16  1  0  0  0  0
 17 15  2  0  0  0  0
 18 17  1  0  0  0  0
 18 14  2  0  0  0  0
 19 16  2  0  0  0  0
 21 23  2  0  0  0  0
 22 20  1  0  0  0  0
 23 22  1  0  0  0  0
 24  8  1  0  0  0  0
 25 24  1  0  0  0  0
 26 27  1  0  0  0  0
 26 25  1  0  0  0  0
 28 29  2  0  0  0  0
 29 27  1  0  0  0  0
 29 31  1  0  0  0  0
 31 30  1  6  0  0  0
 31 32  1  0  0  0  0
 32 34  1  0  0  0  0
 34 33  2  0  0  0  0
 34 35  1  0  0  0  0
M  END
>  <MODEL>
8

>  <REMARK>
 VINA RESULT:      -6.9      3.436      4.837
  Name = 
  11 active torsions:
  status: ('A' for Active; 'I' for Inactive)
    1  A    between atoms: C_5  and  N_22
    2  A    between atoms: C_7  and  C_18
    3  A    between atoms: O_12  and  C_32
    4  A    between atoms: O_12  and  C_34
    5  A    between atoms: C_14  and  C_28
    6  A    between atoms: C_16  and  C_32
    7  A    between atoms: C_16  and  O_33
    8  A    between atoms: C_17  and  O_33
    9  A    between atoms: C_18  and  C_24
   10  A    between atoms: N_22  and  C_23
   11  A    between atoms: C_24  and  C_34
                            x       y       z     vdW  Elec       q    Type
                         _______ _______ _______ _____ _____    ______ ____

>  <TORSDO>
F 11

$$$$
=
 OpenBabel11052409303D

 35 37  0  0  1  0  0  0  0  0999 V2000
  161.4810  208.5070  153.2700 C   0  0  0  0  0  0  0  0  0  0  0  0
  161.3390  206.1070  152.9010 C   0  0  0  0  0  3  0  0  0  0  0  0
  161.1410  207.2170  153.7250 C   0  0  0  0  0  0  0  0  0  0  0  0
  161.5570  210.8210  153.8730 O   0  0  0  0  0  0  0  0  0  0  0  0
  162.2020  207.5340  151.1620 C   0  0  0  0  0  3  0  0  0  0  0  0
  160.3330  208.2260  155.9030 C   0  0  0  0  0  0  0  0  0  0  0  0
  159.7130  208.0920  157.2470 C   0  0  0  0  0  1  0  0  0  0  0  0
  161.8690  206.2550  151.6210 C   0  0  0  0  0  0  0  0  0  0  0  0
  162.0170  208.6680  151.9680 C   0  0  0  0  0  0  0  0  0  0  0  0
  160.6590  209.4070  155.4730 N   0  0  0  0  0  0  0  0  0  0  0  0
  161.2510  209.6430  154.1930 C   0  0  0  0  0  0  0  0  0  0  0  0
  160.5780  206.9770  155.0990 C   0  0  0  0  0  2  0  0  0  0  0  0
  162.3580  209.9760  151.4770 N   0  0  0  0  0  2  0  0  0  0  0  0
  161.9580  210.5800  150.2390 C   0  0  0  0  0  0  0  0  0  0  0  0
  161.1740  211.8000  147.8920 C   0  0  0  0  0  0  0  0  0  0  0  0
  161.1680  212.4950  149.0640 N   0  0  0  0  0  0  0  0  0  0  0  0
  161.5790  210.4600  147.8980 C   0  0  0  0  0  3  0  0  0  0  0  0
  161.9600  209.8830  149.0690 N   0  0  0  0  0  0  0  0  0  0  0  0
  161.5490  211.9140  150.2350 C   0  0  0  0  0  3  0  0  0  0  0  0
  158.9250  213.2090  145.0900 C   0  0  0  0  0  1  0  0  0  0  0  0
  161.6400  212.9540  145.8700 O   0  0  0  0  0  0  0  0  0  0  0  0
  159.3830  212.5420  146.2980 N   0  0  0  0  0  2  0  0  0  0  0  0
  160.7690  212.4590  146.6400 C   0  0  0  0  0  0  0  0  0  0  0  0
  162.0490  205.1210  150.8220 O   0  0  0  0  0  0  0  0  0  0  0  0
  161.2560  203.9520  150.9660 C   0  0  0  0  0  2  0  0  0  0  0  0
  160.4610  203.7230  149.6990 C   0  0  0  0  0  2  0  0  0  0  0  0
  161.1760  204.2510  148.5910 O   0  0  0  0  0  0  0  0  0  0  0  0
  159.9790  206.2030  148.5610 O   0  0  0  0  0  0  0  0  0  0  0  0
  160.9430  205.5370  148.0990 C   0  0  0  0  0  0  0  0  0  0  0  0
  162.7640  206.9880  147.6460 O   0  0  0  0  0  1  0  0  0  0  0  0
  161.8280  206.1390  147.0500 C   0  0  1  0  0  3  0  0  0  0  0  0
  162.5380  205.0460  146.2680 C   0  0  0  0  0  2  0  0  0  0  0  0
  161.2120  203.2960  145.3400 O   0  0  0  0  0  1  0  0  0  0  0  0
  161.6310  204.4790  145.2310 C   0  0  0  0  0  0  0  0  0  0  0  0
  161.2160  205.2680  144.1630 O   0  0  0  0  0  0  0  0  0  0  0  0
  1  3  1  0  0  0  0
  1 11  1  0  0  0  0
  2  3  2  0  0  0  0
  3 12  1  0  0  0  0
  4 11  2  0  0  0  0
  5  8  2  0  0  0  0
  5  9  1  0  0  0  0
  6  7  1  0  0  0  0
  8  2  1  0  0  0  0
  9  1  2  0  0  0  0
 10  6  2  0  0  0  0
 11 10  1  0  0  0  0
 12  6  1  0  0  0  0
 13  9  1  0  0  0  0
 14 13  1  0  0  0  0
 15 17  2  0  0  0  0
 15 16  1  0  0  0  0
 16 19  2  0  0  0  0
 17 18  1  0  0  0  0
 18 14  2  0  0  0  0
 19 14  1  0  0  0  0
 20 22  1  0  0  0  0
 21 23  2  0  0  0  0
 22 23  1  0  0  0  0
 23 15  1  0  0  0  0
 24 25  1  0  0  0  0
 24  8  1  0  0  0  0
 26 25  1  0  0  0  0
 27 26  1  0  0  0  0
 29 28  2  0  0  0  0
 29 27  1  0  0  0  0
 31 30  1  1  0  0  0
 31 29  1  0  0  0  0
 32 31  1  0  0  0  0
 34 33  1  0  0  0  0
 34 32  1  0  0  0  0
 35 34  2  0  0  0  0
M  END
>  <MODEL>
9

>  <REMARK>
 VINA RESULT:      -6.6      1.974      3.251
  Name = 
  11 active torsions:
  status: ('A' for Active; 'I' for Inactive)
    1  A    between atoms: C_5  and  N_22
    2  A    between atoms: C_7  and  C_18
    3  A    between atoms: O_12  and  C_32
    4  A    between atoms: O_12  and  C_34
    5  A    between atoms: C_14  and  C_28
    6  A    between atoms: C_16  and  C_32
    7  A    between atoms: C_16  and  O_33
    8  A    between atoms: C_17  and  O_33
    9  A    between atoms: C_18  and  C_24
   10  A    between atoms: N_22  and  C_23
   11  A    between atoms: C_24  and  C_34
                            x       y       z     vdW  Elec       q    Type
                         _______ _______ _______ _____ _____    ______ ____

>  <TORSDO>
F 11

$$$$
