=
 OpenBabel11042422523D

 29 30  0  0  1  0  0  0  0  0999 V2000
  160.8600  206.9900  154.7790 C   0  0  0  0  0  1  0  0  0  0  0  0
  160.8500  206.7030  153.2860 C   0  0  2  0  0  3  0  0  0  0  0  0
  161.1840  201.0000  150.0940 Cl  0  0  0  0  0  0  0  0  0  0  0  0
  161.2730  203.0590  147.8020 C   0  0  0  0  0  3  0  0  0  0  0  0
  161.1050  205.5050  150.5360 N   0  0  0  0  0  0  0  0  0  0  0  0
  160.9860  205.2820  152.9560 N   0  0  0  0  0  2  0  0  0  0  0  0
  161.2000  203.5840  149.0990 C   0  0  0  0  0  0  0  0  0  0  0  0
  161.3170  203.9160  146.7000 C   0  0  0  0  0  0  0  0  0  0  0  0
  161.2840  205.3020  146.8860 C   0  0  0  0  0  3  0  0  0  0  0  0
  161.1600  202.7530  150.2300 C   0  0  0  0  0  0  0  0  0  0  0  0
  161.2120  205.8360  148.1750 C   0  0  0  0  0  3  0  0  0  0  0  0
  161.0930  203.3240  151.5030 C   0  0  0  0  0  3  0  0  0  0  0  0
  161.1690  204.9850  149.2820 C   0  0  0  0  0  0  0  0  0  0  0  0
  161.0660  204.7130  151.6420 C   0  0  0  0  0  0  0  0  0  0  0  0
  161.3910  203.3920  145.4180 O   0  0  0  0  0  1  0  0  0  0  0  0
  161.7620  207.6270  152.4610 C   0  0  0  0  0  2  0  0  0  0  0  0
  161.0950  208.7790  151.6960 C   0  0  1  0  0  3  0  0  0  0  0  0
  160.2040  209.6500  152.5710 C   0  0  0  0  0  2  0  0  0  0  0  0
  160.2070  212.0220  152.1860 O   0  0  0  0  0  1  0  0  0  0  0  0
  160.8600  210.9970  152.8730 C   0  0  1  0  0  3  0  0  0  0  0  0
  159.5790  210.9310  155.0620 C   0  0  0  0  0  1  0  0  0  0  0  0
  162.0510  210.6230  155.0520 C   0  0  0  0  0  1  0  0  0  0  0  0
  160.8810  211.3060  154.3700 C   0  0  0  0  0  3  0  0  0  0  0  0
  162.0490  209.5600  151.0400 O   0  0  0  0  0  0  0  0  0  0  0  0
  162.2200  208.9570  149.7920 C   0  0  0  0  0  2  0  0  0  0  0  0
  161.8970  209.9490  148.6860 C   0  0  0  0  0  2  0  0  0  0  0  0
  162.0850  211.3820  149.1630 C   0  0  0  0  0  2  0  0  0  0  0  0
  161.9040  212.5810  147.1170 O   0  0  0  0  0  1  0  0  0  0  0  0
  162.8060  212.1990  148.1080 C   0  0  0  0  0  2  0  0  0  0  0  0
  2  1  1  1  0  0  0
  3 10  1  0  0  0  0
  4  7  1  0  0  0  0
  5 14  2  0  0  0  0
  6  2  1  0  0  0  0
  7 13  2  0  0  0  0
  7 10  1  0  0  0  0
  8  9  1  0  0  0  0
  8  4  2  0  0  0  0
  9 11  2  0  0  0  0
 10 12  2  0  0  0  0
 11 13  1  0  0  0  0
 12 14  1  0  0  0  0
 13  5  1  0  0  0  0
 14  6  1  0  0  0  0
 15  8  1  0  0  0  0
 16  2  1  0  0  0  0
 17 16  1  1  0  0  0
 17 18  1  0  0  0  0
 18 20  1  0  0  0  0
 20 19  1  6  0  0  0
 20 23  1  0  0  0  0
 23 22  1  0  0  0  0
 23 21  1  0  0  0  0
 24 17  1  0  0  0  0
 25 24  1  0  0  0  0
 26 27  1  0  0  0  0
 26 25  1  0  0  0  0
 28 29  1  0  0  0  0
 29 27  1  0  0  0  0
M  END
>  <MODEL>
1

>  <REMARK>
 VINA RESULT:      -7.6      0.000      0.000
  Name = 
  11 active torsions:
  status: ('A' for Active; 'I' for Inactive)
    1  A    between atoms: C_1  and  C_5
    2  A    between atoms: C_1  and  O_23
    3  A    between atoms: C_5  and  C_17
    4  A    between atoms: C_6  and  C_20
    5  A    between atoms: C_6  and  C_25
    6  A    between atoms: N_9  and  C_19
    7  A    between atoms: C_17  and  C_29
    8  A    between atoms: C_19  and  C_24
    9  A    between atoms: C_20  and  C_21
   10  A    between atoms: C_21  and  O_23
   11  A    between atoms: C_21  and  C_24
                            x       y       z     vdW  Elec       q    Type
                         _______ _______ _______ _____ _____    ______ ____

>  <TORSDO>
F 11

$$$$
=
 OpenBabel11042422523D

 29 30  0  0  1  0  0  0  0  0999 V2000
  162.4590  207.7490  149.3490 C   0  0  0  0  0  1  0  0  0  0  0  0
  161.1280  207.2270  149.8660 C   0  0  2  0  0  3  0  0  0  0  0  0
  161.0520  207.6860  156.3930 Cl  0  0  0  0  0  0  0  0  0  0  0  0
  160.3220  210.5470  155.5100 C   0  0  0  0  0  3  0  0  0  0  0  0
  160.5980  209.1390  152.1290 N   0  0  0  0  0  0  0  0  0  0  0  0
  161.1320  206.9150  151.2980 N   0  0  0  0  0  2  0  0  0  0  0  0
  160.5320  209.6200  154.4810 C   0  0  0  0  0  0  0  0  0  0  0  0
  159.9880  211.8690  155.2050 C   0  0  0  0  0  0  0  0  0  0  0  0
  159.8650  212.2730  153.8720 C   0  0  0  0  0  3  0  0  0  0  0  0
  160.8630  208.2810  154.7500 C   0  0  0  0  0  0  0  0  0  0  0  0
  160.0700  211.3550  152.8390 C   0  0  0  0  0  3  0  0  0  0  0  0
  161.0560  207.3930  153.6900 C   0  0  0  0  0  3  0  0  0  0  0  0
  160.4040  210.0320  153.1350 C   0  0  0  0  0  0  0  0  0  0  0  0
  160.9190  207.8390  152.3740 C   0  0  0  0  0  0  0  0  0  0  0  0
  159.7810  212.7830  156.2270 O   0  0  0  0  0  1  0  0  0  0  0  0
  160.4980  206.1320  148.9890 C   0  0  0  0  0  2  0  0  0  0  0  0
  161.1480  204.7410  149.0180 C   0  0  1  0  0  3  0  0  0  0  0  0
  160.4140  203.7500  149.9120 C   0  0  0  0  0  2  0  0  0  0  0  0
  161.4470  202.3900  151.6020 O   0  0  0  0  0  1  0  0  0  0  0  0
  161.2780  202.5290  150.2230 C   0  0  1  0  0  3  0  0  0  0  0  0
  159.2190  201.3780  149.2900 C   0  0  0  0  0  1  0  0  0  0  0  0
  161.4790  200.7890  148.4230 C   0  0  0  0  0  1  0  0  0  0  0  0
  160.6930  201.2440  149.6390 C   0  0  0  0  0  3  0  0  0  0  0  0
  161.2840  204.2260  147.7280 O   0  0  0  0  0  0  0  0  0  0  0  0
  162.5500  204.6340  147.3030 C   0  0  0  0  0  2  0  0  0  0  0  0
  162.6720  204.4650  145.7960 C   0  0  0  0  0  2  0  0  0  0  0  0
  161.3080  204.2570  145.1560 C   0  0  0  0  0  2  0  0  0  0  0  0
  160.0440  206.2660  145.2980 O   0  0  0  0  0  1  0  0  0  0  0  0
  160.8580  205.5200  144.4480 C   0  0  0  0  0  2  0  0  0  0  0  0
  2  1  1  6  0  0  0
  2  6  1  0  0  0  0
  5 14  2  0  0  0  0
  5 13  1  0  0  0  0
  6 14  1  0  0  0  0
  7 10  1  0  0  0  0
  7  4  2  0  0  0  0
  8  4  1  0  0  0  0
  8 15  1  0  0  0  0
  9  8  2  0  0  0  0
 10  3  1  0  0  0  0
 11 13  2  0  0  0  0
 11  9  1  0  0  0  0
 12 10  2  0  0  0  0
 13  7  1  0  0  0  0
 14 12  1  0  0  0  0
 16  2  1  0  0  0  0
 17 16  1  6  0  0  0
 17 18  1  0  0  0  0
 18 20  1  0  0  0  0
 20 19  1  1  0  0  0
 21 23  1  0  0  0  0
 22 23  1  0  0  0  0
 23 20  1  0  0  0  0
 24 17  1  0  0  0  0
 25 24  1  0  0  0  0
 26 25  1  0  0  0  0
 27 26  1  0  0  0  0
 29 27  1  0  0  0  0
 29 28  1  0  0  0  0
M  END
>  <MODEL>
2

>  <REMARK>
 VINA RESULT:      -7.5      3.074      8.048
  Name = 
  11 active torsions:
  status: ('A' for Active; 'I' for Inactive)
    1  A    between atoms: C_1  and  C_5
    2  A    between atoms: C_1  and  O_23
    3  A    between atoms: C_5  and  C_17
    4  A    between atoms: C_6  and  C_20
    5  A    between atoms: C_6  and  C_25
    6  A    between atoms: N_9  and  C_19
    7  A    between atoms: C_17  and  C_29
    8  A    between atoms: C_19  and  C_24
    9  A    between atoms: C_20  and  C_21
   10  A    between atoms: C_21  and  O_23
   11  A    between atoms: C_21  and  C_24
                            x       y       z     vdW  Elec       q    Type
                         _______ _______ _______ _____ _____    ______ ____

>  <TORSDO>
F 11

$$$$
=
 OpenBabel11042422523D

 29 30  0  0  1  0  0  0  0  0999 V2000
  162.1810  206.4410  152.0660 C   0  0  0  0  0  1  0  0  0  0  0  0
  161.1310  207.2320  151.3020 C   0  0  2  0  0  3  0  0  0  0  0  0
  161.9260  205.1280  145.1570 Cl  0  0  0  0  0  0  0  0  0  0  0  0
  161.3500  202.5170  146.6920 C   0  0  0  0  0  3  0  0  0  0  0  0
  161.0670  204.7590  149.5870 N   0  0  0  0  0  0  0  0  0  0  0  0
  161.2890  207.1690  149.8470 N   0  0  0  0  0  2  0  0  0  0  0  0
  161.3440  203.6940  147.4520 C   0  0  0  0  0  0  0  0  0  0  0  0
  161.1010  201.2860  147.3020 C   0  0  0  0  0  0  0  0  0  0  0  0
  160.8460  201.2210  148.6760 C   0  0  0  0  0  3  0  0  0  0  0  0
  161.5850  204.9500  146.8720 C   0  0  0  0  0  0  0  0  0  0  0  0
  160.8350  202.3890  149.4430 C   0  0  0  0  0  3  0  0  0  0  0  0
  161.5610  206.0950  147.6720 C   0  0  0  0  0  3  0  0  0  0  0  0
  161.0830  203.6240  148.8400 C   0  0  0  0  0  0  0  0  0  0  0  0
  161.2980  205.9840  149.0390 C   0  0  0  0  0  0  0  0  0  0  0  0
  161.1080  200.1240  146.5440 O   0  0  0  0  0  1  0  0  0  0  0  0
  160.8940  208.6510  151.8440 C   0  0  0  0  0  2  0  0  0  0  0  0
  161.9650  209.7100  151.5460 C   0  0  1  0  0  3  0  0  0  0  0  0
  161.4540  210.8610  150.6880 C   0  0  0  0  0  2  0  0  0  0  0  0
  162.0710  209.7650  148.6410 O   0  0  0  0  0  1  0  0  0  0  0  0
  162.2100  210.9520  149.3640 C   0  0  1  0  0  3  0  0  0  0  0  0
  160.8570  213.0960  149.2870 C   0  0  0  0  0  1  0  0  0  0  0  0
  162.9300  212.8780  147.9220 C   0  0  0  0  0  1  0  0  0  0  0  0
  161.7470  212.1350  148.5140 C   0  0  0  0  0  3  0  0  0  0  0  0
  162.5300  210.1960  152.7260 O   0  0  0  0  0  0  0  0  0  0  0  0
  161.4470  210.5920  153.5140 C   0  0  0  0  0  2  0  0  0  0  0  0
  161.7170  210.2630  154.9740 C   0  0  0  0  0  2  0  0  0  0  0  0
  160.6360  209.3550  155.5400 C   0  0  0  0  0  2  0  0  0  0  0  0
  160.3730  207.0520  155.0120 O   0  0  0  0  0  1  0  0  0  0  0  0
  161.1690  207.9470  155.7230 C   0  0  0  0  0  2  0  0  0  0  0  0
  2 16  1  0  0  0  0
  2  1  1  1  0  0  0
  3 10  1  0  0  0  0
  4  8  2  0  0  0  0
  4  7  1  0  0  0  0
  6  2  1  0  0  0  0
  7 13  2  0  0  0  0
  8  9  1  0  0  0  0
  9 11  2  0  0  0  0
 10  7  1  0  0  0  0
 10 12  2  0  0  0  0
 12 14  1  0  0  0  0
 13 11  1  0  0  0  0
 13  5  1  0  0  0  0
 14  5  2  0  0  0  0
 14  6  1  0  0  0  0
 15  8  1  0  0  0  0
 17 18  1  1  0  0  0
 17 16  1  0  0  0  0
 17 24  1  0  0  0  0
 20 19  1  6  0  0  0
 20 18  1  0  0  0  0
 22 23  1  0  0  0  0
 23 21  1  0  0  0  0
 23 20  1  0  0  0  0
 24 25  1  0  0  0  0
 25 26  1  0  0  0  0
 26 27  1  0  0  0  0
 27 29  1  0  0  0  0
 28 29  1  0  0  0  0
M  END
>  <MODEL>
3

>  <REMARK>
 VINA RESULT:      -7.2      2.090      4.683
  Name = 
  11 active torsions:
  status: ('A' for Active; 'I' for Inactive)
    1  A    between atoms: C_1  and  C_5
    2  A    between atoms: C_1  and  O_23
    3  A    between atoms: C_5  and  C_17
    4  A    between atoms: C_6  and  C_20
    5  A    between atoms: C_6  and  C_25
    6  A    between atoms: N_9  and  C_19
    7  A    between atoms: C_17  and  C_29
    8  A    between atoms: C_19  and  C_24
    9  A    between atoms: C_20  and  C_21
   10  A    between atoms: C_21  and  O_23
   11  A    between atoms: C_21  and  C_24
                            x       y       z     vdW  Elec       q    Type
                         _______ _______ _______ _____ _____    ______ ____

>  <TORSDO>
F 11

$$$$
=
 OpenBabel11042422523D

 29 30  0  0  1  0  0  0  0  0999 V2000
  161.7670  205.9570  153.1390 C   0  0  0  0  0  1  0  0  0  0  0  0
  160.8290  206.9730  152.5060 C   0  0  2  0  0  3  0  0  0  0  0  0
  161.4270  205.3090  146.2050 Cl  0  0  0  0  0  0  0  0  0  0  0  0
  161.2110  202.5710  147.6060 C   0  0  0  0  0  3  0  0  0  0  0  0
  160.8970  204.6060  150.6470 N   0  0  0  0  0  0  0  0  0  0  0  0
  160.8970  207.0080  151.0430 N   0  0  0  0  0  2  0  0  0  0  0  0
  161.1380  203.6960  148.4380 C   0  0  0  0  0  0  0  0  0  0  0  0
  161.1240  201.2880  148.1520 C   0  0  0  0  0  0  0  0  0  0  0  0
  160.9660  201.1210  149.5320 C   0  0  0  0  0  3  0  0  0  0  0  0
  161.2170  205.0010  147.9240 C   0  0  0  0  0  0  0  0  0  0  0  0
  160.8910  202.2370  150.3700 C   0  0  0  0  0  3  0  0  0  0  0  0
  161.1320  206.0910  148.7930 C   0  0  0  0  0  3  0  0  0  0  0  0
  160.9760  203.5220  149.8310 C   0  0  0  0  0  0  0  0  0  0  0  0
  160.9710  205.8770  150.1640 C   0  0  0  0  0  0  0  0  0  0  0  0
  161.1960  200.1780  147.3240 O   0  0  0  0  0  1  0  0  0  0  0  0
  160.8650  208.3610  153.1670 C   0  0  0  0  0  2  0  0  0  0  0  0
  160.6320  209.5800  152.2640 C   0  0  1  0  0  3  0  0  0  0  0  0
  159.5620  210.5280  152.7930 C   0  0  0  0  0  2  0  0  0  0  0  0
  159.6730  212.9260  152.8980 O   0  0  0  0  0  1  0  0  0  0  0  0
  160.1820  211.7540  153.4620 C   0  0  1  0  0  3  0  0  0  0  0  0
  158.6840  211.0330  155.3780 C   0  0  0  0  0  1  0  0  0  0  0  0
  161.1480  211.1850  155.7090 C   0  0  0  0  0  1  0  0  0  0  0  0
  159.9540  211.7640  154.9730 C   0  0  0  0  0  3  0  0  0  0  0  0
  161.8250  210.2690  152.0380 O   0  0  0  0  0  0  0  0  0  0  0  0
  162.0760  210.1260  150.6720 C   0  0  0  0  0  2  0  0  0  0  0  0
  161.6710  211.3930  149.9330 C   0  0  0  0  0  2  0  0  0  0  0  0
  162.2980  211.4430  148.5480 C   0  0  0  0  0  2  0  0  0  0  0  0
  161.8770  213.7830  148.5100 O   0  0  0  0  0  1  0  0  0  0  0  0
  161.7470  212.6160  147.7600 C   0  0  0  0  0  2  0  0  0  0  0  0
  2  1  1  1  0  0  0
  2 16  1  0  0  0  0
  3 10  1  0  0  0  0
  4  8  2  0  0  0  0
  4  7  1  0  0  0  0
  6  2  1  0  0  0  0
  7 13  2  0  0  0  0
  8  9  1  0  0  0  0
  9 11  2  0  0  0  0
 10  7  1  0  0  0  0
 10 12  2  0  0  0  0
 12 14  1  0  0  0  0
 13 11  1  0  0  0  0
 13  5  1  0  0  0  0
 14  5  2  0  0  0  0
 14  6  1  0  0  0  0
 15  8  1  0  0  0  0
 17 18  1  1  0  0  0
 17 16  1  0  0  0  0
 18 20  1  0  0  0  0
 20 19  1  6  0  0  0
 20 23  1  0  0  0  0
 23 21  1  0  0  0  0
 23 22  1  0  0  0  0
 24 17  1  0  0  0  0
 25 24  1  0  0  0  0
 26 25  1  0  0  0  0
 27 26  1  0  0  0  0
 29 28  1  0  0  0  0
 29 27  1  0  0  0  0
M  END
>  <MODEL>
4

>  <REMARK>
 VINA RESULT:      -7.0      1.791      2.406
  Name = 
  11 active torsions:
  status: ('A' for Active; 'I' for Inactive)
    1  A    between atoms: C_1  and  C_5
    2  A    between atoms: C_1  and  O_23
    3  A    between atoms: C_5  and  C_17
    4  A    between atoms: C_6  and  C_20
    5  A    between atoms: C_6  and  C_25
    6  A    between atoms: N_9  and  C_19
    7  A    between atoms: C_17  and  C_29
    8  A    between atoms: C_19  and  C_24
    9  A    between atoms: C_20  and  C_21
   10  A    between atoms: C_21  and  O_23
   11  A    between atoms: C_21  and  C_24
                            x       y       z     vdW  Elec       q    Type
                         _______ _______ _______ _____ _____    ______ ____

>  <TORSDO>
F 11

$$$$
=
 OpenBabel11042422523D

 29 30  0  0  1  0  0  0  0  0999 V2000
  161.8940  206.7560  152.3570 C   0  0  0  0  0  1  0  0  0  0  0  0
  161.3120  207.9170  151.5660 C   0  0  2  0  0  3  0  0  0  0  0  0
  162.4060  205.7730  145.4800 Cl  0  0  0  0  0  0  0  0  0  0  0  0
  161.4490  203.2260  146.9280 C   0  0  0  0  0  3  0  0  0  0  0  0
  161.1470  205.4710  149.8190 N   0  0  0  0  0  0  0  0  0  0  0  0
  161.5840  207.8450  150.1280 N   0  0  0  0  0  2  0  0  0  0  0  0
  161.4950  204.3940  147.7010 C   0  0  0  0  0  0  0  0  0  0  0  0
  161.0290  202.0220  147.5000 C   0  0  0  0  0  0  0  0  0  0  0  0
  160.6550  201.9770  148.8470 C   0  0  0  0  0  3  0  0  0  0  0  0
  161.9070  205.6220  147.1590 C   0  0  0  0  0  0  0  0  0  0  0  0
  160.6960  203.1360  149.6260 C   0  0  0  0  0  3  0  0  0  0  0  0
  161.9290  206.7600  147.9690 C   0  0  0  0  0  3  0  0  0  0  0  0
  161.1140  204.3430  149.0610 C   0  0  0  0  0  0  0  0  0  0  0  0
  161.5430  206.6690  149.3080 C   0  0  0  0  0  0  0  0  0  0  0  0
  160.9850  200.8700  146.7300 O   0  0  0  0  0  1  0  0  0  0  0  0
  161.5810  209.2980  152.1850 C   0  0  0  0  0  2  0  0  0  0  0  0
  160.3630  210.1690  152.5280 C   0  0  1  0  0  3  0  0  0  0  0  0
  160.0340  210.1880  154.0150 C   0  0  0  0  0  2  0  0  0  0  0  0
  161.9220  210.8520  155.3450 O   0  0  0  0  0  1  0  0  0  0  0  0
  161.2270  209.7430  154.8590 C   0  0  1  0  0  3  0  0  0  0  0  0
  160.2010  207.5290  155.5530 C   0  0  0  0  0  1  0  0  0  0  0  0
  161.9750  208.5770  156.9540 C   0  0  0  0  0  1  0  0  0  0  0  0
  160.8080  208.8420  156.0210 C   0  0  0  0  0  3  0  0  0  0  0  0
  160.5280  211.4690  152.0480 O   0  0  0  0  0  0  0  0  0  0  0  0
  159.5300  212.2190  152.6740 C   0  0  0  0  0  2  0  0  0  0  0  0
  159.2850  213.5060  151.9020 C   0  0  0  0  0  2  0  0  0  0  0  0
  158.2170  213.3110  150.8360 C   0  0  0  0  0  2  0  0  0  0  0  0
  160.1340  213.5700  149.4530 O   0  0  0  0  0  1  0  0  0  0  0  0
  158.7480  213.7170  149.4740 C   0  0  0  0  0  2  0  0  0  0  0  0
  2 16  1  0  0  0  0
  2  1  1  1  0  0  0
  3 10  1  0  0  0  0
  4  8  2  0  0  0  0
  4  7  1  0  0  0  0
  6  2  1  0  0  0  0
  7 13  2  0  0  0  0
  8  9  1  0  0  0  0
  9 11  2  0  0  0  0
 10  7  1  0  0  0  0
 10 12  2  0  0  0  0
 12 14  1  0  0  0  0
 13 11  1  0  0  0  0
 13  5  1  0  0  0  0
 14  5  2  0  0  0  0
 14  6  1  0  0  0  0
 15  8  1  0  0  0  0
 17 16  1  1  0  0  0
 17 18  1  0  0  0  0
 18 20  1  0  0  0  0
 20 19  1  1  0  0  0
 20 23  1  0  0  0  0
 21 23  1  0  0  0  0
 23 22  1  0  0  0  0
 24 17  1  0  0  0  0
 24 25  1  0  0  0  0
 26 25  1  0  0  0  0
 27 26  1  0  0  0  0
 28 29  1  0  0  0  0
 29 27  1  0  0  0  0
M  END
>  <MODEL>
5

>  <REMARK>
 VINA RESULT:      -7.0      2.361      3.418
  Name = 
  11 active torsions:
  status: ('A' for Active; 'I' for Inactive)
    1  A    between atoms: C_1  and  C_5
    2  A    between atoms: C_1  and  O_23
    3  A    between atoms: C_5  and  C_17
    4  A    between atoms: C_6  and  C_20
    5  A    between atoms: C_6  and  C_25
    6  A    between atoms: N_9  and  C_19
    7  A    between atoms: C_17  and  C_29
    8  A    between atoms: C_19  and  C_24
    9  A    between atoms: C_20  and  C_21
   10  A    between atoms: C_21  and  O_23
   11  A    between atoms: C_21  and  C_24
                            x       y       z     vdW  Elec       q    Type
                         _______ _______ _______ _____ _____    ______ ____

>  <TORSDO>
F 11

$$$$
=
 OpenBabel11042422523D

 29 30  0  0  1  0  0  0  0  0999 V2000
  162.5850  202.7020  151.8100 C   0  0  0  0  0  1  0  0  0  0  0  0
  161.1210  202.7420  151.4020 C   0  0  2  0  0  3  0  0  0  0  0  0
  160.0800  200.9410  145.1980 Cl  0  0  0  0  0  0  0  0  0  0  0  0
  161.2900  203.7580  144.8860 C   0  0  0  0  0  3  0  0  0  0  0  0
  161.4600  203.6500  148.5530 N   0  0  0  0  0  0  0  0  0  0  0  0
  160.8240  201.9690  150.1940 N   0  0  0  0  0  2  0  0  0  0  0  0
  161.1600  203.2860  146.1980 C   0  0  0  0  0  0  0  0  0  0  0  0
  161.8280  205.0250  144.6460 C   0  0  0  0  0  0  0  0  0  0  0  0
  162.2360  205.8290  145.7160 C   0  0  0  0  0  3  0  0  0  0  0  0
  160.6290  202.0160  146.4760 C   0  0  0  0  0  0  0  0  0  0  0  0
  162.1110  205.3670  147.0290 C   0  0  0  0  0  3  0  0  0  0  0  0
  160.5250  201.5870  147.8020 C   0  0  0  0  0  3  0  0  0  0  0  0
  161.5750  204.1010  147.2760 C   0  0  0  0  0  0  0  0  0  0  0  0
  160.9490  202.4210  148.8380 C   0  0  0  0  0  0  0  0  0  0  0  0
  161.9560  205.4880  143.3450 O   0  0  0  0  0  1  0  0  0  0  0  0
  160.5030  204.1500  151.4130 C   0  0  0  0  0  2  0  0  0  0  0  0
  161.3290  205.2800  152.0440 C   0  0  1  0  0  3  0  0  0  0  0  0
  160.9810  206.6600  151.5000 C   0  0  0  0  0  2  0  0  0  0  0  0
  160.4440  206.8460  149.1650 O   0  0  0  0  0  1  0  0  0  0  0  0
  161.5020  206.8480  150.0760 C   0  0  1  0  0  3  0  0  0  0  0  0
  161.9990  208.8760  148.6350 C   0  0  0  0  0  1  0  0  0  0  0  0
  162.1150  209.0500  151.1180 C   0  0  0  0  0  1  0  0  0  0  0  0
  162.3140  208.1340  149.9250 C   0  0  0  0  0  3  0  0  0  0  0  0
  161.2180  205.2620  153.4350 O   0  0  0  0  0  0  0  0  0  0  0  0
  161.1650  206.6050  153.8150 C   0  0  0  0  0  2  0  0  0  0  0  0
  160.4550  206.7400  155.1530 C   0  0  0  0  0  2  0  0  0  0  0  0
  160.5540  208.1620  155.6850 C   0  0  0  0  0  2  0  0  0  0  0  0
  160.2100  210.0230  154.2450 O   0  0  0  0  0  1  0  0  0  0  0  0
  161.1560  209.0780  154.6370 C   0  0  0  0  0  2  0  0  0  0  0  0
  2 16  1  0  0  0  0
  2  1  1  6  0  0  0
  3 10  1  0  0  0  0
  4  7  1  0  0  0  0
  5 14  2  0  0  0  0
  6  2  1  0  0  0  0
  7 10  1  0  0  0  0
  7 13  2  0  0  0  0
  8  4  2  0  0  0  0
  8  9  1  0  0  0  0
  9 11  2  0  0  0  0
 10 12  2  0  0  0  0
 11 13  1  0  0  0  0
 12 14  1  0  0  0  0
 13  5  1  0  0  0  0
 14  6  1  0  0  0  0
 15  8  1  0  0  0  0
 17 16  1  6  0  0  0
 17 24  1  0  0  0  0
 18 17  1  0  0  0  0
 20 19  1  6  0  0  0
 20 18  1  0  0  0  0
 21 23  1  0  0  0  0
 23 20  1  0  0  0  0
 23 22  1  0  0  0  0
 24 25  1  0  0  0  0
 25 26  1  0  0  0  0
 26 27  1  0  0  0  0
 28 29  1  0  0  0  0
 29 27  1  0  0  0  0
M  END
>  <MODEL>
6

>  <REMARK>
 VINA RESULT:      -7.0      2.534      4.774
  Name = 
  11 active torsions:
  status: ('A' for Active; 'I' for Inactive)
    1  A    between atoms: C_1  and  C_5
    2  A    between atoms: C_1  and  O_23
    3  A    between atoms: C_5  and  C_17
    4  A    between atoms: C_6  and  C_20
    5  A    between atoms: C_6  and  C_25
    6  A    between atoms: N_9  and  C_19
    7  A    between atoms: C_17  and  C_29
    8  A    between atoms: C_19  and  C_24
    9  A    between atoms: C_20  and  C_21
   10  A    between atoms: C_21  and  O_23
   11  A    between atoms: C_21  and  C_24
                            x       y       z     vdW  Elec       q    Type
                         _______ _______ _______ _____ _____    ______ ____

>  <TORSDO>
F 11

$$$$
=
 OpenBabel11042422523D

 29 30  0  0  1  0  0  0  0  0999 V2000
  162.2740  208.9960  150.2840 C   0  0  0  0  0  1  0  0  0  0  0  0
  161.4670  207.7660  150.6690 C   0  0  2  0  0  3  0  0  0  0  0  0
  160.5310  208.5510  157.0980 Cl  0  0  0  0  0  0  0  0  0  0  0  0
  159.2330  211.0850  155.9160 C   0  0  0  0  0  3  0  0  0  0  0  0
  160.2300  209.6060  152.7050 N   0  0  0  0  0  0  0  0  0  0  0  0
  161.3820  207.5450  152.1150 N   0  0  0  0  0  2  0  0  0  0  0  0
  159.7790  210.1840  154.9920 C   0  0  0  0  0  0  0  0  0  0  0  0
  158.6250  212.2610  155.4720 C   0  0  0  0  0  0  0  0  0  0  0  0
  158.5610  212.5470  154.1050 C   0  0  0  0  0  3  0  0  0  0  0  0
  160.3940  208.9890  155.4000 C   0  0  0  0  0  0  0  0  0  0  0  0
  159.1020  211.6550  153.1750 C   0  0  0  0  0  3  0  0  0  0  0  0
  160.9180  208.1200  154.4410 C   0  0  0  0  0  3  0  0  0  0  0  0
  159.7100  210.4760  153.6110 C   0  0  0  0  0  0  0  0  0  0  0  0
  160.8280  208.4430  153.0850 C   0  0  0  0  0  0  0  0  0  0  0  0
  158.0850  213.1490  156.3910 O   0  0  0  0  0  1  0  0  0  0  0  0
  161.8190  206.5050  149.8630 C   0  0  0  0  0  2  0  0  0  0  0  0
  160.9100  206.1470  148.6780 C   0  0  1  0  0  3  0  0  0  0  0  0
  161.5460  206.4280  147.3220 C   0  0  0  0  0  2  0  0  0  0  0  0
  160.2050  206.5720  145.3340 O   0  0  0  0  0  1  0  0  0  0  0  0
  160.8310  205.6750  146.2010 C   0  0  1  0  0  3  0  0  0  0  0  0
  163.1680  204.7010  146.0370 C   0  0  0  0  0  1  0  0  0  0  0  0
  161.2050  203.3750  145.2630 C   0  0  0  0  0  1  0  0  0  0  0  0
  161.7810  204.7710  145.4160 C   0  0  0  0  0  3  0  0  0  0  0  0
  160.4920  204.8170  148.7530 O   0  0  0  0  0  0  0  0  0  0  0  0
  161.0740  204.3170  149.9200 C   0  0  0  0  0  2  0  0  0  0  0  0
  160.7980  202.8260  150.0410 C   0  0  0  0  0  2  0  0  0  0  0  0
  160.5380  202.2050  148.6770 C   0  0  0  0  0  2  0  0  0  0  0  0
  161.2130  200.4270  147.2490 O   0  0  0  0  0  1  0  0  0  0  0  0
  161.2080  200.8480  148.5780 C   0  0  0  0  0  2  0  0  0  0  0  0
  2  1  1  1  0  0  0
  2  6  1  0  0  0  0
  5 14  2  0  0  0  0
  5 13  1  0  0  0  0
  6 14  1  0  0  0  0
  7 10  1  0  0  0  0
  7  4  2  0  0  0  0
  8  4  1  0  0  0  0
  8 15  1  0  0  0  0
  9  8  2  0  0  0  0
 10  3  1  0  0  0  0
 11 13  2  0  0  0  0
 11  9  1  0  0  0  0
 12 10  2  0  0  0  0
 13  7  1  0  0  0  0
 14 12  1  0  0  0  0
 16  2  1  0  0  0  0
 17 18  1  6  0  0  0
 17 24  1  0  0  0  0
 17 16  1  0  0  0  0
 20 19  1  6  0  0  0
 20 18  1  0  0  0  0
 22 23  1  0  0  0  0
 23 21  1  0  0  0  0
 23 20  1  0  0  0  0
 24 25  1  0  0  0  0
 25 26  1  0  0  0  0
 27 26  1  0  0  0  0
 28 29  1  0  0  0  0
 29 27  1  0  0  0  0
M  END
>  <MODEL>
7

>  <REMARK>
 VINA RESULT:      -7.0      3.148      8.705
  Name = 
  11 active torsions:
  status: ('A' for Active; 'I' for Inactive)
    1  A    between atoms: C_1  and  C_5
    2  A    between atoms: C_1  and  O_23
    3  A    between atoms: C_5  and  C_17
    4  A    between atoms: C_6  and  C_20
    5  A    between atoms: C_6  and  C_25
    6  A    between atoms: N_9  and  C_19
    7  A    between atoms: C_17  and  C_29
    8  A    between atoms: C_19  and  C_24
    9  A    between atoms: C_20  and  C_21
   10  A    between atoms: C_21  and  O_23
   11  A    between atoms: C_21  and  C_24
                            x       y       z     vdW  Elec       q    Type
                         _______ _______ _______ _____ _____    ______ ____

>  <TORSDO>
F 11

$$$$
=
 OpenBabel11042422523D

 29 30  0  0  1  0  0  0  0  0999 V2000
  162.1130  202.5470  151.6640 C   0  0  0  0  0  1  0  0  0  0  0  0
  161.5210  203.9470  151.6030 C   0  0  2  0  0  3  0  0  0  0  0  0
  160.3010  207.9900  156.6020 Cl  0  0  0  0  0  0  0  0  0  0  0  0
  160.5580  209.9270  154.2180 C   0  0  0  0  0  3  0  0  0  0  0  0
  161.0970  206.8450  152.2940 N   0  0  0  0  0  0  0  0  0  0  0  0
  161.1620  204.4930  152.9140 N   0  0  0  0  0  2  0  0  0  0  0  0
  160.7060  208.5650  153.9240 C   0  0  0  0  0  0  0  0  0  0  0  0
  160.6600  210.8790  153.2010 C   0  0  0  0  0  0  0  0  0  0  0  0
  160.9120  210.4780  151.8850 C   0  0  0  0  0  3  0  0  0  0  0  0
  160.6050  207.5790  154.9190 C   0  0  0  0  0  0  0  0  0  0  0  0
  161.0600  209.1220  151.5810 C   0  0  0  0  0  3  0  0  0  0  0  0
  160.7530  206.2340  154.5750 C   0  0  0  0  0  3  0  0  0  0  0  0
  160.9590  208.1640  152.5920 C   0  0  0  0  0  0  0  0  0  0  0  0
  161.0010  205.8780  153.2480 C   0  0  0  0  0  0  0  0  0  0  0  0
  160.5120  212.2260  153.4970 O   0  0  0  0  0  1  0  0  0  0  0  0
  160.4330  204.1240  150.5320 C   0  0  0  0  0  2  0  0  0  0  0  0
  160.8800  204.1210  149.0630 C   0  0  1  0  0  3  0  0  0  0  0  0
  161.7490  205.3160  148.6930 C   0  0  0  0  0  2  0  0  0  0  0  0
  161.0880  207.5720  148.1950 O   0  0  0  0  0  1  0  0  0  0  0  0
  161.0270  206.2570  147.7300 C   0  0  1  0  0  3  0  0  0  0  0  0
  162.7060  205.1500  146.1840 C   0  0  0  0  0  1  0  0  0  0  0  0
  160.5000  205.9000  145.3000 C   0  0  0  0  0  1  0  0  0  0  0  0
  161.5950  206.1810  146.3130 C   0  0  0  0  0  3  0  0  0  0  0  0
  161.5300  202.9280  148.7410 O   0  0  0  0  0  0  0  0  0  0  0  0
  160.5130  202.0460  148.3700 C   0  0  0  0  0  2  0  0  0  0  0  0
  160.9460  201.2320  147.1600 C   0  0  0  0  0  2  0  0  0  0  0  0
  160.9280  202.0770  145.8950 C   0  0  0  0  0  2  0  0  0  0  0  0
  159.3280  202.6980  144.2490 O   0  0  0  0  0  1  0  0  0  0  0  0
  159.8260  201.6100  144.9630 C   0  0  0  0  0  2  0  0  0  0  0  0
  2  1  1  1  0  0  0
  2  6  1  0  0  0  0
  5 13  1  0  0  0  0
  5 14  2  0  0  0  0
  6 14  1  0  0  0  0
  7  4  1  0  0  0  0
  7 10  1  0  0  0  0
  8 15  1  0  0  0  0
  8  4  2  0  0  0  0
  9  8  1  0  0  0  0
 10  3  1  0  0  0  0
 11  9  2  0  0  0  0
 11 13  1  0  0  0  0
 12 10  2  0  0  0  0
 13  7  2  0  0  0  0
 14 12  1  0  0  0  0
 16  2  1  0  0  0  0
 17 18  1  1  0  0  0
 17 16  1  0  0  0  0
 20 19  1  1  0  0  0
 20 18  1  0  0  0  0
 21 23  1  0  0  0  0
 22 23  1  0  0  0  0
 23 20  1  0  0  0  0
 24 17  1  0  0  0  0
 25 24  1  0  0  0  0
 26 25  1  0  0  0  0
 27 26  1  0  0  0  0
 28 29  1  0  0  0  0
 29 27  1  0  0  0  0
M  END
>  <MODEL>
8

>  <REMARK>
 VINA RESULT:      -6.9      2.718      7.656
  Name = 
  11 active torsions:
  status: ('A' for Active; 'I' for Inactive)
    1  A    between atoms: C_1  and  C_5
    2  A    between atoms: C_1  and  O_23
    3  A    between atoms: C_5  and  C_17
    4  A    between atoms: C_6  and  C_20
    5  A    between atoms: C_6  and  C_25
    6  A    between atoms: N_9  and  C_19
    7  A    between atoms: C_17  and  C_29
    8  A    between atoms: C_19  and  C_24
    9  A    between atoms: C_20  and  C_21
   10  A    between atoms: C_21  and  O_23
   11  A    between atoms: C_21  and  C_24
                            x       y       z     vdW  Elec       q    Type
                         _______ _______ _______ _____ _____    ______ ____

>  <TORSDO>
F 11

$$$$
=
 OpenBabel11042422523D

 29 30  0  0  1  0  0  0  0  0999 V2000
  162.2840  210.0220  150.4230 C   0  0  0  0  0  1  0  0  0  0  0  0
  161.8010  208.6180  150.7480 C   0  0  2  0  0  3  0  0  0  0  0  0
  160.2730  209.0710  157.0950 Cl  0  0  0  0  0  0  0  0  0  0  0  0
  158.5470  211.2880  155.8280 C   0  0  0  0  0  3  0  0  0  0  0  0
  160.0590  210.1140  152.6940 N   0  0  0  0  0  0  0  0  0  0  0  0
  161.6650  208.3580  152.1830 N   0  0  0  0  0  2  0  0  0  0  0  0
  159.3360  210.5410  154.9440 C   0  0  0  0  0  0  0  0  0  0  0  0
  157.7320  212.3150  155.3450 C   0  0  0  0  0  0  0  0  0  0  0  0
  157.7040  212.6040  153.9770 C   0  0  0  0  0  3  0  0  0  0  0  0
  160.1630  209.4980  155.3930 C   0  0  0  0  0  0  0  0  0  0  0  0
  158.4870  211.8650  153.0870 C   0  0  0  0  0  3  0  0  0  0  0  0
  160.9270  208.7790  154.4720 C   0  0  0  0  0  3  0  0  0  0  0  0
  159.3030  210.8360  153.5620 C   0  0  0  0  0  0  0  0  0  0  0  0
  160.8650  209.1000  153.1140 C   0  0  0  0  0  0  0  0  0  0  0  0
  156.9510  213.0500  156.2240 O   0  0  0  0  0  1  0  0  0  0  0  0
  162.5320  207.5060  149.9780 C   0  0  0  0  0  2  0  0  0  0  0  0
  161.6800  206.5680  149.1110 C   0  0  1  0  0  3  0  0  0  0  0  0
  160.6170  205.8150  149.9000 C   0  0  0  0  0  2  0  0  0  0  0  0
  161.0610  204.9530  152.0980 O   0  0  0  0  0  1  0  0  0  0  0  0
  161.2290  204.6930  150.7370 C   0  0  1  0  0  3  0  0  0  0  0  0
  160.8320  202.9570  148.9300 C   0  0  0  0  0  1  0  0  0  0  0  0
  161.2060  202.2420  151.2870 C   0  0  0  0  0  1  0  0  0  0  0  0
  160.6360  203.3270  150.3920 C   0  0  0  0  0  3  0  0  0  0  0  0
  161.0990  207.2610  148.0480 O   0  0  0  0  0  0  0  0  0  0  0  0
  160.9640  206.3170  147.0270 C   0  0  0  0  0  2  0  0  0  0  0  0
  162.3340  205.8280  146.5850 C   0  0  0  0  0  2  0  0  0  0  0  0
  162.2270  204.5250  145.8070 C   0  0  0  0  0  2  0  0  0  0  0  0
  160.4570  203.2310  144.8860 O   0  0  0  0  0  1  0  0  0  0  0  0
  160.9760  204.5230  144.9500 C   0  0  0  0  0  2  0  0  0  0  0  0
  2  1  1  1  0  0  0
  2  6  1  0  0  0  0
  5 14  2  0  0  0  0
  5 13  1  0  0  0  0
  6 14  1  0  0  0  0
  7 10  1  0  0  0  0
  7  4  2  0  0  0  0
  8  4  1  0  0  0  0
  8 15  1  0  0  0  0
  9  8  2  0  0  0  0
 10  3  1  0  0  0  0
 11 13  2  0  0  0  0
 11  9  1  0  0  0  0
 12 10  2  0  0  0  0
 13  7  1  0  0  0  0
 14 12  1  0  0  0  0
 16  2  1  0  0  0  0
 17 18  1  1  0  0  0
 17 16  1  0  0  0  0
 18 20  1  0  0  0  0
 20 19  1  1  0  0  0
 21 23  1  0  0  0  0
 23 20  1  0  0  0  0
 23 22  1  0  0  0  0
 24 17  1  0  0  0  0
 25 24  1  0  0  0  0
 26 25  1  0  0  0  0
 27 26  1  0  0  0  0
 28 29  1  0  0  0  0
 29 27  1  0  0  0  0
M  END
>  <MODEL>
9

>  <REMARK>
 VINA RESULT:      -6.9      3.033      8.013
  Name = 
  11 active torsions:
  status: ('A' for Active; 'I' for Inactive)
    1  A    between atoms: C_1  and  C_5
    2  A    between atoms: C_1  and  O_23
    3  A    between atoms: C_5  and  C_17
    4  A    between atoms: C_6  and  C_20
    5  A    between atoms: C_6  and  C_25
    6  A    between atoms: N_9  and  C_19
    7  A    between atoms: C_17  and  C_29
    8  A    between atoms: C_19  and  C_24
    9  A    between atoms: C_20  and  C_21
   10  A    between atoms: C_21  and  O_23
   11  A    between atoms: C_21  and  C_24
                            x       y       z     vdW  Elec       q    Type
                         _______ _______ _______ _____ _____    ______ ____

>  <TORSDO>
F 11

$$$$
