=
 OpenBabel11052411383D

 43 49  0  0  1  0  0  0  0  0999 V2000
  160.3730  209.5670  152.3850 C   0  0  0  0  0  0  0  0  0  0  0  0
  161.5170  205.2340  148.1170 C   0  0  0  0  0  0  0  0  0  0  0  0
  161.1430  204.0660  147.2670 C   0  0  0  0  0  1  0  0  0  0  0  0
  162.1170  206.0260  152.2570 C   0  0  0  0  0  0  0  0  0  0  0  0
  160.5180  208.6280  153.5690 C   0  0  1  0  0  3  0  0  0  0  0  0
  160.8690  209.4050  151.1820 C   0  0  0  0  0  0  0  0  0  0  0  0
  161.9140  204.6580  151.9840 O   0  0  0  0  0  0  0  0  0  0  0  0
  163.4170  207.9230  148.5030 F   0  0  0  0  0  0  0  0  0  0  0  0
  161.8730  206.5350  153.4600 C   0  0  0  0  0  3  0  0  0  0  0  0
  161.7510  206.4670  147.6390 C   0  0  0  0  0  3  0  0  0  0  0  0
  160.8610  211.9720  152.2090 N   0  0  0  0  0  2  0  0  0  0  0  0
  161.8150  207.9570  153.6380 N   0  0  0  0  0  2  0  0  0  0  0  0
  162.1400  207.4430  148.7340 C   0  0  2  0  0  0  0  0  0  0  0  0
  161.1170  208.5920  148.8660 C   0  0  0  0  0  2  0  0  0  0  0  0
  160.1710  210.9300  154.2610 N   0  0  0  0  0  0  0  0  0  0  0  0
  162.4030  206.9420  151.1640 C   0  0  0  0  0  3  0  0  0  0  0  0
  162.1180  206.5690  149.9370 C   0  0  0  0  0  0  0  0  0  0  0  0
  159.7790  212.0170  155.1430 C   0  0  0  0  0  1  0  0  0  0  0  0
  160.4600  209.2670  155.9050 O   0  0  0  0  0  0  0  0  0  0  0  0
  159.9960  210.9590  152.8220 C   0  0  2  0  0  3  0  0  0  0  0  0
  160.3030  204.8780  150.2030 C   0  0  0  0  0  2  0  0  0  0  0  0
  160.2520  212.3010  150.9210 C   0  0  0  0  0  2  0  0  0  0  0  0
  161.4200  209.5470  150.0020 C   0  0  0  0  0  0  0  0  0  0  0  0
  162.1240  210.8650  149.7880 C   0  0  2  0  0  3  0  0  0  0  0  0
  161.6510  205.2270  149.5900 C   0  0  1  0  0  0  0  0  0  0  0  0
  160.3980  209.5950  154.6910 C   0  0  0  0  0  0  0  0  0  0  0  0
  161.5530  204.1510  150.6770 C   0  0  1  0  0  3  0  0  0  0  0  0
  161.2120  212.1140  149.7250 C   0  0  1  0  0  3  0  0  0  0  0  0
  163.1420  210.8390  148.6560 C   0  0  0  0  0  1  0  0  0  0  0  0
  160.7620  212.9530  147.4690 C   0  0  0  0  0  0  0  0  0  0  0  0
  160.4370  212.1480  148.4430 C   0  0  0  0  0  3  0  0  0  0  0  0
  161.0860  213.7640  146.4980 C   0  0  0  0  0  3  0  0  0  0  0  0
  160.4270  213.3240  141.6290 C   0  0  0  0  0  2  0  0  0  0  0  0
  162.3060  212.9820  143.7800 C   0  0  0  0  0  2  0  0  0  0  0  0
  159.2940  214.4460  145.1520 O   0  0  0  0  0  0  0  0  0  0  0  0
  162.5450  212.2980  142.5050 N   0  0  0  0  0  2  0  0  0  0  0  0
  159.9330  212.7800  142.9660 C   0  0  0  0  0  2  0  0  0  0  0  0
  161.9210  213.0340  141.3970 C   0  0  2  0  0  3  0  0  0  0  0  0
  160.8710  213.1510  144.0210 N   0  0  0  0  0  0  0  0  0  0  0  0
  160.3790  213.8070  145.2050 C   0  0  0  0  0  0  0  0  0  0  0  0
  162.6430  214.2720  141.1440 N   0  0  0  0  0  2  0  0  0  0  0  0
  163.1530  213.4550  139.2630 O   0  0  0  0  0  1  0  0  0  0  0  0
  163.6950  213.9640  140.3480 O   0  0  0  0  0  0  0  0  0  0  0  0
  1 20  1  0  0  0  0
  2 25  1  0  0  0  0
  3  2  1  0  0  0  0
  4  9  2  0  0  0  0
  5  1  1  6  0  0  0
  5 12  1  0  0  0  0
  5 26  1  0  0  0  0
  6  1  2  0  0  0  0
  7  4  1  0  0  0  0
  9 12  1  0  0  0  0
 10  2  2  0  0  0  0
 10 13  1  0  0  0  0
 13  8  1  6  0  0  0
 13 14  1  0  0  0  0
 13 17  1  0  0  0  0
 14 23  1  0  0  0  0
 15 26  1  0  0  0  0
 15 18  1  0  0  0  0
 16  4  1  0  0  0  0
 17 16  2  0  0  0  0
 20 11  1  6  0  0  0
 20 15  1  0  0  0  0
 22 11  1  0  0  0  0
 23  6  2  0  0  0  0
 24 29  1  6  0  0  0
 24 23  1  0  0  0  0
 25 17  1  0  0  0  0
 25 21  1  1  0  0  0
 25 27  1  0  0  0  0
 26 19  2  0  0  0  0
 27 21  1  1  0  0  0
 27  7  1  0  0  0  0
 28 31  1  6  0  0  0
 28 24  1  0  0  0  0
 28 22  1  0  0  0  0
 30 31  2  0  0  0  0
 32 30  2  0  0  0  0
 33 37  1  0  0  0  0
 34 39  1  0  0  0  0
 35 40  2  0  0  0  0
 36 34  1  0  0  0  0
 37 39  1  0  0  0  0
 38 41  1  1  0  0  0
 38 33  1  0  0  0  0
 38 36  1  0  0  0  0
 39 40  1  0  0  0  0
 40 32  1  0  0  0  0
 42 43  1  0  0  0  0
 43 41  1  0  0  0  0
M  END
>  <MODEL>
1

>  <REMARK>
 VINA RESULT:      -5.3      0.000      0.000
  Name = 
  4 active torsions:
  status: ('A' for Active; 'I' for Inactive)
    1  A    between atoms: N_22  and  C_40
    2  A    between atoms: N_22  and  O_41
    3  A    between atoms: C_27  and  C_38
    4  A    between atoms: C_28  and  C_43
                            x       y       z     vdW  Elec       q    Type
                         _______ _______ _______ _____ _____    ______ ____

>  <TORSDO>
F 4

$$$$
=
 OpenBabel11052411383D

 43 49  0  0  1  0  0  0  0  0999 V2000
  160.2470  208.7560  153.3220 C   0  0  0  0  0  0  0  0  0  0  0  0
  161.3630  205.3400  148.2830 C   0  0  0  0  0  0  0  0  0  0  0  0
  160.9730  204.3910  147.2020 C   0  0  0  0  0  1  0  0  0  0  0  0
  161.8500  205.2390  152.5120 C   0  0  0  0  0  0  0  0  0  0  0  0
  160.3130  207.5890  154.2900 C   0  0  1  0  0  3  0  0  0  0  0  0
  160.7780  208.8210  152.1250 C   0  0  0  0  0  0  0  0  0  0  0  0
  161.6020  203.9660  151.9580 O   0  0  0  0  0  0  0  0  0  0  0  0
  163.3560  207.8020  149.2650 F   0  0  0  0  0  0  0  0  0  0  0  0
  161.5850  205.5010  153.7870 C   0  0  0  0  0  3  0  0  0  0  0  0
  161.6640  206.6330  148.0760 C   0  0  0  0  0  3  0  0  0  0  0  0
  160.8380  211.1200  153.6590 N   0  0  0  0  0  2  0  0  0  0  0  0
  161.5780  206.8580  154.2530 N   0  0  0  0  0  2  0  0  0  0  0  0
  162.0540  207.3440  149.3590 C   0  0  2  0  0  0  0  0  0  0  0  0
  161.0740  208.4890  149.6980 C   0  0  0  0  0  2  0  0  0  0  0  0
  160.0350  209.7140  155.4330 N   0  0  0  0  0  0  0  0  0  0  0  0
  162.2110  206.3450  151.6390 C   0  0  0  0  0  3  0  0  0  0  0  0
  161.9540  206.2450  150.3540 C   0  0  0  0  0  0  0  0  0  0  0  0
  159.6570  210.6140  156.5100 C   0  0  0  0  0  1  0  0  0  0  0  0
  160.1990  207.7380  156.7050 O   0  0  0  0  0  0  0  0  0  0  0  0
  159.9110  210.0450  154.0270 C   0  0  2  0  0  3  0  0  0  0  0  0
  160.0640  204.6220  150.2190 C   0  0  0  0  0  2  0  0  0  0  0  0
  160.2880  211.7350  152.4500 C   0  0  0  0  0  2  0  0  0  0  0  0
  161.3760  209.1750  151.0140 C   0  0  0  0  0  0  0  0  0  0  0  0
  162.1390  210.4750  151.0940 C   0  0  2  0  0  3  0  0  0  0  0  0
  161.4460  205.0260  149.7260 C   0  0  1  0  0  0  0  0  0  0  0  0
  160.1920  208.3100  155.5840 C   0  0  0  0  0  0  0  0  0  0  0  0
  161.2670  203.7560  150.5650 C   0  0  1  0  0  3  0  0  0  0  0  0
  161.2810  211.7520  151.2670 C   0  0  1  0  0  3  0  0  0  0  0  0
  163.1940  210.6350  150.0080 C   0  0  0  0  0  1  0  0  0  0  0  0
  159.3910  212.6790  150.0160 C   0  0  0  0  0  0  0  0  0  0  0  0
  160.5530  212.0840  150.0000 C   0  0  0  0  0  3  0  0  0  0  0  0
  158.2270  213.2700  150.0340 C   0  0  0  0  0  3  0  0  0  0  0  0
  157.3180  213.8000  145.2150 C   0  0  0  0  0  2  0  0  0  0  0  0
  159.1940  212.7920  147.1490 C   0  0  0  0  0  2  0  0  0  0  0  0
  156.5260  214.4530  148.9420 O   0  0  0  0  0  0  0  0  0  0  0  0
  159.2660  212.3120  145.7650 N   0  0  0  0  0  2  0  0  0  0  0  0
  156.7910  213.1160  146.4720 C   0  0  0  0  0  2  0  0  0  0  0  0
  158.7330  213.3210  144.8390 C   0  0  2  0  0  3  0  0  0  0  0  0
  157.8180  213.1430  147.5090 N   0  0  0  0  0  0  0  0  0  0  0  0
  157.4890  213.6510  148.8160 C   0  0  0  0  0  0  0  0  0  0  0  0
  159.6420  214.4530  144.7470 N   0  0  0  0  0  2  0  0  0  0  0  0
  160.4830  213.9710  142.8690 O   0  0  0  0  0  1  0  0  0  0  0  0
  160.7740  214.0080  144.1520 O   0  0  0  0  0  0  0  0  0  0  0  0
  2 25  1  0  0  0  0
  3  2  1  0  0  0  0
  4  9  2  0  0  0  0
  5  1  1  6  0  0  0
  5 26  1  0  0  0  0
  6  1  2  0  0  0  0
  7  4  1  0  0  0  0
  9 12  1  0  0  0  0
 10  2  2  0  0  0  0
 10 13  1  0  0  0  0
 11 20  1  0  0  0  0
 12  5  1  0  0  0  0
 13  8  1  6  0  0  0
 13 14  1  0  0  0  0
 13 17  1  0  0  0  0
 14 23  1  0  0  0  0
 15 26  1  0  0  0  0
 15 18  1  0  0  0  0
 16  4  1  0  0  0  0
 17 16  2  0  0  0  0
 20  1  1  6  0  0  0
 20 15  1  0  0  0  0
 22 11  1  0  0  0  0
 23 24  1  0  0  0  0
 23  6  2  0  0  0  0
 24 29  1  6  0  0  0
 24 28  1  0  0  0  0
 25 21  1  1  0  0  0
 25 17  1  0  0  0  0
 25 27  1  0  0  0  0
 26 19  2  0  0  0  0
 27 21  1  1  0  0  0
 27  7  1  0  0  0  0
 28 31  1  6  0  0  0
 28 22  1  0  0  0  0
 30 32  2  0  0  0  0
 31 30  2  0  0  0  0
 33 37  1  0  0  0  0
 34 39  1  0  0  0  0
 36 34  1  0  0  0  0
 37 39  1  0  0  0  0
 38 41  1  1  0  0  0
 38 33  1  0  0  0  0
 38 36  1  0  0  0  0
 39 40  1  0  0  0  0
 40 35  2  0  0  0  0
 40 32  1  0  0  0  0
 42 43  1  0  0  0  0
 43 41  1  0  0  0  0
M  END
>  <MODEL>
2

>  <REMARK>
 VINA RESULT:      -3.8      2.039      2.691
  Name = 
  4 active torsions:
  status: ('A' for Active; 'I' for Inactive)
    1  A    between atoms: N_22  and  C_40
    2  A    between atoms: N_22  and  O_41
    3  A    between atoms: C_27  and  C_38
    4  A    between atoms: C_28  and  C_43
                            x       y       z     vdW  Elec       q    Type
                         _______ _______ _______ _____ _____    ______ ____

>  <TORSDO>
F 4

$$$$
=
 OpenBabel11052411383D

 43 49  0  0  1  0  0  0  0  0999 V2000
  160.2230  211.5730  150.9360 C   0  0  0  0  0  0  0  0  0  0  0  0
  156.3410  210.7780  155.6890 C   0  0  0  0  0  0  0  0  0  0  0  0
  155.0070  210.4880  156.2880 C   0  0  0  0  0  1  0  0  0  0  0  0
  158.1210  213.8700  153.3660 C   0  0  0  0  0  0  0  0  0  0  0  0
  159.7430  212.9750  150.6050 C   0  0  1  0  0  3  0  0  0  0  0  0
  160.1050  210.9460  152.0810 C   0  0  0  0  0  0  0  0  0  0  0  0
  156.8190  214.1910  153.7990 O   0  0  0  0  0  0  0  0  0  0  0  0
  159.6390  210.7110  156.0300 F   0  0  0  0  0  0  0  0  0  0  0  0
  158.6590  214.4530  152.2990 C   0  0  0  0  0  3  0  0  0  0  0  0
  157.4010  209.9570  155.7780 C   0  0  0  0  0  3  0  0  0  0  0  0
  162.4520  210.5660  150.6700 N   0  0  0  0  0  2  0  0  0  0  0  0
  159.8560  213.9180  151.7160 N   0  0  0  0  0  2  0  0  0  0  0  0
  158.6300  210.5310  155.0990 C   0  0  2  0  0  0  0  0  0  0  0  0
  159.0970  209.6480  153.9210 C   0  0  0  0  0  2  0  0  0  0  0  0
  161.6300  212.3050  149.2300 N   0  0  0  0  0  0  0  0  0  0  0  0
  158.8210  212.7430  153.9630 C   0  0  0  0  0  3  0  0  0  0  0  0
  158.1230  211.8410  154.6150 C   0  0  0  0  0  0  0  0  0  0  0  0
  162.5130  212.3120  148.0760 C   0  0  0  0  0  1  0  0  0  0  0  0
  160.7060  214.4530  148.9450 O   0  0  0  0  0  0  0  0  0  0  0  0
  161.2830  211.1070  149.9700 C   0  0  2  0  0  3  0  0  0  0  0  0
  155.8330  211.9960  153.6370 C   0  0  0  0  0  2  0  0  0  0  0  0
  162.1650  209.1520  150.9090 C   0  0  0  0  0  2  0  0  0  0  0  0
  160.2740  210.2250  153.1610 C   0  0  0  0  0  0  0  0  0  0  0  0
  161.6950  209.7790  153.4070 C   0  0  2  0  0  3  0  0  0  0  0  0
  156.6930  211.9740  154.8920 C   0  0  1  0  0  0  0  0  0  0  0  0
  160.7110  213.3430  149.5400 C   0  0  0  0  0  0  0  0  0  0  0  0
  155.9550  213.2530  154.4850 C   0  0  1  0  0  3  0  0  0  0  0  0
  162.2640  208.7510  152.3980 C   0  0  1  0  0  3  0  0  0  0  0  0
  161.9710  209.3790  154.8500 C   0  0  0  0  0  1  0  0  0  0  0  0
  161.4630  206.5780  151.6050 C   0  0  0  0  0  0  0  0  0  0  0  0
  161.6460  207.4020  152.6010 C   0  0  0  0  0  3  0  0  0  0  0  0
  161.2750  205.7580  150.6070 C   0  0  0  0  0  3  0  0  0  0  0  0
  160.2420  201.0730  149.4570 C   0  0  0  0  0  2  0  0  0  0  0  0
  161.6290  203.4440  148.6040 C   0  0  0  0  0  2  0  0  0  0  0  0
  159.8050  204.2450  151.6250 O   0  0  0  0  0  0  0  0  0  0  0  0
  161.9980  202.1500  148.0210 N   0  0  0  0  0  2  0  0  0  0  0  0
  160.9560  201.9290  150.4980 C   0  0  0  0  0  2  0  0  0  0  0  0
  160.8590  201.2230  148.0540 C   0  0  2  0  0  3  0  0  0  0  0  0
  161.1420  203.2790  149.9760 N   0  0  0  0  0  0  0  0  0  0  0  0
  160.7060  204.4060  150.7600 C   0  0  0  0  0  0  0  0  0  0  0  0
  159.8440  201.6360  147.0970 N   0  0  0  0  0  2  0  0  0  0  0  0
  160.1960  202.2490  145.1050 O   0  0  0  0  0  1  0  0  0  0  0  0
  160.2360  201.1870  145.8810 O   0  0  0  0  0  0  0  0  0  0  0  0
  1  6  2  0  0  0  0
  2 10  2  0  0  0  0
  2  3  1  0  0  0  0
  4  7  1  0  0  0  0
  4 16  1  0  0  0  0
  5 26  1  6  0  0  0
  5  1  1  0  0  0  0
  5 12  1  0  0  0  0
  6 23  2  0  0  0  0
  7 27  1  0  0  0  0
  9  4  2  0  0  0  0
 11 22  1  0  0  0  0
 12  9  1  0  0  0  0
 13 10  1  0  0  0  0
 13  8  1  1  0  0  0
 14 13  1  0  0  0  0
 15 26  1  0  0  0  0
 15 20  1  0  0  0  0
 16 17  2  0  0  0  0
 17 25  1  0  0  0  0
 17 13  1  0  0  0  0
 18 15  1  0  0  0  0
 19 26  2  0  0  0  0
 20 11  1  1  0  0  0
 20  1  1  0  0  0  0
 22 28  1  0  0  0  0
 23 24  1  0  0  0  0
 23 14  1  0  0  0  0
 24 29  1  1  0  0  0
 25 21  1  6  0  0  0
 25  2  1  0  0  0  0
 27 21  1  6  0  0  0
 27 25  1  0  0  0  0
 28 31  1  6  0  0  0
 28 24  1  0  0  0  0
 30 31  2  0  0  0  0
 32 40  1  0  0  0  0
 32 30  2  0  0  0  0
 33 37  1  0  0  0  0
 34 39  1  0  0  0  0
 36 38  1  0  0  0  0
 36 34  1  0  0  0  0
 38 41  1  6  0  0  0
 38 33  1  0  0  0  0
 39 37  1  0  0  0  0
 39 40  1  0  0  0  0
 40 35  2  0  0  0  0
 42 43  1  0  0  0  0
 43 41  1  0  0  0  0
M  END
>  <MODEL>
3

>  <REMARK>
 VINA RESULT:      -3.4      4.133      9.182
  Name = 
  4 active torsions:
  status: ('A' for Active; 'I' for Inactive)
    1  A    between atoms: N_22  and  C_40
    2  A    between atoms: N_22  and  O_41
    3  A    between atoms: C_27  and  C_38
    4  A    between atoms: C_28  and  C_43
                            x       y       z     vdW  Elec       q    Type
                         _______ _______ _______ _____ _____    ______ ____

>  <TORSDO>
F 4

$$$$
