=
 OpenBabel11042422393D

 33 38  0  0  1  0  0  0  0  0999 V2000
  160.2420  209.0700  156.7910 C   0  0  1  0  0  3  0  0  0  0  0  0
  161.9500  207.1400  153.2660 C   0  0  1  0  0  3  0  0  0  0  0  0
  161.6680  208.2500  155.2380 C   0  0  1  0  0  3  0  0  0  0  0  0
  161.4540  209.3750  156.1710 C   0  0  1  0  0  3  0  0  0  0  0  0
  160.8050  207.3030  155.3290 C   0  0  1  0  0  3  0  0  0  0  0  0
  159.5190  206.8210  157.2280 O   0  0  0  0  0  1  0  0  0  0  0  0
  162.4210  208.2070  154.0880 O   0  0  0  0  0  0  0  0  0  0  0  0
  160.2410  210.1390  155.7400 N   0  0  0  0  0  0  0  0  0  0  0  0
  159.7030  207.7470  156.2010 C   0  0  1  0  0  3  0  0  0  0  0  0
  160.7700  206.5260  154.0610 C   0  0  0  0  0  2  0  0  0  0  0  0
  159.0240  212.4190  153.0540 N   0  0  0  0  0  0  0  0  0  0  0  0
  158.3210  211.4400  154.9470 C   0  0  0  0  0  0  0  0  0  0  0  0
  155.8050  212.4040  154.5870 C   0  0  0  0  0  3  0  0  0  0  0  0
  158.0280  212.2360  153.8630 C   0  0  0  0  0  0  0  0  0  0  0  0
  160.0930  211.7030  153.6830 C   0  0  0  0  0  0  0  0  0  0  0  0
  156.7750  212.7180  153.6760 N   0  0  0  0  0  0  0  0  0  0  0  0
  157.3790  211.0970  155.8580 N   0  0  0  0  0  0  0  0  0  0  0  0
  156.1120  211.5790  155.6940 C   0  0  0  0  0  3  0  0  0  0  0  0
  159.5800  211.0680  154.8890 C   0  0  0  0  0  0  0  0  0  0  0  0
  161.1560  211.3280  153.0530 N   0  0  0  0  0  2  0  0  0  0  0  0
  160.2180  208.4700  152.0720 C   0  0  0  0  0  1  0  0  0  0  0  0
  161.5130  207.6670  151.8870 C   0  0  2  0  0  0  0  0  0  0  0  0
  161.2680  206.4710  150.9780 C   0  0  0  0  0  0  0  0  0  0  0  0
  161.3270  204.0670  150.5870 C   0  0  0  0  0  3  0  0  0  0  0  0
  161.4920  205.1610  151.4400 C   0  0  0  0  0  3  0  0  0  0  0  0
  160.9140  206.6590  149.6320 C   0  0  0  0  0  3  0  0  0  0  0  0
  160.7490  205.5650  148.7780 C   0  0  0  0  0  3  0  0  0  0  0  0
  160.9570  204.2680  149.2540 C   0  0  0  0  0  0  0  0  0  0  0  0
  160.7610  203.1020  148.3510 C   0  0  0  0  0  2  0  0  0  0  0  0
  161.2660  200.8350  148.5330 C   0  0  0  0  0  1  0  0  0  0  0  0
  160.5000  201.9090  149.1370 N   0  0  0  0  0  2  0  0  0  0  0  0
  162.5360  208.5050  151.3780 O   0  0  0  0  0  0  0  0  0  0  0  0
  161.9590  209.4580  150.6660 O   0  0  0  0  0  1  0  0  0  0  0  0
  1  8  1  6  0  0  0
  2 22  1  6  0  0  0
  2 10  1  0  0  0  0
  2  7  1  0  0  0  0
  3  7  1  6  0  0  0
  3  5  1  0  0  0  0
  3  4  1  0  0  0  0
  4  8  1  6  0  0  0
  4  1  1  0  0  0  0
  5 10  1  6  0  0  0
  5  9  1  0  0  0  0
  9  1  1  0  0  0  0
  9  6  1  1  0  0  0
 11 15  1  0  0  0  0
 11 14  2  0  0  0  0
 12 17  1  0  0  0  0
 13 18  1  0  0  0  0
 14 12  1  0  0  0  0
 15 19  1  0  0  0  0
 16 14  1  0  0  0  0
 16 13  2  0  0  0  0
 18 17  2  0  0  0  0
 19 12  2  0  0  0  0
 19  8  1  0  0  0  0
 20 15  2  0  0  0  0
 22 21  1  1  0  0  0
 23 25  1  0  0  0  0
 23 22  1  0  0  0  0
 24 25  2  0  0  0  0
 26 23  2  0  0  0  0
 27 28  2  0  0  0  0
 27 26  1  0  0  0  0
 28 24  1  0  0  0  0
 29 31  1  0  0  0  0
 29 28  1  0  0  0  0
 30 31  1  0  0  0  0
 32 22  1  0  0  0  0
 33 32  1  0  0  0  0
M  END
>  <MODEL>
1

>  <REMARK>
 VINA RESULT:      -6.6      0.000      0.000
  Name = 
  6 active torsions:
  status: ('A' for Active; 'I' for Inactive)
    1  A    between atoms: C_1  and  C_32
    2  A    between atoms: C_3  and  C_32
    3  A    between atoms: C_19  and  C_27
    4  A    between atoms: C_19  and  N_31
    5  A    between atoms: N_22  and  C_29
    6  A    between atoms: O_24  and  C_32
                            x       y       z     vdW  Elec       q    Type
                         _______ _______ _______ _____ _____    ______ ____

>  <TORSDO>
F 6

$$$$
=
 OpenBabel11042422393D

 33 38  0  0  1  0  0  0  0  0999 V2000
  159.9410  209.4270  156.7320 C   0  0  1  0  0  3  0  0  0  0  0  0
  162.1010  207.9190  153.2480 C   0  0  1  0  0  3  0  0  0  0  0  0
  161.5340  208.9700  155.1910 C   0  0  1  0  0  3  0  0  0  0  0  0
  161.0290  210.0240  156.0940 C   0  0  1  0  0  3  0  0  0  0  0  0
  160.9530  207.8310  155.3140 C   0  0  1  0  0  3  0  0  0  0  0  0
  159.8390  207.0800  157.2340 O   0  0  0  0  0  1  0  0  0  0  0  0
  162.2720  209.0960  154.0380 O   0  0  0  0  0  0  0  0  0  0  0  0
  159.6570  210.4260  155.6520 N   0  0  0  0  0  0  0  0  0  0  0  0
  159.7720  207.9920  156.1820 C   0  0  1  0  0  3  0  0  0  0  0  0
  161.1250  207.0370  154.0680 C   0  0  0  0  0  2  0  0  0  0  0  0
  156.9320  212.3030  153.9350 N   0  0  0  0  0  0  0  0  0  0  0  0
  159.0880  211.7450  153.6660 C   0  0  0  0  0  0  0  0  0  0  0  0
  159.2610  213.2490  151.4070 C   0  0  0  0  0  3  0  0  0  0  0  0
  157.9870  212.4210  153.1920 C   0  0  0  0  0  0  0  0  0  0  0  0
  157.3670  211.4350  154.9870 C   0  0  0  0  0  0  0  0  0  0  0  0
  158.0660  213.1740  152.0680 N   0  0  0  0  0  0  0  0  0  0  0  0
  160.2900  211.8110  153.0440 N   0  0  0  0  0  0  0  0  0  0  0  0
  160.3900  212.5580  151.9040 C   0  0  0  0  0  3  0  0  0  0  0  0
  158.7740  211.1230  154.7800 C   0  0  0  0  0  0  0  0  0  0  0  0
  156.7550  211.3380  156.1200 N   0  0  0  0  0  2  0  0  0  0  0  0
  160.1580  208.9110  152.0500 C   0  0  0  0  0  1  0  0  0  0  0  0
  161.5400  208.2720  151.8580 C   0  0  2  0  0  0  0  0  0  0  0  0
  161.4220  206.9850  151.0540 C   0  0  0  0  0  0  0  0  0  0  0  0
  160.7620  205.8170  149.0200 C   0  0  0  0  0  3  0  0  0  0  0  0
  160.9300  207.0060  149.7360 C   0  0  0  0  0  3  0  0  0  0  0  0
  161.7030  205.7440  151.6490 C   0  0  0  0  0  3  0  0  0  0  0  0
  161.5350  204.5560  150.9340 C   0  0  0  0  0  3  0  0  0  0  0  0
  161.0630  204.5910  149.6190 C   0  0  0  0  0  0  0  0  0  0  0  0
  160.9050  203.3270  148.8500 C   0  0  0  0  0  2  0  0  0  0  0  0
  161.0110  201.0140  149.1040 C   0  0  0  0  0  1  0  0  0  0  0  0
  160.5820  202.2370  149.7550 N   0  0  0  0  0  2  0  0  0  0  0  0
  162.4190  209.1940  151.2380 O   0  0  0  0  0  0  0  0  0  0  0  0
  161.7500  209.8000  150.2710 O   0  0  0  0  0  1  0  0  0  0  0  0
  1  8  1  6  0  0  0
  2 22  1  6  0  0  0
  2  7  1  0  0  0  0
  2 10  1  0  0  0  0
  3  7  1  6  0  0  0
  3  5  1  0  0  0  0
  3  4  1  0  0  0  0
  4  8  1  6  0  0  0
  4  1  1  0  0  0  0
  5 10  1  6  0  0  0
  5  9  1  0  0  0  0
  9  1  1  0  0  0  0
  9  6  1  1  0  0  0
 11 15  1  0  0  0  0
 12 19  2  0  0  0  0
 13 18  1  0  0  0  0
 13 16  2  0  0  0  0
 14 12  1  0  0  0  0
 14 11  2  0  0  0  0
 15 20  2  0  0  0  0
 16 14  1  0  0  0  0
 17 12  1  0  0  0  0
 18 17  2  0  0  0  0
 19 15  1  0  0  0  0
 19  8  1  0  0  0  0
 22 21  1  1  0  0  0
 23 26  1  0  0  0  0
 23 22  1  0  0  0  0
 24 28  2  0  0  0  0
 24 25  1  0  0  0  0
 25 23  2  0  0  0  0
 27 26  2  0  0  0  0
 28 27  1  0  0  0  0
 29 28  1  0  0  0  0
 29 31  1  0  0  0  0
 30 31  1  0  0  0  0
 32 22  1  0  0  0  0
 33 32  1  0  0  0  0
M  END
>  <MODEL>
2

>  <REMARK>
 VINA RESULT:      -6.5      0.915      2.174
  Name = 
  6 active torsions:
  status: ('A' for Active; 'I' for Inactive)
    1  A    between atoms: C_1  and  C_32
    2  A    between atoms: C_3  and  C_32
    3  A    between atoms: C_19  and  C_27
    4  A    between atoms: C_19  and  N_31
    5  A    between atoms: N_22  and  C_29
    6  A    between atoms: O_24  and  C_32
                            x       y       z     vdW  Elec       q    Type
                         _______ _______ _______ _____ _____    ______ ____

>  <TORSDO>
F 6

$$$$
=
 OpenBabel11042422393D

 33 38  0  0  1  0  0  0  0  0999 V2000
  161.7120  204.7960  145.4840 C   0  0  1  0  0  3  0  0  0  0  0  0
  161.9960  207.3510  149.0140 C   0  0  1  0  0  3  0  0  0  0  0  0
  162.4750  206.0900  147.1750 C   0  0  1  0  0  3  0  0  0  0  0  0
  162.7910  204.8980  146.3620 C   0  0  1  0  0  3  0  0  0  0  0  0
  161.4280  206.7350  146.8020 C   0  0  1  0  0  3  0  0  0  0  0  0
  160.5150  206.7020  144.6440 O   0  0  0  0  0  1  0  0  0  0  0  0
  162.9120  206.4220  148.4360 O   0  0  0  0  0  0  0  0  0  0  0  0
  161.7690  203.8390  146.6370 N   0  0  0  0  0  0  0  0  0  0  0  0
  160.7130  205.9350  145.7920 C   0  0  1  0  0  3  0  0  0  0  0  0
  160.9010  207.5430  147.9340 C   0  0  0  0  0  2  0  0  0  0  0  0
  160.3740  200.7490  148.1840 N   0  0  0  0  0  0  0  0  0  0  0  0
  161.2480  202.7330  148.7600 C   0  0  0  0  0  0  0  0  0  0  0  0
  161.1670  202.0750  151.3970 C   0  0  0  0  0  3  0  0  0  0  0  0
  160.7400  201.5180  149.1600 C   0  0  0  0  0  0  0  0  0  0  0  0
  160.6300  201.5470  147.0230 C   0  0  0  0  0  0  0  0  0  0  0  0
  160.6990  201.1820  150.4730 N   0  0  0  0  0  0  0  0  0  0  0  0
  161.7330  203.6330  149.6490 N   0  0  0  0  0  0  0  0  0  0  0  0
  161.6930  203.3180  150.9780 C   0  0  0  0  0  3  0  0  0  0  0  0
  161.2170  202.8100  147.4490 C   0  0  0  0  0  0  0  0  0  0  0  0
  160.7430  201.0500  145.8370 N   0  0  0  0  0  2  0  0  0  0  0  0
  160.0520  206.1840  150.0390 C   0  0  0  0  0  1  0  0  0  0  0  0
  161.4250  206.8030  150.3340 C   0  0  2  0  0  0  0  0  0  0  0  0
  161.2840  207.9650  151.3080 C   0  0  0  0  0  0  0  0  0  0  0  0
  161.7360  210.2800  151.9150 C   0  0  0  0  0  3  0  0  0  0  0  0
  161.8100  209.2310  150.9950 C   0  0  0  0  0  3  0  0  0  0  0  0
  160.7180  207.7660  152.5780 C   0  0  0  0  0  3  0  0  0  0  0  0
  160.6430  208.8140  153.4980 C   0  0  0  0  0  3  0  0  0  0  0  0
  161.1540  210.0720  153.1690 C   0  0  0  0  0  0  0  0  0  0  0  0
  161.0540  211.1950  154.1400 C   0  0  0  0  0  2  0  0  0  0  0  0
  162.4700  210.7640  155.9390 C   0  0  0  0  0  1  0  0  0  0  0  0
  161.0920  210.6760  155.4970 N   0  0  0  0  0  2  0  0  0  0  0  0
  162.3080  205.8120  150.8320 O   0  0  0  0  0  0  0  0  0  0  0  0
  163.0430  206.3670  151.7810 O   0  0  0  0  0  1  0  0  0  0  0  0
  1  9  1  0  0  0  0
  1  4  1  0  0  0  0
  1  8  1  1  0  0  0
  2 22  1  1  0  0  0
  3  7  1  1  0  0  0
  4  8  1  1  0  0  0
  4  3  1  0  0  0  0
  5  3  1  0  0  0  0
  5 10  1  1  0  0  0
  7  2  1  0  0  0  0
  8 19  1  0  0  0  0
  9  6  1  6  0  0  0
  9  5  1  0  0  0  0
 10  2  1  0  0  0  0
 11 14  2  0  0  0  0
 12 14  1  0  0  0  0
 12 17  1  0  0  0  0
 14 16  1  0  0  0  0
 15 19  1  0  0  0  0
 15 11  1  0  0  0  0
 16 13  2  0  0  0  0
 17 18  2  0  0  0  0
 18 13  1  0  0  0  0
 19 12  2  0  0  0  0
 20 15  2  0  0  0  0
 22 21  1  6  0  0  0
 22 32  1  0  0  0  0
 22 23  1  0  0  0  0
 23 26  1  0  0  0  0
 24 28  2  0  0  0  0
 25 23  2  0  0  0  0
 25 24  1  0  0  0  0
 26 27  2  0  0  0  0
 28 27  1  0  0  0  0
 28 29  1  0  0  0  0
 29 31  1  0  0  0  0
 31 30  1  0  0  0  0
 32 33  1  0  0  0  0
M  END
>  <MODEL>
3

>  <REMARK>
 VINA RESULT:      -5.6      2.816      9.300
  Name = 
  6 active torsions:
  status: ('A' for Active; 'I' for Inactive)
    1  A    between atoms: C_1  and  C_32
    2  A    between atoms: C_3  and  C_32
    3  A    between atoms: C_19  and  C_27
    4  A    between atoms: C_19  and  N_31
    5  A    between atoms: N_22  and  C_29
    6  A    between atoms: O_24  and  C_32
                            x       y       z     vdW  Elec       q    Type
                         _______ _______ _______ _____ _____    ______ ____

>  <TORSDO>
F 6

$$$$
=
 OpenBabel11042422393D

 33 38  0  0  1  0  0  0  0  0999 V2000
  160.7660  213.9600  147.5110 C   0  0  1  0  0  3  0  0  0  0  0  0
  162.2830  210.2650  149.2760 C   0  0  1  0  0  3  0  0  0  0  0  0
  161.2920  211.7960  147.9060 C   0  0  1  0  0  3  0  0  0  0  0  0
  160.2460  212.6760  147.3480 C   0  0  1  0  0  3  0  0  0  0  0  0
  162.3720  212.3970  148.2570 C   0  0  1  0  0  3  0  0  0  0  0  0
  163.1160  214.4500  147.4060 O   0  0  0  0  0  1  0  0  0  0  0  0
  161.1760  210.5220  148.4120 O   0  0  0  0  0  0  0  0  0  0  0  0
  159.6830  213.5190  148.4490 N   0  0  0  0  0  0  0  0  0  0  0  0
  162.1420  213.8520  148.2060 C   0  0  1  0  0  3  0  0  0  0  0  0
  163.1070  211.5770  149.2560 C   0  0  0  0  0  2  0  0  0  0  0  0
  158.0990  214.1980  151.7540 N   0  0  0  0  0  0  0  0  0  0  0  0
  157.5520  213.8940  149.6000 C   0  0  0  0  0  0  0  0  0  0  0  0
  154.9400  214.4400  150.1210 C   0  0  0  0  0  3  0  0  0  0  0  0
  157.1410  214.1750  150.8820 C   0  0  0  0  0  0  0  0  0  0  0  0
  159.2550  213.8630  150.9790 C   0  0  0  0  0  0  0  0  0  0  0  0
  155.8400  214.4510  151.1490 N   0  0  0  0  0  0  0  0  0  0  0  0
  156.6880  213.8910  148.5560 N   0  0  0  0  0  0  0  0  0  0  0  0
  155.3710  214.1570  148.8040 C   0  0  0  0  0  3  0  0  0  0  0  0
  158.8520  213.7010  149.5890 C   0  0  0  0  0  0  0  0  0  0  0  0
  160.4610  214.1160  151.3660 N   0  0  0  0  0  2  0  0  0  0  0  0
  162.8780  210.3310  151.6920 C   0  0  0  0  0  1  0  0  0  0  0  0
  161.7960  209.9020  150.6910 C   0  0  2  0  0  0  0  0  0  0  0  0
  161.5890  208.3950  150.7500 C   0  0  0  0  0  0  0  0  0  0  0  0
  161.4880  206.3240  152.0280 C   0  0  0  0  0  3  0  0  0  0  0  0
  161.6150  207.7150  151.9800 C   0  0  0  0  0  3  0  0  0  0  0  0
  161.4710  207.6450  149.5680 C   0  0  0  0  0  3  0  0  0  0  0  0
  161.3440  206.2550  149.6150 C   0  0  0  0  0  3  0  0  0  0  0  0
  161.3540  205.5920  150.8450 C   0  0  0  0  0  0  0  0  0  0  0  0
  161.1960  204.1140  150.8960 C   0  0  0  0  0  2  0  0  0  0  0  0
  160.5930  202.1960  149.7190 C   0  0  0  0  0  1  0  0  0  0  0  0
  160.9160  203.6020  149.5660 N   0  0  0  0  0  2  0  0  0  0  0  0
  160.5910  210.6030  150.9480 O   0  0  0  0  0  0  0  0  0  0  0  0
  160.5670  210.9040  152.2350 O   0  0  0  0  0  1  0  0  0  0  0  0
  1  9  1  0  0  0  0
  1  8  1  1  0  0  0
  2 22  1  1  0  0  0
  3  5  1  0  0  0  0
  3  7  1  1  0  0  0
  4  1  1  0  0  0  0
  4  3  1  0  0  0  0
  4  8  1  1  0  0  0
  5 10  1  1  0  0  0
  7  2  1  0  0  0  0
  8 19  1  0  0  0  0
  9  6  1  6  0  0  0
  9  5  1  0  0  0  0
 10  2  1  0  0  0  0
 12 14  1  0  0  0  0
 13 16  2  0  0  0  0
 14 16  1  0  0  0  0
 14 11  2  0  0  0  0
 15 20  2  0  0  0  0
 15 11  1  0  0  0  0
 17 18  2  0  0  0  0
 17 12  1  0  0  0  0
 18 13  1  0  0  0  0
 19 12  2  0  0  0  0
 19 15  1  0  0  0  0
 22 23  1  0  0  0  0
 22 32  1  0  0  0  0
 22 21  1  1  0  0  0
 23 25  1  0  0  0  0
 25 24  2  0  0  0  0
 26 27  1  0  0  0  0
 26 23  2  0  0  0  0
 27 28  2  0  0  0  0
 28 29  1  0  0  0  0
 28 24  1  0  0  0  0
 31 30  1  0  0  0  0
 31 29  1  0  0  0  0
 32 33  1  0  0  0  0
M  END
>  <MODEL>
4

>  <REMARK>
 VINA RESULT:      -5.1      3.928      5.880
  Name = 
  6 active torsions:
  status: ('A' for Active; 'I' for Inactive)
    1  A    between atoms: C_1  and  C_32
    2  A    between atoms: C_3  and  C_32
    3  A    between atoms: C_19  and  C_27
    4  A    between atoms: C_19  and  N_31
    5  A    between atoms: N_22  and  C_29
    6  A    between atoms: O_24  and  C_32
                            x       y       z     vdW  Elec       q    Type
                         _______ _______ _______ _____ _____    ______ ____

>  <TORSDO>
F 6

$$$$
=
 OpenBabel11042422393D

 33 38  0  0  1  0  0  0  0  0999 V2000
  161.1050  213.6660  147.1150 C   0  0  1  0  0  3  0  0  0  0  0  0
  162.4410  210.2190  149.4390 C   0  0  1  0  0  3  0  0  0  0  0  0
  161.6840  211.5810  147.7740 C   0  0  1  0  0  3  0  0  0  0  0  0
  160.7340  212.3340  146.9310 C   0  0  1  0  0  3  0  0  0  0  0  0
  162.6070  212.2930  148.3160 C   0  0  1  0  0  3  0  0  0  0  0  0
  163.3730  214.3560  147.5090 O   0  0  0  0  0  1  0  0  0  0  0  0
  161.5490  210.3310  148.3310 O   0  0  0  0  0  0  0  0  0  0  0  0
  159.8700  213.1820  147.8120 N   0  0  0  0  0  0  0  0  0  0  0  0
  162.2880  213.7180  148.1090 C   0  0  1  0  0  3  0  0  0  0  0  0
  163.1490  211.5960  149.5120 C   0  0  0  0  0  2  0  0  0  0  0  0
  156.6890  213.1860  149.7540 N   0  0  0  0  0  0  0  0  0  0  0  0
  158.8570  213.7200  149.9770 C   0  0  0  0  0  0  0  0  0  0  0  0
  158.5060  214.3130  152.6070 C   0  0  0  0  0  3  0  0  0  0  0  0
  157.6110  213.6200  150.5550 C   0  0  0  0  0  0  0  0  0  0  0  0
  157.3840  213.0150  148.5150 C   0  0  0  0  0  0  0  0  0  0  0  0
  157.4290  213.9110  151.8660 N   0  0  0  0  0  0  0  0  0  0  0  0
  159.9460  214.0990  150.6880 N   0  0  0  0  0  0  0  0  0  0  0  0
  159.7830  214.4060  152.0090 C   0  0  0  0  0  3  0  0  0  0  0  0
  158.7870  213.3500  148.7180 C   0  0  0  0  0  0  0  0  0  0  0  0
  156.9400  212.2750  147.5540 N   0  0  0  0  0  2  0  0  0  0  0  0
  162.5590  210.2560  151.9250 C   0  0  0  0  0  1  0  0  0  0  0  0
  161.6680  209.8900  150.7300 C   0  0  2  0  0  0  0  0  0  0  0  0
  161.3640  208.3990  150.7330 C   0  0  0  0  0  0  0  0  0  0  0  0
  161.0610  206.3070  151.9450 C   0  0  0  0  0  3  0  0  0  0  0  0
  161.2780  207.6870  151.9440 C   0  0  0  0  0  3  0  0  0  0  0  0
  161.2660  207.6880  149.5260 C   0  0  0  0  0  3  0  0  0  0  0  0
  161.0490  206.3080  149.5260 C   0  0  0  0  0  3  0  0  0  0  0  0
  160.9480  205.6160  150.7350 C   0  0  0  0  0  0  0  0  0  0  0  0
  160.6950  204.1490  150.7350 C   0  0  0  0  0  2  0  0  0  0  0  0
  160.4430  202.2880  149.3570 C   0  0  0  0  0  1  0  0  0  0  0  0
  161.0940  203.5810  149.4590 N   0  0  0  0  0  2  0  0  0  0  0  0
  160.4810  210.6640  150.7540 O   0  0  0  0  0  0  0  0  0  0  0  0
  160.3170  211.1110  151.9870 O   0  0  0  0  0  1  0  0  0  0  0  0
  1  8  1  1  0  0  0
  1  9  1  0  0  0  0
  2 10  1  0  0  0  0
  2 22  1  1  0  0  0
  3  5  1  0  0  0  0
  3  7  1  1  0  0  0
  4  1  1  0  0  0  0
  4  3  1  0  0  0  0
  4  8  1  1  0  0  0
  5 10  1  1  0  0  0
  7  2  1  0  0  0  0
  8 19  1  0  0  0  0
  9  6  1  6  0  0  0
  9  5  1  0  0  0  0
 11 14  2  0  0  0  0
 12 14  1  0  0  0  0
 12 17  1  0  0  0  0
 14 16  1  0  0  0  0
 15 19  1  0  0  0  0
 15 11  1  0  0  0  0
 16 13  2  0  0  0  0
 17 18  2  0  0  0  0
 18 13  1  0  0  0  0
 19 12  2  0  0  0  0
 20 15  2  0  0  0  0
 22 23  1  0  0  0  0
 22 32  1  0  0  0  0
 22 21  1  1  0  0  0
 23 25  1  0  0  0  0
 25 24  2  0  0  0  0
 26 27  1  0  0  0  0
 26 23  2  0  0  0  0
 27 28  2  0  0  0  0
 28 29  1  0  0  0  0
 28 24  1  0  0  0  0
 30 31  1  0  0  0  0
 31 29  1  0  0  0  0
 32 33  1  0  0  0  0
M  END
>  <MODEL>
5

>  <REMARK>
 VINA RESULT:      -4.8      3.906      5.955
  Name = 
  6 active torsions:
  status: ('A' for Active; 'I' for Inactive)
    1  A    between atoms: C_1  and  C_32
    2  A    between atoms: C_3  and  C_32
    3  A    between atoms: C_19  and  C_27
    4  A    between atoms: C_19  and  N_31
    5  A    between atoms: N_22  and  C_29
    6  A    between atoms: O_24  and  C_32
                            x       y       z     vdW  Elec       q    Type
                         _______ _______ _______ _____ _____    ______ ____

>  <TORSDO>
F 6

$$$$
=
 OpenBabel11042422393D

 33 38  0  0  1  0  0  0  0  0999 V2000
  160.8490  208.5090  154.7810 C   0  0  1  0  0  3  0  0  0  0  0  0
  161.9760  206.1410  151.2890 C   0  0  1  0  0  3  0  0  0  0  0  0
  162.0140  207.3920  153.1960 C   0  0  1  0  0  3  0  0  0  0  0  0
  162.0420  208.5870  154.0630 C   0  0  1  0  0  3  0  0  0  0  0  0
  161.0280  206.5960  153.4070 C   0  0  1  0  0  3  0  0  0  0  0  0
  159.8310  206.4270  155.4150 O   0  0  0  0  0  1  0  0  0  0  0  0
  162.6630  207.1680  152.0050 O   0  0  0  0  0  0  0  0  0  0  0  0
  160.9280  209.5040  153.6630 N   0  0  0  0  0  0  0  0  0  0  0  0
  160.0740  207.2540  154.3190 C   0  0  1  0  0  3  0  0  0  0  0  0
  160.7810  205.7630  152.2000 C   0  0  0  0  0  2  0  0  0  0  0  0
  159.0810  212.2640  151.9690 N   0  0  0  0  0  0  0  0  0  0  0  0
  160.8400  210.9060  151.6550 C   0  0  0  0  0  0  0  0  0  0  0  0
  161.4950  212.1840  149.3460 C   0  0  0  0  0  3  0  0  0  0  0  0
  160.0700  211.9480  151.1920 C   0  0  0  0  0  0  0  0  0  0  0  0
  159.1860  211.3130  153.0340 C   0  0  0  0  0  0  0  0  0  0  0  0
  160.3920  212.5920  150.0440 N   0  0  0  0  0  0  0  0  0  0  0  0
  161.9470  210.4880  150.9960 N   0  0  0  0  0  0  0  0  0  0  0  0
  162.2850  211.1170  149.8310 C   0  0  0  0  0  3  0  0  0  0  0  0
  160.3520  210.4740  152.7960 C   0  0  0  0  0  0  0  0  0  0  0  0
  158.6290  211.4810  154.1870 N   0  0  0  0  0  2  0  0  0  0  0  0
  160.0840  207.1740  150.0450 C   0  0  0  0  0  1  0  0  0  0  0  0
  161.5200  206.6500  149.9090 C   0  0  2  0  0  0  0  0  0  0  0  0
  161.5680  205.4830  148.9340 C   0  0  0  0  0  0  0  0  0  0  0  0
  162.0860  204.5940  146.7260 C   0  0  0  0  0  3  0  0  0  0  0  0
  162.1000  205.6490  147.6420 C   0  0  0  0  0  3  0  0  0  0  0  0
  160.9880  204.2480  149.2700 C   0  0  0  0  0  3  0  0  0  0  0  0
  160.9740  203.1940  148.3540 C   0  0  0  0  0  3  0  0  0  0  0  0
  161.5220  203.3660  147.0800 C   0  0  0  0  0  0  0  0  0  0  0  0
  161.5270  202.2360  146.1120 C   0  0  0  0  0  2  0  0  0  0  0  0
  160.0840  200.9250  144.8360 C   0  0  0  0  0  1  0  0  0  0  0  0
  160.3230  202.2790  145.2990 N   0  0  0  0  0  2  0  0  0  0  0  0
  162.3840  207.7000  149.5080 O   0  0  0  0  0  0  0  0  0  0  0  0
  161.7970  208.3450  148.5130 O   0  0  0  0  0  1  0  0  0  0  0  0
  1  8  1  6  0  0  0
  2 22  1  6  0  0  0
  2  7  1  0  0  0  0
  2 10  1  0  0  0  0
  3  7  1  6  0  0  0
  3  5  1  0  0  0  0
  3  4  1  0  0  0  0
  4  8  1  6  0  0  0
  4  1  1  0  0  0  0
  5 10  1  6  0  0  0
  5  9  1  0  0  0  0
  9  1  1  0  0  0  0
  9  6  1  1  0  0  0
 11 15  1  0  0  0  0
 12 19  2  0  0  0  0
 13 18  1  0  0  0  0
 13 16  2  0  0  0  0
 14 12  1  0  0  0  0
 14 11  2  0  0  0  0
 15 20  2  0  0  0  0
 16 14  1  0  0  0  0
 17 12  1  0  0  0  0
 18 17  2  0  0  0  0
 19 15  1  0  0  0  0
 19  8  1  0  0  0  0
 22 21  1  1  0  0  0
 23 26  1  0  0  0  0
 23 22  1  0  0  0  0
 24 28  2  0  0  0  0
 24 25  1  0  0  0  0
 25 23  2  0  0  0  0
 27 26  2  0  0  0  0
 28 27  1  0  0  0  0
 29 28  1  0  0  0  0
 30 31  1  0  0  0  0
 31 29  1  0  0  0  0
 32 22  1  0  0  0  0
 33 32  1  0  0  0  0
M  END
>  <MODEL>
6

>  <REMARK>
 VINA RESULT:      -4.6      2.127      3.506
  Name = 
  6 active torsions:
  status: ('A' for Active; 'I' for Inactive)
    1  A    between atoms: C_1  and  C_32
    2  A    between atoms: C_3  and  C_32
    3  A    between atoms: C_19  and  C_27
    4  A    between atoms: C_19  and  N_31
    5  A    between atoms: N_22  and  C_29
    6  A    between atoms: O_24  and  C_32
                            x       y       z     vdW  Elec       q    Type
                         _______ _______ _______ _____ _____    ______ ____

>  <TORSDO>
F 6

$$$$
=
 OpenBabel11042422393D

 33 38  0  0  1  0  0  0  0  0999 V2000
  160.3100  209.4710  157.2610 C   0  0  1  0  0  3  0  0  0  0  0  0
  161.9380  208.7440  153.2740 C   0  0  1  0  0  3  0  0  0  0  0  0
  161.6760  209.3300  155.4620 C   0  0  1  0  0  3  0  0  0  0  0  0
  161.3520  210.1600  156.6400 C   0  0  1  0  0  3  0  0  0  0  0  0
  161.0390  208.2160  155.3970 C   0  0  1  0  0  3  0  0  0  0  0  0
  160.1130  207.0770  157.2240 O   0  0  0  0  0  1  0  0  0  0  0  0
  162.2790  209.6950  154.2820 O   0  0  0  0  0  0  0  0  0  0  0  0
  159.9670  210.7060  156.4840 N   0  0  0  0  0  0  0  0  0  0  0  0
  159.9830  208.2130  156.4250 C   0  0  1  0  0  3  0  0  0  0  0  0
  161.0100  207.7310  153.9910 C   0  0  0  0  0  2  0  0  0  0  0  0
  158.0960  213.4920  154.8620 N   0  0  0  0  0  0  0  0  0  0  0  0
  157.8320  211.3480  155.4670 C   0  0  0  0  0  0  0  0  0  0  0  0
  155.3710  211.2600  154.3130 C   0  0  0  0  0  3  0  0  0  0  0  0
  157.3050  212.4660  154.8620 C   0  0  0  0  0  0  0  0  0  0  0  0
  159.2470  213.0190  155.5690 C   0  0  0  0  0  0  0  0  0  0  0  0
  156.0800  212.4290  154.2820 N   0  0  0  0  0  0  0  0  0  0  0  0
  157.1620  210.1710  155.5010 N   0  0  0  0  0  0  0  0  0  0  0  0
  155.9230  210.1130  154.9310 C   0  0  0  0  0  3  0  0  0  0  0  0
  159.0360  211.6200  155.9170 C   0  0  0  0  0  0  0  0  0  0  0  0
  160.4040  213.5880  155.4950 N   0  0  0  0  0  2  0  0  0  0  0  0
  159.7880  209.7200  152.4880 C   0  0  0  0  0  1  0  0  0  0  0  0
  161.2420  209.4340  152.0870 C   0  0  2  0  0  0  0  0  0  0  0  0
  161.2860  208.4870  150.8960 C   0  0  0  0  0  0  0  0  0  0  0  0
  161.2010  206.2270  149.9880 C   0  0  0  0  0  3  0  0  0  0  0  0
  161.0980  207.1040  151.0720 C   0  0  0  0  0  3  0  0  0  0  0  0
  161.6160  208.9640  149.6170 C   0  0  0  0  0  3  0  0  0  0  0  0
  161.7190  208.0890  148.5330 C   0  0  0  0  0  3  0  0  0  0  0  0
  161.5130  206.7190  148.7180 C   0  0  0  0  0  0  0  0  0  0  0  0
  161.6010  205.7890  147.5600 C   0  0  0  0  0  2  0  0  0  0  0  0
  160.5060  206.2040  145.5460 C   0  0  0  0  0  1  0  0  0  0  0  0
  161.6810  206.5490  146.3240 N   0  0  0  0  0  2  0  0  0  0  0  0
  161.9180  210.6480  151.8100 O   0  0  0  0  0  0  0  0  0  0  0  0
  161.0030  211.5800  151.6030 O   0  0  0  0  0  1  0  0  0  0  0  0
  1  8  1  6  0  0  0
  2 22  1  6  0  0  0
  2 10  1  0  0  0  0
  2  7  1  0  0  0  0
  3  7  1  6  0  0  0
  3  4  1  0  0  0  0
  4  8  1  6  0  0  0
  4  1  1  0  0  0  0
  5 10  1  6  0  0  0
  5  3  1  0  0  0  0
  5  9  1  0  0  0  0
  9  6  1  1  0  0  0
  9  1  1  0  0  0  0
 11 14  2  0  0  0  0
 11 15  1  0  0  0  0
 12 17  1  0  0  0  0
 12 19  2  0  0  0  0
 13 18  1  0  0  0  0
 14 12  1  0  0  0  0
 15 19  1  0  0  0  0
 16 13  2  0  0  0  0
 16 14  1  0  0  0  0
 18 17  2  0  0  0  0
 19  8  1  0  0  0  0
 20 15  2  0  0  0  0
 22 21  1  1  0  0  0
 23 25  1  0  0  0  0
 23 22  1  0  0  0  0
 24 25  2  0  0  0  0
 26 23  2  0  0  0  0
 27 28  2  0  0  0  0
 27 26  1  0  0  0  0
 28 24  1  0  0  0  0
 29 28  1  0  0  0  0
 30 31  1  0  0  0  0
 31 29  1  0  0  0  0
 32 22  1  0  0  0  0
 33 32  1  0  0  0  0
M  END
>  <MODEL>
7

>  <REMARK>
 VINA RESULT:      -4.3      2.009      2.281
  Name = 
  6 active torsions:
  status: ('A' for Active; 'I' for Inactive)
    1  A    between atoms: C_1  and  C_32
    2  A    between atoms: C_3  and  C_32
    3  A    between atoms: C_19  and  C_27
    4  A    between atoms: C_19  and  N_31
    5  A    between atoms: N_22  and  C_29
    6  A    between atoms: O_24  and  C_32
                            x       y       z     vdW  Elec       q    Type
                         _______ _______ _______ _____ _____    ______ ____

>  <TORSDO>
F 6

$$$$
=
 OpenBabel11042422393D

 33 38  0  0  1  0  0  0  0  0999 V2000
  161.0330  208.1730  155.1650 C   0  0  1  0  0  3  0  0  0  0  0  0
  161.7710  205.3310  151.9320 C   0  0  1  0  0  3  0  0  0  0  0  0
  161.9840  206.6710  153.7650 C   0  0  1  0  0  3  0  0  0  0  0  0
  162.2590  207.8800  154.5670 C   0  0  1  0  0  3  0  0  0  0  0  0
  160.8070  206.1790  153.9170 C   0  0  1  0  0  3  0  0  0  0  0  0
  159.4460  206.4850  155.8010 O   0  0  0  0  0  1  0  0  0  0  0  0
  162.6460  206.1940  152.6580 O   0  0  0  0  0  0  0  0  0  0  0  0
  161.4690  209.0230  154.0100 N   0  0  0  0  0  0  0  0  0  0  0  0
  159.9920  207.1330  154.6930 C   0  0  1  0  0  3  0  0  0  0  0  0
  160.4470  205.3500  152.7370 C   0  0  0  0  0  2  0  0  0  0  0  0
  161.2480  211.2640  151.0390 N   0  0  0  0  0  0  0  0  0  0  0  0
  160.3000  210.9500  153.0480 C   0  0  0  0  0  0  0  0  0  0  0  0
  158.4750  212.9070  152.5630 C   0  0  0  0  0  3  0  0  0  0  0  0
  160.3310  211.6550  151.8670 C   0  0  0  0  0  0  0  0  0  0  0  0
  161.9150  210.2200  151.7580 C   0  0  0  0  0  0  0  0  0  0  0  0
  159.4230  212.6300  151.6160 N   0  0  0  0  0  0  0  0  0  0  0  0
  159.3650  211.1890  153.9990 N   0  0  0  0  0  0  0  0  0  0  0  0
  158.4450  212.1730  153.7710 C   0  0  0  0  0  3  0  0  0  0  0  0
  161.2480  210.0410  153.0400 C   0  0  0  0  0  0  0  0  0  0  0  0
  162.6510  209.3270  151.1840 N   0  0  0  0  0  2  0  0  0  0  0  0
  160.4280  206.8430  150.4810 C   0  0  0  0  0  1  0  0  0  0  0  0
  161.5850  205.8340  150.4880 C   0  0  2  0  0  0  0  0  0  0  0  0
  161.2490  204.6380  149.6090 C   0  0  0  0  0  0  0  0  0  0  0  0
  161.0270  202.2300  149.3110 C   0  0  0  0  0  3  0  0  0  0  0  0
  161.2730  203.3330  150.1330 C   0  0  0  0  0  3  0  0  0  0  0  0
  161.0120  204.8080  148.2350 C   0  0  0  0  0  3  0  0  0  0  0  0
  160.7660  203.7060  147.4120 C   0  0  0  0  0  3  0  0  0  0  0  0
  160.7740  202.4160  147.9490 C   0  0  0  0  0  0  0  0  0  0  0  0
  160.4900  201.2440  147.0770 C   0  0  0  0  0  2  0  0  0  0  0  0
  159.6040  201.8900  145.0220 C   0  0  0  0  0  1  0  0  0  0  0  0
  160.8410  201.5570  145.7030 N   0  0  0  0  0  2  0  0  0  0  0  0
  162.7830  206.4660  150.0720 O   0  0  0  0  0  0  0  0  0  0  0  0
  162.4720  207.3330  149.1230 O   0  0  0  0  0  1  0  0  0  0  0  0
  1  8  1  6  0  0  0
  2 22  1  6  0  0  0
  2  7  1  0  0  0  0
  2 10  1  0  0  0  0
  3  7  1  6  0  0  0
  3  5  1  0  0  0  0
  3  4  1  0  0  0  0
  4  8  1  6  0  0  0
  4  1  1  0  0  0  0
  5 10  1  6  0  0  0
  5  9  1  0  0  0  0
  9  1  1  0  0  0  0
  9  6  1  1  0  0  0
 11 15  1  0  0  0  0
 11 14  2  0  0  0  0
 12 17  1  0  0  0  0
 13 18  1  0  0  0  0
 14 12  1  0  0  0  0
 15 19  1  0  0  0  0
 16 14  1  0  0  0  0
 16 13  2  0  0  0  0
 18 17  2  0  0  0  0
 19 12  2  0  0  0  0
 19  8  1  0  0  0  0
 20 15  2  0  0  0  0
 22 21  1  6  0  0  0
 23 25  1  0  0  0  0
 23 22  1  0  0  0  0
 24 25  2  0  0  0  0
 26 23  2  0  0  0  0
 27 28  2  0  0  0  0
 27 26  1  0  0  0  0
 28 24  1  0  0  0  0
 29 28  1  0  0  0  0
 30 31  1  0  0  0  0
 31 29  1  0  0  0  0
 32 22  1  0  0  0  0
 33 32  1  0  0  0  0
M  END
>  <MODEL>
8

>  <REMARK>
 VINA RESULT:      -4.2      1.844      2.609
  Name = 
  6 active torsions:
  status: ('A' for Active; 'I' for Inactive)
    1  A    between atoms: C_1  and  C_32
    2  A    between atoms: C_3  and  C_32
    3  A    between atoms: C_19  and  C_27
    4  A    between atoms: C_19  and  N_31
    5  A    between atoms: N_22  and  C_29
    6  A    between atoms: O_24  and  C_32
                            x       y       z     vdW  Elec       q    Type
                         _______ _______ _______ _____ _____    ______ ____

>  <TORSDO>
F 6

$$$$
=
 OpenBabel11042422393D

 33 38  0  0  1  0  0  0  0  0999 V2000
  161.7570  208.9360  152.7140 C   0  0  1  0  0  3  0  0  0  0  0  0
  161.8410  205.5500  149.9560 C   0  0  1  0  0  3  0  0  0  0  0  0
  162.3960  207.1420  151.4920 C   0  0  1  0  0  3  0  0  0  0  0  0
  162.8660  208.4330  152.0350 C   0  0  1  0  0  3  0  0  0  0  0  0
  161.2150  206.7990  151.8650 C   0  0  1  0  0  3  0  0  0  0  0  0
  160.1440  207.5360  153.8150 O   0  0  0  0  0  1  0  0  0  0  0  0
  162.8670  206.4310  150.4140 O   0  0  0  0  0  0  0  0  0  0  0  0
  162.0990  209.5410  151.3860 N   0  0  0  0  0  0  0  0  0  0  0  0
  160.5860  207.9400  152.5550 C   0  0  1  0  0  3  0  0  0  0  0  0
  160.6400  205.8280  150.8960 C   0  0  0  0  0  2  0  0  0  0  0  0
  161.5410  211.2420  148.1160 N   0  0  0  0  0  0  0  0  0  0  0  0
  161.1040  211.5010  150.3010 C   0  0  0  0  0  0  0  0  0  0  0  0
  159.6160  213.7220  149.8050 C   0  0  0  0  0  3  0  0  0  0  0  0
  160.9590  211.9710  149.0160 C   0  0  0  0  0  0  0  0  0  0  0  0
  162.1630  210.2060  148.8850 C   0  0  0  0  0  0  0  0  0  0  0  0
  160.2170  213.0750  148.7610 N   0  0  0  0  0  0  0  0  0  0  0  0
  160.5090  212.1090  151.3560 N   0  0  0  0  0  0  0  0  0  0  0  0
  159.7630  213.2290  151.1220 C   0  0  0  0  0  3  0  0  0  0  0  0
  161.8290  210.4050  150.2880 C   0  0  0  0  0  0  0  0  0  0  0  0
  162.5440  209.0820  148.3750 N   0  0  0  0  0  2  0  0  0  0  0  0
  160.1860  206.6170  148.4330 C   0  0  0  0  0  1  0  0  0  0  0  0
  161.5030  205.8290  148.4800 C   0  0  2  0  0  0  0  0  0  0  0  0
  161.3450  204.4930  147.7690 C   0  0  0  0  0  0  0  0  0  0  0  0
  161.1110  203.2070  145.7130 C   0  0  0  0  0  3  0  0  0  0  0  0
  161.3190  204.4260  146.3640 C   0  0  0  0  0  3  0  0  0  0  0  0
  161.1200  203.3170  148.5040 C   0  0  0  0  0  3  0  0  0  0  0  0
  160.9120  202.0980  147.8530 C   0  0  0  0  0  3  0  0  0  0  0  0
  160.9060  202.0420  146.4570 C   0  0  0  0  0  0  0  0  0  0  0  0
  160.7060  200.7410  145.7640 C   0  0  0  0  0  2  0  0  0  0  0  0
  161.3880  198.5180  145.6100 C   0  0  0  0  0  1  0  0  0  0  0  0
  161.4500  199.6990  146.4510 N   0  0  0  0  0  2  0  0  0  0  0  0
  162.5500  206.5990  147.9150 O   0  0  0  0  0  0  0  0  0  0  0  0
  162.3720  206.6200  146.6040 O   0  0  0  0  0  1  0  0  0  0  0  0
  1  8  1  6  0  0  0
  2 22  1  6  0  0  0
  2  7  1  0  0  0  0
  2 10  1  0  0  0  0
  3  7  1  6  0  0  0
  3  5  1  0  0  0  0
  3  4  1  0  0  0  0
  4  8  1  6  0  0  0
  4  1  1  0  0  0  0
  5 10  1  6  0  0  0
  5  9  1  0  0  0  0
  9  1  1  0  0  0  0
  9  6  1  1  0  0  0
 11 15  1  0  0  0  0
 11 14  2  0  0  0  0
 12 17  1  0  0  0  0
 13 18  1  0  0  0  0
 14 12  1  0  0  0  0
 15 19  1  0  0  0  0
 16 14  1  0  0  0  0
 16 13  2  0  0  0  0
 18 17  2  0  0  0  0
 19 12  2  0  0  0  0
 19  8  1  0  0  0  0
 20 15  2  0  0  0  0
 22 21  1  6  0  0  0
 23 22  1  0  0  0  0
 23 26  1  0  0  0  0
 24 25  1  0  0  0  0
 24 28  2  0  0  0  0
 25 23  2  0  0  0  0
 27 26  2  0  0  0  0
 28 27  1  0  0  0  0
 29 31  1  0  0  0  0
 29 28  1  0  0  0  0
 30 31  1  0  0  0  0
 32 22  1  0  0  0  0
 33 32  1  0  0  0  0
M  END
>  <MODEL>
9

>  <REMARK>
 VINA RESULT:      -4.1      3.160      4.586
  Name = 
  6 active torsions:
  status: ('A' for Active; 'I' for Inactive)
    1  A    between atoms: C_1  and  C_32
    2  A    between atoms: C_3  and  C_32
    3  A    between atoms: C_19  and  C_27
    4  A    between atoms: C_19  and  N_31
    5  A    between atoms: N_22  and  C_29
    6  A    between atoms: O_24  and  C_32
                            x       y       z     vdW  Elec       q    Type
                         _______ _______ _______ _____ _____    ______ ____

>  <TORSDO>
F 6

$$$$
