=
 OpenBabel11042420283D

 31 34  0  0  1  0  0  0  0  0999 V2000
  159.0300  210.5020  156.6860 N   0  0  0  0  0  0  0  0  0  0  0  0
  160.2090  209.8410  153.9020 C   0  0  0  0  0  0  0  0  0  0  0  0
  160.5710  209.8460  152.5520 C   0  0  0  0  0  3  0  0  0  0  0  0
  161.4330  207.5910  152.7170 C   0  0  0  0  0  0  0  0  0  0  0  0
  158.6440  210.9780  155.5450 C   0  0  0  0  0  3  0  0  0  0  0  0
  161.1280  207.6010  154.0850 C   0  0  0  0  0  3  0  0  0  0  0  0
  160.5750  208.7230  154.7030 C   0  0  0  0  0  0  0  0  0  0  0  0
  160.3210  209.8800  156.9150 C   0  0  0  0  0  2  0  0  0  0  0  0
  161.2110  208.7540  151.9490 C   0  0  0  0  0  0  0  0  0  0  0  0
  159.3800  210.8280  154.2750 C   0  0  0  0  0  2  0  0  0  0  0  0
  160.5440  208.6940  156.0370 C   0  0  0  0  0  2  0  0  0  0  0  0
  161.9550  206.4070  152.1050 N   0  0  0  0  0  0  0  0  0  0  0  0
  161.2340  205.3770  151.9060 N   0  0  0  0  0  0  0  0  0  0  0  0
  161.2430  202.9590  151.9560 C   0  0  0  0  0  3  0  0  0  0  0  0
  160.2370  202.1910  149.8810 C   0  0  0  0  0  0  0  0  0  0  0  0
  161.5530  204.2320  149.7840 C   0  0  0  0  0  3  0  0  0  0  0  0
  161.7950  204.1920  151.2770 C   0  0  1  0  0  3  0  0  0  0  0  0
  159.5230  201.3450  149.2830 O   0  0  0  0  0  0  0  0  0  0  0  0
  160.5120  202.0450  151.3140 C   0  0  0  0  0  3  0  0  0  0  0  0
  160.8230  203.3140  149.1430 C   0  0  0  0  0  3  0  0  0  0  0  0
  161.5650  208.8230  150.5520 N   0  0  0  0  0  0  0  0  0  0  0  0
  162.1860  210.0120  149.9900 C   0  0  0  0  0  1  0  0  0  0  0  0
  161.1040  207.8100  149.6130 C   0  0  0  0  0  2  0  0  0  0  0  0
  162.0400  207.7400  148.4200 C   0  0  0  0  0  2  0  0  0  0  0  0
  161.5050  206.7850  147.4150 C   0  0  0  0  0  0  0  0  0  0  0  0
  160.2730  206.5240  147.4020 O   0  0  0  0  0  0  0  0  0  0  0  0
  162.3700  206.2110  146.4820 O   0  0  0  0  0  0  0  0  0  0  0  0
  162.6970  204.8280  146.4910 C   0  0  0  0  0  2  0  0  0  0  0  0
  160.8090  204.4490  144.9510 C   0  0  0  0  0  2  0  0  0  0  0  0
  162.2810  204.1830  145.1810 C   0  0  0  0  0  3  0  0  0  0  0  0
  161.2610  203.1020  145.4670 C   0  0  0  0  0  2  0  0  0  0  0  0
  1  8  1  0  0  0  0
  2 10  1  0  0  0  0
  2  7  1  0  0  0  0
  3  2  2  0  0  0  0
  4  6  1  0  0  0  0
  5  1  2  0  0  0  0
  6  7  2  0  0  0  0
  7 11  1  0  0  0  0
  9  3  1  0  0  0  0
  9  4  2  0  0  0  0
 10  5  1  0  0  0  0
 11  8  1  0  0  0  0
 12  4  1  0  0  0  0
 13 12  2  0  0  0  0
 15 19  1  0  0  0  0
 16 17  1  0  0  0  0
 17 13  1  1  0  0  0
 17 14  1  0  0  0  0
 18 15  2  0  0  0  0
 19 14  2  0  0  0  0
 20 16  2  0  0  0  0
 20 15  1  0  0  0  0
 21  9  1  0  0  0  0
 22 21  1  0  0  0  0
 23 21  1  0  0  0  0
 24 23  1  0  0  0  0
 25 24  1  0  0  0  0
 26 25  2  0  0  0  0
 27 28  1  0  0  0  0
 27 25  1  0  0  0  0
 29 30  1  0  0  0  0
 29 31  1  0  0  0  0
 30 31  1  0  0  0  0
 30 28  1  0  0  0  0
M  END
>  <MODEL>
1

>  <REMARK>
 VINA RESULT:      -7.8      0.000      0.000
  Name = 
  9 active torsions:
  status: ('A' for Active; 'I' for Inactive)
    1  A    between atoms: C_1  and  C_7
    2  A    between atoms: C_1  and  N_9
    3  A    between atoms: C_7  and  C_11
    4  A    between atoms: N_8  and  C_12
    5  A    between atoms: N_9  and  C_23
    6  A    between atoms: C_11  and  O_30
    7  A    between atoms: C_15  and  N_17
    8  A    between atoms: C_16  and  C_24
    9  A    between atoms: C_24  and  O_30
                            x       y       z     vdW  Elec       q    Type
                         _______ _______ _______ _____ _____    ______ ____

>  <TORSDO>
F 9

$$$$
=
 OpenBabel11042420283D

 31 34  0  0  1  0  0  0  0  0999 V2000
  161.1660  202.9170  148.5880 N   0  0  0  0  0  0  0  0  0  0  0  0
  161.1190  205.6980  149.9450 C   0  0  0  0  0  0  0  0  0  0  0  0
  161.1470  207.0680  150.2200 C   0  0  0  0  0  3  0  0  0  0  0  0
  161.2690  206.6450  152.5990 C   0  0  0  0  0  0  0  0  0  0  0  0
  161.6040  204.0310  148.0940 C   0  0  0  0  0  3  0  0  0  0  0  0
  161.1790  205.2720  152.3350 C   0  0  0  0  0  3  0  0  0  0  0  0
  161.0480  204.7850  151.0350 C   0  0  0  0  0  0  0  0  0  0  0  0
  160.2290  202.8280  149.6930 C   0  0  0  0  0  2  0  0  0  0  0  0
  161.1860  207.5630  151.5310 C   0  0  0  0  0  0  0  0  0  0  0  0
  161.3470  205.3670  148.6640 C   0  0  0  0  0  2  0  0  0  0  0  0
  160.7430  203.4890  150.9280 C   0  0  0  0  0  2  0  0  0  0  0  0
  161.4520  207.1090  153.9410 N   0  0  0  0  0  0  0  0  0  0  0  0
  160.4830  207.1980  154.7620 N   0  0  0  0  0  0  0  0  0  0  0  0
  162.0950  208.2550  156.2220 C   0  0  0  0  0  3  0  0  0  0  0  0
  161.1980  210.4300  156.8320 C   0  0  0  0  0  0  0  0  0  0  0  0
  159.6030  208.6220  156.5260 C   0  0  0  0  0  3  0  0  0  0  0  0
  160.7050  207.6680  156.1200 C   0  0  1  0  0  3  0  0  0  0  0  0
  161.4090  211.6420  157.0980 O   0  0  0  0  0  0  0  0  0  0  0  0
  162.3200  209.5330  156.5360 C   0  0  0  0  0  3  0  0  0  0  0  0
  159.8310  209.9000  156.8420 C   0  0  0  0  0  3  0  0  0  0  0  0
  161.2080  208.9900  151.7490 N   0  0  0  0  0  0  0  0  0  0  0  0
  162.3880  209.7810  151.4390 C   0  0  0  0  0  1  0  0  0  0  0  0
  160.1480  209.6470  152.5010 C   0  0  0  0  0  2  0  0  0  0  0  0
  160.7310  210.7480  153.3690 C   0  0  0  0  0  2  0  0  0  0  0  0
  159.8870  211.9670  153.2700 C   0  0  0  0  0  0  0  0  0  0  0  0
  159.3550  212.2650  152.1690 O   0  0  0  0  0  0  0  0  0  0  0  0
  159.6740  212.7500  154.4060 O   0  0  0  0  0  0  0  0  0  0  0  0
  158.3850  212.9410  154.9730 C   0  0  0  0  0  2  0  0  0  0  0  0
  156.0870  212.0880  154.6990 C   0  0  0  0  0  2  0  0  0  0  0  0
  157.5440  211.6890  154.7960 C   0  0  0  0  0  3  0  0  0  0  0  0
  156.6330  211.5350  155.9950 C   0  0  0  0  0  2  0  0  0  0  0  0
  1  8  1  0  0  0  0
  2  3  2  0  0  0  0
  2  7  1  0  0  0  0
  3  9  1  0  0  0  0
  4 12  1  0  0  0  0
  5  1  2  0  0  0  0
  5 10  1  0  0  0  0
  6  4  1  0  0  0  0
  7  6  2  0  0  0  0
  8 11  1  0  0  0  0
  9 21  1  0  0  0  0
  9  4  2  0  0  0  0
 10  2  1  0  0  0  0
 11  7  1  0  0  0  0
 12 13  2  0  0  0  0
 14 19  2  0  0  0  0
 15 20  1  0  0  0  0
 15 18  2  0  0  0  0
 16 20  2  0  0  0  0
 17 13  1  6  0  0  0
 17 14  1  0  0  0  0
 17 16  1  0  0  0  0
 19 15  1  0  0  0  0
 21 23  1  0  0  0  0
 22 21  1  0  0  0  0
 23 24  1  0  0  0  0
 25 24  1  0  0  0  0
 25 27  1  0  0  0  0
 26 25  2  0  0  0  0
 27 28  1  0  0  0  0
 29 30  1  0  0  0  0
 29 31  1  0  0  0  0
 30 28  1  0  0  0  0
 30 31  1  0  0  0  0
M  END
>  <MODEL>
2

>  <REMARK>
 VINA RESULT:      -7.7      3.407      8.397
  Name = 
  9 active torsions:
  status: ('A' for Active; 'I' for Inactive)
    1  A    between atoms: C_1  and  C_7
    2  A    between atoms: C_1  and  N_9
    3  A    between atoms: C_7  and  C_11
    4  A    between atoms: N_8  and  C_12
    5  A    between atoms: N_9  and  C_23
    6  A    between atoms: C_11  and  O_30
    7  A    between atoms: C_15  and  N_17
    8  A    between atoms: C_16  and  C_24
    9  A    between atoms: C_24  and  O_30
                            x       y       z     vdW  Elec       q    Type
                         _______ _______ _______ _____ _____    ______ ____

>  <TORSDO>
F 9

$$$$
=
 OpenBabel11042420283D

 31 34  0  0  1  0  0  0  0  0999 V2000
  161.1400  202.7550  148.6700 N   0  0  0  0  0  0  0  0  0  0  0  0
  161.1460  205.5280  150.0440 C   0  0  0  0  0  0  0  0  0  0  0  0
  161.2020  206.8950  150.3280 C   0  0  0  0  0  3  0  0  0  0  0  0
  161.2980  206.4560  152.7050 C   0  0  0  0  0  0  0  0  0  0  0  0
  161.6060  203.8620  148.1860 C   0  0  0  0  0  3  0  0  0  0  0  0
  161.1800  205.0860  152.4320 C   0  0  0  0  0  3  0  0  0  0  0  0
  161.0470  204.6100  151.1270 C   0  0  0  0  0  0  0  0  0  0  0  0
  160.1940  202.6800  149.7690 C   0  0  0  0  0  2  0  0  0  0  0  0
  161.2430  207.3820  151.6420 C   0  0  0  0  0  0  0  0  0  0  0  0
  161.3750  205.2000  148.7630 C   0  0  0  0  0  2  0  0  0  0  0  0
  160.7140  203.3220  151.0110 C   0  0  0  0  0  2  0  0  0  0  0  0
  161.4820  206.9070  154.0510 N   0  0  0  0  0  0  0  0  0  0  0  0
  160.5010  207.2430  154.7900 N   0  0  0  0  0  0  0  0  0  0  0  0
  162.1250  208.2480  156.2740 C   0  0  0  0  0  3  0  0  0  0  0  0
  161.2700  210.4350  156.9030 C   0  0  0  0  0  0  0  0  0  0  0  0
  159.6390  208.6650  156.5650 C   0  0  0  0  0  3  0  0  0  0  0  0
  160.7240  207.6920  156.1540 C   0  0  1  0  0  3  0  0  0  0  0  0
  161.5050  211.6380  157.1850 O   0  0  0  0  0  0  0  0  0  0  0  0
  162.3740  209.5170  156.6050 C   0  0  0  0  0  3  0  0  0  0  0  0
  159.8920  209.9340  156.8980 C   0  0  0  0  0  3  0  0  0  0  0  0
  161.2950  208.8060  151.8690 N   0  0  0  0  0  0  0  0  0  0  0  0
  160.1530  209.5240  152.4130 C   0  0  0  0  0  1  0  0  0  0  0  0
  162.3930  209.6080  151.3470 C   0  0  0  0  0  2  0  0  0  0  0  0
  161.8490  210.8190  150.6100 C   0  0  0  0  0  2  0  0  0  0  0  0
  162.1040  210.6780  149.1530 C   0  0  0  0  0  0  0  0  0  0  0  0
  162.1690  209.5290  148.6430 O   0  0  0  0  0  0  0  0  0  0  0  0
  162.2420  211.8220  148.3650 O   0  0  0  0  0  0  0  0  0  0  0  0
  161.1890  212.3210  147.5510 C   0  0  0  0  0  2  0  0  0  0  0  0
  162.2770  214.4530  146.9590 C   0  0  0  0  0  2  0  0  0  0  0  0
  161.7560  213.1430  146.4070 C   0  0  0  0  0  3  0  0  0  0  0  0
  160.9390  214.4090  146.2590 C   0  0  0  0  0  2  0  0  0  0  0  0
  1  8  1  0  0  0  0
  2  3  2  0  0  0  0
  2  7  1  0  0  0  0
  3  9  1  0  0  0  0
  4 12  1  0  0  0  0
  5  1  2  0  0  0  0
  5 10  1  0  0  0  0
  6  4  1  0  0  0  0
  7  6  2  0  0  0  0
  8 11  1  0  0  0  0
  9 21  1  0  0  0  0
  9  4  2  0  0  0  0
 10  2  1  0  0  0  0
 11  7  1  0  0  0  0
 12 13  2  0  0  0  0
 14 19  2  0  0  0  0
 15 18  2  0  0  0  0
 16 20  2  0  0  0  0
 17 13  1  6  0  0  0
 17 14  1  0  0  0  0
 17 16  1  0  0  0  0
 19 15  1  0  0  0  0
 20 15  1  0  0  0  0
 21 22  1  0  0  0  0
 23 21  1  0  0  0  0
 24 23  1  0  0  0  0
 25 24  1  0  0  0  0
 26 25  2  0  0  0  0
 27 25  1  0  0  0  0
 28 27  1  0  0  0  0
 30 29  1  0  0  0  0
 30 28  1  0  0  0  0
 31 30  1  0  0  0  0
 31 29  1  0  0  0  0
M  END
>  <MODEL>
3

>  <REMARK>
 VINA RESULT:      -7.3      3.275      7.379
  Name = 
  9 active torsions:
  status: ('A' for Active; 'I' for Inactive)
    1  A    between atoms: C_1  and  C_7
    2  A    between atoms: C_1  and  N_9
    3  A    between atoms: C_7  and  C_11
    4  A    between atoms: N_8  and  C_12
    5  A    between atoms: N_9  and  C_23
    6  A    between atoms: C_11  and  O_30
    7  A    between atoms: C_15  and  N_17
    8  A    between atoms: C_16  and  C_24
    9  A    between atoms: C_24  and  O_30
                            x       y       z     vdW  Elec       q    Type
                         _______ _______ _______ _____ _____    ______ ____

>  <TORSDO>
F 9

$$$$
=
 OpenBabel11042420283D

 31 34  0  0  1  0  0  0  0  0999 V2000
  161.4980  203.6500  147.2560 N   0  0  0  0  0  0  0  0  0  0  0  0
  161.5340  205.8460  149.4360 C   0  0  0  0  0  0  0  0  0  0  0  0
  161.4420  206.5660  150.6300 C   0  0  0  0  0  3  0  0  0  0  0  0
  161.7170  208.6620  149.4540 C   0  0  0  0  0  0  0  0  0  0  0  0
  160.9040  203.6140  148.4060 C   0  0  0  0  0  3  0  0  0  0  0  0
  161.8720  207.9440  148.2600 C   0  0  0  0  0  3  0  0  0  0  0  0
  161.8410  206.5490  148.2370 C   0  0  0  0  0  0  0  0  0  0  0  0
  162.5960  204.5420  146.9330 C   0  0  0  0  0  2  0  0  0  0  0  0
  161.5640  207.9620  150.6690 C   0  0  0  0  0  0  0  0  0  0  0  0
  161.1400  204.5650  149.5090 C   0  0  0  0  0  2  0  0  0  0  0  0
  162.2260  205.9790  147.0930 C   0  0  0  0  0  2  0  0  0  0  0  0
  161.7050  210.0940  149.4350 N   0  0  0  0  0  0  0  0  0  0  0  0
  162.2290  210.7600  148.4850 N   0  0  0  0  0  0  0  0  0  0  0  0
  162.0800  212.7180  147.0750 C   0  0  0  0  0  3  0  0  0  0  0  0
  159.9600  213.8010  147.5660 C   0  0  0  0  0  0  0  0  0  0  0  0
  161.0950  212.7010  149.4120 C   0  0  0  0  0  3  0  0  0  0  0  0
  162.1950  212.2130  148.4950 C   0  0  1  0  0  3  0  0  0  0  0  0
  158.9670  214.4530  147.1520 O   0  0  0  0  0  0  0  0  0  0  0  0
  161.0420  213.4380  146.6440 C   0  0  0  0  0  3  0  0  0  0  0  0
  160.0580  213.4230  148.9790 C   0  0  0  0  0  3  0  0  0  0  0  0
  161.4650  208.6470  151.9350 N   0  0  0  0  0  0  0  0  0  0  0  0
  162.2620  209.8320  152.2150 C   0  0  0  0  0  1  0  0  0  0  0  0
  160.7500  208.0500  153.0550 C   0  0  0  0  0  2  0  0  0  0  0  0
  161.2070  208.6780  154.3590 C   0  0  0  0  0  2  0  0  0  0  0  0
  160.0850  208.6870  155.3340 C   0  0  0  0  0  0  0  0  0  0  0  0
  159.7720  207.6230  155.9280 O   0  0  0  0  0  0  0  0  0  0  0  0
  159.4120  209.8820  155.5970 O   0  0  0  0  0  0  0  0  0  0  0  0
  159.8110  211.1240  155.0330 C   0  0  0  0  0  2  0  0  0  0  0  0
  158.9460  211.3650  152.7360 C   0  0  0  0  0  2  0  0  0  0  0  0
  158.6880  211.7010  154.1890 C   0  0  0  0  0  3  0  0  0  0  0  0
  159.2590  212.7490  153.2580 C   0  0  0  0  0  2  0  0  0  0  0  0
  1  5  2  0  0  0  0
  2 10  1  0  0  0  0
  2  3  1  0  0  0  0
  3  9  2  0  0  0  0
  4  9  1  0  0  0  0
  5 10  1  0  0  0  0
  6  4  2  0  0  0  0
  7  6  1  0  0  0  0
  7  2  2  0  0  0  0
  8 11  1  0  0  0  0
  8  1  1  0  0  0  0
  9 21  1  0  0  0  0
 11  7  1  0  0  0  0
 12  4  1  0  0  0  0
 13 12  2  0  0  0  0
 14 17  1  0  0  0  0
 15 20  1  0  0  0  0
 17 13  1  6  0  0  0
 17 16  1  0  0  0  0
 18 15  2  0  0  0  0
 19 14  2  0  0  0  0
 19 15  1  0  0  0  0
 20 16  2  0  0  0  0
 21 22  1  0  0  0  0
 21 23  1  0  0  0  0
 23 24  1  0  0  0  0
 24 25  1  0  0  0  0
 25 27  1  0  0  0  0
 25 26  2  0  0  0  0
 28 27  1  0  0  0  0
 29 31  1  0  0  0  0
 29 30  1  0  0  0  0
 30 28  1  0  0  0  0
 31 30  1  0  0  0  0
M  END
>  <MODEL>
4

>  <REMARK>
 VINA RESULT:      -7.1      3.499      8.860
  Name = 
  9 active torsions:
  status: ('A' for Active; 'I' for Inactive)
    1  A    between atoms: C_1  and  C_7
    2  A    between atoms: C_1  and  N_9
    3  A    between atoms: C_7  and  C_11
    4  A    between atoms: N_8  and  C_12
    5  A    between atoms: N_9  and  C_23
    6  A    between atoms: C_11  and  O_30
    7  A    between atoms: C_15  and  N_17
    8  A    between atoms: C_16  and  C_24
    9  A    between atoms: C_24  and  O_30
                            x       y       z     vdW  Elec       q    Type
                         _______ _______ _______ _____ _____    ______ ____

>  <TORSDO>
F 9

$$$$
=
 OpenBabel11042420283D

 31 34  0  0  1  0  0  0  0  0999 V2000
  161.1620  202.8320  149.0390 N   0  0  0  0  0  0  0  0  0  0  0  0
  161.0900  205.7140  150.1630 C   0  0  0  0  0  0  0  0  0  0  0  0
  161.0590  207.1020  150.3200 C   0  0  0  0  0  3  0  0  0  0  0  0
  161.4870  206.8990  152.6920 C   0  0  0  0  0  0  0  0  0  0  0  0
  161.4640  203.9200  148.4070 C   0  0  0  0  0  3  0  0  0  0  0  0
  161.4580  205.5050  152.5540 C   0  0  0  0  0  3  0  0  0  0  0  0
  161.2080  204.8980  151.3230 C   0  0  0  0  0  0  0  0  0  0  0  0
  160.3690  202.7870  150.2550 C   0  0  0  0  0  2  0  0  0  0  0  0
  161.2180  207.7130  151.5720 C   0  0  0  0  0  0  0  0  0  0  0  0
  161.1870  205.2850  148.8940 C   0  0  0  0  0  2  0  0  0  0  0  0
  160.9800  203.5830  151.3600 C   0  0  0  0  0  2  0  0  0  0  0  0
  161.7950  207.4890  153.9600 N   0  0  0  0  0  0  0  0  0  0  0  0
  160.8870  207.8190  154.7890 N   0  0  0  0  0  0  0  0  0  0  0  0
  162.2980  209.4650  155.8590 C   0  0  0  0  0  3  0  0  0  0  0  0
  160.8420  211.1990  156.7410 C   0  0  0  0  0  0  0  0  0  0  0  0
  159.9910  208.9240  156.7620 C   0  0  0  0  0  3  0  0  0  0  0  0
  161.2350  208.4110  156.0700 C   0  0  1  0  0  3  0  0  0  0  0  0
  160.6540  212.4180  156.9920 O   0  0  0  0  0  0  0  0  0  0  0  0
  162.1100  210.7530  156.1550 C   0  0  0  0  0  3  0  0  0  0  0  0
  159.8060  210.2130  157.0590 C   0  0  0  0  0  3  0  0  0  0  0  0
  161.1700  209.1520  151.6700 N   0  0  0  0  0  0  0  0  0  0  0  0
  162.2980  209.9730  151.2560 C   0  0  0  0  0  1  0  0  0  0  0  0
  160.0990  209.8170  152.3990 C   0  0  0  0  0  2  0  0  0  0  0  0
  160.4720  211.2630  152.6690 C   0  0  0  0  0  2  0  0  0  0  0  0
  159.2950  212.1390  152.4330 C   0  0  0  0  0  0  0  0  0  0  0  0
  158.4630  212.3220  153.3590 O   0  0  0  0  0  0  0  0  0  0  0  0
  159.1440  212.7690  151.1960 O   0  0  0  0  0  0  0  0  0  0  0  0
  159.8730  213.9340  150.8360 C   0  0  0  0  0  2  0  0  0  0  0  0
  161.0280  212.9600  148.8870 C   0  0  0  0  0  2  0  0  0  0  0  0
  160.0300  214.0090  149.3280 C   0  0  0  0  0  3  0  0  0  0  0  0
  161.4540  214.4050  149.0000 C   0  0  0  0  0  2  0  0  0  0  0  0
  1  8  1  0  0  0  0
  2  3  2  0  0  0  0
  2  7  1  0  0  0  0
  3  9  1  0  0  0  0
  4 12  1  0  0  0  0
  5 10  1  0  0  0  0
  5  1  2  0  0  0  0
  6  4  1  0  0  0  0
  7 11  1  0  0  0  0
  7  6  2  0  0  0  0
  8 11  1  0  0  0  0
  9 21  1  0  0  0  0
  9  4  2  0  0  0  0
 10  2  1  0  0  0  0
 12 13  2  0  0  0  0
 14 17  1  0  0  0  0
 14 19  2  0  0  0  0
 15 18  2  0  0  0  0
 15 20  1  0  0  0  0
 16 20  2  0  0  0  0
 17 13  1  6  0  0  0
 17 16  1  0  0  0  0
 19 15  1  0  0  0  0
 21 23  1  0  0  0  0
 22 21  1  0  0  0  0
 23 24  1  0  0  0  0
 25 24  1  0  0  0  0
 25 26  2  0  0  0  0
 27 25  1  0  0  0  0
 28 27  1  0  0  0  0
 29 31  1  0  0  0  0
 29 30  1  0  0  0  0
 30 28  1  0  0  0  0
 31 30  1  0  0  0  0
M  END
>  <MODEL>
5

>  <REMARK>
 VINA RESULT:      -7.1      3.564      7.922
  Name = 
  9 active torsions:
  status: ('A' for Active; 'I' for Inactive)
    1  A    between atoms: C_1  and  C_7
    2  A    between atoms: C_1  and  N_9
    3  A    between atoms: C_7  and  C_11
    4  A    between atoms: N_8  and  C_12
    5  A    between atoms: N_9  and  C_23
    6  A    between atoms: C_11  and  O_30
    7  A    between atoms: C_15  and  N_17
    8  A    between atoms: C_16  and  C_24
    9  A    between atoms: C_24  and  O_30
                            x       y       z     vdW  Elec       q    Type
                         _______ _______ _______ _____ _____    ______ ____

>  <TORSDO>
F 9

$$$$
=
 OpenBabel11042420283D

 31 34  0  0  1  0  0  0  0  0999 V2000
  161.5800  203.4590  146.3540 N   0  0  0  0  0  0  0  0  0  0  0  0
  161.5840  205.3010  148.8400 C   0  0  0  0  0  0  0  0  0  0  0  0
  161.4640  205.8350  150.1260 C   0  0  0  0  0  3  0  0  0  0  0  0
  161.8260  208.0760  149.2890 C   0  0  0  0  0  0  0  0  0  0  0  0
  160.9450  203.2660  147.4650 C   0  0  0  0  0  3  0  0  0  0  0  0
  162.0090  207.5420  148.0070 C   0  0  0  0  0  3  0  0  0  0  0  0
  161.9500  206.1680  147.7720 C   0  0  0  0  0  0  0  0  0  0  0  0
  162.7080  204.3610  146.2050 C   0  0  0  0  0  2  0  0  0  0  0  0
  161.6150  207.2060  150.3800 C   0  0  0  0  0  0  0  0  0  0  0  0
  161.1610  204.0340  148.7060 C   0  0  0  0  0  2  0  0  0  0  0  0
  162.3640  205.7660  146.5680 C   0  0  0  0  0  2  0  0  0  0  0  0
  161.8460  209.4940  149.4870 N   0  0  0  0  0  0  0  0  0  0  0  0
  162.3390  210.2890  148.6230 N   0  0  0  0  0  0  0  0  0  0  0  0
  163.0240  212.4150  147.6970 C   0  0  0  0  0  3  0  0  0  0  0  0
  161.0020  213.6500  147.1540 C   0  0  0  0  0  0  0  0  0  0  0  0
  160.9270  212.2080  149.1090 C   0  0  0  0  0  3  0  0  0  0  0  0
  162.3380  211.7240  148.8530 C   0  0  1  0  0  3  0  0  0  0  0  0
  160.4080  214.4530  146.3890 O   0  0  0  0  0  0  0  0  0  0  0  0
  162.4030  213.2910  146.9050 C   0  0  0  0  0  3  0  0  0  0  0  0
  160.3080  213.0880  148.3160 C   0  0  0  0  0  3  0  0  0  0  0  0
  161.4840  207.6950  151.7310 N   0  0  0  0  0  0  0  0  0  0  0  0
  161.6870  206.8170  152.8730 C   0  0  0  0  0  1  0  0  0  0  0  0
  160.9200  209.0110  151.9980 C   0  0  0  0  0  2  0  0  0  0  0  0
  161.9160  209.8580  152.7690 C   0  0  0  0  0  2  0  0  0  0  0  0
  161.2070  210.6420  153.8140 C   0  0  0  0  0  0  0  0  0  0  0  0
  160.3330  211.4820  153.4740 O   0  0  0  0  0  0  0  0  0  0  0  0
  161.5020  210.4170  155.1600 O   0  0  0  0  0  0  0  0  0  0  0  0
  161.5740  209.1120  155.7190 C   0  0  0  0  0  2  0  0  0  0  0  0
  160.4370  207.5590  157.2600 C   0  0  0  0  0  2  0  0  0  0  0  0
  160.2330  208.7210  156.3120 C   0  0  0  0  0  3  0  0  0  0  0  0
  159.8910  207.3130  155.8730 C   0  0  0  0  0  2  0  0  0  0  0  0
  1  5  2  0  0  0  0
  2  3  1  0  0  0  0
  3  9  2  0  0  0  0
  4 12  1  0  0  0  0
  4  9  1  0  0  0  0
  5 10  1  0  0  0  0
  6  4  2  0  0  0  0
  7  6  1  0  0  0  0
  7  2  2  0  0  0  0
  8  1  1  0  0  0  0
  8 11  1  0  0  0  0
  9 21  1  0  0  0  0
 10  2  1  0  0  0  0
 11  7  1  0  0  0  0
 13 12  2  0  0  0  0
 14 17  1  0  0  0  0
 15 20  1  0  0  0  0
 17 13  1  6  0  0  0
 17 16  1  0  0  0  0
 18 15  2  0  0  0  0
 19 15  1  0  0  0  0
 19 14  2  0  0  0  0
 20 16  2  0  0  0  0
 21 23  1  0  0  0  0
 21 22  1  0  0  0  0
 23 24  1  0  0  0  0
 24 25  1  0  0  0  0
 25 27  1  0  0  0  0
 26 25  2  0  0  0  0
 27 28  1  0  0  0  0
 28 30  1  0  0  0  0
 30 29  1  0  0  0  0
 31 30  1  0  0  0  0
 31 29  1  0  0  0  0
M  END
>  <MODEL>
6

>  <REMARK>
 VINA RESULT:      -7.0      3.478      8.927
  Name = 
  9 active torsions:
  status: ('A' for Active; 'I' for Inactive)
    1  A    between atoms: C_1  and  C_7
    2  A    between atoms: C_1  and  N_9
    3  A    between atoms: C_7  and  C_11
    4  A    between atoms: N_8  and  C_12
    5  A    between atoms: N_9  and  C_23
    6  A    between atoms: C_11  and  O_30
    7  A    between atoms: C_15  and  N_17
    8  A    between atoms: C_16  and  C_24
    9  A    between atoms: C_24  and  O_30
                            x       y       z     vdW  Elec       q    Type
                         _______ _______ _______ _____ _____    ______ ____

>  <TORSDO>
F 9

$$$$
=
 OpenBabel11042420283D

 31 34  0  0  1  0  0  0  0  0999 V2000
  161.1550  210.8920  155.1270 N   0  0  0  0  0  0  0  0  0  0  0  0
  161.1060  208.3830  153.3160 C   0  0  0  0  0  0  0  0  0  0  0  0
  161.0310  207.0820  152.8120 C   0  0  0  0  0  3  0  0  0  0  0  0
  161.8000  207.8180  150.6400 C   0  0  0  0  0  0  0  0  0  0  0  0
  161.3120  209.6620  155.4990 C   0  0  0  0  0  3  0  0  0  0  0  0
  161.8190  209.1350  151.1200 C   0  0  0  0  0  3  0  0  0  0  0  0
  161.4260  209.4430  152.4220 C   0  0  0  0  0  0  0  0  0  0  0  0
  160.5460  211.2940  153.8720 C   0  0  0  0  0  2  0  0  0  0  0  0
  161.3370  206.7810  151.4780 C   0  0  0  0  0  0  0  0  0  0  0  0
  161.0430  208.4830  154.6530 C   0  0  0  0  0  2  0  0  0  0  0  0
  161.2680  210.7430  152.6880 C   0  0  0  0  0  2  0  0  0  0  0  0
  162.2560  207.5300  149.3140 N   0  0  0  0  0  0  0  0  0  0  0  0
  161.4630  207.1440  148.3970 N   0  0  0  0  0  0  0  0  0  0  0  0
  162.7240  205.5610  147.0740 C   0  0  0  0  0  3  0  0  0  0  0  0
  161.1850  204.5680  145.4760 C   0  0  0  0  0  0  0  0  0  0  0  0
  160.8190  206.8970  146.0650 C   0  0  0  0  0  3  0  0  0  0  0  0
  161.9590  206.8640  147.0590 C   0  0  1  0  0  3  0  0  0  0  0  0
  160.8220  203.5560  144.8220 O   0  0  0  0  0  0  0  0  0  0  0  0
  162.3580  204.4980  146.3550 C   0  0  0  0  0  3  0  0  0  0  0  0
  160.4550  205.8320  145.3440 C   0  0  0  0  0  3  0  0  0  0  0  0
  161.2350  205.4180  151.0160 N   0  0  0  0  0  0  0  0  0  0  0  0
  160.3660  205.0620  149.9060 C   0  0  0  0  0  1  0  0  0  0  0  0
  161.8090  204.3230  151.7870 C   0  0  0  0  0  2  0  0  0  0  0  0
  160.8280  203.1660  151.8560 C   0  0  0  0  0  2  0  0  0  0  0  0
  161.5150  201.9020  151.4790 C   0  0  0  0  0  0  0  0  0  0  0  0
  162.6750  201.6750  151.9100 O   0  0  0  0  0  0  0  0  0  0  0  0
  160.8520  200.9730  150.6740 O   0  0  0  0  0  0  0  0  0  0  0  0
  160.2440  201.3270  149.4400 C   0  0  0  0  0  2  0  0  0  0  0  0
  160.7030  201.2680  147.0180 C   0  0  0  0  0  2  0  0  0  0  0  0
  161.3060  201.5470  148.3770 C   0  0  0  0  0  3  0  0  0  0  0  0
  161.5840  200.2330  147.6790 C   0  0  0  0  0  2  0  0  0  0  0  0
  1  5  2  0  0  0  0
  2 10  1  0  0  0  0
  3  2  1  0  0  0  0
  4  6  2  0  0  0  0
  4  9  1  0  0  0  0
  6  7  1  0  0  0  0
  7 11  1  0  0  0  0
  7  2  2  0  0  0  0
  8  1  1  0  0  0  0
  9  3  2  0  0  0  0
 10  5  1  0  0  0  0
 11  8  1  0  0  0  0
 12  4  1  0  0  0  0
 13 12  2  0  0  0  0
 15 19  1  0  0  0  0
 16 17  1  0  0  0  0
 17 14  1  0  0  0  0
 17 13  1  1  0  0  0
 18 15  2  0  0  0  0
 19 14  2  0  0  0  0
 20 15  1  0  0  0  0
 20 16  2  0  0  0  0
 21  9  1  0  0  0  0
 21 23  1  0  0  0  0
 22 21  1  0  0  0  0
 23 24  1  0  0  0  0
 25 24  1  0  0  0  0
 25 26  2  0  0  0  0
 27 25  1  0  0  0  0
 28 27  1  0  0  0  0
 29 31  1  0  0  0  0
 29 30  1  0  0  0  0
 30 28  1  0  0  0  0
 31 30  1  0  0  0  0
M  END
>  <MODEL>
7

>  <REMARK>
 VINA RESULT:      -7.0      1.758      4.407
  Name = 
  9 active torsions:
  status: ('A' for Active; 'I' for Inactive)
    1  A    between atoms: C_1  and  C_7
    2  A    between atoms: C_1  and  N_9
    3  A    between atoms: C_7  and  C_11
    4  A    between atoms: N_8  and  C_12
    5  A    between atoms: N_9  and  C_23
    6  A    between atoms: C_11  and  O_30
    7  A    between atoms: C_15  and  N_17
    8  A    between atoms: C_16  and  C_24
    9  A    between atoms: C_24  and  O_30
                            x       y       z     vdW  Elec       q    Type
                         _______ _______ _______ _____ _____    ______ ____

>  <TORSDO>
F 9

$$$$
=
 OpenBabel11042420283D

 31 34  0  0  1  0  0  0  0  0999 V2000
  161.0070  201.8320  148.4460 N   0  0  0  0  0  0  0  0  0  0  0  0
  161.1330  204.7980  149.3210 C   0  0  0  0  0  0  0  0  0  0  0  0
  161.2320  206.1910  149.3620 C   0  0  0  0  0  3  0  0  0  0  0  0
  161.4170  206.1620  151.7740 C   0  0  0  0  0  0  0  0  0  0  0  0
  161.4770  202.8250  147.7610 C   0  0  0  0  0  3  0  0  0  0  0  0
  161.2570  204.7700  151.7460 C   0  0  0  0  0  3  0  0  0  0  0  0
  161.0590  204.0820  150.5480 C   0  0  0  0  0  0  0  0  0  0  0  0
  160.1070  201.9740  149.5750 C   0  0  0  0  0  2  0  0  0  0  0  0
  161.3390  206.8940  150.5700 C   0  0  0  0  0  0  0  0  0  0  0  0
  161.3010  204.2490  148.1070 C   0  0  0  0  0  2  0  0  0  0  0  0
  160.6920  202.8030  150.6680 C   0  0  0  0  0  2  0  0  0  0  0  0
  161.6680  206.8320  153.0150 N   0  0  0  0  0  0  0  0  0  0  0  0
  160.8880  206.7150  154.0140 N   0  0  0  0  0  0  0  0  0  0  0  0
  161.6810  208.7960  154.9550 C   0  0  0  0  0  3  0  0  0  0  0  0
  159.8200  209.8030  156.1500 C   0  0  0  0  0  0  0  0  0  0  0  0
  159.9590  207.3770  156.1620 C   0  0  0  0  0  3  0  0  0  0  0  0
  161.1750  207.4050  155.2610 C   0  0  1  0  0  3  0  0  0  0  0  0
  159.2060  210.8450  156.4990 O   0  0  0  0  0  0  0  0  0  0  0  0
  161.0480  209.9010  155.3530 C   0  0  0  0  0  3  0  0  0  0  0  0
  159.3280  208.4850  156.5610 C   0  0  0  0  0  3  0  0  0  0  0  0
  161.4320  208.3340  150.5470 N   0  0  0  0  0  0  0  0  0  0  0  0
  160.8600  209.1430  151.6120 C   0  0  0  0  0  1  0  0  0  0  0  0
  161.8880  209.0350  149.3540 C   0  0  0  0  0  2  0  0  0  0  0  0
  162.2710  210.4620  149.7030 C   0  0  0  0  0  2  0  0  0  0  0  0
  161.7440  211.3910  148.6690 C   0  0  0  0  0  0  0  0  0  0  0  0
  161.4110  210.9400  147.5420 O   0  0  0  0  0  0  0  0  0  0  0  0
  161.5990  212.7460  148.9720 O   0  0  0  0  0  0  0  0  0  0  0  0
  160.3310  213.3830  149.0440 C   0  0  0  0  0  2  0  0  0  0  0  0
  159.8260  212.9260  151.4140 C   0  0  0  0  0  2  0  0  0  0  0  0
  160.1390  214.0150  150.4100 C   0  0  0  0  0  3  0  0  0  0  0  0
  158.7120  213.7870  150.8630 C   0  0  0  0  0  2  0  0  0  0  0  0
  1  8  1  0  0  0  0
  2  3  2  0  0  0  0
  2  7  1  0  0  0  0
  3  9  1  0  0  0  0
  4 12  1  0  0  0  0
  5 10  1  0  0  0  0
  5  1  2  0  0  0  0
  6  4  1  0  0  0  0
  7 11  1  0  0  0  0
  7  6  2  0  0  0  0
  8 11  1  0  0  0  0
  9  4  2  0  0  0  0
 10  2  1  0  0  0  0
 12 13  2  0  0  0  0
 14 17  1  0  0  0  0
 14 19  2  0  0  0  0
 15 18  2  0  0  0  0
 15 20  1  0  0  0  0
 16 20  2  0  0  0  0
 17 13  1  6  0  0  0
 17 16  1  0  0  0  0
 19 15  1  0  0  0  0
 21  9  1  0  0  0  0
 21 22  1  0  0  0  0
 23 24  1  0  0  0  0
 23 21  1  0  0  0  0
 25 27  1  0  0  0  0
 25 24  1  0  0  0  0
 26 25  2  0  0  0  0
 27 28  1  0  0  0  0
 28 30  1  0  0  0  0
 30 31  1  0  0  0  0
 30 29  1  0  0  0  0
 31 29  1  0  0  0  0
M  END
>  <MODEL>
8

>  <REMARK>
 VINA RESULT:      -6.9      3.093      7.619
  Name = 
  9 active torsions:
  status: ('A' for Active; 'I' for Inactive)
    1  A    between atoms: C_1  and  C_7
    2  A    between atoms: C_1  and  N_9
    3  A    between atoms: C_7  and  C_11
    4  A    between atoms: N_8  and  C_12
    5  A    between atoms: N_9  and  C_23
    6  A    between atoms: C_11  and  O_30
    7  A    between atoms: C_15  and  N_17
    8  A    between atoms: C_16  and  C_24
    9  A    between atoms: C_24  and  O_30
                            x       y       z     vdW  Elec       q    Type
                         _______ _______ _______ _____ _____    ______ ____

>  <TORSDO>
F 9

$$$$
=
 OpenBabel11042420283D

 31 34  0  0  1  0  0  0  0  0999 V2000
  160.4770  208.6830  156.5120 N   0  0  0  0  0  0  0  0  0  0  0  0
  160.9800  208.0290  153.5290 C   0  0  0  0  0  0  0  0  0  0  0  0
  161.2560  207.4010  152.3120 C   0  0  0  0  0  3  0  0  0  0  0  0
  161.4420  209.5350  151.1890 C   0  0  0  0  0  0  0  0  0  0  0  0
  161.0680  207.6350  156.0350 C   0  0  0  0  0  3  0  0  0  0  0  0
  161.1060  210.1710  152.3910 C   0  0  0  0  0  3  0  0  0  0  0  0
  160.8190  209.4430  153.5470 C   0  0  0  0  0  0  0  0  0  0  0  0
  159.6050  209.5500  155.7400 C   0  0  0  0  0  2  0  0  0  0  0  0
  161.4540  208.1260  151.1280 C   0  0  0  0  0  0  0  0  0  0  0  0
  161.0740  207.2420  154.6130 C   0  0  0  0  0  2  0  0  0  0  0  0
  160.2940  210.1410  154.5570 C   0  0  0  0  0  2  0  0  0  0  0  0
  161.7790  210.3130  150.0340 N   0  0  0  0  0  0  0  0  0  0  0  0
  161.6770  211.5820  150.0230 N   0  0  0  0  0  0  0  0  0  0  0  0
  161.4680  211.6500  147.6150 C   0  0  0  0  0  3  0  0  0  0  0  0
  160.1160  213.5930  147.0630 C   0  0  0  0  0  0  0  0  0  0  0  0
  161.5890  213.7800  148.9870 C   0  0  0  0  0  3  0  0  0  0  0  0
  162.0320  212.3420  148.8360 C   0  0  1  0  0  3  0  0  0  0  0  0
  159.2500  214.1210  146.3190 O   0  0  0  0  0  0  0  0  0  0  0  0
  160.5740  212.2230  146.8070 C   0  0  0  0  0  3  0  0  0  0  0  0
  160.6950  214.3520  148.1750 C   0  0  0  0  0  3  0  0  0  0  0  0
  161.7290  207.4180  149.9010 N   0  0  0  0  0  0  0  0  0  0  0  0
  161.6580  208.0890  148.6130 C   0  0  0  0  0  1  0  0  0  0  0  0
  161.8540  205.9670  149.8870 C   0  0  0  0  0  2  0  0  0  0  0  0
  160.7740  205.3600  149.0090 C   0  0  0  0  0  2  0  0  0  0  0  0
  161.2070  204.0220  148.5300 C   0  0  0  0  0  0  0  0  0  0  0  0
  160.6840  202.9880  149.0220 O   0  0  0  0  0  0  0  0  0  0  0  0
  162.1690  203.9300  147.5230 O   0  0  0  0  0  0  0  0  0  0  0  0
  161.8400  204.0010  146.1420 C   0  0  0  0  0  2  0  0  0  0  0  0
  160.4430  205.8310  145.2590 C   0  0  0  0  0  2  0  0  0  0  0  0
  161.8460  205.4460  145.6760 C   0  0  0  0  0  3  0  0  0  0  0  0
  161.4750  205.4910  144.2090 C   0  0  0  0  0  2  0  0  0  0  0  0
  2  7  1  0  0  0  0
  2 10  1  0  0  0  0
  3  2  2  0  0  0  0
  4  6  1  0  0  0  0
  5  1  2  0  0  0  0
  6  7  2  0  0  0  0
  7 11  1  0  0  0  0
  8  1  1  0  0  0  0
  9  4  2  0  0  0  0
  9  3  1  0  0  0  0
 10  5  1  0  0  0  0
 11  8  1  0  0  0  0
 12  4  1  0  0  0  0
 13 12  2  0  0  0  0
 14 17  1  0  0  0  0
 15 20  1  0  0  0  0
 17 16  1  0  0  0  0
 17 13  1  1  0  0  0
 18 15  2  0  0  0  0
 19 15  1  0  0  0  0
 19 14  2  0  0  0  0
 20 16  2  0  0  0  0
 21  9  1  0  0  0  0
 22 21  1  0  0  0  0
 23 21  1  0  0  0  0
 24 23  1  0  0  0  0
 25 24  1  0  0  0  0
 25 26  2  0  0  0  0
 27 25  1  0  0  0  0
 28 27  1  0  0  0  0
 29 30  1  0  0  0  0
 30 28  1  0  0  0  0
 31 29  1  0  0  0  0
 31 30  1  0  0  0  0
M  END
>  <MODEL>
9

>  <REMARK>
 VINA RESULT:      -6.9      2.601      5.722
  Name = 
  9 active torsions:
  status: ('A' for Active; 'I' for Inactive)
    1  A    between atoms: C_1  and  C_7
    2  A    between atoms: C_1  and  N_9
    3  A    between atoms: C_7  and  C_11
    4  A    between atoms: N_8  and  C_12
    5  A    between atoms: N_9  and  C_23
    6  A    between atoms: C_11  and  O_30
    7  A    between atoms: C_15  and  N_17
    8  A    between atoms: C_16  and  C_24
    9  A    between atoms: C_24  and  O_30
                            x       y       z     vdW  Elec       q    Type
                         _______ _______ _______ _____ _____    ______ ____

>  <TORSDO>
F 9

$$$$
