=
 OpenBabel11052411503D

 32 33  0  0  1  0  0  0  0  0999 V2000
  161.0380  206.2020  151.7380 C   0  0  0  0  0  0  0  0  0  0  0  0
  160.4850  204.8500  148.3540 O   0  0  0  0  0  0  0  0  0  0  0  0
  162.9020  208.0700  149.7160 C   0  0  0  0  0  1  0  0  0  0  0  0
  160.8830  208.1660  153.7610 C   0  0  0  0  0  0  0  0  0  0  0  0
  161.1470  207.5750  151.4030 C   0  0  0  0  0  0  0  0  0  0  0  0
  161.5430  203.1970  152.1410 C   0  0  0  0  0  1  0  0  0  0  0  0
  160.8010  207.0540  149.0230 N   0  0  0  0  0  2  0  0  0  0  0  0
  161.2330  203.8570  150.8400 C   0  0  0  0  0  3  0  0  0  0  0  0
  161.4070  207.9860  149.9690 C   0  0  2  0  0  3  0  0  0  0  0  0
  161.0840  208.5620  152.4150 C   0  0  0  0  0  0  0  0  0  0  0  0
  160.7780  206.8110  154.0760 C   0  0  0  0  0  3  0  0  0  0  0  0
  160.8470  205.8440  153.0780 C   0  0  0  0  0  3  0  0  0  0  0  0
  161.0300  205.1720  150.6540 C   0  0  0  0  0  0  0  0  0  0  0  0
  160.7670  205.6520  149.2860 C   0  0  0  0  0  0  0  0  0  0  0  0
  160.7830  209.1370  154.8660 C   0  0  0  0  0  0  0  0  0  0  0  0
  159.5870  209.3320  155.4240 C   0  0  0  0  0  3  0  0  0  0  0  0
  159.3660  210.2940  156.5480 C   0  0  0  0  0  2  0  0  0  0  0  0
  159.3350  212.4990  155.6360 O   0  0  0  0  0  1  0  0  0  0  0  0
  158.5130  211.4690  156.0980 C   0  0  1  0  0  3  0  0  0  0  0  0
  157.5820  211.0150  154.9890 C   0  0  0  0  0  2  0  0  0  0  0  0
  155.7160  212.1310  156.2700 N   0  0  0  0  0  1  0  0  0  0  0  0
  156.1630  211.0650  155.4420 C   0  0  0  0  0  0  0  0  0  0  0  0
  155.3530  210.1750  155.0730 O   0  0  0  0  0  0  0  0  0  0  0  0
  161.8940  209.8510  155.3490 O   0  0  0  0  0  0  0  0  0  0  0  0
  163.3030  210.5150  157.0740 O   0  0  0  0  0  0  0  0  0  0  0  0
  162.5430  209.6430  156.5740 C   0  0  0  0  0  0  0  0  0  0  0  0
  162.3270  208.4570  157.2610 O   0  0  0  0  0  1  0  0  0  0  0  0
  162.3330  210.5900  152.6400 F   0  0  0  0  0  0  0  0  0  0  0  0
  161.2320  210.0130  152.0310 C   0  0  2  0  0  3  0  0  0  0  0  0
  159.9670  210.8010  152.3310 C   0  0  0  0  0  2  0  0  0  0  0  0
  160.3000  212.0830  152.7630 O   0  0  0  0  0  0  0  0  0  0  0  0
  159.6170  212.9320  151.8920 C   0  0  0  0  0  1  0  0  0  0  0  0
  1 12  1  0  0  0  0
  2 14  2  0  0  0  0
  4 11  1  0  0  0  0
  4 15  1  0  0  0  0
  5  1  2  0  0  0  0
  5 10  1  0  0  0  0
  7 14  1  0  0  0  0
  7  9  1  0  0  0  0
  8  6  1  0  0  0  0
  9  3  1  6  0  0  0
  9  5  1  0  0  0  0
 10  4  2  0  0  0  0
 12 11  2  0  0  0  0
 13  8  2  0  0  0  0
 13  1  1  0  0  0  0
 14 13  1  0  0  0  0
 15 24  1  0  0  0  0
 15 16  2  0  0  0  0
 16 17  1  0  0  0  0
 19 18  1  6  0  0  0
 19 17  1  0  0  0  0
 20 22  1  0  0  0  0
 20 19  1  0  0  0  0
 22 21  1  0  0  0  0
 23 22  2  0  0  0  0
 24 26  1  0  0  0  0
 26 25  2  0  0  0  0
 26 27  1  0  0  0  0
 29 30  1  0  0  0  0
 29 10  1  0  0  0  0
 29 28  1  1  0  0  0
 30 31  1  0  0  0  0
 32 31  1  0  0  0  0
M  END
>  <MODEL>
1

>  <REMARK>
 VINA RESULT:      -6.7      0.000      0.000
  Name = 
  10 active torsions:
  status: ('A' for Active; 'I' for Inactive)
    1  A    between atoms: C_1  and  C_11
    2  A    between atoms: C_1  and  O_30
    3  A    between atoms: C_3  and  C_5
    4  A    between atoms: C_3  and  C_8
    5  A    between atoms: O_4  and  C_24
    6  A    between atoms: C_5  and  C_25
    7  A    between atoms: C_12  and  C_25
    8  A    between atoms: C_20  and  C_29
    9  A    between atoms: C_24  and  C_29
   10  A    between atoms: C_26  and  O_30
                            x       y       z     vdW  Elec       q    Type
                         _______ _______ _______ _____ _____    ______ ____

>  <TORSDO>
F 10

$$$$
=
 OpenBabel11052411503D

 32 33  0  0  1  0  0  0  0  0999 V2000
  161.1600  207.6040  153.9230 C   0  0  0  0  0  0  0  0  0  0  0  0
  162.3050  210.6060  155.7290 O   0  0  0  0  0  0  0  0  0  0  0  0
  159.8840  210.1860  152.2620 C   0  0  0  0  0  1  0  0  0  0  0  0
  161.0270  205.8450  151.7190 C   0  0  0  0  0  0  0  0  0  0  0  0
  161.2160  208.1170  152.6030 C   0  0  0  0  0  0  0  0  0  0  0  0
  160.3800  206.9620  156.8260 C   0  0  0  0  0  1  0  0  0  0  0  0
  162.0080  210.2880  153.4460 N   0  0  0  0  0  2  0  0  0  0  0  0
  160.9950  208.2360  156.3550 C   0  0  0  0  0  3  0  0  0  0  0  0
  161.2850  209.6120  152.3730 C   0  0  2  0  0  3  0  0  0  0  0  0
  161.1360  207.2400  151.4950 C   0  0  0  0  0  0  0  0  0  0  0  0
  160.9730  205.3550  153.0240 C   0  0  0  0  0  3  0  0  0  0  0  0
  161.0450  206.2210  154.1090 C   0  0  0  0  0  3  0  0  0  0  0  0
  161.3200  208.5300  155.0850 C   0  0  0  0  0  0  0  0  0  0  0  0
  161.8930  209.8580  154.8020 C   0  0  0  0  0  0  0  0  0  0  0  0
  160.9630  204.8690  150.6150 C   0  0  0  0  0  0  0  0  0  0  0  0
  161.5920  205.1650  149.4770 C   0  0  0  0  0  3  0  0  0  0  0  0
  161.5930  204.2520  148.2920 C   0  0  0  0  0  2  0  0  0  0  0  0
  163.4160  204.8840  146.8880 O   0  0  0  0  0  1  0  0  0  0  0  0
  162.0310  204.9900  147.0380 C   0  0  1  0  0  3  0  0  0  0  0  0
  161.3340  204.3870  145.8330 C   0  0  0  0  0  2  0  0  0  0  0  0
  161.3490  205.5060  143.5710 N   0  0  0  0  0  1  0  0  0  0  0  0
  160.8660  205.4570  144.9080 C   0  0  0  0  0  0  0  0  0  0  0  0
  160.0250  206.3060  145.3030 O   0  0  0  0  0  0  0  0  0  0  0  0
  160.2750  203.6470  150.7260 O   0  0  0  0  0  0  0  0  0  0  0  0
  161.7350  202.1690  151.7690 O   0  0  0  0  0  1  0  0  0  0  0  0
  160.8550  202.3820  150.8930 C   0  0  0  0  0  0  0  0  0  0  0  0
  160.4360  201.3340  150.0850 O   0  0  0  0  0  0  0  0  0  0  0  0
  160.2530  207.1960  149.2710 F   0  0  0  0  0  0  0  0  0  0  0  0
  161.1690  207.8180  150.1020 C   0  0  2  0  0  3  0  0  0  0  0  0
  162.5670  207.7630  149.5090 C   0  0  0  0  0  2  0  0  0  0  0  0
  162.6320  208.5680  148.3730 O   0  0  0  0  0  0  0  0  0  0  0  0
  162.0360  209.7680  148.7620 C   0  0  0  0  0  1  0  0  0  0  0  0
  1 12  1  0  0  0  0
  1 13  1  0  0  0  0
  4 11  1  0  0  0  0
  5  1  2  0  0  0  0
  7 14  1  0  0  0  0
  8  6  1  0  0  0  0
  9  3  1  1  0  0  0
  9  5  1  0  0  0  0
  9  7  1  0  0  0  0
 10  4  2  0  0  0  0
 10  5  1  0  0  0  0
 11 12  2  0  0  0  0
 13  8  2  0  0  0  0
 14 13  1  0  0  0  0
 14  2  2  0  0  0  0
 15 24  1  0  0  0  0
 15  4  1  0  0  0  0
 16 15  2  0  0  0  0
 17 16  1  0  0  0  0
 19 18  1  6  0  0  0
 19 17  1  0  0  0  0
 20 19  1  0  0  0  0
 21 22  1  0  0  0  0
 22 23  2  0  0  0  0
 22 20  1  0  0  0  0
 24 26  1  0  0  0  0
 26 25  1  0  0  0  0
 27 26  2  0  0  0  0
 29 28  1  6  0  0  0
 29 10  1  0  0  0  0
 30 29  1  0  0  0  0
 31 32  1  0  0  0  0
 31 30  1  0  0  0  0
M  END
>  <MODEL>
2

>  <REMARK>
 VINA RESULT:      -6.6      2.999      7.882
  Name = 
  10 active torsions:
  status: ('A' for Active; 'I' for Inactive)
    1  A    between atoms: C_1  and  C_11
    2  A    between atoms: C_1  and  O_30
    3  A    between atoms: C_3  and  C_5
    4  A    between atoms: C_3  and  C_8
    5  A    between atoms: O_4  and  C_24
    6  A    between atoms: C_5  and  C_25
    7  A    between atoms: C_12  and  C_25
    8  A    between atoms: C_20  and  C_29
    9  A    between atoms: C_24  and  C_29
   10  A    between atoms: C_26  and  O_30
                            x       y       z     vdW  Elec       q    Type
                         _______ _______ _______ _____ _____    ______ ____

>  <TORSDO>
F 10

$$$$
=
 OpenBabel11052411503D

 32 33  0  0  1  0  0  0  0  0999 V2000
  158.3370  211.9580  154.4060 C   0  0  0  0  0  0  0  0  0  0  0  0
  156.1850  213.0150  157.2050 O   0  0  0  0  0  0  0  0  0  0  0  0
  160.4150  212.9710  156.7960 C   0  0  0  0  0  1  0  0  0  0  0  0
  160.2550  210.3210  153.1360 C   0  0  0  0  0  0  0  0  0  0  0  0
  159.4030  211.4020  155.1570 C   0  0  0  0  0  0  0  0  0  0  0  0
  156.3540  213.8590  153.0280 C   0  0  0  0  0  1  0  0  0  0  0  0
  158.2530  211.9540  157.2600 N   0  0  0  0  0  2  0  0  0  0  0  0
  156.4000  213.5640  154.4890 C   0  0  0  0  0  3  0  0  0  0  0  0
  159.5490  211.7350  156.6270 C   0  0  2  0  0  3  0  0  0  0  0  0
  160.3750  210.5920  154.5220 C   0  0  0  0  0  0  0  0  0  0  0  0
  159.2000  210.8750  152.4100 C   0  0  0  0  0  3  0  0  0  0  0  0
  158.2520  211.6760  153.0380 C   0  0  0  0  0  3  0  0  0  0  0  0
  157.2760  212.7490  155.1000 C   0  0  0  0  0  0  0  0  0  0  0  0
  157.1890  212.6030  156.5640 C   0  0  0  0  0  0  0  0  0  0  0  0
  161.2140  209.4660  152.4110 C   0  0  0  0  0  0  0  0  0  0  0  0
  161.1170  208.1450  152.5630 C   0  0  0  0  0  3  0  0  0  0  0  0
  162.0360  207.1830  151.8790 C   0  0  0  0  0  2  0  0  0  0  0  0
  161.1670  205.7040  153.5380 O   0  0  0  0  0  1  0  0  0  0  0  0
  161.6910  205.7480  152.2430 C   0  0  1  0  0  3  0  0  0  0  0  0
  160.6700  205.2140  151.2560 C   0  0  0  0  0  2  0  0  0  0  0  0
  161.1050  203.6160  149.3510 N   0  0  0  0  0  1  0  0  0  0  0  0
  161.0830  203.8750  150.7490 C   0  0  0  0  0  0  0  0  0  0  0  0
  161.4340  202.9770  151.5590 O   0  0  0  0  0  0  0  0  0  0  0  0
  162.2090  209.9940  151.5690 O   0  0  0  0  0  0  0  0  0  0  0  0
  161.8860  211.4800  149.8100 O   0  0  0  0  0  1  0  0  0  0  0  0
  162.0670  210.2980  150.2080 C   0  0  0  0  0  0  0  0  0  0  0  0
  162.1480  209.2740  149.2750 O   0  0  0  0  0  0  0  0  0  0  0  0
  162.7340  210.2460  154.7210 F   0  0  0  0  0  0  0  0  0  0  0  0
  161.5140  210.0380  155.3410 C   0  0  2  0  0  3  0  0  0  0  0  0
  161.3070  208.5670  155.6600 C   0  0  0  0  0  2  0  0  0  0  0  0
  160.4640  208.4360  156.7630 O   0  0  0  0  0  0  0  0  0  0  0  0
  160.1220  207.0840  156.7790 C   0  0  0  0  0  1  0  0  0  0  0  0
  1 13  1  0  0  0  0
  1  5  1  0  0  0  0
  4 10  1  0  0  0  0
  5  9  1  0  0  0  0
  6  8  1  0  0  0  0
  8 13  2  0  0  0  0
  9  3  1  6  0  0  0
  9  7  1  0  0  0  0
 10  5  2  0  0  0  0
 10 29  1  0  0  0  0
 11 12  1  0  0  0  0
 11  4  2  0  0  0  0
 12  1  2  0  0  0  0
 13 14  1  0  0  0  0
 14  2  2  0  0  0  0
 14  7  1  0  0  0  0
 15 16  2  0  0  0  0
 15  4  1  0  0  0  0
 17 19  1  0  0  0  0
 17 16  1  0  0  0  0
 19 18  1  1  0  0  0
 20 19  1  0  0  0  0
 21 22  1  0  0  0  0
 22 20  1  0  0  0  0
 22 23  2  0  0  0  0
 24 15  1  0  0  0  0
 25 26  1  0  0  0  0
 26 24  1  0  0  0  0
 27 26  2  0  0  0  0
 29 28  1  6  0  0  0
 29 30  1  0  0  0  0
 30 31  1  0  0  0  0
 31 32  1  0  0  0  0
M  END
>  <MODEL>
3

>  <REMARK>
 VINA RESULT:      -5.8      2.394      7.724
  Name = 
  10 active torsions:
  status: ('A' for Active; 'I' for Inactive)
    1  A    between atoms: C_1  and  C_11
    2  A    between atoms: C_1  and  O_30
    3  A    between atoms: C_3  and  C_5
    4  A    between atoms: C_3  and  C_8
    5  A    between atoms: O_4  and  C_24
    6  A    between atoms: C_5  and  C_25
    7  A    between atoms: C_12  and  C_25
    8  A    between atoms: C_20  and  C_29
    9  A    between atoms: C_24  and  C_29
   10  A    between atoms: C_26  and  O_30
                            x       y       z     vdW  Elec       q    Type
                         _______ _______ _______ _____ _____    ______ ____

>  <TORSDO>
F 10

$$$$
=
 OpenBabel11052411503D

 32 33  0  0  1  0  0  0  0  0999 V2000
  161.0470  203.5880  149.2150 C   0  0  0  0  0  0  0  0  0  0  0  0
  160.3640  201.7620  146.0880 O   0  0  0  0  0  0  0  0  0  0  0  0
  162.8860  205.0880  146.8860 C   0  0  0  0  0  1  0  0  0  0  0  0
  160.9940  205.8350  150.9240 C   0  0  0  0  0  0  0  0  0  0  0  0
  161.1740  204.8930  148.6750 C   0  0  0  0  0  0  0  0  0  0  0  0
  161.5040  200.6660  150.0490 C   0  0  0  0  0  1  0  0  0  0  0  0
  160.7450  204.0320  146.4100 N   0  0  0  0  0  2  0  0  0  0  0  0
  161.1680  201.1320  148.6730 C   0  0  0  0  0  3  0  0  0  0  0  0
  161.3980  205.0800  147.1890 C   0  0  2  0  0  3  0  0  0  0  0  0
  161.1610  206.0210  149.5300 C   0  0  0  0  0  0  0  0  0  0  0  0
  160.8710  204.5450  151.4410 C   0  0  0  0  0  3  0  0  0  0  0  0
  160.8910  203.4390  150.5980 C   0  0  0  0  0  3  0  0  0  0  0  0
  160.9860  202.4100  148.2980 C   0  0  0  0  0  0  0  0  0  0  0  0
  160.6900  202.6860  146.8810 C   0  0  0  0  0  0  0  0  0  0  0  0
  160.9470  206.9630  151.8740 C   0  0  0  0  0  0  0  0  0  0  0  0
  161.3400  206.7430  153.1290 C   0  0  0  0  0  3  0  0  0  0  0  0
  161.3320  207.8110  154.1770 C   0  0  0  0  0  2  0  0  0  0  0  0
  160.0330  206.3710  155.5690 O   0  0  0  0  0  1  0  0  0  0  0  0
  160.1160  207.6770  155.0790 C   0  0  1  0  0  3  0  0  0  0  0  0
  160.2390  208.6540  156.2340 C   0  0  0  0  0  2  0  0  0  0  0  0
  160.9810  211.0240  155.7830 N   0  0  0  0  0  1  0  0  0  0  0  0
  159.9510  210.0430  155.7770 C   0  0  0  0  0  0  0  0  0  0  0  0
  158.8000  210.3440  155.3660 O   0  0  0  0  0  0  0  0  0  0  0  0
  160.5120  208.2470  151.5000 O   0  0  0  0  0  0  0  0  0  0  0  0
  160.3710  210.4030  152.3580 O   0  0  0  0  0  1  0  0  0  0  0  0
  161.0780  209.4640  151.9060 C   0  0  0  0  0  0  0  0  0  0  0  0
  162.4540  209.6290  151.8250 O   0  0  0  0  0  0  0  0  0  0  0  0
  160.7530  207.4720  147.6720 F   0  0  0  0  0  0  0  0  0  0  0  0
  161.3270  207.3950  148.9290 C   0  0  2  0  0  3  0  0  0  0  0  0
  162.7860  207.8150  148.8900 C   0  0  0  0  0  2  0  0  0  0  0  0
  162.9380  208.9240  148.0590 O   0  0  0  0  0  0  0  0  0  0  0  0
  162.1510  209.9120  148.6500 C   0  0  0  0  0  1  0  0  0  0  0  0
  1 12  1  0  0  0  0
  2 14  2  0  0  0  0
  4 11  1  0  0  0  0
  4 15  1  0  0  0  0
  5  1  2  0  0  0  0
  5 10  1  0  0  0  0
  7 14  1  0  0  0  0
  7  9  1  0  0  0  0
  8  6  1  0  0  0  0
  9  3  1  1  0  0  0
  9  5  1  0  0  0  0
 10  4  2  0  0  0  0
 12 11  2  0  0  0  0
 13  8  2  0  0  0  0
 13  1  1  0  0  0  0
 14 13  1  0  0  0  0
 15 16  2  0  0  0  0
 16 17  1  0  0  0  0
 17 19  1  0  0  0  0
 19 18  1  1  0  0  0
 19 20  1  0  0  0  0
 22 21  1  0  0  0  0
 22 20  1  0  0  0  0
 23 22  2  0  0  0  0
 24 15  1  0  0  0  0
 24 26  1  0  0  0  0
 26 25  1  0  0  0  0
 27 26  2  0  0  0  0
 29 28  1  6  0  0  0
 29 10  1  0  0  0  0
 30 29  1  0  0  0  0
 31 32  1  0  0  0  0
 31 30  1  0  0  0  0
M  END
>  <MODEL>
4

>  <REMARK>
 VINA RESULT:      -5.8      2.795      4.395
  Name = 
  10 active torsions:
  status: ('A' for Active; 'I' for Inactive)
    1  A    between atoms: C_1  and  C_11
    2  A    between atoms: C_1  and  O_30
    3  A    between atoms: C_3  and  C_5
    4  A    between atoms: C_3  and  C_8
    5  A    between atoms: O_4  and  C_24
    6  A    between atoms: C_5  and  C_25
    7  A    between atoms: C_12  and  C_25
    8  A    between atoms: C_20  and  C_29
    9  A    between atoms: C_24  and  C_29
   10  A    between atoms: C_26  and  O_30
                            x       y       z     vdW  Elec       q    Type
                         _______ _______ _______ _____ _____    ______ ____

>  <TORSDO>
F 10

$$$$
=
 OpenBabel11052411503D

 32 33  0  0  1  0  0  0  0  0999 V2000
  161.1980  208.1110  154.5570 C   0  0  0  0  0  0  0  0  0  0  0  0
  162.1770  210.4160  157.2610 O   0  0  0  0  0  0  0  0  0  0  0  0
  160.7380  211.1670  153.3330 C   0  0  0  0  0  1  0  0  0  0  0  0
  161.4450  206.8990  152.0190 C   0  0  0  0  0  0  0  0  0  0  0  0
  161.6670  208.8670  153.4540 C   0  0  0  0  0  0  0  0  0  0  0  0
  159.5990  207.0330  156.9500 C   0  0  0  0  0  1  0  0  0  0  0  0
  162.4650  210.6370  154.9650 N   0  0  0  0  0  2  0  0  0  0  0  0
  160.4680  208.2440  156.9640 C   0  0  0  0  0  3  0  0  0  0  0  0
  161.9770  210.3390  153.6210 C   0  0  2  0  0  3  0  0  0  0  0  0
  161.7790  208.2670  152.1760 C   0  0  0  0  0  0  0  0  0  0  0  0
  160.9850  206.1670  153.1140 C   0  0  0  0  0  3  0  0  0  0  0  0
  160.8700  206.7630  154.3650 C   0  0  0  0  0  3  0  0  0  0  0  0
  161.1540  208.7320  155.9160 C   0  0  0  0  0  0  0  0  0  0  0  0
  161.9390  209.9640  156.1080 C   0  0  0  0  0  0  0  0  0  0  0  0
  161.5600  206.2000  150.7250 C   0  0  0  0  0  0  0  0  0  0  0  0
  160.8840  205.0620  150.5650 C   0  0  0  0  0  3  0  0  0  0  0  0
  160.9280  204.2670  149.2980 C   0  0  0  0  0  2  0  0  0  0  0  0
  161.0430  202.5480  150.9490 O   0  0  0  0  0  1  0  0  0  0  0  0
  161.2140  202.8020  149.5860 C   0  0  1  0  0  3  0  0  0  0  0  0
  160.2630  201.9390  148.7760 C   0  0  0  0  0  2  0  0  0  0  0  0
  161.5750  200.2040  147.4970 N   0  0  0  0  0  1  0  0  0  0  0  0
  160.9220  201.4660  147.5260 C   0  0  0  0  0  0  0  0  0  0  0  0
  160.8800  202.1750  146.4870 O   0  0  0  0  0  0  0  0  0  0  0  0
  162.3450  206.6920  149.6670 O   0  0  0  0  0  0  0  0  0  0  0  0
  160.8830  207.5070  148.0540 O   0  0  0  0  0  1  0  0  0  0  0  0
  161.9300  206.8670  148.3400 C   0  0  0  0  0  0  0  0  0  0  0  0
  162.7020  206.3370  147.3150 O   0  0  0  0  0  0  0  0  0  0  0  0
  163.2930  209.9410  151.3830 F   0  0  0  0  0  0  0  0  0  0  0  0
  162.2540  209.1050  151.0150 C   0  0  2  0  0  3  0  0  0  0  0  0
  161.1140  209.8930  150.3930 C   0  0  0  0  0  2  0  0  0  0  0  0
  161.5820  211.1240  149.9370 O   0  0  0  0  0  0  0  0  0  0  0  0
  161.9420  210.8890  148.6110 C   0  0  0  0  0  1  0  0  0  0  0  0
  1 13  1  0  0  0  0
  4 10  2  0  0  0  0
  4 11  1  0  0  0  0
  5  9  1  0  0  0  0
  5  1  2  0  0  0  0
  6  8  1  0  0  0  0
  7 14  1  0  0  0  0
  9  3  1  1  0  0  0
  9  7  1  0  0  0  0
 10  5  1  0  0  0  0
 11 12  2  0  0  0  0
 12  1  1  0  0  0  0
 13 14  1  0  0  0  0
 13  8  2  0  0  0  0
 14  2  2  0  0  0  0
 15  4  1  0  0  0  0
 16 15  2  0  0  0  0
 17 19  1  0  0  0  0
 17 16  1  0  0  0  0
 19 18  1  1  0  0  0
 20 19  1  0  0  0  0
 21 22  1  0  0  0  0
 22 20  1  0  0  0  0
 23 22  2  0  0  0  0
 24 15  1  0  0  0  0
 25 26  1  0  0  0  0
 26 24  1  0  0  0  0
 27 26  2  0  0  0  0
 29 28  1  1  0  0  0
 29 10  1  0  0  0  0
 30 29  1  0  0  0  0
 31 30  1  0  0  0  0
 32 31  1  0  0  0  0
M  END
>  <MODEL>
5

>  <REMARK>
 VINA RESULT:      -5.5      2.998      7.790
  Name = 
  10 active torsions:
  status: ('A' for Active; 'I' for Inactive)
    1  A    between atoms: C_1  and  C_11
    2  A    between atoms: C_1  and  O_30
    3  A    between atoms: C_3  and  C_5
    4  A    between atoms: C_3  and  C_8
    5  A    between atoms: O_4  and  C_24
    6  A    between atoms: C_5  and  C_25
    7  A    between atoms: C_12  and  C_25
    8  A    between atoms: C_20  and  C_29
    9  A    between atoms: C_24  and  C_29
   10  A    between atoms: C_26  and  O_30
                            x       y       z     vdW  Elec       q    Type
                         _______ _______ _______ _____ _____    ______ ____

>  <TORSDO>
F 10

$$$$
=
 OpenBabel11052411503D

 32 33  0  0  1  0  0  0  0  0999 V2000
  161.1660  203.4020  148.2600 C   0  0  0  0  0  0  0  0  0  0  0  0
  160.3670  201.9140  144.9840 O   0  0  0  0  0  0  0  0  0  0  0  0
  162.9700  205.1010  146.0440 C   0  0  0  0  0  1  0  0  0  0  0  0
  161.2000  205.4640  150.1890 C   0  0  0  0  0  0  0  0  0  0  0  0
  161.3020  204.7530  147.8520 C   0  0  0  0  0  0  0  0  0  0  0  0
  161.5890  200.4030  148.7810 C   0  0  0  0  0  1  0  0  0  0  0  0
  160.7980  204.1340  145.5240 N   0  0  0  0  0  2  0  0  0  0  0  0
  161.2260  201.0120  147.4690 C   0  0  0  0  0  3  0  0  0  0  0  0
  161.4910  205.0860  146.3870 C   0  0  2  0  0  3  0  0  0  0  0  0
  161.3340  205.7880  148.8160 C   0  0  0  0  0  0  0  0  0  0  0  0
  161.0660  204.1300  150.5760 C   0  0  0  0  0  3  0  0  0  0  0  0
  161.0430  203.1160  149.6250 C   0  0  0  0  0  3  0  0  0  0  0  0
  161.0580  202.3240  147.2300 C   0  0  0  0  0  0  0  0  0  0  0  0
  160.7310  202.7470  145.8580 C   0  0  0  0  0  0  0  0  0  0  0  0
  161.1990  206.4900  151.2480 C   0  0  0  0  0  0  0  0  0  0  0  0
  160.5800  207.6460  151.0030 C   0  0  0  0  0  3  0  0  0  0  0  0
  160.5180  208.7580  152.0020 C   0  0  0  0  0  2  0  0  0  0  0  0
  162.6990  209.4800  151.3550 O   0  0  0  0  0  1  0  0  0  0  0  0
  161.9120  209.1530  152.4620 C   0  0  1  0  0  3  0  0  0  0  0  0
  161.8110  210.3460  153.3940 C   0  0  0  0  0  2  0  0  0  0  0  0
  159.8790  210.2020  155.0110 N   0  0  0  0  0  1  0  0  0  0  0  0
  161.2430  209.9370  154.7100 C   0  0  0  0  0  0  0  0  0  0  0  0
  161.9660  209.3370  155.5470 O   0  0  0  0  0  0  0  0  0  0  0  0
  161.8150  206.2880  152.4960 O   0  0  0  0  0  0  0  0  0  0  0  0
  160.9470  206.5450  154.6370 O   0  0  0  0  0  1  0  0  0  0  0  0
  161.1980  205.7970  153.6550 C   0  0  0  0  0  0  0  0  0  0  0  0
  160.8390  204.4580  153.7140 O   0  0  0  0  0  0  0  0  0  0  0  0
  160.9430  207.4160  147.1060 F   0  0  0  0  0  0  0  0  0  0  0  0
  161.5090  207.2130  148.3530 C   0  0  2  0  0  3  0  0  0  0  0  0
  162.9710  207.6270  148.3630 C   0  0  0  0  0  2  0  0  0  0  0  0
  163.0820  208.9830  148.0580 O   0  0  0  0  0  0  0  0  0  0  0  0
  161.9480  209.5610  148.6280 C   0  0  0  0  0  1  0  0  0  0  0  0
  1 12  1  0  0  0  0
  2 14  2  0  0  0  0
  4 11  1  0  0  0  0
  4 15  1  0  0  0  0
  5  1  2  0  0  0  0
  5 10  1  0  0  0  0
  7 14  1  0  0  0  0
  7  9  1  0  0  0  0
  8  6  1  0  0  0  0
  9  3  1  6  0  0  0
  9  5  1  0  0  0  0
 10  4  2  0  0  0  0
 12 11  2  0  0  0  0
 13  8  2  0  0  0  0
 13  1  1  0  0  0  0
 14 13  1  0  0  0  0
 15 24  1  0  0  0  0
 16 15  2  0  0  0  0
 16 17  1  0  0  0  0
 17 19  1  0  0  0  0
 19 18  1  6  0  0  0
 19 20  1  0  0  0  0
 20 22  1  0  0  0  0
 22 21  1  0  0  0  0
 22 23  2  0  0  0  0
 24 26  1  0  0  0  0
 26 27  2  0  0  0  0
 26 25  1  0  0  0  0
 29 28  1  6  0  0  0
 29 30  1  0  0  0  0
 29 10  1  0  0  0  0
 31 30  1  0  0  0  0
 31 32  1  0  0  0  0
M  END
>  <MODEL>
6

>  <REMARK>
 VINA RESULT:      -5.4      3.218      5.018
  Name = 
  10 active torsions:
  status: ('A' for Active; 'I' for Inactive)
    1  A    between atoms: C_1  and  C_11
    2  A    between atoms: C_1  and  O_30
    3  A    between atoms: C_3  and  C_5
    4  A    between atoms: C_3  and  C_8
    5  A    between atoms: O_4  and  C_24
    6  A    between atoms: C_5  and  C_25
    7  A    between atoms: C_12  and  C_25
    8  A    between atoms: C_20  and  C_29
    9  A    between atoms: C_24  and  C_29
   10  A    between atoms: C_26  and  O_30
                            x       y       z     vdW  Elec       q    Type
                         _______ _______ _______ _____ _____    ______ ____

>  <TORSDO>
F 10

$$$$
=
 OpenBabel11052411503D

 32 33  0  0  1  0  0  0  0  0999 V2000
  160.9420  203.0770  147.3440 C   0  0  0  0  0  0  0  0  0  0  0  0
  161.5120  199.5420  146.4700 O   0  0  0  0  0  0  0  0  0  0  0  0
  159.7300  201.3220  149.8930 C   0  0  0  0  0  1  0  0  0  0  0  0
  161.3240  205.4260  148.8640 C   0  0  0  0  0  0  0  0  0  0  0  0
  161.1660  202.9890  148.7410 C   0  0  0  0  0  0  0  0  0  0  0  0
  159.7630  202.9030  144.5110 C   0  0  0  0  0  1  0  0  0  0  0  0
  161.6180  200.5780  148.5480 N   0  0  0  0  0  2  0  0  0  0  0  0
  160.3320  201.7620  145.2850 C   0  0  0  0  0  3  0  0  0  0  0  0
  161.1400  201.6400  149.4280 C   0  0  2  0  0  3  0  0  0  0  0  0
  161.3440  204.1640  149.5090 C   0  0  0  0  0  0  0  0  0  0  0  0
  161.1030  205.4970  147.4880 C   0  0  0  0  0  3  0  0  0  0  0  0
  160.9210  204.3400  146.7390 C   0  0  0  0  0  3  0  0  0  0  0  0
  160.8310  201.8280  146.5300 C   0  0  0  0  0  0  0  0  0  0  0  0
  161.3220  200.5850  147.1520 C   0  0  0  0  0  0  0  0  0  0  0  0
  161.5260  206.6920  149.5930 C   0  0  0  0  0  0  0  0  0  0  0  0
  162.0810  206.6370  150.8040 C   0  0  0  0  0  3  0  0  0  0  0  0
  162.3310  207.8550  151.6350 C   0  0  0  0  0  2  0  0  0  0  0  0
  160.8090  208.0900  153.4580 O   0  0  0  0  0  1  0  0  0  0  0  0
  161.0240  208.4550  152.1270 C   0  0  1  0  0  3  0  0  0  0  0  0
  161.0920  209.9670  152.0110 C   0  0  0  0  0  2  0  0  0  0  0  0
  161.1040  211.0790  154.2760 N   0  0  0  0  0  1  0  0  0  0  0  0
  160.3760  210.6120  153.1480 C   0  0  0  0  0  0  0  0  0  0  0  0
  159.1280  210.7640  153.0990 O   0  0  0  0  0  0  0  0  0  0  0  0
  161.1620  207.9390  149.0560 O   0  0  0  0  0  0  0  0  0  0  0  0
  163.0810  208.5340  147.8860 O   0  0  0  0  0  0  0  0  0  0  0  0
  162.0310  208.8820  148.4890 C   0  0  0  0  0  0  0  0  0  0  0  0
  161.7160  210.2310  148.5790 O   0  0  0  0  0  1  0  0  0  0  0  0
  162.3130  202.9290  151.3140 F   0  0  0  0  0  0  0  0  0  0  0  0
  161.5510  204.0400  150.9980 C   0  0  2  0  0  3  0  0  0  0  0  0
  160.2290  204.0260  151.7450 C   0  0  0  0  0  2  0  0  0  0  0  0
  160.4560  203.8190  153.1050 O   0  0  0  0  0  0  0  0  0  0  0  0
  161.1820  204.9390  153.5110 C   0  0  0  0  0  1  0  0  0  0  0  0
  1  5  1  0  0  0  0
  2 14  2  0  0  0  0
  4 10  1  0  0  0  0
  4 15  1  0  0  0  0
  5  9  1  0  0  0  0
  5 10  2  0  0  0  0
  6  8  1  0  0  0  0
  7  9  1  0  0  0  0
  8 13  2  0  0  0  0
  9  3  1  6  0  0  0
 10 29  1  0  0  0  0
 11  4  2  0  0  0  0
 12  1  2  0  0  0  0
 12 11  1  0  0  0  0
 13 14  1  0  0  0  0
 13  1  1  0  0  0  0
 14  7  1  0  0  0  0
 15 16  2  0  0  0  0
 16 17  1  0  0  0  0
 17 19  1  0  0  0  0
 19 18  1  1  0  0  0
 20 19  1  0  0  0  0
 20 22  1  0  0  0  0
 22 21  1  0  0  0  0
 23 22  2  0  0  0  0
 24 15  1  0  0  0  0
 25 26  2  0  0  0  0
 26 27  1  0  0  0  0
 26 24  1  0  0  0  0
 29 28  1  6  0  0  0
 29 30  1  0  0  0  0
 30 31  1  0  0  0  0
 31 32  1  0  0  0  0
M  END
>  <MODEL>
7

>  <REMARK>
 VINA RESULT:      -5.1      3.651      6.506
  Name = 
  10 active torsions:
  status: ('A' for Active; 'I' for Inactive)
    1  A    between atoms: C_1  and  C_11
    2  A    between atoms: C_1  and  O_30
    3  A    between atoms: C_3  and  C_5
    4  A    between atoms: C_3  and  C_8
    5  A    between atoms: O_4  and  C_24
    6  A    between atoms: C_5  and  C_25
    7  A    between atoms: C_12  and  C_25
    8  A    between atoms: C_20  and  C_29
    9  A    between atoms: C_24  and  C_29
   10  A    between atoms: C_26  and  O_30
                            x       y       z     vdW  Elec       q    Type
                         _______ _______ _______ _____ _____    ______ ____

>  <TORSDO>
F 10

$$$$
=
 OpenBabel11052411503D

 32 33  0  0  1  0  0  0  0  0999 V2000
  161.3220  205.9760  148.1290 C   0  0  0  0  0  0  0  0  0  0  0  0
  161.7190  202.5210  146.9060 O   0  0  0  0  0  0  0  0  0  0  0  0
  160.0370  204.0360  150.5030 C   0  0  0  0  0  1  0  0  0  0  0  0
  161.8200  208.1420  149.8690 C   0  0  0  0  0  0  0  0  0  0  0  0
  161.5460  205.7400  149.5080 C   0  0  0  0  0  0  0  0  0  0  0  0
  160.1250  206.1380  145.3020 C   0  0  0  0  0  1  0  0  0  0  0  0
  161.8810  203.3410  149.0760 N   0  0  0  0  0  2  0  0  0  0  0  0
  160.6410  204.9010  145.9560 C   0  0  0  0  0  3  0  0  0  0  0  0
  161.4580  204.3320  150.0600 C   0  0  2  0  0  3  0  0  0  0  0  0
  161.7830  206.8240  150.3870 C   0  0  0  0  0  0  0  0  0  0  0  0
  161.5980  208.3600  148.5090 C   0  0  0  0  0  3  0  0  0  0  0  0
  161.3590  207.2910  147.6510 C   0  0  0  0  0  3  0  0  0  0  0  0
  161.1480  204.8190  147.1970 C   0  0  0  0  0  0  0  0  0  0  0  0
  161.5820  203.5000  147.6890 C   0  0  0  0  0  0  0  0  0  0  0  0
  162.0850  209.3190  150.7180 C   0  0  0  0  0  0  0  0  0  0  0  0
  161.7330  209.2590  152.0030 C   0  0  0  0  0  3  0  0  0  0  0  0
  161.9500  210.3920  152.9550 C   0  0  0  0  0  2  0  0  0  0  0  0
  161.0980  210.4570  155.1830 O   0  0  0  0  0  1  0  0  0  0  0  0
  160.7330  210.5970  153.8420 C   0  0  1  0  0  3  0  0  0  0  0  0
  160.1690  211.9850  153.6030 C   0  0  0  0  0  2  0  0  0  0  0  0
  157.7250  211.5240  154.0290 N   0  0  0  0  0  1  0  0  0  0  0  0
  158.7580  211.9030  153.1290 C   0  0  0  0  0  0  0  0  0  0  0  0
  158.4780  212.1910  151.9360 O   0  0  0  0  0  0  0  0  0  0  0  0
  162.6970  210.4850  150.2230 O   0  0  0  0  0  0  0  0  0  0  0  0
  161.1100  212.1410  149.8450 O   0  0  0  0  0  1  0  0  0  0  0  0
  162.0880  211.4650  149.4270 C   0  0  0  0  0  0  0  0  0  0  0  0
  162.5880  211.7100  148.1560 O   0  0  0  0  0  0  0  0  0  0  0  0
  162.8110  205.4470  152.0520 F   0  0  0  0  0  0  0  0  0  0  0  0
  161.9890  206.5430  151.8550 C   0  0  2  0  0  3  0  0  0  0  0  0
  160.6660  206.3720  152.5810 C   0  0  0  0  0  2  0  0  0  0  0  0
  160.8910  205.8790  153.8660 O   0  0  0  0  0  0  0  0  0  0  0  0
  160.6380  206.9650  154.7040 C   0  0  0  0  0  1  0  0  0  0  0  0
  1  5  1  0  0  0  0
  2 14  2  0  0  0  0
  4 10  1  0  0  0  0
  4 15  1  0  0  0  0
  5  9  1  0  0  0  0
  5 10  2  0  0  0  0
  6  8  1  0  0  0  0
  7  9  1  0  0  0  0
  8 13  2  0  0  0  0
  9  3  1  6  0  0  0
 10 29  1  0  0  0  0
 11  4  2  0  0  0  0
 12  1  2  0  0  0  0
 12 11  1  0  0  0  0
 13 14  1  0  0  0  0
 13  1  1  0  0  0  0
 14  7  1  0  0  0  0
 15 16  2  0  0  0  0
 16 17  1  0  0  0  0
 17 19  1  0  0  0  0
 19 18  1  1  0  0  0
 20 19  1  0  0  0  0
 22 20  1  0  0  0  0
 22 21  1  0  0  0  0
 23 22  2  0  0  0  0
 24 15  1  0  0  0  0
 26 25  1  0  0  0  0
 26 24  1  0  0  0  0
 27 26  2  0  0  0  0
 29 28  1  6  0  0  0
 29 30  1  0  0  0  0
 30 31  1  0  0  0  0
 31 32  1  0  0  0  0
M  END
>  <MODEL>
8

>  <REMARK>
 VINA RESULT:      -5.0      2.605      4.947
  Name = 
  10 active torsions:
  status: ('A' for Active; 'I' for Inactive)
    1  A    between atoms: C_1  and  C_11
    2  A    between atoms: C_1  and  O_30
    3  A    between atoms: C_3  and  C_5
    4  A    between atoms: C_3  and  C_8
    5  A    between atoms: O_4  and  C_24
    6  A    between atoms: C_5  and  C_25
    7  A    between atoms: C_12  and  C_25
    8  A    between atoms: C_20  and  C_29
    9  A    between atoms: C_24  and  C_29
   10  A    between atoms: C_26  and  O_30
                            x       y       z     vdW  Elec       q    Type
                         _______ _______ _______ _____ _____    ______ ____

>  <TORSDO>
F 10

$$$$
=
 OpenBabel11052411503D

 32 33  0  0  1  0  0  0  0  0999 V2000
  157.9800  212.3980  154.3360 C   0  0  0  0  0  0  0  0  0  0  0  0
  155.4320  213.9420  156.5060 O   0  0  0  0  0  0  0  0  0  0  0  0
  159.5970  213.3260  157.0880 C   0  0  0  0  0  1  0  0  0  0  0  0
  159.8790  210.4330  153.6260 C   0  0  0  0  0  0  0  0  0  0  0  0
  158.7620  211.7730  155.3390 C   0  0  0  0  0  0  0  0  0  0  0  0
  156.6450  214.4190  152.4450 C   0  0  0  0  0  1  0  0  0  0  0  0
  157.2630  212.6340  157.0900 N   0  0  0  0  0  2  0  0  0  0  0  0
  156.3220  214.2390  153.8890 C   0  0  0  0  0  3  0  0  0  0  0  0
  158.6240  212.2010  156.7850 C   0  0  2  0  0  3  0  0  0  0  0  0
  159.7250  210.7970  154.9860 C   0  0  0  0  0  0  0  0  0  0  0  0
  159.1020  211.0560  152.6490 C   0  0  0  0  0  3  0  0  0  0  0  0
  158.1620  212.0190  153.0000 C   0  0  0  0  0  3  0  0  0  0  0  0
  156.9150  213.3710  154.7260 C   0  0  0  0  0  0  0  0  0  0  0  0
  156.4850  213.3560  156.1350 C   0  0  0  0  0  0  0  0  0  0  0  0
  160.8430  209.4070  153.1850 C   0  0  0  0  0  0  0  0  0  0  0  0
  161.2660  209.4460  151.9200 C   0  0  0  0  0  3  0  0  0  0  0  0
  162.2390  208.4560  151.3630 C   0  0  0  0  0  2  0  0  0  0  0  0
  162.4880  208.1650  149.0080 O   0  0  0  0  0  1  0  0  0  0  0  0
  161.6940  207.8090  150.1010 C   0  0  1  0  0  3  0  0  0  0  0  0
  161.6960  206.3010  150.2710 C   0  0  0  0  0  2  0  0  0  0  0  0
  160.9830  204.2520  148.9820 N   0  0  0  0  0  1  0  0  0  0  0  0
  160.8810  205.6520  149.2050 C   0  0  0  0  0  0  0  0  0  0  0  0
  160.0850  206.3410  148.5150 O   0  0  0  0  0  0  0  0  0  0  0  0
  161.3300  208.4080  154.0460 O   0  0  0  0  0  0  0  0  0  0  0  0
  160.7430  206.2180  153.5340 O   0  0  0  0  0  0  0  0  0  0  0  0
  160.7040  207.1880  154.3370 C   0  0  0  0  0  0  0  0  0  0  0  0
  160.0410  207.0400  155.5470 O   0  0  0  0  0  1  0  0  0  0  0  0
  159.8130  209.9110  157.2070 F   0  0  0  0  0  0  0  0  0  0  0  0
  160.5630  210.1700  156.0730 C   0  0  2  0  0  3  0  0  0  0  0  0
  161.7760  211.0230  156.4040 C   0  0  0  0  0  2  0  0  0  0  0  0
  162.8830  210.2050  156.6260 O   0  0  0  0  0  0  0  0  0  0  0  0
  163.8060  211.0360  157.2610 C   0  0  0  0  0  1  0  0  0  0  0  0
  1 13  1  0  0  0  0
  1  5  1  0  0  0  0
  4 10  1  0  0  0  0
  5  9  1  0  0  0  0
  6  8  1  0  0  0  0
  8 13  2  0  0  0  0
  9  3  1  6  0  0  0
  9  7  1  0  0  0  0
 10  5  2  0  0  0  0
 10 29  1  0  0  0  0
 11 12  1  0  0  0  0
 11  4  2  0  0  0  0
 12  1  2  0  0  0  0
 13 14  1  0  0  0  0
 14  2  2  0  0  0  0
 14  7  1  0  0  0  0
 15  4  1  0  0  0  0
 15 24  1  0  0  0  0
 16 15  2  0  0  0  0
 17 16  1  0  0  0  0
 19 18  1  6  0  0  0
 19 20  1  0  0  0  0
 19 17  1  0  0  0  0
 21 22  1  0  0  0  0
 22 20  1  0  0  0  0
 23 22  2  0  0  0  0
 24 26  1  0  0  0  0
 25 26  2  0  0  0  0
 26 27  1  0  0  0  0
 29 30  1  0  0  0  0
 29 28  1  1  0  0  0
 30 31  1  0  0  0  0
 31 32  1  0  0  0  0
M  END
>  <MODEL>
9

>  <REMARK>
 VINA RESULT:      -4.9      2.335      7.736
  Name = 
  10 active torsions:
  status: ('A' for Active; 'I' for Inactive)
    1  A    between atoms: C_1  and  C_11
    2  A    between atoms: C_1  and  O_30
    3  A    between atoms: C_3  and  C_5
    4  A    between atoms: C_3  and  C_8
    5  A    between atoms: O_4  and  C_24
    6  A    between atoms: C_5  and  C_25
    7  A    between atoms: C_12  and  C_25
    8  A    between atoms: C_20  and  C_29
    9  A    between atoms: C_24  and  C_29
   10  A    between atoms: C_26  and  O_30
                            x       y       z     vdW  Elec       q    Type
                         _______ _______ _______ _____ _____    ______ ____

>  <TORSDO>
F 10

$$$$
