=
 OpenBabel11052411293D

 57 62  0  0  1  0  0  0  0  0999 V2000
  162.2490  210.5030  149.0410 C   0  0  1  0  0  3  0  0  0  0  0  0
  163.3240  211.1710  148.2420 C   0  0  0  0  0  3  0  0  0  0  0  0
  160.6040  212.4460  148.0620 C   0  0  2  0  0  3  0  0  0  0  0  0
  161.8790  213.2180  147.6990 C   0  0  1  0  0  3  0  0  0  0  0  0
  163.1470  212.3700  147.6470 C   0  0  0  0  0  3  0  0  0  0  0  0
  160.3990  211.0870  147.3720 C   0  0  0  0  0  2  0  0  0  0  0  0
  161.1070  209.9690  148.1570 C   0  0  0  0  0  2  0  0  0  0  0  0
  159.3890  213.2570  148.1480 N   0  0  0  0  0  0  0  0  0  0  0  0
  156.0630  211.1180  155.1600 C   0  0  0  0  0  1  0  0  0  0  0  0
  159.8190  213.7120  150.4910 C   0  0  0  0  0  3  0  0  0  0  0  0
  157.2210  213.7370  153.0470 N   0  0  0  0  0  0  0  0  0  0  0  0
  158.9940  213.4060  154.7100 C   0  0  0  0  0  1  0  0  0  0  0  0
  159.0120  213.8150  149.2560 C   0  0  0  0  0  0  0  0  0  0  0  0
  157.0830  214.1890  150.7230 N   0  0  0  0  0  0  0  0  0  0  0  0
  157.8460  214.2980  154.2400 C   0  0  2  0  0  3  0  0  0  0  0  0
  157.6500  214.4270  149.3820 C   0  0  0  0  0  2  0  0  0  0  0  0
  159.2460  213.8440  151.6480 N   0  0  0  0  0  0  0  0  0  0  0  0
  157.8280  214.0150  151.7760 C   0  0  0  0  0  0  0  0  0  0  0  0
  156.8240  214.4410  155.3280 C   0  0  0  0  0  3  0  0  0  0  0  0
  156.3870  212.5370  153.1420 C   0  0  0  0  0  2  0  0  0  0  0  0
  155.8050  213.5750  155.4180 C   0  0  0  0  0  3  0  0  0  0  0  0
  155.6310  212.4100  154.4750 C   0  0  2  0  0  3  0  0  0  0  0  0
  162.2200  213.5370  145.3240 N   0  0  0  0  0  0  0  0  0  0  0  0
  161.7270  214.0030  146.4300 C   0  0  0  0  0  3  0  0  0  0  0  0
  161.9850  214.1910  144.0970 N   0  0  0  0  0  2  0  0  0  0  0  0
  162.3900  213.6400  142.8370 C   0  0  0  0  0  0  0  0  0  0  0  0
  163.0640  212.5750  142.7740 O   0  0  0  0  0  0  0  0  0  0  0  0
  162.0640  214.3930  141.5760 C   0  0  0  0  0  2  0  0  0  0  0  0
  160.8160  211.1680  140.5710 C   0  0  2  0  0  3  0  0  0  0  0  0
  161.5920  209.8530  140.5180 C   0  0  0  0  0  2  0  0  0  0  0  0
  161.4250  214.4500  138.8390 O   0  0  0  0  0  1  0  0  0  0  0  0
  160.0940  213.0770  141.9820 C   0  0  0  0  0  2  0  0  0  0  0  0
  160.7190  214.0660  141.0760 N   0  0  0  0  0  0  0  0  0  0  0  0
  161.3710  211.6060  138.1860 C   0  0  0  0  0  2  0  0  0  0  0  0
  162.0890  210.2660  138.0790 C   0  0  0  0  0  2  0  0  0  0  0  0
  161.4850  212.1620  139.6130 C   0  0  1  0  0  3  0  0  0  0  0  0
  160.8140  211.7260  141.9800 C   0  0  0  0  0  2  0  0  0  0  0  0
  161.5220  209.2750  139.1020 C   0  0  0  0  0  2  0  0  0  0  0  0
  160.7930  213.5330  139.6910 C   0  0  2  0  0  3  0  0  0  0  0  0
  162.8160  209.4200  149.9200 C   0  0  0  0  0  2  0  0  0  0  0  0
  161.9050  208.2040  149.8020 C   0  0  0  0  0  2  0  0  0  0  0  0
  162.2230  207.1740  150.8750 C   0  0  2  0  0  3  0  0  0  0  0  0
  160.7350  205.5590  149.6680 C   0  0  0  0  0  1  0  0  0  0  0  0
  161.0430  206.2240  151.0050 C   0  0  0  0  0  2  0  0  0  0  0  0
  162.4790  207.8570  152.1510 N   0  0  0  0  0  2  0  0  0  0  0  0
  161.2970  207.9450  153.0280 C   0  0  0  0  0  0  0  0  0  0  0  0
  160.7150  206.6760  153.2530 O   0  0  0  0  0  1  0  0  0  0  0  0
  160.3710  208.7770  152.3990 O   0  0  0  0  0  1  0  0  0  0  0  0
  160.1640  207.7020  155.9750 C   0  0  0  0  0  0  0  0  0  0  0  0
  159.1160  208.5740  155.3480 C   0  0  0  0  0  2  0  0  0  0  0  0
  161.9760  210.6050  155.8280 C   0  0  0  0  0  1  0  0  0  0  0  0
  159.6760  210.0000  155.1650 C   0  0  0  0  0  2  0  0  0  0  0  0
  161.1550  210.0330  154.6770 C   0  0  0  0  0  0  0  0  0  0  0  0
  159.8710  206.9990  157.2570 C   0  0  0  0  0  1  0  0  0  0  0  0
  161.3040  210.9790  153.4880 C   0  0  0  0  0  1  0  0  0  0  0  0
  161.3840  207.7660  155.5430 N   0  0  0  0  0  0  0  0  0  0  0  0
  161.7050  208.5990  154.3890 C   0  0  1  0  0  3  0  0  0  0  0  0
  1 40  1  6  0  0  0
  2  1  1  0  0  0  0
  3  8  1  6  0  0  0
  4 24  1  6  0  0  0
  4  3  1  0  0  0  0
  5  4  1  0  0  0  0
  5  2  2  0  0  0  0
  6  3  1  0  0  0  0
  6  7  1  0  0  0  0
  7  1  1  0  0  0  0
  8 13  2  0  0  0  0
 10 17  2  0  0  0  0
 11 20  1  0  0  0  0
 11 15  1  0  0  0  0
 13 16  1  0  0  0  0
 13 10  1  0  0  0  0
 14 18  2  0  0  0  0
 15 12  1  1  0  0  0
 15 19  1  0  0  0  0
 16 14  1  0  0  0  0
 17 18  1  0  0  0  0
 18 11  1  0  0  0  0
 19 21  2  0  0  0  0
 20 22  1  0  0  0  0
 22  9  1  1  0  0  0
 22 21  1  0  0  0  0
 23 24  2  0  0  0  0
 25 23  1  0  0  0  0
 26 25  1  0  0  0  0
 27 26  2  0  0  0  0
 28 26  1  0  0  0  0
 29 30  1  1  0  0  0
 29 37  1  0  0  0  0
 33 28  1  0  0  0  0
 33 32  1  0  0  0  0
 35 34  1  0  0  0  0
 35 38  1  0  0  0  0
 36 34  1  6  0  0  0
 36 39  1  0  0  0  0
 36 29  1  0  0  0  0
 37 32  1  0  0  0  0
 38 30  1  0  0  0  0
 39 31  1  6  0  0  0
 39 33  1  0  0  0  0
 41 40  1  0  0  0  0
 42 41  1  6  0  0  0
 42 44  1  0  0  0  0
 42 45  1  0  0  0  0
 43 44  1  0  0  0  0
 45 46  1  0  0  0  0
 46 47  1  0  0  0  0
 48 46  1  0  0  0  0
 49 54  1  0  0  0  0
 50 49  1  0  0  0  0
 52 50  1  0  0  0  0
 53 52  1  0  0  0  0
 53 51  1  0  0  0  0
 55 53  1  0  0  0  0
 56 49  2  0  0  0  0
 57 46  1  6  0  0  0
 57 53  1  0  0  0  0
 57 56  1  0  0  0  0
M  END
>  <MODEL>
1

>  <REMARK>
 VINA RESULT:      -3.7      0.000      0.000
  Name = 
  12 active torsions:
  status: ('A' for Active; 'I' for Inactive)
    1  A    between atoms: N_1  and  C_9
    2  A    between atoms: C_2  and  C_3
    3  A    between atoms: C_2  and  C_22
    4  A    between atoms: N_18  and  C_52
    5  A    between atoms: N_20  and  N_21
    6  A    between atoms: C_22  and  C_28
    7  A    between atoms: C_23  and  N_29
    8  A    between atoms: C_23  and  C_56
    9  A    between atoms: C_26  and  C_52
   10  A    between atoms: C_27  and  C_39
   11  A    between atoms: C_28  and  N_29
   12  A    between atoms: C_28  and  C_40
                            x       y       z     vdW  Elec       q    Type
                         _______ _______ _______ _____ _____    ______ ____

>  <TORSDO>
F 12

$$$$
=
 OpenBabel11052411293D

 57 62  0  0  1  0  0  0  0  0999 V2000
  161.3030  203.3700  151.0720 C   0  0  1  0  0  3  0  0  0  0  0  0
  161.2620  204.4080  149.9930 C   0  0  0  0  0  3  0  0  0  0  0  0
  161.7390  205.4580  152.7730 C   0  0  2  0  0  3  0  0  0  0  0  0
  162.1060  206.2780  151.5300 C   0  0  1  0  0  3  0  0  0  0  0  0
  161.6140  205.6930  150.2090 C   0  0  0  0  0  3  0  0  0  0  0  0
  160.3000  204.9200  152.8440 C   0  0  0  0  0  2  0  0  0  0  0  0
  160.1910  203.5680  152.1180 C   0  0  0  0  0  2  0  0  0  0  0  0
  162.2360  205.9930  154.0400 N   0  0  0  0  0  0  0  0  0  0  0  0
  159.4210  213.5330  154.2570 C   0  0  0  0  0  1  0  0  0  0  0  0
  160.0930  207.0410  154.4770 C   0  0  0  0  0  3  0  0  0  0  0  0
  159.7350  210.3840  155.8850 N   0  0  0  0  0  0  0  0  0  0  0  0
  157.4620  210.4200  154.9630 C   0  0  0  0  0  1  0  0  0  0  0  0
  161.5010  206.7360  154.8090 C   0  0  0  0  0  0  0  0  0  0  0  0
  161.4830  208.8000  156.1310 N   0  0  0  0  0  0  0  0  0  0  0  0
  158.3220  210.5220  156.2220 C   0  0  2  0  0  3  0  0  0  0  0  0
  162.1010  207.4710  155.9680 C   0  0  0  0  0  2  0  0  0  0  0  0
  159.5350  208.1110  154.9560 N   0  0  0  0  0  0  0  0  0  0  0  0
  160.2670  209.0580  155.7460 C   0  0  0  0  0  0  0  0  0  0  0  0
  158.0890  211.8370  156.9030 C   0  0  0  0  0  3  0  0  0  0  0  0
  160.4400  211.4630  155.1910 C   0  0  0  0  0  2  0  0  0  0  0  0
  158.8370  212.9040  156.5880 C   0  0  0  0  0  3  0  0  0  0  0  0
  159.9180  212.8690  155.5370 C   0  0  2  0  0  3  0  0  0  0  0  0
  161.2190  208.3350  150.6120 N   0  0  0  0  0  0  0  0  0  0  0  0
  161.6870  207.7130  151.6510 C   0  0  0  0  0  3  0  0  0  0  0  0
  160.7020  209.6410  150.7250 N   0  0  0  0  0  2  0  0  0  0  0  0
  161.4920  210.8110  150.4720 C   0  0  0  0  0  0  0  0  0  0  0  0
  162.7260  210.7250  150.2200 O   0  0  0  0  0  0  0  0  0  0  0  0
  160.8450  212.1640  150.5840 C   0  0  0  0  0  2  0  0  0  0  0  0
  158.8040  213.9940  148.2490 C   0  0  2  0  0  3  0  0  0  0  0  0
  157.2830  213.9450  148.1150 C   0  0  0  0  0  2  0  0  0  0  0  0
  161.3830  211.2700  147.9740 O   0  0  0  0  0  1  0  0  0  0  0  0
  160.7260  214.4190  149.7600 C   0  0  0  0  0  2  0  0  0  0  0  0
  161.2950  213.0750  149.5190 N   0  0  0  0  0  0  0  0  0  0  0  0
  159.0260  212.2090  146.5310 C   0  0  0  0  0  2  0  0  0  0  0  0
  157.5160  212.1870  146.3210 C   0  0  0  0  0  2  0  0  0  0  0  0
  159.3580  212.5890  147.9820 C   0  0  1  0  0  3  0  0  0  0  0  0
  159.2010  214.4520  149.6380 C   0  0  0  0  0  2  0  0  0  0  0  0
  156.9090  213.5460  146.6850 C   0  0  0  0  0  2  0  0  0  0  0  0
  160.8820  212.5630  148.1870 C   0  0  2  0  0  3  0  0  0  0  0  0
  161.2740  201.9810  150.4940 C   0  0  0  0  0  2  0  0  0  0  0  0
  160.1610  201.9350  149.4550 C   0  0  0  0  0  2  0  0  0  0  0  0
  160.6670  201.3840  148.1300 C   0  0  2  0  0  3  0  0  0  0  0  0
  161.9290  199.4280  147.2040 C   0  0  0  0  0  1  0  0  0  0  0  0
  161.7300  200.3360  148.4120 C   0  0  0  0  0  2  0  0  0  0  0  0
  161.2220  202.4810  147.3240 N   0  0  0  0  0  2  0  0  0  0  0  0
  160.6860  202.5410  145.9520 C   0  0  0  0  0  0  0  0  0  0  0  0
  159.2920  202.7800  145.9420 O   0  0  0  0  0  1  0  0  0  0  0  0
  160.9520  201.3130  145.3450 O   0  0  0  0  0  1  0  0  0  0  0  0
  161.9130  205.3430  146.7710 C   0  0  0  0  0  0  0  0  0  0  0  0
  160.4500  205.6760  146.7630 C   0  0  0  0  0  2  0  0  0  0  0  0
  161.4510  205.3990  143.3770 C   0  0  0  0  0  1  0  0  0  0  0  0
  159.9540  205.7760  145.3050 C   0  0  0  0  0  2  0  0  0  0  0  0
  160.5410  204.6790  144.3680 C   0  0  0  0  0  0  0  0  0  0  0  0
  162.8730  206.2470  147.4680 C   0  0  0  0  0  1  0  0  0  0  0  0
  159.4260  204.0080  143.5690 C   0  0  0  0  0  1  0  0  0  0  0  0
  162.3610  204.4290  145.9700 N   0  0  0  0  0  0  0  0  0  0  0  0
  161.4300  203.6600  145.1500 C   0  0  1  0  0  3  0  0  0  0  0  0
  1 40  1  6  0  0  0
  1  7  1  0  0  0  0
  2  5  2  0  0  0  0
  2  1  1  0  0  0  0
  3  6  1  0  0  0  0
  3  8  1  1  0  0  0
  4 24  1  1  0  0  0
  4  3  1  0  0  0  0
  5  4  1  0  0  0  0
  7  6  1  0  0  0  0
  8 13  2  0  0  0  0
 10 13  1  0  0  0  0
 10 17  2  0  0  0  0
 11 15  1  0  0  0  0
 13 16  1  0  0  0  0
 15 12  1  6  0  0  0
 15 19  1  0  0  0  0
 16 14  1  0  0  0  0
 17 18  1  0  0  0  0
 18 11  1  0  0  0  0
 18 14  2  0  0  0  0
 20 22  1  0  0  0  0
 20 11  1  0  0  0  0
 21 19  2  0  0  0  0
 22  9  1  6  0  0  0
 22 21  1  0  0  0  0
 23 25  1  0  0  0  0
 23 24  2  0  0  0  0
 26 28  1  0  0  0  0
 26 25  1  0  0  0  0
 27 26  2  0  0  0  0
 29 30  1  1  0  0  0
 29 37  1  0  0  0  0
 33 32  1  0  0  0  0
 33 28  1  0  0  0  0
 35 34  1  0  0  0  0
 35 38  1  0  0  0  0
 36 34  1  6  0  0  0
 36 39  1  0  0  0  0
 36 29  1  0  0  0  0
 37 32  1  0  0  0  0
 38 30  1  0  0  0  0
 39 31  1  1  0  0  0
 39 33  1  0  0  0  0
 41 40  1  0  0  0  0
 42 44  1  1  0  0  0
 42 41  1  0  0  0  0
 43 44  1  0  0  0  0
 45 42  1  0  0  0  0
 46 45  1  0  0  0  0
 47 46  1  0  0  0  0
 48 46  1  0  0  0  0
 49 54  1  0  0  0  0
 50 49  1  0  0  0  0
 51 53  1  0  0  0  0
 52 50  1  0  0  0  0
 53 57  1  0  0  0  0
 53 52  1  0  0  0  0
 55 53  1  0  0  0  0
 56 49  2  0  0  0  0
 57 46  1  1  0  0  0
 57 56  1  0  0  0  0
M  END
>  <MODEL>
2

>  <REMARK>
 VINA RESULT:      -1.8      4.014      8.356
  Name = 
  12 active torsions:
  status: ('A' for Active; 'I' for Inactive)
    1  A    between atoms: N_1  and  C_9
    2  A    between atoms: C_2  and  C_3
    3  A    between atoms: C_2  and  C_22
    4  A    between atoms: N_18  and  C_52
    5  A    between atoms: N_20  and  N_21
    6  A    between atoms: C_22  and  C_28
    7  A    between atoms: C_23  and  N_29
    8  A    between atoms: C_23  and  C_56
    9  A    between atoms: C_26  and  C_52
   10  A    between atoms: C_27  and  C_39
   11  A    between atoms: C_28  and  N_29
   12  A    between atoms: C_28  and  C_40
                            x       y       z     vdW  Elec       q    Type
                         _______ _______ _______ _____ _____    ______ ____

>  <TORSDO>
F 12

$$$$
=
 OpenBabel11052411293D

 57 62  0  0  1  0  0  0  0  0999 V2000
  162.3180  209.5160  150.1470 C   0  0  1  0  0  3  0  0  0  0  0  0
  162.8520  209.6420  148.7530 C   0  0  0  0  0  3  0  0  0  0  0  0
  161.0330  211.8690  149.6430 C   0  0  2  0  0  3  0  0  0  0  0  0
  162.0030  212.0450  148.4670 C   0  0  1  0  0  3  0  0  0  0  0  0
  162.7010  210.7640  148.0170 C   0  0  0  0  0  3  0  0  0  0  0  0
  160.0950  210.6520  149.5880 C   0  0  0  0  0  2  0  0  0  0  0  0
  160.7830  209.4100  150.1800 C   0  0  0  0  0  2  0  0  0  0  0  0
  160.3860  213.0970  150.1040 N   0  0  0  0  0  0  0  0  0  0  0  0
  155.1880  210.6170  155.7280 C   0  0  0  0  0  1  0  0  0  0  0  0
  160.5360  212.3510  152.4060 C   0  0  0  0  0  3  0  0  0  0  0  0
  157.8610  212.7930  154.8430 N   0  0  0  0  0  0  0  0  0  0  0  0
  158.8910  210.9890  156.1500 C   0  0  0  0  0  1  0  0  0  0  0  0
  160.1330  213.3120  151.3570 C   0  0  0  0  0  0  0  0  0  0  0  0
  158.4050  214.0720  152.9220 N   0  0  0  0  0  0  0  0  0  0  0  0
  158.4450  212.4510  156.1360 C   0  0  2  0  0  3  0  0  0  0  0  0
  159.2550  214.4520  151.7790 C   0  0  0  0  0  2  0  0  0  0  0  0
  159.8960  212.3250  153.5360 N   0  0  0  0  0  0  0  0  0  0  0  0
  158.7530  213.1560  153.7780 C   0  0  0  0  0  0  0  0  0  0  0  0
  157.4430  212.6960  157.2250 C   0  0  0  0  0  3  0  0  0  0  0  0
  156.5430  212.2790  154.4660 C   0  0  0  0  0  2  0  0  0  0  0  0
  156.1330  212.5370  156.9890 C   0  0  0  0  0  3  0  0  0  0  0  0
  155.5870  212.0860  155.6560 C   0  0  2  0  0  3  0  0  0  0  0  0
  161.9330  212.6790  146.1320 N   0  0  0  0  0  0  0  0  0  0  0  0
  161.3600  212.7250  147.2960 C   0  0  0  0  0  3  0  0  0  0  0  0
  161.2920  213.2010  144.9910 N   0  0  0  0  0  2  0  0  0  0  0  0
  161.9040  213.2080  143.6950 C   0  0  0  0  0  0  0  0  0  0  0  0
  163.0950  212.8230  143.5310 O   0  0  0  0  0  0  0  0  0  0  0  0
  161.1290  213.7540  142.5270 C   0  0  0  0  0  2  0  0  0  0  0  0
  161.3650  211.4980  139.7310 C   0  0  2  0  0  3  0  0  0  0  0  0
  162.5250  211.3660  138.7450 C   0  0  0  0  0  2  0  0  0  0  0  0
  159.2040  214.4510  140.6000 O   0  0  0  0  0  1  0  0  0  0  0  0
  160.6670  211.4320  142.1110 C   0  0  0  0  0  2  0  0  0  0  0  0
  160.1110  212.8020  142.0520 N   0  0  0  0  0  0  0  0  0  0  0  0
  160.2490  213.1260  138.2180 C   0  0  0  0  0  2  0  0  0  0  0  0
  161.3540  212.9610  137.1810 C   0  0  0  0  0  2  0  0  0  0  0  0
  160.8090  212.9240  139.6330 C   0  0  1  0  0  3  0  0  0  0  0  0
  161.8350  211.2190  141.1440 C   0  0  0  0  0  2  0  0  0  0  0  0
  162.0120  211.5840  137.3190 C   0  0  0  0  0  2  0  0  0  0  0  0
  159.6900  213.1370  140.6680 C   0  0  2  0  0  3  0  0  0  0  0  0
  162.9650  208.3690  150.8770 C   0  0  0  0  0  2  0  0  0  0  0  0
  162.4980  207.0780  150.2160 C   0  0  0  0  0  2  0  0  0  0  0  0
  161.4930  206.3440  151.0910 C   0  0  2  0  0  3  0  0  0  0  0  0
  161.0910  205.6920  153.4770 C   0  0  0  0  0  1  0  0  0  0  0  0
  161.7690  206.6900  152.5450 C   0  0  0  0  0  2  0  0  0  0  0  0
  161.6170  204.8970  150.8710 N   0  0  0  0  0  2  0  0  0  0  0  0
  160.8420  204.4010  149.7190 C   0  0  0  0  0  0  0  0  0  0  0  0
  160.5140  205.4420  148.8190 O   0  0  0  0  0  1  0  0  0  0  0  0
  159.6710  203.8300  150.2170 O   0  0  0  0  0  1  0  0  0  0  0  0
  162.0110  204.1560  146.7860 C   0  0  0  0  0  0  0  0  0  0  0  0
  160.5560  203.8990  146.5240 C   0  0  0  0  0  2  0  0  0  0  0  0
  161.8420  200.9850  148.0710 C   0  0  0  0  0  1  0  0  0  0  0  0
  160.1880  202.4840  147.0140 C   0  0  0  0  0  2  0  0  0  0  0  0
  160.8460  202.1010  148.3730 C   0  0  0  0  0  0  0  0  0  0  0  0
  162.9130  204.5200  145.6550 C   0  0  0  0  0  1  0  0  0  0  0  0
  159.8010  201.5400  149.3340 C   0  0  0  0  0  1  0  0  0  0  0  0
  162.5200  203.8160  147.9270 N   0  0  0  0  0  0  0  0  0  0  0  0
  161.6590  203.2890  148.9810 C   0  0  1  0  0  3  0  0  0  0  0  0
  1  7  1  0  0  0  0
  1 40  1  6  0  0  0
  2  1  1  0  0  0  0
  3  8  1  6  0  0  0
  4 24  1  6  0  0  0
  4  3  1  0  0  0  0
  5  4  1  0  0  0  0
  5  2  2  0  0  0  0
  6  3  1  0  0  0  0
  6  7  1  0  0  0  0
  8 13  2  0  0  0  0
 10 17  2  0  0  0  0
 11 15  1  0  0  0  0
 13 16  1  0  0  0  0
 13 10  1  0  0  0  0
 14 18  2  0  0  0  0
 15 12  1  6  0  0  0
 15 19  1  0  0  0  0
 16 14  1  0  0  0  0
 17 18  1  0  0  0  0
 18 11  1  0  0  0  0
 20 11  1  0  0  0  0
 20 22  1  0  0  0  0
 21 19  2  0  0  0  0
 22  9  1  1  0  0  0
 22 21  1  0  0  0  0
 23 24  2  0  0  0  0
 25 23  1  0  0  0  0
 26 25  1  0  0  0  0
 27 26  2  0  0  0  0
 28 26  1  0  0  0  0
 29 30  1  6  0  0  0
 29 37  1  0  0  0  0
 33 32  1  0  0  0  0
 33 28  1  0  0  0  0
 35 38  1  0  0  0  0
 35 34  1  0  0  0  0
 36 34  1  6  0  0  0
 36 29  1  0  0  0  0
 36 39  1  0  0  0  0
 37 32  1  0  0  0  0
 38 30  1  0  0  0  0
 39 31  1  1  0  0  0
 39 33  1  0  0  0  0
 41 40  1  0  0  0  0
 42 41  1  6  0  0  0
 42 44  1  0  0  0  0
 44 43  1  0  0  0  0
 45 42  1  0  0  0  0
 46 48  1  0  0  0  0
 46 45  1  0  0  0  0
 47 46  1  0  0  0  0
 49 56  2  0  0  0  0
 50 49  1  0  0  0  0
 50 52  1  0  0  0  0
 51 53  1  0  0  0  0
 52 53  1  0  0  0  0
 53 57  1  0  0  0  0
 53 55  1  0  0  0  0
 54 49  1  0  0  0  0
 56 57  1  0  0  0  0
 57 46  1  6  0  0  0
M  END
>  <MODEL>
3

>  <REMARK>
 VINA RESULT:      -0.8      2.331      4.664
  Name = 
  12 active torsions:
  status: ('A' for Active; 'I' for Inactive)
    1  A    between atoms: N_1  and  C_9
    2  A    between atoms: C_2  and  C_3
    3  A    between atoms: C_2  and  C_22
    4  A    between atoms: N_18  and  C_52
    5  A    between atoms: N_20  and  N_21
    6  A    between atoms: C_22  and  C_28
    7  A    between atoms: C_23  and  N_29
    8  A    between atoms: C_23  and  C_56
    9  A    between atoms: C_26  and  C_52
   10  A    between atoms: C_27  and  C_39
   11  A    between atoms: C_28  and  N_29
   12  A    between atoms: C_28  and  C_40
                            x       y       z     vdW  Elec       q    Type
                         _______ _______ _______ _____ _____    ______ ____

>  <TORSDO>
F 12

$$$$
