=
 OpenBabel11042421023D

 28 30  0  0  1  0  0  0  0  0999 V2000
  161.2330  207.6660  150.4020 N   0  0  0  0  0  2  0  0  0  0  0  0
  160.4550  206.5420  152.7810 F   0  0  0  0  0  0  0  0  0  0  0  0
  161.0130  207.7790  152.7770 C   0  0  0  0  0  3  0  0  0  0  0  0
  161.4010  208.3530  151.6450 C   0  0  0  0  0  0  0  0  0  0  0  0
  162.1290  209.9920  151.7060 S   0  0  0  0  0  0  0  0  0  0  0  0
  158.3870  212.8030  151.3660 N   0  0  0  0  0  1  0  0  0  0  0  0
  158.2400  212.1180  153.7440 N   0  0  0  0  0  2  0  0  0  0  0  0
  159.8380  211.2390  152.3620 C   0  0  0  0  0  0  0  0  0  0  0  0
  162.4160  210.5250  154.8630 C   0  0  0  0  0  1  0  0  0  0  0  0
  158.7470  211.9190  152.4200 C   0  0  0  0  0  0  0  0  0  0  0  0
  160.8690  210.6160  152.8180 C   0  0  0  0  0  0  0  0  0  0  0  0
  160.0560  211.0410  155.1490 C   0  0  0  0  0  3  0  0  0  0  0  0
  158.5650  211.1870  154.8430 C   0  0  0  0  0  2  0  0  0  0  0  0
  161.0550  210.7090  154.2900 C   0  0  0  0  0  0  0  0  0  0  0  0
  162.1340  206.6790  149.9700 N   0  0  0  0  0  2  0  0  0  0  0  0
  161.0740  204.3820  149.8940 C   0  0  2  0  0  3  0  0  0  0  0  0
  161.3890  205.6690  149.2170 C   0  0  1  0  0  0  0  0  0  0  0  0
  160.1130  205.4110  149.7510 O   0  0  0  0  0  0  0  0  0  0  0  0
  160.3650  206.2580  147.0060 C   0  0  0  0  0  3  0  0  0  0  0  0
  161.4850  205.7080  143.5340 O   0  0  0  0  0  1  0  0  0  0  0  0
  161.4670  205.7030  144.9220 C   0  0  0  0  0  0  0  0  0  0  0  0
  162.5090  205.1310  147.0310 C   0  0  0  0  0  3  0  0  0  0  0  0
  160.3840  206.2630  145.6080 C   0  0  0  0  0  3  0  0  0  0  0  0
  161.4300  205.6980  147.7220 C   0  0  0  0  0  0  0  0  0  0  0  0
  162.5280  205.1360  145.6320 C   0  0  0  0  0  3  0  0  0  0  0  0
  161.5390  204.3330  151.3420 C   0  0  0  0  0  2  0  0  0  0  0  0
  160.9770  201.9960  150.7750 C   0  0  0  0  0  1  0  0  0  0  0  0
  161.3070  202.9480  151.9050 C   0  0  0  0  0  2  0  0  0  0  0  0
  1  4  1  0  0  0  0
  3  2  1  0  0  0  0
  4  5  1  0  0  0  0
  4  3  2  0  0  0  0
  5 11  1  0  0  0  0
  6 10  1  0  0  0  0
  7 13  1  0  0  0  0
  8 10  2  0  0  0  0
  8 11  2  0  0  0  0
 10  7  1  0  0  0  0
 11 14  1  0  0  0  0
 13 12  1  0  0  0  0
 14  9  1  0  0  0  0
 14 12  2  0  0  0  0
 15  1  1  0  0  0  0
 16 26  1  1  0  0  0
 17 18  1  0  0  0  0
 17 16  1  0  0  0  0
 17 15  1  1  0  0  0
 18 16  1  0  0  0  0
 19 24  1  0  0  0  0
 20 21  1  0  0  0  0
 21 23  1  0  0  0  0
 21 25  2  0  0  0  0
 22 24  2  0  0  0  0
 23 19  2  0  0  0  0
 24 17  1  0  0  0  0
 25 22  1  0  0  0  0
 26 28  1  0  0  0  0
 27 28  1  0  0  0  0
M  END
>  <MODEL>
1

>  <REMARK>
 VINA RESULT:      -7.6      0.000      0.000
  Name = 
  8 active torsions:
  status: ('A' for Active; 'I' for Inactive)
    1  A    between atoms: C_3  and  C_5
    2  A    between atoms: C_3  and  C_23
    3  A    between atoms: C_9  and  N_16
    4  A    between atoms: C_9  and  C_20
    5  A    between atoms: N_15  and  N_16
    6  A    between atoms: N_15  and  C_28
    7  A    between atoms: S_19  and  C_22
    8  A    between atoms: S_19  and  C_28
                            x       y       z     vdW  Elec       q    Type
                         _______ _______ _______ _____ _____    ______ ____

>  <TORSDO>
F 8

$$$$
=
 OpenBabel11042421023D

 28 30  0  0  1  0  0  0  0  0999 V2000
  160.8890  207.0130  153.9390 N   0  0  0  0  0  2  0  0  0  0  0  0
  159.0760  206.5360  155.9430 F   0  0  0  0  0  0  0  0  0  0  0  0
  159.7980  207.6840  155.9540 C   0  0  0  0  0  3  0  0  0  0  0  0
  160.6840  207.9480  155.0030 C   0  0  0  0  0  0  0  0  0  0  0  0
  161.6030  209.4870  155.0720 S   0  0  0  0  0  0  0  0  0  0  0  0
  160.0140  212.2110  151.5980 N   0  0  0  0  0  1  0  0  0  0  0  0
  158.1100  212.3170  153.1820 N   0  0  0  0  0  2  0  0  0  0  0  0
  159.9160  210.9780  153.6010 C   0  0  0  0  0  0  0  0  0  0  0  0
  159.7790  210.9750  157.2610 C   0  0  0  0  0  1  0  0  0  0  0  0
  159.3090  211.6890  152.7170 C   0  0  0  0  0  0  0  0  0  0  0  0
  160.1460  210.4850  154.7690 C   0  0  0  0  0  0  0  0  0  0  0  0
  158.1080  211.6590  155.6310 C   0  0  0  0  0  3  0  0  0  0  0  0
  157.3380  211.7670  154.3140 C   0  0  0  0  0  2  0  0  0  0  0  0
  159.2900  211.0300  155.8560 C   0  0  0  0  0  0  0  0  0  0  0  0
  160.5450  207.3110  152.6110 N   0  0  0  0  0  2  0  0  0  0  0  0
  162.4120  207.5050  150.9140 C   0  0  2  0  0  3  0  0  0  0  0  0
  161.5030  206.6500  151.7240 C   0  0  1  0  0  0  0  0  0  0  0  0
  162.8420  206.8630  152.0990 O   0  0  0  0  0  0  0  0  0  0  0  0
  161.2750  204.1900  152.1480 C   0  0  0  0  0  3  0  0  0  0  0  0
  160.5060  201.3530  149.9180 O   0  0  0  0  0  1  0  0  0  0  0  0
  160.7420  202.6490  150.3570 C   0  0  0  0  0  0  0  0  0  0  0  0
  160.9290  205.0180  149.8980 C   0  0  0  0  0  3  0  0  0  0  0  0
  161.0350  202.8860  151.7050 C   0  0  0  0  0  3  0  0  0  0  0  0
  161.2150  205.2610  151.2480 C   0  0  0  0  0  0  0  0  0  0  0  0
  160.6910  203.7140  149.4540 C   0  0  0  0  0  3  0  0  0  0  0  0
  162.2430  208.9920  151.1860 C   0  0  0  0  0  2  0  0  0  0  0  0
  162.0160  208.7340  148.7410 C   0  0  0  0  0  1  0  0  0  0  0  0
  162.0510  209.7310  149.8790 C   0  0  0  0  0  2  0  0  0  0  0  0
  1  4  1  0  0  0  0
  2  3  1  0  0  0  0
  4  5  1  0  0  0  0
  4  3  2  0  0  0  0
  6 10  1  0  0  0  0
  7 13  1  0  0  0  0
  8 11  2  0  0  0  0
 10  7  1  0  0  0  0
 10  8  2  0  0  0  0
 11  5  1  0  0  0  0
 11 14  1  0  0  0  0
 12 14  2  0  0  0  0
 13 12  1  0  0  0  0
 14  9  1  0  0  0  0
 15  1  1  0  0  0  0
 16 26  1  1  0  0  0
 16 17  1  0  0  0  0
 16 18  1  0  0  0  0
 17 18  1  0  0  0  0
 17 15  1  1  0  0  0
 20 21  1  0  0  0  0
 21 23  2  0  0  0  0
 22 24  1  0  0  0  0
 23 19  1  0  0  0  0
 24 17  1  0  0  0  0
 24 19  2  0  0  0  0
 25 22  2  0  0  0  0
 25 21  1  0  0  0  0
 27 28  1  0  0  0  0
 28 26  1  0  0  0  0
M  END
>  <MODEL>
2

>  <REMARK>
 VINA RESULT:      -7.4      2.834      4.173
  Name = 
  8 active torsions:
  status: ('A' for Active; 'I' for Inactive)
    1  A    between atoms: C_3  and  C_5
    2  A    between atoms: C_3  and  C_23
    3  A    between atoms: C_9  and  N_16
    4  A    between atoms: C_9  and  C_20
    5  A    between atoms: N_15  and  N_16
    6  A    between atoms: N_15  and  C_28
    7  A    between atoms: S_19  and  C_22
    8  A    between atoms: S_19  and  C_28
                            x       y       z     vdW  Elec       q    Type
                         _______ _______ _______ _____ _____    ______ ____

>  <TORSDO>
F 8

$$$$
=
 OpenBabel11042421023D

 28 30  0  0  1  0  0  0  0  0999 V2000
  161.8920  209.2180  148.6360 N   0  0  0  0  0  2  0  0  0  0  0  0
  161.3020  209.6590  151.2790 F   0  0  0  0  0  0  0  0  0  0  0  0
  161.7330  210.6900  150.5100 C   0  0  0  0  0  3  0  0  0  0  0  0
  162.0280  210.5130  149.2280 C   0  0  0  0  0  0  0  0  0  0  0  0
  162.5880  211.9180  148.2630 S   0  0  0  0  0  0  0  0  0  0  0  0
  160.0770  212.0770  144.3020 N   0  0  0  0  0  1  0  0  0  0  0  0
  158.3750  212.7790  145.9630 N   0  0  0  0  0  2  0  0  0  0  0  0
  160.4670  212.1330  146.6230 C   0  0  0  0  0  0  0  0  0  0  0  0
  160.7210  214.1030  149.7000 C   0  0  0  0  0  1  0  0  0  0  0  0
  159.6270  212.1620  145.6490 C   0  0  0  0  0  0  0  0  0  0  0  0
  160.9220  212.3900  147.8010 C   0  0  0  0  0  0  0  0  0  0  0  0
  158.7770  213.5650  148.3400 C   0  0  0  0  0  3  0  0  0  0  0  0
  157.8680  212.8380  147.3480 C   0  0  0  0  0  2  0  0  0  0  0  0
  160.0860  213.3200  148.6040 C   0  0  0  0  0  0  0  0  0  0  0  0
  162.5030  208.0810  149.1890 N   0  0  0  0  0  2  0  0  0  0  0  0
  161.3560  205.9940  150.0470 C   0  0  2  0  0  3  0  0  0  0  0  0
  161.6520  206.9200  148.9210 C   0  0  1  0  0  0  0  0  0  0  0  0
  160.4250  206.9640  149.6080 O   0  0  0  0  0  0  0  0  0  0  0  0
  162.6420  205.7420  146.9410 C   0  0  0  0  0  3  0  0  0  0  0  0
  161.3170  205.0210  143.5740 O   0  0  0  0  0  1  0  0  0  0  0  0
  161.3940  205.4800  144.8820 C   0  0  0  0  0  0  0  0  0  0  0  0
  160.3850  206.6060  146.7720 C   0  0  0  0  0  3  0  0  0  0  0  0
  162.5630  205.2800  145.6240 C   0  0  0  0  0  3  0  0  0  0  0  0
  161.5500  206.4010  147.5220 C   0  0  0  0  0  0  0  0  0  0  0  0
  160.3060  206.1440  145.4550 C   0  0  0  0  0  3  0  0  0  0  0  0
  161.9570  206.4420  151.3710 C   0  0  0  0  0  2  0  0  0  0  0  0
  161.1720  204.1500  151.8450 C   0  0  0  0  0  1  0  0  0  0  0  0
  161.5590  205.4750  152.4650 C   0  0  0  0  0  2  0  0  0  0  0  0
  1 15  1  0  0  0  0
  1  4  1  0  0  0  0
  3  2  1  0  0  0  0
  4  3  2  0  0  0  0
  5  4  1  0  0  0  0
  6 10  1  0  0  0  0
  7 13  1  0  0  0  0
  8 11  2  0  0  0  0
 10  7  1  0  0  0  0
 10  8  2  0  0  0  0
 11  5  1  0  0  0  0
 11 14  1  0  0  0  0
 12 14  2  0  0  0  0
 13 12  1  0  0  0  0
 14  9  1  0  0  0  0
 16 26  1  1  0  0  0
 17 15  1  1  0  0  0
 17 18  1  0  0  0  0
 17 16  1  0  0  0  0
 18 16  1  0  0  0  0
 19 24  1  0  0  0  0
 20 21  1  0  0  0  0
 21 25  2  0  0  0  0
 21 23  1  0  0  0  0
 22 24  2  0  0  0  0
 23 19  2  0  0  0  0
 24 17  1  0  0  0  0
 25 22  1  0  0  0  0
 26 28  1  0  0  0  0
 27 28  1  0  0  0  0
M  END
>  <MODEL>
3

>  <REMARK>
 VINA RESULT:      -7.3      3.403      4.355
  Name = 
  8 active torsions:
  status: ('A' for Active; 'I' for Inactive)
    1  A    between atoms: C_3  and  C_5
    2  A    between atoms: C_3  and  C_23
    3  A    between atoms: C_9  and  N_16
    4  A    between atoms: C_9  and  C_20
    5  A    between atoms: N_15  and  N_16
    6  A    between atoms: N_15  and  C_28
    7  A    between atoms: S_19  and  C_22
    8  A    between atoms: S_19  and  C_28
                            x       y       z     vdW  Elec       q    Type
                         _______ _______ _______ _____ _____    ______ ____

>  <TORSDO>
F 8

$$$$
=
 OpenBabel11042421023D

 28 30  0  0  1  0  0  0  0  0999 V2000
  161.4530  208.4110  149.9470 N   0  0  0  0  0  2  0  0  0  0  0  0
  161.6360  210.5470  148.2350 F   0  0  0  0  0  0  0  0  0  0  0  0
  162.0490  210.6830  149.5190 C   0  0  0  0  0  3  0  0  0  0  0  0
  161.9750  209.6720  150.3750 C   0  0  0  0  0  0  0  0  0  0  0  0
  162.5420  209.9150  152.0600 S   0  0  0  0  0  0  0  0  0  0  0  0
  160.0750  213.7460  150.9410 N   0  0  0  0  0  1  0  0  0  0  0  0
  158.5560  212.6770  152.5840 N   0  0  0  0  0  2  0  0  0  0  0  0
  160.4890  211.6470  151.9230 C   0  0  0  0  0  0  0  0  0  0  0  0
  161.1490  209.6920  154.9480 C   0  0  0  0  0  1  0  0  0  0  0  0
  159.6620  212.6020  151.6780 C   0  0  0  0  0  0  0  0  0  0  0  0
  160.9960  210.6590  152.5770 C   0  0  0  0  0  0  0  0  0  0  0  0
  159.1260  210.8380  154.2340 C   0  0  0  0  0  3  0  0  0  0  0  0
  158.0830  211.4920  153.3260 C   0  0  0  0  0  2  0  0  0  0  0  0
  160.3640  210.3950  153.8970 C   0  0  0  0  0  0  0  0  0  0  0  0
  162.2770  207.2880  149.7700 N   0  0  0  0  0  2  0  0  0  0  0  0
  161.1200  205.0530  150.0400 C   0  0  2  0  0  3  0  0  0  0  0  0
  161.4770  206.2130  149.1810 C   0  0  1  0  0  0  0  0  0  0  0  0
  160.2010  206.0920  149.7620 O   0  0  0  0  0  0  0  0  0  0  0  0
  160.3860  206.4180  146.9320 C   0  0  0  0  0  3  0  0  0  0  0  0
  161.4760  205.4220  143.5510 O   0  0  0  0  0  1  0  0  0  0  0  0
  161.4820  205.6210  144.9250 C   0  0  0  0  0  0  0  0  0  0  0  0
  162.5880  205.4180  147.0690 C   0  0  0  0  0  3  0  0  0  0  0  0
  160.3820  206.2200  145.5490 C   0  0  0  0  0  3  0  0  0  0  0  0
  161.4910  206.0250  147.6960 C   0  0  0  0  0  0  0  0  0  0  0  0
  162.5830  205.2180  145.6850 C   0  0  0  0  0  3  0  0  0  0  0  0
  161.6090  205.1920  151.4740 C   0  0  0  0  0  2  0  0  0  0  0  0
  161.1780  202.7670  151.6500 C   0  0  0  0  0  1  0  0  0  0  0  0
  160.9940  204.1070  152.3310 C   0  0  0  0  0  2  0  0  0  0  0  0
  1  4  1  0  0  0  0
  2  3  1  0  0  0  0
  3  4  2  0  0  0  0
  4  5  1  0  0  0  0
  5 11  1  0  0  0  0
  6 10  1  0  0  0  0
  7 13  1  0  0  0  0
  8 11  2  0  0  0  0
 10  8  2  0  0  0  0
 10  7  1  0  0  0  0
 11 14  1  0  0  0  0
 13 12  1  0  0  0  0
 14 12  2  0  0  0  0
 14  9  1  0  0  0  0
 15  1  1  0  0  0  0
 16 26  1  1  0  0  0
 17 18  1  0  0  0  0
 17 15  1  1  0  0  0
 17 16  1  0  0  0  0
 18 16  1  0  0  0  0
 19 24  1  0  0  0  0
 20 21  1  0  0  0  0
 21 23  1  0  0  0  0
 21 25  2  0  0  0  0
 22 24  2  0  0  0  0
 23 19  2  0  0  0  0
 24 17  1  0  0  0  0
 25 22  1  0  0  0  0
 26 28  1  0  0  0  0
 27 28  1  0  0  0  0
M  END
>  <MODEL>
4

>  <REMARK>
 VINA RESULT:      -7.0      1.582      1.738
  Name = 
  8 active torsions:
  status: ('A' for Active; 'I' for Inactive)
    1  A    between atoms: C_3  and  C_5
    2  A    between atoms: C_3  and  C_23
    3  A    between atoms: C_9  and  N_16
    4  A    between atoms: C_9  and  C_20
    5  A    between atoms: N_15  and  N_16
    6  A    between atoms: N_15  and  C_28
    7  A    between atoms: S_19  and  C_22
    8  A    between atoms: S_19  and  C_28
                            x       y       z     vdW  Elec       q    Type
                         _______ _______ _______ _____ _____    ______ ____

>  <TORSDO>
F 8

$$$$
=
 OpenBabel11042421023D

 28 30  0  0  1  0  0  0  0  0999 V2000
  161.3540  207.6870  150.4050 N   0  0  0  0  0  2  0  0  0  0  0  0
  160.4240  206.5770  152.7360 F   0  0  0  0  0  0  0  0  0  0  0  0
  161.0350  207.7880  152.7700 C   0  0  0  0  0  3  0  0  0  0  0  0
  161.4970  208.3540  151.6630 C   0  0  0  0  0  0  0  0  0  0  0  0
  162.2920  209.9590  151.7730 S   0  0  0  0  0  0  0  0  0  0  0  0
  161.9590  208.2670  156.1370 N   0  0  0  0  0  1  0  0  0  0  0  0
  160.5480  210.2980  156.3150 N   0  0  0  0  0  2  0  0  0  0  0  0
  161.6890  209.8230  154.3910 C   0  0  0  0  0  0  0  0  0  0  0  0
  159.4630  211.4710  151.9940 C   0  0  0  0  0  1  0  0  0  0  0  0
  161.5510  209.5340  155.6370 C   0  0  0  0  0  0  0  0  0  0  0  0
  161.4130  210.4000  153.2720 C   0  0  0  0  0  0  0  0  0  0  0  0
  159.5840  211.6730  154.4150 C   0  0  0  0  0  3  0  0  0  0  0  0
  160.1400  211.6350  155.8390 C   0  0  0  0  0  2  0  0  0  0  0  0
  160.1690  211.2140  153.2790 C   0  0  0  0  0  0  0  0  0  0  0  0
  162.2040  206.6380  150.0200 N   0  0  0  0  0  2  0  0  0  0  0  0
  161.0330  204.3950  149.9670 C   0  0  2  0  0  3  0  0  0  0  0  0
  161.4180  205.6540  149.2740 C   0  0  1  0  0  0  0  0  0  0  0  0
  160.1260  205.4670  149.7980 O   0  0  0  0  0  0  0  0  0  0  0  0
  160.4260  206.2210  147.0430 C   0  0  0  0  0  3  0  0  0  0  0  0
  161.5750  205.5980  143.5920 O   0  0  0  0  0  1  0  0  0  0  0  0
  161.5420  205.6170  144.9800 C   0  0  0  0  0  0  0  0  0  0  0  0
  162.5540  205.0640  147.1090 C   0  0  0  0  0  3  0  0  0  0  0  0
  160.4610  206.2040  145.6450 C   0  0  0  0  0  3  0  0  0  0  0  0
  161.4760  205.6580  147.7790 C   0  0  0  0  0  0  0  0  0  0  0  0
  162.5870  205.0460  145.7110 C   0  0  0  0  0  3  0  0  0  0  0  0
  161.4810  204.3450  151.4200 C   0  0  0  0  0  2  0  0  0  0  0  0
  161.1380  201.9620  150.8690 C   0  0  0  0  0  1  0  0  0  0  0  0
  161.1980  202.9730  151.9940 C   0  0  0  0  0  2  0  0  0  0  0  0
  1  4  1  0  0  0  0
  2  3  1  0  0  0  0
  4  5  1  0  0  0  0
  4  3  2  0  0  0  0
  5 11  1  0  0  0  0
  8 10  2  0  0  0  0
  9 14  1  0  0  0  0
 10  6  1  0  0  0  0
 10  7  1  0  0  0  0
 11 14  1  0  0  0  0
 11  8  2  0  0  0  0
 12 13  1  0  0  0  0
 13  7  1  0  0  0  0
 14 12  2  0  0  0  0
 15  1  1  0  0  0  0
 16 26  1  1  0  0  0
 17 18  1  0  0  0  0
 17 16  1  0  0  0  0
 17 15  1  1  0  0  0
 18 16  1  0  0  0  0
 19 24  1  0  0  0  0
 20 21  1  0  0  0  0
 21 23  1  0  0  0  0
 21 25  2  0  0  0  0
 22 24  2  0  0  0  0
 23 19  2  0  0  0  0
 24 17  1  0  0  0  0
 25 22  1  0  0  0  0
 26 28  1  0  0  0  0
 27 28  1  0  0  0  0
M  END
>  <MODEL>
5

>  <REMARK>
 VINA RESULT:      -6.7      1.432      2.158
  Name = 
  8 active torsions:
  status: ('A' for Active; 'I' for Inactive)
    1  A    between atoms: C_3  and  C_5
    2  A    between atoms: C_3  and  C_23
    3  A    between atoms: C_9  and  N_16
    4  A    between atoms: C_9  and  C_20
    5  A    between atoms: N_15  and  N_16
    6  A    between atoms: N_15  and  C_28
    7  A    between atoms: S_19  and  C_22
    8  A    between atoms: S_19  and  C_28
                            x       y       z     vdW  Elec       q    Type
                         _______ _______ _______ _____ _____    ______ ____

>  <TORSDO>
F 8

$$$$
=
 OpenBabel11042421023D

 28 30  0  0  1  0  0  0  0  0999 V2000
  161.3830  208.5380  151.2250 N   0  0  0  0  0  2  0  0  0  0  0  0
  163.1660  206.6780  152.1670 F   0  0  0  0  0  0  0  0  0  0  0  0
  162.6770  206.5570  150.9080 C   0  0  0  0  0  3  0  0  0  0  0  0
  161.8130  207.4370  150.4190 C   0  0  0  0  0  0  0  0  0  0  0  0
  161.2070  207.2230  148.7440 S   0  0  0  0  0  0  0  0  0  0  0  0
  160.8310  204.1550  152.2740 N   0  0  0  0  0  1  0  0  0  0  0  0
  160.7150  202.6340  150.3190 N   0  0  0  0  0  2  0  0  0  0  0  0
  160.8020  204.9030  150.0420 C   0  0  0  0  0  0  0  0  0  0  0  0
  162.4310  205.0070  146.7640 C   0  0  0  0  0  1  0  0  0  0  0  0
  160.6200  203.9460  150.8830 C   0  0  0  0  0  0  0  0  0  0  0  0
  161.0920  205.4420  148.9080 C   0  0  0  0  0  0  0  0  0  0  0  0
  161.3640  203.1550  147.9240 C   0  0  0  0  0  3  0  0  0  0  0  0
  160.4570  202.3880  148.8870 C   0  0  0  0  0  2  0  0  0  0  0  0
  161.5810  204.4950  147.8720 C   0  0  0  0  0  0  0  0  0  0  0  0
  160.4560  208.3780  152.2670 N   0  0  0  0  0  2  0  0  0  0  0  0
  160.9810  209.1800  154.6100 C   0  0  2  0  0  3  0  0  0  0  0  0
  160.6130  209.4930  153.2030 C   0  0  1  0  0  0  0  0  0  0  0  0
  161.9320  209.6410  153.6700 O   0  0  0  0  0  0  0  0  0  0  0  0
  158.7010  211.0780  153.5440 C   0  0  0  0  0  3  0  0  0  0  0  0
  157.9120  214.3620  152.0570 O   0  0  0  0  0  1  0  0  0  0  0  0
  158.5770  213.1770  152.3400 C   0  0  0  0  0  0  0  0  0  0  0  0
  160.4560  211.6910  151.9900 C   0  0  0  0  0  3  0  0  0  0  0  0
  158.0330  212.2730  153.2590 C   0  0  0  0  0  3  0  0  0  0  0  0
  159.9180  210.7860  152.9170 C   0  0  0  0  0  0  0  0  0  0  0  0
  159.7870  212.8850  151.7050 C   0  0  0  0  0  3  0  0  0  0  0  0
  161.2050  207.6960  154.8590 C   0  0  0  0  0  2  0  0  0  0  0  0
  160.4560  207.4390  157.1970 C   0  0  0  0  0  1  0  0  0  0  0  0
  160.1080  207.1570  155.7510 C   0  0  0  0  0  2  0  0  0  0  0  0
  1 15  1  0  0  0  0
  3  2  1  0  0  0  0
  4  3  2  0  0  0  0
  4  1  1  0  0  0  0
  5 11  1  0  0  0  0
  5  4  1  0  0  0  0
  7 10  1  0  0  0  0
  8 10  2  0  0  0  0
  9 14  1  0  0  0  0
 10  6  1  0  0  0  0
 11  8  2  0  0  0  0
 12 13  1  0  0  0  0
 13  7  1  0  0  0  0
 14 12  2  0  0  0  0
 14 11  1  0  0  0  0
 16 26  1  6  0  0  0
 17 15  1  6  0  0  0
 17 18  1  0  0  0  0
 17 16  1  0  0  0  0
 18 16  1  0  0  0  0
 20 21  1  0  0  0  0
 21 23  2  0  0  0  0
 22 24  1  0  0  0  0
 23 19  1  0  0  0  0
 24 17  1  0  0  0  0
 24 19  2  0  0  0  0
 25 22  2  0  0  0  0
 25 21  1  0  0  0  0
 26 28  1  0  0  0  0
 28 27  1  0  0  0  0
M  END
>  <MODEL>
6

>  <REMARK>
 VINA RESULT:      -6.5      3.172      7.850
  Name = 
  8 active torsions:
  status: ('A' for Active; 'I' for Inactive)
    1  A    between atoms: C_3  and  C_5
    2  A    between atoms: C_3  and  C_23
    3  A    between atoms: C_9  and  N_16
    4  A    between atoms: C_9  and  C_20
    5  A    between atoms: N_15  and  N_16
    6  A    between atoms: N_15  and  C_28
    7  A    between atoms: S_19  and  C_22
    8  A    between atoms: S_19  and  C_28
                            x       y       z     vdW  Elec       q    Type
                         _______ _______ _______ _____ _____    ______ ____

>  <TORSDO>
F 8

$$$$
=
 OpenBabel11042421023D

 28 30  0  0  1  0  0  0  0  0999 V2000
  161.3050  204.7800  149.1210 N   0  0  0  0  0  2  0  0  0  0  0  0
  160.3430  207.3040  148.6370 F   0  0  0  0  0  0  0  0  0  0  0  0
  161.2040  206.7370  147.7560 C   0  0  0  0  0  3  0  0  0  0  0  0
  161.6900  205.5190  147.9580 C   0  0  0  0  0  0  0  0  0  0  0  0
  162.8220  204.8220  146.7530 S   0  0  0  0  0  0  0  0  0  0  0  0
  161.5560  200.3050  146.6420 N   0  0  0  0  0  1  0  0  0  0  0  0
  159.7670  201.3260  145.2610 N   0  0  0  0  0  2  0  0  0  0  0  0
  161.3430  202.6240  146.2920 C   0  0  0  0  0  0  0  0  0  0  0  0
  161.3680  205.4430  143.9550 C   0  0  0  0  0  1  0  0  0  0  0  0
  160.8240  201.4490  146.2190 C   0  0  0  0  0  0  0  0  0  0  0  0
  161.5390  203.8540  145.9610 C   0  0  0  0  0  0  0  0  0  0  0  0
  159.7630  203.6330  144.2090 C   0  0  0  0  0  3  0  0  0  0  0  0
  158.9650  202.4920  144.8410 C   0  0  0  0  0  2  0  0  0  0  0  0
  160.8330  204.2880  144.7270 C   0  0  0  0  0  0  0  0  0  0  0  0
  160.4330  205.3130  150.0850 N   0  0  0  0  0  2  0  0  0  0  0  0
  161.2110  204.3220  152.2800 C   0  0  2  0  0  3  0  0  0  0  0  0
  161.1700  205.4730  151.3390 C   0  0  1  0  0  0  0  0  0  0  0  0
  162.2960  204.6360  151.4290 O   0  0  0  0  0  0  0  0  0  0  0  0
  160.8340  207.2060  153.1200 C   0  0  0  0  0  3  0  0  0  0  0  0
  161.9070  210.7260  153.3840 O   0  0  0  0  0  1  0  0  0  0  0  0
  161.7350  209.4420  152.8860 C   0  0  0  0  0  0  0  0  0  0  0  0
  162.1060  207.8000  151.1460 C   0  0  0  0  0  3  0  0  0  0  0  0
  161.0100  208.4990  153.6220 C   0  0  0  0  0  3  0  0  0  0  0  0
  161.3870  206.8500  151.8850 C   0  0  0  0  0  0  0  0  0  0  0  0
  162.2810  209.0930  151.6480 C   0  0  0  0  0  3  0  0  0  0  0  0
  160.5030  203.0840  151.7480 C   0  0  0  0  0  2  0  0  0  0  0  0
  160.9530  201.3130  150.0880 C   0  0  0  0  0  1  0  0  0  0  0  0
  161.5260  202.0820  151.2590 C   0  0  0  0  0  2  0  0  0  0  0  0
  1 15  1  0  0  0  0
  3  4  2  0  0  0  0
  3  2  1  0  0  0  0
  4  1  1  0  0  0  0
  5  4  1  0  0  0  0
  7 10  1  0  0  0  0
  9 14  1  0  0  0  0
 10  8  2  0  0  0  0
 10  6  1  0  0  0  0
 11  8  2  0  0  0  0
 11  5  1  0  0  0  0
 12 14  2  0  0  0  0
 12 13  1  0  0  0  0
 13  7  1  0  0  0  0
 14 11  1  0  0  0  0
 16 26  1  6  0  0  0
 17 15  1  6  0  0  0
 17 18  1  0  0  0  0
 17 24  1  0  0  0  0
 17 16  1  0  0  0  0
 18 16  1  0  0  0  0
 19 23  1  0  0  0  0
 21 20  1  0  0  0  0
 21 23  2  0  0  0  0
 22 25  2  0  0  0  0
 22 24  1  0  0  0  0
 24 19  2  0  0  0  0
 25 21  1  0  0  0  0
 27 28  1  0  0  0  0
 28 26  1  0  0  0  0
M  END
>  <MODEL>
7

>  <REMARK>
 VINA RESULT:      -6.4      3.576      8.293
  Name = 
  8 active torsions:
  status: ('A' for Active; 'I' for Inactive)
    1  A    between atoms: C_3  and  C_5
    2  A    between atoms: C_3  and  C_23
    3  A    between atoms: C_9  and  N_16
    4  A    between atoms: C_9  and  C_20
    5  A    between atoms: N_15  and  N_16
    6  A    between atoms: N_15  and  C_28
    7  A    between atoms: S_19  and  C_22
    8  A    between atoms: S_19  and  C_28
                            x       y       z     vdW  Elec       q    Type
                         _______ _______ _______ _____ _____    ______ ____

>  <TORSDO>
F 8

$$$$
=
 OpenBabel11042421023D

 28 30  0  0  1  0  0  0  0  0999 V2000
  161.8180  207.3580  152.0190 N   0  0  0  0  0  2  0  0  0  0  0  0
  160.6450  206.4920  154.3430 F   0  0  0  0  0  0  0  0  0  0  0  0
  161.0720  207.7760  154.2490 C   0  0  0  0  0  3  0  0  0  0  0  0
  161.6450  208.2290  153.1400 C   0  0  0  0  0  0  0  0  0  0  0  0
  162.1840  209.9390  153.0760 S   0  0  0  0  0  0  0  0  0  0  0  0
  158.4060  212.3380  151.6670 N   0  0  0  0  0  1  0  0  0  0  0  0
  157.8100  211.8740  154.0290 N   0  0  0  0  0  2  0  0  0  0  0  0
  159.7230  211.0220  153.1080 C   0  0  0  0  0  0  0  0  0  0  0  0
  161.7590  210.7990  156.1440 C   0  0  0  0  0  1  0  0  0  0  0  0
  158.5980  211.5980  152.8660 C   0  0  0  0  0  0  0  0  0  0  0  0
  160.6770  210.5460  153.8320 C   0  0  0  0  0  0  0  0  0  0  0  0
  159.3610  211.1150  155.8860 C   0  0  0  0  0  3  0  0  0  0  0  0
  157.9610  211.0890  155.2700 C   0  0  0  0  0  2  0  0  0  0  0  0
  160.5400  210.7980  155.2900 C   0  0  0  0  0  0  0  0  0  0  0  0
  160.8480  207.2440  151.0100 N   0  0  0  0  0  2  0  0  0  0  0  0
  161.8800  207.9570  148.8120 C   0  0  2  0  0  3  0  0  0  0  0  0
  161.5170  206.8720  149.7630 C   0  0  1  0  0  0  0  0  0  0  0  0
  162.8320  207.3630  149.6730 O   0  0  0  0  0  0  0  0  0  0  0  0
  160.9450  204.4530  150.0910 C   0  0  0  0  0  3  0  0  0  0  0  0
  160.9530  201.5720  147.7860 O   0  0  0  0  0  1  0  0  0  0  0  0
  161.0850  202.8680  148.2650 C   0  0  0  0  0  0  0  0  0  0  0  0
  161.6280  205.1980  147.8890 C   0  0  0  0  0  3  0  0  0  0  0  0
  160.8110  203.1480  149.6080 C   0  0  0  0  0  3  0  0  0  0  0  0
  161.3460  205.4830  149.2320 C   0  0  0  0  0  0  0  0  0  0  0  0
  161.4950  203.8920  147.4070 C   0  0  0  0  0  3  0  0  0  0  0  0
  161.5410  209.3480  149.3270 C   0  0  0  0  0  2  0  0  0  0  0  0
  162.1770  211.7060  148.9670 C   0  0  0  0  0  1  0  0  0  0  0  0
  161.9110  210.3810  148.2850 C   0  0  0  0  0  2  0  0  0  0  0  0
  1  4  1  0  0  0  0
  3  2  1  0  0  0  0
  4  3  2  0  0  0  0
  5  4  1  0  0  0  0
  5 11  1  0  0  0  0
  6 10  1  0  0  0  0
  7 13  1  0  0  0  0
  8 11  2  0  0  0  0
 10  8  2  0  0  0  0
 10  7  1  0  0  0  0
 11 14  1  0  0  0  0
 13 12  1  0  0  0  0
 14 12  2  0  0  0  0
 14  9  1  0  0  0  0
 15  1  1  0  0  0  0
 16 26  1  1  0  0  0
 16 18  1  0  0  0  0
 16 17  1  0  0  0  0
 17 15  1  1  0  0  0
 18 17  1  0  0  0  0
 20 21  1  0  0  0  0
 21 23  2  0  0  0  0
 22 24  1  0  0  0  0
 23 19  1  0  0  0  0
 24 17  1  0  0  0  0
 24 19  2  0  0  0  0
 25 22  2  0  0  0  0
 25 21  1  0  0  0  0
 28 27  1  0  0  0  0
 28 26  1  0  0  0  0
M  END
>  <MODEL>
8

>  <REMARK>
 VINA RESULT:      -6.3      1.927      3.538
  Name = 
  8 active torsions:
  status: ('A' for Active; 'I' for Inactive)
    1  A    between atoms: C_3  and  C_5
    2  A    between atoms: C_3  and  C_23
    3  A    between atoms: C_9  and  N_16
    4  A    between atoms: C_9  and  C_20
    5  A    between atoms: N_15  and  N_16
    6  A    between atoms: N_15  and  C_28
    7  A    between atoms: S_19  and  C_22
    8  A    between atoms: S_19  and  C_28
                            x       y       z     vdW  Elec       q    Type
                         _______ _______ _______ _____ _____    ______ ____

>  <TORSDO>
F 8

$$$$
=
 OpenBabel11042421023D

 28 30  0  0  1  0  0  0  0  0999 V2000
  160.4610  208.4860  152.3010 N   0  0  0  0  0  2  0  0  0  0  0  0
  161.8430  209.9630  150.4460 F   0  0  0  0  0  0  0  0  0  0  0  0
  162.3550  208.7830  150.8770 C   0  0  0  0  0  3  0  0  0  0  0  0
  161.7150  208.0440  151.7730 C   0  0  0  0  0  0  0  0  0  0  0  0
  162.4430  206.4900  152.3000 S   0  0  0  0  0  0  0  0  0  0  0  0
  161.1800  207.5800  147.9140 N   0  0  0  0  0  1  0  0  0  0  0  0
  160.9060  205.1160  147.8790 N   0  0  0  0  0  2  0  0  0  0  0  0
  161.7520  206.1810  149.7190 C   0  0  0  0  0  0  0  0  0  0  0  0
  160.6770  203.8050  152.2900 C   0  0  0  0  0  1  0  0  0  0  0  0
  161.4460  206.3010  148.4750 C   0  0  0  0  0  0  0  0  0  0  0  0
  161.8280  205.6040  150.8690 C   0  0  0  0  0  0  0  0  0  0  0  0
  160.7890  203.5540  149.8730 C   0  0  0  0  0  3  0  0  0  0  0  0
  161.2060  203.7750  148.4190 C   0  0  0  0  0  2  0  0  0  0  0  0
  161.1250  204.2970  150.9590 C   0  0  0  0  0  0  0  0  0  0  0  0
  160.2260  208.5750  153.6820 N   0  0  0  0  0  2  0  0  0  0  0  0
  161.2830  210.1360  155.3700 C   0  0  2  0  0  3  0  0  0  0  0  0
  160.5100  209.9440  154.1140 C   0  0  1  0  0  0  0  0  0  0  0  0
  161.8810  210.2570  154.0940 O   0  0  0  0  0  0  0  0  0  0  0  0
  160.0250  211.8590  152.5700 C   0  0  0  0  0  3  0  0  0  0  0  0
  157.2000  214.2250  152.3700 O   0  0  0  0  0  1  0  0  0  0  0  0
  158.0030  213.1740  152.7940 C   0  0  0  0  0  0  0  0  0  0  0  0
  158.4130  211.3220  154.2970 C   0  0  0  0  0  3  0  0  0  0  0  0
  159.2150  212.9160  152.1440 C   0  0  0  0  0  3  0  0  0  0  0  0
  159.6240  211.0540  153.6430 C   0  0  0  0  0  0  0  0  0  0  0  0
  157.6040  212.3790  153.8710 C   0  0  0  0  0  3  0  0  0  0  0  0
  161.7300  208.8300  156.0090 C   0  0  0  0  0  2  0  0  0  0  0  0
  160.0940  207.3130  157.0650 C   0  0  0  0  0  1  0  0  0  0  0  0
  160.9170  208.5680  157.2580 C   0  0  0  0  0  2  0  0  0  0  0  0
  1 15  1  0  0  0  0
  2  3  1  0  0  0  0
  3  4  2  0  0  0  0
  4  5  1  0  0  0  0
  4  1  1  0  0  0  0
  6 10  1  0  0  0  0
  7 13  1  0  0  0  0
  7 10  1  0  0  0  0
  8 11  2  0  0  0  0
 10  8  2  0  0  0  0
 11 14  1  0  0  0  0
 11  5  1  0  0  0  0
 12 14  2  0  0  0  0
 13 12  1  0  0  0  0
 14  9  1  0  0  0  0
 16 26  1  1  0  0  0
 17 15  1  6  0  0  0
 17 16  1  0  0  0  0
 18 17  1  0  0  0  0
 18 16  1  0  0  0  0
 19 24  1  0  0  0  0
 20 21  1  0  0  0  0
 21 25  2  0  0  0  0
 23 19  2  0  0  0  0
 23 21  1  0  0  0  0
 24 17  1  0  0  0  0
 24 22  2  0  0  0  0
 25 22  1  0  0  0  0
 26 28  1  0  0  0  0
 27 28  1  0  0  0  0
M  END
>  <MODEL>
9

>  <REMARK>
 VINA RESULT:      -6.2      3.380      7.812
  Name = 
  8 active torsions:
  status: ('A' for Active; 'I' for Inactive)
    1  A    between atoms: C_3  and  C_5
    2  A    between atoms: C_3  and  C_23
    3  A    between atoms: C_9  and  N_16
    4  A    between atoms: C_9  and  C_20
    5  A    between atoms: N_15  and  N_16
    6  A    between atoms: N_15  and  C_28
    7  A    between atoms: S_19  and  C_22
    8  A    between atoms: S_19  and  C_28
                            x       y       z     vdW  Elec       q    Type
                         _______ _______ _______ _____ _____    ______ ____

>  <TORSDO>
F 8

$$$$
