=
 OpenBabel11052410363D

 40 45  0  0  1  0  0  0  0  0999 V2000
  161.2320  208.3810  152.0460 N   0  0  0  0  0  0  0  0  0  0  0  0
  161.1880  206.4030  150.6010 C   0  0  0  0  0  0  0  0  0  0  0  0
  160.2690  208.8460  154.2040 N   0  0  1  0  0  0  0  0  0  0  0  0
  160.3250  211.2460  154.8870 C   0  0  1  0  0  3  0  0  0  0  0  0
  161.2200  202.7370  151.4880 C   0  0  0  0  0  1  0  0  0  0  0  0
  160.7510  209.4190  152.9730 C   0  0  2  0  0  0  0  0  0  0  0  0
  161.2150  204.2180  151.6160 C   0  0  0  0  0  0  0  0  0  0  0  0
  161.2720  208.0260  154.9030 C   0  0  2  0  0  3  0  0  0  0  0  0
  159.5930  209.9640  154.8930 C   0  0  1  0  0  3  0  0  0  0  0  0
  161.2290  204.7920  152.8490 N   0  0  0  0  0  0  0  0  0  0  0  0
  161.2370  206.6430  154.3890 N   0  0  0  0  0  2  0  0  0  0  0  0
  161.1970  205.0130  150.4710 C   0  0  0  0  0  3  0  0  0  0  0  0
  159.9140  210.5930  152.6030 C   0  0  0  0  0  2  0  0  0  0  0  0
  161.2290  206.1410  153.0270 C   0  0  0  0  0  0  0  0  0  0  0  0
  159.2750  211.0040  153.8700 N   0  0  2  0  0  0  0  0  0  0  0  0
  162.0760  209.4810  152.6440 C   0  0  0  0  0  2  0  0  0  0  0  0
  161.2060  206.9760  151.8810 C   0  0  0  0  0  0  0  0  0  0  0  0
  159.6970  212.3310  156.1580 S   0  0  0  0  0  0  0  0  0  0  0  0
  159.0340  211.5490  157.2590 O   0  0  0  0  0  0  0  0  0  0  0  0
  160.8390  213.1210  156.7330 O   0  0  0  0  0  0  0  0  0  0  0  0
  158.5200  213.4500  155.4270 C   0  0  2  0  0  3  0  0  0  0  0  0
  159.1960  214.4520  154.7550 F   0  0  0  0  0  0  0  0  0  0  0  0
  157.6430  214.0540  156.5120 C   0  0  0  0  0  2  0  0  0  0  0  0
  155.8030  212.4340  156.2070 C   0  0  0  0  0  0  0  0  0  0  0  0
  155.6780  211.7530  157.2580 O   0  0  0  0  0  0  0  0  0  0  0  0
  156.1670  213.8680  156.1930 C   0  0  2  0  0  3  0  0  0  0  0  0
  155.7300  212.9470  153.9450 C   0  0  0  0  0  2  0  0  0  0  0  0
  155.9310  214.2490  154.7330 C   0  0  0  0  0  2  0  0  0  0  0  0
  155.5510  211.8970  154.9280 N   0  0  0  0  0  2  0  0  0  0  0  0
  162.2140  208.7500  157.1390 C   0  0  0  0  0  1  0  0  0  0  0  0
  161.0900  208.0160  156.4250 C   0  0  0  0  0  2  0  0  0  0  0  0
  161.1770  207.2490  149.3700 C   0  0  0  0  0  2  0  0  0  0  0  0
  162.4480  207.0340  148.5740 C   0  0  0  0  0  2  0  0  0  0  0  0
  162.1310  207.0040  147.1570 N   0  0  0  0  0  2  0  0  0  0  0  0
  161.2530  205.8650  146.9390 C   0  0  2  0  0  3  0  0  0  0  0  0
  161.5580  203.5040  146.8330 O   0  0  0  0  0  1  0  0  0  0  0  0
  163.4010  204.7530  146.2840 O   0  0  0  0  0  0  0  0  0  0  0  0
  162.0740  204.6430  146.6850 C   0  0  0  0  0  0  0  0  0  0  0  0
  160.3260  206.1470  145.7640 C   0  0  0  0  0  2  0  0  0  0  0  0
  160.9440  205.7040  144.5250 N   0  0  0  0  0  1  0  0  0  0  0  0
  1 16  1  0  0  0  0
  1  6  1  0  0  0  0
  2 17  2  0  0  0  0
  3  9  1  0  0  0  0
  3  8  1  0  0  0  0
  4  9  1  0  0  0  0
  4 18  1  0  0  0  0
  5  7  1  0  0  0  0
  6  3  1  0  0  0  0
  7 10  1  0  0  0  0
  8 31  1  0  0  0  0
 10 14  2  0  0  0  0
 11  8  1  0  0  0  0
 12  2  1  0  0  0  0
 12  7  2  0  0  0  0
 13  6  1  0  0  0  0
 13 15  1  0  0  0  0
 14 11  1  0  0  0  0
 15  4  1  0  0  0  0
 15  9  1  0  0  0  0
 16  6  1  0  0  0  0
 17  1  1  0  0  0  0
 17 14  1  0  0  0  0
 18 20  2  0  0  0  0
 18 19  2  0  0  0  0
 21 18  1  0  0  0  0
 21 23  1  0  0  0  0
 22 21  1  0  0  0  0
 24 25  2  0  0  0  0
 26 24  1  0  0  0  0
 26 23  1  0  0  0  0
 27 28  1  0  0  0  0
 27 29  1  0  0  0  0
 28 26  1  0  0  0  0
 29 24  1  0  0  0  0
 31 30  1  0  0  0  0
 32  2  1  0  0  0  0
 33 32  1  0  0  0  0
 34 33  1  0  0  0  0
 35 34  1  0  0  0  0
 37 38  2  0  0  0  0
 38 36  1  0  0  0  0
 38 35  1  0  0  0  0
 39 35  1  0  0  0  0
 40 39  1  0  0  0  0
M  END
>  <MODEL>
1

>  <REMARK>
 VINA RESULT:      -7.6      0.000      0.000
  Name = 
  11 active torsions:
  status: ('A' for Active; 'I' for Inactive)
    1  A    between atoms: C_1  and  S_7
    2  A    between atoms: C_1  and  C_14
    3  A    between atoms: C_3  and  C_26
    4  A    between atoms: N_4  and  C_25
    5  A    between atoms: N_4  and  CA_30
    6  A    between atoms: C_6  and  S_7
    7  A    between atoms: C_14  and  C_23
    8  A    between atoms: C_17  and  C_34
    9  A    between atoms: C_18  and  CA_30
   10  A    between atoms: C_25  and  C_26
   11  A    between atoms: CA_30  and  C_31
                            x       y       z     vdW  Elec       q    Type
                         _______ _______ _______ _____ _____    ______ ____

>  <TORSDO>
F 11

$$$$
=
 OpenBabel11052410363D

 40 45  0  0  1  0  0  0  0  0999 V2000
  161.1620  208.3280  152.0250 N   0  0  0  0  0  0  0  0  0  0  0  0
  161.0880  206.3340  150.6020 C   0  0  0  0  0  0  0  0  0  0  0  0
  160.2830  208.8010  154.2160 N   0  0  1  0  0  0  0  0  0  0  0  0
  160.3300  211.2090  154.8730 C   0  0  1  0  0  3  0  0  0  0  0  0
  161.2120  202.6790  151.5230 C   0  0  0  0  0  1  0  0  0  0  0  0
  160.7050  209.3680  152.9610 C   0  0  2  0  0  0  0  0  0  0  0  0
  161.1900  204.1600  151.6370 C   0  0  0  0  0  0  0  0  0  0  0  0
  161.3260  208.0030  154.8810 C   0  0  2  0  0  3  0  0  0  0  0  0
  159.6190  209.9170  154.9220 C   0  0  1  0  0  3  0  0  0  0  0  0
  161.2470  204.7470  152.8630 N   0  0  0  0  0  0  0  0  0  0  0  0
  161.2910  206.6150  154.3820 N   0  0  0  0  0  2  0  0  0  0  0  0
  161.1120  204.9440  150.4860 C   0  0  0  0  0  3  0  0  0  0  0  0
  159.8350  210.5260  152.6150 C   0  0  0  0  0  2  0  0  0  0  0  0
  161.2330  206.0980  153.0270 C   0  0  0  0  0  0  0  0  0  0  0  0
  159.2430  210.9410  153.9030 N   0  0  2  0  0  0  0  0  0  0  0  0
  162.0140  209.4460  152.5760 C   0  0  0  0  0  2  0  0  0  0  0  0
  161.1500  206.9200  151.8750 C   0  0  0  0  0  0  0  0  0  0  0  0
  159.7400  212.2980  156.1580 S   0  0  0  0  0  0  0  0  0  0  0  0
  158.7320  211.6050  157.0340 O   0  0  0  0  0  0  0  0  0  0  0  0
  160.9050  212.7380  156.9990 O   0  0  0  0  0  0  0  0  0  0  0  0
  158.9920  213.7260  155.4010 C   0  0  2  0  0  3  0  0  0  0  0  0
  158.3150  214.4530  156.3630 F   0  0  0  0  0  0  0  0  0  0  0  0
  158.0300  213.2860  154.3110 C   0  0  0  0  0  2  0  0  0  0  0  0
  156.7500  214.0270  152.3310 C   0  0  0  0  0  0  0  0  0  0  0  0
  155.5270  214.0620  152.6230 O   0  0  0  0  0  0  0  0  0  0  0  0
  157.8340  214.3820  153.2750 C   0  0  2  0  0  3  0  0  0  0  0  0
  158.6530  213.7980  151.0210 C   0  0  0  0  0  2  0  0  0  0  0  0
  159.0590  214.4190  152.3640 C   0  0  0  0  0  2  0  0  0  0  0  0
  157.2070  213.6910  151.0400 N   0  0  0  0  0  2  0  0  0  0  0  0
  160.3660  206.8480  156.9190 C   0  0  0  0  0  1  0  0  0  0  0  0
  161.2080  208.0060  156.4090 C   0  0  0  0  0  2  0  0  0  0  0  0
  161.0130  207.1660  149.3650 C   0  0  0  0  0  2  0  0  0  0  0  0
  162.1660  206.8350  148.4390 C   0  0  0  0  0  2  0  0  0  0  0  0
  161.7470  207.0230  147.0610 N   0  0  0  0  0  2  0  0  0  0  0  0
  161.1850  205.7600  146.6080 C   0  0  2  0  0  3  0  0  0  0  0  0
  163.3430  204.8320  146.2080 O   0  0  0  0  0  0  0  0  0  0  0  0
  161.9260  203.5160  147.4400 O   0  0  0  0  0  1  0  0  0  0  0  0
  162.2110  204.6820  146.7380 C   0  0  0  0  0  0  0  0  0  0  0  0
  160.7190  205.8910  145.1640 C   0  0  0  0  0  2  0  0  0  0  0  0
  160.0680  204.6640  144.7380 N   0  0  0  0  0  1  0  0  0  0  0  0
  1 16  1  0  0  0  0
  1  6  1  0  0  0  0
  2 17  2  0  0  0  0
  3  8  1  0  0  0  0
  3  9  1  0  0  0  0
  4  9  1  0  0  0  0
  4 18  1  0  0  0  0
  5  7  1  0  0  0  0
  6  3  1  0  0  0  0
  7 10  1  0  0  0  0
  8 31  1  0  0  0  0
 10 14  2  0  0  0  0
 11  8  1  0  0  0  0
 12  2  1  0  0  0  0
 12  7  2  0  0  0  0
 13  6  1  0  0  0  0
 13 15  1  0  0  0  0
 14 11  1  0  0  0  0
 15  4  1  0  0  0  0
 15  9  1  0  0  0  0
 16  6  1  0  0  0  0
 17  1  1  0  0  0  0
 17 14  1  0  0  0  0
 18 20  2  0  0  0  0
 18 19  2  0  0  0  0
 21 18  1  0  0  0  0
 21 22  1  0  0  0  0
 23 21  1  0  0  0  0
 24 25  2  0  0  0  0
 24 26  1  0  0  0  0
 26 23  1  0  0  0  0
 27 29  1  0  0  0  0
 27 28  1  0  0  0  0
 28 26  1  0  0  0  0
 29 24  1  0  0  0  0
 31 30  1  0  0  0  0
 32  2  1  0  0  0  0
 33 32  1  0  0  0  0
 34 33  1  0  0  0  0
 35 38  1  0  0  0  0
 35 34  1  0  0  0  0
 36 38  2  0  0  0  0
 38 37  1  0  0  0  0
 39 35  1  0  0  0  0
 40 39  1  0  0  0  0
M  END
>  <MODEL>
2

>  <REMARK>
 VINA RESULT:      -7.3      1.526      1.880
  Name = 
  11 active torsions:
  status: ('A' for Active; 'I' for Inactive)
    1  A    between atoms: C_1  and  S_7
    2  A    between atoms: C_1  and  C_14
    3  A    between atoms: C_3  and  C_26
    4  A    between atoms: N_4  and  C_25
    5  A    between atoms: N_4  and  CA_30
    6  A    between atoms: C_6  and  S_7
    7  A    between atoms: C_14  and  C_23
    8  A    between atoms: C_17  and  C_34
    9  A    between atoms: C_18  and  CA_30
   10  A    between atoms: C_25  and  C_26
   11  A    between atoms: CA_30  and  C_31
                            x       y       z     vdW  Elec       q    Type
                         _______ _______ _______ _____ _____    ______ ____

>  <TORSDO>
F 11

$$$$
=
 OpenBabel11052410363D

 40 45  0  0  1  0  0  0  0  0999 V2000
  161.5850  206.4000  152.7840 N   0  0  0  0  0  0  0  0  0  0  0  0
  161.2130  208.4830  154.0210 C   0  0  0  0  0  0  0  0  0  0  0  0
  160.6080  205.4990  150.7760 N   0  0  1  0  0  0  0  0  0  0  0  0
  161.1300  203.0980  150.3370 C   0  0  1  0  0  3  0  0  0  0  0  0
  160.4080  211.9480  152.7680 C   0  0  0  0  0  1  0  0  0  0  0  0
  161.2780  205.1840  152.0120 C   0  0  2  0  0  0  0  0  0  0  0  0
  160.7100  210.4930  152.7910 C   0  0  0  0  0  0  0  0  0  0  0  0
  161.3670  206.4190  149.9140 C   0  0  2  0  0  3  0  0  0  0  0  0
  160.1430  204.1930  150.2650 C   0  0  1  0  0  3  0  0  0  0  0  0
  160.7670  209.7940  151.6260 N   0  0  0  0  0  0  0  0  0  0  0  0
  161.0720  207.8160  150.2870 N   0  0  0  0  0  2  0  0  0  0  0  0
  160.9330  209.8500  154.0080 C   0  0  0  0  0  3  0  0  0  0  0  0
  160.7350  203.9160  152.5700 C   0  0  0  0  0  2  0  0  0  0  0  0
  161.0430  208.4610  151.5870 C   0  0  0  0  0  0  0  0  0  0  0  0
  160.1190  203.2370  151.4110 N   0  0  2  0  0  0  0  0  0  0  0  0
  162.6040  205.4340  152.2310 C   0  0  0  0  0  2  0  0  0  0  0  0
  161.2710  207.7800  152.8090 C   0  0  0  0  0  0  0  0  0  0  0  0
  160.6680  201.7660  149.2410 S   0  0  0  0  0  0  0  0  0  0  0  0
  161.6880  200.6610  149.2740 O   0  0  0  0  0  0  0  0  0  0  0  0
  159.3350  201.2210  149.6690 O   0  0  0  0  0  0  0  0  0  0  0  0
  160.5340  202.4070  147.5850 C   0  0  2  0  0  3  0  0  0  0  0  0
  160.6960  201.3740  146.6790 F   0  0  0  0  0  0  0  0  0  0  0  0
  161.5960  203.4690  147.3560 C   0  0  0  0  0  2  0  0  0  0  0  0
  162.9750  204.6260  145.6640 C   0  0  0  0  0  0  0  0  0  0  0  0
  164.1840  204.5670  146.0090 O   0  0  0  0  0  0  0  0  0  0  0  0
  161.9990  203.5370  145.8910 C   0  0  2  0  0  3  0  0  0  0  0  0
  161.0500  205.4630  144.6740 C   0  0  0  0  0  2  0  0  0  0  0  0
  160.7950  204.0040  145.0750 C   0  0  0  0  0  2  0  0  0  0  0  0
  162.4440  205.7320  144.9690 N   0  0  0  0  0  2  0  0  0  0  0  0
  161.2420  207.5030  147.6290 C   0  0  0  0  0  1  0  0  0  0  0  0
  161.0920  206.2140  148.4210 C   0  0  0  0  0  2  0  0  0  0  0  0
  161.4600  207.8020  155.3270 C   0  0  0  0  0  2  0  0  0  0  0  0
  161.2100  208.7610  156.4740 C   0  0  0  0  0  2  0  0  0  0  0  0
  159.7830  209.0040  156.5980 N   0  0  0  0  0  2  0  0  0  0  0  0
  159.6240  210.2900  157.2580 C   0  0  2  0  0  3  0  0  0  0  0  0
  157.8940  211.9280  157.2540 O   0  0  0  0  0  1  0  0  0  0  0  0
  158.1960  210.8190  155.2690 O   0  0  0  0  0  0  0  0  0  0  0  0
  158.5250  211.0580  156.5990 C   0  0  0  0  0  0  0  0  0  0  0  0
  160.9340  211.0650  157.1990 C   0  0  0  0  0  2  0  0  0  0  0  0
  160.6880  212.4250  156.7500 N   0  0  0  0  0  1  0  0  0  0  0  0
  1 17  1  0  0  0  0
  2 32  1  0  0  0  0
  3  6  1  0  0  0  0
  4 15  1  0  0  0  0
  5  7  1  0  0  0  0
  6 16  1  0  0  0  0
  6 13  1  0  0  0  0
  6  1  1  0  0  0  0
  7 12  2  0  0  0  0
  8 11  1  0  0  0  0
  8  3  1  0  0  0  0
  9  4  1  0  0  0  0
  9  3  1  0  0  0  0
  9 15  1  0  0  0  0
 10  7  1  0  0  0  0
 11 14  1  0  0  0  0
 12  2  1  0  0  0  0
 14 10  2  0  0  0  0
 14 17  1  0  0  0  0
 15 13  1  0  0  0  0
 16  1  1  0  0  0  0
 17  2  2  0  0  0  0
 18 19  2  0  0  0  0
 18 20  2  0  0  0  0
 18  4  1  0  0  0  0
 21 18  1  0  0  0  0
 22 21  1  0  0  0  0
 23 21  1  0  0  0  0
 24 26  1  0  0  0  0
 24 25  2  0  0  0  0
 26 23  1  0  0  0  0
 27 29  1  0  0  0  0
 27 28  1  0  0  0  0
 28 26  1  0  0  0  0
 29 24  1  0  0  0  0
 30 31  1  0  0  0  0
 31  8  1  0  0  0  0
 32 33  1  0  0  0  0
 33 34  1  0  0  0  0
 34 35  1  0  0  0  0
 37 38  2  0  0  0  0
 38 36  1  0  0  0  0
 38 35  1  0  0  0  0
 39 35  1  0  0  0  0
 40 39  1  0  0  0  0
M  END
>  <MODEL>
3

>  <REMARK>
 VINA RESULT:      -6.5      3.858     10.475
  Name = 
  11 active torsions:
  status: ('A' for Active; 'I' for Inactive)
    1  A    between atoms: C_1  and  S_7
    2  A    between atoms: C_1  and  C_14
    3  A    between atoms: C_3  and  C_26
    4  A    between atoms: N_4  and  C_25
    5  A    between atoms: N_4  and  CA_30
    6  A    between atoms: C_6  and  S_7
    7  A    between atoms: C_14  and  C_23
    8  A    between atoms: C_17  and  C_34
    9  A    between atoms: C_18  and  CA_30
   10  A    between atoms: C_25  and  C_26
   11  A    between atoms: CA_30  and  C_31
                            x       y       z     vdW  Elec       q    Type
                         _______ _______ _______ _____ _____    ______ ____

>  <TORSDO>
F 11

$$$$
=
 OpenBabel11052410363D

 40 45  0  0  1  0  0  0  0  0999 V2000
  161.8710  209.3320  151.2820 N   0  0  0  0  0  0  0  0  0  0  0  0
  161.8940  208.0310  149.2050 C   0  0  0  0  0  0  0  0  0  0  0  0
  160.4740  209.2490  153.2420 N   0  0  1  0  0  0  0  0  0  0  0  0
  160.7200  211.1900  154.7930 C   0  0  1  0  0  3  0  0  0  0  0  0
  161.1400  204.3850  148.6060 C   0  0  0  0  0  1  0  0  0  0  0  0
  161.3340  210.0760  152.4340 C   0  0  2  0  0  0  0  0  0  0  0  0
  161.3280  205.6900  149.2900 C   0  0  0  0  0  0  0  0  0  0  0  0
  161.1290  208.0290  153.7400 C   0  0  2  0  0  3  0  0  0  0  0  0
  159.8240  210.1930  154.1750 C   0  0  1  0  0  3  0  0  0  0  0  0
  161.1160  205.7910  150.6300 N   0  0  0  0  0  0  0  0  0  0  0  0
  161.0160  206.9530  152.7370 N   0  0  0  0  0  2  0  0  0  0  0  0
  161.7230  206.8080  148.5550 C   0  0  0  0  0  3  0  0  0  0  0  0
  160.8080  211.4670  152.4000 C   0  0  0  0  0  2  0  0  0  0  0  0
  161.2760  206.9600  151.3090 C   0  0  0  0  0  0  0  0  0  0  0  0
  159.9380  211.5620  153.5900 N   0  0  2  0  0  0  0  0  0  0  0  0
  162.6930  209.9320  152.3970 C   0  0  0  0  0  2  0  0  0  0  0  0
  161.6730  208.1140  150.5880 C   0  0  0  0  0  0  0  0  0  0  0  0
  159.9640  211.8940  156.2480 S   0  0  0  0  0  0  0  0  0  0  0  0
  158.9600  210.9480  156.8490 O   0  0  0  0  0  0  0  0  0  0  0  0
  161.0340  212.1880  157.2610 O   0  0  0  0  0  0  0  0  0  0  0  0
  159.1540  213.4150  155.7950 C   0  0  2  0  0  3  0  0  0  0  0  0
  160.0660  214.4530  155.8470 F   0  0  0  0  0  0  0  0  0  0  0  0
  158.0020  213.6880  156.7480 C   0  0  0  0  0  2  0  0  0  0  0  0
  155.8930  212.5270  156.1940 C   0  0  0  0  0  0  0  0  0  0  0  0
  155.2920  212.2350  157.2610 O   0  0  0  0  0  0  0  0  0  0  0  0
  156.6780  213.7660  156.0030 C   0  0  2  0  0  3  0  0  0  0  0  0
  156.5740  212.3540  153.9820 C   0  0  0  0  0  2  0  0  0  0  0  0
  156.9600  213.7450  154.5020 C   0  0  0  0  0  2  0  0  0  0  0  0
  155.8260  211.7120  155.0460 N   0  0  0  0  0  2  0  0  0  0  0  0
  161.4660  207.9280  156.2470 C   0  0  0  0  0  1  0  0  0  0  0  0
  160.5680  207.5460  155.0820 C   0  0  0  0  0  2  0  0  0  0  0  0
  162.3250  209.2220  148.4130 C   0  0  0  0  0  2  0  0  0  0  0  0
  161.5660  210.4540  148.8640 C   0  0  0  0  0  2  0  0  0  0  0  0
  162.1630  211.6340  148.2630 N   0  0  0  0  0  2  0  0  0  0  0  0
  161.0850  212.5750  148.0060 C   0  0  2  0  0  3  0  0  0  0  0  0
  162.0200  212.9620  145.8490 O   0  0  0  0  0  0  0  0  0  0  0  0
  159.7290  212.8920  145.9230 O   0  0  0  0  0  1  0  0  0  0  0  0
  160.9750  212.8210  146.5360 C   0  0  0  0  0  0  0  0  0  0  0  0
  161.3470  213.8760  148.7530 C   0  0  0  0  0  2  0  0  0  0  0  0
  160.3240  214.0850  149.7640 N   0  0  0  0  0  1  0  0  0  0  0  0
  1 16  1  0  0  0  0
  1  6  1  0  0  0  0
  2 17  2  0  0  0  0
  3  8  1  0  0  0  0
  3  9  1  0  0  0  0
  4 18  1  0  0  0  0
  5  7  1  0  0  0  0
  6  3  1  0  0  0  0
  7 10  1  0  0  0  0
  8 31  1  0  0  0  0
  9  4  1  0  0  0  0
 10 14  2  0  0  0  0
 11  8  1  0  0  0  0
 12  2  1  0  0  0  0
 12  7  2  0  0  0  0
 13  6  1  0  0  0  0
 13 15  1  0  0  0  0
 14 11  1  0  0  0  0
 15  9  1  0  0  0  0
 15  4  1  0  0  0  0
 16  6  1  0  0  0  0
 17  1  1  0  0  0  0
 17 14  1  0  0  0  0
 18 19  2  0  0  0  0
 18 20  2  0  0  0  0
 21 22  1  0  0  0  0
 21 18  1  0  0  0  0
 21 23  1  0  0  0  0
 24 25  2  0  0  0  0
 26 24  1  0  0  0  0
 26 23  1  0  0  0  0
 27 28  1  0  0  0  0
 27 29  1  0  0  0  0
 28 26  1  0  0  0  0
 29 24  1  0  0  0  0
 31 30  1  0  0  0  0
 32 33  1  0  0  0  0
 32  2  1  0  0  0  0
 34 33  1  0  0  0  0
 35 34  1  0  0  0  0
 35 39  1  0  0  0  0
 36 38  2  0  0  0  0
 37 38  1  0  0  0  0
 38 35  1  0  0  0  0
 39 40  1  0  0  0  0
M  END
>  <MODEL>
4

>  <REMARK>
 VINA RESULT:      -5.9      2.938      3.749
  Name = 
  11 active torsions:
  status: ('A' for Active; 'I' for Inactive)
    1  A    between atoms: C_1  and  S_7
    2  A    between atoms: C_1  and  C_14
    3  A    between atoms: C_3  and  C_26
    4  A    between atoms: N_4  and  C_25
    5  A    between atoms: N_4  and  CA_30
    6  A    between atoms: C_6  and  S_7
    7  A    between atoms: C_14  and  C_23
    8  A    between atoms: C_17  and  C_34
    9  A    between atoms: C_18  and  CA_30
   10  A    between atoms: C_25  and  C_26
   11  A    between atoms: CA_30  and  C_31
                            x       y       z     vdW  Elec       q    Type
                         _______ _______ _______ _____ _____    ______ ____

>  <TORSDO>
F 11

$$$$
=
 OpenBabel11052410363D

 40 45  0  0  1  0  0  0  0  0999 V2000
  161.2190  207.8990  151.4170 N   0  0  0  0  0  0  0  0  0  0  0  0
  160.9600  205.8880  150.0400 C   0  0  0  0  0  0  0  0  0  0  0  0
  160.5190  208.4440  153.6550 N   0  0  1  0  0  0  0  0  0  0  0  0
  160.7150  210.8580  154.2620 C   0  0  1  0  0  3  0  0  0  0  0  0
  160.9940  202.2460  151.0180 C   0  0  0  0  0  1  0  0  0  0  0  0
  160.8740  208.9730  152.3630 C   0  0  2  0  0  0  0  0  0  0  0  0
  161.0430  203.7290  151.1050 C   0  0  0  0  0  0  0  0  0  0  0  0
  161.5720  207.6120  154.2590 C   0  0  2  0  0  3  0  0  0  0  0  0
  159.9550  209.5990  154.3850 C   0  0  1  0  0  3  0  0  0  0  0  0
  161.2120  204.3320  152.3130 N   0  0  0  0  0  0  0  0  0  0  0  0
  161.4430  206.2190  153.7900 N   0  0  0  0  0  2  0  0  0  0  0  0
  160.9170  204.4970  149.9480 C   0  0  0  0  0  3  0  0  0  0  0  0
  160.0320  210.1620  152.0570 C   0  0  0  0  0  2  0  0  0  0  0  0
  161.2670  205.6850  152.4520 C   0  0  0  0  0  0  0  0  0  0  0  0
  159.5510  210.6220  153.3760 N   0  0  2  0  0  0  0  0  0  0  0  0
  162.1540  208.9880  151.8850 C   0  0  0  0  0  2  0  0  0  0  0  0
  161.1370  206.4910  151.2940 C   0  0  0  0  0  0  0  0  0  0  0  0
  160.2640  211.9910  155.5650 S   0  0  0  0  0  0  0  0  0  0  0  0
  161.4010  212.1850  156.5310 O   0  0  0  0  0  0  0  0  0  0  0  0
  159.9020  213.3160  154.9560 O   0  0  0  0  0  0  0  0  0  0  0  0
  158.8500  211.3390  156.4290 C   0  0  2  0  0  3  0  0  0  0  0  0
  158.9390  209.9600  156.4800 F   0  0  0  0  0  0  0  0  0  0  0  0
  157.5740  211.7500  155.7120 C   0  0  0  0  0  2  0  0  0  0  0  0
  155.4650  212.8110  156.4370 C   0  0  0  0  0  0  0  0  0  0  0  0
  154.8710  212.0410  157.2350 O   0  0  0  0  0  0  0  0  0  0  0  0
  156.9350  212.9600  156.3760 C   0  0  2  0  0  3  0  0  0  0  0  0
  155.7360  214.4500  154.8160 C   0  0  0  0  0  2  0  0  0  0  0  0
  157.1030  214.1680  155.4550 C   0  0  0  0  0  2  0  0  0  0  0  0
  154.7690  213.6580  155.5500 N   0  0  0  0  0  2  0  0  0  0  0  0
  160.3980  206.8600  156.3720 C   0  0  0  0  0  1  0  0  0  0  0  0
  161.5630  207.6450  155.7910 C   0  0  0  0  0  2  0  0  0  0  0  0
  160.8330  206.7040  148.7960 C   0  0  0  0  0  2  0  0  0  0  0  0
  162.2000  207.1470  148.3160 C   0  0  0  0  0  2  0  0  0  0  0  0
  162.4770  206.5460  147.0230 N   0  0  0  0  0  2  0  0  0  0  0  0
  161.3680  205.6550  146.7200 C   0  0  2  0  0  3  0  0  0  0  0  0
  161.4070  203.2720  146.7170 O   0  0  0  0  0  1  0  0  0  0  0  0
  162.9270  204.2770  145.3240 O   0  0  0  0  0  0  0  0  0  0  0  0
  161.8980  204.3370  146.2580 C   0  0  0  0  0  0  0  0  0  0  0  0
  160.4800  206.2830  145.6530 C   0  0  0  0  0  2  0  0  0  0  0  0
  160.8430  205.7750  144.3410 N   0  0  0  0  0  1  0  0  0  0  0  0
  1 16  1  0  0  0  0
  1  6  1  0  0  0  0
  2 17  2  0  0  0  0
  3  8  1  0  0  0  0
  3  9  1  0  0  0  0
  4  9  1  0  0  0  0
  4 18  1  0  0  0  0
  5  7  1  0  0  0  0
  6  3  1  0  0  0  0
  7 10  1  0  0  0  0
  8 31  1  0  0  0  0
 10 14  2  0  0  0  0
 11  8  1  0  0  0  0
 12  2  1  0  0  0  0
 12  7  2  0  0  0  0
 13  6  1  0  0  0  0
 13 15  1  0  0  0  0
 14 11  1  0  0  0  0
 15  4  1  0  0  0  0
 15  9  1  0  0  0  0
 16  6  1  0  0  0  0
 17  1  1  0  0  0  0
 17 14  1  0  0  0  0
 18 21  1  0  0  0  0
 18 19  2  0  0  0  0
 20 18  2  0  0  0  0
 21 22  1  0  0  0  0
 23 26  1  0  0  0  0
 23 21  1  0  0  0  0
 24 25  2  0  0  0  0
 26 24  1  0  0  0  0
 27 28  1  0  0  0  0
 27 29  1  0  0  0  0
 28 26  1  0  0  0  0
 29 24  1  0  0  0  0
 31 30  1  0  0  0  0
 32  2  1  0  0  0  0
 33 32  1  0  0  0  0
 34 33  1  0  0  0  0
 35 34  1  0  0  0  0
 37 38  2  0  0  0  0
 38 36  1  0  0  0  0
 38 35  1  0  0  0  0
 39 35  1  0  0  0  0
 40 39  1  0  0  0  0
M  END
>  <MODEL>
5

>  <REMARK>
 VINA RESULT:      -5.8      1.251      1.405
  Name = 
  11 active torsions:
  status: ('A' for Active; 'I' for Inactive)
    1  A    between atoms: C_1  and  S_7
    2  A    between atoms: C_1  and  C_14
    3  A    between atoms: C_3  and  C_26
    4  A    between atoms: N_4  and  C_25
    5  A    between atoms: N_4  and  CA_30
    6  A    between atoms: C_6  and  S_7
    7  A    between atoms: C_14  and  C_23
    8  A    between atoms: C_17  and  C_34
    9  A    between atoms: C_18  and  CA_30
   10  A    between atoms: C_25  and  C_26
   11  A    between atoms: CA_30  and  C_31
                            x       y       z     vdW  Elec       q    Type
                         _______ _______ _______ _____ _____    ______ ____

>  <TORSDO>
F 11

$$$$
=
 OpenBabel11052410363D

 40 45  0  0  1  0  0  0  0  0999 V2000
  162.0080  207.2920  151.2050 N   0  0  0  0  0  0  0  0  0  0  0  0
  161.9400  209.7370  151.3590 C   0  0  0  0  0  0  0  0  0  0  0  0
  161.0600  205.7310  149.6360 N   0  0  1  0  0  0  0  0  0  0  0  0
  161.1380  203.3400  150.3510 C   0  0  1  0  0  3  0  0  0  0  0  0
  161.9480  212.3500  148.6400 C   0  0  0  0  0  1  0  0  0  0  0  0
  161.5400  205.9140  150.9820 C   0  0  2  0  0  0  0  0  0  0  0  0
  161.9560  211.0330  149.3280 C   0  0  0  0  0  0  0  0  0  0  0  0
  162.0600  206.0560  148.6060 C   0  0  2  0  0  3  0  0  0  0  0  0
  160.3960  204.4110  149.6570 C   0  0  1  0  0  3  0  0  0  0  0  0
  161.9810  209.8860  148.5970 N   0  0  0  0  0  0  0  0  0  0  0  0
  162.0120  207.4970  148.2950 N   0  0  0  0  0  2  0  0  0  0  0  0
  161.9370  210.9780  150.7210 C   0  0  0  0  0  3  0  0  0  0  0  0
  160.7110  205.1160  151.9250 C   0  0  0  0  0  2  0  0  0  0  0  0
  161.9920  208.6530  149.1730 C   0  0  0  0  0  0  0  0  0  0  0  0
  160.0810  204.0810  151.0780 N   0  0  2  0  0  0  0  0  0  0  0  0
  162.8640  206.0520  151.2930 C   0  0  0  0  0  2  0  0  0  0  0  0
  161.9690  208.5660  150.5880 C   0  0  0  0  0  0  0  0  0  0  0  0
  160.5260  201.7360  149.8640 S   0  0  0  0  0  0  0  0  0  0  0  0
  160.8800  200.6890  150.8840 O   0  0  0  0  0  0  0  0  0  0  0  0
  159.0320  201.8050  149.7240 O   0  0  0  0  0  0  0  0  0  0  0  0
  161.2410  201.3030  148.2910 C   0  0  2  0  0  3  0  0  0  0  0  0
  162.5660  200.9520  148.4700 F   0  0  0  0  0  0  0  0  0  0  0  0
  161.1420  202.4840  147.3390 C   0  0  0  0  0  2  0  0  0  0  0  0
  160.3850  202.7690  145.0040 C   0  0  0  0  0  0  0  0  0  0  0  0
  160.5320  203.9730  144.6690 O   0  0  0  0  0  0  0  0  0  0  0  0
  161.3170  202.0410  145.8930 C   0  0  2  0  0  3  0  0  0  0  0  0
  159.4790  200.6330  145.0410 C   0  0  0  0  0  2  0  0  0  0  0  0
  160.8320  200.5980  145.7620 C   0  0  0  0  0  2  0  0  0  0  0  0
  159.3310  201.9740  144.5100 N   0  0  0  0  0  2  0  0  0  0  0  0
  162.7060  205.8110  146.1700 C   0  0  0  0  0  1  0  0  0  0  0  0
  161.8860  205.2440  147.3180 C   0  0  0  0  0  2  0  0  0  0  0  0
  161.9300  209.6860  152.8510 C   0  0  0  0  0  2  0  0  0  0  0  0
  160.5480  210.0180  153.3780 C   0  0  0  0  0  2  0  0  0  0  0  0
  160.5950  210.1200  154.8260 N   0  0  0  0  0  2  0  0  0  0  0  0
  161.5000  209.0840  155.2990 C   0  0  2  0  0  3  0  0  0  0  0  0
  160.5730  206.9530  154.7720 O   0  0  0  0  0  0  0  0  0  0  0  0
  160.1580  207.7010  156.9000 O   0  0  0  0  0  1  0  0  0  0  0  0
  160.7200  207.8550  155.6370 C   0  0  0  0  0  0  0  0  0  0  0  0
  162.2680  209.5870  156.5140 C   0  0  0  0  0  2  0  0  0  0  0  0
  163.1210  210.7020  156.1370 N   0  0  0  0  0  1  0  0  0  0  0  0
  1 16  1  0  0  0  0
  2 32  1  0  0  0  0
  3  9  1  0  0  0  0
  3  6  1  0  0  0  0
  4 15  1  0  0  0  0
  5  7  1  0  0  0  0
  6  1  1  0  0  0  0
  6 16  1  0  0  0  0
  6 13  1  0  0  0  0
  7 12  2  0  0  0  0
  8  3  1  0  0  0  0
  9  4  1  0  0  0  0
  9 15  1  0  0  0  0
 10 14  2  0  0  0  0
 10  7  1  0  0  0  0
 11  8  1  0  0  0  0
 11 14  1  0  0  0  0
 12  2  1  0  0  0  0
 14 17  1  0  0  0  0
 15 13  1  0  0  0  0
 17  1  1  0  0  0  0
 17  2  2  0  0  0  0
 18  4  1  0  0  0  0
 18 19  2  0  0  0  0
 20 18  2  0  0  0  0
 21 22  1  0  0  0  0
 21 18  1  0  0  0  0
 23 21  1  0  0  0  0
 24 26  1  0  0  0  0
 25 24  2  0  0  0  0
 26 23  1  0  0  0  0
 27 28  1  0  0  0  0
 28 26  1  0  0  0  0
 29 24  1  0  0  0  0
 29 27  1  0  0  0  0
 30 31  1  0  0  0  0
 31  8  1  0  0  0  0
 32 33  1  0  0  0  0
 33 34  1  0  0  0  0
 34 35  1  0  0  0  0
 35 38  1  0  0  0  0
 35 39  1  0  0  0  0
 36 38  2  0  0  0  0
 38 37  1  0  0  0  0
 40 39  1  0  0  0  0
M  END
>  <MODEL>
6

>  <REMARK>
 VINA RESULT:      -5.6      4.458     10.426
  Name = 
  11 active torsions:
  status: ('A' for Active; 'I' for Inactive)
    1  A    between atoms: C_1  and  S_7
    2  A    between atoms: C_1  and  C_14
    3  A    between atoms: C_3  and  C_26
    4  A    between atoms: N_4  and  C_25
    5  A    between atoms: N_4  and  CA_30
    6  A    between atoms: C_6  and  S_7
    7  A    between atoms: C_14  and  C_23
    8  A    between atoms: C_17  and  C_34
    9  A    between atoms: C_18  and  CA_30
   10  A    between atoms: C_25  and  C_26
   11  A    between atoms: CA_30  and  C_31
                            x       y       z     vdW  Elec       q    Type
                         _______ _______ _______ _____ _____    ______ ____

>  <TORSDO>
F 11

$$$$
=
 OpenBabel11052410363D

 40 45  0  0  1  0  0  0  0  0999 V2000
  160.9510  208.2230  151.0510 N   0  0  0  0  0  0  0  0  0  0  0  0
  161.0210  209.2660  153.2690 C   0  0  0  0  0  0  0  0  0  0  0  0
  162.0620  206.3020  150.1180 N   0  0  1  0  0  0  0  0  0  0  0  0
  161.8800  206.0830  147.6370 C   0  0  1  0  0  3  0  0  0  0  0  0
  161.3520  207.7020  156.6850 C   0  0  0  0  0  1  0  0  0  0  0  0
  161.4300  207.5630  149.8260 C   0  0  2  0  0  0  0  0  0  0  0  0
  161.2530  207.8570  155.2110 C   0  0  0  0  0  0  0  0  0  0  0  0
  161.1910  205.3620  150.8430 C   0  0  2  0  0  3  0  0  0  0  0  0
  162.7070  205.9090  148.8480 C   0  0  1  0  0  3  0  0  0  0  0  0
  161.3040  206.7600  154.4080 N   0  0  0  0  0  0  0  0  0  0  0  0
  161.2880  205.6060  152.2940 N   0  0  0  0  0  2  0  0  0  0  0  0
  161.1090  209.1280  154.6550 C   0  0  0  0  0  3  0  0  0  0  0  0
  162.1380  208.2320  148.7000 C   0  0  0  0  0  2  0  0  0  0  0  0
  161.2150  206.8420  153.0520 C   0  0  0  0  0  0  0  0  0  0  0  0
  162.8520  207.1370  148.0110 N   0  0  2  0  0  0  0  0  0  0  0  0
  160.0800  207.7630  149.9080 C   0  0  0  0  0  2  0  0  0  0  0  0
  161.0720  208.1220  152.4580 C   0  0  0  0  0  0  0  0  0  0  0  0
  162.5310  205.1110  146.2890 S   0  0  0  0  0  0  0  0  0  0  0  0
  162.4810  205.8770  144.9960 O   0  0  0  0  0  0  0  0  0  0  0  0
  163.9570  204.7470  146.5930 O   0  0  0  0  0  0  0  0  0  0  0  0
  161.5680  203.6200  146.1390 C   0  0  2  0  0  3  0  0  0  0  0  0
  160.3860  203.9030  145.4780 F   0  0  0  0  0  0  0  0  0  0  0  0
  161.2680  203.0600  147.5200 C   0  0  0  0  0  2  0  0  0  0  0  0
  161.0560  200.6860  148.1690 C   0  0  0  0  0  0  0  0  0  0  0  0
  161.0790  200.6000  149.4240 O   0  0  0  0  0  0  0  0  0  0  0  0
  160.4210  201.8000  147.4300 C   0  0  2  0  0  3  0  0  0  0  0  0
  161.3590  200.0580  145.9560 C   0  0  0  0  0  2  0  0  0  0  0  0
  160.4490  201.2930  145.9890 C   0  0  0  0  0  2  0  0  0  0  0  0
  161.5950  199.6840  147.3360 N   0  0  0  0  0  2  0  0  0  0  0  0
  161.1910  202.9890  151.7250 C   0  0  0  0  0  1  0  0  0  0  0  0
  161.5060  203.8930  150.5440 C   0  0  0  0  0  2  0  0  0  0  0  0
  160.8580  210.6280  152.6810 C   0  0  0  0  0  2  0  0  0  0  0  0
  159.4460  211.1310  152.9050 C   0  0  0  0  0  2  0  0  0  0  0  0
  159.4920  212.5060  153.3730 N   0  0  0  0  0  2  0  0  0  0  0  0
  158.5860  212.6020  154.5060 C   0  0  2  0  0  3  0  0  0  0  0  0
  160.2100  213.2160  156.1390 O   0  0  0  0  0  0  0  0  0  0  0  0
  159.1010  211.2520  156.5530 O   0  0  0  0  0  1  0  0  0  0  0  0
  159.3450  212.3770  155.7740 C   0  0  0  0  0  0  0  0  0  0  0  0
  157.4660  211.5800  154.3590 C   0  0  0  0  0  2  0  0  0  0  0  0
  156.1900  212.1860  154.7020 N   0  0  0  0  0  1  0  0  0  0  0  0
  1 17  1  0  0  0  0
  2 12  1  0  0  0  0
  3  8  1  0  0  0  0
  4 15  1  0  0  0  0
  4  9  1  0  0  0  0
  6 16  1  0  0  0  0
  6  3  1  0  0  0  0
  6  1  1  0  0  0  0
  7  5  1  0  0  0  0
  8 11  1  0  0  0  0
  9  3  1  0  0  0  0
 10  7  1  0  0  0  0
 11 14  1  0  0  0  0
 12  7  2  0  0  0  0
 13  6  1  0  0  0  0
 14 10  2  0  0  0  0
 15 13  1  0  0  0  0
 15  9  1  0  0  0  0
 16  1  1  0  0  0  0
 17 14  1  0  0  0  0
 17  2  2  0  0  0  0
 18 20  2  0  0  0  0
 18  4  1  0  0  0  0
 19 18  2  0  0  0  0
 21 18  1  0  0  0  0
 21 23  1  0  0  0  0
 22 21  1  0  0  0  0
 24 25  2  0  0  0  0
 26 23  1  0  0  0  0
 26 24  1  0  0  0  0
 27 28  1  0  0  0  0
 27 29  1  0  0  0  0
 28 26  1  0  0  0  0
 29 24  1  0  0  0  0
 31  8  1  0  0  0  0
 31 30  1  0  0  0  0
 32 33  1  0  0  0  0
 32  2  1  0  0  0  0
 33 34  1  0  0  0  0
 34 35  1  0  0  0  0
 35 38  1  0  0  0  0
 38 36  2  0  0  0  0
 38 37  1  0  0  0  0
 39 35  1  0  0  0  0
 39 40  1  0  0  0  0
M  END
>  <MODEL>
7

>  <REMARK>
 VINA RESULT:      -5.1      3.631     10.241
  Name = 
  11 active torsions:
  status: ('A' for Active; 'I' for Inactive)
    1  A    between atoms: C_1  and  S_7
    2  A    between atoms: C_1  and  C_14
    3  A    between atoms: C_3  and  C_26
    4  A    between atoms: N_4  and  C_25
    5  A    between atoms: N_4  and  CA_30
    6  A    between atoms: C_6  and  S_7
    7  A    between atoms: C_14  and  C_23
    8  A    between atoms: C_17  and  C_34
    9  A    between atoms: C_18  and  CA_30
   10  A    between atoms: C_25  and  C_26
   11  A    between atoms: CA_30  and  C_31
                            x       y       z     vdW  Elec       q    Type
                         _______ _______ _______ _____ _____    ______ ____

>  <TORSDO>
F 11

$$$$
=
 OpenBabel11052410363D

 40 45  0  0  1  0  0  0  0  0999 V2000
  161.0840  208.3230  151.0510 N   0  0  0  0  0  0  0  0  0  0  0  0
  161.1910  209.3200  153.2880 C   0  0  0  0  0  0  0  0  0  0  0  0
  162.0330  206.3190  150.1130 N   0  0  1  0  0  0  0  0  0  0  0  0
  161.9010  206.1560  147.6250 C   0  0  1  0  0  3  0  0  0  0  0  0
  161.2770  207.6810  156.6830 C   0  0  0  0  0  1  0  0  0  0  0  0
  161.5320  207.6390  149.8270 C   0  0  2  0  0  0  0  0  0  0  0  0
  161.2350  207.8670  155.2100 C   0  0  0  0  0  0  0  0  0  0  0  0
  161.0570  205.4550  150.7980 C   0  0  2  0  0  3  0  0  0  0  0  0
  162.6730  205.8850  148.8540 C   0  0  1  0  0  3  0  0  0  0  0  0
  161.2030  206.7830  154.3900 N   0  0  0  0  0  0  0  0  0  0  0  0
  161.1360  205.6670  152.2560 N   0  0  0  0  0  2  0  0  0  0  0  0
  161.2270  209.1550  154.6730 C   0  0  0  0  0  3  0  0  0  0  0  0
  162.3310  208.2540  148.7320 C   0  0  0  0  0  2  0  0  0  0  0  0
  161.1600  206.8930  153.0330 C   0  0  0  0  0  0  0  0  0  0  0  0
  162.9570  207.1070  148.0430 N   0  0  2  0  0  0  0  0  0  0  0  0
  160.2060  207.9650  149.8780 C   0  0  0  0  0  2  0  0  0  0  0  0
  161.1560  208.1890  152.4590 C   0  0  0  0  0  0  0  0  0  0  0  0
  162.4940  205.1460  146.2780 S   0  0  0  0  0  0  0  0  0  0  0  0
  162.4320  205.8940  144.9740 O   0  0  0  0  0  0  0  0  0  0  0  0
  163.9160  204.7500  146.5540 O   0  0  0  0  0  0  0  0  0  0  0  0
  161.4880  203.6800  146.1740 C   0  0  2  0  0  3  0  0  0  0  0  0
  160.2080  204.0280  145.7830 F   0  0  0  0  0  0  0  0  0  0  0  0
  161.4470  202.9880  147.5260 C   0  0  0  0  0  2  0  0  0  0  0  0
  161.1340  200.6390  148.2270 C   0  0  0  0  0  0  0  0  0  0  0  0
  161.2070  200.5720  149.4810 O   0  0  0  0  0  0  0  0  0  0  0  0
  160.5290  201.7750  147.4960 C   0  0  2  0  0  3  0  0  0  0  0  0
  161.3050  199.9610  146.0140 C   0  0  0  0  0  2  0  0  0  0  0  0
  160.4670  201.2450  146.0640 C   0  0  0  0  0  2  0  0  0  0  0  0
  161.5800  199.5960  147.3900 N   0  0  0  0  0  2  0  0  0  0  0  0
  161.2370  203.1120  151.7380 C   0  0  0  0  0  1  0  0  0  0  0  0
  161.2400  203.9670  150.4820 C   0  0  0  0  0  2  0  0  0  0  0  0
  161.1740  210.7010  152.7200 C   0  0  0  0  0  2  0  0  0  0  0  0
  160.1820  211.5660  153.4720 C   0  0  0  0  0  2  0  0  0  0  0  0
  158.9190  211.5870  152.7550 N   0  0  0  0  0  2  0  0  0  0  0  0
  158.4770  212.9710  152.7080 C   0  0  2  0  0  3  0  0  0  0  0  0
  156.2690  213.7910  153.0730 O   0  0  0  0  0  0  0  0  0  0  0  0
  157.1470  212.5460  154.7880 O   0  0  0  0  0  1  0  0  0  0  0  0
  157.2380  213.1280  153.5280 C   0  0  0  0  0  0  0  0  0  0  0  0
  158.2240  213.3830  151.2630 C   0  0  0  0  0  2  0  0  0  0  0  0
  159.4820  213.4680  150.5420 N   0  0  0  0  0  1  0  0  0  0  0  0
  1 17  1  0  0  0  0
  2 12  1  0  0  0  0
  3  8  1  0  0  0  0
  4 15  1  0  0  0  0
  4  9  1  0  0  0  0
  6 16  1  0  0  0  0
  6  3  1  0  0  0  0
  6  1  1  0  0  0  0
  7  5  1  0  0  0  0
  8 11  1  0  0  0  0
  9  3  1  0  0  0  0
 10  7  1  0  0  0  0
 11 14  1  0  0  0  0
 12  7  2  0  0  0  0
 13  6  1  0  0  0  0
 14 10  2  0  0  0  0
 15 13  1  0  0  0  0
 15  9  1  0  0  0  0
 16  1  1  0  0  0  0
 17 14  1  0  0  0  0
 17  2  2  0  0  0  0
 18 20  2  0  0  0  0
 18  4  1  0  0  0  0
 19 18  2  0  0  0  0
 21 18  1  0  0  0  0
 21 23  1  0  0  0  0
 22 21  1  0  0  0  0
 24 25  2  0  0  0  0
 26 23  1  0  0  0  0
 26 24  1  0  0  0  0
 27 28  1  0  0  0  0
 27 29  1  0  0  0  0
 28 26  1  0  0  0  0
 29 24  1  0  0  0  0
 31  8  1  0  0  0  0
 31 30  1  0  0  0  0
 32  2  1  0  0  0  0
 32 33  1  0  0  0  0
 34 33  1  0  0  0  0
 35 34  1  0  0  0  0
 35 38  1  0  0  0  0
 36 38  2  0  0  0  0
 38 37  1  0  0  0  0
 39 35  1  0  0  0  0
 40 39  1  0  0  0  0
M  END
>  <MODEL>
8

>  <REMARK>
 VINA RESULT:      -5.1      3.816     10.073
  Name = 
  11 active torsions:
  status: ('A' for Active; 'I' for Inactive)
    1  A    between atoms: C_1  and  S_7
    2  A    between atoms: C_1  and  C_14
    3  A    between atoms: C_3  and  C_26
    4  A    between atoms: N_4  and  C_25
    5  A    between atoms: N_4  and  CA_30
    6  A    between atoms: C_6  and  S_7
    7  A    between atoms: C_14  and  C_23
    8  A    between atoms: C_17  and  C_34
    9  A    between atoms: C_18  and  CA_30
   10  A    between atoms: C_25  and  C_26
   11  A    between atoms: CA_30  and  C_31
                            x       y       z     vdW  Elec       q    Type
                         _______ _______ _______ _____ _____    ______ ____

>  <TORSDO>
F 11

$$$$
=
 OpenBabel11052410363D

 40 45  0  0  1  0  0  0  0  0999 V2000
  161.6860  206.8690  150.9830 N   0  0  0  0  0  0  0  0  0  0  0  0
  161.3360  204.9230  149.5330 C   0  0  0  0  0  0  0  0  0  0  0  0
  160.6990  207.5420  153.0730 N   0  0  1  0  0  0  0  0  0  0  0  0
  161.1940  209.8890  153.7640 C   0  0  1  0  0  3  0  0  0  0  0  0
  160.5690  201.3370  150.4130 C   0  0  0  0  0  1  0  0  0  0  0  0
  161.3650  207.9920  151.8780 C   0  0  2  0  0  0  0  0  0  0  0  0
  160.8550  202.7890  150.5440 C   0  0  0  0  0  0  0  0  0  0  0  0
  161.4670  206.5440  153.8350 C   0  0  2  0  0  3  0  0  0  0  0  0
  160.2190  208.7820  153.7190 C   0  0  1  0  0  3  0  0  0  0  0  0
  160.9050  203.3630  151.7760 N   0  0  0  0  0  0  0  0  0  0  0  0
  161.1870  205.1920  153.3170 N   0  0  0  0  0  2  0  0  0  0  0  0
  161.0720  203.5600  149.4010 C   0  0  0  0  0  3  0  0  0  0  0  0
  160.8090  209.3070  151.4560 C   0  0  0  0  0  2  0  0  0  0  0  0
  161.1650  204.6860  151.9560 C   0  0  0  0  0  0  0  0  0  0  0  0
  160.1850  209.8530  152.6790 N   0  0  2  0  0  0  0  0  0  0  0  0
  162.6940  207.7820  151.6370 C   0  0  0  0  0  2  0  0  0  0  0  0
  161.3860  205.4950  150.8130 C   0  0  0  0  0  0  0  0  0  0  0  0
  160.7180  211.0930  154.9930 S   0  0  0  0  0  0  0  0  0  0  0  0
  159.9010  210.4580  156.0850 O   0  0  0  0  0  0  0  0  0  0  0  0
  161.9570  211.6970  155.5900 O   0  0  0  0  0  0  0  0  0  0  0  0
  159.7650  212.3740  154.2030 C   0  0  2  0  0  3  0  0  0  0  0  0
  158.4350  212.2420  154.5570 F   0  0  0  0  0  0  0  0  0  0  0  0
  159.9120  212.2670  152.6940 C   0  0  0  0  0  2  0  0  0  0  0  0
  158.1120  213.5180  151.5550 C   0  0  0  0  0  0  0  0  0  0  0  0
  157.1220  213.6070  152.3270 O   0  0  0  0  0  0  0  0  0  0  0  0
  159.5190  213.5680  152.0090 C   0  0  2  0  0  3  0  0  0  0  0  0
  159.2890  213.3880  149.5590 C   0  0  0  0  0  2  0  0  0  0  0  0
  160.2830  213.6770  150.6910 C   0  0  0  0  0  2  0  0  0  0  0  0
  157.9680  213.4160  150.1560 N   0  0  0  0  0  2  0  0  0  0  0  0
  159.7420  206.9440  155.6440 C   0  0  0  0  0  1  0  0  0  0  0  0
  161.1890  206.5890  155.3410 C   0  0  0  0  0  2  0  0  0  0  0  0
  161.5770  205.7400  148.3060 C   0  0  0  0  0  2  0  0  0  0  0  0
  162.6580  205.1040  147.4560 C   0  0  0  0  0  2  0  0  0  0  0  0
  162.6780  205.7370  146.1490 N   0  0  0  0  0  2  0  0  0  0  0  0
  161.9940  204.8430  145.2290 C   0  0  2  0  0  3  0  0  0  0  0  0
  160.0280  206.1530  144.9160 O   0  0  0  0  0  1  0  0  0  0  0  0
  161.2660  205.7780  143.0220 O   0  0  0  0  0  0  0  0  0  0  0  0
  161.0410  205.6260  144.3860 C   0  0  0  0  0  0  0  0  0  0  0  0
  161.2600  203.7620  146.0120 C   0  0  0  0  0  2  0  0  0  0  0  0
  160.8300  202.7020  145.1150 N   0  0  0  0  0  1  0  0  0  0  0  0
  1 16  1  0  0  0  0
  1  6  1  0  0  0  0
  2 17  2  0  0  0  0
  3  9  1  0  0  0  0
  3  8  1  0  0  0  0
  4 18  1  0  0  0  0
  5  7  1  0  0  0  0
  6  3  1  0  0  0  0
  7 10  1  0  0  0  0
  8 31  1  0  0  0  0
  9  4  1  0  0  0  0
 10 14  2  0  0  0  0
 11  8  1  0  0  0  0
 12  2  1  0  0  0  0
 12  7  2  0  0  0  0
 13  6  1  0  0  0  0
 13 15  1  0  0  0  0
 14 11  1  0  0  0  0
 15  9  1  0  0  0  0
 15  4  1  0  0  0  0
 16  6  1  0  0  0  0
 17  1  1  0  0  0  0
 17 14  1  0  0  0  0
 18 20  2  0  0  0  0
 18 19  2  0  0  0  0
 21 22  1  0  0  0  0
 21 18  1  0  0  0  0
 23 21  1  0  0  0  0
 24 26  1  0  0  0  0
 24 25  2  0  0  0  0
 26 23  1  0  0  0  0
 27 29  1  0  0  0  0
 27 28  1  0  0  0  0
 28 26  1  0  0  0  0
 29 24  1  0  0  0  0
 31 30  1  0  0  0  0
 32  2  1  0  0  0  0
 33 32  1  0  0  0  0
 34 33  1  0  0  0  0
 35 39  1  0  0  0  0
 35 34  1  0  0  0  0
 37 38  2  0  0  0  0
 38 36  1  0  0  0  0
 38 35  1  0  0  0  0
 40 39  1  0  0  0  0
M  END
>  <MODEL>
9

>  <REMARK>
 VINA RESULT:      -5.0      2.463      3.051
  Name = 
  11 active torsions:
  status: ('A' for Active; 'I' for Inactive)
    1  A    between atoms: C_1  and  S_7
    2  A    between atoms: C_1  and  C_14
    3  A    between atoms: C_3  and  C_26
    4  A    between atoms: N_4  and  C_25
    5  A    between atoms: N_4  and  CA_30
    6  A    between atoms: C_6  and  S_7
    7  A    between atoms: C_14  and  C_23
    8  A    between atoms: C_17  and  C_34
    9  A    between atoms: C_18  and  CA_30
   10  A    between atoms: C_25  and  C_26
   11  A    between atoms: CA_30  and  C_31
                            x       y       z     vdW  Elec       q    Type
                         _______ _______ _______ _____ _____    ______ ____

>  <TORSDO>
F 11

$$$$
