=
 OpenBabel11052409493D

 26 30  0  0  1  0  0  0  0  0999 V2000
  160.7150  207.0460  153.8540 C   0  0  2  0  0  3  0  0  0  0  0  0
  161.9480  206.4460  153.7090 C   0  0  0  0  0  2  0  0  0  0  0  0
  161.3360  207.0720  152.4980 N   0  0  0  0  0  0  0  0  0  0  0  0
  162.8440  210.4890  155.2360 O   0  0  0  0  0  1  0  0  0  0  0  0
  160.0320  208.5810  155.7790 C   0  0  2  0  0  3  0  0  0  0  0  0
  159.9010  210.6050  153.6840 C   0  0  0  0  0  0  0  0  0  0  0  0
  159.8290  211.5090  152.7200 C   0  0  0  0  0  2  0  0  0  0  0  0
  160.8510  210.7820  156.5350 C   0  0  0  0  0  2  0  0  0  0  0  0
  162.0510  209.9080  156.2260 C   0  0  1  0  0  3  0  0  0  0  0  0
  158.9800  210.6870  154.8560 C   0  0  0  0  0  2  0  0  0  0  0  0
  159.6180  210.0230  156.0760 C   0  0  1  0  0  3  0  0  0  0  0  0
  161.5620  208.5220  155.8060 C   0  0  2  0  0  3  0  0  0  0  0  0
  160.8420  209.5770  153.6060 O   0  0  0  0  0  0  0  0  0  0  0  0
  160.8130  208.4350  154.4760 C   0  0  1  0  0  0  0  0  0  0  0  0
  162.2760  208.9740  148.5360 N   0  0  0  0  0  0  0  0  0  0  0  0
  161.6170  208.8590  150.8560 N   0  0  0  0  0  2  0  0  0  0  0  0
  161.0260  206.9190  148.7320 C   0  0  0  0  0  2  0  0  0  0  0  0
  161.9540  209.5640  149.6470 C   0  0  0  0  0  0  0  0  0  0  0  0
  162.3420  207.5390  148.3330 C   0  0  0  0  0  2  0  0  0  0  0  0
  161.0750  206.5550  150.1790 C   0  0  0  0  0  0  0  0  0  0  0  0
  161.3380  207.4720  151.1290 C   0  0  0  0  0  0  0  0  0  0  0  0
  161.9760  211.0490  149.6890 C   0  0  0  0  0  1  0  0  0  0  0  0
  160.5070  202.7080  150.3980 C   0  0  0  0  0  1  0  0  0  0  0  0
  160.8000  205.2010  150.5850 N   0  0  0  0  0  2  0  0  0  0  0  0
  161.4130  204.0250  148.6090 N   0  0  0  0  0  2  0  0  0  0  0  0
  160.9080  204.0080  149.7990 C   0  0  0  0  0  0  0  0  0  0  0  0
  1  2  1  1  0  0  0
  1 14  1  0  0  0  0
  3  2  1  0  0  0  0
  3  1  1  0  0  0  0
  4  9  1  0  0  0  0
  5 12  1  0  0  0  0
  5 11  1  0  0  0  0
  6 10  1  0  0  0  0
  7  6  2  0  0  0  0
  9  8  1  0  0  0  0
 10 11  1  0  0  0  0
 11  8  1  0  0  0  0
 12  9  1  0  0  0  0
 13  6  1  0  0  0  0
 13 14  1  0  0  0  0
 14  5  1  0  0  0  0
 14 12  1  0  0  0  0
 15 18  2  0  0  0  0
 16 21  1  0  0  0  0
 17 20  1  0  0  0  0
 18 22  1  0  0  0  0
 18 16  1  0  0  0  0
 19 15  1  0  0  0  0
 19 17  1  0  0  0  0
 20 24  1  0  0  0  0
 20 21  2  0  0  0  0
 21  3  1  0  0  0  0
 25 26  2  0  0  0  0
 26 23  1  0  0  0  0
 26 24  1  0  0  0  0
M  END
>  <MODEL>
1

>  <REMARK>
 VINA RESULT:      -7.8      0.000      0.000
  Name = 
  3 active torsions:
  status: ('A' for Active; 'I' for Inactive)
    1  A    between atoms: C_2  and  C_26
    2  A    between atoms: N_12  and  C_21
    3  A    between atoms: N_18  and  C_19
                            x       y       z     vdW  Elec       q    Type
                         _______ _______ _______ _____ _____    ______ ____

>  <TORSDO>
F 3

$$$$
=
 OpenBabel11052409493D

 26 30  0  0  1  0  0  0  0  0999 V2000
  160.9910  210.9860  153.1340 C   0  0  2  0  0  3  0  0  0  0  0  0
  159.7450  210.8490  152.5570 C   0  0  0  0  0  2  0  0  0  0  0  0
  160.8220  209.9130  152.1120 N   0  0  0  0  0  0  0  0  0  0  0  0
  161.6690  207.7380  155.8350 O   0  0  0  0  0  1  0  0  0  0  0  0
  159.8280  210.6090  155.3770 C   0  0  2  0  0  3  0  0  0  0  0  0
  162.5240  210.8970  156.4510 C   0  0  0  0  0  0  0  0  0  0  0  0
  163.7500  211.0460  156.9260 C   0  0  0  0  0  2  0  0  0  0  0  0
  160.2700  209.0690  157.2540 C   0  0  0  0  0  2  0  0  0  0  0  0
  160.3940  208.2900  155.9590 C   0  0  1  0  0  3  0  0  0  0  0  0
  161.3500  211.3420  157.2600 C   0  0  0  0  0  2  0  0  0  0  0  0
  160.1100  210.5320  156.8790 C   0  0  1  0  0  3  0  0  0  0  0  0
  160.0710  209.2180  154.7870 C   0  0  2  0  0  3  0  0  0  0  0  0
  162.3280  210.3180  155.1960 O   0  0  0  0  0  0  0  0  0  0  0  0
  161.0620  210.3500  154.5180 C   0  0  1  0  0  0  0  0  0  0  0  0
  161.3280  205.9730  150.0090 N   0  0  0  0  0  0  0  0  0  0  0  0
  161.0090  207.4900  151.8600 N   0  0  0  0  0  2  0  0  0  0  0  0
  162.6350  207.9250  149.4550 C   0  0  0  0  0  2  0  0  0  0  0  0
  161.1020  206.1800  151.2720 C   0  0  0  0  0  0  0  0  0  0  0  0
  161.5260  207.0050  149.0090 C   0  0  0  0  0  2  0  0  0  0  0  0
  162.0540  209.0400  150.2590 C   0  0  0  0  0  0  0  0  0  0  0  0
  161.3210  208.8060  151.3640 C   0  0  0  0  0  0  0  0  0  0  0  0
  160.8840  205.0030  152.1510 C   0  0  0  0  0  1  0  0  0  0  0  0
  162.3560  212.4650  148.4300 C   0  0  0  0  0  1  0  0  0  0  0  0
  162.3060  210.4040  149.8750 N   0  0  0  0  0  2  0  0  0  0  0  0
  161.1850  210.4770  147.7770 N   0  0  0  0  0  2  0  0  0  0  0  0
  161.9350  211.0580  148.6540 C   0  0  0  0  0  0  0  0  0  0  0  0
  1  2  1  1  0  0  0
  1 14  1  0  0  0  0
  3  2  1  0  0  0  0
  3  1  1  0  0  0  0
  4  9  1  0  0  0  0
  5 11  1  0  0  0  0
  6  7  2  0  0  0  0
  6 10  1  0  0  0  0
  9  8  1  0  0  0  0
 11  8  1  0  0  0  0
 11 10  1  0  0  0  0
 12  5  1  0  0  0  0
 12  9  1  0  0  0  0
 13  6  1  0  0  0  0
 14 12  1  0  0  0  0
 14 13  1  0  0  0  0
 14  5  1  0  0  0  0
 15 18  2  0  0  0  0
 17 20  1  0  0  0  0
 18 16  1  0  0  0  0
 18 22  1  0  0  0  0
 19 17  1  0  0  0  0
 19 15  1  0  0  0  0
 20 21  2  0  0  0  0
 21 16  1  0  0  0  0
 21  3  1  0  0  0  0
 23 26  1  0  0  0  0
 24 20  1  0  0  0  0
 25 26  2  0  0  0  0
 26 24  1  0  0  0  0
M  END
>  <MODEL>
2

>  <REMARK>
 VINA RESULT:      -6.5      1.546      4.215
  Name = 
  3 active torsions:
  status: ('A' for Active; 'I' for Inactive)
    1  A    between atoms: C_2  and  C_26
    2  A    between atoms: N_12  and  C_21
    3  A    between atoms: N_18  and  C_19
                            x       y       z     vdW  Elec       q    Type
                         _______ _______ _______ _____ _____    ______ ____

>  <TORSDO>
F 3

$$$$
=
 OpenBabel11052409493D

 26 30  0  0  1  0  0  0  0  0999 V2000
  160.4680  209.9360  154.1540 C   0  0  2  0  0  3  0  0  0  0  0  0
  161.7950  210.3120  154.1600 C   0  0  0  0  0  2  0  0  0  0  0  0
  161.2330  209.7760  152.8840 N   0  0  0  0  0  0  0  0  0  0  0  0
  158.0930  212.7280  151.9470 O   0  0  0  0  0  1  0  0  0  0  0  0
  159.9890  212.3620  154.7960 C   0  0  2  0  0  3  0  0  0  0  0  0
  157.2230  211.4460  154.8940 C   0  0  0  0  0  0  0  0  0  0  0  0
  155.9730  211.0120  154.9510 C   0  0  0  0  0  2  0  0  0  0  0  0
  158.4030  214.0420  153.9280 C   0  0  0  0  0  2  0  0  0  0  0  0
  159.0540  213.3470  152.7470 C   0  0  1  0  0  3  0  0  0  0  0  0
  157.6780  212.5350  155.8080 C   0  0  0  0  0  2  0  0  0  0  0  0
  158.8420  213.3000  155.1780 C   0  0  1  0  0  3  0  0  0  0  0  0
  160.0790  212.3380  153.2680 C   0  0  2  0  0  3  0  0  0  0  0  0
  158.1120  210.8880  153.9750 O   0  0  0  0  0  0  0  0  0  0  0  0
  159.5270  211.1300  154.0240 C   0  0  1  0  0  0  0  0  0  0  0  0
  162.3800  209.4600  148.5500 N   0  0  0  0  0  0  0  0  0  0  0  0
  161.5990  210.5050  150.5810 N   0  0  0  0  0  0  0  0  0  0  0  0
  161.1220  207.7470  149.6940 C   0  0  0  0  0  2  0  0  0  0  0  0
  161.9990  210.5190  149.1990 C   0  0  0  0  0  0  0  0  0  0  0  0
  162.4570  208.1190  149.0970 C   0  0  0  0  0  2  0  0  0  0  0  0
  161.0950  208.1590  151.1290 C   0  0  1  0  0  3  0  0  0  0  0  0
  161.3070  209.4360  151.5010 C   0  0  0  0  0  0  0  0  0  0  0  0
  162.0180  211.8240  148.4900 C   0  0  0  0  0  1  0  0  0  0  0  0
  161.0820  205.1470  153.5980 C   0  0  0  0  0  1  0  0  0  0  0  0
  160.8000  207.1850  152.1460 N   0  0  0  0  0  2  0  0  0  0  0  0
  162.8140  205.9180  152.1280 N   0  0  0  0  0  2  0  0  0  0  0  0
  161.6100  206.0800  152.5680 C   0  0  0  0  0  0  0  0  0  0  0  0
  1  2  1  1  0  0  0
  3  1  1  0  0  0  0
  3  2  1  0  0  0  0
  4  9  1  0  0  0  0
  5 11  1  0  0  0  0
  6  7  2  0  0  0  0
  6 10  1  0  0  0  0
  8 11  1  0  0  0  0
  9 12  1  0  0  0  0
  9  8  1  0  0  0  0
 11 10  1  0  0  0  0
 12 14  1  0  0  0  0
 12  5  1  0  0  0  0
 13 14  1  0  0  0  0
 13  6  1  0  0  0  0
 14  1  1  0  0  0  0
 14  5  1  0  0  0  0
 15 19  1  0  0  0  0
 15 18  2  0  0  0  0
 16 21  2  0  0  0  0
 17 20  1  0  0  0  0
 18 16  1  0  0  0  0
 19 17  1  0  0  0  0
 20 21  1  0  0  0  0
 20 24  1  0  0  0  0
 21  3  1  0  0  0  0
 22 18  1  0  0  0  0
 24 26  1  0  0  0  0
 25 26  2  0  0  0  0
 26 23  1  0  0  0  0
M  END
>  <MODEL>
3

>  <REMARK>
 VINA RESULT:      -6.2      2.258      3.396
  Name = 
  3 active torsions:
  status: ('A' for Active; 'I' for Inactive)
    1  A    between atoms: C_2  and  C_26
    2  A    between atoms: N_12  and  C_21
    3  A    between atoms: N_18  and  C_19
                            x       y       z     vdW  Elec       q    Type
                         _______ _______ _______ _____ _____    ______ ____

>  <TORSDO>
F 3

$$$$
=
 OpenBabel11052409493D

 26 30  0  0  1  0  0  0  0  0999 V2000
  161.0350  209.9570  154.4200 C   0  0  2  0  0  3  0  0  0  0  0  0
  162.3490  210.3470  154.2670 C   0  0  0  0  0  2  0  0  0  0  0  0
  161.6300  209.8490  153.0560 N   0  0  0  0  0  0  0  0  0  0  0  0
  159.7750  213.8370  155.7060 O   0  0  0  0  0  1  0  0  0  0  0  0
  158.6240  210.7500  154.7120 C   0  0  2  0  0  3  0  0  0  0  0  0
  159.3440  212.6530  152.6240 C   0  0  0  0  0  0  0  0  0  0  0  0
  159.6790  213.5000  151.6630 C   0  0  0  0  0  2  0  0  0  0  0  0
  157.6280  212.9780  155.0760 C   0  0  0  0  0  2  0  0  0  0  0  0
  158.8360  212.8430  155.9820 C   0  0  1  0  0  3  0  0  0  0  0  0
  157.9410  212.1510  152.7200 C   0  0  0  0  0  2  0  0  0  0  0  0
  157.6180  211.7630  154.1640 C   0  0  1  0  0  3  0  0  0  0  0  0
  159.4360  211.4470  155.8070 C   0  0  2  0  0  3  0  0  0  0  0  0
  160.3010  212.2350  153.5490 O   0  0  0  0  0  0  0  0  0  0  0  0
  160.0760  211.1420  154.4540 C   0  0  1  0  0  0  0  0  0  0  0  0
  162.2750  209.6080  148.6140 N   0  0  0  0  0  0  0  0  0  0  0  0
  161.8050  210.6340  150.7490 N   0  0  0  0  0  0  0  0  0  0  0  0
  161.0110  207.9570  149.8400 C   0  0  0  0  0  2  0  0  0  0  0  0
  162.0540  210.6690  149.3320 C   0  0  0  0  0  0  0  0  0  0  0  0
  162.3000  208.2460  149.1110 C   0  0  0  0  0  2  0  0  0  0  0  0
  161.1720  208.3150  151.2810 C   0  0  1  0  0  3  0  0  0  0  0  0
  161.5270  209.5570  151.6640 C   0  0  0  0  0  0  0  0  0  0  0  0
  162.1040  211.9940  148.6640 C   0  0  0  0  0  1  0  0  0  0  0  0
  161.1680  205.2150  153.6380 C   0  0  0  0  0  1  0  0  0  0  0  0
  160.9090  207.3290  152.2950 N   0  0  0  0  0  2  0  0  0  0  0  0
  162.7790  205.8890  151.9930 N   0  0  0  0  0  2  0  0  0  0  0  0
  161.6560  206.1390  152.5810 C   0  0  0  0  0  0  0  0  0  0  0  0
  1  2  1  1  0  0  0
  1 14  1  0  0  0  0
  3  2  1  0  0  0  0
  3  1  1  0  0  0  0
  4  9  1  0  0  0  0
  5 12  1  0  0  0  0
  6 10  1  0  0  0  0
  6 13  1  0  0  0  0
  7  6  2  0  0  0  0
  8  9  1  0  0  0  0
 10 11  1  0  0  0  0
 11  5  1  0  0  0  0
 11  8  1  0  0  0  0
 12  9  1  0  0  0  0
 13 14  1  0  0  0  0
 14  5  1  0  0  0  0
 14 12  1  0  0  0  0
 15 19  1  0  0  0  0
 15 18  2  0  0  0  0
 16 21  2  0  0  0  0
 17 20  1  0  0  0  0
 18 16  1  0  0  0  0
 19 17  1  0  0  0  0
 20 21  1  0  0  0  0
 20 24  1  0  0  0  0
 21  3  1  0  0  0  0
 22 18  1  0  0  0  0
 24 26  1  0  0  0  0
 25 26  2  0  0  0  0
 26 23  1  0  0  0  0
M  END
>  <MODEL>
4

>  <REMARK>
 VINA RESULT:      -6.1      2.082      2.967
  Name = 
  3 active torsions:
  status: ('A' for Active; 'I' for Inactive)
    1  A    between atoms: C_2  and  C_26
    2  A    between atoms: N_12  and  C_21
    3  A    between atoms: N_18  and  C_19
                            x       y       z     vdW  Elec       q    Type
                         _______ _______ _______ _____ _____    ______ ____

>  <TORSDO>
F 3

$$$$
=
 OpenBabel11052409493D

 26 30  0  0  1  0  0  0  0  0999 V2000
  160.6560  206.9130  147.8860 C   0  0  2  0  0  3  0  0  0  0  0  0
  161.5510  207.8880  148.2740 C   0  0  0  0  0  2  0  0  0  0  0  0
  161.0310  206.9660  149.3280 N   0  0  0  0  0  0  0  0  0  0  0  0
  164.0670  204.5530  146.8360 O   0  0  0  0  0  1  0  0  0  0  0  0
  160.9220  205.4790  145.7880 C   0  0  2  0  0  3  0  0  0  0  0  0
  161.1110  203.2910  147.7060 C   0  0  0  0  0  0  0  0  0  0  0  0
  161.1780  202.3050  148.5860 C   0  0  0  0  0  2  0  0  0  0  0  0
  162.5800  203.7770  145.1230 C   0  0  0  0  0  2  0  0  0  0  0  0
  163.3220  204.9540  145.7260 C   0  0  1  0  0  3  0  0  0  0  0  0
  160.5120  203.0500  146.3590 C   0  0  0  0  0  2  0  0  0  0  0  0
  161.0980  204.0270  145.3390 C   0  0  1  0  0  3  0  0  0  0  0  0
  162.3120  206.0410  146.0960 C   0  0  2  0  0  3  0  0  0  0  0  0
  161.6050  204.5530  148.0350 O   0  0  0  0  0  0  0  0  0  0  0  0
  161.3450  205.7180  147.2350 C   0  0  1  0  0  0  0  0  0  0  0  0
  161.6140  204.5640  153.0830 N   0  0  0  0  0  0  0  0  0  0  0  0
  160.9570  205.0210  150.8050 N   0  0  0  0  0  0  0  0  0  0  0  0
  160.8210  206.8430  153.1030 C   0  0  0  0  0  2  0  0  0  0  0  0
  161.1580  204.1550  151.9370 C   0  0  0  0  0  0  0  0  0  0  0  0
  161.9830  205.9300  153.4030 C   0  0  0  0  0  2  0  0  0  0  0  0
  160.9220  207.3170  151.6910 C   0  0  0  0  0  0  0  0  0  0  0  0
  160.9710  206.4540  150.6580 C   0  0  0  0  0  0  0  0  0  0  0  0
  160.8660  202.7080  151.7710 C   0  0  0  0  0  1  0  0  0  0  0  0
  160.7520  211.2060  151.8220 C   0  0  0  0  0  1  0  0  0  0  0  0
  160.9310  208.7290  151.4100 N   0  0  0  0  0  0  0  0  0  0  0  0
  160.7390  209.6090  153.6120 N   0  0  0  0  0  2  0  0  0  0  0  0
  160.7800  209.8120  152.3370 C   0  0  0  0  0  0  0  0  0  0  0  0
  1  2  1  6  0  0  0
  1  3  1  0  0  0  0
  2  3  1  0  0  0  0
  3 21  1  0  0  0  0
  5 12  1  0  0  0  0
  5 14  1  0  0  0  0
  6 13  1  0  0  0  0
  6  7  2  0  0  0  0
  8 11  1  0  0  0  0
  8  9  1  0  0  0  0
  9 12  1  0  0  0  0
  9  4  1  0  0  0  0
 10  6  1  0  0  0  0
 11  5  1  0  0  0  0
 11 10  1  0  0  0  0
 12 14  1  0  0  0  0
 14  1  1  0  0  0  0
 14 13  1  0  0  0  0
 15 19  1  0  0  0  0
 16 18  1  0  0  0  0
 17 19  1  0  0  0  0
 18 15  2  0  0  0  0
 20 17  1  0  0  0  0
 21 16  2  0  0  0  0
 21 20  1  0  0  0  0
 22 18  1  0  0  0  0
 23 26  1  0  0  0  0
 24 20  2  0  0  0  0
 24 26  1  0  0  0  0
 26 25  2  0  0  0  0
M  END
>  <MODEL>
5

>  <REMARK>
 VINA RESULT:      -6.1      3.259      8.120
  Name = 
  3 active torsions:
  status: ('A' for Active; 'I' for Inactive)
    1  A    between atoms: C_2  and  C_26
    2  A    between atoms: N_12  and  C_21
    3  A    between atoms: N_18  and  C_19
                            x       y       z     vdW  Elec       q    Type
                         _______ _______ _______ _____ _____    ______ ____

>  <TORSDO>
F 3

$$$$
=
 OpenBabel11052409493D

 26 30  0  0  1  0  0  0  0  0999 V2000
  160.6570  211.7360  152.8700 C   0  0  2  0  0  3  0  0  0  0  0  0
  160.1060  211.2300  151.7110 C   0  0  0  0  0  2  0  0  0  0  0  0
  160.7160  210.2590  152.6690 N   0  0  0  0  0  0  0  0  0  0  0  0
  157.7280  210.6890  155.8080 O   0  0  0  0  0  1  0  0  0  0  0  0
  158.5560  213.0650  153.4590 C   0  0  2  0  0  3  0  0  0  0  0  0
  159.8160  213.2680  156.0800 C   0  0  0  0  0  0  0  0  0  0  0  0
  160.4080  213.3680  157.2600 C   0  0  0  0  0  2  0  0  0  0  0  0
  156.9310  212.8940  155.3080 C   0  0  0  0  0  2  0  0  0  0  0  0
  157.2140  211.4960  154.7920 C   0  0  1  0  0  3  0  0  0  0  0  0
  158.9450  214.3760  155.5860 C   0  0  0  0  0  2  0  0  0  0  0  0
  157.9020  213.8310  154.6100 C   0  0  1  0  0  3  0  0  0  0  0  0
  158.1800  211.5880  153.6110 C   0  0  2  0  0  3  0  0  0  0  0  0
  160.0040  212.1260  155.3010 O   0  0  0  0  0  0  0  0  0  0  0  0
  159.6020  212.0550  153.9240 C   0  0  1  0  0  0  0  0  0  0  0  0
  160.6740  206.1810  154.5590 N   0  0  0  0  0  0  0  0  0  0  0  0
  160.6440  208.5940  154.4550 N   0  0  0  0  0  2  0  0  0  0  0  0
  162.1210  206.7480  152.7130 C   0  0  0  0  0  2  0  0  0  0  0  0
  160.5640  207.3340  155.1480 C   0  0  0  0  0  0  0  0  0  0  0  0
  160.8960  205.9780  153.1400 C   0  0  0  0  0  2  0  0  0  0  0  0
  161.7140  208.1210  152.2890 C   0  0  0  0  0  0  0  0  0  0  0  0
  161.0460  208.9460  153.1180 C   0  0  0  0  0  0  0  0  0  0  0  0
  160.2980  207.3570  156.6090 C   0  0  0  0  0  1  0  0  0  0  0  0
  162.2270  208.6640  148.4670 C   0  0  0  0  0  1  0  0  0  0  0  0
  162.0690  208.5980  150.9780 N   0  0  0  0  0  2  0  0  0  0  0  0
  160.8380  207.0830  149.6180 N   0  0  0  0  0  2  0  0  0  0  0  0
  161.6900  208.0500  149.7090 C   0  0  0  0  0  0  0  0  0  0  0  0
  1  2  1  6  0  0  0
  1 14  1  0  0  0  0
  2  3  1  0  0  0  0
  3  1  1  0  0  0  0
  3 21  1  0  0  0  0
  5 12  1  0  0  0  0
  5 14  1  0  0  0  0
  5 11  1  0  0  0  0
  6  7  2  0  0  0  0
  9  8  1  0  0  0  0
  9  4  1  0  0  0  0
 10  6  1  0  0  0  0
 11  8  1  0  0  0  0
 11 10  1  0  0  0  0
 12 14  1  0  0  0  0
 12  9  1  0  0  0  0
 13  6  1  0  0  0  0
 14 13  1  0  0  0  0
 15 18  2  0  0  0  0
 16 18  1  0  0  0  0
 17 19  1  0  0  0  0
 18 22  1  0  0  0  0
 19 15  1  0  0  0  0
 20 17  1  0  0  0  0
 20 21  2  0  0  0  0
 21 16  1  0  0  0  0
 23 26  1  0  0  0  0
 24 20  1  0  0  0  0
 25 26  2  0  0  0  0
 26 24  1  0  0  0  0
M  END
>  <MODEL>
6

>  <REMARK>
 VINA RESULT:      -6.0      2.319      4.773
  Name = 
  3 active torsions:
  status: ('A' for Active; 'I' for Inactive)
    1  A    between atoms: C_2  and  C_26
    2  A    between atoms: N_12  and  C_21
    3  A    between atoms: N_18  and  C_19
                            x       y       z     vdW  Elec       q    Type
                         _______ _______ _______ _____ _____    ______ ____

>  <TORSDO>
F 3

$$$$
=
 OpenBabel11052409493D

 26 30  0  0  1  0  0  0  0  0999 V2000
  161.3880  207.4840  147.7050 C   0  0  2  0  0  3  0  0  0  0  0  0
  162.6190  207.7550  148.2660 C   0  0  0  0  0  2  0  0  0  0  0  0
  161.6510  206.9550  149.0750 N   0  0  0  0  0  0  0  0  0  0  0  0
  161.5500  205.8290  143.7630 O   0  0  0  0  0  1  0  0  0  0  0  0
  160.3990  205.2520  146.9550 C   0  0  2  0  0  3  0  0  0  0  0  0
  163.1800  204.5840  146.3870 C   0  0  0  0  0  0  0  0  0  0  0  0
  164.4480  204.2880  146.1500 C   0  0  0  0  0  2  0  0  0  0  0  0
  160.6510  203.9170  144.8950 C   0  0  0  0  0  2  0  0  0  0  0  0
  160.4590  205.3690  144.5010 C   0  0  1  0  0  3  0  0  0  0  0  0
  162.2300  203.5130  146.8120 C   0  0  0  0  0  2  0  0  0  0  0  0
  160.8030  203.8820  146.4060 C   0  0  1  0  0  3  0  0  0  0  0  0
  160.2490  206.2030  145.7650 C   0  0  2  0  0  3  0  0  0  0  0  0
  162.7300  205.8960  146.2340 O   0  0  0  0  0  0  0  0  0  0  0  0
  161.4460  206.3340  146.7060 C   0  0  1  0  0  0  0  0  0  0  0  0
  161.2770  203.8310  152.2850 N   0  0  0  0  0  0  0  0  0  0  0  0
  161.1910  204.7670  150.0610 N   0  0  0  0  0  0  0  0  0  0  0  0
  160.5430  206.1090  152.5910 C   0  0  0  0  0  2  0  0  0  0  0  0
  161.1000  203.6860  151.0060 C   0  0  0  0  0  0  0  0  0  0  0  0
  161.5840  205.0800  152.9560 C   0  0  0  0  0  2  0  0  0  0  0  0
  160.9870  206.8430  151.3690 C   0  0  1  0  0  3  0  0  0  0  0  0
  161.2660  206.1970  150.2200 C   0  0  0  0  0  0  0  0  0  0  0  0
  160.8310  202.3220  150.4820 C   0  0  0  0  0  1  0  0  0  0  0  0
  161.1490  210.6110  152.3390 C   0  0  0  0  0  1  0  0  0  0  0  0
  161.0890  208.2780  151.3940 N   0  0  0  0  0  2  0  0  0  0  0  0
  161.1550  208.6650  153.7410 N   0  0  0  0  0  2  0  0  0  0  0  0
  161.1050  209.1390  152.5410 C   0  0  0  0  0  0  0  0  0  0  0  0
  1  2  1  6  0  0  0
  1  3  1  0  0  0  0
  2  3  1  0  0  0  0
  3 21  1  0  0  0  0
  4  9  1  0  0  0  0
  6 10  1  0  0  0  0
  7  6  2  0  0  0  0
  8 11  1  0  0  0  0
  9  8  1  0  0  0  0
  9 12  1  0  0  0  0
 11 10  1  0  0  0  0
 11  5  1  0  0  0  0
 12 14  1  0  0  0  0
 12  5  1  0  0  0  0
 13  6  1  0  0  0  0
 13 14  1  0  0  0  0
 14  5  1  0  0  0  0
 14  1  1  0  0  0  0
 15 19  1  0  0  0  0
 16 21  2  0  0  0  0
 16 18  1  0  0  0  0
 17 19  1  0  0  0  0
 18 15  2  0  0  0  0
 20 24  1  0  0  0  0
 20 17  1  0  0  0  0
 21 20  1  0  0  0  0
 22 18  1  0  0  0  0
 23 26  1  0  0  0  0
 24 26  1  0  0  0  0
 26 25  2  0  0  0  0
M  END
>  <MODEL>
7

>  <REMARK>
 VINA RESULT:      -6.0      3.591      8.253
  Name = 
  3 active torsions:
  status: ('A' for Active; 'I' for Inactive)
    1  A    between atoms: C_2  and  C_26
    2  A    between atoms: N_12  and  C_21
    3  A    between atoms: N_18  and  C_19
                            x       y       z     vdW  Elec       q    Type
                         _______ _______ _______ _____ _____    ______ ____

>  <TORSDO>
F 3

$$$$
=
 OpenBabel11052409493D

 26 30  0  0  1  0  0  0  0  0999 V2000
  162.0800  207.0270  148.4420 C   0  0  2  0  0  3  0  0  0  0  0  0
  160.8290  207.1020  147.8640 C   0  0  0  0  0  2  0  0  0  0  0  0
  161.4480  205.7500  148.0020 N   0  0  0  0  0  0  0  0  0  0  0  0
  163.4560  206.1250  152.3910 O   0  0  0  0  0  1  0  0  0  0  0  0
  160.6400  206.8320  150.5430 C   0  0  2  0  0  3  0  0  0  0  0  0
  162.2490  209.0840  151.4580 C   0  0  0  0  0  0  0  0  0  0  0  0
  162.9750  210.1180  151.8530 C   0  0  0  0  0  2  0  0  0  0  0  0
  161.1930  206.6880  152.9440 C   0  0  0  0  0  2  0  0  0  0  0  0
  162.1240  205.7630  152.1840 C   0  0  1  0  0  3  0  0  0  0  0  0
  160.8310  208.9520  151.9070 C   0  0  0  0  0  2  0  0  0  0  0  0
  160.4130  207.4820  151.9090 C   0  0  1  0  0  3  0  0  0  0  0  0
  161.7610  205.8000  150.6990 C   0  0  2  0  0  3  0  0  0  0  0  0
  162.8110  208.1160  150.6250 O   0  0  0  0  0  0  0  0  0  0  0  0
  162.0230  207.1140  149.9630 C   0  0  1  0  0  0  0  0  0  0  0  0
  160.5110  201.3700  148.3770 N   0  0  0  0  0  0  0  0  0  0  0  0
  161.1770  203.5790  149.0890 N   0  0  0  0  0  2  0  0  0  0  0  0
  161.7460  202.2840  146.5160 C   0  0  0  0  0  2  0  0  0  0  0  0
  160.8410  202.1980  149.3210 C   0  0  0  0  0  0  0  0  0  0  0  0
  160.4340  201.6900  146.9640 C   0  0  0  0  0  2  0  0  0  0  0  0
  161.6980  203.7660  146.6900 C   0  0  0  0  0  0  0  0  0  0  0  0
  161.4450  204.3280  147.8880 C   0  0  0  0  0  0  0  0  0  0  0  0
  160.8310  201.7090  150.7240 C   0  0  0  0  0  1  0  0  0  0  0  0
  161.5810  205.8280  143.3890 C   0  0  0  0  0  1  0  0  0  0  0  0
  161.9630  204.6270  145.5680 N   0  0  0  0  0  2  0  0  0  0  0  0
  159.8390  204.6050  144.4950 N   0  0  0  0  0  2  0  0  0  0  0  0
  161.0800  204.9680  144.4920 C   0  0  0  0  0  0  0  0  0  0  0  0
  1  2  1  6  0  0  0
  1 14  1  0  0  0  0
  2  3  1  0  0  0  0
  3  1  1  0  0  0  0
  5 12  1  0  0  0  0
  5 11  1  0  0  0  0
  6  7  2  0  0  0  0
  6 10  1  0  0  0  0
  9  4  1  0  0  0  0
  9  8  1  0  0  0  0
 10 11  1  0  0  0  0
 11  8  1  0  0  0  0
 12  9  1  0  0  0  0
 13  6  1  0  0  0  0
 14  5  1  0  0  0  0
 14 13  1  0  0  0  0
 14 12  1  0  0  0  0
 15 18  2  0  0  0  0
 16 18  1  0  0  0  0
 17 20  1  0  0  0  0
 17 19  1  0  0  0  0
 18 22  1  0  0  0  0
 19 15  1  0  0  0  0
 20 21  2  0  0  0  0
 21  3  1  0  0  0  0
 21 16  1  0  0  0  0
 23 26  1  0  0  0  0
 24 20  1  0  0  0  0
 26 25  2  0  0  0  0
 26 24  1  0  0  0  0
M  END
>  <MODEL>
8

>  <REMARK>
 VINA RESULT:      -5.9      3.061      5.644
  Name = 
  3 active torsions:
  status: ('A' for Active; 'I' for Inactive)
    1  A    between atoms: C_2  and  C_26
    2  A    between atoms: N_12  and  C_21
    3  A    between atoms: N_18  and  C_19
                            x       y       z     vdW  Elec       q    Type
                         _______ _______ _______ _____ _____    ______ ____

>  <TORSDO>
F 3

$$$$
=
 OpenBabel11052409493D

 26 30  0  0  1  0  0  0  0  0999 V2000
  160.2600  206.1400  148.0190 C   0  0  2  0  0  3  0  0  0  0  0  0
  161.1400  206.7910  148.8580 C   0  0  0  0  0  2  0  0  0  0  0  0
  160.7070  205.4140  149.2430 N   0  0  0  0  0  0  0  0  0  0  0  0
  163.6720  204.7390  145.8510 O   0  0  0  0  0  1  0  0  0  0  0  0
  160.5870  206.2200  145.4860 C   0  0  2  0  0  3  0  0  0  0  0  0
  160.6640  203.3160  145.7340 C   0  0  0  0  0  0  0  0  0  0  0  0
  160.6800  201.9980  145.8590 C   0  0  0  0  0  2  0  0  0  0  0  0
  162.2430  205.1840  143.9780 C   0  0  0  0  0  2  0  0  0  0  0  0
  162.9790  205.7460  145.1790 C   0  0  1  0  0  3  0  0  0  0  0  0
  160.1160  203.9420  144.4940 C   0  0  0  0  0  2  0  0  0  0  0  0
  160.7570  205.3110  144.2670 C   0  0  1  0  0  3  0  0  0  0  0  0
  161.9730  206.4390  146.0990 C   0  0  2  0  0  3  0  0  0  0  0  0
  161.1650  204.1180  146.7600 O   0  0  0  0  0  0  0  0  0  0  0  0
  160.9560  205.5390  146.8020 C   0  0  1  0  0  0  0  0  0  0  0  0
  161.6000  201.4050  151.0690 N   0  0  0  0  0  0  0  0  0  0  0  0
  160.8300  202.9800  149.4080 N   0  0  0  0  0  0  0  0  0  0  0  0
  160.6390  203.2270  152.3280 C   0  0  0  0  0  2  0  0  0  0  0  0
  161.1350  201.6550  149.8820 C   0  0  0  0  0  0  0  0  0  0  0  0
  161.8770  202.3970  152.0910 C   0  0  0  0  0  2  0  0  0  0  0  0
  160.6550  204.4030  151.4090 C   0  0  1  0  0  3  0  0  0  0  0  0
  160.7320  204.2540  150.0730 C   0  0  0  0  0  0  0  0  0  0  0  0
  160.9460  200.5180  148.9450 C   0  0  0  0  0  1  0  0  0  0  0  0
  161.2770  207.9250  152.9510 C   0  0  0  0  0  1  0  0  0  0  0  0
  160.5490  205.7330  151.9490 N   0  0  0  0  0  2  0  0  0  0  0  0
  162.8500  206.3080  152.1370 N   0  0  0  0  0  2  0  0  0  0  0  0
  161.6120  206.6080  152.3510 C   0  0  0  0  0  0  0  0  0  0  0  0
  1  2  1  1  0  0  0
  1  3  1  0  0  0  0
  2  3  1  0  0  0  0
  3 21  1  0  0  0  0
  5 12  1  0  0  0  0
  5 14  1  0  0  0  0
  6  7  2  0  0  0  0
  6 13  1  0  0  0  0
  8 11  1  0  0  0  0
  8  9  1  0  0  0  0
  9  4  1  0  0  0  0
  9 12  1  0  0  0  0
 10  6  1  0  0  0  0
 11 10  1  0  0  0  0
 11  5  1  0  0  0  0
 12 14  1  0  0  0  0
 13 14  1  0  0  0  0
 14  1  1  0  0  0  0
 15 19  1  0  0  0  0
 16 18  1  0  0  0  0
 16 21  2  0  0  0  0
 18 15  2  0  0  0  0
 19 17  1  0  0  0  0
 20 24  1  0  0  0  0
 20 17  1  0  0  0  0
 21 20  1  0  0  0  0
 22 18  1  0  0  0  0
 24 26  1  0  0  0  0
 25 26  2  0  0  0  0
 26 23  1  0  0  0  0
M  END
>  <MODEL>
9

>  <REMARK>
 VINA RESULT:      -5.9      3.826      8.517
  Name = 
  3 active torsions:
  status: ('A' for Active; 'I' for Inactive)
    1  A    between atoms: C_2  and  C_26
    2  A    between atoms: N_12  and  C_21
    3  A    between atoms: N_18  and  C_19
                            x       y       z     vdW  Elec       q    Type
                         _______ _______ _______ _____ _____    ______ ____

>  <TORSDO>
F 3

$$$$
