=
 OpenBabel11052409323D

 44 48  0  0  1  0  0  0  0  0999 V2000
  161.2210  208.1920  153.1340 C   0  0  2  0  0  3  0  0  0  0  0  0
  160.4980  207.6860  155.4350 C   0  0  0  0  0  0  0  0  0  0  0  0
  160.8010  213.1080  156.9180 N   0  0  0  0  0  0  0  0  0  0  0  0
  159.6620  211.9570  154.7040 C   0  0  0  0  0  0  0  0  0  0  0  0
  159.7580  213.7080  156.2930 C   0  0  0  0  0  3  0  0  0  0  0  0
  160.0080  206.6960  156.4300 C   0  0  0  0  0  1  0  0  0  0  0  0
  159.2020  213.1380  155.1940 N   0  0  0  0  0  0  0  0  0  0  0  0
  160.6860  207.2930  154.1060 O   0  0  0  0  0  0  0  0  0  0  0  0
  160.7450  211.3110  155.3390 C   0  0  0  0  0  0  0  0  0  0  0  0
  160.7030  208.9170  155.8020 N   0  0  0  0  0  0  0  0  0  0  0  0
  159.0440  211.4070  153.4400 C   0  0  2  0  0  3  0  0  0  0  0  0
  159.3440  209.9220  153.2250 C   0  0  0  0  0  2  0  0  0  0  0  0
  161.2130  209.9460  154.8890 C   0  0  1  0  0  3  0  0  0  0  0  0
  161.3110  211.9320  156.4670 C   0  0  0  0  0  0  0  0  0  0  0  0
  160.8320  209.6470  153.4320 C   0  0  1  0  0  3  0  0  0  0  0  0
  158.8170  213.9290  150.6230 C   0  0  0  0  0  3  0  0  0  0  0  0
  158.5140  213.1840  151.7650 C   0  0  0  0  0  3  0  0  0  0  0  0
  159.4110  212.2190  152.2320 C   0  0  0  0  0  0  0  0  0  0  0  0
  160.6130  211.9980  151.5430 C   0  0  0  0  0  3  0  0  0  0  0  0
  160.0290  213.7270  149.9460 C   0  0  0  0  0  0  0  0  0  0  0  0
  160.9160  212.7420  150.3990 C   0  0  0  0  0  3  0  0  0  0  0  0
  159.0080  212.6310  147.6640 O   0  0  0  0  0  1  0  0  0  0  0  0
  161.1690  213.6150  147.7280 C   0  0  0  0  0  2  0  0  0  0  0  0
  160.3030  214.4530  148.6560 C   0  0  1  0  0  3  0  0  0  0  0  0
  159.7060  213.8120  147.3950 C   0  0  2  0  0  3  0  0  0  0  0  0
  161.0600  207.6910  151.6810 C   0  0  2  0  0  3  0  0  0  0  0  0
  160.7530  206.2060  151.5950 C   0  0  0  0  0  1  0  0  0  0  0  0
  162.1400  208.0930  150.6700 C   0  0  2  0  0  3  0  0  0  0  0  0
  161.8920  209.3470  150.1110 O   0  0  0  0  0  1  0  0  0  0  0  0
  162.2950  207.0630  149.6000 C   0  0  0  0  0  3  0  0  0  0  0  0
  162.1770  207.4030  148.3190 C   0  0  0  0  0  3  0  0  0  0  0  0
  162.3280  206.3670  147.2560 C   0  0  0  0  0  2  0  0  0  0  0  0
  161.2480  205.3100  147.3990 C   0  0  0  0  0  2  0  0  0  0  0  0
  161.8670  203.9240  147.3920 C   0  0  0  0  0  2  0  0  0  0  0  0
  161.0240  202.9650  148.2100 C   0  0  0  0  0  2  0  0  0  0  0  0
  160.8750  201.7580  147.5250 O   0  0  0  0  0  0  0  0  0  0  0  0
  161.3710  200.7930  148.4010 C   0  0  0  0  0  1  0  0  0  0  0  0
  162.4680  211.3150  157.1910 C   0  0  0  0  0  2  0  0  0  0  0  0
  163.6440  212.2800  157.2610 C   0  0  0  0  0  2  0  0  0  0  0  0
  164.7700  211.7580  156.4960 N   0  0  0  0  0  2  0  0  0  0  0  0
  167.0650  212.6530  156.2350 C   0  0  0  0  0  0  0  0  0  0  0  0
  167.0060  212.5490  154.9480 N   0  0  0  0  0  2  0  0  0  0  0  0
  168.2770  213.2270  156.8730 C   0  0  0  0  0  1  0  0  0  0  0  0
  165.9450  212.2910  157.0490 N   0  0  0  0  0  2  0  0  0  0  0  0
  1 26  1  6  0  0  0
  1 15  1  0  0  0  0
  1  8  1  0  0  0  0
  2 10  2  0  0  0  0
  2  6  1  0  0  0  0
  4  7  2  0  0  0  0
  4  9  1  0  0  0  0
  5  3  2  0  0  0  0
  7  5  1  0  0  0  0
  8  2  1  0  0  0  0
  9 14  2  0  0  0  0
 11 18  1  6  0  0  0
 11  4  1  0  0  0  0
 12 11  1  0  0  0  0
 13  9  1  1  0  0  0
 13 10  1  0  0  0  0
 14  3  1  0  0  0  0
 14 38  1  0  0  0  0
 15 12  1  1  0  0  0
 15 13  1  0  0  0  0
 16 17  1  0  0  0  0
 17 18  2  0  0  0  0
 19 18  1  0  0  0  0
 20 21  1  0  0  0  0
 20 16  2  0  0  0  0
 21 19  2  0  0  0  0
 23 24  1  0  0  0  0
 24 20  1  1  0  0  0
 25 22  1  1  0  0  0
 25 23  1  0  0  0  0
 25 24  1  0  0  0  0
 26 27  1  1  0  0  0
 28 29  1  6  0  0  0
 28 26  1  0  0  0  0
 30 28  1  0  0  0  0
 31 30  2  0  0  0  0
 32 33  1  0  0  0  0
 32 31  1  0  0  0  0
 34 33  1  0  0  0  0
 34 35  1  0  0  0  0
 36 35  1  0  0  0  0
 36 37  1  0  0  0  0
 38 39  1  0  0  0  0
 40 44  1  0  0  0  0
 40 39  1  0  0  0  0
 41 43  1  0  0  0  0
 41 44  1  0  0  0  0
 42 41  2  0  0  0  0
M  END
>  <MODEL>
1

>  <REMARK>
 VINA RESULT:      -5.9      0.000      0.000
  Name = 
  14 active torsions:
  status: ('A' for Active; 'I' for Inactive)
    1  A    between atoms: C_2  and  C_31
    2  A    between atoms: C_4  and  O_27
    3  A    between atoms: C_4  and  C_36
    4  A    between atoms: C_8  and  C_23
    5  A    between atoms: C_8  and  N_42
    6  A    between atoms: C_11  and  C_34
    7  A    between atoms: C_11  and  C_38
    8  A    between atoms: C_12  and  C_13
    9  A    between atoms: C_12  and  C_31
   10  A    between atoms: C_23  and  C_41
   11  A    between atoms: C_24  and  C_26
   12  A    between atoms: N_29  and  N_42
   13  A    between atoms: C_30  and  C_33
   14  A    between atoms: C_34  and  C_36
                            x       y       z     vdW  Elec       q    Type
                         _______ _______ _______ _____ _____    ______ ____

>  <TORSDO>
F 14

$$$$
=
 OpenBabel11052409323D

 44 48  0  0  1  0  0  0  0  0999 V2000
  159.9000  209.5830  153.4390 C   0  0  2  0  0  3  0  0  0  0  0  0
  161.1970  207.5510  153.9520 C   0  0  0  0  0  0  0  0  0  0  0  0
  161.7960  206.3320  148.4900 N   0  0  0  0  0  0  0  0  0  0  0  0
  162.1590  208.7120  149.8050 C   0  0  0  0  0  0  0  0  0  0  0  0
  162.6680  207.2550  148.0110 C   0  0  0  0  0  3  0  0  0  0  0  0
  161.8620  206.6820  154.9580 C   0  0  0  0  0  1  0  0  0  0  0  0
  162.8390  208.4340  148.6620 N   0  0  0  0  0  0  0  0  0  0  0  0
  160.6070  208.7530  154.3600 O   0  0  0  0  0  0  0  0  0  0  0  0
  161.2480  207.7670  150.3240 C   0  0  0  0  0  0  0  0  0  0  0  0
  161.2110  207.2070  152.6980 N   0  0  0  0  0  0  0  0  0  0  0  0
  162.3450  210.0670  150.4450 C   0  0  2  0  0  3  0  0  0  0  0  0
  161.8690  210.1110  151.8990 C   0  0  0  0  0  2  0  0  0  0  0  0
  160.5550  207.9950  151.6480 C   0  0  1  0  0  3  0  0  0  0  0  0
  161.0800  206.5600  149.6210 C   0  0  0  0  0  0  0  0  0  0  0  0
  160.4820  209.4830  152.0220 C   0  0  1  0  0  3  0  0  0  0  0  0
  160.4520  213.2260  149.5600 C   0  0  0  0  0  3  0  0  0  0  0  0
  161.0690  212.2100  150.2930 C   0  0  0  0  0  3  0  0  0  0  0  0
  161.7230  211.1660  149.6340 C   0  0  0  0  0  0  0  0  0  0  0  0
  161.7500  211.1410  148.2310 C   0  0  0  0  0  3  0  0  0  0  0  0
  160.4990  213.2170  148.1580 C   0  0  0  0  0  0  0  0  0  0  0  0
  161.1320  212.1570  147.4960 C   0  0  0  0  0  3  0  0  0  0  0  0
  157.9220  212.6230  147.4810 O   0  0  0  0  0  1  0  0  0  0  0  0
  159.3900  213.7390  145.9830 C   0  0  0  0  0  2  0  0  0  0  0  0
  159.7420  214.2530  147.3710 C   0  0  1  0  0  3  0  0  0  0  0  0
  158.2930  213.8880  147.0150 C   0  0  2  0  0  3  0  0  0  0  0  0
  159.5990  210.9950  153.9910 C   0  0  2  0  0  3  0  0  0  0  0  0
  159.0230  211.9320  152.9430 C   0  0  0  0  0  1  0  0  0  0  0  0
  160.6970  211.6840  154.8080 C   0  0  2  0  0  3  0  0  0  0  0  0
  161.7420  210.8130  155.1210 O   0  0  0  0  0  1  0  0  0  0  0  0
  160.1450  212.3060  156.0480 C   0  0  0  0  0  3  0  0  0  0  0  0
  159.0350  213.0370  155.9960 C   0  0  0  0  0  3  0  0  0  0  0  0
  158.4930  213.6600  157.2380 C   0  0  0  0  0  2  0  0  0  0  0  0
  157.0490  214.0770  157.0280 C   0  0  0  0  0  2  0  0  0  0  0  0
  156.5550  213.5920  155.6770 C   0  0  0  0  0  2  0  0  0  0  0  0
  155.6930  212.3550  155.8430 C   0  0  0  0  0  2  0  0  0  0  0  0
  156.1100  211.3610  154.9550 O   0  0  0  0  0  0  0  0  0  0  0  0
  155.3610  210.2390  155.3080 C   0  0  0  0  0  1  0  0  0  0  0  0
  160.1270  205.5100  150.1020 C   0  0  0  0  0  2  0  0  0  0  0  0
  160.8560  204.4330  150.8940 C   0  0  0  0  0  2  0  0  0  0  0  0
  160.6140  203.1230  150.3050 N   0  0  0  0  0  2  0  0  0  0  0  0
  160.8770  202.0750  148.0760 C   0  0  0  0  0  0  0  0  0  0  0  0
  160.6460  200.8970  148.5540 N   0  0  0  0  0  2  0  0  0  0  0  0
  161.1050  202.2470  146.6190 C   0  0  0  0  0  1  0  0  0  0  0  0
  160.8410  203.2270  148.9240 N   0  0  0  0  0  2  0  0  0  0  0  0
  1 26  1  1  0  0  0
  1  8  1  0  0  0  0
  2  8  1  0  0  0  0
  2  6  1  0  0  0  0
  3 14  1  0  0  0  0
  4  9  1  0  0  0  0
  4 11  1  0  0  0  0
  5  3  2  0  0  0  0
  5  7  1  0  0  0  0
  7  4  2  0  0  0  0
 10  2  2  0  0  0  0
 11 18  1  6  0  0  0
 11 12  1  0  0  0  0
 13  9  1  6  0  0  0
 13 15  1  0  0  0  0
 13 10  1  0  0  0  0
 14 38  1  0  0  0  0
 14  9  2  0  0  0  0
 15 12  1  1  0  0  0
 15  1  1  0  0  0  0
 16 17  1  0  0  0  0
 18 17  2  0  0  0  0
 19 18  1  0  0  0  0
 20 16  2  0  0  0  0
 21 20  1  0  0  0  0
 21 19  2  0  0  0  0
 23 25  1  0  0  0  0
 23 24  1  0  0  0  0
 24 20  1  1  0  0  0
 25 24  1  0  0  0  0
 25 22  1  1  0  0  0
 26 27  1  6  0  0  0
 26 28  1  0  0  0  0
 28 29  1  1  0  0  0
 28 30  1  0  0  0  0
 31 30  2  0  0  0  0
 31 32  1  0  0  0  0
 33 32  1  0  0  0  0
 34 35  1  0  0  0  0
 34 33  1  0  0  0  0
 36 37  1  0  0  0  0
 36 35  1  0  0  0  0
 38 39  1  0  0  0  0
 40 39  1  0  0  0  0
 41 42  2  0  0  0  0
 41 44  1  0  0  0  0
 43 41  1  0  0  0  0
 44 40  1  0  0  0  0
M  END
>  <MODEL>
2

>  <REMARK>
 VINA RESULT:      -4.9      3.678      8.494
  Name = 
  14 active torsions:
  status: ('A' for Active; 'I' for Inactive)
    1  A    between atoms: C_2  and  C_31
    2  A    between atoms: C_4  and  O_27
    3  A    between atoms: C_4  and  C_36
    4  A    between atoms: C_8  and  C_23
    5  A    between atoms: C_8  and  N_42
    6  A    between atoms: C_11  and  C_34
    7  A    between atoms: C_11  and  C_38
    8  A    between atoms: C_12  and  C_13
    9  A    between atoms: C_12  and  C_31
   10  A    between atoms: C_23  and  C_41
   11  A    between atoms: C_24  and  C_26
   12  A    between atoms: N_29  and  N_42
   13  A    between atoms: C_30  and  C_33
   14  A    between atoms: C_34  and  C_36
                            x       y       z     vdW  Elec       q    Type
                         _______ _______ _______ _____ _____    ______ ____

>  <TORSDO>
F 14

$$$$
=
 OpenBabel11052409323D

 44 48  0  0  1  0  0  0  0  0999 V2000
  160.7670  210.7810  151.6870 C   0  0  2  0  0  3  0  0  0  0  0  0
  161.8630  210.4740  153.8730 C   0  0  0  0  0  0  0  0  0  0  0  0
  161.1450  204.8950  153.6540 N   0  0  0  0  0  0  0  0  0  0  0  0
  162.0840  206.6180  151.7370 C   0  0  0  0  0  0  0  0  0  0  0  0
  162.0120  204.4600  152.7060 C   0  0  0  0  0  3  0  0  0  0  0  0
  162.6020  211.0570  155.0230 C   0  0  0  0  0  1  0  0  0  0  0  0
  162.4690  205.3150  151.7550 N   0  0  0  0  0  0  0  0  0  0  0  0
  161.5350  211.2840  152.7800 O   0  0  0  0  0  0  0  0  0  0  0  0
  161.1850  207.0950  152.7150 C   0  0  0  0  0  0  0  0  0  0  0  0
  161.5700  209.2060  153.8750 N   0  0  0  0  0  0  0  0  0  0  0  0
  162.5760  207.5020  150.6160 C   0  0  2  0  0  3  0  0  0  0  0  0
  162.4240  208.9940  150.9200 C   0  0  0  0  0  2  0  0  0  0  0  0
  160.8200  208.5600  152.7920 C   0  0  1  0  0  3  0  0  0  0  0  0
  160.7170  206.1840  153.6790 C   0  0  0  0  0  0  0  0  0  0  0  0
  161.0220  209.2850  151.4540 C   0  0  1  0  0  3  0  0  0  0  0  0
  160.0830  206.2020  148.0780 C   0  0  0  0  0  3  0  0  0  0  0  0
  160.6740  206.5740  149.2870 C   0  0  0  0  0  3  0  0  0  0  0  0
  161.9490  207.1470  149.2990 C   0  0  0  0  0  0  0  0  0  0  0  0
  162.6340  207.3400  148.0890 C   0  0  0  0  0  3  0  0  0  0  0  0
  160.7550  206.4160  146.8650 C   0  0  0  0  0  0  0  0  0  0  0  0
  162.0430  206.9670  146.8790 C   0  0  0  0  0  3  0  0  0  0  0  0
  161.5890  203.9720  145.9820 O   0  0  0  0  0  1  0  0  0  0  0  0
  161.2270  205.7890  144.4950 C   0  0  0  0  0  2  0  0  0  0  0  0
  160.1620  205.9160  145.5750 C   0  0  1  0  0  3  0  0  0  0  0  0
  160.6490  204.5340  145.1140 C   0  0  2  0  0  3  0  0  0  0  0  0
  160.7760  211.7100  150.4520 C   0  0  2  0  0  3  0  0  0  0  0  0
  162.0220  211.5490  149.5970 C   0  0  0  0  0  1  0  0  0  0  0  0
  160.4450  213.1890  150.6760 C   0  0  2  0  0  3  0  0  0  0  0  0
  159.2670  213.3570  151.4040 O   0  0  0  0  0  1  0  0  0  0  0  0
  160.3740  213.9340  149.3840 C   0  0  0  0  0  3  0  0  0  0  0  0
  159.6750  213.4440  148.3640 C   0  0  0  0  0  3  0  0  0  0  0  0
  159.6140  214.1910  147.0740 C   0  0  0  0  0  2  0  0  0  0  0  0
  161.0080  214.3550  146.4970 C   0  0  0  0  0  2  0  0  0  0  0  0
  161.4990  213.0350  145.9310 C   0  0  0  0  0  2  0  0  0  0  0  0
  161.3010  212.9990  144.4280 C   0  0  0  0  0  2  0  0  0  0  0  0
  162.5320  212.8330  143.7890 O   0  0  0  0  0  0  0  0  0  0  0  0
  162.2090  212.3280  142.5300 C   0  0  0  0  0  1  0  0  0  0  0  0
  159.7550  206.6100  154.7440 C   0  0  0  0  0  2  0  0  0  0  0  0
  160.4820  206.9060  156.0490 C   0  0  0  0  0  2  0  0  0  0  0  0
  159.7570  207.9130  156.8130 N   0  0  0  0  0  2  0  0  0  0  0  0
  159.1190  210.2180  156.1710 C   0  0  0  0  0  0  0  0  0  0  0  0
  159.6310  210.7080  157.2520 N   0  0  0  0  0  2  0  0  0  0  0  0
  158.5220  211.1290  155.1610 C   0  0  0  0  0  1  0  0  0  0  0  0
  159.1890  208.8160  155.9010 N   0  0  0  0  0  2  0  0  0  0  0  0
  1 26  1  6  0  0  0
  1  8  1  0  0  0  0
  2 10  2  0  0  0  0
  2  6  1  0  0  0  0
  3 14  1  0  0  0  0
  4  7  2  0  0  0  0
  4  9  1  0  0  0  0
  5  3  2  0  0  0  0
  7  5  1  0  0  0  0
  8  2  1  0  0  0  0
  9 14  2  0  0  0  0
 11 18  1  6  0  0  0
 11 12  1  0  0  0  0
 11  4  1  0  0  0  0
 13  9  1  6  0  0  0
 13 10  1  0  0  0  0
 14 38  1  0  0  0  0
 15 12  1  1  0  0  0
 15  1  1  0  0  0  0
 15 13  1  0  0  0  0
 16 17  1  0  0  0  0
 17 18  2  0  0  0  0
 19 18  1  0  0  0  0
 20 21  1  0  0  0  0
 20 16  2  0  0  0  0
 21 19  2  0  0  0  0
 23 25  1  0  0  0  0
 23 24  1  0  0  0  0
 24 20  1  1  0  0  0
 25 24  1  0  0  0  0
 25 22  1  1  0  0  0
 26 27  1  1  0  0  0
 26 28  1  0  0  0  0
 28 29  1  6  0  0  0
 30 28  1  0  0  0  0
 31 30  2  0  0  0  0
 32 31  1  0  0  0  0
 33 32  1  0  0  0  0
 34 33  1  0  0  0  0
 35 34  1  0  0  0  0
 36 35  1  0  0  0  0
 37 36  1  0  0  0  0
 38 39  1  0  0  0  0
 39 40  1  0  0  0  0
 41 42  2  0  0  0  0
 43 41  1  0  0  0  0
 44 41  1  0  0  0  0
 44 40  1  0  0  0  0
M  END
>  <MODEL>
3

>  <REMARK>
 VINA RESULT:      -4.3      2.833      7.413
  Name = 
  14 active torsions:
  status: ('A' for Active; 'I' for Inactive)
    1  A    between atoms: C_2  and  C_31
    2  A    between atoms: C_4  and  O_27
    3  A    between atoms: C_4  and  C_36
    4  A    between atoms: C_8  and  C_23
    5  A    between atoms: C_8  and  N_42
    6  A    between atoms: C_11  and  C_34
    7  A    between atoms: C_11  and  C_38
    8  A    between atoms: C_12  and  C_13
    9  A    between atoms: C_12  and  C_31
   10  A    between atoms: C_23  and  C_41
   11  A    between atoms: C_24  and  C_26
   12  A    between atoms: N_29  and  N_42
   13  A    between atoms: C_30  and  C_33
   14  A    between atoms: C_34  and  C_36
                            x       y       z     vdW  Elec       q    Type
                         _______ _______ _______ _____ _____    ______ ____

>  <TORSDO>
F 14

$$$$
=
 OpenBabel11052409323D

 44 48  0  0  1  0  0  0  0  0999 V2000
  161.3800  208.2530  148.3030 C   0  0  2  0  0  3  0  0  0  0  0  0
  162.3310  210.2650  149.3630 C   0  0  0  0  0  0  0  0  0  0  0  0
  160.4570  208.7020  154.4350 N   0  0  0  0  0  0  0  0  0  0  0  0
  161.7880  207.2420  152.5310 C   0  0  0  0  0  0  0  0  0  0  0  0
  161.2370  207.6520  154.7960 C   0  0  0  0  0  3  0  0  0  0  0  0
  163.1470  211.5020  149.2490 C   0  0  0  0  0  1  0  0  0  0  0  0
  161.8880  206.9290  153.8500 N   0  0  0  0  0  0  0  0  0  0  0  0
  162.2090  209.4150  148.2580 O   0  0  0  0  0  0  0  0  0  0  0  0
  160.9840  208.3320  152.1310 C   0  0  0  0  0  0  0  0  0  0  0  0
  161.7770  209.9640  150.5010 N   0  0  0  0  0  0  0  0  0  0  0  0
  162.4840  206.3590  151.5230 C   0  0  2  0  0  3  0  0  0  0  0  0
  162.6420  207.0250  150.1540 C   0  0  0  0  0  2  0  0  0  0  0  0
  160.9350  208.7770  150.6870 C   0  0  1  0  0  3  0  0  0  0  0  0
  160.3100  209.0550  153.1320 C   0  0  0  0  0  0  0  0  0  0  0  0
  161.3200  207.6530  149.7150 C   0  0  1  0  0  3  0  0  0  0  0  0
  161.8630  202.6410  151.8850 C   0  0  0  0  0  3  0  0  0  0  0  0
  162.4330  203.9090  152.0110 C   0  0  0  0  0  3  0  0  0  0  0  0
  161.8300  205.0130  151.4030 C   0  0  0  0  0  0  0  0  0  0  0  0
  160.6520  204.8390  150.6600 C   0  0  0  0  0  3  0  0  0  0  0  0
  160.6730  202.4670  151.1640 C   0  0  0  0  0  0  0  0  0  0  0  0
  160.0810  203.5690  150.5330 C   0  0  0  0  0  3  0  0  0  0  0  0
  161.7040  201.0430  149.0760 O   0  0  0  0  0  1  0  0  0  0  0  0
  159.3890  200.9950  149.6090 C   0  0  0  0  0  2  0  0  0  0  0  0
  160.1200  201.0840  150.9400 C   0  0  1  0  0  3  0  0  0  0  0  0
  160.7300  200.3100  149.7620 C   0  0  2  0  0  3  0  0  0  0  0  0
  161.6170  207.2850  147.1230 C   0  0  2  0  0  3  0  0  0  0  0  0
  160.3640  207.0300  146.3020 C   0  0  0  0  0  1  0  0  0  0  0  0
  162.3610  205.9770  147.4170 C   0  0  2  0  0  3  0  0  0  0  0  0
  163.4700  205.8080  146.5870 O   0  0  0  0  0  1  0  0  0  0  0  0
  161.4500  204.7980  147.3220 C   0  0  0  0  0  3  0  0  0  0  0  0
  161.8270  203.7100  146.6570 C   0  0  0  0  0  3  0  0  0  0  0  0
  160.9090  202.5380  146.5610 C   0  0  0  0  0  2  0  0  0  0  0  0
  160.4160  202.3750  145.1350 C   0  0  0  0  0  2  0  0  0  0  0  0
  160.0000  200.9360  144.8860 C   0  0  0  0  0  2  0  0  0  0  0  0
  160.4230  200.0560  146.0450 C   0  0  0  0  0  2  0  0  0  0  0  0
  161.6130  199.3940  145.7310 O   0  0  0  0  0  0  0  0  0  0  0  0
  161.2060  198.1460  145.2600 C   0  0  0  0  0  1  0  0  0  0  0  0
  159.4330  210.2180  152.7880 C   0  0  0  0  0  2  0  0  0  0  0  0
  160.1050  211.5350  153.1540 C   0  0  0  0  0  2  0  0  0  0  0  0
  159.3450  212.2180  154.1930 N   0  0  0  0  0  2  0  0  0  0  0  0
  156.9320  211.8910  154.6450 C   0  0  0  0  0  0  0  0  0  0  0  0
  156.6660  213.1210  154.3510 N   0  0  0  0  0  2  0  0  0  0  0  0
  155.8300  210.9660  155.0100 C   0  0  0  0  0  1  0  0  0  0  0  0
  158.2690  211.3910  154.5490 N   0  0  0  0  0  2  0  0  0  0  0  0
  1 26  1  6  0  0  0
  1 15  1  0  0  0  0
  2 10  2  0  0  0  0
  3  5  1  0  0  0  0
  4  7  1  0  0  0  0
  6  2  1  0  0  0  0
  7  5  2  0  0  0  0
  8  1  1  0  0  0  0
  8  2  1  0  0  0  0
  9  4  2  0  0  0  0
  9 14  1  0  0  0  0
 11 18  1  6  0  0  0
 11  4  1  0  0  0  0
 12 11  1  0  0  0  0
 13 10  1  1  0  0  0
 13  9  1  0  0  0  0
 14  3  2  0  0  0  0
 15 12  1  1  0  0  0
 15 13  1  0  0  0  0
 16 17  1  0  0  0  0
 18 17  2  0  0  0  0
 19 18  1  0  0  0  0
 20 16  2  0  0  0  0
 21 19  2  0  0  0  0
 21 20  1  0  0  0  0
 23 25  1  0  0  0  0
 23 24  1  0  0  0  0
 24 20  1  6  0  0  0
 25 22  1  6  0  0  0
 25 24  1  0  0  0  0
 26 27  1  1  0  0  0
 26 28  1  0  0  0  0
 28 29  1  6  0  0  0
 30 28  1  0  0  0  0
 31 30  2  0  0  0  0
 32 31  1  0  0  0  0
 33 32  1  0  0  0  0
 34 33  1  0  0  0  0
 34 35  1  0  0  0  0
 36 35  1  0  0  0  0
 37 36  1  0  0  0  0
 38 14  1  0  0  0  0
 38 39  1  0  0  0  0
 39 40  1  0  0  0  0
 40 44  1  0  0  0  0
 41 43  1  0  0  0  0
 42 41  2  0  0  0  0
 44 41  1  0  0  0  0
M  END
>  <MODEL>
4

>  <REMARK>
 VINA RESULT:      -3.3      3.604      7.556
  Name = 
  14 active torsions:
  status: ('A' for Active; 'I' for Inactive)
    1  A    between atoms: C_2  and  C_31
    2  A    between atoms: C_4  and  O_27
    3  A    between atoms: C_4  and  C_36
    4  A    between atoms: C_8  and  C_23
    5  A    between atoms: C_8  and  N_42
    6  A    between atoms: C_11  and  C_34
    7  A    between atoms: C_11  and  C_38
    8  A    between atoms: C_12  and  C_13
    9  A    between atoms: C_12  and  C_31
   10  A    between atoms: C_23  and  C_41
   11  A    between atoms: C_24  and  C_26
   12  A    between atoms: N_29  and  N_42
   13  A    between atoms: C_30  and  C_33
   14  A    between atoms: C_34  and  C_36
                            x       y       z     vdW  Elec       q    Type
                         _______ _______ _______ _____ _____    ______ ____

>  <TORSDO>
F 14

$$$$
=
 OpenBabel11052409323D

 44 48  0  0  1  0  0  0  0  0999 V2000
  160.7200  205.8490  149.4550 C   0  0  2  0  0  3  0  0  0  0  0  0
  162.2620  206.2890  147.5820 C   0  0  0  0  0  0  0  0  0  0  0  0
  161.9450  211.8510  148.3900 N   0  0  0  0  0  0  0  0  0  0  0  0
  162.3350  209.8350  150.2090 C   0  0  0  0  0  0  0  0  0  0  0  0
  162.6300  212.0850  149.5370 C   0  0  0  0  0  3  0  0  0  0  0  0
  163.1740  205.7680  146.5310 C   0  0  0  0  0  1  0  0  0  0  0  0
  162.8150  211.0860  150.4370 N   0  0  0  0  0  0  0  0  0  0  0  0
  161.6550  205.3980  148.4740 O   0  0  0  0  0  0  0  0  0  0  0  0
  161.6220  209.5660  149.0200 C   0  0  0  0  0  0  0  0  0  0  0  0
  162.0740  207.5720  147.6900 N   0  0  0  0  0  0  0  0  0  0  0  0
  162.5180  208.7840  151.2780 C   0  0  2  0  0  3  0  0  0  0  0  0
  162.3170  207.3600  150.7560 C   0  0  0  0  0  2  0  0  0  0  0  0
  161.1690  208.1640  148.6820 C   0  0  1  0  0  3  0  0  0  0  0  0
  161.4330  210.6240  148.1130 C   0  0  0  0  0  0  0  0  0  0  0  0
  161.0360  207.2750  149.9270 C   0  0  1  0  0  3  0  0  0  0  0  0
  160.2240  210.5600  153.7130 C   0  0  0  0  0  3  0  0  0  0  0  0
  160.9970  210.2740  152.5860 C   0  0  0  0  0  3  0  0  0  0  0  0
  161.6630  209.0500  152.4830 C   0  0  0  0  0  0  0  0  0  0  0  0
  161.5560  208.1120  153.5220 C   0  0  0  0  0  3  0  0  0  0  0  0
  160.0950  209.6150  154.7420 C   0  0  0  0  0  0  0  0  0  0  0  0
  160.7820  208.3980  154.6510 C   0  0  0  0  0  3  0  0  0  0  0  0
  161.3590  211.2670  156.5090 O   0  0  0  0  0  1  0  0  0  0  0  0
  160.0580  209.4150  157.2300 C   0  0  0  0  0  2  0  0  0  0  0  0
  159.3500  209.9680  156.0020 C   0  0  1  0  0  3  0  0  0  0  0  0
  160.0890  210.9050  156.9680 C   0  0  2  0  0  3  0  0  0  0  0  0
  160.4040  204.7900  150.5350 C   0  0  2  0  0  3  0  0  0  0  0  0
  161.2400  204.9570  151.7920 C   0  0  0  0  0  1  0  0  0  0  0  0
  160.3530  203.3230  150.0940 C   0  0  2  0  0  3  0  0  0  0  0  0
  161.0080  202.4830  150.9970 O   0  0  0  0  0  1  0  0  0  0  0  0
  160.9070  203.1470  148.7190 C   0  0  0  0  0  3  0  0  0  0  0  0
  160.8250  201.9680  148.1080 C   0  0  0  0  0  3  0  0  0  0  0  0
  161.3860  201.7990  146.7360 C   0  0  0  0  0  2  0  0  0  0  0  0
  160.2960  201.3590  145.7750 C   0  0  0  0  0  2  0  0  0  0  0  0
  159.9970  202.4650  144.7800 C   0  0  0  0  0  2  0  0  0  0  0  0
  160.8360  203.6910  145.0840 C   0  0  0  0  0  2  0  0  0  0  0  0
  160.5890  204.6850  144.1350 O   0  0  0  0  0  0  0  0  0  0  0  0
  160.2120  205.7990  144.8840 C   0  0  0  0  0  1  0  0  0  0  0  0
  160.6800  210.4220  146.8340 C   0  0  0  0  0  2  0  0  0  0  0  0
  160.0070  211.7130  146.3880 C   0  0  0  0  0  2  0  0  0  0  0  0
  160.2950  211.9720  144.9830 N   0  0  0  0  0  2  0  0  0  0  0  0
  162.2290  212.9310  143.7690 C   0  0  0  0  0  0  0  0  0  0  0  0
  161.9640  212.2380  142.7110 N   0  0  0  0  0  2  0  0  0  0  0  0
  163.3660  213.8860  143.7580 C   0  0  0  0  0  1  0  0  0  0  0  0
  161.3920  212.8460  144.9260 N   0  0  0  0  0  2  0  0  0  0  0  0
  1 15  1  0  0  0  0
  1 26  1  1  0  0  0
  2 10  2  0  0  0  0
  2  8  1  0  0  0  0
  3  5  1  0  0  0  0
  4  7  1  0  0  0  0
  4 11  1  0  0  0  0
  5  7  2  0  0  0  0
  6  2  1  0  0  0  0
  8  1  1  0  0  0  0
  9  4  2  0  0  0  0
 11 18  1  1  0  0  0
 12 11  1  0  0  0  0
 13 10  1  6  0  0  0
 13  9  1  0  0  0  0
 13 15  1  0  0  0  0
 14  3  2  0  0  0  0
 14  9  1  0  0  0  0
 15 12  1  6  0  0  0
 16 20  1  0  0  0  0
 17 16  2  0  0  0  0
 18 17  1  0  0  0  0
 18 19  2  0  0  0  0
 19 21  1  0  0  0  0
 21 20  2  0  0  0  0
 24 20  1  6  0  0  0
 24 25  1  0  0  0  0
 24 23  1  0  0  0  0
 25 22  1  6  0  0  0
 25 23  1  0  0  0  0
 26 27  1  1  0  0  0
 28 26  1  0  0  0  0
 28 29  1  1  0  0  0
 30 28  1  0  0  0  0
 31 30  2  0  0  0  0
 32 31  1  0  0  0  0
 33 32  1  0  0  0  0
 34 35  1  0  0  0  0
 34 33  1  0  0  0  0
 36 37  1  0  0  0  0
 36 35  1  0  0  0  0
 38 14  1  0  0  0  0
 39 38  1  0  0  0  0
 40 39  1  0  0  0  0
 41 44  1  0  0  0  0
 42 41  2  0  0  0  0
 43 41  1  0  0  0  0
 44 40  1  0  0  0  0
M  END
>  <MODEL>
5

>  <REMARK>
 VINA RESULT:      -3.1      4.184      7.714
  Name = 
  14 active torsions:
  status: ('A' for Active; 'I' for Inactive)
    1  A    between atoms: C_2  and  C_31
    2  A    between atoms: C_4  and  O_27
    3  A    between atoms: C_4  and  C_36
    4  A    between atoms: C_8  and  C_23
    5  A    between atoms: C_8  and  N_42
    6  A    between atoms: C_11  and  C_34
    7  A    between atoms: C_11  and  C_38
    8  A    between atoms: C_12  and  C_13
    9  A    between atoms: C_12  and  C_31
   10  A    between atoms: C_23  and  C_41
   11  A    between atoms: C_24  and  C_26
   12  A    between atoms: N_29  and  N_42
   13  A    between atoms: C_30  and  C_33
   14  A    between atoms: C_34  and  C_36
                            x       y       z     vdW  Elec       q    Type
                         _______ _______ _______ _____ _____    ______ ____

>  <TORSDO>
F 14

$$$$
=
 OpenBabel11052409323D

 44 48  0  0  1  0  0  0  0  0999 V2000
  161.1260  210.7010  151.1800 C   0  0  2  0  0  3  0  0  0  0  0  0
  162.1740  210.4620  153.3980 C   0  0  0  0  0  0  0  0  0  0  0  0
  161.0000  204.9590  153.5620 N   0  0  0  0  0  0  0  0  0  0  0  0
  162.0950  206.4590  151.5430 C   0  0  0  0  0  0  0  0  0  0  0  0
  161.8370  204.3880  152.6590 C   0  0  0  0  0  3  0  0  0  0  0  0
  162.9480  211.0640  154.5150 C   0  0  0  0  0  1  0  0  0  0  0  0
  162.3710  205.1330  151.6580 N   0  0  0  0  0  0  0  0  0  0  0  0
  161.9230  211.2160  152.2470 O   0  0  0  0  0  0  0  0  0  0  0  0
  161.2300  207.0760  152.4720 C   0  0  0  0  0  0  0  0  0  0  0  0
  161.7780  209.2260  153.4850 N   0  0  0  0  0  0  0  0  0  0  0  0
  162.6690  207.2180  150.3690 C   0  0  2  0  0  3  0  0  0  0  0  0
  162.6370  208.7350  150.5660 C   0  0  0  0  0  2  0  0  0  0  0  0
  160.9860  208.5680  152.4400 C   0  0  1  0  0  3  0  0  0  0  0  0
  160.6800  206.2770  153.4900 C   0  0  0  0  0  0  0  0  0  0  0  0
  161.2590  209.1770  151.0570 C   0  0  1  0  0  3  0  0  0  0  0  0
  160.3050  205.5830  147.9020 C   0  0  0  0  0  3  0  0  0  0  0  0
  160.9010  205.9940  149.0960 C   0  0  0  0  0  3  0  0  0  0  0  0
  162.0260  206.8220  149.0720 C   0  0  0  0  0  0  0  0  0  0  0  0
  162.5590  207.2310  147.8390 C   0  0  0  0  0  3  0  0  0  0  0  0
  160.8210  206.0100  146.6700 C   0  0  0  0  0  0  0  0  0  0  0  0
  161.9640  206.8190  146.6440 C   0  0  0  0  0  3  0  0  0  0  0  0
  161.9360  203.7350  145.6560 O   0  0  0  0  0  1  0  0  0  0  0  0
  161.2650  205.5360  144.2590 C   0  0  0  0  0  2  0  0  0  0  0  0
  160.2430  205.4790  145.3850 C   0  0  1  0  0  3  0  0  0  0  0  0
  160.8910  204.1930  144.8490 C   0  0  2  0  0  3  0  0  0  0  0  0
  161.2230  211.5350  149.8830 C   0  0  2  0  0  3  0  0  0  0  0  0
  162.6490  211.6930  149.3830 C   0  0  0  0  0  1  0  0  0  0  0  0
  160.4720  212.8710  149.8430 C   0  0  2  0  0  3  0  0  0  0  0  0
  161.2220  213.8750  149.2290 O   0  0  0  0  0  1  0  0  0  0  0  0
  160.0430  213.2970  151.2080 C   0  0  0  0  0  3  0  0  0  0  0  0
  158.9410  214.0240  151.3690 C   0  0  0  0  0  3  0  0  0  0  0  0
  158.5220  214.4510  152.7350 C   0  0  0  0  0  2  0  0  0  0  0  0
  157.1030  213.9900  153.0160 C   0  0  0  0  0  2  0  0  0  0  0  0
  156.6650  214.4520  154.3940 C   0  0  0  0  0  2  0  0  0  0  0  0
  155.2690  213.9470  154.7010 C   0  0  0  0  0  2  0  0  0  0  0  0
  155.1570  213.6520  156.0620 O   0  0  0  0  0  0  0  0  0  0  0  0
  155.7560  212.4000  156.1990 C   0  0  0  0  0  1  0  0  0  0  0  0
  159.7460  206.8550  154.5080 C   0  0  0  0  0  2  0  0  0  0  0  0
  160.3700  206.8280  155.8970 C   0  0  0  0  0  2  0  0  0  0  0  0
  160.1110  208.0830  156.5910 N   0  0  0  0  0  2  0  0  0  0  0  0
  159.3240  210.3540  155.9940 C   0  0  0  0  0  0  0  0  0  0  0  0
  159.3470  210.7340  157.2290 N   0  0  0  0  0  2  0  0  0  0  0  0
  158.9490  211.3230  154.9330 C   0  0  0  0  0  1  0  0  0  0  0  0
  159.7310  209.0330  155.6290 N   0  0  0  0  0  2  0  0  0  0  0  0
  1 26  1  6  0  0  0
  1  8  1  0  0  0  0
  2 10  2  0  0  0  0
  2  6  1  0  0  0  0
  4  7  2  0  0  0  0
  4  9  1  0  0  0  0
  5  3  2  0  0  0  0
  7  5  1  0  0  0  0
  8  2  1  0  0  0  0
  9 14  2  0  0  0  0
 11 18  1  6  0  0  0
 11 12  1  0  0  0  0
 11  4  1  0  0  0  0
 13  9  1  6  0  0  0
 13 10  1  0  0  0  0
 14  3  1  0  0  0  0
 14 38  1  0  0  0  0
 15 12  1  1  0  0  0
 15  1  1  0  0  0  0
 15 13  1  0  0  0  0
 16 17  1  0  0  0  0
 18 17  2  0  0  0  0
 19 18  1  0  0  0  0
 20 16  2  0  0  0  0
 21 20  1  0  0  0  0
 21 19  2  0  0  0  0
 23 25  1  0  0  0  0
 23 24  1  0  0  0  0
 24 20  1  1  0  0  0
 25 24  1  0  0  0  0
 25 22  1  1  0  0  0
 26 27  1  1  0  0  0
 28 29  1  1  0  0  0
 28 26  1  0  0  0  0
 28 30  1  0  0  0  0
 30 31  2  0  0  0  0
 31 32  1  0  0  0  0
 32 33  1  0  0  0  0
 33 34  1  0  0  0  0
 34 35  1  0  0  0  0
 35 36  1  0  0  0  0
 36 37  1  0  0  0  0
 38 39  1  0  0  0  0
 39 40  1  0  0  0  0
 41 42  2  0  0  0  0
 43 41  1  0  0  0  0
 44 41  1  0  0  0  0
 44 40  1  0  0  0  0
M  END
>  <MODEL>
6

>  <REMARK>
 VINA RESULT:      -2.9      2.818      8.183
  Name = 
  14 active torsions:
  status: ('A' for Active; 'I' for Inactive)
    1  A    between atoms: C_2  and  C_31
    2  A    between atoms: C_4  and  O_27
    3  A    between atoms: C_4  and  C_36
    4  A    between atoms: C_8  and  C_23
    5  A    between atoms: C_8  and  N_42
    6  A    between atoms: C_11  and  C_34
    7  A    between atoms: C_11  and  C_38
    8  A    between atoms: C_12  and  C_13
    9  A    between atoms: C_12  and  C_31
   10  A    between atoms: C_23  and  C_41
   11  A    between atoms: C_24  and  C_26
   12  A    between atoms: N_29  and  N_42
   13  A    between atoms: C_30  and  C_33
   14  A    between atoms: C_34  and  C_36
                            x       y       z     vdW  Elec       q    Type
                         _______ _______ _______ _____ _____    ______ ____

>  <TORSDO>
F 14

$$$$
