=
 OpenBabel11052411133D

 60 65  0  0  1  0  0  0  0  0999 V2000
  160.9800  208.4290  153.2270 C   0  0  1  0  0  3  0  0  0  0  0  0
  159.8710  210.5450  152.5940 C   0  0  0  0  0  0  0  0  0  0  0  0
  158.9010  212.4760  153.6620 C   0  0  0  0  0  1  0  0  0  0  0  0
  159.9340  209.2400  152.5130 C   0  0  0  0  0  3  0  0  0  0  0  0
  159.8040  211.8450  152.6680 C   0  0  0  0  0  0  0  0  0  0  0  0
  160.5150  212.7040  151.6740 C   0  0  0  0  0  2  0  0  0  0  0  0
  159.6190  213.1090  150.5490 C   0  0  0  0  0  0  0  0  0  0  0  0
  160.1410  213.5470  149.3250 C   0  0  0  0  0  3  0  0  0  0  0  0
  159.2860  213.9800  148.3050 C   0  0  0  0  0  0  0  0  0  0  0  0
  157.8920  213.9270  148.4980 C   0  0  0  0  0  0  0  0  0  0  0  0
  158.2340  213.0770  150.7380 C   0  0  0  0  0  3  0  0  0  0  0  0
  157.0350  214.2660  147.5050 F   0  0  0  0  0  0  0  0  0  0  0  0
  157.3740  213.4790  149.7150 C   0  0  0  0  0  3  0  0  0  0  0  0
  159.8580  214.4410  147.0740 N   0  0  0  0  0  2  0  0  0  0  0  0
  159.5860  211.8870  144.3370 C   0  0  0  0  0  3  0  0  0  0  0  0
  161.6380  213.1410  144.0700 C   0  0  0  0  0  0  0  0  0  0  0  0
  161.3440  213.8750  145.2210 C   0  0  0  0  0  3  0  0  0  0  0  0
  160.7610  212.1470  143.6280 C   0  0  0  0  0  3  0  0  0  0  0  0
  160.1720  213.6190  145.9410 C   0  0  0  0  0  0  0  0  0  0  0  0
  162.8160  213.4280  143.3330 N   0  0  0  0  0  1  0  0  0  0  0  0
  159.2890  212.6260  145.4860 C   0  0  0  0  0  3  0  0  0  0  0  0
  162.0640  207.9350  152.2620 C   0  0  2  0  0  3  0  0  0  0  0  0
  162.5860  208.9900  151.5060 O   0  0  0  0  0  1  0  0  0  0  0  0
  160.6020  202.4010  149.4520 C   0  0  0  0  0  0  0  0  0  0  0  0
  161.6390  205.5450  151.8810 N   0  0  0  0  0  0  0  0  0  0  0  0
  160.6190  206.1530  149.3150 C   0  0  0  0  0  0  0  0  0  0  0  0
  160.3070  204.8260  149.9640 C   0  0  1  0  0  3  0  0  0  0  0  0
  161.1670  200.8950  151.3070 F   0  0  0  0  0  0  0  0  0  0  0  0
  161.2710  203.1860  151.6820 C   0  0  0  0  0  3  0  0  0  0  0  0
  160.3330  203.6480  149.0230 C   0  0  0  0  0  3  0  0  0  0  0  0
  161.0020  202.1650  150.8590 C   0  0  0  0  0  0  0  0  0  0  0  0
  161.1530  207.1280  150.0510 C   0  0  0  0  0  3  0  0  0  0  0  0
  161.1160  204.5640  151.2130 C   0  0  0  0  0  0  0  0  0  0  0  0
  161.5900  206.8630  151.3940 N   0  0  0  0  0  0  0  0  0  0  0  0
  160.5390  201.2970  148.5920 O   0  0  0  0  0  0  0  0  0  0  0  0
  160.9960  201.3420  146.9290 P   0  0  0  0  0  0  0  0  0  0  0  0
  159.6400  201.6980  145.9840 O   0  0  0  0  0  0  0  0  0  0  0  0
  161.6120  199.8300  146.4820 O   0  0  0  0  0  1  0  0  0  0  0  0
  162.0520  202.4010  146.7150 O   0  0  0  0  0  1  0  0  0  0  0  0
  160.1390  206.4850  147.9370 C   0  0  0  0  0  2  0  0  0  0  0  0
  163.2990  205.3010  146.1840 C   0  0  0  0  0  3  0  0  0  0  0  0
  162.4340  205.7590  147.1830 C   0  0  0  0  0  3  0  0  0  0  0  0
  161.0950  206.0400  146.8770 C   0  0  0  0  0  0  0  0  0  0  0  0
  162.8260  205.1090  144.8780 C   0  0  0  0  0  3  0  0  0  0  0  0
  160.6210  205.8280  145.5730 C   0  0  0  0  0  3  0  0  0  0  0  0
  161.4870  205.3690  144.5750 C   0  0  0  0  0  3  0  0  0  0  0  0
  161.5300  209.1120  154.3280 O   0  0  0  0  0  0  0  0  0  0  0  0
  161.3830  208.2250  155.4010 C   0  0  2  0  0  3  0  0  0  0  0  0
  160.8050  207.0400  154.9440 O   0  0  0  0  0  1  0  0  0  0  0  0
  160.4690  208.8470  156.4470 C   0  0  0  0  0  2  0  0  0  0  0  0
  161.0840  210.0360  157.0190 N   0  0  0  0  0  0  0  0  0  0  0  0
  158.3940  212.5520  157.0930 C   0  0  0  0  0  0  0  0  0  0  0  0
  159.6610  213.6410  157.2590 S   0  0  0  0  0  0  0  0  0  0  0  0
  160.3160  211.2480  157.1270 C   0  0  0  0  0  0  0  0  0  0  0  0
  160.9060  212.5080  157.2600 C   0  0  0  0  0  3  0  0  0  0  0  0
  158.9100  211.2680  157.0340 C   0  0  0  0  0  3  0  0  0  0  0  0
  156.9560  212.9150  156.9550 C   0  0  0  0  0  2  0  0  0  0  0  0
  156.2210  211.8060  156.5760 F   0  0  0  0  0  0  0  0  0  0  0  0
  162.5460  210.0910  157.0470 C   0  0  0  0  0  2  0  0  0  0  0  0
  163.0160  210.8520  155.9700 O   0  0  0  0  0  1  0  0  0  0  0  0
  1  4  1  6  0  0  0
  1 47  1  0  0  0  0
  2  5  2  0  0  0  0
  4  2  2  0  0  0  0
  5  3  1  0  0  0  0
  6  5  1  0  0  0  0
  7 11  1  0  0  0  0
  7  6  1  0  0  0  0
  8  7  2  0  0  0  0
  9 10  2  0  0  0  0
  9  8  1  0  0  0  0
 10 13  1  0  0  0  0
 12 10  1  0  0  0  0
 13 11  2  0  0  0  0
 14  9  1  0  0  0  0
 15 21  1  0  0  0  0
 16 17  2  0  0  0  0
 17 19  1  0  0  0  0
 18 16  1  0  0  0  0
 18 15  2  0  0  0  0
 19 14  1  0  0  0  0
 20 16  1  0  0  0  0
 21 19  2  0  0  0  0
 22 23  1  6  0  0  0
 22  1  1  0  0  0  0
 24 31  1  0  0  0  0
 26 27  1  0  0  0  0
 26 32  2  0  0  0  0
 27 30  1  6  0  0  0
 27 33  1  0  0  0  0
 30 24  2  0  0  0  0
 31 28  1  0  0  0  0
 31 29  2  0  0  0  0
 32 34  1  0  0  0  0
 33 29  1  0  0  0  0
 33 25  2  0  0  0  0
 34 25  1  0  0  0  0
 34 22  1  0  0  0  0
 35 24  1  0  0  0  0
 36 35  1  0  0  0  0
 37 36  2  0  0  0  0
 38 36  1  0  0  0  0
 39 36  1  0  0  0  0
 40 26  1  0  0  0  0
 41 42  1  0  0  0  0
 43 42  2  0  0  0  0
 43 40  1  0  0  0  0
 44 41  2  0  0  0  0
 45 43  1  0  0  0  0
 46 44  1  0  0  0  0
 46 45  2  0  0  0  0
 47 48  1  0  0  0  0
 48 49  1  6  0  0  0
 48 50  1  0  0  0  0
 50 51  1  0  0  0  0
 51 59  1  0  0  0  0
 51 54  1  0  0  0  0
 52 53  1  0  0  0  0
 53 55  1  0  0  0  0
 54 55  2  0  0  0  0
 56 52  2  0  0  0  0
 56 54  1  0  0  0  0
 57 52  1  0  0  0  0
 58 57  1  0  0  0  0
 60 59  1  0  0  0  0
M  END
>  <MODEL>
1

>  <REMARK>
 VINA RESULT:      -7.0      0.000      0.000
  Name = 
  18 active torsions:
  status: ('A' for Active; 'I' for Inactive)
    1  A    between atoms: C_2  and  O_38
    2  A    between atoms: C_6  and  C_9
    3  A    between atoms: C_10  and  C_55
    4  A    between atoms: C_12  and  C_47
    5  A    between atoms: C_13  and  C_44
    6  A    between atoms: C_13  and  O_54
    7  A    between atoms: C_14  and  C_29
    8  A    between atoms: P_15  and  O_38
    9  A    between atoms: C_17  and  C_55
   10  A    between atoms: C_17  and  N_60
   11  A    between atoms: C_23  and  C_29
   12  A    between atoms: N_24  and  C_26
   13  A    between atoms: N_24  and  C_34
   14  A    between atoms: N_24  and  C_44
   15  A    between atoms: C_28  and  N_59
   16  A    between atoms: C_31  and  C_47
   17  A    between atoms: C_36  and  N_59
   18  A    between atoms: O_54  and  C_55
                            x       y       z     vdW  Elec       q    Type
                         _______ _______ _______ _____ _____    ______ ____

>  <TORSDO>
F 18

$$$$
=
 OpenBabel11052411133D

 60 65  0  0  1  0  0  0  0  0999 V2000
  160.9850  210.9150  151.5310 C   0  0  1  0  0  3  0  0  0  0  0  0
  161.3140  211.8310  149.2600 C   0  0  0  0  0  0  0  0  0  0  0  0
  160.8180  211.2410  146.9750 C   0  0  0  0  0  1  0  0  0  0  0  0
  161.8210  211.4700  150.4110 C   0  0  0  0  0  3  0  0  0  0  0  0
  160.8150  212.1960  148.1120 C   0  0  0  0  0  0  0  0  0  0  0  0
  160.3710  213.6040  147.8850 C   0  0  0  0  0  2  0  0  0  0  0  0
  159.8770  213.8130  146.4900 C   0  0  0  0  0  0  0  0  0  0  0  0
  160.7670  213.9860  145.4220 C   0  0  0  0  0  3  0  0  0  0  0  0
  160.2860  214.2400  144.1330 C   0  0  0  0  0  0  0  0  0  0  0  0
  158.8970  214.2740  143.9050 C   0  0  0  0  0  0  0  0  0  0  0  0
  158.5000  213.8660  146.2580 C   0  0  0  0  0  3  0  0  0  0  0  0
  158.3970  214.4410  142.6580 F   0  0  0  0  0  0  0  0  0  0  0  0
  158.0110  214.0900  144.9690 C   0  0  0  0  0  3  0  0  0  0  0  0
  161.2280  214.4330  143.0700 N   0  0  0  0  0  2  0  0  0  0  0  0
  162.2050  211.4140  141.0650 C   0  0  0  0  0  3  0  0  0  0  0  0
  161.0300  212.9810  139.6440 C   0  0  0  0  0  0  0  0  0  0  0  0
  160.9080  213.8680  140.7160 C   0  0  0  0  0  3  0  0  0  0  0  0
  161.6780  211.7550  139.8170 C   0  0  0  0  0  3  0  0  0  0  0  0
  161.4370  213.5370  141.9680 C   0  0  0  0  0  0  0  0  0  0  0  0
  160.4670  213.3160  138.3860 N   0  0  0  0  0  1  0  0  0  0  0  0
  162.0780  212.2990  142.1400 C   0  0  0  0  0  3  0  0  0  0  0  0
  161.7190  209.7970  152.2800 C   0  0  2  0  0  3  0  0  0  0  0  0
  163.0180  210.1880  152.6240 O   0  0  0  0  0  1  0  0  0  0  0  0
  161.4370  203.7510  150.2750 C   0  0  0  0  0  0  0  0  0  0  0  0
  161.2000  207.4000  152.1430 N   0  0  0  0  0  0  0  0  0  0  0  0
  162.2630  207.3360  149.5240 C   0  0  0  0  0  0  0  0  0  0  0  0
  161.3530  206.2300  150.0040 C   0  0  1  0  0  3  0  0  0  0  0  0
  160.3380  202.7710  152.2390 F   0  0  0  0  0  0  0  0  0  0  0  0
  160.6090  205.0780  152.1690 C   0  0  0  0  0  3  0  0  0  0  0  0
  161.7640  204.8470  149.5660 C   0  0  0  0  0  3  0  0  0  0  0  0
  160.7570  203.8820  151.5840 C   0  0  0  0  0  0  0  0  0  0  0  0
  162.3550  208.4590  150.2360 C   0  0  0  0  0  3  0  0  0  0  0  0
  161.0710  206.2880  151.4870 C   0  0  0  0  0  0  0  0  0  0  0  0
  161.7400  208.5450  151.5320 N   0  0  0  0  0  0  0  0  0  0  0  0
  161.7450  202.4620  149.8190 O   0  0  0  0  0  0  0  0  0  0  0  0
  160.7820  201.5820  148.6900 P   0  0  0  0  0  0  0  0  0  0  0  0
  160.6410  202.4710  147.2600 O   0  0  0  0  0  0  0  0  0  0  0  0
  159.2440  201.3300  149.3500 O   0  0  0  0  0  1  0  0  0  0  0  0
  161.4280  200.2490  148.3940 O   0  0  0  0  0  1  0  0  0  0  0  0
  162.8840  207.3060  148.1630 C   0  0  0  0  0  2  0  0  0  0  0  0
  159.9210  206.2550  146.0230 C   0  0  0  0  0  3  0  0  0  0  0  0
  160.6840  206.9130  146.9940 C   0  0  0  0  0  3  0  0  0  0  0  0
  162.0350  206.5850  147.1640 C   0  0  0  0  0  0  0  0  0  0  0  0
  160.5100  205.2780  145.2090 C   0  0  0  0  0  3  0  0  0  0  0  0
  162.6260  205.6180  146.3350 C   0  0  0  0  0  3  0  0  0  0  0  0
  161.8620  204.9630  145.3630 C   0  0  0  0  0  3  0  0  0  0  0  0
  160.5250  211.9170  152.4050 O   0  0  0  0  0  0  0  0  0  0  0  0
  159.2280  212.2030  151.9620 C   0  0  2  0  0  3  0  0  0  0  0  0
  159.1470  213.5510  151.6100 O   0  0  0  0  0  1  0  0  0  0  0  0
  158.2400  211.9270  153.0850 C   0  0  0  0  0  2  0  0  0  0  0  0
  158.8060  212.3150  154.3690 N   0  0  0  0  0  0  0  0  0  0  0  0
  161.3950  210.3890  156.1480 C   0  0  0  0  0  0  0  0  0  0  0  0
  160.1590  209.2760  156.3730 S   0  0  0  0  0  0  0  0  0  0  0  0
  159.5290  211.3420  155.1460 C   0  0  0  0  0  0  0  0  0  0  0  0
  158.9500  210.1500  155.5930 C   0  0  0  0  0  3  0  0  0  0  0  0
  160.8970  211.4800  155.4550 C   0  0  0  0  0  3  0  0  0  0  0  0
  162.8140  210.1980  156.5590 C   0  0  0  0  0  2  0  0  0  0  0  0
  163.4000  211.4230  156.8250 F   0  0  0  0  0  0  0  0  0  0  0  0
  158.2580  213.5070  155.0150 C   0  0  0  0  0  2  0  0  0  0  0  0
  156.8600  213.4320  155.0490 O   0  0  0  0  0  1  0  0  0  0  0  0
  1  4  1  6  0  0  0
  1 22  1  0  0  0  0
  1 47  1  0  0  0  0
  2  4  2  0  0  0  0
  3  5  1  0  0  0  0
  5  2  2  0  0  0  0
  6  5  1  0  0  0  0
  7  6  1  0  0  0  0
  8  7  2  0  0  0  0
  9  8  1  0  0  0  0
 10  9  2  0  0  0  0
 10 13  1  0  0  0  0
 11  7  1  0  0  0  0
 12 10  1  0  0  0  0
 13 11  2  0  0  0  0
 14  9  1  0  0  0  0
 15 21  1  0  0  0  0
 16 18  1  0  0  0  0
 16 17  2  0  0  0  0
 17 19  1  0  0  0  0
 18 15  2  0  0  0  0
 19 21  2  0  0  0  0
 19 14  1  0  0  0  0
 20 16  1  0  0  0  0
 22 23  1  6  0  0  0
 24 31  1  0  0  0  0
 26 27  1  0  0  0  0
 26 32  2  0  0  0  0
 27 30  1  1  0  0  0
 27 33  1  0  0  0  0
 30 24  2  0  0  0  0
 31 29  2  0  0  0  0
 31 28  1  0  0  0  0
 32 34  1  0  0  0  0
 33 25  2  0  0  0  0
 33 29  1  0  0  0  0
 34 25  1  0  0  0  0
 34 22  1  0  0  0  0
 35 24  1  0  0  0  0
 36 38  1  0  0  0  0
 36 35  1  0  0  0  0
 37 36  2  0  0  0  0
 39 36  1  0  0  0  0
 40 26  1  0  0  0  0
 41 42  1  0  0  0  0
 42 43  2  0  0  0  0
 43 40  1  0  0  0  0
 44 46  1  0  0  0  0
 44 41  2  0  0  0  0
 45 43  1  0  0  0  0
 46 45  2  0  0  0  0
 48 49  1  1  0  0  0
 48 47  1  0  0  0  0
 48 50  1  0  0  0  0
 50 51  1  0  0  0  0
 51 59  1  0  0  0  0
 51 54  1  0  0  0  0
 52 53  1  0  0  0  0
 52 57  1  0  0  0  0
 54 56  1  0  0  0  0
 54 55  2  0  0  0  0
 55 53  1  0  0  0  0
 56 52  2  0  0  0  0
 57 58  1  0  0  0  0
 59 60  1  0  0  0  0
M  END
>  <MODEL>
2

>  <REMARK>
 VINA RESULT:      -6.3      2.597      3.913
  Name = 
  18 active torsions:
  status: ('A' for Active; 'I' for Inactive)
    1  A    between atoms: C_2  and  O_38
    2  A    between atoms: C_6  and  C_9
    3  A    between atoms: C_10  and  C_55
    4  A    between atoms: C_12  and  C_47
    5  A    between atoms: C_13  and  C_44
    6  A    between atoms: C_13  and  O_54
    7  A    between atoms: C_14  and  C_29
    8  A    between atoms: P_15  and  O_38
    9  A    between atoms: C_17  and  C_55
   10  A    between atoms: C_17  and  N_60
   11  A    between atoms: C_23  and  C_29
   12  A    between atoms: N_24  and  C_26
   13  A    between atoms: N_24  and  C_34
   14  A    between atoms: N_24  and  C_44
   15  A    between atoms: C_28  and  N_59
   16  A    between atoms: C_31  and  C_47
   17  A    between atoms: C_36  and  N_59
   18  A    between atoms: O_54  and  C_55
                            x       y       z     vdW  Elec       q    Type
                         _______ _______ _______ _____ _____    ______ ____

>  <TORSDO>
F 18

$$$$
=
 OpenBabel11052411133D

 60 65  0  0  1  0  0  0  0  0999 V2000
  160.3920  210.1280  151.8690 C   0  0  1  0  0  3  0  0  0  0  0  0
  161.5190  211.7670  150.4020 C   0  0  0  0  0  0  0  0  0  0  0  0
  162.6740  211.8160  148.2860 C   0  0  0  0  0  1  0  0  0  0  0  0
  161.3930  211.2140  151.5810 C   0  0  0  0  0  3  0  0  0  0  0  0
  161.6480  212.3250  149.2300 C   0  0  0  0  0  0  0  0  0  0  0  0
  160.8760  213.5550  148.8810 C   0  0  0  0  0  2  0  0  0  0  0  0
  159.6840  213.2420  148.0360 C   0  0  0  0  0  0  0  0  0  0  0  0
  159.8240  212.8410  146.7010 C   0  0  0  0  0  3  0  0  0  0  0  0
  158.6940  212.6100  145.9080 C   0  0  0  0  0  0  0  0  0  0  0  0
  157.4110  212.7360  146.4750 C   0  0  0  0  0  0  0  0  0  0  0  0
  158.4060  213.3810  148.5850 C   0  0  0  0  0  3  0  0  0  0  0  0
  156.2990  212.4470  145.7590 F   0  0  0  0  0  0  0  0  0  0  0  0
  157.2740  213.1240  147.8100 C   0  0  0  0  0  3  0  0  0  0  0  0
  158.8780  212.2230  144.5410 N   0  0  0  0  0  2  0  0  0  0  0  0
  162.4410  212.9820  143.6350 C   0  0  0  0  0  3  0  0  0  0  0  0
  161.4030  211.7300  141.8440 C   0  0  0  0  0  0  0  0  0  0  0  0
  160.1980  211.7100  142.5520 C   0  0  0  0  0  3  0  0  0  0  0  0
  162.5240  212.3660  142.3850 C   0  0  0  0  0  3  0  0  0  0  0  0
  160.1050  212.3280  143.8030 C   0  0  0  0  0  0  0  0  0  0  0  0
  161.4930  211.0770  140.5880 N   0  0  0  0  0  1  0  0  0  0  0  0
  161.2380  212.9570  144.3460 C   0  0  0  0  0  3  0  0  0  0  0  0
  161.0670  208.8860  152.4630 C   0  0  2  0  0  3  0  0  0  0  0  0
  162.3030  209.2070  153.0350 O   0  0  0  0  0  1  0  0  0  0  0  0
  161.4440  203.3440  149.3320 C   0  0  0  0  0  0  0  0  0  0  0  0
  160.8310  206.5140  151.8690 N   0  0  0  0  0  0  0  0  0  0  0  0
  161.8190  207.0790  149.2820 C   0  0  0  0  0  0  0  0  0  0  0  0
  161.0600  205.8010  149.5440 C   0  0  1  0  0  3  0  0  0  0  0  0
  160.5240  201.8820  151.0760 F   0  0  0  0  0  0  0  0  0  0  0  0
  160.5190  204.1750  151.4510 C   0  0  0  0  0  3  0  0  0  0  0  0
  161.6190  204.5870  148.8460 C   0  0  0  0  0  3  0  0  0  0  0  0
  160.7910  203.1400  150.6460 C   0  0  0  0  0  0  0  0  0  0  0  0
  161.7980  208.0490  150.1970 C   0  0  0  0  0  3  0  0  0  0  0  0
  160.8150  205.5400  151.0120 C   0  0  0  0  0  0  0  0  0  0  0  0
  161.2130  207.8120  151.4870 N   0  0  0  0  0  0  0  0  0  0  0  0
  161.8890  202.2130  148.6350 O   0  0  0  0  0  0  0  0  0  0  0  0
  160.8610  201.1880  147.7030 P   0  0  0  0  0  0  0  0  0  0  0  0
  160.7010  201.8220  146.1440 O   0  0  0  0  0  0  0  0  0  0  0  0
  159.3380  201.1100  148.4390 O   0  0  0  0  0  1  0  0  0  0  0  0
  161.4540  199.8000  147.6240 O   0  0  0  0  0  1  0  0  0  0  0  0
  162.4010  207.3850  147.9370 C   0  0  0  0  0  2  0  0  0  0  0  0
  160.0050  205.9420  145.3600 C   0  0  0  0  0  3  0  0  0  0  0  0
  160.5110  206.7260  146.4020 C   0  0  0  0  0  3  0  0  0  0  0  0
  161.8210  206.5280  146.8570 C   0  0  0  0  0  0  0  0  0  0  0  0
  160.8130  204.9670  144.7590 C   0  0  0  0  0  3  0  0  0  0  0  0
  162.6320  205.5620  146.2400 C   0  0  0  0  0  3  0  0  0  0  0  0
  162.1260  204.7800  145.1960 C   0  0  0  0  0  3  0  0  0  0  0  0
  159.3260  210.5780  152.6680 O   0  0  0  0  0  0  0  0  0  0  0  0
  159.7890  211.7710  153.2350 C   0  0  2  0  0  3  0  0  0  0  0  0
  161.0640  211.5650  153.7650 O   0  0  0  0  0  1  0  0  0  0  0  0
  158.8520  212.1930  154.3570 C   0  0  0  0  0  2  0  0  0  0  0  0
  159.5330  212.1240  155.6420 N   0  0  0  0  0  0  0  0  0  0  0  0
  160.2590  208.5970  156.4210 C   0  0  0  0  0  0  0  0  0  0  0  0
  161.6630  209.2210  157.0950 S   0  0  0  0  0  0  0  0  0  0  0  0
  160.1440  210.8880  156.0540 C   0  0  0  0  0  0  0  0  0  0  0  0
  161.3710  210.8360  156.7230 C   0  0  0  0  0  3  0  0  0  0  0  0
  159.5180  209.6370  155.8830 C   0  0  0  0  0  3  0  0  0  0  0  0
  159.8410  207.1680  156.4640 C   0  0  0  0  0  2  0  0  0  0  0  0
  160.2650  206.5150  155.3200 F   0  0  0  0  0  0  0  0  0  0  0  0
  159.1980  213.1430  156.6370 C   0  0  0  0  0  2  0  0  0  0  0  0
  160.3640  213.6040  157.2610 O   0  0  0  0  0  1  0  0  0  0  0  0
  1  4  1  1  0  0  0
  1 22  1  0  0  0  0
  1 47  1  0  0  0  0
  2  4  2  0  0  0  0
  3  5  1  0  0  0  0
  5  2  2  0  0  0  0
  6  5  1  0  0  0  0
  7 11  1  0  0  0  0
  7  6  1  0  0  0  0
  8  7  2  0  0  0  0
  9 10  2  0  0  0  0
  9  8  1  0  0  0  0
 10 13  1  0  0  0  0
 12 10  1  0  0  0  0
 13 11  2  0  0  0  0
 14  9  1  0  0  0  0
 15 21  1  0  0  0  0
 16 18  1  0  0  0  0
 16 17  2  0  0  0  0
 17 19  1  0  0  0  0
 18 15  2  0  0  0  0
 19 21  2  0  0  0  0
 19 14  1  0  0  0  0
 20 16  1  0  0  0  0
 22 23  1  6  0  0  0
 24 31  1  0  0  0  0
 26 27  1  0  0  0  0
 26 32  2  0  0  0  0
 27 30  1  1  0  0  0
 27 33  1  0  0  0  0
 30 24  2  0  0  0  0
 31 28  1  0  0  0  0
 31 29  2  0  0  0  0
 32 34  1  0  0  0  0
 33 29  1  0  0  0  0
 33 25  2  0  0  0  0
 34 25  1  0  0  0  0
 34 22  1  0  0  0  0
 35 24  1  0  0  0  0
 36 38  1  0  0  0  0
 36 35  1  0  0  0  0
 37 36  2  0  0  0  0
 39 36  1  0  0  0  0
 40 26  1  0  0  0  0
 41 42  1  0  0  0  0
 42 43  2  0  0  0  0
 43 40  1  0  0  0  0
 44 46  1  0  0  0  0
 44 41  2  0  0  0  0
 45 43  1  0  0  0  0
 46 45  2  0  0  0  0
 47 48  1  0  0  0  0
 48 49  1  1  0  0  0
 48 50  1  0  0  0  0
 50 51  1  0  0  0  0
 51 54  1  0  0  0  0
 51 59  1  0  0  0  0
 52 57  1  0  0  0  0
 52 53  1  0  0  0  0
 54 55  2  0  0  0  0
 55 53  1  0  0  0  0
 56 54  1  0  0  0  0
 56 52  2  0  0  0  0
 58 57  1  0  0  0  0
 59 60  1  0  0  0  0
M  END
>  <MODEL>
3

>  <REMARK>
 VINA RESULT:      -6.2      1.950      2.995
  Name = 
  18 active torsions:
  status: ('A' for Active; 'I' for Inactive)
    1  A    between atoms: C_2  and  O_38
    2  A    between atoms: C_6  and  C_9
    3  A    between atoms: C_10  and  C_55
    4  A    between atoms: C_12  and  C_47
    5  A    between atoms: C_13  and  C_44
    6  A    between atoms: C_13  and  O_54
    7  A    between atoms: C_14  and  C_29
    8  A    between atoms: P_15  and  O_38
    9  A    between atoms: C_17  and  C_55
   10  A    between atoms: C_17  and  N_60
   11  A    between atoms: C_23  and  C_29
   12  A    between atoms: N_24  and  C_26
   13  A    between atoms: N_24  and  C_34
   14  A    between atoms: N_24  and  C_44
   15  A    between atoms: C_28  and  N_59
   16  A    between atoms: C_31  and  C_47
   17  A    between atoms: C_36  and  N_59
   18  A    between atoms: O_54  and  C_55
                            x       y       z     vdW  Elec       q    Type
                         _______ _______ _______ _____ _____    ______ ____

>  <TORSDO>
F 18

$$$$
=
 OpenBabel11052411133D

 60 65  0  0  1  0  0  0  0  0999 V2000
  162.0700  209.8320  148.7300 C   0  0  1  0  0  3  0  0  0  0  0  0
  161.1030  211.6580  147.3760 C   0  0  0  0  0  0  0  0  0  0  0  0
  160.1360  213.8420  147.7010 C   0  0  0  0  0  1  0  0  0  0  0  0
  161.1180  210.3930  147.7110 C   0  0  0  0  0  3  0  0  0  0  0  0
  161.0850  212.9160  147.0350 C   0  0  0  0  0  0  0  0  0  0  0  0
  161.9050  213.4080  145.8870 C   0  0  0  0  0  2  0  0  0  0  0  0
  161.3020  213.0330  144.5720 C   0  0  0  0  0  0  0  0  0  0  0  0
  162.1020  212.6520  143.4870 C   0  0  0  0  0  3  0  0  0  0  0  0
  161.5210  212.3630  142.2470 C   0  0  0  0  0  0  0  0  0  0  0  0
  160.1210  212.4110  142.1070 C   0  0  0  0  0  0  0  0  0  0  0  0
  159.9140  213.0950  144.4200 C   0  0  0  0  0  3  0  0  0  0  0  0
  159.5220  212.0640  140.9440 F   0  0  0  0  0  0  0  0  0  0  0  0
  159.3250  212.7800  143.1940 C   0  0  0  0  0  3  0  0  0  0  0  0
  162.3750  211.9980  141.1550 N   0  0  0  0  0  2  0  0  0  0  0  0
  161.5410  210.6700  137.7440 C   0  0  0  0  0  3  0  0  0  0  0  0
  161.7290  208.8290  139.3030 C   0  0  0  0  0  0  0  0  0  0  0  0
  161.9910  209.7280  140.3390 C   0  0  0  0  0  3  0  0  0  0  0  0
  161.5030  209.2990  138.0060 C   0  0  0  0  0  3  0  0  0  0  0  0
  162.0260  211.1040  140.0870 C   0  0  0  0  0  0  0  0  0  0  0  0
  161.7230  207.4350  139.5650 N   0  0  0  0  0  1  0  0  0  0  0  0
  161.8090  211.5700  138.7800 C   0  0  0  0  0  3  0  0  0  0  0  0
  162.4620  210.8850  149.7730 C   0  0  2  0  0  3  0  0  0  0  0  0
  163.7820  210.7040  150.2030 O   0  0  0  0  0  1  0  0  0  0  0  0
  158.1740  212.3230  154.2670 C   0  0  0  0  0  0  0  0  0  0  0  0
  160.6190  211.9630  150.9880 N   0  0  0  0  0  0  0  0  0  0  0  0
  160.7220  209.9110  152.9300 C   0  0  0  0  0  0  0  0  0  0  0  0
  159.4980  210.7870  152.8120 C   0  0  1  0  0  3  0  0  0  0  0  0
  157.2610  214.3640  153.2540 F   0  0  0  0  0  0  0  0  0  0  0  0
  158.8070  213.1310  152.0350 C   0  0  0  0  0  3  0  0  0  0  0  0
  158.8870  211.1900  154.1310 C   0  0  0  0  0  3  0  0  0  0  0  0
  158.0670  213.2800  153.1410 C   0  0  0  0  0  0  0  0  0  0  0  0
  161.6360  209.9360  151.9600 C   0  0  0  0  0  3  0  0  0  0  0  0
  159.6970  211.9760  151.9010 C   0  0  0  0  0  0  0  0  0  0  0  0
  161.5490  210.9110  150.9090 N   0  0  0  0  0  0  0  0  0  0  0  0
  157.5340  212.6490  155.4700 O   0  0  0  0  0  0  0  0  0  0  0  0
  155.8940  212.2540  155.8290 P   0  0  0  0  0  0  0  0  0  0  0  0
  155.3710  211.0300  154.7880 O   0  0  0  0  0  0  0  0  0  0  0  0
  154.9310  213.6290  155.6120 O   0  0  0  0  0  1  0  0  0  0  0  0
  155.7820  211.7810  157.2600 O   0  0  0  0  0  1  0  0  0  0  0  0
  160.8290  208.8510  153.9810 C   0  0  0  0  0  2  0  0  0  0  0  0
  161.0710  205.9910  151.4860 C   0  0  0  0  0  3  0  0  0  0  0  0
  160.9260  207.2800  152.0100 C   0  0  0  0  0  3  0  0  0  0  0  0
  160.9340  207.4780  153.3980 C   0  0  0  0  0  0  0  0  0  0  0  0
  161.2390  204.8980  152.3470 C   0  0  0  0  0  3  0  0  0  0  0  0
  161.1210  206.3820  154.2550 C   0  0  0  0  0  3  0  0  0  0  0  0
  161.2670  205.0940  153.7300 C   0  0  0  0  0  3  0  0  0  0  0  0
  161.5850  208.6560  149.3300 O   0  0  0  0  0  0  0  0  0  0  0  0
  161.2720  207.8150  148.2560 C   0  0  2  0  0  3  0  0  0  0  0  0
  160.0510  207.1850  148.5030 O   0  0  0  0  0  1  0  0  0  0  0  0
  162.3530  206.7540  148.1140 C   0  0  0  0  0  2  0  0  0  0  0  0
  162.0290  205.8390  147.0290 N   0  0  0  0  0  0  0  0  0  0  0  0
  161.0620  202.7090  148.7140 C   0  0  0  0  0  0  0  0  0  0  0  0
  161.0070  202.0950  147.1530 S   0  0  0  0  0  0  0  0  0  0  0  0
  161.5990  204.5000  147.3370 C   0  0  0  0  0  0  0  0  0  0  0  0
  161.4150  203.5200  146.3570 C   0  0  0  0  0  3  0  0  0  0  0  0
  161.4030  204.0500  148.6580 C   0  0  0  0  0  3  0  0  0  0  0  0
  160.8560  201.9180  149.9600 C   0  0  0  0  0  2  0  0  0  0  0  0
  159.9610  202.5700  150.7910 F   0  0  0  0  0  0  0  0  0  0  0  0
  162.5630  206.1490  145.7030 C   0  0  0  0  0  2  0  0  0  0  0  0
  161.6730  205.7140  144.7140 O   0  0  0  0  0  1  0  0  0  0  0  0
  1  4  1  6  0  0  0
  1 47  1  0  0  0  0
  1 22  1  0  0  0  0
  2  4  2  0  0  0  0
  5  2  2  0  0  0  0
  5  3  1  0  0  0  0
  6  5  1  0  0  0  0
  7  6  1  0  0  0  0
  8  7  2  0  0  0  0
  9  8  1  0  0  0  0
 10  9  2  0  0  0  0
 10 13  1  0  0  0  0
 11  7  1  0  0  0  0
 12 10  1  0  0  0  0
 13 11  2  0  0  0  0
 14  9  1  0  0  0  0
 15 18  2  0  0  0  0
 15 21  1  0  0  0  0
 16 20  1  0  0  0  0
 16 17  2  0  0  0  0
 18 16  1  0  0  0  0
 19 17  1  0  0  0  0
 19 14  1  0  0  0  0
 21 19  2  0  0  0  0
 22 23  1  1  0  0  0
 22 34  1  0  0  0  0
 24 35  1  0  0  0  0
 25 33  2  0  0  0  0
 26 40  1  0  0  0  0
 27 26  1  0  0  0  0
 27 30  1  1  0  0  0
 29 31  2  0  0  0  0
 30 24  2  0  0  0  0
 31 28  1  0  0  0  0
 31 24  1  0  0  0  0
 32 26  2  0  0  0  0
 33 29  1  0  0  0  0
 33 27  1  0  0  0  0
 34 25  1  0  0  0  0
 34 32  1  0  0  0  0
 35 36  1  0  0  0  0
 36 39  1  0  0  0  0
 37 36  2  0  0  0  0
 38 36  1  0  0  0  0
 41 42  2  0  0  0  0
 41 44  1  0  0  0  0
 42 43  1  0  0  0  0
 43 40  1  0  0  0  0
 43 45  2  0  0  0  0
 44 46  2  0  0  0  0
 46 45  1  0  0  0  0
 48 49  1  1  0  0  0
 48 47  1  0  0  0  0
 50 48  1  0  0  0  0
 51 54  1  0  0  0  0
 51 50  1  0  0  0  0
 52 57  1  0  0  0  0
 53 52  1  0  0  0  0
 54 56  1  0  0  0  0
 55 53  1  0  0  0  0
 55 54  2  0  0  0  0
 56 52  2  0  0  0  0
 57 58  1  0  0  0  0
 59 51  1  0  0  0  0
 60 59  1  0  0  0  0
M  END
>  <MODEL>
4

>  <REMARK>
 VINA RESULT:      -5.6      4.395      9.198
  Name = 
  18 active torsions:
  status: ('A' for Active; 'I' for Inactive)
    1  A    between atoms: C_2  and  O_38
    2  A    between atoms: C_6  and  C_9
    3  A    between atoms: C_10  and  C_55
    4  A    between atoms: C_12  and  C_47
    5  A    between atoms: C_13  and  C_44
    6  A    between atoms: C_13  and  O_54
    7  A    between atoms: C_14  and  C_29
    8  A    between atoms: P_15  and  O_38
    9  A    between atoms: C_17  and  C_55
   10  A    between atoms: C_17  and  N_60
   11  A    between atoms: C_23  and  C_29
   12  A    between atoms: N_24  and  C_26
   13  A    between atoms: N_24  and  C_34
   14  A    between atoms: N_24  and  C_44
   15  A    between atoms: C_28  and  N_59
   16  A    between atoms: C_31  and  C_47
   17  A    between atoms: C_36  and  N_59
   18  A    between atoms: O_54  and  C_55
                            x       y       z     vdW  Elec       q    Type
                         _______ _______ _______ _____ _____    ______ ____

>  <TORSDO>
F 18

$$$$
=
 OpenBabel11052411133D

 60 65  0  0  1  0  0  0  0  0999 V2000
  160.8180  207.0980  153.8960 C   0  0  1  0  0  3  0  0  0  0  0  0
  160.6850  209.0210  152.3510 C   0  0  0  0  0  0  0  0  0  0  0  0
  160.2700  211.3950  152.4370 C   0  0  0  0  0  1  0  0  0  0  0  0
  160.2950  207.8170  152.6830 C   0  0  0  0  0  3  0  0  0  0  0  0
  161.0700  210.2200  152.0120 C   0  0  0  0  0  0  0  0  0  0  0  0
  162.2250  210.4170  151.0840 C   0  0  0  0  0  2  0  0  0  0  0  0
  161.8740  211.3160  149.9440 C   0  0  0  0  0  0  0  0  0  0  0  0
  161.0530  212.4360  150.1270 C   0  0  0  0  0  3  0  0  0  0  0  0
  160.6870  213.2320  149.0350 C   0  0  0  0  0  0  0  0  0  0  0  0
  161.1900  212.9290  147.7560 C   0  0  0  0  0  0  0  0  0  0  0  0
  162.3540  211.0120  148.6670 C   0  0  0  0  0  3  0  0  0  0  0  0
  160.9180  213.7210  146.6920 F   0  0  0  0  0  0  0  0  0  0  0  0
  162.0180  211.8180  147.5780 C   0  0  0  0  0  3  0  0  0  0  0  0
  159.8270  214.3570  149.2590 N   0  0  0  0  0  2  0  0  0  0  0  0
  156.3920  214.0960  147.7690 C   0  0  0  0  0  3  0  0  0  0  0  0
  156.2120  214.3780  150.1650 C   0  0  0  0  0  0  0  0  0  0  0  0
  157.6040  214.4530  150.2650 C   0  0  0  0  0  3  0  0  0  0  0  0
  155.6060  214.2000  148.9190 C   0  0  0  0  0  3  0  0  0  0  0  0
  158.3980  214.3550  149.1180 C   0  0  0  0  0  0  0  0  0  0  0  0
  155.4180  214.4520  151.3390 N   0  0  0  0  0  1  0  0  0  0  0  0
  157.7840  214.1650  147.8690 C   0  0  0  0  0  3  0  0  0  0  0  0
  161.7360  205.9340  153.5070 C   0  0  2  0  0  3  0  0  0  0  0  0
  163.0760  206.2340  153.7810 O   0  0  0  0  0  1  0  0  0  0  0  0
  161.0940  202.8600  147.9580 C   0  0  0  0  0  0  0  0  0  0  0  0
  161.3060  204.1820  151.8400 N   0  0  0  0  0  0  0  0  0  0  0  0
  161.4790  206.1170  149.7860 C   0  0  0  0  0  0  0  0  0  0  0  0
  160.8190  204.7840  149.5230 C   0  0  1  0  0  3  0  0  0  0  0  0
  160.7240  200.5990  148.8390 F   0  0  0  0  0  0  0  0  0  0  0  0
  160.8570  202.3580  150.3510 C   0  0  0  0  0  3  0  0  0  0  0  0
  161.1290  204.1880  148.1740 C   0  0  0  0  0  3  0  0  0  0  0  0
  160.8630  201.9260  149.0840 C   0  0  0  0  0  0  0  0  0  0  0  0
  161.7440  206.4760  151.0430 C   0  0  0  0  0  3  0  0  0  0  0  0
  161.0230  203.7840  150.6380 C   0  0  0  0  0  0  0  0  0  0  0  0
  161.5710  205.5350  152.1150 N   0  0  0  0  0  0  0  0  0  0  0  0
  161.2960  202.3170  146.6830 O   0  0  0  0  0  0  0  0  0  0  0  0
  160.1030  201.4230  145.8140 P   0  0  0  0  0  0  0  0  0  0  0  0
  159.6910  202.2610  144.4050 O   0  0  0  0  0  0  0  0  0  0  0  0
  158.7280  201.2430  146.7850 O   0  0  0  0  0  1  0  0  0  0  0  0
  160.6460  200.0610  145.4500 O   0  0  0  0  0  1  0  0  0  0  0  0
  161.6330  207.1420  148.7070 C   0  0  0  0  0  2  0  0  0  0  0  0
  160.3470  206.0620  145.2950 C   0  0  0  0  0  3  0  0  0  0  0  0
  160.3770  206.5870  146.5910 C   0  0  0  0  0  3  0  0  0  0  0  0
  161.5620  206.5450  147.3380 C   0  0  0  0  0  0  0  0  0  0  0  0
  161.5060  205.5050  144.7360 C   0  0  0  0  0  3  0  0  0  0  0  0
  162.7250  206.0030  146.7670 C   0  0  0  0  0  3  0  0  0  0  0  0
  162.6940  205.4800  145.4700 C   0  0  0  0  0  3  0  0  0  0  0  0
  161.4350  207.9690  154.8120 O   0  0  0  0  0  0  0  0  0  0  0  0
  160.7250  207.7880  156.0040 C   0  0  2  0  0  3  0  0  0  0  0  0
  159.9950  206.6000  155.9310 O   0  0  0  0  0  1  0  0  0  0  0  0
  159.7580  208.9470  156.1970 C   0  0  0  0  0  2  0  0  0  0  0  0
  160.4450  210.0920  156.7780 N   0  0  0  0  0  0  0  0  0  0  0  0
  158.5960  213.0420  155.5750 C   0  0  0  0  0  0  0  0  0  0  0  0
  159.5600  213.8710  156.6710 S   0  0  0  0  0  0  0  0  0  0  0  0
  159.9090  211.4130  156.5830 C   0  0  0  0  0  0  0  0  0  0  0  0
  160.3960  212.5350  157.2610 C   0  0  0  0  0  3  0  0  0  0  0  0
  158.9010  211.6930  155.6390 C   0  0  0  0  0  3  0  0  0  0  0  0
  157.6270  213.6680  154.6330 C   0  0  0  0  0  2  0  0  0  0  0  0
  158.1430  213.6640  153.3490 F   0  0  0  0  0  0  0  0  0  0  0  0
  161.8510  209.9190  157.1440 C   0  0  0  0  0  2  0  0  0  0  0  0
  162.6710  210.2260  156.0510 O   0  0  0  0  0  1  0  0  0  0  0  0
  1  4  1  6  0  0  0
  1 47  1  0  0  0  0
  2  4  2  0  0  0  0
  5  2  2  0  0  0  0
  5  3  1  0  0  0  0
  6  5  1  0  0  0  0
  7  8  1  0  0  0  0
  7  6  1  0  0  0  0
  9 14  1  0  0  0  0
  9  8  2  0  0  0  0
 10  9  1  0  0  0  0
 11  7  2  0  0  0  0
 12 10  1  0  0  0  0
 13 10  2  0  0  0  0
 13 11  1  0  0  0  0
 15 21  2  0  0  0  0
 15 18  1  0  0  0  0
 16 17  1  0  0  0  0
 16 20  1  0  0  0  0
 18 16  2  0  0  0  0
 19 14  1  0  0  0  0
 19 17  2  0  0  0  0
 21 19  1  0  0  0  0
 22 23  1  6  0  0  0
 22  1  1  0  0  0  0
 24 30  2  0  0  0  0
 24 31  1  0  0  0  0
 25 34  1  0  0  0  0
 26 32  2  0  0  0  0
 27 30  1  6  0  0  0
 27 26  1  0  0  0  0
 27 33  1  0  0  0  0
 28 31  1  0  0  0  0
 29 33  1  0  0  0  0
 31 29  2  0  0  0  0
 32 34  1  0  0  0  0
 33 25  2  0  0  0  0
 34 22  1  0  0  0  0
 35 24  1  0  0  0  0
 36 35  1  0  0  0  0
 36 38  1  0  0  0  0
 37 36  2  0  0  0  0
 39 36  1  0  0  0  0
 40 26  1  0  0  0  0
 41 42  1  0  0  0  0
 42 43  2  0  0  0  0
 43 40  1  0  0  0  0
 44 41  2  0  0  0  0
 44 46  1  0  0  0  0
 45 43  1  0  0  0  0
 46 45  2  0  0  0  0
 47 48  1  0  0  0  0
 48 49  1  6  0  0  0
 48 50  1  0  0  0  0
 50 51  1  0  0  0  0
 51 59  1  0  0  0  0
 52 56  2  0  0  0  0
 52 53  1  0  0  0  0
 53 55  1  0  0  0  0
 54 51  1  0  0  0  0
 54 55  2  0  0  0  0
 56 54  1  0  0  0  0
 57 52  1  0  0  0  0
 58 57  1  0  0  0  0
 60 59  1  0  0  0  0
M  END
>  <MODEL>
5

>  <REMARK>
 VINA RESULT:      -5.1      1.972      3.172
  Name = 
  18 active torsions:
  status: ('A' for Active; 'I' for Inactive)
    1  A    between atoms: C_2  and  O_38
    2  A    between atoms: C_6  and  C_9
    3  A    between atoms: C_10  and  C_55
    4  A    between atoms: C_12  and  C_47
    5  A    between atoms: C_13  and  C_44
    6  A    between atoms: C_13  and  O_54
    7  A    between atoms: C_14  and  C_29
    8  A    between atoms: P_15  and  O_38
    9  A    between atoms: C_17  and  C_55
   10  A    between atoms: C_17  and  N_60
   11  A    between atoms: C_23  and  C_29
   12  A    between atoms: N_24  and  C_26
   13  A    between atoms: N_24  and  C_34
   14  A    between atoms: N_24  and  C_44
   15  A    between atoms: C_28  and  N_59
   16  A    between atoms: C_31  and  C_47
   17  A    between atoms: C_36  and  N_59
   18  A    between atoms: O_54  and  C_55
                            x       y       z     vdW  Elec       q    Type
                         _______ _______ _______ _____ _____    ______ ____

>  <TORSDO>
F 18

$$$$
=
 OpenBabel11052411133D

 60 65  0  0  1  0  0  0  0  0999 V2000
  160.4550  207.5440  153.7480 C   0  0  1  0  0  3  0  0  0  0  0  0
  159.9370  209.6440  152.5530 C   0  0  0  0  0  0  0  0  0  0  0  0
  158.3950  211.4900  152.7110 C   0  0  0  0  0  1  0  0  0  0  0  0
  160.1120  208.3470  152.5240 C   0  0  0  0  0  3  0  0  0  0  0  0
  159.7650  210.9360  152.5740 C   0  0  0  0  0  0  0  0  0  0  0  0
  160.9080  211.8630  152.3190 C   0  0  0  0  0  2  0  0  0  0  0  0
  161.1380  212.0740  150.8570 C   0  0  0  0  0  0  0  0  0  0  0  0
  160.5910  213.1760  150.1870 C   0  0  0  0  0  3  0  0  0  0  0  0
  160.7670  213.3240  148.8060 C   0  0  0  0  0  0  0  0  0  0  0  0
  161.5400  212.3820  148.1000 C   0  0  0  0  0  0  0  0  0  0  0  0
  161.8890  211.1340  150.1450 C   0  0  0  0  0  3  0  0  0  0  0  0
  161.7940  212.5350  146.7790 F   0  0  0  0  0  0  0  0  0  0  0  0
  162.0940  211.2900  148.7730 C   0  0  0  0  0  3  0  0  0  0  0  0
  160.1730  214.4530  148.1530 N   0  0  0  0  0  2  0  0  0  0  0  0
  156.7870  214.4310  146.5340 C   0  0  0  0  0  3  0  0  0  0  0  0
  158.4980  214.4150  144.8240 C   0  0  0  0  0  0  0  0  0  0  0  0
  159.4880  214.3970  145.8090 C   0  0  0  0  0  3  0  0  0  0  0  0
  157.1480  214.4310  145.1850 C   0  0  0  0  0  3  0  0  0  0  0  0
  159.1350  214.3920  147.1630 C   0  0  0  0  0  0  0  0  0  0  0  0
  158.8690  214.4470  143.4550 N   0  0  0  0  0  1  0  0  0  0  0  0
  157.7770  214.4190  147.5200 C   0  0  0  0  0  3  0  0  0  0  0  0
  161.6300  206.5950  153.4870 C   0  0  2  0  0  3  0  0  0  0  0  0
  162.8550  207.2300  153.7220 O   0  0  0  0  0  1  0  0  0  0  0  0
  161.2930  202.8530  148.3350 C   0  0  0  0  0  0  0  0  0  0  0  0
  161.1760  204.6870  152.0070 N   0  0  0  0  0  0  0  0  0  0  0  0
  161.9000  206.2660  149.7770 C   0  0  0  0  0  0  0  0  0  0  0  0
  161.0950  205.0030  149.5860 C   0  0  1  0  0  3  0  0  0  0  0  0
  160.4850  200.8090  149.4270 F   0  0  0  0  0  0  0  0  0  0  0  0
  160.6690  202.7380  150.7080 C   0  0  0  0  0  3  0  0  0  0  0  0
  161.4920  204.1830  148.3850 C   0  0  0  0  0  3  0  0  0  0  0  0
  160.7810  202.1290  149.5220 C   0  0  0  0  0  0  0  0  0  0  0  0
  162.0450  206.7680  151.0040 C   0  0  0  0  0  3  0  0  0  0  0  0
  161.0010  204.1580  150.8350 C   0  0  0  0  0  0  0  0  0  0  0  0
  161.5960  206.0220  152.1460 N   0  0  0  0  0  0  0  0  0  0  0  0
  161.5820  202.1090  147.1840 O   0  0  0  0  0  0  0  0  0  0  0  0
  160.3880  201.5390  146.0770 P   0  0  0  0  0  0  0  0  0  0  0  0
  158.8970  201.4350  146.8660 O   0  0  0  0  0  1  0  0  0  0  0  0
  160.8360  200.0070  145.5160 O   0  0  0  0  0  1  0  0  0  0  0  0
  160.2750  202.4910  144.9090 O   0  0  0  0  0  0  0  0  0  0  0  0
  162.3430  207.0970  148.6130 C   0  0  0  0  0  2  0  0  0  0  0  0
  162.2600  205.2110  145.3120 C   0  0  0  0  0  3  0  0  0  0  0  0
  162.7300  205.7590  146.5100 C   0  0  0  0  0  3  0  0  0  0  0  0
  161.8800  206.5400  147.3050 C   0  0  0  0  0  0  0  0  0  0  0  0
  160.9360  205.4310  144.9110 C   0  0  0  0  0  3  0  0  0  0  0  0
  160.5490  206.7420  146.9080 C   0  0  0  0  0  3  0  0  0  0  0  0
  160.0800  206.1920  145.7100 C   0  0  0  0  0  3  0  0  0  0  0  0
  160.6760  208.3540  154.8770 O   0  0  0  0  0  0  0  0  0  0  0  0
  160.3570  207.5350  155.9660 C   0  0  2  0  0  3  0  0  0  0  0  0
  159.0240  207.1340  155.8670 O   0  0  0  0  0  1  0  0  0  0  0  0
  160.5390  208.3200  157.2570 C   0  0  0  0  0  2  0  0  0  0  0  0
  161.1690  209.6050  156.9880 N   0  0  0  0  0  0  0  0  0  0  0  0
  158.3640  211.8770  156.2520 C   0  0  0  0  0  0  0  0  0  0  0  0
  159.5810  212.9800  155.9060 S   0  0  0  0  0  0  0  0  0  0  0  0
  160.3470  210.7420  156.6680 C   0  0  0  0  0  0  0  0  0  0  0  0
  160.8800  211.9720  156.2670 C   0  0  0  0  0  3  0  0  0  0  0  0
  158.9390  210.6850  156.6610 C   0  0  0  0  0  3  0  0  0  0  0  0
  156.9050  212.1180  156.0720 C   0  0  0  0  0  2  0  0  0  0  0  0
  156.2380  210.9120  155.9370 F   0  0  0  0  0  0  0  0  0  0  0  0
  162.5840  209.5970  156.6180 C   0  0  0  0  0  2  0  0  0  0  0  0
  163.0720  210.9080  156.5670 O   0  0  0  0  0  1  0  0  0  0  0  0
  1  4  1  6  0  0  0
  1 47  1  0  0  0  0
  2  5  2  0  0  0  0
  4  2  2  0  0  0  0
  5  3  1  0  0  0  0
  6  5  1  0  0  0  0
  7  6  1  0  0  0  0
  8  7  1  0  0  0  0
  9  8  2  0  0  0  0
 10 13  2  0  0  0  0
 10  9  1  0  0  0  0
 11  7  2  0  0  0  0
 12 10  1  0  0  0  0
 13 11  1  0  0  0  0
 14  9  1  0  0  0  0
 15 21  1  0  0  0  0
 16 18  1  0  0  0  0
 16 17  2  0  0  0  0
 17 19  1  0  0  0  0
 18 15  2  0  0  0  0
 19 21  2  0  0  0  0
 19 14  1  0  0  0  0
 20 16  1  0  0  0  0
 22 23  1  6  0  0  0
 22  1  1  0  0  0  0
 24 30  2  0  0  0  0
 24 31  1  0  0  0  0
 25 34  1  0  0  0  0
 26 32  2  0  0  0  0
 27 30  1  6  0  0  0
 27 26  1  0  0  0  0
 27 33  1  0  0  0  0
 28 31  1  0  0  0  0
 29 33  1  0  0  0  0
 31 29  2  0  0  0  0
 32 34  1  0  0  0  0
 33 25  2  0  0  0  0
 34 22  1  0  0  0  0
 35 24  1  0  0  0  0
 36 37  1  0  0  0  0
 36 35  1  0  0  0  0
 38 36  1  0  0  0  0
 39 36  2  0  0  0  0
 40 26  1  0  0  0  0
 41 42  1  0  0  0  0
 42 43  2  0  0  0  0
 43 40  1  0  0  0  0
 44 41  2  0  0  0  0
 44 46  1  0  0  0  0
 45 43  1  0  0  0  0
 46 45  2  0  0  0  0
 47 48  1  0  0  0  0
 48 49  1  6  0  0  0
 48 50  1  0  0  0  0
 51 50  1  0  0  0  0
 52 56  2  0  0  0  0
 53 52  1  0  0  0  0
 53 55  1  0  0  0  0
 54 51  1  0  0  0  0
 55 54  2  0  0  0  0
 56 54  1  0  0  0  0
 57 52  1  0  0  0  0
 58 57  1  0  0  0  0
 59 51  1  0  0  0  0
 60 59  1  0  0  0  0
M  END
>  <MODEL>
6

>  <REMARK>
 VINA RESULT:      -4.4      1.614      2.121
  Name = 
  18 active torsions:
  status: ('A' for Active; 'I' for Inactive)
    1  A    between atoms: C_2  and  O_38
    2  A    between atoms: C_6  and  C_9
    3  A    between atoms: C_10  and  C_55
    4  A    between atoms: C_12  and  C_47
    5  A    between atoms: C_13  and  C_44
    6  A    between atoms: C_13  and  O_54
    7  A    between atoms: C_14  and  C_29
    8  A    between atoms: P_15  and  O_38
    9  A    between atoms: C_17  and  C_55
   10  A    between atoms: C_17  and  N_60
   11  A    between atoms: C_23  and  C_29
   12  A    between atoms: N_24  and  C_26
   13  A    between atoms: N_24  and  C_34
   14  A    between atoms: N_24  and  C_44
   15  A    between atoms: C_28  and  N_59
   16  A    between atoms: C_31  and  C_47
   17  A    between atoms: C_36  and  N_59
   18  A    between atoms: O_54  and  C_55
                            x       y       z     vdW  Elec       q    Type
                         _______ _______ _______ _____ _____    ______ ____

>  <TORSDO>
F 18

$$$$
=
 OpenBabel11052411133D

 60 65  0  0  1  0  0  0  0  0999 V2000
  161.9140  209.1250  148.1410 C   0  0  1  0  0  3  0  0  0  0  0  0
  161.5810  211.5050  147.5680 C   0  0  0  0  0  0  0  0  0  0  0  0
  161.9020  213.6750  148.5670 C   0  0  0  0  0  1  0  0  0  0  0  0
  161.0920  210.2960  147.6800 C   0  0  0  0  0  3  0  0  0  0  0  0
  162.0620  212.7110  147.4500 C   0  0  0  0  0  0  0  0  0  0  0  0
  162.6460  213.1780  146.1570 C   0  0  0  0  0  2  0  0  0  0  0  0
  161.5870  213.4850  145.1480 C   0  0  0  0  0  0  0  0  0  0  0  0
  161.8340  213.3600  143.7750 C   0  0  0  0  0  3  0  0  0  0  0  0
  160.8490  213.7090  142.8440 C   0  0  0  0  0  0  0  0  0  0  0  0
  159.5880  214.1410  143.2970 C   0  0  0  0  0  0  0  0  0  0  0  0
  160.3380  213.9310  145.5890 C   0  0  0  0  0  3  0  0  0  0  0  0
  158.5880  214.4140  142.4260 F   0  0  0  0  0  0  0  0  0  0  0  0
  159.3400  214.2530  144.6670 C   0  0  0  0  0  3  0  0  0  0  0  0
  161.1470  213.5890  141.4470 N   0  0  0  0  0  2  0  0  0  0  0  0
  160.0080  210.4430  139.7460 C   0  0  0  0  0  3  0  0  0  0  0  0
  158.8880  212.3460  138.7560 C   0  0  0  0  0  0  0  0  0  0  0  0
  159.5860  213.2050  139.6080 C   0  0  0  0  0  3  0  0  0  0  0  0
  159.0990  210.9660  138.8240 C   0  0  0  0  0  3  0  0  0  0  0  0
  160.5030  212.6900  140.5310 C   0  0  0  0  0  0  0  0  0  0  0  0
  157.9420  212.8770  137.8420 N   0  0  0  0  0  1  0  0  0  0  0  0
  160.7030  211.3020  140.6030 C   0  0  0  0  0  3  0  0  0  0  0  0
  162.7540  209.4790  149.3740 C   0  0  2  0  0  3  0  0  0  0  0  0
  163.7750  208.5430  149.5760 O   0  0  0  0  0  1  0  0  0  0  0  0
  159.2730  211.5170  154.3130 C   0  0  0  0  0  0  0  0  0  0  0  0
  161.3500  210.8750  150.8290 N   0  0  0  0  0  0  0  0  0  0  0  0
  160.9720  208.6680  152.5540 C   0  0  0  0  0  0  0  0  0  0  0  0
  160.0380  209.8530  152.6180 C   0  0  1  0  0  3  0  0  0  0  0  0
  158.9190  213.8310  153.5730 F   0  0  0  0  0  0  0  0  0  0  0  0
  159.9930  212.3680  152.1230 C   0  0  0  0  0  3  0  0  0  0  0  0
  159.6320  210.2550  154.0130 C   0  0  0  0  0  3  0  0  0  0  0  0
  159.3820  212.5880  153.2940 C   0  0  0  0  0  0  0  0  0  0  0  0
  161.8070  208.5510  151.5210 C   0  0  0  0  0  3  0  0  0  0  0  0
  160.5160  211.0370  151.8100 C   0  0  0  0  0  0  0  0  0  0  0  0
  161.9430  209.6250  150.5770 N   0  0  0  0  0  0  0  0  0  0  0  0
  158.8120  211.8670  155.5880 O   0  0  0  0  0  0  0  0  0  0  0  0
  157.2820  212.6040  155.8930 P   0  0  0  0  0  0  0  0  0  0  0  0
  157.5050  214.2500  156.2070 O   0  0  0  0  0  1  0  0  0  0  0  0
  156.5690  211.8660  157.2390 O   0  0  0  0  0  1  0  0  0  0  0  0
  156.3830  212.4370  154.6910 O   0  0  0  0  0  0  0  0  0  0  0  0
  160.8310  207.5070  153.4880 C   0  0  0  0  0  2  0  0  0  0  0  0
  160.7630  204.8920  150.7280 C   0  0  0  0  0  3  0  0  0  0  0  0
  160.6990  206.1270  151.3810 C   0  0  0  0  0  3  0  0  0  0  0  0
  160.8470  206.1940  152.7730 C   0  0  0  0  0  0  0  0  0  0  0  0
  160.9880  203.7200  151.4630 C   0  0  0  0  0  3  0  0  0  0  0  0
  161.0920  205.0200  153.5020 C   0  0  0  0  0  3  0  0  0  0  0  0
  161.1570  203.7850  152.8480 C   0  0  0  0  0  3  0  0  0  0  0  0
  161.1360  207.9720  148.3500 O   0  0  0  0  0  0  0  0  0  0  0  0
  161.4070  207.1590  147.2430 C   0  0  2  0  0  3  0  0  0  0  0  0
  160.2210  206.9210  146.5460 O   0  0  0  0  0  1  0  0  0  0  0  0
  161.9730  205.8300  147.7190 C   0  0  0  0  0  2  0  0  0  0  0  0
  162.0530  204.8850  146.6140 N   0  0  0  0  0  0  0  0  0  0  0  0
  160.9570  201.6100  147.8970 C   0  0  0  0  0  0  0  0  0  0  0  0
  160.5370  201.3240  146.2970 S   0  0  0  0  0  0  0  0  0  0  0  0
  161.4950  203.5670  146.7680 C   0  0  0  0  0  0  0  0  0  0  0  0
  161.0000  202.8250  145.6920 C   0  0  0  0  0  3  0  0  0  0  0  0
  161.4730  202.8910  148.0040 C   0  0  0  0  0  3  0  0  0  0  0  0
  160.8620  200.6180  149.0050 C   0  0  0  0  0  2  0  0  0  0  0  0
  161.5230  201.0930  150.1240 F   0  0  0  0  0  0  0  0  0  0  0  0
  163.0590  205.1380  145.5830 C   0  0  0  0  0  2  0  0  0  0  0  0
  164.1020  204.2110  145.6950 O   0  0  0  0  0  1  0  0  0  0  0  0
  1  4  1  1  0  0  0
  1 47  1  0  0  0  0
  1 22  1  0  0  0  0
  2  4  2  0  0  0  0
  5  2  2  0  0  0  0
  5  3  1  0  0  0  0
  6  5  1  0  0  0  0
  7 11  1  0  0  0  0
  7  6  1  0  0  0  0
  8  7  2  0  0  0  0
  9 10  2  0  0  0  0
  9  8  1  0  0  0  0
 10 13  1  0  0  0  0
 12 10  1  0  0  0  0
 13 11  2  0  0  0  0
 14  9  1  0  0  0  0
 15 21  1  0  0  0  0
 16 18  1  0  0  0  0
 16 17  2  0  0  0  0
 17 19  1  0  0  0  0
 18 15  2  0  0  0  0
 19 21  2  0  0  0  0
 19 14  1  0  0  0  0
 20 16  1  0  0  0  0
 22 23  1  1  0  0  0
 22 34  1  0  0  0  0
 24 35  1  0  0  0  0
 25 33  2  0  0  0  0
 26 27  1  0  0  0  0
 26 40  1  0  0  0  0
 27 30  1  1  0  0  0
 29 31  2  0  0  0  0
 30 24  2  0  0  0  0
 31 28  1  0  0  0  0
 31 24  1  0  0  0  0
 32 26  2  0  0  0  0
 33 29  1  0  0  0  0
 33 27  1  0  0  0  0
 34 25  1  0  0  0  0
 34 32  1  0  0  0  0
 35 36  1  0  0  0  0
 36 37  1  0  0  0  0
 36 38  1  0  0  0  0
 39 36  2  0  0  0  0
 41 42  2  0  0  0  0
 41 44  1  0  0  0  0
 42 43  1  0  0  0  0
 43 40  1  0  0  0  0
 43 45  2  0  0  0  0
 44 46  2  0  0  0  0
 46 45  1  0  0  0  0
 48 49  1  1  0  0  0
 48 50  1  0  0  0  0
 48 47  1  0  0  0  0
 51 54  1  0  0  0  0
 51 50  1  0  0  0  0
 52 56  2  0  0  0  0
 52 57  1  0  0  0  0
 53 52  1  0  0  0  0
 54 56  1  0  0  0  0
 55 53  1  0  0  0  0
 55 54  2  0  0  0  0
 57 58  1  0  0  0  0
 59 60  1  0  0  0  0
 59 51  1  0  0  0  0
M  END
>  <MODEL>
7

>  <REMARK>
 VINA RESULT:      -4.2      4.222      9.104
  Name = 
  18 active torsions:
  status: ('A' for Active; 'I' for Inactive)
    1  A    between atoms: C_2  and  O_38
    2  A    between atoms: C_6  and  C_9
    3  A    between atoms: C_10  and  C_55
    4  A    between atoms: C_12  and  C_47
    5  A    between atoms: C_13  and  C_44
    6  A    between atoms: C_13  and  O_54
    7  A    between atoms: C_14  and  C_29
    8  A    between atoms: P_15  and  O_38
    9  A    between atoms: C_17  and  C_55
   10  A    between atoms: C_17  and  N_60
   11  A    between atoms: C_23  and  C_29
   12  A    between atoms: N_24  and  C_26
   13  A    between atoms: N_24  and  C_34
   14  A    between atoms: N_24  and  C_44
   15  A    between atoms: C_28  and  N_59
   16  A    between atoms: C_31  and  C_47
   17  A    between atoms: C_36  and  N_59
   18  A    between atoms: O_54  and  C_55
                            x       y       z     vdW  Elec       q    Type
                         _______ _______ _______ _____ _____    ______ ____

>  <TORSDO>
F 18

$$$$
