=
 OpenBabel11052411573D

 56 60  0  0  1  0  0  0  0  0999 V2000
  161.7130  208.8500  150.9520 C   0  0  1  0  0  3  0  0  0  0  0  0
  162.0380  209.5400  149.7090 N   0  0  0  0  0  2  0  0  0  0  0  0
  161.8630  210.9470  149.5260 C   0  0  0  0  0  0  0  0  0  0  0  0
  161.3180  211.6530  150.4210 O   0  0  0  0  0  0  0  0  0  0  0  0
  162.3010  211.5810  148.2510 C   0  0  0  0  0  2  0  0  0  0  0  0
  161.2270  211.5360  147.2750 N   0  0  0  0  0  2  0  0  0  0  0  0
  160.7930  213.2740  144.6890 C   0  0  0  0  0  0  0  0  0  0  0  0
  159.4550  212.9400  145.8330 S   0  0  0  0  0  0  0  0  0  0  0  0
  162.0270  213.8150  145.3140 C   0  0  0  0  0  2  0  0  0  0  0  0
  161.7660  213.8930  146.8040 C   0  0  1  0  0  3  0  0  0  0  0  0
  160.6800  212.8850  147.1700 C   0  0  2  0  0  3  0  0  0  0  0  0
  162.9410  213.6590  147.5180 O   0  0  0  0  0  1  0  0  0  0  0  0
  160.8160  212.9330  143.3940 C   0  0  0  0  0  3  0  0  0  0  0  0
  159.7420  212.3420  142.6480 N   0  0  0  0  0  2  0  0  0  0  0  0
  159.1520  212.8630  141.4250 C   0  0  0  0  0  2  0  0  0  0  0  0
  160.0450  212.5540  140.2400 C   0  0  0  0  0  2  0  0  0  0  0  0
  160.4570  212.0940  137.1340 C   0  0  0  0  0  1  0  0  0  0  0  0
  160.4710  211.0940  140.2670 C   0  0  1  0  0  3  0  0  0  0  0  0
  161.3660  209.3220  138.7370 O   0  0  0  0  0  0  0  0  0  0  0  0
  162.4210  210.6300  137.0210 C   0  0  0  0  0  2  0  0  0  0  0  0
  161.2590  210.6900  139.0230 C   0  0  1  0  0  0  0  0  0  0  0  0
  161.6770  211.5980  137.8910 C   0  0  2  0  0  3  0  0  0  0  0  0
  161.8960  209.2590  137.4330 C   0  0  0  0  0  2  0  0  0  0  0  0
  161.9880  211.0200  140.3090 C   0  0  0  0  0  2  0  0  0  0  0  0
  162.5990  207.6190  151.1220 C   0  0  0  0  0  2  0  0  0  0  0  0
  161.7840  206.4260  151.5210 C   0  0  0  0  0  0  0  0  0  0  0  0
  162.0310  205.8240  152.5540 O   0  0  0  0  0  0  0  0  0  0  0  0
  160.6650  205.9730  150.6380 C   0  0  0  0  0  2  0  0  0  0  0  0
  160.9780  204.6390  149.9680 C   0  0  0  0  0  2  0  0  0  0  0  0
  162.3130  203.5030  146.8340 C   0  0  0  0  0  3  0  0  0  0  0  0
  160.8360  204.7110  148.4500 C   0  0  1  0  0  3  0  0  0  0  0  0
  161.4810  206.0140  147.9460 C   0  0  0  0  0  2  0  0  0  0  0  0
  161.8960  205.9140  146.4850 C   0  0  0  0  0  2  0  0  0  0  0  0
  161.3940  203.4470  147.8100 C   0  0  0  0  0  0  0  0  0  0  0  0
  162.9160  204.7890  146.3660 C   0  0  0  0  0  2  0  0  0  0  0  0
  159.9590  202.0320  149.0690 O   0  0  0  0  0  1  0  0  0  0  0  0
  161.2240  200.9860  147.4790 O   0  0  0  0  0  0  0  0  0  0  0  0
  160.8230  202.1320  148.1590 C   0  0  0  0  0  0  0  0  0  0  0  0
  161.9460  209.7890  152.1210 C   0  0  0  0  0  2  0  0  0  0  0  0
  160.7030  209.8930  152.9800 C   0  0  0  0  0  2  0  0  0  0  0  0
  160.6260  211.2720  153.6130 C   0  0  0  0  0  2  0  0  0  0  0  0
  159.5180  212.1170  153.0000 C   0  0  0  0  0  2  0  0  0  0  0  0
  158.7910  212.9250  154.0630 C   0  0  0  0  0  2  0  0  0  0  0  0
  159.4630  212.7420  155.4110 C   0  0  0  0  0  2  0  0  0  0  0  0
  158.7000  211.8040  156.2360 N   0  0  0  0  0  0  0  0  0  0  0  0
  159.5950  211.0450  157.1230 C   0  0  2  0  0  3  0  0  0  0  0  0
  161.8350  210.5260  157.2610 O   0  0  0  0  0  0  0  0  0  0  0  0
  160.9830  211.6200  157.2220 C   0  0  0  0  0  2  0  0  0  0  0  0
  159.7320  209.7300  156.6840 O   0  0  0  0  0  0  0  0  0  0  0  0
  161.4500  208.1710  157.2590 C   0  0  0  0  0  1  0  0  0  0  0  0
  161.1190  209.5040  156.6200 C   0  0  2  0  0  3  0  0  0  0  0  0
  157.8570  212.5290  157.0160 O   0  0  0  0  0  0  0  0  0  0  0  0
  155.6770  213.1190  156.2240 C   0  0  0  0  0  1  0  0  0  0  0  0
  156.5830  212.0190  156.7480 C   0  0  1  0  0  3  0  0  0  0  0  0
  156.6650  210.8570  155.7650 C   0  0  0  0  0  2  0  0  0  0  0  0
  155.2910  210.3390  155.3660 C   0  0  0  0  0  1  0  0  0  0  0  0
  1 25  1  1  0  0  0
  1 39  1  0  0  0  0
  2  1  1  0  0  0  0
  3  2  1  0  0  0  0
  3  4  2  0  0  0  0
  5  3  1  0  0  0  0
  6  5  1  0  0  0  0
  7  9  1  0  0  0  0
  7  8  1  0  0  0  0
  8 11  1  0  0  0  0
  9 10  1  0  0  0  0
 10 11  1  0  0  0  0
 10 12  1  1  0  0  0
 11  6  1  6  0  0  0
 13  7  2  0  0  0  0
 14 13  1  0  0  0  0
 15 14  1  0  0  0  0
 16 15  1  0  0  0  0
 18 16  1  6  0  0  0
 18 24  1  0  0  0  0
 19 21  1  0  0  0  0
 20 23  1  0  0  0  0
 20 22  1  0  0  0  0
 21 18  1  0  0  0  0
 21 24  1  1  0  0  0
 22 17  1  6  0  0  0
 22 21  1  0  0  0  0
 23 19  1  0  0  0  0
 25 26  1  0  0  0  0
 26 27  2  0  0  0  0
 28 26  1  0  0  0  0
 29 28  1  0  0  0  0
 30 34  2  0  0  0  0
 31 29  1  1  0  0  0
 32 31  1  0  0  0  0
 33 32  1  0  0  0  0
 34 38  1  0  0  0  0
 34 31  1  0  0  0  0
 35 33  1  0  0  0  0
 35 30  1  0  0  0  0
 37 38  2  0  0  0  0
 38 36  1  0  0  0  0
 39 40  1  0  0  0  0
 40 41  1  0  0  0  0
 42 41  1  0  0  0  0
 42 43  1  0  0  0  0
 43 44  1  0  0  0  0
 44 45  1  0  0  0  0
 45 52  1  0  0  0  0
 46 45  1  6  0  0  0
 46 48  1  0  0  0  0
 48 47  1  0  0  0  0
 49 46  1  0  0  0  0
 51 49  1  0  0  0  0
 51 50  1  1  0  0  0
 51 47  1  0  0  0  0
 54 53  1  6  0  0  0
 54 52  1  0  0  0  0
 55 54  1  0  0  0  0
 56 55  1  0  0  0  0
M  END
>  <MODEL>
1

>  <REMARK>
 VINA RESULT:      -6.7      0.000      0.000
  Name = 
  25 active torsions:
  status: ('A' for Active; 'I' for Inactive)
    1  A    between atoms: C_1  and  C_32
    2  A    between atoms: C_3  and  C_9
    3  A    between atoms: C_3  and  C_25
    4  A    between atoms: C_4  and  C_35
    5  A    between atoms: C_5  and  C_25
    6  A    between atoms: C_5  and  C_35
    7  A    between atoms: C_7  and  N_13
    8  A    between atoms: C_9  and  N_11
    9  A    between atoms: C_9  and  C_15
   10  A    between atoms: C_12  and  C_21
   11  A    between atoms: C_12  and  C_55
   12  A    between atoms: N_13  and  O_51
   13  A    between atoms: N_13  and  C_53
   14  A    between atoms: C_14  and  N_54
   15  A    between atoms: C_14  and  C_56
   16  A    between atoms: C_15  and  C_21
   17  A    between atoms: C_27  and  N_46
   18  A    between atoms: C_28  and  C_44
   19  A    between atoms: C_29  and  C_53
   20  A    between atoms: C_29  and  C_55
   21  A    between atoms: C_32  and  O_51
   22  A    between atoms: C_33  and  C_56
   23  A    between atoms: C_36  and  N_54
   24  A    between atoms: C_42  and  C_47
   25  A    between atoms: N_46  and  C_47
                            x       y       z     vdW  Elec       q    Type
                         _______ _______ _______ _____ _____    ______ ____

>  <TORSDO>
F 25

$$$$
=
 OpenBabel11052411573D

 56 60  0  0  1  0  0  0  0  0999 V2000
  162.2460  209.3700  151.3900 C   0  0  1  0  0  3  0  0  0  0  0  0
  162.4780  210.2350  150.2390 N   0  0  0  0  0  2  0  0  0  0  0  0
  161.7950  211.4760  150.0420 C   0  0  0  0  0  0  0  0  0  0  0  0
  160.8730  211.8380  150.8260 O   0  0  0  0  0  0  0  0  0  0  0  0
  162.1570  212.3360  148.8800 C   0  0  0  0  0  2  0  0  0  0  0  0
  161.4210  211.9180  147.7000 N   0  0  0  0  0  2  0  0  0  0  0  0
  161.3300  213.3400  144.8960 C   0  0  0  0  0  0  0  0  0  0  0  0
  159.8510  212.6860  145.6670 S   0  0  0  0  0  0  0  0  0  0  0  0
  162.1360  214.2410  145.7590 C   0  0  0  0  0  2  0  0  0  0  0  0
  161.4360  214.3060  147.1000 C   0  0  1  0  0  3  0  0  0  0  0  0
  160.5950  213.0450  147.2820 C   0  0  2  0  0  3  0  0  0  0  0  0
  162.3660  214.4530  148.1290 O   0  0  0  0  0  1  0  0  0  0  0  0
  161.8240  212.9630  143.7100 C   0  0  0  0  0  3  0  0  0  0  0  0
  161.2130  212.0550  142.7810 N   0  0  0  0  0  2  0  0  0  0  0  0
  160.1380  212.3660  141.8500 C   0  0  0  0  0  2  0  0  0  0  0  0
  160.3870  211.6870  140.5190 C   0  0  0  0  0  2  0  0  0  0  0  0
  159.1310  209.6220  138.4710 C   0  0  0  0  0  1  0  0  0  0  0  0
  161.3810  210.5470  140.6840 C   0  0  1  0  0  3  0  0  0  0  0  0
  161.9630  208.3370  139.6580 O   0  0  0  0  0  0  0  0  0  0  0  0
  161.0890  208.5730  137.4330 C   0  0  0  0  0  2  0  0  0  0  0  0
  161.4040  209.6090  139.4800 C   0  0  1  0  0  0  0  0  0  0  0  0
  160.6180  209.7720  138.2000 C   0  0  2  0  0  3  0  0  0  0  0  0
  161.6160  207.6160  138.4980 C   0  0  0  0  0  2  0  0  0  0  0  0
  162.4660  210.6790  139.6280 C   0  0  0  0  0  2  0  0  0  0  0  0
  160.8210  209.5470  151.9060 C   0  0  0  0  0  2  0  0  0  0  0  0
  160.8050  209.6750  153.4000 C   0  0  0  0  0  0  0  0  0  0  0  0
  161.4740  208.9260  154.0920 O   0  0  0  0  0  0  0  0  0  0  0  0
  159.9560  210.7280  154.0360 C   0  0  0  0  0  2  0  0  0  0  0  0
  158.7680  211.1050  153.1570 C   0  0  0  0  0  2  0  0  0  0  0  0
  157.6670  213.8990  155.1270 C   0  0  0  0  0  3  0  0  0  0  0  0
  157.6120  211.6830  153.9690 C   0  0  1  0  0  3  0  0  0  0  0  0
  157.6080  211.0390  155.3660 C   0  0  0  0  0  2  0  0  0  0  0  0
  156.9080  211.9170  156.3940 C   0  0  0  0  0  2  0  0  0  0  0  0
  157.6860  213.2030  153.9790 C   0  0  0  0  0  0  0  0  0  0  0  0
  157.6600  213.2390  156.4690 C   0  0  0  0  0  2  0  0  0  0  0  0
  158.7010  214.2900  152.1250 O   0  0  0  0  0  0  0  0  0  0  0  0
  156.4160  214.2810  152.1300 O   0  0  0  0  0  1  0  0  0  0  0  0
  157.6370  213.9510  152.7080 C   0  0  0  0  0  0  0  0  0  0  0  0
  162.4450  207.9240  150.9770 C   0  0  0  0  0  2  0  0  0  0  0  0
  161.1110  207.2520  150.7250 C   0  0  0  0  0  2  0  0  0  0  0  0
  160.7800  207.2980  149.2430 C   0  0  0  0  0  2  0  0  0  0  0  0
  162.0160  207.1010  148.3780 C   0  0  0  0  0  2  0  0  0  0  0  0
  161.7900  206.0210  147.3330 C   0  0  0  0  0  2  0  0  0  0  0  0
  162.7600  204.8730  147.5460 C   0  0  0  0  0  2  0  0  0  0  0  0
  162.0760  203.5910  147.3720 N   0  0  0  0  0  0  0  0  0  0  0  0
  161.8300  202.9520  148.6740 C   0  0  2  0  0  3  0  0  0  0  0  0
  160.0250  202.3320  149.9650 O   0  0  0  0  0  0  0  0  0  0  0  0
  160.5800  202.1130  148.7120 C   0  0  0  0  0  2  0  0  0  0  0  0
  161.7070  203.9080  149.6810 O   0  0  0  0  0  0  0  0  0  0  0  0
  160.7210  203.6320  151.8410 C   0  0  0  0  0  1  0  0  0  0  0  0
  160.5050  203.5960  150.3420 C   0  0  2  0  0  3  0  0  0  0  0  0
  160.8720  203.8390  146.7940 O   0  0  0  0  0  0  0  0  0  0  0  0
  160.4870  202.0610  145.2400 C   0  0  0  0  0  1  0  0  0  0  0  0
  161.0250  203.4650  145.4560 C   0  0  1  0  0  3  0  0  0  0  0  0
  160.3380  204.4660  144.5350 C   0  0  0  0  0  2  0  0  0  0  0  0
  161.3300  205.3790  143.8310 C   0  0  0  0  0  1  0  0  0  0  0  0
  1 39  1  6  0  0  0
  1 25  1  0  0  0  0
  2  1  1  0  0  0  0
  3  2  1  0  0  0  0
  3  4  2  0  0  0  0
  5  3  1  0  0  0  0
  6  5  1  0  0  0  0
  7  8  1  0  0  0  0
  7  9  1  0  0  0  0
  8 11  1  0  0  0  0
  9 10  1  0  0  0  0
 10 11  1  0  0  0  0
 10 12  1  1  0  0  0
 11  6  1  6  0  0  0
 13  7  2  0  0  0  0
 14 13  1  0  0  0  0
 15 14  1  0  0  0  0
 16 15  1  0  0  0  0
 18 16  1  6  0  0  0
 20 22  1  0  0  0  0
 20 23  1  0  0  0  0
 21 24  1  6  0  0  0
 21 19  1  0  0  0  0
 21 18  1  0  0  0  0
 22 17  1  1  0  0  0
 22 21  1  0  0  0  0
 23 19  1  0  0  0  0
 24 18  1  0  0  0  0
 25 26  1  0  0  0  0
 26 28  1  0  0  0  0
 26 27  2  0  0  0  0
 29 28  1  0  0  0  0
 30 35  1  0  0  0  0
 31 29  1  6  0  0  0
 31 34  1  0  0  0  0
 31 32  1  0  0  0  0
 32 33  1  0  0  0  0
 33 35  1  0  0  0  0
 34 30  2  0  0  0  0
 36 38  2  0  0  0  0
 37 38  1  0  0  0  0
 38 34  1  0  0  0  0
 40 39  1  0  0  0  0
 41 40  1  0  0  0  0
 42 41  1  0  0  0  0
 43 44  1  0  0  0  0
 43 42  1  0  0  0  0
 45 44  1  0  0  0  0
 46 45  1  6  0  0  0
 46 48  1  0  0  0  0
 46 49  1  0  0  0  0
 47 51  1  0  0  0  0
 48 47  1  0  0  0  0
 49 51  1  0  0  0  0
 51 50  1  1  0  0  0
 52 45  1  0  0  0  0
 54 53  1  1  0  0  0
 54 52  1  0  0  0  0
 55 54  1  0  0  0  0
 56 55  1  0  0  0  0
M  END
>  <MODEL>
2

>  <REMARK>
 VINA RESULT:      -6.6      2.077      8.240
  Name = 
  25 active torsions:
  status: ('A' for Active; 'I' for Inactive)
    1  A    between atoms: C_1  and  C_32
    2  A    between atoms: C_3  and  C_9
    3  A    between atoms: C_3  and  C_25
    4  A    between atoms: C_4  and  C_35
    5  A    between atoms: C_5  and  C_25
    6  A    between atoms: C_5  and  C_35
    7  A    between atoms: C_7  and  N_13
    8  A    between atoms: C_9  and  N_11
    9  A    between atoms: C_9  and  C_15
   10  A    between atoms: C_12  and  C_21
   11  A    between atoms: C_12  and  C_55
   12  A    between atoms: N_13  and  O_51
   13  A    between atoms: N_13  and  C_53
   14  A    between atoms: C_14  and  N_54
   15  A    between atoms: C_14  and  C_56
   16  A    between atoms: C_15  and  C_21
   17  A    between atoms: C_27  and  N_46
   18  A    between atoms: C_28  and  C_44
   19  A    between atoms: C_29  and  C_53
   20  A    between atoms: C_29  and  C_55
   21  A    between atoms: C_32  and  O_51
   22  A    between atoms: C_33  and  C_56
   23  A    between atoms: C_36  and  N_54
   24  A    between atoms: C_42  and  C_47
   25  A    between atoms: N_46  and  C_47
                            x       y       z     vdW  Elec       q    Type
                         _______ _______ _______ _____ _____    ______ ____

>  <TORSDO>
F 25

$$$$
=
 OpenBabel11052411573D

 56 60  0  0  1  0  0  0  0  0999 V2000
  160.8730  208.3320  153.9380 C   0  0  1  0  0  3  0  0  0  0  0  0
  160.3050  209.5480  153.3680 N   0  0  0  0  0  2  0  0  0  0  0  0
  161.1030  210.6320  152.8840 C   0  0  0  0  0  0  0  0  0  0  0  0
  162.3590  210.6220  153.0210 O   0  0  0  0  0  0  0  0  0  0  0  0
  160.4390  211.8000  152.2400 C   0  0  0  0  0  2  0  0  0  0  0  0
  160.3220  211.5820  150.8090 N   0  0  0  0  0  2  0  0  0  0  0  0
  160.7900  212.3950  147.8070 C   0  0  0  0  0  0  0  0  0  0  0  0
  161.1220  213.5320  149.1510 S   0  0  0  0  0  0  0  0  0  0  0  0
  161.4260  211.0610  147.9470 C   0  0  0  0  0  2  0  0  0  0  0  0
  162.1710  211.0670  149.2660 C   0  0  1  0  0  3  0  0  0  0  0  0
  161.5360  212.1030  150.1900 C   0  0  2  0  0  3  0  0  0  0  0  0
  162.1580  209.7960  149.8400 O   0  0  0  0  0  1  0  0  0  0  0  0
  159.9180  212.5980  146.8110 C   0  0  0  0  0  3  0  0  0  0  0  0
  159.1690  213.7970  146.5630 N   0  0  0  0  0  2  0  0  0  0  0  0
  158.9910  214.4530  145.2760 C   0  0  0  0  0  2  0  0  0  0  0  0
  160.0780  214.0190  144.3140 C   0  0  0  0  0  2  0  0  0  0  0  0
  162.6790  214.3460  142.5350 C   0  0  0  0  0  1  0  0  0  0  0  0
  159.4810  213.6990  142.9520 C   0  0  1  0  0  3  0  0  0  0  0  0
  160.1960  213.2920  140.5850 O   0  0  0  0  0  0  0  0  0  0  0  0
  162.4660  212.5620  140.8670 C   0  0  0  0  0  2  0  0  0  0  0  0
  160.5320  213.2390  141.9440 C   0  0  1  0  0  0  0  0  0  0  0  0
  162.0020  213.0240  142.2150 C   0  0  2  0  0  3  0  0  0  0  0  0
  161.4060  213.0730  139.8980 C   0  0  0  0  0  2  0  0  0  0  0  0
  159.6720  212.2200  142.6630 C   0  0  0  0  0  2  0  0  0  0  0  0
  160.0630  207.8880  155.1520 C   0  0  0  0  0  2  0  0  0  0  0  0
  160.5990  208.5070  156.4080 C   0  0  0  0  0  0  0  0  0  0  0  0
  161.7110  208.2150  156.8170 O   0  0  0  0  0  0  0  0  0  0  0  0
  159.7560  209.4860  157.1600 C   0  0  0  0  0  2  0  0  0  0  0  0
  158.7870  210.2220  156.2410 C   0  0  0  0  0  2  0  0  0  0  0  0
  157.4760  213.4000  155.2010 C   0  0  0  0  0  3  0  0  0  0  0  0
  158.6670  211.7010  156.5980 C   0  0  1  0  0  3  0  0  0  0  0  0
  159.9740  212.4180  156.2170 C   0  0  0  0  0  2  0  0  0  0  0  0
  159.7610  213.9090  155.9950 C   0  0  0  0  0  2  0  0  0  0  0  0
  157.4180  212.2950  155.9620 C   0  0  0  0  0  0  0  0  0  0  0  0
  158.7650  214.0720  154.8540 C   0  0  0  0  0  2  0  0  0  0  0  0
  155.3140  212.3600  157.0640 O   0  0  0  0  0  1  0  0  0  0  0  0
  155.6740  210.5340  155.7370 O   0  0  0  0  0  0  0  0  0  0  0  0
  156.0910  211.7410  156.2890 C   0  0  0  0  0  0  0  0  0  0  0  0
  160.8420  207.2300  152.8960 C   0  0  0  0  0  2  0  0  0  0  0  0
  161.3360  205.9240  153.4840 C   0  0  0  0  0  2  0  0  0  0  0  0
  160.6590  204.7550  152.7880 C   0  0  0  0  0  2  0  0  0  0  0  0
  161.6640  203.8500  152.0890 C   0  0  0  0  0  2  0  0  0  0  0  0
  161.7430  204.1600  150.6040 C   0  0  0  0  0  2  0  0  0  0  0  0
  160.7690  203.2880  149.8330 C   0  0  0  0  0  2  0  0  0  0  0  0
  161.2230  203.1170  148.4520 N   0  0  0  0  0  0  0  0  0  0  0  0
  160.5550  201.9670  147.8230 C   0  0  2  0  0  3  0  0  0  0  0  0
  161.1480  200.0240  146.7360 O   0  0  0  0  0  0  0  0  0  0  0  0
  161.3200  200.6760  147.9490 C   0  0  0  0  0  2  0  0  0  0  0  0
  160.3580  202.1900  146.4610 O   0  0  0  0  0  0  0  0  0  0  0  0
  159.9150  200.5640  144.7660 C   0  0  0  0  0  1  0  0  0  0  0  0
  160.8860  201.0540  145.8210 C   0  0  2  0  0  3  0  0  0  0  0  0
  160.8730  204.2320  147.7600 O   0  0  0  0  0  0  0  0  0  0  0  0
  162.1910  204.6240  145.8020 C   0  0  0  0  0  1  0  0  0  0  0  0
  162.0800  204.7750  147.3090 C   0  0  1  0  0  3  0  0  0  0  0  0
  162.2030  206.2360  147.7260 C   0  0  0  0  0  2  0  0  0  0  0  0
  160.8950  206.7940  148.2670 C   0  0  0  0  0  1  0  0  0  0  0  0
  1 39  1  6  0  0  0
  1 25  1  0  0  0  0
  2  1  1  0  0  0  0
  3  4  2  0  0  0  0
  3  2  1  0  0  0  0
  5  3  1  0  0  0  0
  6  5  1  0  0  0  0
  7  9  1  0  0  0  0
  7  8  1  0  0  0  0
  8 11  1  0  0  0  0
  9 10  1  0  0  0  0
 10 12  1  1  0  0  0
 10 11  1  0  0  0  0
 11  6  1  6  0  0  0
 13  7  2  0  0  0  0
 14 13  1  0  0  0  0
 15 14  1  0  0  0  0
 16 15  1  0  0  0  0
 18 16  1  1  0  0  0
 19 21  1  0  0  0  0
 20 22  1  0  0  0  0
 21 22  1  0  0  0  0
 21 24  1  1  0  0  0
 21 18  1  0  0  0  0
 22 17  1  6  0  0  0
 23 19  1  0  0  0  0
 23 20  1  0  0  0  0
 24 18  1  0  0  0  0
 25 26  1  0  0  0  0
 26 27  2  0  0  0  0
 26 28  1  0  0  0  0
 29 28  1  0  0  0  0
 30 34  2  0  0  0  0
 31 29  1  6  0  0  0
 32 31  1  0  0  0  0
 33 32  1  0  0  0  0
 34 38  1  0  0  0  0
 34 31  1  0  0  0  0
 35 30  1  0  0  0  0
 35 33  1  0  0  0  0
 37 38  2  0  0  0  0
 38 36  1  0  0  0  0
 39 40  1  0  0  0  0
 41 40  1  0  0  0  0
 42 41  1  0  0  0  0
 43 42  1  0  0  0  0
 44 43  1  0  0  0  0
 45 44  1  0  0  0  0
 46 48  1  0  0  0  0
 46 45  1  6  0  0  0
 47 48  1  0  0  0  0
 49 46  1  0  0  0  0
 51 50  1  6  0  0  0
 51 49  1  0  0  0  0
 51 47  1  0  0  0  0
 52 45  1  0  0  0  0
 54 53  1  6  0  0  0
 54 55  1  0  0  0  0
 54 52  1  0  0  0  0
 55 56  1  0  0  0  0
M  END
>  <MODEL>
3

>  <REMARK>
 VINA RESULT:      -6.3      2.327      8.984
  Name = 
  25 active torsions:
  status: ('A' for Active; 'I' for Inactive)
    1  A    between atoms: C_1  and  C_32
    2  A    between atoms: C_3  and  C_9
    3  A    between atoms: C_3  and  C_25
    4  A    between atoms: C_4  and  C_35
    5  A    between atoms: C_5  and  C_25
    6  A    between atoms: C_5  and  C_35
    7  A    between atoms: C_7  and  N_13
    8  A    between atoms: C_9  and  N_11
    9  A    between atoms: C_9  and  C_15
   10  A    between atoms: C_12  and  C_21
   11  A    between atoms: C_12  and  C_55
   12  A    between atoms: N_13  and  O_51
   13  A    between atoms: N_13  and  C_53
   14  A    between atoms: C_14  and  N_54
   15  A    between atoms: C_14  and  C_56
   16  A    between atoms: C_15  and  C_21
   17  A    between atoms: C_27  and  N_46
   18  A    between atoms: C_28  and  C_44
   19  A    between atoms: C_29  and  C_53
   20  A    between atoms: C_29  and  C_55
   21  A    between atoms: C_32  and  O_51
   22  A    between atoms: C_33  and  C_56
   23  A    between atoms: C_36  and  N_54
   24  A    between atoms: C_42  and  C_47
   25  A    between atoms: N_46  and  C_47
                            x       y       z     vdW  Elec       q    Type
                         _______ _______ _______ _____ _____    ______ ____

>  <TORSDO>
F 25

$$$$
=
 OpenBabel11052411573D

 56 60  0  0  1  0  0  0  0  0999 V2000
  162.2220  209.1060  151.3310 C   0  0  1  0  0  3  0  0  0  0  0  0
  162.4080  210.0560  150.2400 N   0  0  0  0  0  2  0  0  0  0  0  0
  161.7090  211.3010  150.1590 C   0  0  0  0  0  0  0  0  0  0  0  0
  160.8100  211.5930  150.9970 O   0  0  0  0  0  0  0  0  0  0  0  0
  162.0240  212.2480  149.0530 C   0  0  0  0  0  2  0  0  0  0  0  0
  161.4540  211.7690  147.8060 N   0  0  0  0  0  2  0  0  0  0  0  0
  161.8390  213.4520  145.1770 C   0  0  0  0  0  0  0  0  0  0  0  0
  160.3210  212.5600  145.5090 S   0  0  0  0  0  0  0  0  0  0  0  0
  162.2910  214.3440  146.2740 C   0  0  0  0  0  2  0  0  0  0  0  0
  161.2920  214.1930  147.4020 C   0  0  1  0  0  3  0  0  0  0  0  0
  160.6070  212.8340  147.2790 C   0  0  2  0  0  3  0  0  0  0  0  0
  161.9240  214.3360  148.6370 O   0  0  0  0  0  1  0  0  0  0  0  0
  162.6450  213.2560  144.1250 C   0  0  0  0  0  3  0  0  0  0  0  0
  162.3980  212.3850  143.0110 N   0  0  0  0  0  2  0  0  0  0  0  0
  161.6170  212.7020  141.8250 C   0  0  0  0  0  2  0  0  0  0  0  0
  160.5330  211.6630  141.6200 C   0  0  0  0  0  2  0  0  0  0  0  0
  158.1040  211.8990  139.6000 C   0  0  0  0  0  1  0  0  0  0  0  0
  160.9740  210.6340  140.5900 C   0  0  1  0  0  3  0  0  0  0  0  0
  160.3360  209.7880  138.3200 O   0  0  0  0  0  0  0  0  0  0  0  0
  159.1580  211.6660  137.3980 C   0  0  0  0  0  2  0  0  0  0  0  0
  160.3310  210.8580  139.2240 C   0  0  1  0  0  0  0  0  0  0  0  0
  159.4150  211.9950  138.8380 C   0  0  2  0  0  3  0  0  0  0  0  0
  159.4680  210.1780  137.2810 C   0  0  0  0  0  2  0  0  0  0  0  0
  161.7440  211.3370  139.4850 C   0  0  0  0  0  2  0  0  0  0  0  0
  160.8190  209.2390  151.9140 C   0  0  0  0  0  2  0  0  0  0  0  0
  160.8560  209.1870  153.4120 C   0  0  0  0  0  0  0  0  0  0  0  0
  161.1740  208.1600  153.9890 O   0  0  0  0  0  0  0  0  0  0  0  0
  160.4930  210.4070  154.1970 C   0  0  0  0  0  2  0  0  0  0  0  0
  158.9840  210.6290  154.2320 C   0  0  0  0  0  2  0  0  0  0  0  0
  156.4390  213.1550  154.0370 C   0  0  0  0  0  3  0  0  0  0  0  0
  158.6230  212.0690  154.5880 C   0  0  1  0  0  3  0  0  0  0  0  0
  159.2660  213.0160  153.5600 C   0  0  0  0  0  2  0  0  0  0  0  0
  158.5310  214.3470  153.4770 C   0  0  0  0  0  2  0  0  0  0  0  0
  157.1130  212.2140  154.7180 C   0  0  0  0  0  0  0  0  0  0  0  0
  157.0970  214.0620  153.0480 C   0  0  0  0  0  2  0  0  0  0  0  0
  156.5780  211.5750  156.9420 O   0  0  0  0  0  1  0  0  0  0  0  0
  155.4470  210.4600  155.2990 O   0  0  0  0  0  0  0  0  0  0  0  0
  156.3790  211.4080  155.7100 C   0  0  0  0  0  0  0  0  0  0  0  0
  162.4040  207.6960  150.8020 C   0  0  0  0  0  2  0  0  0  0  0  0
  161.0710  207.1000  150.3980 C   0  0  0  0  0  2  0  0  0  0  0  0
  160.8730  207.2440  148.8990 C   0  0  0  0  0  2  0  0  0  0  0  0
  162.1530  206.9610  148.1260 C   0  0  0  0  0  2  0  0  0  0  0  0
  161.9480  205.8500  147.1100 C   0  0  0  0  0  2  0  0  0  0  0  0
  162.4380  204.5280  147.6710 C   0  0  0  0  0  2  0  0  0  0  0  0
  161.3870  203.5140  147.5710 N   0  0  0  0  0  0  0  0  0  0  0  0
  161.3970  202.8830  146.2420 C   0  0  2  0  0  3  0  0  0  0  0  0
  159.9910  202.6860  144.4280 O   0  0  0  0  0  0  0  0  0  0  0  0
  160.6250  203.6490  145.2000 C   0  0  0  0  0  2  0  0  0  0  0  0
  160.8470  201.6030  146.2960 O   0  0  0  0  0  0  0  0  0  0  0  0
  160.0080  200.3000  144.4760 C   0  0  0  0  0  1  0  0  0  0  0  0
  159.8740  201.5770  145.2800 C   0  0  2  0  0  3  0  0  0  0  0  0
  161.6520  202.5510  148.4920 O   0  0  0  0  0  0  0  0  0  0  0  0
  159.6180  201.5190  149.2160 C   0  0  0  0  0  1  0  0  0  0  0  0
  160.6150  202.6440  149.4260 C   0  0  1  0  0  3  0  0  0  0  0  0
  161.1680  202.6320  150.8470 C   0  0  0  0  0  2  0  0  0  0  0  0
  160.8310  203.9040  151.6090 C   0  0  0  0  0  1  0  0  0  0  0  0
  1 39  1  6  0  0  0
  1 25  1  0  0  0  0
  2  1  1  0  0  0  0
  3  2  1  0  0  0  0
  3  4  2  0  0  0  0
  5  3  1  0  0  0  0
  6  5  1  0  0  0  0
  7  8  1  0  0  0  0
  7  9  1  0  0  0  0
  8 11  1  0  0  0  0
  9 10  1  0  0  0  0
 10 12  1  1  0  0  0
 11 10  1  0  0  0  0
 11  6  1  6  0  0  0
 13  7  2  0  0  0  0
 14 13  1  0  0  0  0
 15 14  1  0  0  0  0
 16 15  1  0  0  0  0
 18 16  1  1  0  0  0
 19 21  1  0  0  0  0
 20 22  1  0  0  0  0
 21 24  1  6  0  0  0
 21 18  1  0  0  0  0
 22 21  1  0  0  0  0
 22 17  1  1  0  0  0
 23 20  1  0  0  0  0
 23 19  1  0  0  0  0
 24 18  1  0  0  0  0
 25 26  1  0  0  0  0
 26 27  2  0  0  0  0
 26 28  1  0  0  0  0
 28 29  1  0  0  0  0
 30 34  2  0  0  0  0
 31 29  1  6  0  0  0
 31 34  1  0  0  0  0
 32 31  1  0  0  0  0
 33 32  1  0  0  0  0
 34 38  1  0  0  0  0
 35 33  1  0  0  0  0
 35 30  1  0  0  0  0
 37 38  2  0  0  0  0
 38 36  1  0  0  0  0
 40 39  1  0  0  0  0
 41 40  1  0  0  0  0
 42 41  1  0  0  0  0
 43 44  1  0  0  0  0
 43 42  1  0  0  0  0
 45 44  1  0  0  0  0
 45 52  1  0  0  0  0
 46 49  1  0  0  0  0
 46 45  1  1  0  0  0
 47 48  1  0  0  0  0
 47 51  1  0  0  0  0
 48 46  1  0  0  0  0
 51 50  1  6  0  0  0
 51 49  1  0  0  0  0
 52 54  1  0  0  0  0
 54 53  1  1  0  0  0
 54 55  1  0  0  0  0
 55 56  1  0  0  0  0
M  END
>  <MODEL>
4

>  <REMARK>
 VINA RESULT:      -6.3      1.988      8.427
  Name = 
  25 active torsions:
  status: ('A' for Active; 'I' for Inactive)
    1  A    between atoms: C_1  and  C_32
    2  A    between atoms: C_3  and  C_9
    3  A    between atoms: C_3  and  C_25
    4  A    between atoms: C_4  and  C_35
    5  A    between atoms: C_5  and  C_25
    6  A    between atoms: C_5  and  C_35
    7  A    between atoms: C_7  and  N_13
    8  A    between atoms: C_9  and  N_11
    9  A    between atoms: C_9  and  C_15
   10  A    between atoms: C_12  and  C_21
   11  A    between atoms: C_12  and  C_55
   12  A    between atoms: N_13  and  O_51
   13  A    between atoms: N_13  and  C_53
   14  A    between atoms: C_14  and  N_54
   15  A    between atoms: C_14  and  C_56
   16  A    between atoms: C_15  and  C_21
   17  A    between atoms: C_27  and  N_46
   18  A    between atoms: C_28  and  C_44
   19  A    between atoms: C_29  and  C_53
   20  A    between atoms: C_29  and  C_55
   21  A    between atoms: C_32  and  O_51
   22  A    between atoms: C_33  and  C_56
   23  A    between atoms: C_36  and  N_54
   24  A    between atoms: C_42  and  C_47
   25  A    between atoms: N_46  and  C_47
                            x       y       z     vdW  Elec       q    Type
                         _______ _______ _______ _____ _____    ______ ____

>  <TORSDO>
F 25

$$$$
=
 OpenBabel11052411573D

 56 60  0  0  1  0  0  0  0  0999 V2000
  162.0940  208.9970  151.5150 C   0  0  1  0  0  3  0  0  0  0  0  0
  162.2810  209.5210  150.1670 N   0  0  0  0  0  2  0  0  0  0  0  0
  161.8750  210.8350  149.7750 C   0  0  0  0  0  0  0  0  0  0  0  0
  161.2380  211.5790  150.5720 O   0  0  0  0  0  0  0  0  0  0  0  0
  162.1820  211.3170  148.3990 C   0  0  0  0  0  2  0  0  0  0  0  0
  160.9780  211.8260  147.7670 N   0  0  0  0  0  2  0  0  0  0  0  0
  161.1000  213.3420  145.0130 C   0  0  1  0  0  3  0  0  0  0  0  0
  159.9700  213.8390  146.3120 S   0  0  0  0  0  0  0  0  0  0  0  0
  162.5160  213.2020  145.4380 C   0  0  0  0  0  2  0  0  0  0  0  0
  162.5610  213.5110  146.9200 C   0  0  1  0  0  3  0  0  0  0  0  0
  161.1840  213.2500  147.5240 C   0  0  2  0  0  3  0  0  0  0  0  0
  163.5470  212.7510  147.5480 O   0  0  0  0  0  1  0  0  0  0  0  0
  160.7490  212.9450  143.7830 C   0  0  0  0  0  3  0  0  0  0  0  0
  159.4240  212.9510  143.2300 N   0  0  0  0  0  0  0  0  0  0  0  0
  159.0760  212.8680  141.8200 C   0  0  0  0  0  2  0  0  0  0  0  0
  160.3220  212.6380  140.9880 C   0  0  0  0  0  2  0  0  0  0  0  0
  162.7130  210.6760  140.3020 C   0  0  0  0  0  1  0  0  0  0  0  0
  159.9440  212.2880  139.5560 C   0  0  1  0  0  3  0  0  0  0  0  0
  160.6210  210.7310  137.7130 O   0  0  0  0  0  0  0  0  0  0  0  0
  161.6600  208.9390  138.9280 C   0  0  0  0  0  2  0  0  0  0  0  0
  160.5600  210.9700  139.0920 C   0  0  1  0  0  0  0  0  0  0  0  0
  161.3930  210.0250  139.9260 C   0  0  2  0  0  3  0  0  0  0  0  0
  161.4520  209.6030  137.5710 C   0  0  0  0  0  2  0  0  0  0  0  0
  159.1190  211.0120  139.5590 C   0  0  0  0  0  2  0  0  0  0  0  0
  160.7550  209.4590  152.0810 C   0  0  0  0  0  2  0  0  0  0  0  0
  160.8630  209.7370  153.5510 C   0  0  0  0  0  0  0  0  0  0  0  0
  161.0850  208.8320  154.3380 O   0  0  0  0  0  0  0  0  0  0  0  0
  160.6920  211.1380  154.0470 C   0  0  0  0  0  2  0  0  0  0  0  0
  159.5380  211.8480  153.3470 C   0  0  0  0  0  2  0  0  0  0  0  0
  157.1990  213.8750  155.1690 C   0  0  0  0  0  3  0  0  0  0  0  0
  158.2630  211.8360  154.1860 C   0  0  1  0  0  3  0  0  0  0  0  0
  158.6120  211.4180  155.6260 C   0  0  0  0  0  2  0  0  0  0  0  0
  157.5790  211.9150  156.6270 C   0  0  0  0  0  2  0  0  0  0  0  0
  157.5500  213.1770  154.0780 C   0  0  0  0  0  0  0  0  0  0  0  0
  157.5530  213.4370  156.5540 C   0  0  0  0  0  2  0  0  0  0  0  0
  157.9460  213.9480  151.8650 O   0  0  0  0  0  0  0  0  0  0  0  0
  155.7490  213.8220  152.4850 O   0  0  0  0  0  1  0  0  0  0  0  0
  157.1050  213.6690  152.7610 C   0  0  0  0  0  0  0  0  0  0  0  0
  162.1120  207.4810  151.4690 C   0  0  0  0  0  2  0  0  0  0  0  0
  160.7030  206.9320  151.3720 C   0  0  0  0  0  2  0  0  0  0  0  0
  160.4110  206.5050  149.9440 C   0  0  0  0  0  2  0  0  0  0  0  0
  161.5150  205.6230  149.3770 C   0  0  0  0  0  2  0  0  0  0  0  0
  161.0110  204.2150  149.1110 C   0  0  0  0  0  2  0  0  0  0  0  0
  161.8780  203.5360  148.0660 C   0  0  0  0  0  2  0  0  0  0  0  0
  161.2000  203.5310  146.7690 N   0  0  0  0  0  0  0  0  0  0  0  0
  161.5270  204.7460  146.0070 C   0  0  2  0  0  3  0  0  0  0  0  0
  160.4220  206.3290  144.7480 O   0  0  0  0  0  0  0  0  0  0  0  0
  160.4380  205.7860  146.0260 C   0  0  0  0  0  2  0  0  0  0  0  0
  161.7740  204.4420  144.6690 O   0  0  0  0  0  0  0  0  0  0  0  0
  161.7520  205.9390  142.8060 C   0  0  0  0  0  1  0  0  0  0  0  0
  160.9540  205.3180  143.9340 C   0  0  2  0  0  3  0  0  0  0  0  0
  161.6580  202.4620  146.0660 O   0  0  0  0  0  0  0  0  0  0  0  0
  159.8920  201.2560  144.9930 C   0  0  0  0  0  1  0  0  0  0  0  0
  160.7010  201.4610  146.2610 C   0  0  1  0  0  3  0  0  0  0  0  0
  161.3650  200.1630  146.7070 C   0  0  0  0  0  2  0  0  0  0  0  0
  161.0450  199.0020  145.7780 C   0  0  0  0  0  1  0  0  0  0  0  0
  1 39  1  6  0  0  0
  1 25  1  0  0  0  0
  2  1  1  0  0  0  0
  3  2  1  0  0  0  0
  3  4  2  0  0  0  0
  5  3  1  0  0  0  0
  6  5  1  0  0  0  0
  7 13  1  1  0  0  0
  7  9  1  0  0  0  0
  7  8  1  0  0  0  0
  8 11  1  0  0  0  0
  9 10  1  0  0  0  0
 10 11  1  0  0  0  0
 10 12  1  1  0  0  0
 11  6  1  6  0  0  0
 14 13  2  0  0  0  0
 15 14  1  0  0  0  0
 16 15  1  0  0  0  0
 18 24  1  0  0  0  0
 18 16  1  1  0  0  0
 19 21  1  0  0  0  0
 20 22  1  0  0  0  0
 21 18  1  0  0  0  0
 21 24  1  1  0  0  0
 21 22  1  0  0  0  0
 22 17  1  6  0  0  0
 23 19  1  0  0  0  0
 23 20  1  0  0  0  0
 25 26  1  0  0  0  0
 26 28  1  0  0  0  0
 26 27  2  0  0  0  0
 29 28  1  0  0  0  0
 30 35  1  0  0  0  0
 31 29  1  6  0  0  0
 31 32  1  0  0  0  0
 32 33  1  0  0  0  0
 34 31  1  0  0  0  0
 34 30  2  0  0  0  0
 35 33  1  0  0  0  0
 36 38  2  0  0  0  0
 37 38  1  0  0  0  0
 38 34  1  0  0  0  0
 40 39  1  0  0  0  0
 41 40  1  0  0  0  0
 42 41  1  0  0  0  0
 43 42  1  0  0  0  0
 44 43  1  0  0  0  0
 45 44  1  0  0  0  0
 46 48  1  0  0  0  0
 46 45  1  1  0  0  0
 47 48  1  0  0  0  0
 49 46  1  0  0  0  0
 51 50  1  6  0  0  0
 51 49  1  0  0  0  0
 51 47  1  0  0  0  0
 52 54  1  0  0  0  0
 52 45  1  0  0  0  0
 54 53  1  6  0  0  0
 54 55  1  0  0  0  0
 56 55  1  0  0  0  0
M  END
>  <MODEL>
5

>  <REMARK>
 VINA RESULT:      -6.1      2.189      8.934
  Name = 
  25 active torsions:
  status: ('A' for Active; 'I' for Inactive)
    1  A    between atoms: C_1  and  C_32
    2  A    between atoms: C_3  and  C_9
    3  A    between atoms: C_3  and  C_25
    4  A    between atoms: C_4  and  C_35
    5  A    between atoms: C_5  and  C_25
    6  A    between atoms: C_5  and  C_35
    7  A    between atoms: C_7  and  N_13
    8  A    between atoms: C_9  and  N_11
    9  A    between atoms: C_9  and  C_15
   10  A    between atoms: C_12  and  C_21
   11  A    between atoms: C_12  and  C_55
   12  A    between atoms: N_13  and  O_51
   13  A    between atoms: N_13  and  C_53
   14  A    between atoms: C_14  and  N_54
   15  A    between atoms: C_14  and  C_56
   16  A    between atoms: C_15  and  C_21
   17  A    between atoms: C_27  and  N_46
   18  A    between atoms: C_28  and  C_44
   19  A    between atoms: C_29  and  C_53
   20  A    between atoms: C_29  and  C_55
   21  A    between atoms: C_32  and  O_51
   22  A    between atoms: C_33  and  C_56
   23  A    between atoms: C_36  and  N_54
   24  A    between atoms: C_42  and  C_47
   25  A    between atoms: N_46  and  C_47
                            x       y       z     vdW  Elec       q    Type
                         _______ _______ _______ _____ _____    ______ ____

>  <TORSDO>
F 25

$$$$
=
 OpenBabel11052411573D

 56 60  0  0  1  0  0  0  0  0999 V2000
  161.7660  209.6910  151.4040 C   0  0  1  0  0  3  0  0  0  0  0  0
  161.5800  210.8970  150.6040 N   0  0  0  0  0  2  0  0  0  0  0  0
  160.5970  211.8920  150.9050 C   0  0  0  0  0  0  0  0  0  0  0  0
  159.7670  211.7180  151.8410 O   0  0  0  0  0  0  0  0  0  0  0  0
  160.5340  213.1320  150.0830 C   0  0  0  0  0  2  0  0  0  0  0  0
  160.7500  212.8160  148.6820 N   0  0  0  0  0  2  0  0  0  0  0  0
  161.1290  213.3700  145.6090 C   0  0  0  0  0  0  0  0  0  0  0  0
  160.1450  214.4500  146.6450 S   0  0  0  0  0  0  0  0  0  0  0  0
  162.4940  213.0890  146.1200 C   0  0  0  0  0  2  0  0  0  0  0  0
  162.6260  213.8180  147.4410 C   0  0  1  0  0  3  0  0  0  0  0  0
  161.2350  214.0290  148.0330 C   0  0  2  0  0  3  0  0  0  0  0  0
  163.4490  213.1050  148.3120 O   0  0  0  0  0  1  0  0  0  0  0  0
  160.6840  212.6970  144.5400 C   0  0  0  0  0  3  0  0  0  0  0  0
  159.3780  212.7960  143.9510 N   0  0  0  0  0  2  0  0  0  0  0  0
  159.0280  213.5340  142.7470 C   0  0  0  0  0  2  0  0  0  0  0  0
  159.1140  212.6290  141.5350 C   0  0  0  0  0  2  0  0  0  0  0  0
  158.6910  210.9270  138.8970 C   0  0  0  0  0  1  0  0  0  0  0  0
  160.2980  211.6830  141.6650 C   0  0  1  0  0  3  0  0  0  0  0  0
  161.5120  209.9280  140.3520 O   0  0  0  0  0  0  0  0  0  0  0  0
  160.9720  210.5310  138.0910 C   0  0  0  0  0  2  0  0  0  0  0  0
  160.7200  211.0830  140.3260 C   0  0  1  0  0  0  0  0  0  0  0  0
  160.1310  211.4040  138.9730 C   0  0  2  0  0  3  0  0  0  0  0  0
  161.5230  209.4580  139.0240 C   0  0  0  0  0  2  0  0  0  0  0  0
  161.4790  212.2590  140.9030 C   0  0  0  0  0  2  0  0  0  0  0  0
  162.2760  208.5500  150.5290 C   0  0  0  0  0  2  0  0  0  0  0  0
  161.8820  208.7570  149.0970 C   0  0  0  0  0  0  0  0  0  0  0  0
  161.5510  209.8620  148.6990 O   0  0  0  0  0  0  0  0  0  0  0  0
  161.8930  207.5930  148.1580 C   0  0  0  0  0  2  0  0  0  0  0  0
  160.8750  206.5320  148.5620 C   0  0  0  0  0  2  0  0  0  0  0  0
  160.9130  202.9410  148.5930 C   0  0  0  0  0  3  0  0  0  0  0  0
  161.5400  205.2940  149.1590 C   0  0  1  0  0  3  0  0  0  0  0  0
  160.9530  205.0340  150.5570 C   0  0  0  0  0  2  0  0  0  0  0  0
  161.1050  203.5780  150.9740 C   0  0  0  0  0  2  0  0  0  0  0  0
  161.4210  204.1190  148.1990 C   0  0  0  0  0  0  0  0  0  0  0  0
  160.3540  202.7220  149.9620 C   0  0  0  0  0  2  0  0  0  0  0  0
  163.0560  204.8650  146.6450 O   0  0  0  0  0  1  0  0  0  0  0  0
  161.3840  203.5750  145.7700 O   0  0  0  0  0  0  0  0  0  0  0  0
  161.9970  204.2140  146.8440 C   0  0  0  0  0  0  0  0  0  0  0  0
  162.7830  209.9680  152.4950 C   0  0  0  0  0  2  0  0  0  0  0  0
  162.1140  210.5890  153.7040 C   0  0  0  0  0  2  0  0  0  0  0  0
  163.0500  210.5300  154.8990 C   0  0  0  0  0  2  0  0  0  0  0  0
  162.4040  211.0950  156.1560 C   0  0  0  0  0  2  0  0  0  0  0  0
  161.9410  209.9840  157.0830 C   0  0  0  0  0  2  0  0  0  0  0  0
  160.4340  210.0390  157.2580 C   0  0  0  0  0  2  0  0  0  0  0  0
  159.7700  209.3240  156.1670 N   0  0  0  0  0  0  0  0  0  0  0  0
  158.9560  210.2470  155.3600 C   0  0  2  0  0  3  0  0  0  0  0  0
  157.9400  212.3000  155.6080 O   0  0  0  0  0  0  0  0  0  0  0  0
  159.1890  211.7000  155.6780 C   0  0  0  0  0  2  0  0  0  0  0  0
  157.5960  210.0040  155.5490 O   0  0  0  0  0  0  0  0  0  0  0  0
  155.7720  211.4680  155.0590 C   0  0  0  0  0  1  0  0  0  0  0  0
  157.0370  211.2560  155.8640 C   0  0  2  0  0  3  0  0  0  0  0  0
  160.7350  208.8080  155.3620 O   0  0  0  0  0  0  0  0  0  0  0  0
  159.3580  207.0860  156.2930 C   0  0  0  0  0  1  0  0  0  0  0  0
  160.5560  207.4220  155.4220 C   0  0  1  0  0  3  0  0  0  0  0  0
  160.4020  206.8390  154.0220 C   0  0  0  0  0  2  0  0  0  0  0  0
  161.7190  206.3240  153.4630 C   0  0  0  0  0  1  0  0  0  0  0  0
  1 25  1  6  0  0  0
  1 39  1  0  0  0  0
  2  3  1  0  0  0  0
  2  1  1  0  0  0  0
  3  4  2  0  0  0  0
  5  3  1  0  0  0  0
  6  5  1  0  0  0  0
  7  9  1  0  0  0  0
  7  8  1  0  0  0  0
  8 11  1  0  0  0  0
  9 10  1  0  0  0  0
 10 11  1  0  0  0  0
 10 12  1  1  0  0  0
 11  6  1  6  0  0  0
 13  7  2  0  0  0  0
 14 13  1  0  0  0  0
 15 14  1  0  0  0  0
 16 15  1  0  0  0  0
 18 16  1  6  0  0  0
 20 22  1  0  0  0  0
 20 23  1  0  0  0  0
 21 19  1  0  0  0  0
 21 24  1  6  0  0  0
 21 18  1  0  0  0  0
 22 17  1  1  0  0  0
 22 21  1  0  0  0  0
 23 19  1  0  0  0  0
 24 18  1  0  0  0  0
 26 25  1  0  0  0  0
 27 26  2  0  0  0  0
 28 29  1  0  0  0  0
 28 26  1  0  0  0  0
 30 35  1  0  0  0  0
 31 29  1  6  0  0  0
 31 32  1  0  0  0  0
 32 33  1  0  0  0  0
 34 30  2  0  0  0  0
 34 31  1  0  0  0  0
 35 33  1  0  0  0  0
 36 38  1  0  0  0  0
 37 38  2  0  0  0  0
 38 34  1  0  0  0  0
 39 40  1  0  0  0  0
 40 41  1  0  0  0  0
 41 42  1  0  0  0  0
 42 43  1  0  0  0  0
 43 44  1  0  0  0  0
 45 44  1  0  0  0  0
 46 49  1  0  0  0  0
 46 48  1  0  0  0  0
 46 45  1  1  0  0  0
 47 48  1  0  0  0  0
 47 51  1  0  0  0  0
 49 51  1  0  0  0  0
 51 50  1  6  0  0  0
 52 54  1  0  0  0  0
 52 45  1  0  0  0  0
 54 53  1  1  0  0  0
 55 54  1  0  0  0  0
 56 55  1  0  0  0  0
M  END
>  <MODEL>
6

>  <REMARK>
 VINA RESULT:      -6.0      1.761      3.347
  Name = 
  25 active torsions:
  status: ('A' for Active; 'I' for Inactive)
    1  A    between atoms: C_1  and  C_32
    2  A    between atoms: C_3  and  C_9
    3  A    between atoms: C_3  and  C_25
    4  A    between atoms: C_4  and  C_35
    5  A    between atoms: C_5  and  C_25
    6  A    between atoms: C_5  and  C_35
    7  A    between atoms: C_7  and  N_13
    8  A    between atoms: C_9  and  N_11
    9  A    between atoms: C_9  and  C_15
   10  A    between atoms: C_12  and  C_21
   11  A    between atoms: C_12  and  C_55
   12  A    between atoms: N_13  and  O_51
   13  A    between atoms: N_13  and  C_53
   14  A    between atoms: C_14  and  N_54
   15  A    between atoms: C_14  and  C_56
   16  A    between atoms: C_15  and  C_21
   17  A    between atoms: C_27  and  N_46
   18  A    between atoms: C_28  and  C_44
   19  A    between atoms: C_29  and  C_53
   20  A    between atoms: C_29  and  C_55
   21  A    between atoms: C_32  and  O_51
   22  A    between atoms: C_33  and  C_56
   23  A    between atoms: C_36  and  N_54
   24  A    between atoms: C_42  and  C_47
   25  A    between atoms: N_46  and  C_47
                            x       y       z     vdW  Elec       q    Type
                         _______ _______ _______ _____ _____    ______ ____

>  <TORSDO>
F 25

$$$$
=
 OpenBabel11052411573D

 56 60  0  0  1  0  0  0  0  0999 V2000
  161.1390  212.3820  149.4590 C   0  0  1  0  0  3  0  0  0  0  0  0
  160.2060  213.1250  150.2990 N   0  0  0  0  0  2  0  0  0  0  0  0
  158.9420  213.6020  149.8320 C   0  0  0  0  0  0  0  0  0  0  0  0
  158.6130  213.4810  148.6180 O   0  0  0  0  0  0  0  0  0  0  0  0
  158.0160  214.2780  150.7840 C   0  0  0  0  0  2  0  0  0  0  0  0
  158.0060  213.5760  152.0550 N   0  0  0  0  0  2  0  0  0  0  0  0
  157.3810  213.0050  155.0850 C   0  0  0  0  0  0  0  0  0  0  0  0
  158.3180  214.4430  154.5730 S   0  0  0  0  0  0  0  0  0  0  0  0
  156.0840  212.8240  154.3840 C   0  0  0  0  0  2  0  0  0  0  0  0
  155.9660  213.9540  153.3820 C   0  0  1  0  0  3  0  0  0  0  0  0
  157.3650  214.4530  153.0300 C   0  0  2  0  0  3  0  0  0  0  0  0
  155.2740  213.5310  152.2480 O   0  0  0  0  0  1  0  0  0  0  0  0
  157.8200  212.0360  155.8990 C   0  0  0  0  0  3  0  0  0  0  0  0
  159.0700  212.0160  156.6050 N   0  0  0  0  0  2  0  0  0  0  0  0
  160.3520  211.5740  156.0780 C   0  0  0  0  0  2  0  0  0  0  0  0
  160.1450  210.4810  155.0480 C   0  0  0  0  0  2  0  0  0  0  0  0
  160.4580  208.6300  152.4980 C   0  0  0  0  0  1  0  0  0  0  0  0
  160.0780  209.1220  155.7270 C   0  0  1  0  0  3  0  0  0  0  0  0
  160.3900  206.6920  155.2030 O   0  0  0  0  0  0  0  0  0  0  0  0
  161.8480  206.7740  153.2960 C   0  0  0  0  0  2  0  0  0  0  0  0
  160.7220  208.0170  154.8930 C   0  0  1  0  0  0  0  0  0  0  0  0
  161.4360  208.1890  153.5730 C   0  0  2  0  0  3  0  0  0  0  0  0
  160.9010  205.9250  154.1370 C   0  0  0  0  0  2  0  0  0  0  0  0
  161.4890  208.6510  156.0350 C   0  0  0  0  0  2  0  0  0  0  0  0
  162.2390  213.3060  148.9450 C   0  0  0  0  0  2  0  0  0  0  0  0
  162.6480  212.9280  147.5530 C   0  0  0  0  0  0  0  0  0  0  0  0
  163.6110  212.2030  147.3660 O   0  0  0  0  0  0  0  0  0  0  0  0
  161.8670  213.4530  146.3910 C   0  0  0  0  0  2  0  0  0  0  0  0
  162.7120  213.5140  145.1230 C   0  0  0  0  0  2  0  0  0  0  0  0
  160.3990  211.8360  142.9480 C   0  0  0  0  0  3  0  0  0  0  0  0
  161.8550  213.6490  143.8670 C   0  0  1  0  0  3  0  0  0  0  0  0
  162.7460  213.4560  142.6280 C   0  0  0  0  0  2  0  0  0  0  0  0
  161.9430  213.0090  141.4150 C   0  0  0  0  0  2  0  0  0  0  0  0
  160.6660  212.7020  143.9390 C   0  0  0  0  0  0  0  0  0  0  0  0
  161.2860  211.6770  141.7560 C   0  0  0  0  0  2  0  0  0  0  0  0
  159.4520  211.8320  145.7870 O   0  0  0  0  0  1  0  0  0  0  0  0
  159.0480  214.0260  145.2900 O   0  0  0  0  0  0  0  0  0  0  0  0
  159.6970  212.8190  145.0440 C   0  0  0  0  0  0  0  0  0  0  0  0
  161.7710  211.2710  150.2750 C   0  0  0  0  0  2  0  0  0  0  0  0
  162.2060  210.1300  149.3780 C   0  0  0  0  0  2  0  0  0  0  0  0
  161.9180  208.8010  150.0550 C   0  0  0  0  0  2  0  0  0  0  0  0
  161.6640  207.6910  149.0450 C   0  0  0  0  0  2  0  0  0  0  0  0
  162.3090  206.3880  149.4860 C   0  0  0  0  0  2  0  0  0  0  0  0
  162.4730  205.4550  148.3000 C   0  0  0  0  0  2  0  0  0  0  0  0
  161.3270  204.5490  148.2050 N   0  0  0  0  0  0  0  0  0  0  0  0
  160.8020  204.5170  146.8310 C   0  0  2  0  0  3  0  0  0  0  0  0
  161.4890  203.8050  144.7500 O   0  0  0  0  0  0  0  0  0  0  0  0
  161.2620  203.3250  146.0320 C   0  0  0  0  0  2  0  0  0  0  0  0
  161.1920  205.6530  146.1240 O   0  0  0  0  0  0  0  0  0  0  0  0
  161.2220  205.9560  143.7530 C   0  0  0  0  0  1  0  0  0  0  0  0
  161.7600  205.1700  144.9310 C   0  0  2  0  0  3  0  0  0  0  0  0
  161.7610  203.3000  148.5150 O   0  0  0  0  0  0  0  0  0  0  0  0
  160.4950  201.2690  148.5580 C   0  0  0  0  0  1  0  0  0  0  0  0
  160.6650  202.6720  149.1160 C   0  0  1  0  0  3  0  0  0  0  0  0
  160.8240  202.6470  150.6310 C   0  0  0  0  0  2  0  0  0  0  0  0
  160.9200  204.0440  151.2250 C   0  0  0  0  0  1  0  0  0  0  0  0
  1 25  1  1  0  0  0
  1 39  1  0  0  0  0
  1  2  1  0  0  0  0
  3  2  1  0  0  0  0
  3  5  1  0  0  0  0
  4  3  2  0  0  0  0
  5  6  1  0  0  0  0
  7 13  2  0  0  0  0
  8  7  1  0  0  0  0
  9  7  1  0  0  0  0
 10 12  1  6  0  0  0
 10  9  1  0  0  0  0
 11  6  1  6  0  0  0
 11 10  1  0  0  0  0
 11  8  1  0  0  0  0
 13 14  1  0  0  0  0
 15 14  1  0  0  0  0
 16 15  1  0  0  0  0
 18 16  1  6  0  0  0
 18 24  1  0  0  0  0
 20 22  1  0  0  0  0
 20 23  1  0  0  0  0
 21 19  1  0  0  0  0
 21 18  1  0  0  0  0
 21 24  1  1  0  0  0
 22 17  1  6  0  0  0
 22 21  1  0  0  0  0
 23 19  1  0  0  0  0
 26 25  1  0  0  0  0
 27 26  2  0  0  0  0
 28 26  1  0  0  0  0
 29 28  1  0  0  0  0
 30 34  2  0  0  0  0
 31 34  1  0  0  0  0
 31 29  1  1  0  0  0
 32 31  1  0  0  0  0
 33 35  1  0  0  0  0
 33 32  1  0  0  0  0
 34 38  1  0  0  0  0
 35 30  1  0  0  0  0
 38 37  2  0  0  0  0
 38 36  1  0  0  0  0
 40 41  1  0  0  0  0
 40 39  1  0  0  0  0
 42 43  1  0  0  0  0
 42 41  1  0  0  0  0
 44 43  1  0  0  0  0
 45 44  1  0  0  0  0
 45 52  1  0  0  0  0
 46 45  1  1  0  0  0
 47 51  1  0  0  0  0
 47 48  1  0  0  0  0
 48 46  1  0  0  0  0
 49 46  1  0  0  0  0
 51 50  1  6  0  0  0
 51 49  1  0  0  0  0
 52 54  1  0  0  0  0
 54 53  1  6  0  0  0
 54 55  1  0  0  0  0
 55 56  1  0  0  0  0
M  END
>  <MODEL>
7

>  <REMARK>
 VINA RESULT:      -5.4      3.052     11.198
  Name = 
  25 active torsions:
  status: ('A' for Active; 'I' for Inactive)
    1  A    between atoms: C_1  and  C_32
    2  A    between atoms: C_3  and  C_9
    3  A    between atoms: C_3  and  C_25
    4  A    between atoms: C_4  and  C_35
    5  A    between atoms: C_5  and  C_25
    6  A    between atoms: C_5  and  C_35
    7  A    between atoms: C_7  and  N_13
    8  A    between atoms: C_9  and  N_11
    9  A    between atoms: C_9  and  C_15
   10  A    between atoms: C_12  and  C_21
   11  A    between atoms: C_12  and  C_55
   12  A    between atoms: N_13  and  O_51
   13  A    between atoms: N_13  and  C_53
   14  A    between atoms: C_14  and  N_54
   15  A    between atoms: C_14  and  C_56
   16  A    between atoms: C_15  and  C_21
   17  A    between atoms: C_27  and  N_46
   18  A    between atoms: C_28  and  C_44
   19  A    between atoms: C_29  and  C_53
   20  A    between atoms: C_29  and  C_55
   21  A    between atoms: C_32  and  O_51
   22  A    between atoms: C_33  and  C_56
   23  A    between atoms: C_36  and  N_54
   24  A    between atoms: C_42  and  C_47
   25  A    between atoms: N_46  and  C_47
                            x       y       z     vdW  Elec       q    Type
                         _______ _______ _______ _____ _____    ______ ____

>  <TORSDO>
F 25

$$$$
=
 OpenBabel11052411573D

 56 60  0  0  1  0  0  0  0  0999 V2000
  161.6680  210.1780  149.1260 C   0  0  1  0  0  3  0  0  0  0  0  0
  161.9900  211.0430  147.9960 N   0  0  0  0  0  2  0  0  0  0  0  0
  161.0370  211.9160  147.3830 C   0  0  0  0  0  0  0  0  0  0  0  0
  159.8250  211.9040  147.7410 O   0  0  0  0  0  0  0  0  0  0  0  0
  161.4750  212.8260  146.2880 C   0  0  0  0  0  2  0  0  0  0  0  0
  160.6370  212.6410  145.1170 N   0  0  0  0  0  2  0  0  0  0  0  0
  161.8950  213.1070  142.2720 C   0  0  0  0  0  0  0  0  0  0  0  0
  160.1940  213.5420  142.6310 S   0  0  0  0  0  0  0  0  0  0  0  0
  162.8930  213.6520  143.2280 C   0  0  0  0  0  2  0  0  0  0  0  0
  162.1190  214.4200  144.2790 C   0  0  1  0  0  3  0  0  0  0  0  0
  160.6940  213.8760  144.3430 C   0  0  2  0  0  3  0  0  0  0  0  0
  162.7550  214.3300  145.5170 O   0  0  0  0  0  1  0  0  0  0  0  0
  162.2970  212.2320  141.3420 C   0  0  0  0  0  3  0  0  0  0  0  0
  161.4640  211.5630  140.3820 N   0  0  0  0  0  2  0  0  0  0  0  0
  161.5150  211.7200  138.9370 C   0  0  0  0  0  2  0  0  0  0  0  0
  160.1210  211.9410  138.3850 C   0  0  0  0  0  2  0  0  0  0  0  0
  157.5220  213.2920  137.1810 C   0  0  0  0  0  1  0  0  0  0  0  0
  159.0820  211.3390  139.3190 C   0  0  1  0  0  3  0  0  0  0  0  0
  156.5950  211.1890  139.5880 O   0  0  0  0  0  0  0  0  0  0  0  0
  155.8260  211.5280  137.3390 C   0  0  0  0  0  2  0  0  0  0  0  0
  157.6790  211.3410  138.7140 C   0  0  1  0  0  0  0  0  0  0  0  0
  157.3010  211.7960  137.3250 C   0  0  2  0  0  3  0  0  0  0  0  0
  155.4550  211.4900  138.8170 C   0  0  0  0  0  2  0  0  0  0  0  0
  158.5170  210.0790  138.6850 C   0  0  0  0  0  2  0  0  0  0  0  0
  162.4610  208.8780  149.0380 C   0  0  0  0  0  2  0  0  0  0  0  0
  161.5470  207.7080  148.8240 C   0  0  0  0  0  0  0  0  0  0  0  0
  160.7520  207.7050  147.8980 O   0  0  0  0  0  0  0  0  0  0  0  0
  161.6130  206.5450  149.7610 C   0  0  0  0  0  2  0  0  0  0  0  0
  160.6160  205.4550  149.3790 C   0  0  0  0  0  2  0  0  0  0  0  0
  160.7410  202.2300  147.8050 C   0  0  0  0  0  3  0  0  0  0  0  0
  161.2390  204.0620  149.4320 C   0  0  1  0  0  3  0  0  0  0  0  0
  160.5000  203.2210  150.4880 C   0  0  0  0  0  2  0  0  0  0  0  0
  160.6390  201.7290  150.2230 C   0  0  0  0  0  2  0  0  0  0  0  0
  161.2610  203.4450  148.0410 C   0  0  0  0  0  0  0  0  0  0  0  0
  160.0320  201.4380  148.8560 C   0  0  0  0  0  2  0  0  0  0  0  0
  161.4500  204.2660  145.8190 O   0  0  0  0  0  0  0  0  0  0  0  0
  163.2730  204.6100  147.1540 O   0  0  0  0  0  1  0  0  0  0  0  0
  161.9880  204.1180  146.9480 C   0  0  0  0  0  0  0  0  0  0  0  0
  162.0290  210.8880  150.4170 C   0  0  0  0  0  2  0  0  0  0  0  0
  160.8190  210.9990  151.3220 C   0  0  0  0  0  2  0  0  0  0  0  0
  160.0600  212.2790  151.0160 C   0  0  0  0  0  2  0  0  0  0  0  0
  159.7030  213.0450  152.2820 C   0  0  0  0  0  2  0  0  0  0  0  0
  158.3720  212.5820  152.8490 C   0  0  0  0  0  2  0  0  0  0  0  0
  158.4790  211.1470  153.3320 C   0  0  0  0  0  2  0  0  0  0  0  0
  158.9970  211.1090  154.7010 N   0  0  0  0  0  0  0  0  0  0  0  0
  157.8940  211.0400  155.6720 C   0  0  2  0  0  3  0  0  0  0  0  0
  155.5940  211.1700  155.6660 O   0  0  0  0  0  0  0  0  0  0  0  0
  156.6340  210.4310  155.1180 C   0  0  0  0  0  2  0  0  0  0  0  0
  157.5610  212.3120  156.1350 O   0  0  0  0  0  0  0  0  0  0  0  0
  155.5360  212.9870  157.2110 C   0  0  0  0  0  1  0  0  0  0  0  0
  156.1690  212.4160  155.9590 C   0  0  2  0  0  3  0  0  0  0  0  0
  159.7390  209.9780  154.8320 O   0  0  0  0  0  0  0  0  0  0  0  0
  160.4450  208.6380  156.6840 C   0  0  0  0  0  1  0  0  0  0  0  0
  160.2710  210.0380  156.1230 C   0  0  1  0  0  3  0  0  0  0  0  0
  161.5910  210.8010  156.1270 C   0  0  0  0  0  2  0  0  0  0  0  0
  162.6180  210.1730  157.0560 C   0  0  0  0  0  1  0  0  0  0  0  0
  1 25  1  6  0  0  0
  1 39  1  0  0  0  0
  2  1  1  0  0  0  0
  3  4  2  0  0  0  0
  3  2  1  0  0  0  0
  5  3  1  0  0  0  0
  6  5  1  0  0  0  0
  7  8  1  0  0  0  0
  7  9  1  0  0  0  0
  8 11  1  0  0  0  0
  9 10  1  0  0  0  0
 10 11  1  0  0  0  0
 10 12  1  1  0  0  0
 11  6  1  1  0  0  0
 13  7  2  0  0  0  0
 14 13  1  0  0  0  0
 15 14  1  0  0  0  0
 16 15  1  0  0  0  0
 18 16  1  6  0  0  0
 20 23  1  0  0  0  0
 21 24  1  6  0  0  0
 21 18  1  0  0  0  0
 21 19  1  0  0  0  0
 22 17  1  1  0  0  0
 22 20  1  0  0  0  0
 22 21  1  0  0  0  0
 23 19  1  0  0  0  0
 24 18  1  0  0  0  0
 26 25  1  0  0  0  0
 26 28  1  0  0  0  0
 27 26  2  0  0  0  0
 29 28  1  0  0  0  0
 30 34  2  0  0  0  0
 30 35  1  0  0  0  0
 31 29  1  6  0  0  0
 31 32  1  0  0  0  0
 33 32  1  0  0  0  0
 34 31  1  0  0  0  0
 35 33  1  0  0  0  0
 36 38  2  0  0  0  0
 38 37  1  0  0  0  0
 38 34  1  0  0  0  0
 39 40  1  0  0  0  0
 41 40  1  0  0  0  0
 41 42  1  0  0  0  0
 42 43  1  0  0  0  0
 43 44  1  0  0  0  0
 44 45  1  0  0  0  0
 45 52  1  0  0  0  0
 46 45  1  6  0  0  0
 46 49  1  0  0  0  0
 47 51  1  0  0  0  0
 48 47  1  0  0  0  0
 48 46  1  0  0  0  0
 51 49  1  0  0  0  0
 51 50  1  1  0  0  0
 52 54  1  0  0  0  0
 54 55  1  0  0  0  0
 54 53  1  6  0  0  0
 55 56  1  0  0  0  0
M  END
>  <MODEL>
8

>  <REMARK>
 VINA RESULT:      -5.4      2.259      3.838
  Name = 
  25 active torsions:
  status: ('A' for Active; 'I' for Inactive)
    1  A    between atoms: C_1  and  C_32
    2  A    between atoms: C_3  and  C_9
    3  A    between atoms: C_3  and  C_25
    4  A    between atoms: C_4  and  C_35
    5  A    between atoms: C_5  and  C_25
    6  A    between atoms: C_5  and  C_35
    7  A    between atoms: C_7  and  N_13
    8  A    between atoms: C_9  and  N_11
    9  A    between atoms: C_9  and  C_15
   10  A    between atoms: C_12  and  C_21
   11  A    between atoms: C_12  and  C_55
   12  A    between atoms: N_13  and  O_51
   13  A    between atoms: N_13  and  C_53
   14  A    between atoms: C_14  and  N_54
   15  A    between atoms: C_14  and  C_56
   16  A    between atoms: C_15  and  C_21
   17  A    between atoms: C_27  and  N_46
   18  A    between atoms: C_28  and  C_44
   19  A    between atoms: C_29  and  C_53
   20  A    between atoms: C_29  and  C_55
   21  A    between atoms: C_32  and  O_51
   22  A    between atoms: C_33  and  C_56
   23  A    between atoms: C_36  and  N_54
   24  A    between atoms: C_42  and  C_47
   25  A    between atoms: N_46  and  C_47
                            x       y       z     vdW  Elec       q    Type
                         _______ _______ _______ _____ _____    ______ ____

>  <TORSDO>
F 25

$$$$
=
 OpenBabel11052411573D

 56 60  0  0  1  0  0  0  0  0999 V2000
  162.0330  209.2100  151.5790 C   0  0  1  0  0  3  0  0  0  0  0  0
  162.2850  209.7260  150.2380 N   0  0  0  0  0  2  0  0  0  0  0  0
  161.9540  211.0580  149.8370 C   0  0  0  0  0  0  0  0  0  0  0  0
  161.3290  211.8310  150.6160 O   0  0  0  0  0  0  0  0  0  0  0  0
  162.3240  211.5250  148.4720 C   0  0  0  0  0  2  0  0  0  0  0  0
  161.1780  211.4400  147.5850 N   0  0  0  0  0  2  0  0  0  0  0  0
  161.2690  213.0290  144.8720 C   0  0  0  0  0  0  0  0  0  0  0  0
  159.7470  212.8320  145.7950 S   0  0  0  0  0  0  0  0  0  0  0  0
  162.4140  213.5490  145.6610 C   0  0  0  0  0  2  0  0  0  0  0  0
  161.9210  213.7330  147.0810 C   0  0  1  0  0  3  0  0  0  0  0  0
  160.7330  212.8030  147.3170 C   0  0  2  0  0  3  0  0  0  0  0  0
  162.9490  213.4890  147.9900 O   0  0  0  0  0  1  0  0  0  0  0  0
  161.4820  212.6050  143.6190 C   0  0  0  0  0  3  0  0  0  0  0  0
  160.5100  212.0200  142.7390 N   0  0  0  0  0  2  0  0  0  0  0  0
  159.9810  212.6130  141.5200 C   0  0  0  0  0  2  0  0  0  0  0  0
  160.4830  211.8540  140.3090 C   0  0  0  0  0  2  0  0  0  0  0  0
  159.2040  209.3530  138.8460 C   0  0  0  0  0  1  0  0  0  0  0  0
  161.4850  210.7900  140.7300 C   0  0  1  0  0  3  0  0  0  0  0  0
  162.0600  208.3970  140.2620 O   0  0  0  0  0  0  0  0  0  0  0  0
  161.1500  208.0840  138.0620 C   0  0  0  0  0  2  0  0  0  0  0  0
  161.4930  209.5870  139.7890 C   0  0  1  0  0  0  0  0  0  0  0  0
  160.6860  209.4330  138.5220 C   0  0  2  0  0  3  0  0  0  0  0  0
  161.6980  207.4150  139.3180 C   0  0  0  0  0  2  0  0  0  0  0  0
  162.5520  210.6620  139.6550 C   0  0  0  0  0  2  0  0  0  0  0  0
  160.5970  209.5110  152.0000 C   0  0  0  0  0  2  0  0  0  0  0  0
  160.5610  210.1590  153.3510 C   0  0  0  0  0  0  0  0  0  0  0  0
  161.4240  209.9150  154.1790 O   0  0  0  0  0  0  0  0  0  0  0  0
  159.4540  211.1080  153.6800 C   0  0  0  0  0  2  0  0  0  0  0  0
  159.9840  212.4890  154.0510 C   0  0  0  0  0  2  0  0  0  0  0  0
  156.5720  213.2040  154.9170 C   0  0  0  0  0  3  0  0  0  0  0  0
  158.8860  213.5500  154.0340 C   0  0  1  0  0  3  0  0  0  0  0  0
  158.2600  213.6020  152.6300 C   0  0  0  0  0  2  0  0  0  0  0  0
  156.8480  214.1700  152.6580 C   0  0  0  0  0  2  0  0  0  0  0  0
  157.8900  213.2930  155.1560 C   0  0  0  0  0  0  0  0  0  0  0  0
  155.9980  213.2630  153.5380 C   0  0  0  0  0  2  0  0  0  0  0  0
  158.3730  214.3410  157.2330 O   0  0  0  0  0  1  0  0  0  0  0  0
  158.7490  212.0880  157.1570 O   0  0  0  0  0  0  0  0  0  0  0  0
  158.3490  213.2780  156.5580 C   0  0  0  0  0  0  0  0  0  0  0  0
  162.2440  207.7080  151.5850 C   0  0  0  0  0  2  0  0  0  0  0  0
  160.9800  206.9920  152.0140 C   0  0  0  0  0  2  0  0  0  0  0  0
  160.2670  206.4270  150.7980 C   0  0  0  0  0  2  0  0  0  0  0  0
  161.2230  205.6900  149.8700 C   0  0  0  0  0  2  0  0  0  0  0  0
  160.7450  204.2730  149.6000 C   0  0  0  0  0  2  0  0  0  0  0  0
  161.8410  203.4680  148.9270 C   0  0  0  0  0  2  0  0  0  0  0  0
  161.4920  203.2020  147.5310 N   0  0  0  0  0  0  0  0  0  0  0  0
  160.8370  201.8920  147.3990 C   0  0  2  0  0  3  0  0  0  0  0  0
  161.3250  199.6810  147.8260 O   0  0  0  0  0  0  0  0  0  0  0  0
  161.2280  200.9070  148.4690 C   0  0  0  0  0  2  0  0  0  0  0  0
  161.1450  201.3030  146.1740 O   0  0  0  0  0  0  0  0  0  0  0  0
  160.9420  198.9990  145.5720 C   0  0  0  0  0  1  0  0  0  0  0  0
  161.5990  200.0090  146.4900 C   0  0  2  0  0  3  0  0  0  0  0  0
  160.6060  204.1540  147.1370 O   0  0  0  0  0  0  0  0  0  0  0  0
  162.4640  204.1310  145.6290 C   0  0  0  0  0  1  0  0  0  0  0  0
  161.2890  204.9170  146.1850 C   0  0  1  0  0  3  0  0  0  0  0  0
  160.3460  205.3590  145.0730 C   0  0  0  0  0  2  0  0  0  0  0  0
  159.7910  204.1820  144.2850 C   0  0  0  0  0  1  0  0  0  0  0  0
  1 39  1  6  0  0  0
  1 25  1  0  0  0  0
  2  1  1  0  0  0  0
  3  2  1  0  0  0  0
  3  4  2  0  0  0  0
  5  3  1  0  0  0  0
  6  5  1  0  0  0  0
  7  9  1  0  0  0  0
  7  8  1  0  0  0  0
  8 11  1  0  0  0  0
  9 10  1  0  0  0  0
 10 11  1  0  0  0  0
 10 12  1  1  0  0  0
 11  6  1  6  0  0  0
 13  7  2  0  0  0  0
 14 13  1  0  0  0  0
 15 14  1  0  0  0  0
 16 15  1  0  0  0  0
 18 16  1  6  0  0  0
 20 22  1  0  0  0  0
 20 23  1  0  0  0  0
 21 24  1  6  0  0  0
 21 19  1  0  0  0  0
 21 18  1  0  0  0  0
 22 17  1  1  0  0  0
 22 21  1  0  0  0  0
 23 19  1  0  0  0  0
 24 18  1  0  0  0  0
 25 26  1  0  0  0  0
 26 28  1  0  0  0  0
 26 27  2  0  0  0  0
 28 29  1  0  0  0  0
 30 34  2  0  0  0  0
 31 29  1  6  0  0  0
 31 34  1  0  0  0  0
 32 33  1  0  0  0  0
 32 31  1  0  0  0  0
 33 35  1  0  0  0  0
 34 38  1  0  0  0  0
 35 30  1  0  0  0  0
 38 37  2  0  0  0  0
 38 36  1  0  0  0  0
 39 40  1  0  0  0  0
 41 40  1  0  0  0  0
 42 41  1  0  0  0  0
 43 42  1  0  0  0  0
 44 43  1  0  0  0  0
 45 44  1  0  0  0  0
 46 45  1  1  0  0  0
 46 48  1  0  0  0  0
 47 48  1  0  0  0  0
 49 51  1  0  0  0  0
 49 46  1  0  0  0  0
 51 50  1  6  0  0  0
 51 47  1  0  0  0  0
 52 45  1  0  0  0  0
 54 53  1  6  0  0  0
 54 52  1  0  0  0  0
 55 54  1  0  0  0  0
 56 55  1  0  0  0  0
M  END
>  <MODEL>
9

>  <REMARK>
 VINA RESULT:      -5.4      2.019      8.782
  Name = 
  25 active torsions:
  status: ('A' for Active; 'I' for Inactive)
    1  A    between atoms: C_1  and  C_32
    2  A    between atoms: C_3  and  C_9
    3  A    between atoms: C_3  and  C_25
    4  A    between atoms: C_4  and  C_35
    5  A    between atoms: C_5  and  C_25
    6  A    between atoms: C_5  and  C_35
    7  A    between atoms: C_7  and  N_13
    8  A    between atoms: C_9  and  N_11
    9  A    between atoms: C_9  and  C_15
   10  A    between atoms: C_12  and  C_21
   11  A    between atoms: C_12  and  C_55
   12  A    between atoms: N_13  and  O_51
   13  A    between atoms: N_13  and  C_53
   14  A    between atoms: C_14  and  N_54
   15  A    between atoms: C_14  and  C_56
   16  A    between atoms: C_15  and  C_21
   17  A    between atoms: C_27  and  N_46
   18  A    between atoms: C_28  and  C_44
   19  A    between atoms: C_29  and  C_53
   20  A    between atoms: C_29  and  C_55
   21  A    between atoms: C_32  and  O_51
   22  A    between atoms: C_33  and  C_56
   23  A    between atoms: C_36  and  N_54
   24  A    between atoms: C_42  and  C_47
   25  A    between atoms: N_46  and  C_47
                            x       y       z     vdW  Elec       q    Type
                         _______ _______ _______ _____ _____    ______ ____

>  <TORSDO>
F 25

$$$$
