=
 OpenBabel11042422003D

 46 52  0  0  1  0  0  0  0  0999 V2000
  161.1890  210.9280  153.2620 N   0  0  0  0  0  2  0  0  0  0  0  0
  160.3970  211.5710  154.2990 C   0  0  1  0  0  3  0  0  0  0  0  0
  159.3040  213.7310  152.8730 O   0  0  0  0  0  1  0  0  0  0  0  0
  158.8620  211.5870  154.0200 C   0  0  2  0  0  3  0  0  0  0  0  0
  157.4610  213.8040  156.6270 C   0  0  0  0  0  2  0  0  0  0  0  0
  158.3530  212.7300  153.1030 C   0  0  1  0  0  3  0  0  0  0  0  0
  157.9600  212.7010  154.5720 C   0  0  1  0  0  0  0  0  0  0  0  0
  156.1360  213.2680  156.0660 C   0  0  2  0  0  3  0  0  0  0  0  0
  156.5420  212.2900  154.9440 C   0  0  1  0  0  3  0  0  0  0  0  0
  158.4700  213.7890  155.4930 C   0  0  0  0  0  2  0  0  0  0  0  0
  155.6380  212.3200  153.7970 N   0  0  0  0  0  1  0  0  0  0  0  0
  153.9190  214.4490  156.3780 C   0  0  0  0  0  1  0  0  0  0  0  0
  155.2340  214.4340  155.6120 C   0  0  2  0  0  3  0  0  0  0  0  0
  154.9400  214.3050  154.2520 O   0  0  0  0  0  1  0  0  0  0  0  0
  161.8020  209.1010  156.1890 C   0  0  0  0  0  0  0  0  0  0  0  0
  160.7690  207.0420  156.6030 C   0  0  0  0  0  3  0  0  0  0  0  0
  160.7940  211.1320  155.7190 C   0  0  2  0  0  3  0  0  0  0  0  0
  161.9080  207.7910  156.5200 N   0  0  0  0  0  0  0  0  0  0  0  0
  159.5140  207.6420  156.3620 C   0  0  0  0  0  3  0  0  0  0  0  0
  162.3030  211.1910  155.8760 C   0  0  0  0  0  3  0  0  0  0  0  0
  160.5980  209.6760  155.9480 C   0  0  0  0  0  0  0  0  0  0  0  0
  159.4430  208.9690  156.0430 N   0  0  0  0  0  0  0  0  0  0  0  0
  162.8550  210.0420  156.1420 N   0  0  0  0  0  0  0  0  0  0  0  0
  160.4300  209.7770  152.8020 C   0  0  0  0  0  2  0  0  0  0  0  0
  161.3560  208.6080  152.4970 C   0  0  0  0  0  2  0  0  0  0  0  0
  160.5860  207.3030  152.3670 C   0  0  0  0  0  2  0  0  0  0  0  0
  161.0500  203.7560  152.4100 C   0  0  0  0  0  3  0  0  0  0  0  0
  161.1710  204.9970  152.7870 C   0  0  0  0  0  0  0  0  0  0  0  0
  161.2810  206.2420  153.1440 C   0  0  0  0  0  3  0  0  0  0  0  0
  161.5470  203.3410  151.0690 C   0  0  0  0  0  2  0  0  0  0  0  0
  160.5380  202.4200  150.4000 C   0  0  0  0  0  2  0  0  0  0  0  0
  161.3390  202.8390  146.9240 C   0  0  0  0  0  0  0  0  0  0  0  0
  160.5320  201.2640  148.2390 N   0  0  0  0  0  0  0  0  0  0  0  0
  160.8040  202.3310  148.9730 N   0  0  0  0  0  0  0  0  0  0  0  0
  160.8410  201.5470  146.9590 C   0  0  0  0  0  3  0  0  0  0  0  0
  161.2790  203.3300  148.2110 C   0  0  0  0  0  3  0  0  0  0  0  0
  161.7000  203.6300  145.7110 C   0  0  0  0  0  2  0  0  0  0  0  0
  160.6210  204.6630  145.3830 C   0  0  1  0  0  3  0  0  0  0  0  0
  160.8650  206.0460  145.9020 C   0  0  2  0  0  3  0  0  0  0  0  0
  161.1790  205.6780  144.5810 O   0  0  0  0  0  0  0  0  0  0  0  0
  162.1610  206.2620  146.6830 C   0  0  0  0  0  2  0  0  0  0  0  0
  161.9040  207.0000  147.9900 C   0  0  0  0  0  0  0  0  0  0  0  0
  161.7440  206.0680  149.1660 C   0  0  0  0  0  2  0  0  0  0  0  0
  160.5400  206.8220  148.6200 C   0  0  0  0  0  2  0  0  0  0  0  0
  161.7910  209.2210  148.8730 O   0  0  0  0  0  1  0  0  0  0  0  0
  162.6610  208.2660  148.3460 C   0  0  0  0  0  2  0  0  0  0  0  0
  2  1  1  6  0  0  0
  4  2  1  1  0  0  0
  4  7  1  0  0  0  0
  6  3  1  1  0  0  0
  6  4  1  0  0  0  0
  6  7  1  0  0  0  0
  7  9  1  0  0  0  0
  7 10  1  1  0  0  0
  8 13  1  6  0  0  0
  8  5  1  0  0  0  0
  9 11  1  6  0  0  0
  9  8  1  0  0  0  0
 10  5  1  0  0  0  0
 13 12  1  1  0  0  0
 14 13  1  0  0  0  0
 15 18  2  0  0  0  0
 17  2  1  6  0  0  0
 17 20  1  0  0  0  0
 17 21  1  0  0  0  0
 18 16  1  0  0  0  0
 19 16  2  0  0  0  0
 20 23  2  0  0  0  0
 21 22  2  0  0  0  0
 21 15  1  0  0  0  0
 22 19  1  0  0  0  0
 23 15  1  0  0  0  0
 24  1  1  0  0  0  0
 25 24  1  0  0  0  0
 26 25  1  0  0  0  0
 26 29  1  0  0  0  0
 27 28  2  0  0  0  0
 28 29  2  0  0  0  0
 30 27  1  0  0  0  0
 31 30  1  0  0  0  0
 32 35  1  0  0  0  0
 32 36  2  0  0  0  0
 33 34  1  0  0  0  0
 34 31  1  0  0  0  0
 35 33  2  0  0  0  0
 36 34  1  0  0  0  0
 37 32  1  0  0  0  0
 38 37  1  1  0  0  0
 38 39  1  0  0  0  0
 39 41  1  1  0  0  0
 40 38  1  0  0  0  0
 40 39  1  0  0  0  0
 41 42  1  0  0  0  0
 42 46  1  0  0  0  0
 42 44  1  0  0  0  0
 42 43  1  0  0  0  0
 44 43  1  0  0  0  0
 46 45  1  0  0  0  0
M  END
>  <MODEL>
1

>  <REMARK>
 VINA RESULT:      -7.2      0.000      0.000
  Name = 
  16 active torsions:
  status: ('A' for Active; 'I' for Inactive)
    1  A    between atoms: C_1  and  C_12
    2  A    between atoms: C_3  and  C_42
    3  A    between atoms: C_6  and  C_41
    4  A    between atoms: C_7  and  C_42
    5  A    between atoms: C_9  and  C_19
    6  A    between atoms: C_9  and  C_26
    7  A    between atoms: C_10  and  C_41
    8  A    between atoms: C_12  and  C_40
    9  A    between atoms: N_15  and  C_21
   10  A    between atoms: N_15  and  C_42
   11  A    between atoms: C_21  and  C_23
   12  A    between atoms: C_23  and  C_31
   13  A    between atoms: C_25  and  C_38
   14  A    between atoms: C_26  and  C_39
   15  A    between atoms: N_27  and  C_40
   16  A    between atoms: C_28  and  C_31
                            x       y       z     vdW  Elec       q    Type
                         _______ _______ _______ _____ _____    ______ ____

>  <TORSDO>
F 16

$$$$
=
 OpenBabel11042422003D

 46 52  0  0  1  0  0  0  0  0999 V2000
  161.9160  208.3560  152.0120 N   0  0  0  0  0  2  0  0  0  0  0  0
  161.0210  207.5240  152.8010 C   0  0  1  0  0  3  0  0  0  0  0  0
  163.2180  205.8570  152.2680 O   0  0  0  0  0  1  0  0  0  0  0  0
  160.7610  206.1080  152.2000 C   0  0  2  0  0  3  0  0  0  0  0  0
  161.3680  206.5050  148.5730 C   0  0  0  0  0  2  0  0  0  0  0  0
  162.0040  205.1880  152.0710 C   0  0  1  0  0  3  0  0  0  0  0  0
  161.3110  205.7100  150.8220 C   0  0  1  0  0  0  0  0  0  0  0  0
  160.7790  205.0880  148.5390 C   0  0  2  0  0  3  0  0  0  0  0  0
  160.4480  204.7550  150.0090 C   0  0  1  0  0  3  0  0  0  0  0  0
  162.0450  206.6800  149.9210 C   0  0  0  0  0  2  0  0  0  0  0  0
  160.6940  203.3570  150.3530 N   0  0  0  0  0  1  0  0  0  0  0  0
  162.3300  204.6980  146.5760 C   0  0  0  0  0  1  0  0  0  0  0  0
  161.7650  204.1130  147.8620 C   0  0  2  0  0  3  0  0  0  0  0  0
  161.1120  202.9210  147.5430 O   0  0  0  0  0  1  0  0  0  0  0  0
  160.1100  208.7100  155.8680 C   0  0  0  0  0  0  0  0  0  0  0  0
  160.3460  210.9480  156.5130 C   0  0  0  0  0  3  0  0  0  0  0  0
  161.3520  207.5400  154.3030 C   0  0  2  0  0  3  0  0  0  0  0  0
  159.7300  209.7390  156.6650 N   0  0  0  0  0  0  0  0  0  0  0  0
  161.3680  211.0990  155.5510 C   0  0  0  0  0  3  0  0  0  0  0  0
  160.3380  206.7050  155.0660 C   0  0  0  0  0  3  0  0  0  0  0  0
  161.0860  208.8570  154.9380 C   0  0  0  0  0  0  0  0  0  0  0  0
  161.7360  210.0370  154.7740 N   0  0  0  0  0  0  0  0  0  0  0  0
  159.6490  207.3770  155.9430 N   0  0  0  0  0  0  0  0  0  0  0  0
  161.1100  209.4280  151.4500 C   0  0  0  0  0  2  0  0  0  0  0  0
  161.9950  210.4670  150.7740 C   0  0  0  0  0  2  0  0  0  0  0  0
  161.9640  210.3270  149.2600 C   0  0  0  0  0  2  0  0  0  0  0  0
  160.9690  212.5040  146.6000 C   0  0  0  0  0  3  0  0  0  0  0  0
  161.6580  212.0730  147.6180 C   0  0  0  0  0  0  0  0  0  0  0  0
  162.3310  211.6280  148.6380 C   0  0  0  0  0  3  0  0  0  0  0  0
  159.5170  212.7920  146.7620 C   0  0  0  0  0  2  0  0  0  0  0  0
  158.8660  212.9750  145.4000 C   0  0  0  0  0  2  0  0  0  0  0  0
  161.1370  212.6000  142.6440 C   0  0  0  0  0  0  0  0  0  0  0  0
  160.8160  213.9930  144.3200 N   0  0  0  0  0  0  0  0  0  0  0  0
  159.8800  213.0590  144.3610 N   0  0  0  0  0  0  0  0  0  0  0  0
  161.6210  213.7340  143.2730 C   0  0  0  0  0  3  0  0  0  0  0  0
  160.0460  212.1690  143.3690 C   0  0  0  0  0  3  0  0  0  0  0  0
  161.7680  211.8630  141.5090 C   0  0  0  0  0  2  0  0  0  0  0  0
  160.9180  211.9640  140.2420 C   0  0  1  0  0  3  0  0  0  0  0  0
  160.7200  210.6870  139.4870 C   0  0  2  0  0  3  0  0  0  0  0  0
  159.7620  211.1730  140.3940 O   0  0  0  0  0  0  0  0  0  0  0  0
  161.3780  209.4390  140.0750 C   0  0  0  0  0  2  0  0  0  0  0  0
  161.4520  208.3160  139.0490 C   0  0  0  0  0  0  0  0  0  0  0  0
  161.8750  208.7980  137.6830 C   0  0  0  0  0  2  0  0  0  0  0  0
  160.4420  208.3490  137.9230 C   0  0  0  0  0  2  0  0  0  0  0  0
  161.9220  206.7210  140.7690 O   0  0  0  0  0  1  0  0  0  0  0  0
  162.0400  206.9620  139.3990 C   0  0  0  0  0  2  0  0  0  0  0  0
  2  1  1  6  0  0  0
  4  2  1  1  0  0  0
  5 10  1  0  0  0  0
  6  4  1  0  0  0  0
  6  3  1  1  0  0  0
  7 10  1  6  0  0  0
  7  6  1  0  0  0  0
  7  4  1  0  0  0  0
  8 13  1  1  0  0  0
  8  5  1  0  0  0  0
  8  9  1  0  0  0  0
  9 11  1  1  0  0  0
  9  7  1  0  0  0  0
 13 12  1  6  0  0  0
 14 13  1  0  0  0  0
 15 23  1  0  0  0  0
 15 18  2  0  0  0  0
 16 18  1  0  0  0  0
 17  2  1  6  0  0  0
 17 21  1  0  0  0  0
 17 20  1  0  0  0  0
 19 16  2  0  0  0  0
 20 23  2  0  0  0  0
 21 15  1  0  0  0  0
 22 21  2  0  0  0  0
 22 19  1  0  0  0  0
 24  1  1  0  0  0  0
 25 24  1  0  0  0  0
 26 25  1  0  0  0  0
 27 30  1  0  0  0  0
 27 28  2  0  0  0  0
 28 29  2  0  0  0  0
 29 26  1  0  0  0  0
 31 30  1  0  0  0  0
 32 35  1  0  0  0  0
 32 36  2  0  0  0  0
 33 34  1  0  0  0  0
 34 31  1  0  0  0  0
 35 33  2  0  0  0  0
 36 34  1  0  0  0  0
 37 32  1  0  0  0  0
 38 40  1  0  0  0  0
 38 37  1  1  0  0  0
 39 41  1  1  0  0  0
 39 38  1  0  0  0  0
 39 40  1  0  0  0  0
 42 46  1  0  0  0  0
 42 41  1  0  0  0  0
 43 44  1  0  0  0  0
 43 42  1  0  0  0  0
 44 42  1  0  0  0  0
 46 45  1  0  0  0  0
M  END
>  <MODEL>
2

>  <REMARK>
 VINA RESULT:      -6.6      4.883      8.976
  Name = 
  16 active torsions:
  status: ('A' for Active; 'I' for Inactive)
    1  A    between atoms: C_1  and  C_12
    2  A    between atoms: C_3  and  C_42
    3  A    between atoms: C_6  and  C_41
    4  A    between atoms: C_7  and  C_42
    5  A    between atoms: C_9  and  C_19
    6  A    between atoms: C_9  and  C_26
    7  A    between atoms: C_10  and  C_41
    8  A    between atoms: C_12  and  C_40
    9  A    between atoms: N_15  and  C_21
   10  A    between atoms: N_15  and  C_42
   11  A    between atoms: C_21  and  C_23
   12  A    between atoms: C_23  and  C_31
   13  A    between atoms: C_25  and  C_38
   14  A    between atoms: C_26  and  C_39
   15  A    between atoms: N_27  and  C_40
   16  A    between atoms: C_28  and  C_31
                            x       y       z     vdW  Elec       q    Type
                         _______ _______ _______ _____ _____    ______ ____

>  <TORSDO>
F 16

$$$$
=
 OpenBabel11042422003D

 46 52  0  0  1  0  0  0  0  0999 V2000
  162.1460  208.8190  151.3940 N   0  0  0  0  0  2  0  0  0  0  0  0
  161.2090  208.0530  152.2000 C   0  0  1  0  0  3  0  0  0  0  0  0
  163.2490  206.1500  151.8690 O   0  0  0  0  0  1  0  0  0  0  0  0
  160.8440  206.6550  151.6120 C   0  0  2  0  0  3  0  0  0  0  0  0
  161.7500  206.8820  148.0330 C   0  0  0  0  0  2  0  0  0  0  0  0
  161.9880  205.6080  151.5960 C   0  0  1  0  0  3  0  0  0  0  0  0
  161.4470  206.1630  150.2870 C   0  0  1  0  0  0  0  0  0  0  0  0
  161.0180  205.5330  147.9850 C   0  0  2  0  0  3  0  0  0  0  0  0
  160.5480  205.2800  149.4320 C   0  0  1  0  0  3  0  0  0  0  0  0
  162.3440  207.0230  149.4240 C   0  0  0  0  0  2  0  0  0  0  0  0
  160.6190  203.8740  149.8240 N   0  0  0  0  0  1  0  0  0  0  0  0
  162.9280  205.0240  146.4030 C   0  0  0  0  0  1  0  0  0  0  0  0
  161.9410  204.4420  147.4050 C   0  0  2  0  0  3  0  0  0  0  0  0
  161.1790  203.4740  146.7470 O   0  0  0  0  0  1  0  0  0  0  0  0
  160.1340  208.8320  155.3440 C   0  0  0  0  0  0  0  0  0  0  0  0
  159.8920  211.0250  156.1240 C   0  0  0  0  0  3  0  0  0  0  0  0
  161.5640  208.0540  153.6980 C   0  0  2  0  0  3  0  0  0  0  0  0
  159.5570  209.7040  156.2070 N   0  0  0  0  0  0  0  0  0  0  0  0
  160.8350  211.4520  155.1630 C   0  0  0  0  0  3  0  0  0  0  0  0
  160.7740  206.9750  154.4170 C   0  0  0  0  0  3  0  0  0  0  0  0
  161.0320  209.2420  154.4150 C   0  0  0  0  0  0  0  0  0  0  0  0
  161.4060  210.5430  154.3180 N   0  0  0  0  0  0  0  0  0  0  0  0
  159.9760  207.4280  155.3410 N   0  0  0  0  0  0  0  0  0  0  0  0
  161.4250  209.9780  150.8940 C   0  0  0  0  0  2  0  0  0  0  0  0
  162.3450  210.8710  150.0730 C   0  0  0  0  0  2  0  0  0  0  0  0
  161.8260  211.0570  148.6550 C   0  0  0  0  0  2  0  0  0  0  0  0
  161.6650  213.4480  145.9990 C   0  0  0  0  0  3  0  0  0  0  0  0
  161.6050  212.9830  147.2140 C   0  0  0  0  0  0  0  0  0  0  0  0
  161.5460  212.4990  148.4200 C   0  0  0  0  0  3  0  0  0  0  0  0
  160.7370  212.9190  144.9610 C   0  0  0  0  0  2  0  0  0  0  0  0
  160.7800  213.8020  143.7230 C   0  0  0  0  0  2  0  0  0  0  0  0
  159.9270  212.1540  140.6490 C   0  0  0  0  0  0  0  0  0  0  0  0
  161.4280  211.9530  142.2500 N   0  0  0  0  0  0  0  0  0  0  0  0
  160.6560  212.9930  142.5210 N   0  0  0  0  0  0  0  0  0  0  0  0
  160.9970  211.4010  141.1000 C   0  0  0  0  0  3  0  0  0  0  0  0
  159.7070  213.1450  141.5820 C   0  0  0  0  0  3  0  0  0  0  0  0
  159.0500  211.8570  139.4780 C   0  0  0  0  0  2  0  0  0  0  0  0
  158.9330  210.3510  139.2420 C   0  0  1  0  0  3  0  0  0  0  0  0
  157.5660  209.8490  138.8960 C   0  0  2  0  0  3  0  0  0  0  0  0
  158.5340  210.1180  137.9120 O   0  0  0  0  0  0  0  0  0  0  0  0
  156.4580  210.8980  138.8080 C   0  0  0  0  0  2  0  0  0  0  0  0
  155.0800  210.2610  138.9270 C   0  0  0  0  0  0  0  0  0  0  0  0
  155.1150  208.9170  139.6130 C   0  0  0  0  0  2  0  0  0  0  0  0
  154.8350  209.0050  138.1210 C   0  0  0  0  0  2  0  0  0  0  0  0
  154.2210  212.1230  140.1590 O   0  0  0  0  0  1  0  0  0  0  0  0
  153.8600  211.0790  139.3050 C   0  0  0  0  0  2  0  0  0  0  0  0
  2  1  1  6  0  0  0
  4  2  1  1  0  0  0
  5 10  1  0  0  0  0
  6  4  1  0  0  0  0
  6  3  1  1  0  0  0
  7 10  1  6  0  0  0
  7  6  1  0  0  0  0
  7  4  1  0  0  0  0
  8 13  1  1  0  0  0
  8  5  1  0  0  0  0
  8  9  1  0  0  0  0
  9 11  1  1  0  0  0
  9  7  1  0  0  0  0
 13 12  1  6  0  0  0
 14 13  1  0  0  0  0
 15 18  2  0  0  0  0
 16 18  1  0  0  0  0
 17  2  1  6  0  0  0
 17 21  1  0  0  0  0
 17 20  1  0  0  0  0
 19 16  2  0  0  0  0
 20 23  2  0  0  0  0
 21 15  1  0  0  0  0
 22 21  2  0  0  0  0
 22 19  1  0  0  0  0
 23 15  1  0  0  0  0
 24  1  1  0  0  0  0
 25 24  1  0  0  0  0
 26 25  1  0  0  0  0
 27 28  2  0  0  0  0
 28 29  2  0  0  0  0
 29 26  1  0  0  0  0
 30 27  1  0  0  0  0
 31 30  1  0  0  0  0
 32 35  1  0  0  0  0
 32 36  2  0  0  0  0
 33 34  1  0  0  0  0
 34 31  1  0  0  0  0
 35 33  2  0  0  0  0
 36 34  1  0  0  0  0
 37 32  1  0  0  0  0
 38 37  1  6  0  0  0
 39 41  1  6  0  0  0
 39 38  1  0  0  0  0
 40 39  1  0  0  0  0
 40 38  1  0  0  0  0
 41 42  1  0  0  0  0
 42 46  1  0  0  0  0
 42 43  1  0  0  0  0
 44 42  1  0  0  0  0
 44 43  1  0  0  0  0
 46 45  1  0  0  0  0
M  END
>  <MODEL>
3

>  <REMARK>
 VINA RESULT:      -6.6      5.883      9.568
  Name = 
  16 active torsions:
  status: ('A' for Active; 'I' for Inactive)
    1  A    between atoms: C_1  and  C_12
    2  A    between atoms: C_3  and  C_42
    3  A    between atoms: C_6  and  C_41
    4  A    between atoms: C_7  and  C_42
    5  A    between atoms: C_9  and  C_19
    6  A    between atoms: C_9  and  C_26
    7  A    between atoms: C_10  and  C_41
    8  A    between atoms: C_12  and  C_40
    9  A    between atoms: N_15  and  C_21
   10  A    between atoms: N_15  and  C_42
   11  A    between atoms: C_21  and  C_23
   12  A    between atoms: C_23  and  C_31
   13  A    between atoms: C_25  and  C_38
   14  A    between atoms: C_26  and  C_39
   15  A    between atoms: N_27  and  C_40
   16  A    between atoms: C_28  and  C_31
                            x       y       z     vdW  Elec       q    Type
                         _______ _______ _______ _____ _____    ______ ____

>  <TORSDO>
F 16

$$$$
=
 OpenBabel11042422003D

 46 52  0  0  1  0  0  0  0  0999 V2000
  162.0570  208.6680  151.6610 N   0  0  0  0  0  2  0  0  0  0  0  0
  161.1520  207.8400  152.4400 C   0  0  1  0  0  3  0  0  0  0  0  0
  163.2910  206.0880  151.9440 O   0  0  0  0  0  1  0  0  0  0  0  0
  160.8500  206.4450  151.8100 C   0  0  2  0  0  3  0  0  0  0  0  0
  161.5790  206.8700  148.2090 C   0  0  0  0  0  2  0  0  0  0  0  0
  162.0560  205.4760  151.7010 C   0  0  1  0  0  3  0  0  0  0  0  0
  161.4230  206.0450  150.4420 C   0  0  1  0  0  0  0  0  0  0  0  0
  160.9320  205.4790  148.1350 C   0  0  2  0  0  3  0  0  0  0  0  0
  160.5450  205.1390  149.5890 C   0  0  1  0  0  3  0  0  0  0  0  0
  162.2240  206.9950  149.5780 C   0  0  0  0  0  2  0  0  0  0  0  0
  160.7210  203.7270  149.9180 N   0  0  0  0  0  1  0  0  0  0  0  0
  162.8090  205.1600  146.4660 C   0  0  0  0  0  1  0  0  0  0  0  0
  161.8960  204.4740  147.4710 C   0  0  2  0  0  3  0  0  0  0  0  0
  161.1670  203.4940  146.7930 O   0  0  0  0  0  1  0  0  0  0  0  0
  160.1490  208.7310  155.5780 C   0  0  0  0  0  0  0  0  0  0  0  0
  160.1170  210.9400  156.3490 C   0  0  0  0  0  3  0  0  0  0  0  0
  161.5010  207.8120  153.9390 C   0  0  2  0  0  3  0  0  0  0  0  0
  159.6570  209.6580  156.4360 N   0  0  0  0  0  0  0  0  0  0  0  0
  161.0990  211.2700  155.3900 C   0  0  0  0  0  3  0  0  0  0  0  0
  160.6090  206.8170  154.6600 C   0  0  0  0  0  3  0  0  0  0  0  0
  161.0850  209.0490  154.6500 C   0  0  0  0  0  0  0  0  0  0  0  0
  161.5820  210.3070  154.5490 N   0  0  0  0  0  0  0  0  0  0  0  0
  159.8560  207.3480  155.5800 N   0  0  0  0  0  0  0  0  0  0  0  0
  161.2720  209.7730  151.1340 C   0  0  0  0  0  2  0  0  0  0  0  0
  162.1770  210.8270  150.5110 C   0  0  0  0  0  2  0  0  0  0  0  0
  162.0000  210.8950  149.0020 C   0  0  0  0  0  2  0  0  0  0  0  0
  160.9330  212.7740  146.1510 C   0  0  0  0  0  3  0  0  0  0  0  0
  161.2700  212.5360  147.3860 C   0  0  0  0  0  0  0  0  0  0  0  0
  161.6060  212.2760  148.6150 C   0  0  0  0  0  3  0  0  0  0  0  0
  159.7500  212.0850  145.5630 C   0  0  0  0  0  2  0  0  0  0  0  0
  159.4170  212.6840  144.2060 C   0  0  0  0  0  2  0  0  0  0  0  0
  161.8270  211.8880  141.6660 C   0  0  0  0  0  0  0  0  0  0  0  0
  161.7250  213.1080  143.4980 N   0  0  0  0  0  0  0  0  0  0  0  0
  160.5460  212.5420  143.3000 N   0  0  0  0  0  0  0  0  0  0  0  0
  162.5500  212.7150  142.5090 C   0  0  0  0  0  3  0  0  0  0  0  0
  160.5630  211.7670  142.2030 C   0  0  0  0  0  3  0  0  0  0  0  0
  162.3500  211.1170  140.4990 C   0  0  0  0  0  2  0  0  0  0  0  0
  161.5400  209.8400  140.2720 C   0  0  1  0  0  3  0  0  0  0  0  0
  160.6380  209.8450  139.0770 C   0  0  2  0  0  3  0  0  0  0  0  0
  161.9180  209.2620  139.0450 O   0  0  0  0  0  0  0  0  0  0  0  0
  160.6440  211.1130  138.2240 C   0  0  0  0  0  2  0  0  0  0  0  0
  159.3990  211.9540  138.4730 C   0  0  0  0  0  0  0  0  0  0  0  0
  159.2480  213.0830  137.4840 C   0  0  0  0  0  2  0  0  0  0  0  0
  159.6150  213.3790  138.9300 C   0  0  0  0  0  2  0  0  0  0  0  0
  157.5420  210.6370  137.7350 O   0  0  0  0  0  1  0  0  0  0  0  0
  158.0720  211.3130  138.8360 C   0  0  0  0  0  2  0  0  0  0  0  0
  2  1  1  6  0  0  0
  4  2  1  1  0  0  0
  5 10  1  0  0  0  0
  6  4  1  0  0  0  0
  6  3  1  1  0  0  0
  7 10  1  6  0  0  0
  7  6  1  0  0  0  0
  7  4  1  0  0  0  0
  8 13  1  1  0  0  0
  8  5  1  0  0  0  0
  8  9  1  0  0  0  0
  9 11  1  1  0  0  0
  9  7  1  0  0  0  0
 13 12  1  6  0  0  0
 14 13  1  0  0  0  0
 15 23  1  0  0  0  0
 15 18  2  0  0  0  0
 16 18  1  0  0  0  0
 17  2  1  6  0  0  0
 17 21  1  0  0  0  0
 17 20  1  0  0  0  0
 19 16  2  0  0  0  0
 20 23  2  0  0  0  0
 21 15  1  0  0  0  0
 22 21  2  0  0  0  0
 22 19  1  0  0  0  0
 24  1  1  0  0  0  0
 25 24  1  0  0  0  0
 26 25  1  0  0  0  0
 27 28  2  0  0  0  0
 28 29  2  0  0  0  0
 29 26  1  0  0  0  0
 30 27  1  0  0  0  0
 31 30  1  0  0  0  0
 32 36  2  0  0  0  0
 32 35  1  0  0  0  0
 34 33  1  0  0  0  0
 34 31  1  0  0  0  0
 35 33  2  0  0  0  0
 36 34  1  0  0  0  0
 37 32  1  0  0  0  0
 38 37  1  6  0  0  0
 39 41  1  6  0  0  0
 39 38  1  0  0  0  0
 40 39  1  0  0  0  0
 40 38  1  0  0  0  0
 41 42  1  0  0  0  0
 42 46  1  0  0  0  0
 42 44  1  0  0  0  0
 43 42  1  0  0  0  0
 43 44  1  0  0  0  0
 45 46  1  0  0  0  0
M  END
>  <MODEL>
4

>  <REMARK>
 VINA RESULT:      -6.5      5.473      9.255
  Name = 
  16 active torsions:
  status: ('A' for Active; 'I' for Inactive)
    1  A    between atoms: C_1  and  C_12
    2  A    between atoms: C_3  and  C_42
    3  A    between atoms: C_6  and  C_41
    4  A    between atoms: C_7  and  C_42
    5  A    between atoms: C_9  and  C_19
    6  A    between atoms: C_9  and  C_26
    7  A    between atoms: C_10  and  C_41
    8  A    between atoms: C_12  and  C_40
    9  A    between atoms: N_15  and  C_21
   10  A    between atoms: N_15  and  C_42
   11  A    between atoms: C_21  and  C_23
   12  A    between atoms: C_23  and  C_31
   13  A    between atoms: C_25  and  C_38
   14  A    between atoms: C_26  and  C_39
   15  A    between atoms: N_27  and  C_40
   16  A    between atoms: C_28  and  C_31
                            x       y       z     vdW  Elec       q    Type
                         _______ _______ _______ _____ _____    ______ ____

>  <TORSDO>
F 16

$$$$
=
 OpenBabel11042422003D

 46 52  0  0  1  0  0  0  0  0999 V2000
  162.1280  210.7080  150.4170 N   0  0  0  0  0  2  0  0  0  0  0  0
  161.0640  211.4950  151.0200 C   0  0  1  0  0  3  0  0  0  0  0  0
  159.9120  209.3370  152.4010 O   0  0  0  0  0  1  0  0  0  0  0  0
  161.0790  211.5080  152.5800 C   0  0  2  0  0  3  0  0  0  0  0  0
  157.7140  212.7100  153.5370 C   0  0  0  0  0  2  0  0  0  0  0  0
  160.5610  210.2200  153.2730 C   0  0  1  0  0  3  0  0  0  0  0  0
  159.7750  211.5160  153.3920 C   0  0  1  0  0  0  0  0  0  0  0  0
  158.3610  212.7510  154.9280 C   0  0  2  0  0  3  0  0  0  0  0  0
  159.8140  212.2780  154.7100 C   0  0  1  0  0  3  0  0  0  0  0  0
  158.4090  211.6130  152.7490 C   0  0  0  0  0  2  0  0  0  0  0  0
  160.3250  211.4610  155.8070 N   0  0  0  0  0  1  0  0  0  0  0  0
  156.2960  211.3280  155.2730 C   0  0  0  0  0  1  0  0  0  0  0  0
  157.5470  211.8980  155.9240 C   0  0  2  0  0  3  0  0  0  0  0  0
  157.1500  212.6830  157.0080 O   0  0  0  0  0  1  0  0  0  0  0  0
  160.1750  213.1600  148.1770 C   0  0  0  0  0  0  0  0  0  0  0  0
  161.4730  213.1810  146.2300 C   0  0  0  0  0  3  0  0  0  0  0  0
  160.8870  212.8740  150.3620 C   0  0  2  0  0  3  0  0  0  0  0  0
  160.2560  213.3170  146.8330 N   0  0  0  0  0  0  0  0  0  0  0  0
  162.6160  212.9000  147.0090 C   0  0  0  0  0  3  0  0  0  0  0  0
  159.4100  213.1890  150.2090 C   0  0  0  0  0  3  0  0  0  0  0  0
  161.2710  212.8800  148.9260 C   0  0  0  0  0  0  0  0  0  0  0  0
  162.5000  212.7610  148.3640 N   0  0  0  0  0  0  0  0  0  0  0  0
  159.0250  213.3490  148.9750 N   0  0  0  0  0  0  0  0  0  0  0  0
  161.4950  209.7720  149.5020 C   0  0  0  0  0  2  0  0  0  0  0  0
  162.0280  208.3620  149.7220 C   0  0  0  0  0  2  0  0  0  0  0  0
  162.3950  208.1240  151.1790 C   0  0  0  0  0  2  0  0  0  0  0  0
  161.5310  204.7140  151.8310 C   0  0  0  0  0  3  0  0  0  0  0  0
  162.2870  205.7430  151.5740 C   0  0  0  0  0  0  0  0  0  0  0  0
  163.0240  206.7830  151.3140 C   0  0  0  0  0  3  0  0  0  0  0  0
  160.4760  204.3130  150.8600 C   0  0  0  0  0  2  0  0  0  0  0  0
  160.1650  202.8320  151.0070 C   0  0  0  0  0  2  0  0  0  0  0  0
  161.0900  201.4860  147.8090 C   0  0  0  0  0  0  0  0  0  0  0  0
  161.2250  200.9020  149.9300 N   0  0  0  0  0  0  0  0  0  0  0  0
  160.6570  202.0950  149.8540 N   0  0  0  0  0  0  0  0  0  0  0  0
  161.4970  200.4880  148.6780 C   0  0  0  0  0  3  0  0  0  0  0  0
  160.5320  202.4870  148.5750 C   0  0  0  0  0  3  0  0  0  0  0  0
  161.0790  201.4290  146.3180 C   0  0  0  0  0  2  0  0  0  0  0  0
  159.7580  201.9560  145.7540 C   0  0  1  0  0  3  0  0  0  0  0  0
  159.8480  203.2220  144.9610 C   0  0  2  0  0  3  0  0  0  0  0  0
  159.8220  201.9570  144.3470 O   0  0  0  0  0  0  0  0  0  0  0  0
  161.2410  203.8290  144.8010 C   0  0  0  0  0  2  0  0  0  0  0  0
  161.4530  204.9940  145.7570 C   0  0  0  0  0  0  0  0  0  0  0  0
  162.7370  205.7420  145.4940 C   0  0  0  0  0  2  0  0  0  0  0  0
  162.5990  204.8760  146.7370 C   0  0  0  0  0  2  0  0  0  0  0  0
  160.3650  206.2020  147.5130 O   0  0  0  0  0  1  0  0  0  0  0  0
  160.3100  205.9130  146.1480 C   0  0  0  0  0  2  0  0  0  0  0  0
  2  1  1  6  0  0  0
  4  2  1  6  0  0  0
  4  6  1  0  0  0  0
  4  7  1  0  0  0  0
  5  8  1  0  0  0  0
  6  3  1  6  0  0  0
  6  7  1  0  0  0  0
  7 10  1  6  0  0  0
  7  9  1  0  0  0  0
  8 13  1  1  0  0  0
  9  8  1  0  0  0  0
  9 11  1  1  0  0  0
 10  5  1  0  0  0  0
 13 12  1  6  0  0  0
 13 14  1  0  0  0  0
 15 21  1  0  0  0  0
 15 23  1  0  0  0  0
 16 18  1  0  0  0  0
 16 19  2  0  0  0  0
 17  2  1  6  0  0  0
 18 15  2  0  0  0  0
 19 22  1  0  0  0  0
 20 17  1  0  0  0  0
 21 17  1  0  0  0  0
 22 21  2  0  0  0  0
 23 20  2  0  0  0  0
 24 25  1  0  0  0  0
 24  1  1  0  0  0  0
 25 26  1  0  0  0  0
 26 29  1  0  0  0  0
 28 27  2  0  0  0  0
 29 28  2  0  0  0  0
 30 31  1  0  0  0  0
 30 27  1  0  0  0  0
 32 36  2  0  0  0  0
 32 35  1  0  0  0  0
 34 33  1  0  0  0  0
 34 31  1  0  0  0  0
 35 33  2  0  0  0  0
 36 34  1  0  0  0  0
 37 32  1  0  0  0  0
 38 37  1  1  0  0  0
 39 41  1  1  0  0  0
 39 38  1  0  0  0  0
 40 39  1  0  0  0  0
 40 38  1  0  0  0  0
 41 42  1  0  0  0  0
 42 46  1  0  0  0  0
 42 44  1  0  0  0  0
 43 42  1  0  0  0  0
 43 44  1  0  0  0  0
 46 45  1  0  0  0  0
M  END
>  <MODEL>
5

>  <REMARK>
 VINA RESULT:      -5.8      2.845      4.931
  Name = 
  16 active torsions:
  status: ('A' for Active; 'I' for Inactive)
    1  A    between atoms: C_1  and  C_12
    2  A    between atoms: C_3  and  C_42
    3  A    between atoms: C_6  and  C_41
    4  A    between atoms: C_7  and  C_42
    5  A    between atoms: C_9  and  C_19
    6  A    between atoms: C_9  and  C_26
    7  A    between atoms: C_10  and  C_41
    8  A    between atoms: C_12  and  C_40
    9  A    between atoms: N_15  and  C_21
   10  A    between atoms: N_15  and  C_42
   11  A    between atoms: C_21  and  C_23
   12  A    between atoms: C_23  and  C_31
   13  A    between atoms: C_25  and  C_38
   14  A    between atoms: C_26  and  C_39
   15  A    between atoms: N_27  and  C_40
   16  A    between atoms: C_28  and  C_31
                            x       y       z     vdW  Elec       q    Type
                         _______ _______ _______ _____ _____    ______ ____

>  <TORSDO>
F 16

$$$$
=
 OpenBabel11042422003D

 46 52  0  0  1  0  0  0  0  0999 V2000
  162.1770  209.4150  152.8700 N   0  0  0  0  0  2  0  0  0  0  0  0
  160.9480  210.1890  152.8090 C   0  0  1  0  0  3  0  0  0  0  0  0
  160.8510  209.6290  155.5600 O   0  0  0  0  0  1  0  0  0  0  0  0
  160.8850  211.3790  153.8160 C   0  0  2  0  0  3  0  0  0  0  0  0
  157.3050  211.6730  154.6960 C   0  0  0  0  0  2  0  0  0  0  0  0
  160.9840  211.0020  155.3170 C   0  0  1  0  0  3  0  0  0  0  0  0
  159.6870  211.5670  154.7590 C   0  0  1  0  0  0  0  0  0  0  0  0
  157.7990  212.9600  155.3710 C   0  0  2  0  0  3  0  0  0  0  0  0
  159.3150  213.0070  155.0860 C   0  0  1  0  0  3  0  0  0  0  0  0
  158.4590  210.6850  154.7100 C   0  0  0  0  0  2  0  0  0  0  0  0
  160.0940  213.5410  156.1990 N   0  0  0  0  0  1  0  0  0  0  0  0
  156.2600  212.0190  157.1470 C   0  0  0  0  0  1  0  0  0  0  0  0
  157.4220  212.9610  156.8670 C   0  0  2  0  0  3  0  0  0  0  0  0
  157.0410  214.2460  157.2610 O   0  0  0  0  0  1  0  0  0  0  0  0
  160.7790  212.6360  150.4360 C   0  0  0  0  0  0  0  0  0  0  0  0
  159.3090  214.4530  150.5510 C   0  0  0  0  0  3  0  0  0  0  0  0
  160.5230  210.5330  151.3710 C   0  0  2  0  0  3  0  0  0  0  0  0
  160.4650  213.9040  150.0760 N   0  0  0  0  0  0  0  0  0  0  0  0
  158.4620  213.6920  151.3870 C   0  0  0  0  0  3  0  0  0  0  0  0
  161.7520  210.6940  150.4930 C   0  0  0  0  0  3  0  0  0  0  0  0
  159.9720  211.9070  151.2460 C   0  0  0  0  0  0  0  0  0  0  0  0
  158.8040  212.4110  151.7190 N   0  0  0  0  0  0  0  0  0  0  0  0
  161.8810  211.8810  149.9730 N   0  0  0  0  0  0  0  0  0  0  0  0
  162.1280  208.4550  151.7790 C   0  0  0  0  0  2  0  0  0  0  0  0
  160.9070  207.5550  151.9090 C   0  0  0  0  0  2  0  0  0  0  0  0
  160.8280  206.9160  153.2870 C   0  0  0  0  0  2  0  0  0  0  0  0
  160.8180  203.5060  152.2050 C   0  0  0  0  0  3  0  0  0  0  0  0
  161.2580  204.5970  152.7640 C   0  0  0  0  0  0  0  0  0  0  0  0
  161.6810  205.6980  153.3130 C   0  0  0  0  0  3  0  0  0  0  0  0
  160.5360  203.4890  150.7430 C   0  0  0  0  0  2  0  0  0  0  0  0
  160.8610  202.1210  150.1630 C   0  0  0  0  0  2  0  0  0  0  0  0
  161.4220  202.8940  146.7020 C   0  0  0  0  0  0  0  0  0  0  0  0
  160.4110  201.3350  147.8860 N   0  0  0  0  0  0  0  0  0  0  0  0
  160.9730  202.1990  148.7160 N   0  0  0  0  0  0  0  0  0  0  0  0
  160.6590  201.7410  146.6270 C   0  0  0  0  0  3  0  0  0  0  0  0
  161.5850  203.1850  148.0400 C   0  0  0  0  0  3  0  0  0  0  0  0
  161.8380  203.7710  145.5680 C   0  0  0  0  0  2  0  0  0  0  0  0
  160.6650  204.6090  145.0570 C   0  0  1  0  0  3  0  0  0  0  0  0
  160.7070  206.0650  145.4000 C   0  0  2  0  0  3  0  0  0  0  0  0
  161.1450  205.5790  144.1550 O   0  0  0  0  0  0  0  0  0  0  0  0
  161.9160  206.5420  146.2060 C   0  0  0  0  0  2  0  0  0  0  0  0
  161.5700  206.7070  147.6790 C   0  0  0  0  0  0  0  0  0  0  0  0
  161.9210  208.0740  148.2120 C   0  0  0  0  0  2  0  0  0  0  0  0
  162.7270  206.8570  148.6410 C   0  0  0  0  0  2  0  0  0  0  0  0
  160.0820  206.6410  149.5520 O   0  0  0  0  0  1  0  0  0  0  0  0
  160.2700  206.1730  148.2510 C   0  0  0  0  0  2  0  0  0  0  0  0
  2  1  1  6  0  0  0
  4  2  1  6  0  0  0
  4  7  1  0  0  0  0
  4  6  1  0  0  0  0
  5 10  1  0  0  0  0
  5  8  1  0  0  0  0
  6  3  1  6  0  0  0
  7 10  1  6  0  0  0
  7  9  1  0  0  0  0
  7  6  1  0  0  0  0
  8 13  1  1  0  0  0
  9  8  1  0  0  0  0
  9 11  1  1  0  0  0
 13 12  1  6  0  0  0
 13 14  1  0  0  0  0
 15 21  1  0  0  0  0
 16 19  2  0  0  0  0
 17  2  1  1  0  0  0
 18 15  2  0  0  0  0
 18 16  1  0  0  0  0
 19 22  1  0  0  0  0
 20 17  1  0  0  0  0
 21 17  1  0  0  0  0
 21 22  2  0  0  0  0
 23 15  1  0  0  0  0
 23 20  2  0  0  0  0
 24 25  1  0  0  0  0
 24  1  1  0  0  0  0
 25 26  1  0  0  0  0
 26 29  1  0  0  0  0
 27 28  2  0  0  0  0
 28 29  2  0  0  0  0
 30 27  1  0  0  0  0
 31 30  1  0  0  0  0
 32 36  2  0  0  0  0
 33 34  1  0  0  0  0
 34 31  1  0  0  0  0
 35 32  1  0  0  0  0
 35 33  2  0  0  0  0
 36 34  1  0  0  0  0
 37 32  1  0  0  0  0
 38 39  1  0  0  0  0
 38 37  1  1  0  0  0
 39 41  1  1  0  0  0
 40 38  1  0  0  0  0
 40 39  1  0  0  0  0
 41 42  1  0  0  0  0
 42 43  1  0  0  0  0
 42 46  1  0  0  0  0
 42 44  1  0  0  0  0
 43 44  1  0  0  0  0
 46 45  1  0  0  0  0
M  END
>  <MODEL>
6

>  <REMARK>
 VINA RESULT:      -5.6      2.005      3.685
  Name = 
  16 active torsions:
  status: ('A' for Active; 'I' for Inactive)
    1  A    between atoms: C_1  and  C_12
    2  A    between atoms: C_3  and  C_42
    3  A    between atoms: C_6  and  C_41
    4  A    between atoms: C_7  and  C_42
    5  A    between atoms: C_9  and  C_19
    6  A    between atoms: C_9  and  C_26
    7  A    between atoms: C_10  and  C_41
    8  A    between atoms: C_12  and  C_40
    9  A    between atoms: N_15  and  C_21
   10  A    between atoms: N_15  and  C_42
   11  A    between atoms: C_21  and  C_23
   12  A    between atoms: C_23  and  C_31
   13  A    between atoms: C_25  and  C_38
   14  A    between atoms: C_26  and  C_39
   15  A    between atoms: N_27  and  C_40
   16  A    between atoms: C_28  and  C_31
                            x       y       z     vdW  Elec       q    Type
                         _______ _______ _______ _____ _____    ______ ____

>  <TORSDO>
F 16

$$$$
=
 OpenBabel11042422003D

 46 52  0  0  1  0  0  0  0  0999 V2000
  161.2990  206.6980  147.5240 N   0  0  0  0  0  2  0  0  0  0  0  0
  162.2060  205.6540  147.9740 C   0  0  1  0  0  3  0  0  0  0  0  0
  159.6520  206.1990  149.0080 O   0  0  0  0  0  1  0  0  0  0  0  0
  161.7490  204.9180  149.2710 C   0  0  2  0  0  3  0  0  0  0  0  0
  162.3490  207.3530  151.9890 C   0  0  0  0  0  2  0  0  0  0  0  0
  160.2760  205.1540  149.7000 C   0  0  1  0  0  3  0  0  0  0  0  0
  161.4130  205.6920  150.5540 C   0  0  1  0  0  0  0  0  0  0  0  0
  162.0160  206.1340  152.8620 C   0  0  2  0  0  3  0  0  0  0  0  0
  161.7420  204.9890  151.8640 C   0  0  1  0  0  3  0  0  0  0  0  0
  161.5960  207.1890  150.6800 C   0  0  0  0  0  2  0  0  0  0  0  0
  160.6730  204.0920  152.2950 N   0  0  0  0  0  1  0  0  0  0  0  0
  160.4720  207.9320  153.7520 C   0  0  0  0  0  1  0  0  0  0  0  0
  160.8440  206.4570  153.8110 C   0  0  2  0  0  3  0  0  0  0  0  0
  161.2000  206.1550  155.1270 O   0  0  0  0  0  1  0  0  0  0  0  0
  161.2180  203.6370  145.4040 C   0  0  0  0  0  0  0  0  0  0  0  0
  160.1840  201.5600  145.7130 C   0  0  0  0  0  3  0  0  0  0  0  0
  162.6740  204.7310  146.8350 C   0  0  2  0  0  3  0  0  0  0  0  0
  160.4240  202.6490  144.9240 N   0  0  0  0  0  0  0  0  0  0  0  0
  160.7740  201.4760  146.9920 C   0  0  0  0  0  3  0  0  0  0  0  0
  162.4630  205.4140  145.4950 C   0  0  0  0  0  3  0  0  0  0  0  0
  161.7780  203.5610  146.6370 C   0  0  0  0  0  0  0  0  0  0  0  0
  161.5800  202.4850  147.4390 N   0  0  0  0  0  0  0  0  0  0  0  0
  161.6440  204.7860  144.7020 N   0  0  0  0  0  0  0  0  0  0  0  0
  162.1140  207.8650  147.2240 C   0  0  0  0  0  2  0  0  0  0  0  0
  162.2740  208.7410  148.4590 C   0  0  0  0  0  2  0  0  0  0  0  0
  161.5680  210.0780  148.2910 C   0  0  0  0  0  2  0  0  0  0  0  0
  163.1050  213.2250  147.5560 C   0  0  0  0  0  3  0  0  0  0  0  0
  162.7470  212.1870  148.2570 C   0  0  0  0  0  0  0  0  0  0  0  0
  162.3760  211.1450  148.9410 C   0  0  0  0  0  3  0  0  0  0  0  0
  162.0640  214.1210  146.9820 C   0  0  0  0  0  2  0  0  0  0  0  0
  162.3260  214.3450  145.5000 C   0  0  0  0  0  2  0  0  0  0  0  0
  160.7920  212.1670  143.0940 C   0  0  0  0  0  0  0  0  0  0  0  0
  160.2580  213.1280  145.0030 N   0  0  0  0  0  0  0  0  0  0  0  0
  161.5050  213.4500  144.7010 N   0  0  0  0  0  0  0  0  0  0  0  0
  159.7790  212.3410  144.0220 C   0  0  0  0  0  3  0  0  0  0  0  0
  161.8710  212.9050  143.5290 C   0  0  0  0  0  3  0  0  0  0  0  0
  160.6930  211.4720  141.7760 C   0  0  0  0  0  2  0  0  0  0  0  0
  162.0530  211.4100  141.0800 C   0  0  1  0  0  3  0  0  0  0  0  0
  162.2290  210.3010  140.0910 C   0  0  2  0  0  3  0  0  0  0  0  0
  161.8750  211.6030  139.6960 O   0  0  0  0  0  0  0  0  0  0  0  0
  161.0320  209.3720  139.8880 C   0  0  0  0  0  2  0  0  0  0  0  0
  161.2450  208.4440  138.7000 C   0  0  0  0  0  0  0  0  0  0  0  0
  161.3900  209.1880  137.3960 C   0  0  0  0  0  2  0  0  0  0  0  0
  160.1340  208.3780  137.6750 C   0  0  0  0  0  2  0  0  0  0  0  0
  161.9580  206.5640  139.9960 O   0  0  0  0  0  1  0  0  0  0  0  0
  162.1630  207.2400  138.7920 C   0  0  0  0  0  2  0  0  0  0  0  0
  2  1  1  6  0  0  0
  4  2  1  6  0  0  0
  4  6  1  0  0  0  0
  4  7  1  0  0  0  0
  5  8  1  0  0  0  0
  6  3  1  6  0  0  0
  6  7  1  0  0  0  0
  7 10  1  6  0  0  0
  7  9  1  0  0  0  0
  8 13  1  6  0  0  0
  9 11  1  1  0  0  0
  9  8  1  0  0  0  0
 10  5  1  0  0  0  0
 13 12  1  1  0  0  0
 13 14  1  0  0  0  0
 15 21  1  0  0  0  0
 16 19  2  0  0  0  0
 17  2  1  1  0  0  0
 18 15  2  0  0  0  0
 18 16  1  0  0  0  0
 19 22  1  0  0  0  0
 20 17  1  0  0  0  0
 21 17  1  0  0  0  0
 21 22  2  0  0  0  0
 23 15  1  0  0  0  0
 23 20  2  0  0  0  0
 24  1  1  0  0  0  0
 24 25  1  0  0  0  0
 26 25  1  0  0  0  0
 26 29  1  0  0  0  0
 27 28  2  0  0  0  0
 28 29  2  0  0  0  0
 30 27  1  0  0  0  0
 31 30  1  0  0  0  0
 32 36  2  0  0  0  0
 32 35  1  0  0  0  0
 34 33  1  0  0  0  0
 34 31  1  0  0  0  0
 35 33  2  0  0  0  0
 36 34  1  0  0  0  0
 37 32  1  0  0  0  0
 38 37  1  1  0  0  0
 39 41  1  1  0  0  0
 39 38  1  0  0  0  0
 40 39  1  0  0  0  0
 40 38  1  0  0  0  0
 42 46  1  0  0  0  0
 42 41  1  0  0  0  0
 43 44  1  0  0  0  0
 43 42  1  0  0  0  0
 44 42  1  0  0  0  0
 46 45  1  0  0  0  0
M  END
>  <MODEL>
7

>  <REMARK>
 VINA RESULT:      -5.5      4.981      9.924
  Name = 
  16 active torsions:
  status: ('A' for Active; 'I' for Inactive)
    1  A    between atoms: C_1  and  C_12
    2  A    between atoms: C_3  and  C_42
    3  A    between atoms: C_6  and  C_41
    4  A    between atoms: C_7  and  C_42
    5  A    between atoms: C_9  and  C_19
    6  A    between atoms: C_9  and  C_26
    7  A    between atoms: C_10  and  C_41
    8  A    between atoms: C_12  and  C_40
    9  A    between atoms: N_15  and  C_21
   10  A    between atoms: N_15  and  C_42
   11  A    between atoms: C_21  and  C_23
   12  A    between atoms: C_23  and  C_31
   13  A    between atoms: C_25  and  C_38
   14  A    between atoms: C_26  and  C_39
   15  A    between atoms: N_27  and  C_40
   16  A    between atoms: C_28  and  C_31
                            x       y       z     vdW  Elec       q    Type
                         _______ _______ _______ _____ _____    ______ ____

>  <TORSDO>
F 16

$$$$
=
 OpenBabel11042422003D

 46 52  0  0  1  0  0  0  0  0999 V2000
  161.5500  211.8130  150.7560 N   0  0  0  0  0  2  0  0  0  0  0  0
  160.3190  212.3880  151.2760 C   0  0  1  0  0  3  0  0  0  0  0  0
  159.7430  210.2550  153.0110 O   0  0  0  0  0  1  0  0  0  0  0  0
  160.3290  212.6480  152.8140 C   0  0  2  0  0  3  0  0  0  0  0  0
  156.7710  213.1140  153.7070 C   0  0  0  0  0  2  0  0  0  0  0  0
  160.1500  211.3960  153.7130 C   0  0  1  0  0  3  0  0  0  0  0  0
  159.0640  212.4600  153.6660 C   0  0  1  0  0  0  0  0  0  0  0  0
  157.3850  213.5300  155.0510 C   0  0  2  0  0  3  0  0  0  0  0  0
  158.9100  213.4030  154.8500 C   0  0  1  0  0  3  0  0  0  0  0  0
  157.7180  212.1130  153.0680 C   0  0  0  0  0  2  0  0  0  0  0  0
  159.6100  212.9200  156.0380 N   0  0  0  0  0  1  0  0  0  0  0  0
  156.0280  211.4810  155.6550 C   0  0  0  0  0  1  0  0  0  0  0  0
  156.8110  212.6690  156.1940 C   0  0  2  0  0  3  0  0  0  0  0  0
  155.9450  213.4350  156.9780 O   0  0  0  0  0  1  0  0  0  0  0  0
  159.4060  213.4000  148.1470 C   0  0  0  0  0  0  0  0  0  0  0  0
  160.9260  213.7340  146.3990 C   0  0  0  0  0  3  0  0  0  0  0  0
  159.7950  213.5570  150.4240 C   0  0  2  0  0  3  0  0  0  0  0  0
  159.6520  213.4710  146.8170 N   0  0  0  0  0  0  0  0  0  0  0  0
  161.9480  213.9420  147.3510 C   0  0  0  0  0  3  0  0  0  0  0  0
  158.3460  213.3090  150.0410 C   0  0  0  0  0  3  0  0  0  0  0  0
  160.3880  213.5900  149.0620 C   0  0  0  0  0  0  0  0  0  0  0  0
  161.6610  213.8750  148.6850 N   0  0  0  0  0  0  0  0  0  0  0  0
  158.1440  213.2250  148.7580 N   0  0  0  0  0  0  0  0  0  0  0  0
  161.3300  210.3800  150.6380 C   0  0  0  0  0  2  0  0  0  0  0  0
  161.7390  209.8850  149.2580 C   0  0  0  0  0  2  0  0  0  0  0  0
  161.7510  208.3660  149.1900 C   0  0  0  0  0  2  0  0  0  0  0  0
  162.3250  205.7970  146.7660 C   0  0  0  0  0  3  0  0  0  0  0  0
  162.5570  206.8630  147.4790 C   0  0  0  0  0  0  0  0  0  0  0  0
  162.7680  207.9270  148.1970 C   0  0  0  0  0  3  0  0  0  0  0  0
  161.1570  205.7680  145.8430 C   0  0  0  0  0  2  0  0  0  0  0  0
  161.2320  204.5430  144.9440 C   0  0  0  0  0  2  0  0  0  0  0  0
  161.1730  201.8450  147.3130 C   0  0  0  0  0  0  0  0  0  0  0  0
  160.4490  202.2440  145.2700 N   0  0  0  0  0  0  0  0  0  0  0  0
  161.0510  203.3300  145.7260 N   0  0  0  0  0  0  0  0  0  0  0  0
  160.5160  201.2970  146.2250 C   0  0  0  0  0  3  0  0  0  0  0  0
  161.5310  203.1300  146.9640 C   0  0  0  0  0  3  0  0  0  0  0  0
  161.5890  201.1390  148.5610 C   0  0  0  0  0  2  0  0  0  0  0  0
  160.4160  200.9930  149.5310 C   0  0  1  0  0  3  0  0  0  0  0  0
  160.4760  201.8450  150.7590 C   0  0  2  0  0  3  0  0  0  0  0  0
  159.7350  202.2220  149.6250 O   0  0  0  0  0  0  0  0  0  0  0  0
  161.6900  202.7640  150.8920 C   0  0  0  0  0  2  0  0  0  0  0  0
  161.2900  204.1440  151.3960 C   0  0  0  0  0  0  0  0  0  0  0  0
  160.7690  205.0390  150.2980 C   0  0  0  0  0  2  0  0  0  0  0  0
  162.1270  205.3130  150.9280 C   0  0  0  0  0  2  0  0  0  0  0  0
  161.2130  205.2120  153.5360 O   0  0  0  0  0  1  0  0  0  0  0  0
  160.5360  204.3210  152.7010 C   0  0  0  0  0  2  0  0  0  0  0  0
  2  1  1  6  0  0  0
  4  2  1  6  0  0  0
  4  7  1  0  0  0  0
  4  6  1  0  0  0  0
  5  8  1  0  0  0  0
  6  3  1  6  0  0  0
  7 10  1  6  0  0  0
  7  6  1  0  0  0  0
  7  9  1  0  0  0  0
  8 13  1  1  0  0  0
  9  8  1  0  0  0  0
  9 11  1  1  0  0  0
 10  5  1  0  0  0  0
 13 12  1  6  0  0  0
 13 14  1  0  0  0  0
 15 23  1  0  0  0  0
 15 21  1  0  0  0  0
 16 18  1  0  0  0  0
 16 19  2  0  0  0  0
 17  2  1  1  0  0  0
 18 15  2  0  0  0  0
 19 22  1  0  0  0  0
 20 17  1  0  0  0  0
 21 17  1  0  0  0  0
 22 21  2  0  0  0  0
 23 20  2  0  0  0  0
 24  1  1  0  0  0  0
 25 24  1  0  0  0  0
 26 25  1  0  0  0  0
 27 28  2  0  0  0  0
 28 29  2  0  0  0  0
 29 26  1  0  0  0  0
 30 27  1  0  0  0  0
 31 34  1  0  0  0  0
 31 30  1  0  0  0  0
 32 37  1  0  0  0  0
 33 34  1  0  0  0  0
 33 35  2  0  0  0  0
 34 36  1  0  0  0  0
 35 32  1  0  0  0  0
 36 32  2  0  0  0  0
 38 37  1  6  0  0  0
 38 40  1  0  0  0  0
 38 39  1  0  0  0  0
 39 41  1  6  0  0  0
 40 39  1  0  0  0  0
 41 42  1  0  0  0  0
 42 46  1  0  0  0  0
 43 44  1  0  0  0  0
 43 42  1  0  0  0  0
 44 42  1  0  0  0  0
 46 45  1  0  0  0  0
M  END
>  <MODEL>
8

>  <REMARK>
 VINA RESULT:      -5.4      3.096      5.574
  Name = 
  16 active torsions:
  status: ('A' for Active; 'I' for Inactive)
    1  A    between atoms: C_1  and  C_12
    2  A    between atoms: C_3  and  C_42
    3  A    between atoms: C_6  and  C_41
    4  A    between atoms: C_7  and  C_42
    5  A    between atoms: C_9  and  C_19
    6  A    between atoms: C_9  and  C_26
    7  A    between atoms: C_10  and  C_41
    8  A    between atoms: C_12  and  C_40
    9  A    between atoms: N_15  and  C_21
   10  A    between atoms: N_15  and  C_42
   11  A    between atoms: C_21  and  C_23
   12  A    between atoms: C_23  and  C_31
   13  A    between atoms: C_25  and  C_38
   14  A    between atoms: C_26  and  C_39
   15  A    between atoms: N_27  and  C_40
   16  A    between atoms: C_28  and  C_31
                            x       y       z     vdW  Elec       q    Type
                         _______ _______ _______ _____ _____    ______ ____

>  <TORSDO>
F 16

$$$$
=
 OpenBabel11042422003D

 46 52  0  0  1  0  0  0  0  0999 V2000
  160.7070  212.8570  150.7380 N   0  0  0  0  0  2  0  0  0  0  0  0
  159.3830  213.2320  151.2110 C   0  0  1  0  0  3  0  0  0  0  0  0
  159.5640  211.4130  153.3440 O   0  0  0  0  0  1  0  0  0  0  0  0
  159.3530  213.7810  152.6700 C   0  0  2  0  0  3  0  0  0  0  0  0
  155.8570  213.3010  153.7780 C   0  0  0  0  0  2  0  0  0  0  0  0
  159.6060  212.7390  153.7910 C   0  0  1  0  0  3  0  0  0  0  0  0
  158.2380  213.3870  153.6510 C   0  0  1  0  0  0  0  0  0  0  0  0
  156.3450  214.1430  154.9650 C   0  0  2  0  0  3  0  0  0  0  0  0
  157.8250  214.4530  154.6560 C   0  0  1  0  0  3  0  0  0  0  0  0
  157.0550  212.5330  153.2470 C   0  0  0  0  0  2  0  0  0  0  0  0
  158.6740  214.4530  155.8440 N   0  0  0  0  0  1  0  0  0  0  0  0
  155.9930  211.8910  156.0660 C   0  0  0  0  0  1  0  0  0  0  0  0
  156.1060  213.3920  156.2910 C   0  0  2  0  0  3  0  0  0  0  0  0
  154.9180  213.8310  156.8790 O   0  0  0  0  0  1  0  0  0  0  0  0
  157.5580  213.1500  148.3280 C   0  0  0  0  0  0  0  0  0  0  0  0
  158.4860  212.7400  146.2190 C   0  0  0  0  0  3  0  0  0  0  0  0
  158.5920  214.0650  150.1870 C   0  0  2  0  0  3  0  0  0  0  0  0
  157.4010  212.7340  147.0490 N   0  0  0  0  0  0  0  0  0  0  0  0
  159.7340  213.1920  146.7000 C   0  0  0  0  0  3  0  0  0  0  0  0
  157.1040  213.8060  150.3490 C   0  0  0  0  0  3  0  0  0  0  0  0
  158.7580  213.5750  148.7940 C   0  0  0  0  0  0  0  0  0  0  0  0
  159.8530  213.6170  147.9930 N   0  0  0  0  0  0  0  0  0  0  0  0
  156.5370  213.2940  149.2950 N   0  0  0  0  0  0  0  0  0  0  0  0
  160.7270  211.4060  150.6430 C   0  0  0  0  0  2  0  0  0  0  0  0
  161.9700  210.9330  149.9020 C   0  0  0  0  0  2  0  0  0  0  0  0
  162.2330  209.4540  150.1390 C   0  0  0  0  0  2  0  0  0  0  0  0
  161.0510  206.7740  152.1930 C   0  0  0  0  0  3  0  0  0  0  0  0
  161.5050  207.9560  151.8890 C   0  0  0  0  0  0  0  0  0  0  0  0
  161.9630  209.1300  151.5650 C   0  0  0  0  0  3  0  0  0  0  0  0
  161.8740  205.5690  151.8940 C   0  0  0  0  0  2  0  0  0  0  0  0
  161.2100  204.3270  152.4680 C   0  0  0  0  0  2  0  0  0  0  0  0
  160.5460  202.2420  149.6210 C   0  0  0  0  0  0  0  0  0  0  0  0
  161.5000  202.0540  151.5980 N   0  0  0  0  0  0  0  0  0  0  0  0
  161.0860  203.3010  151.4440 N   0  0  0  0  0  0  0  0  0  0  0  0
  161.1710  201.3640  150.4900 C   0  0  0  0  0  3  0  0  0  0  0  0
  160.4750  203.4620  150.2590 C   0  0  0  0  0  3  0  0  0  0  0  0
  159.8990  201.9080  148.3170 C   0  0  0  0  0  2  0  0  0  0  0  0
  160.9440  201.6800  147.2240 C   0  0  1  0  0  3  0  0  0  0  0  0
  161.2310  202.8550  146.3430 C   0  0  2  0  0  3  0  0  0  0  0  0
  162.0420  202.5330  147.4460 O   0  0  0  0  0  0  0  0  0  0  0  0
  160.4600  204.1390  146.6460 C   0  0  0  0  0  2  0  0  0  0  0  0
  161.3270  205.3720  146.4260 C   0  0  0  0  0  0  0  0  0  0  0  0
  161.9230  205.9030  147.7070 C   0  0  0  0  0  2  0  0  0  0  0  0
  160.8200  206.6760  147.0000 C   0  0  0  0  0  2  0  0  0  0  0  0
  161.5760  205.6240  144.0600 O   0  0  0  0  0  1  0  0  0  0  0  0
  162.2840  205.4660  145.2530 C   0  0  0  0  0  2  0  0  0  0  0  0
  2  1  1  6  0  0  0
  4  2  1  6  0  0  0
  4  7  1  0  0  0  0
  4  6  1  0  0  0  0
  5  8  1  0  0  0  0
  6  3  1  6  0  0  0
  7 10  1  6  0  0  0
  7  6  1  0  0  0  0
  7  9  1  0  0  0  0
  8 13  1  1  0  0  0
  9  8  1  0  0  0  0
  9 11  1  1  0  0  0
 10  5  1  0  0  0  0
 13 12  1  6  0  0  0
 13 14  1  0  0  0  0
 15 21  1  0  0  0  0
 15 23  1  0  0  0  0
 16 19  2  0  0  0  0
 16 18  1  0  0  0  0
 17 20  1  0  0  0  0
 17  2  1  1  0  0  0
 18 15  2  0  0  0  0
 19 22  1  0  0  0  0
 21 17  1  0  0  0  0
 22 21  2  0  0  0  0
 23 20  2  0  0  0  0
 24  1  1  0  0  0  0
 25 26  1  0  0  0  0
 25 24  1  0  0  0  0
 26 29  1  0  0  0  0
 28 27  2  0  0  0  0
 29 28  2  0  0  0  0
 30 27  1  0  0  0  0
 30 31  1  0  0  0  0
 32 36  2  0  0  0  0
 32 35  1  0  0  0  0
 34 33  1  0  0  0  0
 34 31  1  0  0  0  0
 35 33  2  0  0  0  0
 36 34  1  0  0  0  0
 37 32  1  0  0  0  0
 38 40  1  0  0  0  0
 38 37  1  1  0  0  0
 39 41  1  1  0  0  0
 39 38  1  0  0  0  0
 39 40  1  0  0  0  0
 42 41  1  0  0  0  0
 42 44  1  0  0  0  0
 42 43  1  0  0  0  0
 44 43  1  0  0  0  0
 45 46  1  0  0  0  0
 46 42  1  0  0  0  0
M  END
>  <MODEL>
9

>  <REMARK>
 VINA RESULT:      -5.3      2.894      5.143
  Name = 
  16 active torsions:
  status: ('A' for Active; 'I' for Inactive)
    1  A    between atoms: C_1  and  C_12
    2  A    between atoms: C_3  and  C_42
    3  A    between atoms: C_6  and  C_41
    4  A    between atoms: C_7  and  C_42
    5  A    between atoms: C_9  and  C_19
    6  A    between atoms: C_9  and  C_26
    7  A    between atoms: C_10  and  C_41
    8  A    between atoms: C_12  and  C_40
    9  A    between atoms: N_15  and  C_21
   10  A    between atoms: N_15  and  C_42
   11  A    between atoms: C_21  and  C_23
   12  A    between atoms: C_23  and  C_31
   13  A    between atoms: C_25  and  C_38
   14  A    between atoms: C_26  and  C_39
   15  A    between atoms: N_27  and  C_40
   16  A    between atoms: C_28  and  C_31
                            x       y       z     vdW  Elec       q    Type
                         _______ _______ _______ _____ _____    ______ ____

>  <TORSDO>
F 16

$$$$
