=
 OpenBabel11042422193D

 52 55  0  0  1  0  0  0  0  0999 V2000
  161.9020  210.6640  148.0690 C   0  0  2  0  0  3  0  0  0  0  0  0
  163.5850  212.3410  148.5850 N   0  0  0  0  0  1  0  0  0  0  0  0
  161.3220  207.2960  149.8760 C   0  0  0  0  0  0  0  0  0  0  0  0
  161.5210  208.4140  148.9440 C   0  0  0  0  0  3  0  0  0  0  0  0
  161.0760  208.6280  152.0180 C   0  0  0  0  0  3  0  0  0  0  0  0
  161.9820  211.7530  150.2500 N   0  0  0  0  0  2  0  0  0  0  0  0
  161.3070  209.9090  151.7230 C   0  0  0  0  0  0  0  0  0  0  0  0
  161.6350  209.7210  149.1690 C   0  0  0  0  0  0  0  0  0  0  0  0
  161.1110  207.4280  151.1830 C   0  0  0  0  0  3  0  0  0  0  0  0
  161.6670  210.3940  150.4160 N   0  0  0  0  0  0  0  0  0  0  0  0
  162.2030  211.9590  148.8140 C   0  0  2  0  0  3  0  0  0  0  0  0
  161.4420  205.8060  147.8950 C   0  0  0  0  0  3  0  0  0  0  0  0
  161.2730  205.9320  149.2840 C   0  0  0  0  0  0  0  0  0  0  0  0
  161.1910  203.3980  148.0310 C   0  0  0  0  0  0  0  0  0  0  0  0
  161.0770  204.7570  150.0520 C   0  0  0  0  0  0  0  0  0  0  0  0
  161.0360  203.5100  149.4190 C   0  0  0  0  0  3  0  0  0  0  0  0
  161.4010  204.5570  147.2770 C   0  0  0  0  0  3  0  0  0  0  0  0
  160.8800  201.9930  145.9620 C   0  0  0  0  0  1  0  0  0  0  0  0
  161.1460  202.1170  147.3850 N   0  0  0  0  0  0  0  0  0  0  0  0
  161.3610  200.9880  148.1000 O   0  0  0  0  0  1  0  0  0  0  0  0
  161.2320  203.5240  152.0640 O   0  0  0  0  0  1  0  0  0  0  0  0
  160.9400  204.7840  151.5400 C   0  0  0  0  0  2  0  0  0  0  0  0
  160.1540  211.6140  153.0080 N   0  0  0  0  0  0  0  0  0  0  0  0
  161.2110  210.8920  152.8210 C   0  0  0  0  0  3  0  0  0  0  0  0
  160.1120  212.5180  154.0410 O   0  0  0  0  0  0  0  0  0  0  0  0
  159.0000  213.3890  154.1750 C   0  0  0  0  0  2  0  0  0  0  0  0
  158.2840  213.1460  155.4960 C   0  0  1  0  0  3  0  0  0  0  0  0
  157.1390  213.9410  155.5720 O   0  0  0  0  0  1  0  0  0  0  0  0
  157.9030  211.6810  155.6670 C   0  0  0  0  0  2  0  0  0  0  0  0
  158.5410  211.1320  156.8140 O   0  0  0  0  0  0  0  0  0  0  0  0
  159.3800  208.5050  155.8780 C   0  0  0  0  0  2  0  0  0  0  0  0
  159.8980  210.7930  156.8220 C   0  0  0  0  0  0  0  0  0  0  0  0
  161.6720  207.6970  155.6900 C   0  0  0  0  0  2  0  0  0  0  0  0
  160.2140  207.2610  155.6270 C   0  0  0  0  0  2  0  0  0  0  0  0
  160.3080  209.5010  156.3660 N   0  0  0  0  0  0  0  0  0  0  0  0
  160.7610  211.6230  157.2210 O   0  0  0  0  0  0  0  0  0  0  0  0
  161.6860  209.0580  156.3600 C   0  0  0  0  0  2  0  0  0  0  0  0
  160.6630  210.8650  147.2080 C   0  0  0  0  0  2  0  0  0  0  0  0
  160.5600  212.2600  146.7960 N   0  0  0  0  0  2  0  0  0  0  0  0
  160.1740  211.9810  144.4820 C   0  0  0  0  0  3  0  0  0  0  0  0
  160.6730  212.6700  145.4580 N   0  0  0  0  0  0  0  0  0  0  0  0
  160.3160  212.4530  143.0690 C   0  0  2  0  0  3  0  0  0  0  0  0
  161.7360  212.4250  142.5720 C   0  0  0  0  0  0  0  0  0  0  0  0
  162.5870  213.1500  143.1520 O   0  0  0  0  0  0  0  0  0  0  0  0
  162.1600  211.6180  141.4660 N   0  0  0  0  0  2  0  0  0  0  0  0
  161.3050  210.6840  140.7530 C   0  0  0  0  0  2  0  0  0  0  0  0
  162.1240  209.9100  139.7370 C   0  0  0  0  0  2  0  0  0  0  0  0
  161.4220  208.6140  139.3730 C   0  0  0  0  0  2  0  0  0  0  0  0
  162.0010  207.4600  140.1700 C   0  0  0  0  0  1  0  0  0  0  0  0
  159.8200  214.3920  141.7430 O   0  0  0  0  0  0  0  0  0  0  0  0
  159.6610  213.7770  142.8300 C   0  0  0  0  0  0  0  0  0  0  0  0
  158.8230  214.3330  143.8350 N   0  0  0  0  0  1  0  0  0  0  0  0
  1 38  1  6  0  0  0
  1 11  1  0  0  0  0
  1  8  1  0  0  0  0
  3  9  2  0  0  0  0
  4  8  2  0  0  0  0
  4  3  1  0  0  0  0
  6 10  1  0  0  0  0
  7  5  2  0  0  0  0
  7 24  1  0  0  0  0
  8 10  1  0  0  0  0
  9  5  1  0  0  0  0
 10  7  1  0  0  0  0
 11  2  1  1  0  0  0
 11  6  1  0  0  0  0
 12 13  1  0  0  0  0
 13  3  1  0  0  0  0
 13 15  2  0  0  0  0
 14 16  2  0  0  0  0
 15 22  1  0  0  0  0
 16 15  1  0  0  0  0
 17 12  2  0  0  0  0
 17 14  1  0  0  0  0
 18 19  1  0  0  0  0
 19 14  1  0  0  0  0
 19 20  1  0  0  0  0
 22 21  1  0  0  0  0
 23 25  1  0  0  0  0
 24 23  2  0  0  0  0
 25 26  1  0  0  0  0
 26 27  1  0  0  0  0
 27 28  1  6  0  0  0
 27 29  1  0  0  0  0
 29 30  1  0  0  0  0
 30 32  1  0  0  0  0
 31 35  1  0  0  0  0
 32 36  2  0  0  0  0
 33 37  1  0  0  0  0
 34 33  1  0  0  0  0
 34 31  1  0  0  0  0
 35 32  1  0  0  0  0
 37 35  1  0  0  0  0
 39 38  1  0  0  0  0
 40 41  2  0  0  0  0
 41 39  1  0  0  0  0
 42 40  1  1  0  0  0
 43 42  1  0  0  0  0
 43 44  2  0  0  0  0
 45 43  1  0  0  0  0
 46 45  1  0  0  0  0
 47 46  1  0  0  0  0
 48 47  1  0  0  0  0
 48 49  1  0  0  0  0
 50 51  2  0  0  0  0
 51 42  1  0  0  0  0
 51 52  1  0  0  0  0
M  END
>  <MODEL>
1

>  <REMARK>
 VINA RESULT:      -6.1      0.000      0.000
  Name = 
  19 active torsions:
  status: ('A' for Active; 'I' for Inactive)
    1  A    between atoms: C_2  and  C_16
    2  A    between atoms: C_4  and  C_18
    3  A    between atoms: N_7  and  C_21
    4  A    between atoms: C_8  and  C_14
    5  A    between atoms: C_11  and  C_16
    6  A    between atoms: C_13  and  C_17
    7  A    between atoms: C_13  and  C_36
    8  A    between atoms: C_16  and  C_35
    9  A    between atoms: C_17  and  O_46
   10  A    between atoms: C_18  and  N_42
   11  A    between atoms: C_20  and  O_43
   12  A    between atoms: C_24  and  C_40
   13  A    between atoms: N_26  and  N_42
   14  A    between atoms: C_28  and  C_34
   15  A    between atoms: C_28  and  C_51
   16  A    between atoms: C_31  and  C_41
   17  A    between atoms: C_36  and  O_43
   18  A    between atoms: N_38  and  O_46
   19  A    between atoms: N_47  and  C_51
                            x       y       z     vdW  Elec       q    Type
                         _______ _______ _______ _____ _____    ______ ____

>  <TORSDO>
F 19

$$$$
=
 OpenBabel11042422193D

 52 55  0  0  1  0  0  0  0  0999 V2000
  161.9810  210.4490  148.0800 C   0  0  2  0  0  3  0  0  0  0  0  0
  163.6690  212.1100  148.6310 N   0  0  0  0  0  1  0  0  0  0  0  0
  161.3250  207.0920  149.8800 C   0  0  0  0  0  0  0  0  0  0  0  0
  161.5560  208.2060  148.9500 C   0  0  0  0  0  3  0  0  0  0  0  0
  161.0430  208.4310  152.0130 C   0  0  0  0  0  3  0  0  0  0  0  0
  162.0220  211.5430  150.2600 N   0  0  0  0  0  2  0  0  0  0  0  0
  161.2940  209.7090  151.7200 C   0  0  0  0  0  0  0  0  0  0  0  0
  161.6790  209.5120  149.1760 C   0  0  0  0  0  0  0  0  0  0  0  0
  161.0850  207.2290  151.1810 C   0  0  0  0  0  3  0  0  0  0  0  0
  161.6890  210.1870  150.4210 N   0  0  0  0  0  0  0  0  0  0  0  0
  162.2780  211.7430  148.8280 C   0  0  2  0  0  3  0  0  0  0  0  0
  160.9410  204.6530  150.1300 C   0  0  0  0  0  3  0  0  0  0  0  0
  161.2750  205.7270  149.2890 C   0  0  0  0  0  0  0  0  0  0  0  0
  161.1550  203.0830  148.2950 C   0  0  0  0  0  0  0  0  0  0  0  0
  161.5350  205.4620  147.9210 C   0  0  0  0  0  0  0  0  0  0  0  0
  161.4750  204.1480  147.4440 C   0  0  0  0  0  3  0  0  0  0  0  0
  160.8810  203.3490  149.6410 C   0  0  0  0  0  3  0  0  0  0  0  0
  161.3110  200.5960  148.6770 C   0  0  0  0  0  1  0  0  0  0  0  0
  161.0960  201.7360  147.8010 N   0  0  0  0  0  0  0  0  0  0  0  0
  160.8280  201.5030  146.4950 O   0  0  0  0  0  1  0  0  0  0  0  0
  160.8650  206.5790  145.9490 O   0  0  0  0  0  1  0  0  0  0  0  0
  161.8470  206.5430  146.9390 C   0  0  0  0  0  2  0  0  0  0  0  0
  160.1310  211.4310  152.9740 N   0  0  0  0  0  0  0  0  0  0  0  0
  161.1830  210.6950  152.8140 C   0  0  0  0  0  3  0  0  0  0  0  0
  160.0750  212.3380  154.0030 O   0  0  0  0  0  0  0  0  0  0  0  0
  159.0110  213.2760  154.0640 C   0  0  0  0  0  2  0  0  0  0  0  0
  158.2290  213.1180  155.3600 C   0  0  1  0  0  3  0  0  0  0  0  0
  157.0520  213.8660  155.3020 O   0  0  0  0  0  1  0  0  0  0  0  0
  157.8960  211.6580  155.6420 C   0  0  0  0  0  2  0  0  0  0  0  0
  158.5630  211.2130  156.8170 O   0  0  0  0  0  0  0  0  0  0  0  0
  159.3260  208.5850  155.8210 C   0  0  0  0  0  2  0  0  0  0  0  0
  159.9090  210.8370  156.8120 C   0  0  0  0  0  0  0  0  0  0  0  0
  161.5940  207.7180  155.6080 C   0  0  0  0  0  2  0  0  0  0  0  0
  160.1240  207.3240  155.5400 C   0  0  0  0  0  2  0  0  0  0  0  0
  160.2830  209.5440  156.3270 N   0  0  0  0  0  0  0  0  0  0  0  0
  160.7960  211.6330  157.2260 O   0  0  0  0  0  0  0  0  0  0  0  0
  161.6480  209.0630  156.3060 C   0  0  0  0  0  2  0  0  0  0  0  0
  160.7650  210.6620  147.1890 C   0  0  0  0  0  2  0  0  0  0  0  0
  160.5210  212.0870  147.0040 N   0  0  0  0  0  2  0  0  0  0  0  0
  160.4640  212.2090  144.6460 C   0  0  0  0  0  3  0  0  0  0  0  0
  160.7510  212.7480  145.7870 N   0  0  0  0  0  0  0  0  0  0  0  0
  160.7240  212.9460  143.3710 C   0  0  2  0  0  3  0  0  0  0  0  0
  160.2290  212.2190  142.1500 C   0  0  0  0  0  0  0  0  0  0  0  0
  160.7850  211.1340  141.8350 O   0  0  0  0  0  0  0  0  0  0  0  0
  159.1620  212.7090  141.3290 N   0  0  0  0  0  2  0  0  0  0  0  0
  158.3870  213.9060  141.6130 C   0  0  0  0  0  2  0  0  0  0  0  0
  157.2790  214.0560  140.5880 C   0  0  0  0  0  2  0  0  0  0  0  0
  157.3800  212.9630  139.5400 C   0  0  0  0  0  2  0  0  0  0  0  0
  156.0590  212.2260  139.4190 C   0  0  0  0  0  1  0  0  0  0  0  0
  162.5160  214.1080  142.2710 O   0  0  0  0  0  0  0  0  0  0  0  0
  162.1510  213.3770  143.2300 C   0  0  0  0  0  0  0  0  0  0  0  0
  163.1000  212.9810  144.2120 N   0  0  0  0  0  1  0  0  0  0  0  0
  1 38  1  6  0  0  0
  1 11  1  0  0  0  0
  1  8  1  0  0  0  0
  3  9  2  0  0  0  0
  4  8  2  0  0  0  0
  4  3  1  0  0  0  0
  6 10  1  0  0  0  0
  7  5  2  0  0  0  0
  7 24  1  0  0  0  0
  8 10  1  0  0  0  0
  9  5  1  0  0  0  0
 10  7  1  0  0  0  0
 11  2  1  1  0  0  0
 11  6  1  0  0  0  0
 13  3  1  0  0  0  0
 13 12  2  0  0  0  0
 14 17  2  0  0  0  0
 15 13  1  0  0  0  0
 16 15  2  0  0  0  0
 16 14  1  0  0  0  0
 17 12  1  0  0  0  0
 19 14  1  0  0  0  0
 19 18  1  0  0  0  0
 20 19  1  0  0  0  0
 21 22  1  0  0  0  0
 22 15  1  0  0  0  0
 23 25  1  0  0  0  0
 24 23  2  0  0  0  0
 25 26  1  0  0  0  0
 26 27  1  0  0  0  0
 27 28  1  6  0  0  0
 27 29  1  0  0  0  0
 29 30  1  0  0  0  0
 31 35  1  0  0  0  0
 32 30  1  0  0  0  0
 32 36  2  0  0  0  0
 33 37  1  0  0  0  0
 34 33  1  0  0  0  0
 34 31  1  0  0  0  0
 35 32  1  0  0  0  0
 37 35  1  0  0  0  0
 39 38  1  0  0  0  0
 40 41  2  0  0  0  0
 41 39  1  0  0  0  0
 42 40  1  1  0  0  0
 43 42  1  0  0  0  0
 44 43  2  0  0  0  0
 45 46  1  0  0  0  0
 45 43  1  0  0  0  0
 47 46  1  0  0  0  0
 48 47  1  0  0  0  0
 49 48  1  0  0  0  0
 50 51  2  0  0  0  0
 51 42  1  0  0  0  0
 51 52  1  0  0  0  0
M  END
>  <MODEL>
2

>  <REMARK>
 VINA RESULT:      -5.9      1.721      2.487
  Name = 
  19 active torsions:
  status: ('A' for Active; 'I' for Inactive)
    1  A    between atoms: C_2  and  C_16
    2  A    between atoms: C_4  and  C_18
    3  A    between atoms: N_7  and  C_21
    4  A    between atoms: C_8  and  C_14
    5  A    between atoms: C_11  and  C_16
    6  A    between atoms: C_13  and  C_17
    7  A    between atoms: C_13  and  C_36
    8  A    between atoms: C_16  and  C_35
    9  A    between atoms: C_17  and  O_46
   10  A    between atoms: C_18  and  N_42
   11  A    between atoms: C_20  and  O_43
   12  A    between atoms: C_24  and  C_40
   13  A    between atoms: N_26  and  N_42
   14  A    between atoms: C_28  and  C_34
   15  A    between atoms: C_28  and  C_51
   16  A    between atoms: C_31  and  C_41
   17  A    between atoms: C_36  and  O_43
   18  A    between atoms: N_38  and  O_46
   19  A    between atoms: N_47  and  C_51
                            x       y       z     vdW  Elec       q    Type
                         _______ _______ _______ _____ _____    ______ ____

>  <TORSDO>
F 19

$$$$
=
 OpenBabel11042422193D

 52 55  0  0  1  0  0  0  0  0999 V2000
  162.5020  209.5600  150.6750 C   0  0  2  0  0  3  0  0  0  0  0  0
  164.1510  210.7000  152.0500 N   0  0  0  0  0  1  0  0  0  0  0  0
  161.1690  205.9580  151.1200 C   0  0  0  0  0  0  0  0  0  0  0  0
  161.7010  207.2510  150.6670 C   0  0  0  0  0  3  0  0  0  0  0  0
  160.5180  206.6210  153.4780 C   0  0  0  0  0  3  0  0  0  0  0  0
  162.1320  209.9280  153.0580 N   0  0  0  0  0  2  0  0  0  0  0  0
  160.9360  207.8740  153.6720 C   0  0  0  0  0  0  0  0  0  0  0  0
  161.8780  208.3950  151.3260 C   0  0  0  0  0  0  0  0  0  0  0  0
  160.6490  205.7330  152.3240 C   0  0  0  0  0  3  0  0  0  0  0  0
  161.6580  208.6550  152.7010 N   0  0  0  0  0  0  0  0  0  0  0  0
  162.7260  210.5070  151.8470 C   0  0  2  0  0  3  0  0  0  0  0  0
  161.0120  203.5410  150.5850 C   0  0  0  0  0  3  0  0  0  0  0  0
  161.1420  204.8590  150.1190 C   0  0  0  0  0  0  0  0  0  0  0  0
  161.0870  202.6770  148.3210 C   0  0  0  0  0  0  0  0  0  0  0  0
  161.2280  205.0770  148.7210 C   0  0  0  0  0  0  0  0  0  0  0  0
  161.2030  203.9880  147.8430 C   0  0  0  0  0  3  0  0  0  0  0  0
  160.9840  202.4640  149.6990 C   0  0  0  0  0  3  0  0  0  0  0  0
  161.4820  200.2350  147.8360 C   0  0  0  0  0  1  0  0  0  0  0  0
  161.0630  201.5620  147.4160 N   0  0  0  0  0  0  0  0  0  0  0  0
  160.6360  201.7290  146.1430 O   0  0  0  0  0  1  0  0  0  0  0  0
  161.9510  206.3800  146.8850 O   0  0  0  0  0  1  0  0  0  0  0  0
  161.3170  206.4450  148.1260 C   0  0  0  0  0  2  0  0  0  0  0  0
  159.7570  209.4050  155.1410 N   0  0  0  0  0  0  0  0  0  0  0  0
  160.6600  208.4910  154.9850 C   0  0  0  0  0  3  0  0  0  0  0  0
  159.5380  209.9530  156.3810 O   0  0  0  0  0  0  0  0  0  0  0  0
  158.5970  211.0030  156.5350 C   0  0  0  0  0  2  0  0  0  0  0  0
  159.2900  212.3570  156.4770 C   0  0  1  0  0  3  0  0  0  0  0  0
  160.5300  212.2330  155.8470 O   0  0  0  0  0  1  0  0  0  0  0  0
  158.4440  213.3910  155.7440 C   0  0  0  0  0  2  0  0  0  0  0  0
  157.7290  212.7820  154.6760 O   0  0  0  0  0  0  0  0  0  0  0  0
  159.3210  213.0810  152.2560 C   0  0  0  0  0  2  0  0  0  0  0  0
  157.2260  213.5200  153.6010 C   0  0  0  0  0  0  0  0  0  0  0  0
  158.6490  214.2220  150.2100 C   0  0  0  0  0  2  0  0  0  0  0  0
  159.8380  213.5900  150.9230 C   0  0  0  0  0  2  0  0  0  0  0  0
  158.0110  213.6710  152.4140 N   0  0  0  0  0  0  0  0  0  0  0  0
  156.0810  214.0480  153.6680 O   0  0  0  0  0  0  0  0  0  0  0  0
  157.5790  214.4350  151.2630 C   0  0  0  0  0  2  0  0  0  0  0  0
  161.5450  210.2130  149.6880 C   0  0  0  0  0  2  0  0  0  0  0  0
  162.0670  211.5070  149.2640 N   0  0  0  0  0  2  0  0  0  0  0  0
  160.5070  211.8300  147.5200 C   0  0  0  0  0  3  0  0  0  0  0  0
  161.5890  212.1890  148.1340 N   0  0  0  0  0  0  0  0  0  0  0  0
  160.0310  212.5830  146.3190 C   0  0  2  0  0  3  0  0  0  0  0  0
  161.0190  213.6060  145.8250 C   0  0  0  0  0  0  0  0  0  0  0  0
  161.4920  214.4270  146.6540 O   0  0  0  0  0  0  0  0  0  0  0  0
  161.4370  213.6900  144.4580 N   0  0  0  0  0  2  0  0  0  0  0  0
  161.0290  212.7650  143.4130 C   0  0  0  0  0  2  0  0  0  0  0  0
  162.2480  212.2770  142.6530 C   0  0  0  0  0  2  0  0  0  0  0  0
  161.8850  211.9820  141.2090 C   0  0  0  0  0  2  0  0  0  0  0  0
  160.4290  212.3250  140.9520 C   0  0  0  0  0  1  0  0  0  0  0  0
  158.3880  214.3190  146.0830 O   0  0  0  0  0  0  0  0  0  0  0  0
  158.6630  213.1630  146.5020 C   0  0  0  0  0  0  0  0  0  0  0  0
  157.6530  212.3850  147.1310 N   0  0  0  0  0  1  0  0  0  0  0  0
  1 38  1  6  0  0  0
  1  8  1  0  0  0  0
  1 11  1  0  0  0  0
  3  9  2  0  0  0  0
  4  3  1  0  0  0  0
  4  8  2  0  0  0  0
  5  7  2  0  0  0  0
  7 24  1  0  0  0  0
  8 10  1  0  0  0  0
  9  5  1  0  0  0  0
 10  6  1  0  0  0  0
 10  7  1  0  0  0  0
 11  2  1  1  0  0  0
 11  6  1  0  0  0  0
 13 12  1  0  0  0  0
 13  3  1  0  0  0  0
 14 17  1  0  0  0  0
 15 13  2  0  0  0  0
 16 14  2  0  0  0  0
 16 15  1  0  0  0  0
 17 12  2  0  0  0  0
 19 18  1  0  0  0  0
 19 14  1  0  0  0  0
 20 19  1  0  0  0  0
 21 22  1  0  0  0  0
 22 15  1  0  0  0  0
 23 25  1  0  0  0  0
 24 23  2  0  0  0  0
 25 26  1  0  0  0  0
 27 28  1  6  0  0  0
 27 26  1  0  0  0  0
 29 27  1  0  0  0  0
 30 29  1  0  0  0  0
 31 35  1  0  0  0  0
 32 36  2  0  0  0  0
 32 30  1  0  0  0  0
 33 34  1  0  0  0  0
 33 37  1  0  0  0  0
 34 31  1  0  0  0  0
 35 32  1  0  0  0  0
 37 35  1  0  0  0  0
 39 38  1  0  0  0  0
 40 41  2  0  0  0  0
 41 39  1  0  0  0  0
 42 51  1  0  0  0  0
 42 40  1  1  0  0  0
 43 42  1  0  0  0  0
 43 44  2  0  0  0  0
 45 43  1  0  0  0  0
 46 45  1  0  0  0  0
 47 46  1  0  0  0  0
 48 47  1  0  0  0  0
 49 48  1  0  0  0  0
 50 51  2  0  0  0  0
 51 52  1  0  0  0  0
M  END
>  <MODEL>
3

>  <REMARK>
 VINA RESULT:      -5.8      2.162      3.949
  Name = 
  19 active torsions:
  status: ('A' for Active; 'I' for Inactive)
    1  A    between atoms: C_2  and  C_16
    2  A    between atoms: C_4  and  C_18
    3  A    between atoms: N_7  and  C_21
    4  A    between atoms: C_8  and  C_14
    5  A    between atoms: C_11  and  C_16
    6  A    between atoms: C_13  and  C_17
    7  A    between atoms: C_13  and  C_36
    8  A    between atoms: C_16  and  C_35
    9  A    between atoms: C_17  and  O_46
   10  A    between atoms: C_18  and  N_42
   11  A    between atoms: C_20  and  O_43
   12  A    between atoms: C_24  and  C_40
   13  A    between atoms: N_26  and  N_42
   14  A    between atoms: C_28  and  C_34
   15  A    between atoms: C_28  and  C_51
   16  A    between atoms: C_31  and  C_41
   17  A    between atoms: C_36  and  O_43
   18  A    between atoms: N_38  and  O_46
   19  A    between atoms: N_47  and  C_51
                            x       y       z     vdW  Elec       q    Type
                         _______ _______ _______ _____ _____    ______ ____

>  <TORSDO>
F 19

$$$$
=
 OpenBabel11042422193D

 52 55  0  0  1  0  0  0  0  0999 V2000
  162.3750  209.5020  150.6210 C   0  0  2  0  0  3  0  0  0  0  0  0
  164.1000  210.6070  151.9290 N   0  0  0  0  0  1  0  0  0  0  0  0
  161.2400  205.8150  150.8810 C   0  0  0  0  0  0  0  0  0  0  0  0
  161.6720  207.1650  150.4920 C   0  0  0  0  0  3  0  0  0  0  0  0
  160.7920  206.2550  153.3370 C   0  0  0  0  0  3  0  0  0  0  0  0
  162.2210  209.6590  153.0500 N   0  0  0  0  0  2  0  0  0  0  0  0
  161.1750  207.5070  153.5960 C   0  0  0  0  0  0  0  0  0  0  0  0
  161.8650  208.2590  151.2260 C   0  0  0  0  0  0  0  0  0  0  0  0
  160.8480  205.4690  152.1040 C   0  0  0  0  0  3  0  0  0  0  0  0
  161.7680  208.3970  152.6320 N   0  0  0  0  0  0  0  0  0  0  0  0
  162.6720  210.3620  151.8430 C   0  0  2  0  0  3  0  0  0  0  0  0
  161.2980  205.2360  148.4690 C   0  0  0  0  0  3  0  0  0  0  0  0
  161.1620  204.8000  149.7970 C   0  0  0  0  0  0  0  0  0  0  0  0
  161.0220  202.9730  147.6430 C   0  0  0  0  0  0  0  0  0  0  0  0
  160.9690  203.4170  150.0400 C   0  0  0  0  0  0  0  0  0  0  0  0
  160.8990  202.5240  148.9640 C   0  0  0  0  0  3  0  0  0  0  0  0
  161.2300  204.3360  147.4060 C   0  0  0  0  0  3  0  0  0  0  0  0
  161.0170  200.6160  146.7480 C   0  0  0  0  0  1  0  0  0  0  0  0
  160.9480  202.0540  146.5430 N   0  0  0  0  0  0  0  0  0  0  0  0
  160.8040  202.5170  145.2790 O   0  0  0  0  0  1  0  0  0  0  0  0
  161.9650  202.0330  151.6770 O   0  0  0  0  0  1  0  0  0  0  0  0
  160.8650  202.8500  151.4190 C   0  0  0  0  0  2  0  0  0  0  0  0
  160.2520  209.0200  155.2540 N   0  0  0  0  0  0  0  0  0  0  0  0
  161.0020  208.0020  154.9770 C   0  0  0  0  0  3  0  0  0  0  0  0
  160.1240  209.4470  156.5530 O   0  0  0  0  0  0  0  0  0  0  0  0
  159.1980  210.4740  156.8730 C   0  0  0  0  0  2  0  0  0  0  0  0
  159.8880  211.8310  156.8930 C   0  0  1  0  0  3  0  0  0  0  0  0
  161.1730  211.7210  156.3590 O   0  0  0  0  0  1  0  0  0  0  0  0
  159.0960  212.8750  156.1160 C   0  0  0  0  0  2  0  0  0  0  0  0
  158.4560  212.2800  154.9930 O   0  0  0  0  0  0  0  0  0  0  0  0
  156.5800  213.7000  153.2770 C   0  0  0  0  0  2  0  0  0  0  0  0
  158.8160  212.5920  153.6790 C   0  0  0  0  0  0  0  0  0  0  0  0
  156.9860  214.4520  150.9950 C   0  0  0  0  0  2  0  0  0  0  0  0
  155.8990  214.2750  152.0480 C   0  0  0  0  0  2  0  0  0  0  0  0
  157.8920  213.2850  152.8350 N   0  0  0  0  0  0  0  0  0  0  0  0
  159.9530  212.2710  153.2360 O   0  0  0  0  0  0  0  0  0  0  0  0
  158.1720  213.6280  151.4570 C   0  0  0  0  0  2  0  0  0  0  0  0
  161.3010  210.1850  149.7850 C   0  0  0  0  0  2  0  0  0  0  0  0
  161.5580  211.6180  149.7130 N   0  0  0  0  0  2  0  0  0  0  0  0
  160.8160  211.8810  147.4850 C   0  0  0  0  0  3  0  0  0  0  0  0
  161.4150  212.3600  148.5290 N   0  0  0  0  0  0  0  0  0  0  0  0
  160.6850  212.7030  146.2420 C   0  0  2  0  0  3  0  0  0  0  0  0
  161.9320  213.4730  145.9010 C   0  0  0  0  0  0  0  0  0  0  0  0
  162.4660  214.1750  146.8000 O   0  0  0  0  0  0  0  0  0  0  0  0
  162.5340  213.4470  144.6010 N   0  0  0  0  0  2  0  0  0  0  0  0
  162.0680  212.6290  143.4940 C   0  0  0  0  0  2  0  0  0  0  0  0
  162.7710  213.0440  142.2160 C   0  0  0  0  0  2  0  0  0  0  0  0
  162.0740  212.4390  141.0110 C   0  0  0  0  0  2  0  0  0  0  0  0
  161.1700  211.2990  141.4440 C   0  0  0  0  0  1  0  0  0  0  0  0
  158.8430  213.8080  147.3180 O   0  0  0  0  0  0  0  0  0  0  0  0
  159.4690  213.5760  146.2500 C   0  0  0  0  0  0  0  0  0  0  0  0
  159.0330  214.1770  145.0370 N   0  0  0  0  0  1  0  0  0  0  0  0
  1 38  1  6  0  0  0
  1  8  1  0  0  0  0
  1 11  1  0  0  0  0
  3  9  2  0  0  0  0
  4  3  1  0  0  0  0
  4  8  2  0  0  0  0
  5  7  2  0  0  0  0
  7 24  1  0  0  0  0
  8 10  1  0  0  0  0
  9  5  1  0  0  0  0
 10  6  1  0  0  0  0
 10  7  1  0  0  0  0
 11  2  1  1  0  0  0
 11  6  1  0  0  0  0
 12 13  1  0  0  0  0
 13 15  2  0  0  0  0
 13  3  1  0  0  0  0
 14 16  2  0  0  0  0
 15 22  1  0  0  0  0
 16 15  1  0  0  0  0
 17 14  1  0  0  0  0
 17 12  2  0  0  0  0
 19 18  1  0  0  0  0
 19 14  1  0  0  0  0
 20 19  1  0  0  0  0
 22 21  1  0  0  0  0
 23 25  1  0  0  0  0
 24 23  2  0  0  0  0
 25 26  1  0  0  0  0
 26 27  1  0  0  0  0
 27 28  1  6  0  0  0
 29 27  1  0  0  0  0
 30 29  1  0  0  0  0
 32 30  1  0  0  0  0
 33 37  1  0  0  0  0
 33 34  1  0  0  0  0
 34 31  1  0  0  0  0
 35 31  1  0  0  0  0
 35 32  1  0  0  0  0
 36 32  2  0  0  0  0
 37 35  1  0  0  0  0
 39 38  1  0  0  0  0
 40 41  2  0  0  0  0
 41 39  1  0  0  0  0
 42 51  1  0  0  0  0
 42 40  1  1  0  0  0
 43 42  1  0  0  0  0
 43 44  2  0  0  0  0
 45 43  1  0  0  0  0
 46 45  1  0  0  0  0
 47 46  1  0  0  0  0
 48 49  1  0  0  0  0
 48 47  1  0  0  0  0
 51 50  2  0  0  0  0
 52 51  1  0  0  0  0
M  END
>  <MODEL>
4

>  <REMARK>
 VINA RESULT:      -5.5      2.048      3.767
  Name = 
  19 active torsions:
  status: ('A' for Active; 'I' for Inactive)
    1  A    between atoms: C_2  and  C_16
    2  A    between atoms: C_4  and  C_18
    3  A    between atoms: N_7  and  C_21
    4  A    between atoms: C_8  and  C_14
    5  A    between atoms: C_11  and  C_16
    6  A    between atoms: C_13  and  C_17
    7  A    between atoms: C_13  and  C_36
    8  A    between atoms: C_16  and  C_35
    9  A    between atoms: C_17  and  O_46
   10  A    between atoms: C_18  and  N_42
   11  A    between atoms: C_20  and  O_43
   12  A    between atoms: C_24  and  C_40
   13  A    between atoms: N_26  and  N_42
   14  A    between atoms: C_28  and  C_34
   15  A    between atoms: C_28  and  C_51
   16  A    between atoms: C_31  and  C_41
   17  A    between atoms: C_36  and  O_43
   18  A    between atoms: N_38  and  O_46
   19  A    between atoms: N_47  and  C_51
                            x       y       z     vdW  Elec       q    Type
                         _______ _______ _______ _____ _____    ______ ____

>  <TORSDO>
F 19

$$$$
=
 OpenBabel11042422193D

 52 55  0  0  1  0  0  0  0  0999 V2000
  160.9150  206.8490  152.1220 C   0  0  2  0  0  3  0  0  0  0  0  0
  159.5010  208.6590  152.9190 N   0  0  0  0  0  1  0  0  0  0  0  0
  161.4200  205.7080  148.4630 C   0  0  0  0  0  0  0  0  0  0  0  0
  161.1970  205.8540  149.9080 C   0  0  0  0  0  3  0  0  0  0  0  0
  162.1110  208.0910  147.9450 C   0  0  0  0  0  3  0  0  0  0  0  0
  161.2670  209.1500  151.3920 N   0  0  0  0  0  2  0  0  0  0  0  0
  161.9670  208.8030  149.0650 C   0  0  0  0  0  0  0  0  0  0  0  0
  161.2470  206.9310  150.6890 C   0  0  0  0  0  0  0  0  0  0  0  0
  161.8340  206.6840  147.6580 C   0  0  0  0  0  3  0  0  0  0  0  0
  161.4670  208.2780  150.3080 N   0  0  0  0  0  0  0  0  0  0  0  0
  160.8570  208.3160  152.5290 C   0  0  2  0  0  3  0  0  0  0  0  0
  161.4720  204.1680  146.5190 C   0  0  0  0  0  3  0  0  0  0  0  0
  161.2460  204.3460  147.8930 C   0  0  0  0  0  0  0  0  0  0  0  0
  160.9400  201.8080  146.6830 C   0  0  0  0  0  0  0  0  0  0  0  0
  160.8750  203.2190  148.6700 C   0  0  0  0  0  0  0  0  0  0  0  0
  160.7240  201.9700  148.0570 C   0  0  0  0  0  3  0  0  0  0  0  0
  161.3220  202.9170  145.9210 C   0  0  0  0  0  3  0  0  0  0  0  0
  161.2360  199.3050  146.7060 C   0  0  0  0  0  1  0  0  0  0  0  0
  160.7820  200.5250  146.0580 N   0  0  0  0  0  0  0  0  0  0  0  0
  160.1950  200.4290  144.8430 O   0  0  0  0  0  1  0  0  0  0  0  0
  160.9800  202.0730  150.7350 O   0  0  0  0  0  1  0  0  0  0  0  0
  160.6620  203.2970  150.1470 C   0  0  0  0  0  2  0  0  0  0  0  0
  161.5100  211.1600  149.4200 N   0  0  0  0  0  0  0  0  0  0  0  0
  162.3210  210.2360  149.0140 C   0  0  0  0  0  3  0  0  0  0  0  0
  161.8810  212.4810  149.3500 O   0  0  0  0  0  0  0  0  0  0  0  0
  161.4670  213.2750  148.2500 C   0  0  0  0  0  2  0  0  0  0  0  0
  162.6720  213.8070  147.4880 C   0  0  1  0  0  3  0  0  0  0  0  0
  163.8480  213.4830  148.1680 O   0  0  0  0  0  1  0  0  0  0  0  0
  162.7300  213.2540  146.0700 C   0  0  0  0  0  2  0  0  0  0  0  0
  161.5960  213.6770  145.3230 O   0  0  0  0  0  0  0  0  0  0  0  0
  162.3170  213.1850  142.5450 C   0  0  0  0  0  2  0  0  0  0  0  0
  160.8350  212.7900  144.5560 C   0  0  0  0  0  0  0  0  0  0  0  0
  161.2330  211.6220  141.0210 C   0  0  0  0  0  2  0  0  0  0  0  0
  162.2470  212.7570  141.0900 C   0  0  0  0  0  2  0  0  0  0  0  0
  161.1880  212.5520  143.1900 N   0  0  0  0  0  0  0  0  0  0  0  0
  159.8460  212.1930  145.0630 O   0  0  0  0  0  0  0  0  0  0  0  0
  160.4450  211.6690  142.3170 C   0  0  0  0  0  2  0  0  0  0  0  0
  162.0260  206.1620  152.9040 C   0  0  0  0  0  2  0  0  0  0  0  0
  161.8780  206.4330  154.3290 N   0  0  0  0  0  2  0  0  0  0  0  0
  161.6120  207.9650  156.1070 C   0  0  0  0  0  3  0  0  0  0  0  0
  161.6060  207.7140  154.8370 N   0  0  0  0  0  0  0  0  0  0  0  0
  161.3160  209.3430  156.6090 C   0  0  2  0  0  3  0  0  0  0  0  0
  159.8560  209.7010  156.5430 C   0  0  0  0  0  0  0  0  0  0  0  0
  159.0340  208.8010  156.2280 O   0  0  0  0  0  0  0  0  0  0  0  0
  159.3630  211.0190  156.8160 N   0  0  0  0  0  2  0  0  0  0  0  0
  160.1860  212.1310  157.2590 C   0  0  0  0  0  2  0  0  0  0  0  0
  159.6980  213.4180  156.6210 C   0  0  0  0  0  2  0  0  0  0  0  0
  159.0450  213.1270  155.2830 C   0  0  0  0  0  2  0  0  0  0  0  0
  158.3490  214.3690  154.7560 C   0  0  0  0  0  1  0  0  0  0  0  0
  161.8420  210.9500  154.9030 O   0  0  0  0  0  0  0  0  0  0  0  0
  162.1810  210.3890  155.9780 C   0  0  0  0  0  0  0  0  0  0  0  0
  163.3900  210.7750  156.6200 N   0  0  0  0  0  1  0  0  0  0  0  0
  1 11  1  0  0  0  0
  1 38  1  1  0  0  0
  3  4  1  0  0  0  0
  4  8  2  0  0  0  0
  5  7  2  0  0  0  0
  6 11  1  0  0  0  0
  7 10  1  0  0  0  0
  8  1  1  0  0  0  0
  9  5  1  0  0  0  0
  9  3  2  0  0  0  0
 10  8  1  0  0  0  0
 10  6  1  0  0  0  0
 11  2  1  6  0  0  0
 12 13  1  0  0  0  0
 13  3  1  0  0  0  0
 13 15  2  0  0  0  0
 14 16  2  0  0  0  0
 15 22  1  0  0  0  0
 16 15  1  0  0  0  0
 17 12  2  0  0  0  0
 17 14  1  0  0  0  0
 19 14  1  0  0  0  0
 19 18  1  0  0  0  0
 20 19  1  0  0  0  0
 22 21  1  0  0  0  0
 24  7  1  0  0  0  0
 24 23  2  0  0  0  0
 25 23  1  0  0  0  0
 26 25  1  0  0  0  0
 27 28  1  1  0  0  0
 27 26  1  0  0  0  0
 29 27  1  0  0  0  0
 30 29  1  0  0  0  0
 31 35  1  0  0  0  0
 32 36  2  0  0  0  0
 32 30  1  0  0  0  0
 33 34  1  0  0  0  0
 33 37  1  0  0  0  0
 34 31  1  0  0  0  0
 35 32  1  0  0  0  0
 37 35  1  0  0  0  0
 38 39  1  0  0  0  0
 39 41  1  0  0  0  0
 41 40  2  0  0  0  0
 42 40  1  6  0  0  0
 43 42  1  0  0  0  0
 43 45  1  0  0  0  0
 44 43  2  0  0  0  0
 45 46  1  0  0  0  0
 47 46  1  0  0  0  0
 48 47  1  0  0  0  0
 49 48  1  0  0  0  0
 50 51  2  0  0  0  0
 51 42  1  0  0  0  0
 51 52  1  0  0  0  0
M  END
>  <MODEL>
5

>  <REMARK>
 VINA RESULT:      -4.9      2.090      9.943
  Name = 
  19 active torsions:
  status: ('A' for Active; 'I' for Inactive)
    1  A    between atoms: C_2  and  C_16
    2  A    between atoms: C_4  and  C_18
    3  A    between atoms: N_7  and  C_21
    4  A    between atoms: C_8  and  C_14
    5  A    between atoms: C_11  and  C_16
    6  A    between atoms: C_13  and  C_17
    7  A    between atoms: C_13  and  C_36
    8  A    between atoms: C_16  and  C_35
    9  A    between atoms: C_17  and  O_46
   10  A    between atoms: C_18  and  N_42
   11  A    between atoms: C_20  and  O_43
   12  A    between atoms: C_24  and  C_40
   13  A    between atoms: N_26  and  N_42
   14  A    between atoms: C_28  and  C_34
   15  A    between atoms: C_28  and  C_51
   16  A    between atoms: C_31  and  C_41
   17  A    between atoms: C_36  and  O_43
   18  A    between atoms: N_38  and  O_46
   19  A    between atoms: N_47  and  C_51
                            x       y       z     vdW  Elec       q    Type
                         _______ _______ _______ _____ _____    ______ ____

>  <TORSDO>
F 19

$$$$
=
 OpenBabel11042422193D

 52 55  0  0  1  0  0  0  0  0999 V2000
  161.9810  210.8290  147.8370 C   0  0  2  0  0  3  0  0  0  0  0  0
  163.7260  212.4390  148.3610 N   0  0  0  0  0  1  0  0  0  0  0  0
  161.5020  207.3130  149.3700 C   0  0  0  0  0  0  0  0  0  0  0  0
  161.6390  208.5110  148.5310 C   0  0  0  0  0  3  0  0  0  0  0  0
  161.4550  208.4420  151.6380 C   0  0  0  0  0  3  0  0  0  0  0  0
  162.2580  211.7110  150.0940 N   0  0  0  0  0  2  0  0  0  0  0  0
  161.6800  209.7430  151.4430 C   0  0  0  0  0  0  0  0  0  0  0  0
  161.7920  209.7910  148.8650 C   0  0  0  0  0  0  0  0  0  0  0  0
  161.4020  207.3250  150.6970 C   0  0  0  0  0  3  0  0  0  0  0  0
  161.9370  210.3450  150.1610 N   0  0  0  0  0  0  0  0  0  0  0  0
  162.3620  212.0470  148.6690 C   0  0  2  0  0  3  0  0  0  0  0  0
  161.5490  205.9960  147.2670 C   0  0  0  0  0  3  0  0  0  0  0  0
  161.3830  206.0110  148.6610 C   0  0  0  0  0  0  0  0  0  0  0  0
  161.1720  203.6030  147.1930 C   0  0  0  0  0  0  0  0  0  0  0  0
  161.1230  204.7850  149.3250 C   0  0  0  0  0  0  0  0  0  0  0  0
  161.0180  203.6020  148.5860 C   0  0  0  0  0  3  0  0  0  0  0  0
  161.4450  204.8100  146.5420 C   0  0  0  0  0  3  0  0  0  0  0  0
  160.7050  202.3970  145.0290 C   0  0  0  0  0  1  0  0  0  0  0  0
  161.0610  202.3860  146.4390 N   0  0  0  0  0  0  0  0  0  0  0  0
  161.2970  201.1940  147.0340 O   0  0  0  0  0  1  0  0  0  0  0  0
  161.4840  203.4660  151.2540 O   0  0  0  0  0  1  0  0  0  0  0  0
  160.9820  204.6900  150.8100 C   0  0  0  0  0  2  0  0  0  0  0  0
  160.6330  211.2490  153.0330 N   0  0  0  0  0  0  0  0  0  0  0  0
  161.6910  210.6210  152.6310 C   0  0  0  0  0  3  0  0  0  0  0  0
  160.6920  212.0570  154.1420 O   0  0  0  0  0  0  0  0  0  0  0  0
  159.5730  212.8550  154.4970 C   0  0  0  0  0  2  0  0  0  0  0  0
  159.4770  213.0030  156.0090 C   0  0  1  0  0  3  0  0  0  0  0  0
  159.2210  214.3330  156.3430 O   0  0  0  0  0  1  0  0  0  0  0  0
  158.3900  212.1080  156.5920 C   0  0  0  0  0  2  0  0  0  0  0  0
  157.3300  211.9400  155.6590 O   0  0  0  0  0  0  0  0  0  0  0  0
  156.3750  213.0200  153.1290 C   0  0  0  0  0  2  0  0  0  0  0  0
  156.2140  212.7820  155.6410 C   0  0  0  0  0  0  0  0  0  0  0  0
  154.4070  214.4200  152.8000 C   0  0  0  0  0  2  0  0  0  0  0  0
  155.6530  213.8810  152.1080 C   0  0  0  0  0  2  0  0  0  0  0  0
  155.7480  213.3160  154.3980 N   0  0  0  0  0  0  0  0  0  0  0  0
  155.6120  213.0680  156.7130 O   0  0  0  0  0  0  0  0  0  0  0  0
  154.6170  214.2110  154.2880 C   0  0  0  0  0  2  0  0  0  0  0  0
  160.6780  211.1190  147.1050 C   0  0  0  0  0  2  0  0  0  0  0  0
  160.7050  212.4650  146.5450 N   0  0  0  0  0  2  0  0  0  0  0  0
  160.8150  212.3690  144.1880 C   0  0  0  0  0  3  0  0  0  0  0  0
  160.2170  212.7680  145.2640 N   0  0  0  0  0  0  0  0  0  0  0  0
  160.2630  212.7130  142.8410 C   0  0  2  0  0  3  0  0  0  0  0  0
  161.3120  213.1750  141.8660 C   0  0  0  0  0  0  0  0  0  0  0  0
  161.9330  214.2410  142.1190 O   0  0  0  0  0  0  0  0  0  0  0  0
  161.6300  212.4620  140.6650 N   0  0  0  0  0  2  0  0  0  0  0  0
  161.0450  211.1870  140.2850 C   0  0  0  0  0  2  0  0  0  0  0  0
  161.4450  210.8410  138.8630 C   0  0  0  0  0  2  0  0  0  0  0  0
  162.7910  211.4570  138.5300 C   0  0  0  0  0  2  0  0  0  0  0  0
  162.7260  212.1760  137.1960 C   0  0  0  0  0  1  0  0  0  0  0  0
  158.9110  214.3710  143.9330 O   0  0  0  0  0  0  0  0  0  0  0  0
  159.1050  213.6590  142.9120 C   0  0  0  0  0  0  0  0  0  0  0  0
  158.2300  213.7770  141.7980 N   0  0  0  0  0  1  0  0  0  0  0  0
  1 38  1  1  0  0  0
  1 11  1  0  0  0  0
  1  8  1  0  0  0  0
  3  9  2  0  0  0  0
  4  8  2  0  0  0  0
  4  3  1  0  0  0  0
  6 10  1  0  0  0  0
  7  5  2  0  0  0  0
  7 24  1  0  0  0  0
  8 10  1  0  0  0  0
  9  5  1  0  0  0  0
 10  7  1  0  0  0  0
 11  2  1  6  0  0  0
 11  6  1  0  0  0  0
 12 13  1  0  0  0  0
 13 15  2  0  0  0  0
 13  3  1  0  0  0  0
 14 16  2  0  0  0  0
 15 22  1  0  0  0  0
 16 15  1  0  0  0  0
 17 14  1  0  0  0  0
 17 12  2  0  0  0  0
 18 19  1  0  0  0  0
 19 20  1  0  0  0  0
 19 14  1  0  0  0  0
 22 21  1  0  0  0  0
 23 25  1  0  0  0  0
 24 23  2  0  0  0  0
 25 26  1  0  0  0  0
 26 27  1  0  0  0  0
 27 28  1  6  0  0  0
 27 29  1  0  0  0  0
 30 29  1  0  0  0  0
 31 35  1  0  0  0  0
 32 30  1  0  0  0  0
 32 36  2  0  0  0  0
 33 37  1  0  0  0  0
 34 33  1  0  0  0  0
 34 31  1  0  0  0  0
 35 32  1  0  0  0  0
 37 35  1  0  0  0  0
 39 38  1  0  0  0  0
 40 41  2  0  0  0  0
 41 39  1  0  0  0  0
 42 51  1  0  0  0  0
 42 40  1  1  0  0  0
 43 44  2  0  0  0  0
 43 42  1  0  0  0  0
 45 43  1  0  0  0  0
 46 45  1  0  0  0  0
 47 46  1  0  0  0  0
 48 47  1  0  0  0  0
 49 48  1  0  0  0  0
 51 50  2  0  0  0  0
 52 51  1  0  0  0  0
M  END
>  <MODEL>
6

>  <REMARK>
 VINA RESULT:      -4.6      1.732      3.019
  Name = 
  19 active torsions:
  status: ('A' for Active; 'I' for Inactive)
    1  A    between atoms: C_2  and  C_16
    2  A    between atoms: C_4  and  C_18
    3  A    between atoms: N_7  and  C_21
    4  A    between atoms: C_8  and  C_14
    5  A    between atoms: C_11  and  C_16
    6  A    between atoms: C_13  and  C_17
    7  A    between atoms: C_13  and  C_36
    8  A    between atoms: C_16  and  C_35
    9  A    between atoms: C_17  and  O_46
   10  A    between atoms: C_18  and  N_42
   11  A    between atoms: C_20  and  O_43
   12  A    between atoms: C_24  and  C_40
   13  A    between atoms: N_26  and  N_42
   14  A    between atoms: C_28  and  C_34
   15  A    between atoms: C_28  and  C_51
   16  A    between atoms: C_31  and  C_41
   17  A    between atoms: C_36  and  O_43
   18  A    between atoms: N_38  and  O_46
   19  A    between atoms: N_47  and  C_51
                            x       y       z     vdW  Elec       q    Type
                         _______ _______ _______ _____ _____    ______ ____

>  <TORSDO>
F 19

$$$$
=
 OpenBabel11042422193D

 52 55  0  0  1  0  0  0  0  0999 V2000
  162.0150  210.4160  148.1800 C   0  0  2  0  0  3  0  0  0  0  0  0
  163.7270  212.0690  148.6800 N   0  0  0  0  0  1  0  0  0  0  0  0
  161.4960  206.9900  149.8940 C   0  0  0  0  0  0  0  0  0  0  0  0
  161.6600  208.1390  148.9930 C   0  0  0  0  0  3  0  0  0  0  0  0
  161.3480  208.2490  152.0890 C   0  0  0  0  0  3  0  0  0  0  0  0
  162.1940  211.4300  150.3920 N   0  0  0  0  0  2  0  0  0  0  0  0
  161.5720  209.5380  151.8280 C   0  0  0  0  0  0  0  0  0  0  0  0
  161.7900  209.4380  149.2580 C   0  0  0  0  0  0  0  0  0  0  0  0
  161.3410  207.0780  151.2130 C   0  0  0  0  0  3  0  0  0  0  0  0
  161.8790  210.0670  150.5240 N   0  0  0  0  0  0  0  0  0  0  0  0
  162.3540  211.6840  148.9540 C   0  0  2  0  0  3  0  0  0  0  0  0
  161.2580  204.5290  150.0910 C   0  0  0  0  0  3  0  0  0  0  0  0
  161.4140  205.6480  149.2580 C   0  0  0  0  0  0  0  0  0  0  0  0
  161.2560  203.0400  148.1780 C   0  0  0  0  0  0  0  0  0  0  0  0
  161.4740  205.4460  147.8570 C   0  0  0  0  0  0  0  0  0  0  0  0
  161.3980  204.1500  147.3360 C   0  0  0  0  0  3  0  0  0  0  0  0
  161.1800  203.2420  149.5600 C   0  0  0  0  0  3  0  0  0  0  0  0
  161.1160  200.5440  148.5040 C   0  0  0  0  0  1  0  0  0  0  0  0
  161.1790  201.7110  147.6390 N   0  0  0  0  0  0  0  0  0  0  0  0
  161.1580  201.5210  146.2990 O   0  0  0  0  0  1  0  0  0  0  0  0
  162.1290  206.1180  145.6860 O   0  0  0  0  0  1  0  0  0  0  0  0
  161.5870  206.5780  146.8870 C   0  0  0  0  0  2  0  0  0  0  0  0
  160.4610  211.1510  153.2610 N   0  0  0  0  0  0  0  0  0  0  0  0
  161.5290  210.4830  152.9620 C   0  0  0  0  0  3  0  0  0  0  0  0
  160.4690  212.0220  154.3240 O   0  0  0  0  0  0  0  0  0  0  0  0
  159.3950  212.9320  154.5000 C   0  0  0  0  0  2  0  0  0  0  0  0
  159.1450  213.1860  155.9800 C   0  0  1  0  0  3  0  0  0  0  0  0
  160.3600  213.3040  156.6570 O   0  0  0  0  0  1  0  0  0  0  0  0
  158.3100  214.4410  156.2020 C   0  0  0  0  0  2  0  0  0  0  0  0
  156.9330  214.1710  155.9660 O   0  0  0  0  0  0  0  0  0  0  0  0
  155.6990  211.6320  156.6790 C   0  0  0  0  0  2  0  0  0  0  0  0
  156.5070  213.3000  154.9590 C   0  0  0  0  0  0  0  0  0  0  0  0
  154.7800  209.9830  155.1370 C   0  0  0  0  0  2  0  0  0  0  0  0
  155.1610  210.2150  156.5940 C   0  0  0  0  0  2  0  0  0  0  0  0
  155.9050  212.0510  155.3110 N   0  0  0  0  0  0  0  0  0  0  0  0
  156.6430  213.6130  153.7440 O   0  0  0  0  0  0  0  0  0  0  0  0
  155.4550  211.0800  154.3360 C   0  0  0  0  0  2  0  0  0  0  0  0
  160.7420  210.6520  147.3800 C   0  0  0  0  0  2  0  0  0  0  0  0
  160.5000  212.0820  147.2300 N   0  0  0  0  0  2  0  0  0  0  0  0
  159.7480  212.1240  144.9910 C   0  0  0  0  0  3  0  0  0  0  0  0
  160.3500  212.7030  145.9800 N   0  0  0  0  0  0  0  0  0  0  0  0
  159.6090  212.8190  143.6740 C   0  0  2  0  0  3  0  0  0  0  0  0
  160.9110  213.3560  143.1430 C   0  0  0  0  0  0  0  0  0  0  0  0
  161.3460  214.4400  143.6120 O   0  0  0  0  0  0  0  0  0  0  0  0
  161.6710  212.6920  142.1260 N   0  0  0  0  0  2  0  0  0  0  0  0
  161.3270  211.4030  141.5490 C   0  0  0  0  0  2  0  0  0  0  0  0
  160.9900  211.5710  140.0800 C   0  0  0  0  0  2  0  0  0  0  0  0
  159.5410  211.9920  139.9170 C   0  0  0  0  0  2  0  0  0  0  0  0
  159.2180  212.2140  138.4510 C   0  0  0  0  0  1  0  0  0  0  0  0
  157.9950  214.2340  144.7530 O   0  0  0  0  0  0  0  0  0  0  0  0
  158.5310  213.8580  143.6770 C   0  0  0  0  0  0  0  0  0  0  0  0
  158.1300  214.4510  142.4480 N   0  0  0  0  0  1  0  0  0  0  0  0
  1 38  1  1  0  0  0
  1 11  1  0  0  0  0
  1  8  1  0  0  0  0
  3  9  2  0  0  0  0
  4  8  2  0  0  0  0
  4  3  1  0  0  0  0
  6 10  1  0  0  0  0
  7  5  2  0  0  0  0
  7 24  1  0  0  0  0
  8 10  1  0  0  0  0
  9  5  1  0  0  0  0
 10  7  1  0  0  0  0
 11  2  1  1  0  0  0
 11  6  1  0  0  0  0
 13  3  1  0  0  0  0
 13 12  2  0  0  0  0
 14 17  2  0  0  0  0
 15 13  1  0  0  0  0
 16 15  2  0  0  0  0
 16 14  1  0  0  0  0
 17 12  1  0  0  0  0
 19 14  1  0  0  0  0
 19 18  1  0  0  0  0
 20 19  1  0  0  0  0
 21 22  1  0  0  0  0
 22 15  1  0  0  0  0
 23 25  1  0  0  0  0
 24 23  2  0  0  0  0
 25 26  1  0  0  0  0
 26 27  1  0  0  0  0
 27 29  1  0  0  0  0
 27 28  1  1  0  0  0
 30 29  1  0  0  0  0
 32 35  1  0  0  0  0
 32 30  1  0  0  0  0
 33 34  1  0  0  0  0
 34 31  1  0  0  0  0
 35 31  1  0  0  0  0
 36 32  2  0  0  0  0
 37 33  1  0  0  0  0
 37 35  1  0  0  0  0
 39 38  1  0  0  0  0
 40 41  2  0  0  0  0
 41 39  1  0  0  0  0
 42 51  1  0  0  0  0
 42 40  1  1  0  0  0
 43 44  2  0  0  0  0
 43 42  1  0  0  0  0
 45 43  1  0  0  0  0
 46 45  1  0  0  0  0
 47 46  1  0  0  0  0
 48 47  1  0  0  0  0
 49 48  1  0  0  0  0
 51 50  2  0  0  0  0
 52 51  1  0  0  0  0
M  END
>  <MODEL>
7

>  <REMARK>
 VINA RESULT:      -4.5      1.960      2.997
  Name = 
  19 active torsions:
  status: ('A' for Active; 'I' for Inactive)
    1  A    between atoms: C_2  and  C_16
    2  A    between atoms: C_4  and  C_18
    3  A    between atoms: N_7  and  C_21
    4  A    between atoms: C_8  and  C_14
    5  A    between atoms: C_11  and  C_16
    6  A    between atoms: C_13  and  C_17
    7  A    between atoms: C_13  and  C_36
    8  A    between atoms: C_16  and  C_35
    9  A    between atoms: C_17  and  O_46
   10  A    between atoms: C_18  and  N_42
   11  A    between atoms: C_20  and  O_43
   12  A    between atoms: C_24  and  C_40
   13  A    between atoms: N_26  and  N_42
   14  A    between atoms: C_28  and  C_34
   15  A    between atoms: C_28  and  C_51
   16  A    between atoms: C_31  and  C_41
   17  A    between atoms: C_36  and  O_43
   18  A    between atoms: N_38  and  O_46
   19  A    between atoms: N_47  and  C_51
                            x       y       z     vdW  Elec       q    Type
                         _______ _______ _______ _____ _____    ______ ____

>  <TORSDO>
F 19

$$$$
=
 OpenBabel11042422193D

 52 55  0  0  1  0  0  0  0  0999 V2000
  162.1710  208.5960  150.1520 C   0  0  2  0  0  3  0  0  0  0  0  0
  163.8300  209.7600  151.4940 N   0  0  0  0  0  1  0  0  0  0  0  0
  161.0800  204.9010  150.4650 C   0  0  0  0  0  0  0  0  0  0  0  0
  161.5070  206.2460  150.0570 C   0  0  0  0  0  3  0  0  0  0  0  0
  160.5330  205.3950  152.8900 C   0  0  0  0  0  3  0  0  0  0  0  0
  161.9240  208.8130  152.5690 N   0  0  0  0  0  2  0  0  0  0  0  0
  160.8880  206.6590  153.1310 C   0  0  0  0  0  0  0  0  0  0  0  0
  161.6570  207.3610  150.7690 C   0  0  0  0  0  0  0  0  0  0  0  0
  160.6470  204.5800  151.6810 C   0  0  0  0  0  3  0  0  0  0  0  0
  161.5050  207.5330  152.1670 N   0  0  0  0  0  0  0  0  0  0  0  0
  162.4100  209.4910  151.3620 C   0  0  2  0  0  3  0  0  0  0  0  0
  160.7080  202.5470  149.7720 C   0  0  0  0  0  3  0  0  0  0  0  0
  161.0570  203.8570  149.4050 C   0  0  0  0  0  0  0  0  0  0  0  0
  160.9860  201.7770  147.4900 C   0  0  0  0  0  0  0  0  0  0  0  0
  161.3590  204.1220  148.0460 C   0  0  0  0  0  0  0  0  0  0  0  0
  161.3220  203.0820  147.1100 C   0  0  0  0  0  3  0  0  0  0  0  0
  160.6720  201.5210  148.8290 C   0  0  0  0  0  3  0  0  0  0  0  0
  160.2060  200.8400  145.2840 C   0  0  0  0  0  1  0  0  0  0  0  0
  160.9510  200.7140  146.5260 N   0  0  0  0  0  0  0  0  0  0  0  0
  161.6260  199.5640  146.7590 O   0  0  0  0  0  1  0  0  0  0  0  0
  160.5790  206.0470  146.9170 O   0  0  0  0  0  1  0  0  0  0  0  0
  161.6910  205.4910  147.5490 C   0  0  0  0  0  2  0  0  0  0  0  0
  161.2730  208.2330  154.9380 N   0  0  0  0  0  0  0  0  0  0  0  0
  160.6560  207.1860  154.4910 C   0  0  0  0  0  3  0  0  0  0  0  0
  161.0270  208.6840  156.2120 O   0  0  0  0  0  0  0  0  0  0  0  0
  162.1110  209.0100  157.0680 C   0  0  0  0  0  2  0  0  0  0  0  0
  162.3160  210.5170  157.1250 C   0  0  1  0  0  3  0  0  0  0  0  0
  163.3270  210.8950  156.2400 O   0  0  0  0  0  1  0  0  0  0  0  0
  161.0350  211.2720  156.7930 C   0  0  0  0  0  2  0  0  0  0  0  0
  160.9670  211.5480  155.3990 O   0  0  0  0  0  0  0  0  0  0  0  0
  158.8870  213.4110  156.2250 C   0  0  0  0  0  2  0  0  0  0  0  0
  159.7540  211.5860  154.7050 C   0  0  0  0  0  0  0  0  0  0  0  0
  156.7320  213.7530  155.1380 C   0  0  0  0  0  2  0  0  0  0  0  0
  157.5380  214.0880  156.3870 C   0  0  0  0  0  2  0  0  0  0  0  0
  158.7310  212.4980  155.1150 N   0  0  0  0  0  0  0  0  0  0  0  0
  159.5600  210.8260  153.7170 O   0  0  0  0  0  0  0  0  0  0  0  0
  157.4390  212.5890  154.4700 C   0  0  0  0  0  2  0  0  0  0  0  0
  161.1210  209.2410  149.2590 C   0  0  0  0  0  2  0  0  0  0  0  0
  161.7590  209.8820  148.1160 N   0  0  0  0  0  2  0  0  0  0  0  0
  160.4570  211.8320  147.8270 C   0  0  0  0  0  3  0  0  0  0  0  0
  161.6130  211.2490  147.8280 N   0  0  0  0  0  0  0  0  0  0  0  0
  160.3440  213.2910  147.5150 C   0  0  2  0  0  3  0  0  0  0  0  0
  161.6310  214.0450  147.7140 C   0  0  0  0  0  0  0  0  0  0  0  0
  161.9140  214.4460  148.8730 O   0  0  0  0  0  0  0  0  0  0  0  0
  162.5400  214.3320  146.6450 N   0  0  0  0  0  2  0  0  0  0  0  0
  162.3760  213.8690  145.2770 C   0  0  0  0  0  2  0  0  0  0  0  0
  160.9910  214.2320  144.7740 C   0  0  0  0  0  2  0  0  0  0  0  0
  160.8490  213.8600  143.3100 C   0  0  0  0  0  2  0  0  0  0  0  0
  159.4800  214.2640  142.7950 C   0  0  0  0  0  1  0  0  0  0  0  0
  158.1930  214.3590  147.5680 O   0  0  0  0  0  0  0  0  0  0  0  0
  159.1930  213.9460  148.2130 C   0  0  0  0  0  0  0  0  0  0  0  0
  159.2170  214.0760  149.6290 N   0  0  0  0  0  1  0  0  0  0  0  0
  1 38  1  6  0  0  0
  1  8  1  0  0  0  0
  1 11  1  0  0  0  0
  3  9  2  0  0  0  0
  4  3  1  0  0  0  0
  4  8  2  0  0  0  0
  5  7  2  0  0  0  0
  7 24  1  0  0  0  0
  8 10  1  0  0  0  0
  9  5  1  0  0  0  0
 10  6  1  0  0  0  0
 10  7  1  0  0  0  0
 11  2  1  1  0  0  0
 11  6  1  0  0  0  0
 13 12  1  0  0  0  0
 13  3  1  0  0  0  0
 14 17  1  0  0  0  0
 15 13  2  0  0  0  0
 16 14  2  0  0  0  0
 16 15  1  0  0  0  0
 17 12  2  0  0  0  0
 18 19  1  0  0  0  0
 19 20  1  0  0  0  0
 19 14  1  0  0  0  0
 21 22  1  0  0  0  0
 22 15  1  0  0  0  0
 23 25  1  0  0  0  0
 24 23  2  0  0  0  0
 25 26  1  0  0  0  0
 26 27  1  0  0  0  0
 27 28  1  6  0  0  0
 29 27  1  0  0  0  0
 30 29  1  0  0  0  0
 31 34  1  0  0  0  0
 32 35  1  0  0  0  0
 32 30  1  0  0  0  0
 33 34  1  0  0  0  0
 35 31  1  0  0  0  0
 36 32  2  0  0  0  0
 37 35  1  0  0  0  0
 37 33  1  0  0  0  0
 39 38  1  0  0  0  0
 40 41  2  0  0  0  0
 41 39  1  0  0  0  0
 42 43  1  0  0  0  0
 42 40  1  1  0  0  0
 42 51  1  0  0  0  0
 43 44  2  0  0  0  0
 45 43  1  0  0  0  0
 46 45  1  0  0  0  0
 47 46  1  0  0  0  0
 48 47  1  0  0  0  0
 49 48  1  0  0  0  0
 50 51  2  0  0  0  0
 51 52  1  0  0  0  0
M  END
>  <MODEL>
8

>  <REMARK>
 VINA RESULT:      -4.1      2.909      4.478
  Name = 
  19 active torsions:
  status: ('A' for Active; 'I' for Inactive)
    1  A    between atoms: C_2  and  C_16
    2  A    between atoms: C_4  and  C_18
    3  A    between atoms: N_7  and  C_21
    4  A    between atoms: C_8  and  C_14
    5  A    between atoms: C_11  and  C_16
    6  A    between atoms: C_13  and  C_17
    7  A    between atoms: C_13  and  C_36
    8  A    between atoms: C_16  and  C_35
    9  A    between atoms: C_17  and  O_46
   10  A    between atoms: C_18  and  N_42
   11  A    between atoms: C_20  and  O_43
   12  A    between atoms: C_24  and  C_40
   13  A    between atoms: N_26  and  N_42
   14  A    between atoms: C_28  and  C_34
   15  A    between atoms: C_28  and  C_51
   16  A    between atoms: C_31  and  C_41
   17  A    between atoms: C_36  and  O_43
   18  A    between atoms: N_38  and  O_46
   19  A    between atoms: N_47  and  C_51
                            x       y       z     vdW  Elec       q    Type
                         _______ _______ _______ _____ _____    ______ ____

>  <TORSDO>
F 19

$$$$
=
 OpenBabel11042422193D

 52 55  0  0  1  0  0  0  0  0999 V2000
  161.7280  207.8250  150.2350 C   0  0  2  0  0  3  0  0  0  0  0  0
  163.9610  207.2750  149.4460 N   0  0  0  0  0  1  0  0  0  0  0  0
  160.5340  211.1850  151.7280 C   0  0  0  0  0  0  0  0  0  0  0  0
  160.8440  209.7900  151.3890 C   0  0  0  0  0  3  0  0  0  0  0  0
  161.3630  212.2850  149.6000 C   0  0  0  0  0  3  0  0  0  0  0  0
  162.7770  209.0720  148.4190 N   0  0  0  0  0  2  0  0  0  0  0  0
  161.9340  211.3360  148.8550 C   0  0  0  0  0  0  0  0  0  0  0  0
  161.4630  209.2710  150.3300 C   0  0  0  0  0  0  0  0  0  0  0  0
  160.7490  212.2250  150.9260 C   0  0  0  0  0  3  0  0  0  0  0  0
  162.0670  209.9570  149.2480 N   0  0  0  0  0  0  0  0  0  0  0  0
  162.6520  207.7410  149.0260 C   0  0  2  0  0  3  0  0  0  0  0  0
  158.6580  212.1570  153.0280 C   0  0  0  0  0  3  0  0  0  0  0  0
  159.8540  211.4220  153.0290 C   0  0  0  0  0  0  0  0  0  0  0  0
  158.4660  211.9510  155.4360 C   0  0  0  0  0  0  0  0  0  0  0  0
  160.3460  210.9320  154.2650 C   0  0  0  0  0  0  0  0  0  0  0  0
  159.6510  211.2030  155.4480 C   0  0  0  0  0  3  0  0  0  0  0  0
  157.9730  212.4190  154.2140 C   0  0  0  0  0  3  0  0  0  0  0  0
  157.7800  213.5500  157.2590 C   0  0  0  0  0  1  0  0  0  0  0  0
  157.7580  212.2290  156.6530 N   0  0  0  0  0  0  0  0  0  0  0  0
  157.0420  211.2540  157.2600 O   0  0  0  0  0  1  0  0  0  0  0  0
  161.5800  209.3910  155.5660 O   0  0  0  0  0  1  0  0  0  0  0  0
  161.5810  210.0960  154.3630 C   0  0  0  0  0  2  0  0  0  0  0  0
  162.2490  212.8950  147.0210 N   0  0  0  0  0  0  0  0  0  0  0  0
  162.4910  211.7380  147.5470 C   0  0  0  0  0  3  0  0  0  0  0  0
  162.7860  213.2230  145.8010 O   0  0  0  0  0  0  0  0  0  0  0  0
  162.0670  212.9370  144.6110 C   0  0  0  0  0  2  0  0  0  0  0  0
  162.2230  214.0680  143.6040 C   0  0  1  0  0  3  0  0  0  0  0  0
  163.5370  214.1110  143.1350 O   0  0  0  0  0  1  0  0  0  0  0  0
  161.2630  213.9120  142.4310 C   0  0  0  0  0  2  0  0  0  0  0  0
  161.4740  212.6660  141.7770 O   0  0  0  0  0  0  0  0  0  0  0  0
  162.5200  211.3280  139.4120 C   0  0  0  0  0  2  0  0  0  0  0  0
  160.5910  212.1730  140.8120 C   0  0  0  0  0  0  0  0  0  0  0  0
  161.2120  210.2920  137.6350 C   0  0  0  0  0  2  0  0  0  0  0  0
  162.6210  210.7190  138.0250 C   0  0  0  0  0  2  0  0  0  0  0  0
  161.1060  211.5200  139.6480 N   0  0  0  0  0  0  0  0  0  0  0  0
  159.3450  212.2940  140.9650 O   0  0  0  0  0  0  0  0  0  0  0  0
  160.2680  210.9990  138.5890 C   0  0  0  0  0  2  0  0  0  0  0  0
  160.4510  207.0530  149.9350 C   0  0  0  0  0  2  0  0  0  0  0  0
  160.4940  205.7440  150.5770 N   0  0  0  0  0  2  0  0  0  0  0  0
  160.5950  203.9810  149.0080 C   0  0  0  0  0  3  0  0  0  0  0  0
  161.1210  204.6300  149.9970 N   0  0  0  0  0  0  0  0  0  0  0  0
  161.2960  202.7990  148.4180 C   0  0  2  0  0  3  0  0  0  0  0  0
  161.1360  202.6950  146.9250 C   0  0  0  0  0  0  0  0  0  0  0  0
  160.3440  201.8300  146.4680 O   0  0  0  0  0  0  0  0  0  0  0  0
  161.8490  203.5290  146.0040 N   0  0  0  0  0  2  0  0  0  0  0  0
  162.7380  204.6120  146.3910 C   0  0  0  0  0  2  0  0  0  0  0  0
  162.5310  205.8010  145.4720 C   0  0  0  0  0  2  0  0  0  0  0  0
  161.1610  205.7320  144.8230 C   0  0  0  0  0  2  0  0  0  0  0  0
  161.2960  205.7170  143.3110 C   0  0  0  0  0  1  0  0  0  0  0  0
  161.6050  200.4620  148.8790 O   0  0  0  0  0  0  0  0  0  0  0  0
  160.9570  201.5170  149.1110 C   0  0  0  0  0  0  0  0  0  0  0  0
  159.9060  201.4970  150.0690 N   0  0  0  0  0  1  0  0  0  0  0  0
  1 38  1  6  0  0  0
  1  8  1  0  0  0  0
  3 13  1  0  0  0  0
  4  3  1  0  0  0  0
  5  9  1  0  0  0  0
  6 11  1  0  0  0  0
  6 10  1  0  0  0  0
  7 10  1  0  0  0  0
  7  5  2  0  0  0  0
  8  4  2  0  0  0  0
  9  3  2  0  0  0  0
 10  8  1  0  0  0  0
 11  2  1  1  0  0  0
 11  1  1  0  0  0  0
 12 13  2  0  0  0  0
 12 17  1  0  0  0  0
 13 15  1  0  0  0  0
 14 16  1  0  0  0  0
 14 19  1  0  0  0  0
 15 22  1  0  0  0  0
 15 16  2  0  0  0  0
 17 14  2  0  0  0  0
 19 18  1  0  0  0  0
 19 20  1  0  0  0  0
 22 21  1  0  0  0  0
 23 24  2  0  0  0  0
 24  7  1  0  0  0  0
 25 23  1  0  0  0  0
 26 25  1  0  0  0  0
 27 28  1  6  0  0  0
 27 26  1  0  0  0  0
 29 27  1  0  0  0  0
 30 29  1  0  0  0  0
 31 35  1  0  0  0  0
 32 36  2  0  0  0  0
 32 30  1  0  0  0  0
 33 34  1  0  0  0  0
 33 37  1  0  0  0  0
 34 31  1  0  0  0  0
 35 32  1  0  0  0  0
 37 35  1  0  0  0  0
 38 39  1  0  0  0  0
 40 41  2  0  0  0  0
 41 39  1  0  0  0  0
 42 40  1  1  0  0  0
 42 51  1  0  0  0  0
 43 42  1  0  0  0  0
 44 43  2  0  0  0  0
 45 46  1  0  0  0  0
 45 43  1  0  0  0  0
 47 46  1  0  0  0  0
 48 47  1  0  0  0  0
 49 48  1  0  0  0  0
 50 51  2  0  0  0  0
 51 52  1  0  0  0  0
M  END
>  <MODEL>
9

>  <REMARK>
 VINA RESULT:      -4.0      2.235     10.822
  Name = 
  19 active torsions:
  status: ('A' for Active; 'I' for Inactive)
    1  A    between atoms: C_2  and  C_16
    2  A    between atoms: C_4  and  C_18
    3  A    between atoms: N_7  and  C_21
    4  A    between atoms: C_8  and  C_14
    5  A    between atoms: C_11  and  C_16
    6  A    between atoms: C_13  and  C_17
    7  A    between atoms: C_13  and  C_36
    8  A    between atoms: C_16  and  C_35
    9  A    between atoms: C_17  and  O_46
   10  A    between atoms: C_18  and  N_42
   11  A    between atoms: C_20  and  O_43
   12  A    between atoms: C_24  and  C_40
   13  A    between atoms: N_26  and  N_42
   14  A    between atoms: C_28  and  C_34
   15  A    between atoms: C_28  and  C_51
   16  A    between atoms: C_31  and  C_41
   17  A    between atoms: C_36  and  O_43
   18  A    between atoms: N_38  and  O_46
   19  A    between atoms: N_47  and  C_51
                            x       y       z     vdW  Elec       q    Type
                         _______ _______ _______ _____ _____    ______ ____

>  <TORSDO>
F 19

$$$$
