=
 OpenBabel11052410243D

 36 38  0  0  1  0  0  0  0  0999 V2000
  158.1110  212.3710  150.9050 C   0  0  0  0  0  2  0  0  0  0  0  0
  156.7260  213.5570  154.9170 C   0  0  0  0  0  0  0  0  0  0  0  0
  159.6670  212.6500  154.3590 C   0  0  0  0  0  0  0  0  0  0  0  0
  157.7620  213.5460  150.0020 C   0  0  2  0  0  3  0  0  0  0  0  0
  160.0810  213.5210  151.9970 C   0  0  0  0  0  2  0  0  0  0  0  0
  155.7840  212.5450  154.9810 C   0  0  0  0  0  0  0  0  0  0  0  0
  154.9200  212.7270  153.9640 N   0  0  0  0  0  0  0  0  0  0  0  0
  159.6070  212.3190  151.1860 C   0  0  0  0  0  2  0  0  0  0  0  0
  156.7370  214.4530  150.6830 C   0  0  0  0  0  2  0  0  0  0  0  0
  155.4010  213.7530  150.8970 C   0  0  0  0  0  2  0  0  0  0  0  0
  155.3320  213.8140  153.3300 N   0  0  0  0  0  0  0  0  0  0  0  0
  156.4230  214.3390  153.8670 N   0  0  0  0  0  0  0  0  0  0  0  0
  154.7050  214.3230  152.1210 C   0  0  0  0  0  2  0  0  0  0  0  0
  157.9320  213.7570  155.7800 C   0  0  0  0  0  2  0  0  0  0  0  0
  158.9890  212.7300  155.5040 C   0  0  0  0  0  2  0  0  0  0  0  0
  159.4170  213.5750  153.2940 N   0  0  0  0  0  0  0  0  0  0  0  0
  158.0600  213.0950  147.5280 C   0  0  0  0  0  0  0  0  0  0  0  0
  159.2540  213.4980  147.5620 O   0  0  0  0  0  0  0  0  0  0  0  0
  157.2690  213.0610  148.7180 N   0  0  0  0  0  2  0  0  0  0  0  0
  157.4780  212.6200  146.2430 C   0  0  0  0  0  2  0  0  0  0  0  0
  159.3730  212.3340  144.4550 N   0  0  0  0  0  0  0  0  0  0  0  0
  158.5350  212.4610  145.2430 C   0  0  0  0  0  0  0  0  0  0  0  0
  155.6970  211.4390  155.9470 C   0  0  0  0  0  0  0  0  0  0  0  0
  155.4040  210.1230  155.4930 N   0  0  0  0  0  1  0  0  0  0  0  0
  155.8760  211.6440  157.1770 O   0  0  0  0  0  0  0  0  0  0  0  0
  160.7110  211.5910  154.2300 C   0  0  0  0  0  2  0  0  0  0  0  0
  160.1230  210.2850  154.4830 N   0  0  0  0  0  2  0  0  0  0  0  0
  161.5590  207.8440  151.8540 C   0  0  0  0  0  2  0  0  0  0  0  0
  160.8430  209.1020  152.3450 C   0  0  0  0  0  2  0  0  0  0  0  0
  160.6420  207.9680  154.5520 C   0  0  0  0  0  3  0  0  0  0  0  0
  160.5780  209.0960  153.8360 C   0  0  0  0  0  0  0  0  0  0  0  0
  161.1300  206.6680  153.9790 C   0  0  0  0  0  2  0  0  0  0  0  0
  160.9120  206.6040  152.4670 C   0  0  2  0  0  3  0  0  0  0  0  0
  161.0610  204.2130  152.5840 O   0  0  0  0  0  1  0  0  0  0  0  0
  161.5270  205.3300  151.8890 C   0  0  1  0  0  3  0  0  0  0  0  0
  161.1620  205.1770  150.4220 C   0  0  0  0  0  1  0  0  0  0  0  0
  1  8  1  0  0  0  0
  2  6  1  0  0  0  0
  2 14  1  0  0  0  0
  3 15  1  0  0  0  0
  4 19  1  6  0  0  0
  4  9  1  0  0  0  0
  4  1  1  0  0  0  0
  5 16  1  0  0  0  0
  6 23  1  0  0  0  0
  7  6  2  0  0  0  0
  8  5  1  0  0  0  0
  9 10  1  0  0  0  0
 10 13  1  0  0  0  0
 11 12  1  0  0  0  0
 11  7  1  0  0  0  0
 12  2  2  0  0  0  0
 13 11  1  0  0  0  0
 15 14  1  0  0  0  0
 16  3  2  0  0  0  0
 17 18  2  0  0  0  0
 17 19  1  0  0  0  0
 20 17  1  0  0  0  0
 21 22  3  0  0  0  0
 22 20  1  0  0  0  0
 23 25  2  0  0  0  0
 24 23  1  0  0  0  0
 26  3  1  0  0  0  0
 26 27  1  0  0  0  0
 28 29  1  0  0  0  0
 28 33  1  0  0  0  0
 29 31  1  0  0  0  0
 31 27  1  0  0  0  0
 31 30  2  0  0  0  0
 32 30  1  0  0  0  0
 33 35  1  6  0  0  0
 33 32  1  0  0  0  0
 35 36  1  6  0  0  0
 35 34  1  0  0  0  0
M  END
>  <MODEL>
1

>  <REMARK>
 VINA RESULT:      -5.2      0.000      0.000
  Name = 
  8 active torsions:
  status: ('A' for Active; 'I' for Inactive)
    1  A    between atoms: C_4  and  C_19
    2  A    between atoms: C_6  and  C_34
    3  A    between atoms: C_7  and  N_24
    4  A    between atoms: C_8  and  C_32
    5  A    between atoms: C_10  and  C_13
    6  A    between atoms: C_19  and  C_33
    7  A    between atoms: N_25  and  C_28
    8  A    between atoms: N_25  and  C_34
                            x       y       z     vdW  Elec       q    Type
                         _______ _______ _______ _____ _____    ______ ____

>  <TORSDO>
F 8

$$$$
=
 OpenBabel11052410243D

 36 38  0  0  1  0  0  0  0  0999 V2000
  159.1520  211.8280  151.8690 C   0  0  0  0  0  2  0  0  0  0  0  0
  157.1000  212.2240  155.7490 C   0  0  0  0  0  0  0  0  0  0  0  0
  159.6870  210.5040  155.3890 C   0  0  0  0  0  0  0  0  0  0  0  0
  159.4250  213.2570  151.4190 C   0  0  2  0  0  3  0  0  0  0  0  0
  160.9810  211.8060  153.6170 C   0  0  0  0  0  2  0  0  0  0  0  0
  155.9270  211.6570  155.2800 C   0  0  0  0  0  0  0  0  0  0  0  0
  155.4740  212.4290  154.2740 N   0  0  0  0  0  0  0  0  0  0  0  0
  160.4280  211.1520  152.3540 C   0  0  0  0  0  2  0  0  0  0  0  0
  158.5570  214.2380  152.2060 C   0  0  0  0  0  2  0  0  0  0  0  0
  157.0720  214.0470  151.9250 C   0  0  0  0  0  2  0  0  0  0  0  0
  156.3430  213.4230  154.1620 N   0  0  0  0  0  0  0  0  0  0  0  0
  157.3420  213.3310  155.0260 N   0  0  0  0  0  0  0  0  0  0  0  0
  156.2550  214.4530  153.1390 C   0  0  0  0  0  2  0  0  0  0  0  0
  158.0190  211.7080  156.8110 C   0  0  0  0  0  2  0  0  0  0  0  0
  158.7680  210.4930  156.3550 C   0  0  0  0  0  2  0  0  0  0  0  0
  160.0240  211.7220  154.7140 N   0  0  0  0  0  0  0  0  0  0  0  0
  160.2330  213.1980  149.0190 C   0  0  0  0  0  0  0  0  0  0  0  0
  161.3910  212.8570  149.3800 O   0  0  0  0  0  0  0  0  0  0  0  0
  159.1940  213.3810  149.9840 N   0  0  0  0  0  2  0  0  0  0  0  0
  159.9340  213.3790  147.5720 C   0  0  0  0  0  2  0  0  0  0  0  0
  157.4710  212.6380  147.0680 N   0  0  0  0  0  0  0  0  0  0  0  0
  158.5590  212.9640  147.2900 C   0  0  0  0  0  0  0  0  0  0  0  0
  155.2570  210.4320  155.7430 C   0  0  0  0  0  0  0  0  0  0  0  0
  154.6680  210.3920  157.0370 N   0  0  0  0  0  1  0  0  0  0  0  0
  155.2000  209.4130  155.0050 O   0  0  0  0  0  0  0  0  0  0  0  0
  160.3740  209.2220  155.0540 C   0  0  0  0  0  2  0  0  0  0  0  0
  160.4020  209.0410  153.6100 N   0  0  0  0  0  2  0  0  0  0  0  0
  161.6460  206.4490  151.0280 C   0  0  0  0  0  2  0  0  0  0  0  0
  160.9910  207.7480  151.4950 C   0  0  0  0  0  2  0  0  0  0  0  0
  160.8550  206.7130  153.7560 C   0  0  0  0  0  3  0  0  0  0  0  0
  160.7920  207.8130  152.9950 C   0  0  0  0  0  0  0  0  0  0  0  0
  161.2770  205.3760  153.2180 C   0  0  0  0  0  2  0  0  0  0  0  0
  160.9910  205.2570  151.7210 C   0  0  2  0  0  3  0  0  0  0  0  0
  161.1300  202.8760  151.9740 O   0  0  0  0  0  1  0  0  0  0  0  0
  161.5410  203.9410  151.1720 C   0  0  1  0  0  3  0  0  0  0  0  0
  161.0430  203.7030  149.7560 C   0  0  0  0  0  1  0  0  0  0  0  0
  1  8  1  0  0  0  0
  2 14  1  0  0  0  0
  3 15  1  0  0  0  0
  4 19  1  6  0  0  0
  4  1  1  0  0  0  0
  4  9  1  0  0  0  0
  5 16  1  0  0  0  0
  6 23  1  0  0  0  0
  6  2  1  0  0  0  0
  7  6  2  0  0  0  0
  8  5  1  0  0  0  0
 10  9  1  0  0  0  0
 10 13  1  0  0  0  0
 11  7  1  0  0  0  0
 11 12  1  0  0  0  0
 12  2  2  0  0  0  0
 13 11  1  0  0  0  0
 15 14  1  0  0  0  0
 16  3  2  0  0  0  0
 17 18  2  0  0  0  0
 17 19  1  0  0  0  0
 20 17  1  0  0  0  0
 21 22  3  0  0  0  0
 22 20  1  0  0  0  0
 23 24  1  0  0  0  0
 25 23  2  0  0  0  0
 26  3  1  0  0  0  0
 27 26  1  0  0  0  0
 28 29  1  0  0  0  0
 28 33  1  0  0  0  0
 29 31  1  0  0  0  0
 31 27  1  0  0  0  0
 31 30  2  0  0  0  0
 32 30  1  0  0  0  0
 33 35  1  6  0  0  0
 33 32  1  0  0  0  0
 35 36  1  6  0  0  0
 35 34  1  0  0  0  0
M  END
>  <MODEL>
2

>  <REMARK>
 VINA RESULT:      -4.9      1.644      2.045
  Name = 
  8 active torsions:
  status: ('A' for Active; 'I' for Inactive)
    1  A    between atoms: C_4  and  C_19
    2  A    between atoms: C_6  and  C_34
    3  A    between atoms: C_7  and  N_24
    4  A    between atoms: C_8  and  C_32
    5  A    between atoms: C_10  and  C_13
    6  A    between atoms: C_19  and  C_33
    7  A    between atoms: N_25  and  C_28
    8  A    between atoms: N_25  and  C_34
                            x       y       z     vdW  Elec       q    Type
                         _______ _______ _______ _____ _____    ______ ____

>  <TORSDO>
F 8

$$$$
=
 OpenBabel11052410243D

 36 38  0  0  1  0  0  0  0  0999 V2000
  159.9120  209.8120  152.6700 C   0  0  0  0  0  2  0  0  0  0  0  0
  162.2230  206.0630  152.7990 C   0  0  0  0  0  0  0  0  0  0  0  0
  162.2940  207.9910  150.3380 C   0  0  0  0  0  0  0  0  0  0  0  0
  160.3220  210.5730  153.9240 C   0  0  2  0  0  3  0  0  0  0  0  0
  162.0600  210.2880  151.4220 C   0  0  0  0  0  2  0  0  0  0  0  0
  161.0930  205.2730  152.9160 C   0  0  0  0  0  0  0  0  0  0  0  0
  160.4590  205.6330  154.0480 N   0  0  0  0  0  0  0  0  0  0  0  0
  160.5400  210.4250  151.4250 C   0  0  0  0  0  2  0  0  0  0  0  0
  161.0000  209.6330  154.9190 C   0  0  0  0  0  2  0  0  0  0  0  0
  160.0490  208.5630  155.4400 C   0  0  0  0  0  2  0  0  0  0  0  0
  161.1960  206.5920  154.5860 N   0  0  0  0  0  0  0  0  0  0  0  0
  162.2630  206.8880  153.8600 N   0  0  0  0  0  0  0  0  0  0  0  0
  160.8240  207.3060  155.7980 C   0  0  0  0  0  2  0  0  0  0  0  0
  163.2190  206.0970  151.6830 C   0  0  0  0  0  2  0  0  0  0  0  0
  162.6420  206.7090  150.4430 C   0  0  0  0  0  3  0  0  0  0  0  0
  162.4610  208.8870  151.4430 N   0  0  0  0  0  2  0  0  0  0  0  0
  158.7500  212.5450  154.1620 C   0  0  0  0  0  0  0  0  0  0  0  0
  159.3570  213.1840  153.2620 O   0  0  0  0  0  0  0  0  0  0  0  0
  159.1580  211.2220  154.5180 N   0  0  0  0  0  2  0  0  0  0  0  0
  157.5750  213.1590  154.8390 C   0  0  0  0  0  2  0  0  0  0  0  0
  155.8390  211.3030  155.4860 N   0  0  0  0  0  0  0  0  0  0  0  0
  156.6070  212.1220  155.1990 C   0  0  0  0  0  0  0  0  0  0  0  0
  160.6110  204.2280  152.0000 C   0  0  0  0  0  0  0  0  0  0  0  0
  160.7570  202.8560  152.3500 N   0  0  0  0  0  1  0  0  0  0  0  0
  160.0700  204.5330  150.9040 O   0  0  0  0  0  0  0  0  0  0  0  0
  161.7530  208.4710  149.0320 C   0  0  0  0  0  2  0  0  0  0  0  0
  162.5550  207.9390  147.9410 N   0  0  0  0  0  2  0  0  0  0  0  0
  160.5400  205.4920  145.7300 C   0  0  0  0  0  2  0  0  0  0  0  0
  160.7340  206.6350  146.7250 C   0  0  0  0  0  2  0  0  0  0  0  0
  163.0640  205.8080  147.0210 C   0  0  0  0  0  3  0  0  0  0  0  0
  162.1670  206.7870  147.1900 C   0  0  0  0  0  0  0  0  0  0  0  0
  162.7710  204.5660  146.2290 C   0  0  0  0  0  2  0  0  0  0  0  0
  161.2760  204.2470  146.2180 C   0  0  2  0  0  3  0  0  0  0  0  0
  160.8300  201.8950  146.0650 O   0  0  0  0  0  1  0  0  0  0  0  0
  160.9890  203.0550  145.3060 C   0  0  1  0  0  3  0  0  0  0  0  0
  159.7180  203.2880  144.5050 C   0  0  0  0  0  1  0  0  0  0  0  0
  1  4  1  0  0  0  0
  2  6  1  0  0  0  0
  2 12  2  0  0  0  0
  3 15  2  0  0  0  0
  3 16  1  0  0  0  0
  4 19  1  1  0  0  0
  4  9  1  0  0  0  0
  5  8  1  0  0  0  0
  5 16  1  0  0  0  0
  6  7  2  0  0  0  0
  7 11  1  0  0  0  0
  8  1  1  0  0  0  0
  9 10  1  0  0  0  0
 10 13  1  0  0  0  0
 11 13  1  0  0  0  0
 12 11  1  0  0  0  0
 14  2  1  0  0  0  0
 15 14  1  0  0  0  0
 17 19  1  0  0  0  0
 17 20  1  0  0  0  0
 18 17  2  0  0  0  0
 20 22  1  0  0  0  0
 22 21  3  0  0  0  0
 23 24  1  0  0  0  0
 23  6  1  0  0  0  0
 25 23  2  0  0  0  0
 26  3  1  0  0  0  0
 27 26  1  0  0  0  0
 28 33  1  0  0  0  0
 28 29  1  0  0  0  0
 29 31  1  0  0  0  0
 30 31  2  0  0  0  0
 31 27  1  0  0  0  0
 32 30  1  0  0  0  0
 33 35  1  6  0  0  0
 33 32  1  0  0  0  0
 35 36  1  1  0  0  0
 35 34  1  0  0  0  0
M  END
>  <MODEL>
3

>  <REMARK>
 VINA RESULT:      -4.8      3.639      7.902
  Name = 
  8 active torsions:
  status: ('A' for Active; 'I' for Inactive)
    1  A    between atoms: C_4  and  C_19
    2  A    between atoms: C_6  and  C_34
    3  A    between atoms: C_7  and  N_24
    4  A    between atoms: C_8  and  C_32
    5  A    between atoms: C_10  and  C_13
    6  A    between atoms: C_19  and  C_33
    7  A    between atoms: N_25  and  C_28
    8  A    between atoms: N_25  and  C_34
                            x       y       z     vdW  Elec       q    Type
                         _______ _______ _______ _____ _____    ______ ____

>  <TORSDO>
F 8

$$$$
=
 OpenBabel11052410243D

 36 38  0  0  1  0  0  0  0  0999 V2000
  159.9200  209.7940  152.8100 C   0  0  0  0  0  2  0  0  0  0  0  0
  162.3010  206.7650  150.6710 C   0  0  0  0  0  0  0  0  0  0  0  0
  161.9430  209.6810  149.5970 C   0  0  0  0  0  0  0  0  0  0  0  0
  160.5060  209.8380  154.2150 C   0  0  2  0  0  3  0  0  0  0  0  0
  161.8350  211.0560  151.7430 C   0  0  0  0  0  2  0  0  0  0  0  0
  161.2200  205.9200  150.4950 C   0  0  0  0  0  0  0  0  0  0  0  0
  160.7640  205.5800  151.7150 N   0  0  0  0  0  0  0  0  0  0  0  0
  160.3320  211.0190  152.0040 C   0  0  0  0  0  2  0  0  0  0  0  0
  161.3520  208.5930  154.4770 C   0  0  0  0  0  2  0  0  0  0  0  0
  160.5180  207.3180  154.4740 C   0  0  0  0  0  2  0  0  0  0  0  0
  161.5570  206.1940  152.5800 N   0  0  0  0  0  0  0  0  0  0  0  0
  162.4900  206.9260  151.9910 N   0  0  0  0  0  0  0  0  0  0  0  0
  161.3650  206.1420  154.0220 C   0  0  0  0  0  2  0  0  0  0  0  0
  163.1080  207.4680  149.6240 C   0  0  0  0  0  2  0  0  0  0  0  0
  162.3300  208.5700  148.9710 C   0  0  0  0  0  3  0  0  0  0  0  0
  162.2630  209.8920  150.9770 N   0  0  0  0  0  2  0  0  0  0  0  0
  159.0060  211.2350  155.7020 C   0  0  0  0  0  0  0  0  0  0  0  0
  159.5030  212.3050  155.2600 O   0  0  0  0  0  0  0  0  0  0  0  0
  159.4370  209.9680  155.1990 N   0  0  0  0  0  2  0  0  0  0  0  0
  157.9350  211.2900  156.7350 C   0  0  0  0  0  2  0  0  0  0  0  0
  155.9700  212.8170  155.9110 N   0  0  0  0  0  0  0  0  0  0  0  0
  156.8390  212.1430  156.2750 C   0  0  0  0  0  0  0  0  0  0  0  0
  160.6210  205.4530  149.2340 C   0  0  0  0  0  0  0  0  0  0  0  0
  160.8000  204.1030  148.8220 N   0  0  0  0  0  1  0  0  0  0  0  0
  159.9520  206.2370  148.5120 O   0  0  0  0  0  0  0  0  0  0  0  0
  161.1940  210.7080  148.8140 C   0  0  0  0  0  2  0  0  0  0  0  0
  162.1260  211.6690  148.2440 N   0  0  0  0  0  2  0  0  0  0  0  0
  160.1930  213.5820  145.4980 C   0  0  0  0  0  2  0  0  0  0  0  0
  160.3940  212.5230  146.5820 C   0  0  0  0  0  2  0  0  0  0  0  0
  162.8330  212.9850  146.3970 C   0  0  0  0  0  3  0  0  0  0  0  0
  161.8200  212.4440  147.0840 C   0  0  0  0  0  0  0  0  0  0  0  0
  162.6240  213.8380  145.1780 C   0  0  0  0  0  2  0  0  0  0  0  0
  161.3150  213.4920  144.4690 C   0  0  2  0  0  3  0  0  0  0  0  0
  162.1020  214.3670  142.3780 O   0  0  0  0  0  1  0  0  0  0  0  0
  161.0640  214.4530  143.3070 C   0  0  1  0  0  3  0  0  0  0  0  0
  159.7570  214.1180  142.6080 C   0  0  0  0  0  1  0  0  0  0  0  0
  1  4  1  0  0  0  0
  2 12  2  0  0  0  0
  3 16  1  0  0  0  0
  4  9  1  0  0  0  0
  4 19  1  1  0  0  0
  5  8  1  0  0  0  0
  6  2  1  0  0  0  0
  6  7  2  0  0  0  0
  7 11  1  0  0  0  0
  8  1  1  0  0  0  0
 10  9  1  0  0  0  0
 11 13  1  0  0  0  0
 12 11  1  0  0  0  0
 13 10  1  0  0  0  0
 14  2  1  0  0  0  0
 15  3  2  0  0  0  0
 15 14  1  0  0  0  0
 16  5  1  0  0  0  0
 17 20  1  0  0  0  0
 18 17  2  0  0  0  0
 19 17  1  0  0  0  0
 21 22  3  0  0  0  0
 22 20  1  0  0  0  0
 23  6  1  0  0  0  0
 24 23  1  0  0  0  0
 25 23  2  0  0  0  0
 26  3  1  0  0  0  0
 27 26  1  0  0  0  0
 28 29  1  0  0  0  0
 29 31  1  0  0  0  0
 30 31  2  0  0  0  0
 31 27  1  0  0  0  0
 32 30  1  0  0  0  0
 33 35  1  6  0  0  0
 33 32  1  0  0  0  0
 33 28  1  0  0  0  0
 34 35  1  0  0  0  0
 35 36  1  6  0  0  0
M  END
>  <MODEL>
4

>  <REMARK>
 VINA RESULT:      -4.5      3.441      9.199
  Name = 
  8 active torsions:
  status: ('A' for Active; 'I' for Inactive)
    1  A    between atoms: C_4  and  C_19
    2  A    between atoms: C_6  and  C_34
    3  A    between atoms: C_7  and  N_24
    4  A    between atoms: C_8  and  C_32
    5  A    between atoms: C_10  and  C_13
    6  A    between atoms: C_19  and  C_33
    7  A    between atoms: N_25  and  C_28
    8  A    between atoms: N_25  and  C_34
                            x       y       z     vdW  Elec       q    Type
                         _______ _______ _______ _____ _____    ______ ____

>  <TORSDO>
F 8

$$$$
=
 OpenBabel11052410243D

 36 38  0  0  1  0  0  0  0  0999 V2000
  160.8380  210.8460  150.1550 C   0  0  0  0  0  2  0  0  0  0  0  0
  159.5810  212.1630  154.1680 C   0  0  0  0  0  0  0  0  0  0  0  0
  161.4200  209.6730  153.7210 C   0  0  0  0  0  0  0  0  0  0  0  0
  161.4790  212.0720  149.5190 C   0  0  2  0  0  3  0  0  0  0  0  0
  162.7940  210.3540  151.6820 C   0  0  0  0  0  2  0  0  0  0  0  0
  158.2360  211.9770  153.8980 C   0  0  0  0  0  0  0  0  0  0  0  0
  157.9110  212.7810  152.8680 N   0  0  0  0  0  0  0  0  0  0  0  0
  161.8920  209.8270  150.5690 C   0  0  0  0  0  2  0  0  0  0  0  0
  161.0830  213.3360  150.2820 C   0  0  0  0  0  2  0  0  0  0  0  0
  159.5890  213.6200  150.1900 C   0  0  0  0  0  2  0  0  0  0  0  0
  159.0230  213.4270  152.5500 N   0  0  0  0  0  0  0  0  0  0  0  0
  160.0540  213.0760  153.3030 N   0  0  0  0  0  0  0  0  0  0  0  0
  159.1200  214.3550  151.4340 C   0  0  0  0  0  2  0  0  0  0  0  0
  160.4320  211.4520  155.1740 C   0  0  0  0  0  2  0  0  0  0  0  0
  160.6890  210.0300  154.7770 C   0  0  0  0  0  2  0  0  0  0  0  0
  162.0230  210.6640  152.8800 N   0  0  0  0  0  0  0  0  0  0  0  0
  161.8120  212.9730  147.1760 C   0  0  0  0  0  0  0  0  0  0  0  0
  162.8460  213.6020  147.5260 O   0  0  0  0  0  0  0  0  0  0  0  0
  161.1000  212.1630  148.1140 N   0  0  0  0  0  2  0  0  0  0  0  0
  161.3440  213.0480  145.7640 C   0  0  0  0  0  2  0  0  0  0  0  0
  163.3940  213.3280  144.1540 N   0  0  0  0  0  0  0  0  0  0  0  0
  162.4900  213.2030  144.8660 C   0  0  0  0  0  0  0  0  0  0  0  0
  157.2870  211.0730  154.5670 C   0  0  0  0  0  0  0  0  0  0  0  0
  155.8990  211.1550  154.2670 N   0  0  0  0  0  1  0  0  0  0  0  0
  157.6900  210.2250  155.4060 O   0  0  0  0  0  0  0  0  0  0  0  0
  161.6160  208.2170  153.4580 C   0  0  0  0  0  2  0  0  0  0  0  0
  160.6460  207.7590  152.4750 N   0  0  0  0  0  2  0  0  0  0  0  0
  160.9720  205.3130  149.5010 C   0  0  0  0  0  2  0  0  0  0  0  0
  160.4830  206.5630  150.2310 C   0  0  0  0  0  2  0  0  0  0  0  0
  161.2010  205.4530  152.3400 C   0  0  0  0  0  3  0  0  0  0  0  0
  160.8320  206.5710  151.7040 C   0  0  0  0  0  0  0  0  0  0  0  0
  161.4480  204.1550  151.6250 C   0  0  0  0  0  2  0  0  0  0  0  0
  160.6500  204.0700  150.3250 C   0  0  2  0  0  3  0  0  0  0  0  0
  159.9940  201.8530  149.6820 O   0  0  0  0  0  1  0  0  0  0  0  0
  161.0120  202.8000  149.5550 C   0  0  1  0  0  3  0  0  0  0  0  0
  161.2090  203.1060  148.0800 C   0  0  0  0  0  1  0  0  0  0  0  0
  1  8  1  0  0  0  0
  2 14  1  0  0  0  0
  3 15  1  0  0  0  0
  4 19  1  6  0  0  0
  4  1  1  0  0  0  0
  4  9  1  0  0  0  0
  5 16  1  0  0  0  0
  6  2  1  0  0  0  0
  6 23  1  0  0  0  0
  7  6  2  0  0  0  0
  8  5  1  0  0  0  0
 10  9  1  0  0  0  0
 10 13  1  0  0  0  0
 11  7  1  0  0  0  0
 11 12  1  0  0  0  0
 12  2  2  0  0  0  0
 13 11  1  0  0  0  0
 15 14  1  0  0  0  0
 16  3  2  0  0  0  0
 17 18  2  0  0  0  0
 17 19  1  0  0  0  0
 20 17  1  0  0  0  0
 21 22  3  0  0  0  0
 22 20  1  0  0  0  0
 23 25  2  0  0  0  0
 24 23  1  0  0  0  0
 26  3  1  0  0  0  0
 27 26  1  0  0  0  0
 28 29  1  0  0  0  0
 28 33  1  0  0  0  0
 29 31  1  0  0  0  0
 31 30  2  0  0  0  0
 31 27  1  0  0  0  0
 32 30  1  0  0  0  0
 33 35  1  6  0  0  0
 33 32  1  0  0  0  0
 35 36  1  6  0  0  0
 35 34  1  0  0  0  0
M  END
>  <MODEL>
5

>  <REMARK>
 VINA RESULT:      -4.1      2.474      3.573
  Name = 
  8 active torsions:
  status: ('A' for Active; 'I' for Inactive)
    1  A    between atoms: C_4  and  C_19
    2  A    between atoms: C_6  and  C_34
    3  A    between atoms: C_7  and  N_24
    4  A    between atoms: C_8  and  C_32
    5  A    between atoms: C_10  and  C_13
    6  A    between atoms: C_19  and  C_33
    7  A    between atoms: N_25  and  C_28
    8  A    between atoms: N_25  and  C_34
                            x       y       z     vdW  Elec       q    Type
                         _______ _______ _______ _____ _____    ______ ____

>  <TORSDO>
F 8

$$$$
=
 OpenBabel11052410243D

 36 38  0  0  1  0  0  0  0  0999 V2000
  160.3770  211.1390  151.2370 C   0  0  0  0  0  2  0  0  0  0  0  0
  158.8740  212.0910  155.2690 C   0  0  0  0  0  0  0  0  0  0  0  0
  160.9040  209.7710  154.7420 C   0  0  0  0  0  0  0  0  0  0  0  0
  160.9510  212.4470  150.7100 C   0  0  2  0  0  3  0  0  0  0  0  0
  162.3030  210.6820  152.8120 C   0  0  0  0  0  2  0  0  0  0  0  0
  157.5570  211.8300  154.9300 C   0  0  0  0  0  0  0  0  0  0  0  0
  157.2150  212.6770  153.9410 N   0  0  0  0  0  0  0  0  0  0  0  0
  161.4850  210.1700  151.6300 C   0  0  0  0  0  2  0  0  0  0  0  0
  160.4350  213.6250  151.5350 C   0  0  0  0  0  2  0  0  0  0  0  0
  158.9290  213.8100  151.3970 C   0  0  0  0  0  2  0  0  0  0  0  0
  158.2890  213.4190  153.7130 N   0  0  0  0  0  0  0  0  0  0  0  0
  159.3120  213.0910  154.4860 N   0  0  0  0  0  0  0  0  0  0  0  0
  158.3610  214.4240  152.6640 C   0  0  0  0  0  2  0  0  0  0  0  0
  159.7350  211.3750  156.2630 C   0  0  0  0  0  2  0  0  0  0  0  0
  160.1100  210.0050  155.7860 C   0  0  0  0  0  2  0  0  0  0  0  0
  161.4660  210.8560  153.9930 N   0  0  0  0  0  0  0  0  0  0  0  0
  161.5690  212.3700  148.2550 C   0  0  0  0  0  0  0  0  0  0  0  0
  162.7270  211.9520  148.5230 O   0  0  0  0  0  0  0  0  0  0  0  0
  160.6200  212.6050  149.2980 N   0  0  0  0  0  2  0  0  0  0  0  0
  161.1730  212.5890  146.8370 C   0  0  0  0  0  2  0  0  0  0  0  0
  158.5600  212.5610  146.6220 N   0  0  0  0  0  0  0  0  0  0  0  0
  159.7140  212.5750  146.7170 C   0  0  0  0  0  0  0  0  0  0  0  0
  156.6520  210.8190  155.4970 C   0  0  0  0  0  0  0  0  0  0  0  0
  155.6430  211.2100  156.4210 N   0  0  0  0  0  1  0  0  0  0  0  0
  156.7600  209.6060  155.1760 O   0  0  0  0  0  0  0  0  0  0  0  0
  161.2150  208.3530  154.3940 C   0  0  0  0  0  2  0  0  0  0  0  0
  160.4520  207.9550  153.2210 N   0  0  0  0  0  2  0  0  0  0  0  0
  161.4320  205.6350  150.2900 C   0  0  0  0  0  2  0  0  0  0  0  0
  160.8380  206.8830  150.9420 C   0  0  0  0  0  2  0  0  0  0  0  0
  160.8810  205.6220  153.0890 C   0  0  0  0  0  3  0  0  0  0  0  0
  160.7690  206.7940  152.4530 C   0  0  0  0  0  0  0  0  0  0  0  0
  161.2370  204.3450  152.3820 C   0  0  0  0  0  2  0  0  0  0  0  0
  160.8210  204.3820  150.9120 C   0  0  2  0  0  3  0  0  0  0  0  0
  160.5270  202.0280  150.5580 O   0  0  0  0  0  1  0  0  0  0  0  0
  161.3030  203.1270  150.1860 C   0  0  1  0  0  3  0  0  0  0  0  0
  161.2010  203.3060  148.6810 C   0  0  0  0  0  1  0  0  0  0  0  0
  1  8  1  0  0  0  0
  2 14  1  0  0  0  0
  3 15  1  0  0  0  0
  4 19  1  6  0  0  0
  4  1  1  0  0  0  0
  4  9  1  0  0  0  0
  5 16  1  0  0  0  0
  6  2  1  0  0  0  0
  6 23  1  0  0  0  0
  7  6  2  0  0  0  0
  8  5  1  0  0  0  0
 10  9  1  0  0  0  0
 10 13  1  0  0  0  0
 11  7  1  0  0  0  0
 11 12  1  0  0  0  0
 12  2  2  0  0  0  0
 13 11  1  0  0  0  0
 15 14  1  0  0  0  0
 16  3  2  0  0  0  0
 17 18  2  0  0  0  0
 17 19  1  0  0  0  0
 20 17  1  0  0  0  0
 21 22  3  0  0  0  0
 22 20  1  0  0  0  0
 23 24  1  0  0  0  0
 25 23  2  0  0  0  0
 26  3  1  0  0  0  0
 27 26  1  0  0  0  0
 28 33  1  0  0  0  0
 28 29  1  0  0  0  0
 29 31  1  0  0  0  0
 31 30  2  0  0  0  0
 31 27  1  0  0  0  0
 32 30  1  0  0  0  0
 33 35  1  6  0  0  0
 33 32  1  0  0  0  0
 35 36  1  6  0  0  0
 35 34  1  0  0  0  0
M  END
>  <MODEL>
6

>  <REMARK>
 VINA RESULT:      -3.9      2.014      2.978
  Name = 
  8 active torsions:
  status: ('A' for Active; 'I' for Inactive)
    1  A    between atoms: C_4  and  C_19
    2  A    between atoms: C_6  and  C_34
    3  A    between atoms: C_7  and  N_24
    4  A    between atoms: C_8  and  C_32
    5  A    between atoms: C_10  and  C_13
    6  A    between atoms: C_19  and  C_33
    7  A    between atoms: N_25  and  C_28
    8  A    between atoms: N_25  and  C_34
                            x       y       z     vdW  Elec       q    Type
                         _______ _______ _______ _____ _____    ______ ____

>  <TORSDO>
F 8

$$$$
=
 OpenBabel11052410243D

 36 38  0  0  1  0  0  0  0  0999 V2000
  160.4560  206.2560  152.1930 C   0  0  0  0  0  2  0  0  0  0  0  0
  162.0040  210.3800  152.3510 C   0  0  0  0  0  0  0  0  0  0  0  0
  161.0950  208.8300  154.9120 C   0  0  0  0  0  0  0  0  0  0  0  0
  161.5320  205.4580  151.4700 C   0  0  2  0  0  3  0  0  0  0  0  0
  161.7400  206.4230  154.3660 C   0  0  0  0  0  2  0  0  0  0  0  0
  160.9880  210.8800  151.5560 C   0  0  0  0  0  0  0  0  0  0  0  0
  161.0550  210.2530  150.3660 N   0  0  0  0  0  0  0  0  0  0  0  0
  160.4570  205.9550  153.6860 C   0  0  0  0  0  2  0  0  0  0  0  0
  162.4840  206.3960  150.7290 C   0  0  0  0  0  2  0  0  0  0  0  0
  161.7860  207.1570  149.6090 C   0  0  0  0  0  2  0  0  0  0  0  0
  162.0830  209.4220  150.4530 N   0  0  0  0  0  0  0  0  0  0  0  0
  162.6750  209.4610  151.6370 N   0  0  0  0  0  0  0  0  0  0  0  0
  162.4610  208.5010  149.3930 C   0  0  0  0  0  2  0  0  0  0  0  0
  162.3070  210.7030  153.7810 C   0  0  0  0  0  2  0  0  0  0  0  0
  161.2760  210.1350  154.7090 C   0  0  0  0  0  2  0  0  0  0  0  0
  161.9080  207.8650  154.2340 N   0  0  0  0  0  0  0  0  0  0  0  0
  161.0030  203.0870  150.7530 C   0  0  0  0  0  0  0  0  0  0  0  0
  161.5740  202.6130  151.7720 O   0  0  0  0  0  0  0  0  0  0  0  0
  160.9170  204.5000  150.5580 N   0  0  0  0  0  2  0  0  0  0  0  0
  160.3840  202.1670  149.7600 C   0  0  0  0  0  2  0  0  0  0  0  0
  161.2060  202.7760  147.3460 N   0  0  0  0  0  0  0  0  0  0  0  0
  160.8420  202.5070  148.4110 C   0  0  0  0  0  0  0  0  0  0  0  0
  159.9800  211.8960  151.8940 C   0  0  0  0  0  0  0  0  0  0  0  0
  160.0810  213.2050  151.3450 N   0  0  0  0  0  1  0  0  0  0  0  0
  159.0250  211.6220  152.6680 O   0  0  0  0  0  0  0  0  0  0  0  0
  160.0460  208.4060  155.8860 C   0  0  0  0  0  2  0  0  0  0  0  0
  159.7700  209.4890  156.8160 N   0  0  0  0  0  2  0  0  0  0  0  0
  158.3680  213.0700  156.4320 C   0  0  0  0  0  2  0  0  0  0  0  0
  159.2000  211.9590  157.0720 C   0  0  0  0  0  2  0  0  0  0  0  0
  157.8240  210.3510  155.7610 C   0  0  0  0  0  3  0  0  0  0  0  0
  158.9220  210.5900  156.4880 C   0  0  0  0  0  0  0  0  0  0  0  0
  156.8770  211.4380  155.3380 C   0  0  0  0  0  2  0  0  0  0  0  0
  156.9140  212.6220  156.3030 C   0  0  2  0  0  3  0  0  0  0  0  0
  155.5810  213.4740  154.5010 O   0  0  0  0  0  1  0  0  0  0  0  0
  156.0390  213.7630  155.7870 C   0  0  1  0  0  3  0  0  0  0  0  0
  154.8380  213.9700  156.6950 C   0  0  0  0  0  1  0  0  0  0  0  0
  1  8  1  0  0  0  0
  2 14  1  0  0  0  0
  3 26  1  0  0  0  0
  4 19  1  6  0  0  0
  4  1  1  0  0  0  0
  6 23  1  0  0  0  0
  6  2  1  0  0  0  0
  7 11  1  0  0  0  0
  7  6  2  0  0  0  0
  8  5  1  0  0  0  0
  9  4  1  0  0  0  0
 10  9  1  0  0  0  0
 11 12  1  0  0  0  0
 12  2  2  0  0  0  0
 13 10  1  0  0  0  0
 13 11  1  0  0  0  0
 14 15  1  0  0  0  0
 15  3  1  0  0  0  0
 16  5  1  0  0  0  0
 16  3  2  0  0  0  0
 17 18  2  0  0  0  0
 19 17  1  0  0  0  0
 20 17  1  0  0  0  0
 21 22  3  0  0  0  0
 22 20  1  0  0  0  0
 23 25  2  0  0  0  0
 24 23  1  0  0  0  0
 26 27  1  0  0  0  0
 28 29  1  0  0  0  0
 30 31  2  0  0  0  0
 31 27  1  0  0  0  0
 31 29  1  0  0  0  0
 32 30  1  0  0  0  0
 32 33  1  0  0  0  0
 33 35  1  6  0  0  0
 33 28  1  0  0  0  0
 34 35  1  0  0  0  0
 35 36  1  1  0  0  0
M  END
>  <MODEL>
7

>  <REMARK>
 VINA RESULT:      -3.6      3.455      8.090
  Name = 
  8 active torsions:
  status: ('A' for Active; 'I' for Inactive)
    1  A    between atoms: C_4  and  C_19
    2  A    between atoms: C_6  and  C_34
    3  A    between atoms: C_7  and  N_24
    4  A    between atoms: C_8  and  C_32
    5  A    between atoms: C_10  and  C_13
    6  A    between atoms: C_19  and  C_33
    7  A    between atoms: N_25  and  C_28
    8  A    between atoms: N_25  and  C_34
                            x       y       z     vdW  Elec       q    Type
                         _______ _______ _______ _____ _____    ______ ____

>  <TORSDO>
F 8

$$$$
=
 OpenBabel11052410243D

 36 38  0  0  1  0  0  0  0  0999 V2000
  160.6910  206.6640  150.1050 C   0  0  0  0  0  2  0  0  0  0  0  0
  161.9660  210.3270  152.1970 C   0  0  0  0  0  0  0  0  0  0  0  0
  161.3870  207.6500  153.7070 C   0  0  0  0  0  0  0  0  0  0  0  0
  161.7530  206.4280  149.0390 C   0  0  2  0  0  3  0  0  0  0  0  0
  162.1430  205.8860  152.0250 C   0  0  0  0  0  2  0  0  0  0  0  0
  160.8540  211.0450  151.7920 C   0  0  0  0  0  0  0  0  0  0  0  0
  160.8610  211.0830  150.4460 N   0  0  0  0  0  0  0  0  0  0  0  0
  160.8400  205.6800  151.2580 C   0  0  0  0  0  2  0  0  0  0  0  0
  162.5730  207.6980  148.8140 C   0  0  0  0  0  2  0  0  0  0  0  0
  161.7310  208.8310  148.2410 C   0  0  0  0  0  2  0  0  0  0  0  0
  161.9460  210.4210  150.0720 N   0  0  0  0  0  0  0  0  0  0  0  0
  162.6340  209.9420  151.0970 N   0  0  0  0  0  0  0  0  0  0  0  0
  162.2930  210.1720  148.6820 C   0  0  0  0  0  2  0  0  0  0  0  0
  162.3680  209.9470  153.5880 C   0  0  0  0  0  2  0  0  0  0  0  0
  161.4610  208.9010  154.1610 C   0  0  0  0  0  2  0  0  0  0  0  0
  162.2010  207.2210  152.6090 N   0  0  0  0  0  0  0  0  0  0  0  0
  161.8640  205.3350  146.7570 C   0  0  0  0  0  0  0  0  0  0  0  0
  163.0900  205.0810  146.8990 O   0  0  0  0  0  0  0  0  0  0  0  0
  161.1280  205.9750  147.8020 N   0  0  0  0  0  2  0  0  0  0  0  0
  161.1670  204.9340  145.5050 C   0  0  0  0  0  2  0  0  0  0  0  0
  160.8290  202.3340  145.4630 N   0  0  0  0  0  0  0  0  0  0  0  0
  160.9770  203.4830  145.4800 C   0  0  0  0  0  0  0  0  0  0  0  0
  159.8120  211.6630  152.6270 C   0  0  0  0  0  0  0  0  0  0  0  0
  160.1820  212.4770  153.7340 N   0  0  0  0  0  1  0  0  0  0  0  0
  158.5920  211.4790  152.3740 O   0  0  0  0  0  0  0  0  0  0  0  0
  160.4560  206.7040  154.3910 C   0  0  0  0  0  2  0  0  0  0  0  0
  160.2040  207.1570  155.7500 N   0  0  0  0  0  2  0  0  0  0  0  0
  160.3190  210.7590  157.1450 C   0  0  0  0  0  2  0  0  0  0  0  0
  160.6430  209.2660  157.1110 C   0  0  0  0  0  2  0  0  0  0  0  0
  158.7640  209.0300  155.4940 C   0  0  0  0  0  3  0  0  0  0  0  0
  159.8590  208.5070  156.0610 C   0  0  0  0  0  0  0  0  0  0  0  0
  158.3240  210.4460  155.7310 C   0  0  0  0  0  2  0  0  0  0  0  0
  158.8080  210.9660  157.0840 C   0  0  2  0  0  3  0  0  0  0  0  0
  159.6130  213.2220  157.2020 O   0  0  0  0  0  1  0  0  0  0  0  0
  158.4560  212.4440  157.2490 C   0  0  1  0  0  3  0  0  0  0  0  0
  157.5210  212.8970  156.1400 C   0  0  0  0  0  1  0  0  0  0  0  0
  1  8  1  0  0  0  0
  2 14  1  0  0  0  0
  3 15  1  0  0  0  0
  3 26  1  0  0  0  0
  4 19  1  6  0  0  0
  4  1  1  0  0  0  0
  5 16  1  0  0  0  0
  6  2  1  0  0  0  0
  6 23  1  0  0  0  0
  7  6  2  0  0  0  0
  8  5  1  0  0  0  0
  9  4  1  0  0  0  0
 10 13  1  0  0  0  0
 10  9  1  0  0  0  0
 11  7  1  0  0  0  0
 11 12  1  0  0  0  0
 12  2  2  0  0  0  0
 13 11  1  0  0  0  0
 14 15  1  0  0  0  0
 16  3  2  0  0  0  0
 17 18  2  0  0  0  0
 17 19  1  0  0  0  0
 20 17  1  0  0  0  0
 21 22  3  0  0  0  0
 22 20  1  0  0  0  0
 23 24  1  0  0  0  0
 25 23  2  0  0  0  0
 26 27  1  0  0  0  0
 27 31  1  0  0  0  0
 29 28  1  0  0  0  0
 30 32  1  0  0  0  0
 30 31  2  0  0  0  0
 31 29  1  0  0  0  0
 32 33  1  0  0  0  0
 33 28  1  0  0  0  0
 33 35  1  6  0  0  0
 34 35  1  0  0  0  0
 35 36  1  6  0  0  0
M  END
>  <MODEL>
8

>  <REMARK>
 VINA RESULT:      -3.5      3.717      7.297
  Name = 
  8 active torsions:
  status: ('A' for Active; 'I' for Inactive)
    1  A    between atoms: C_4  and  C_19
    2  A    between atoms: C_6  and  C_34
    3  A    between atoms: C_7  and  N_24
    4  A    between atoms: C_8  and  C_32
    5  A    between atoms: C_10  and  C_13
    6  A    between atoms: C_19  and  C_33
    7  A    between atoms: N_25  and  C_28
    8  A    between atoms: N_25  and  C_34
                            x       y       z     vdW  Elec       q    Type
                         _______ _______ _______ _____ _____    ______ ____

>  <TORSDO>
F 8

$$$$
=
 OpenBabel11052410243D

 36 38  0  0  1  0  0  0  0  0999 V2000
  159.7440  209.8460  152.7680 C   0  0  0  0  0  2  0  0  0  0  0  0
  162.2980  206.2790  152.3490 C   0  0  0  0  0  0  0  0  0  0  0  0
  162.2420  208.5610  150.2110 C   0  0  0  0  0  0  0  0  0  0  0  0
  160.1030  210.4310  154.1270 C   0  0  2  0  0  3  0  0  0  0  0  0
  161.8570  210.6460  151.6290 C   0  0  0  0  0  2  0  0  0  0  0  0
  161.2220  205.4090  152.3320 C   0  0  0  0  0  0  0  0  0  0  0  0
  160.5650  205.5490  153.4990 N   0  0  0  0  0  0  0  0  0  0  0  0
  160.3310  210.6810  151.6370 C   0  0  0  0  0  2  0  0  0  0  0  0
  160.8420  209.3960  154.9750 C   0  0  0  0  0  2  0  0  0  0  0  0
  159.9630  208.2000  155.3170 C   0  0  0  0  0  2  0  0  0  0  0  0
  161.2380  206.4610  154.1840 N   0  0  0  0  0  0  0  0  0  0  0  0
  162.2830  206.9330  153.5230 N   0  0  0  0  0  0  0  0  0  0  0  0
  160.8190  206.9560  155.4870 C   0  0  0  0  0  2  0  0  0  0  0  0
  163.2900  206.5480  151.2610 C   0  0  0  0  0  2  0  0  0  0  0  0
  162.6740  207.3030  150.1220 C   0  0  0  0  0  3  0  0  0  0  0  0
  162.3490  209.2870  151.4410 N   0  0  0  0  0  2  0  0  0  0  0  0
  158.5450  212.2880  154.8620 C   0  0  0  0  0  0  0  0  0  0  0  0
  159.2430  213.1560  154.2720 O   0  0  0  0  0  0  0  0  0  0  0  0
  158.8990  210.9050  154.8010 N   0  0  0  0  0  2  0  0  0  0  0  0
  157.3220  212.7030  155.6010 C   0  0  0  0  0  2  0  0  0  0  0  0
  155.6350  210.7010  155.7420 N   0  0  0  0  0  0  0  0  0  0  0  0
  156.3810  211.5840  155.6800 C   0  0  0  0  0  0  0  0  0  0  0  0
  160.8100  204.4870  151.2620 C   0  0  0  0  0  0  0  0  0  0  0  0
  160.2840  205.0030  150.0450 N   0  0  0  0  0  1  0  0  0  0  0  0
  160.9150  203.2410  151.4120 O   0  0  0  0  0  0  0  0  0  0  0  0
  161.6710  209.1990  148.9870 C   0  0  0  0  0  2  0  0  0  0  0  0
  162.1720  210.5590  148.8620 N   0  0  0  0  0  2  0  0  0  0  0  0
  160.8980  213.9810  147.5980 C   0  0  0  0  0  2  0  0  0  0  0  0
  161.4320  212.9850  148.6270 C   0  0  0  0  0  2  0  0  0  0  0  0
  160.8210  211.1910  147.0130 C   0  0  0  0  0  3  0  0  0  0  0  0
  161.4930  211.5640  148.1080 C   0  0  0  0  0  0  0  0  0  0  0  0
  160.0930  212.1670  146.1340 C   0  0  0  0  0  2  0  0  0  0  0  0
  159.6600  213.4090  146.9130 C   0  0  2  0  0  3  0  0  0  0  0  0
  159.7110  214.4530  144.7540 O   0  0  0  0  0  1  0  0  0  0  0  0
  159.0340  214.4400  145.9740 C   0  0  1  0  0  3  0  0  0  0  0  0
  157.5740  214.1110  145.7150 C   0  0  0  0  0  1  0  0  0  0  0  0
  1  4  1  0  0  0  0
  2 12  2  0  0  0  0
  3 16  1  0  0  0  0
  4 19  1  1  0  0  0
  4  9  1  0  0  0  0
  5  8  1  0  0  0  0
  6  2  1  0  0  0  0
  6  7  2  0  0  0  0
  7 11  1  0  0  0  0
  8  1  1  0  0  0  0
  9 10  1  0  0  0  0
 10 13  1  0  0  0  0
 11 13  1  0  0  0  0
 12 11  1  0  0  0  0
 14  2  1  0  0  0  0
 15  3  2  0  0  0  0
 15 14  1  0  0  0  0
 16  5  1  0  0  0  0
 17 20  1  0  0  0  0
 18 17  2  0  0  0  0
 19 17  1  0  0  0  0
 20 22  1  0  0  0  0
 22 21  3  0  0  0  0
 23 25  2  0  0  0  0
 23  6  1  0  0  0  0
 24 23  1  0  0  0  0
 26  3  1  0  0  0  0
 27 26  1  0  0  0  0
 28 29  1  0  0  0  0
 30 31  2  0  0  0  0
 31 29  1  0  0  0  0
 31 27  1  0  0  0  0
 32 33  1  0  0  0  0
 32 30  1  0  0  0  0
 33 35  1  6  0  0  0
 33 28  1  0  0  0  0
 34 35  1  0  0  0  0
 35 36  1  6  0  0  0
M  END
>  <MODEL>
9

>  <REMARK>
 VINA RESULT:      -3.3      2.821      8.524
  Name = 
  8 active torsions:
  status: ('A' for Active; 'I' for Inactive)
    1  A    between atoms: C_4  and  C_19
    2  A    between atoms: C_6  and  C_34
    3  A    between atoms: C_7  and  N_24
    4  A    between atoms: C_8  and  C_32
    5  A    between atoms: C_10  and  C_13
    6  A    between atoms: C_19  and  C_33
    7  A    between atoms: N_25  and  C_28
    8  A    between atoms: N_25  and  C_34
                            x       y       z     vdW  Elec       q    Type
                         _______ _______ _______ _____ _____    ______ ____

>  <TORSDO>
F 8

$$$$
