=
 OpenBabel11052411243D

 41 45  0  0  1  0  0  0  0  0999 V2000
  162.0320  206.0510  153.9530 C   0  0  0  0  0  3  0  0  0  0  0  0
  161.2040  205.1290  150.1040 C   0  0  0  0  0  0  0  0  0  0  0  0
  161.5280  205.9020  147.8130 C   0  0  0  0  0  0  0  0  0  0  0  0
  161.9210  206.9120  146.7940 C   0  0  0  0  0  1  0  0  0  0  0  0
  161.1350  210.3250  150.7840 C   0  0  0  0  0  3  0  0  0  0  0  0
  161.5510  206.1710  149.2040 C   0  0  0  0  0  0  0  0  0  0  0  0
  162.7210  205.8100  152.3110 S   0  0  0  0  0  0  0  0  0  0  0  0
  159.7850  209.9950  152.8430 C   0  0  0  0  0  3  0  0  0  0  0  0
  160.8670  209.6860  151.9300 C   0  0  0  0  0  0  0  0  0  0  0  0
  160.8100  203.8840  149.5900 C   0  0  0  0  0  0  0  0  0  0  0  0
  161.8920  208.6590  149.1180 C   0  0  0  0  0  3  0  0  0  0  0  0
  161.8990  207.4980  149.7670 C   0  0  0  0  0  3  0  0  0  0  0  0
  161.5680  208.5590  152.4300 N   0  0  0  0  0  0  0  0  0  0  0  0
  160.9240  208.2390  153.5050 C   0  0  0  0  0  0  0  0  0  0  0  0
  161.1480  204.6770  147.3670 N   0  0  0  0  0  0  0  0  0  0  0  0
  159.8250  209.1240  153.7980 N   0  0  0  0  0  0  0  0  0  0  0  0
  161.1060  205.3650  151.5900 C   0  0  0  0  0  2  0  0  0  0  0  0
  160.3120  202.5590  150.6390 Cl  0  0  0  0  0  0  0  0  0  0  0  0
  162.2290  209.9350  149.8270 C   0  0  1  0  0  3  0  0  0  0  0  0
  161.2950  207.0880  154.3720 C   0  0  0  0  0  0  0  0  0  0  0  0
  160.8000  203.6800  148.2120 C   0  0  0  0  0  3  0  0  0  0  0  0
  162.4550  211.8790  148.0040 C   0  0  0  0  0  0  0  0  0  0  0  0
  162.3440  210.9940  148.8170 C   0  0  0  0  0  0  0  0  0  0  0  0
  162.5700  212.9850  147.0440 C   0  0  0  0  0  2  0  0  0  0  0  0
  161.6710  213.1060  143.3480 O   0  0  0  0  0  0  0  0  0  0  0  0
  162.0660  213.8230  144.6110 S   0  0  0  0  0  0  0  0  0  0  0  0
  163.4930  214.2820  144.7590 O   0  0  0  0  0  0  0  0  0  0  0  0
  161.5720  212.8520  145.9880 N   0  0  0  0  0  0  0  0  0  0  0  0
  160.9200  214.0700  145.9110 N   0  0  2  0  0  0  0  0  0  0  0  0
  159.2150  212.9420  148.2470 C   0  0  0  0  0  1  0  0  0  0  0  0
  158.0760  213.3900  147.3450 C   0  0  1  0  0  3  0  0  0  0  0  0
  158.5470  214.4530  146.3430 C   0  0  0  0  0  2  0  0  0  0  0  0
  159.5760  213.9010  145.3380 C   0  0  2  0  0  3  0  0  0  0  0  0
  159.2840  212.4330  144.9510 C   0  0  0  0  0  2  0  0  0  0  0  0
  157.8250  212.0500  145.1660 C   0  0  0  0  0  2  0  0  0  0  0  0
  157.4490  212.1720  146.6490 C   0  0  0  0  0  2  0  0  0  0  0  0
  160.8410  207.0290  155.7230 N   0  0  0  0  0  2  0  0  0  0  0  0
  161.4490  207.7420  156.7390 O   0  0  0  0  0  0  0  0  0  0  0  0
  159.9730  209.6410  157.0460 O   0  0  0  0  0  1  0  0  0  0  0  0
  161.2540  209.1180  156.8630 C   0  0  0  0  0  0  0  0  0  0  0  0
  162.2450  209.9000  156.8230 O   0  0  0  0  0  0  0  0  0  0  0  0
  1 20  2  0  0  0  0
  2 17  1  0  0  0  0
  3  6  1  0  0  0  0
  4  3  1  0  0  0  0
  5  9  2  0  0  0  0
  6 12  1  0  0  0  0
  6  2  2  0  0  0  0
  7  1  1  0  0  0  0
  8 16  2  0  0  0  0
  9 13  1  0  0  0  0
  9  8  1  0  0  0  0
 10  2  1  0  0  0  0
 10 18  1  0  0  0  0
 11 12  2  0  0  0  0
 11 19  1  0  0  0  0
 13 14  2  0  0  0  0
 14 16  1  0  0  0  0
 14 20  1  0  0  0  0
 15  3  2  0  0  0  0
 15 21  1  0  0  0  0
 17  7  1  0  0  0  0
 19 23  1  6  0  0  0
 19  5  1  0  0  0  0
 20 37  1  0  0  0  0
 21 10  2  0  0  0  0
 22 23  3  0  0  0  0
 24 22  1  0  0  0  0
 25 26  2  0  0  0  0
 26 27  2  0  0  0  0
 26 29  1  0  0  0  0
 26 28  1  0  0  0  0
 28 24  1  0  0  0  0
 29 28  1  1  0  0  0
 31 30  1  6  0  0  0
 32 31  1  0  0  0  0
 33 34  1  1  0  0  0
 33 29  1  0  0  0  0
 33 32  1  0  0  0  0
 34 35  1  0  0  0  0
 35 36  1  0  0  0  0
 36 31  1  0  0  0  0
 37 38  1  0  0  0  0
 38 40  1  0  0  0  0
 40 39  1  0  0  0  0
 41 40  2  0  0  0  0
M  END
>  <MODEL>
1

>  <REMARK>
 VINA RESULT:      -5.6      0.000      0.000
  Name = 
  7 active torsions:
  status: ('A' for Active; 'I' for Inactive)
    1  A    between atoms: N_3  and  O_31
    2  A    between atoms: N_3  and  C_39
    3  A    between atoms: C_14  and  C_35
    4  A    between atoms: C_15  and  N_34
    5  A    between atoms: N_27  and  C_35
    6  A    between atoms: C_28  and  O_31
    7  A    between atoms: C_37  and  C_40
                            x       y       z     vdW  Elec       q    Type
                         _______ _______ _______ _____ _____    ______ ____

>  <TORSDO>
F 7

$$$$
=
 OpenBabel11052411243D

 41 45  0  0  1  0  0  0  0  0999 V2000
  161.9570  206.4390  154.1750 C   0  0  0  0  0  3  0  0  0  0  0  0
  161.2310  205.5060  150.3080 C   0  0  0  0  0  0  0  0  0  0  0  0
  161.6000  206.2820  148.0250 C   0  0  0  0  0  0  0  0  0  0  0  0
  162.0070  207.2950  147.0140 C   0  0  0  0  0  1  0  0  0  0  0  0
  161.0870  210.7020  150.9820 C   0  0  0  0  0  3  0  0  0  0  0  0
  161.5870  206.5510  149.4160 C   0  0  0  0  0  0  0  0  0  0  0  0
  162.6880  206.2060  152.5500 S   0  0  0  0  0  0  0  0  0  0  0  0
  159.6930  210.3580  153.0080 C   0  0  0  0  0  3  0  0  0  0  0  0
  160.8000  210.0600  152.1210 C   0  0  0  0  0  0  0  0  0  0  0  0
  160.8630  204.2560  149.7860 C   0  0  0  0  0  0  0  0  0  0  0  0
  161.9020  209.0430  149.3350 C   0  0  0  0  0  3  0  0  0  0  0  0
  161.9070  207.8820  149.9860 C   0  0  0  0  0  3  0  0  0  0  0  0
  161.5010  208.9420  152.6390 N   0  0  0  0  0  0  0  0  0  0  0  0
  160.8350  208.6150  153.6990 C   0  0  0  0  0  0  0  0  0  0  0  0
  161.2450  205.0520  147.5710 N   0  0  0  0  0  0  0  0  0  0  0  0
  159.7190  209.4870  153.9650 N   0  0  0  0  0  0  0  0  0  0  0  0
  161.0950  205.7420  151.7910 C   0  0  0  0  0  2  0  0  0  0  0  0
  160.3550  202.9260  150.8240 Cl  0  0  0  0  0  0  0  0  0  0  0  0
  162.2080  210.3230  150.0510 C   0  0  1  0  0  3  0  0  0  0  0  0
  161.1980  207.4680  154.5750 C   0  0  0  0  0  0  0  0  0  0  0  0
  160.8880  204.0510  148.4080 C   0  0  0  0  0  3  0  0  0  0  0  0
  162.4250  212.2700  148.2300 C   0  0  0  0  0  0  0  0  0  0  0  0
  162.3360  211.3820  149.0440 C   0  0  0  0  0  0  0  0  0  0  0  0
  162.4880  213.3500  147.2370 C   0  0  0  0  0  2  0  0  0  0  0  0
  158.8830  214.4530  147.7540 O   0  0  0  0  0  0  0  0  0  0  0  0
  159.9680  213.4300  147.9570 S   0  0  0  0  0  0  0  0  0  0  0  0
  160.6270  213.3430  149.3080 O   0  0  0  0  0  0  0  0  0  0  0  0
  161.1640  213.6170  146.6850 N   0  0  0  0  0  0  0  0  0  0  0  0
  160.5050  212.4020  146.6450 N   0  0  2  0  0  0  0  0  0  0  0  0
  162.0230  212.7680  143.9630 C   0  0  0  0  0  1  0  0  0  0  0  0
  160.6970  212.2870  143.3960 C   0  0  1  0  0  3  0  0  0  0  0  0
  159.8870  211.5220  144.4520 C   0  0  0  0  0  2  0  0  0  0  0  0
  159.4460  212.4210  145.6230 C   0  0  2  0  0  3  0  0  0  0  0  0
  159.1060  213.8570  145.1600 C   0  0  0  0  0  2  0  0  0  0  0  0
  158.7350  213.9230  143.6840 C   0  0  0  0  0  2  0  0  0  0  0  0
  159.9150  213.4740  142.8110 C   0  0  0  0  0  2  0  0  0  0  0  0
  160.7130  207.4050  155.9150 N   0  0  0  0  0  2  0  0  0  0  0  0
  161.3990  207.9640  156.9770 O   0  0  0  0  0  0  0  0  0  0  0  0
  160.6830  210.2750  157.1260 O   0  0  0  0  0  1  0  0  0  0  0  0
  161.6980  209.3260  156.9980 C   0  0  0  0  0  0  0  0  0  0  0  0
  162.9000  209.7080  156.9150 O   0  0  0  0  0  0  0  0  0  0  0  0
  1 20  2  0  0  0  0
  2 17  1  0  0  0  0
  3  6  1  0  0  0  0
  4  3  1  0  0  0  0
  5  9  2  0  0  0  0
  6 12  1  0  0  0  0
  6  2  2  0  0  0  0
  7  1  1  0  0  0  0
  8 16  2  0  0  0  0
  9 13  1  0  0  0  0
  9  8  1  0  0  0  0
 10  2  1  0  0  0  0
 10 18  1  0  0  0  0
 11 12  2  0  0  0  0
 11 19  1  0  0  0  0
 13 14  2  0  0  0  0
 14 16  1  0  0  0  0
 14 20  1  0  0  0  0
 15  3  2  0  0  0  0
 15 21  1  0  0  0  0
 17  7  1  0  0  0  0
 19 23  1  6  0  0  0
 19  5  1  0  0  0  0
 20 37  1  0  0  0  0
 21 10  2  0  0  0  0
 22 23  3  0  0  0  0
 24 22  1  0  0  0  0
 25 26  2  0  0  0  0
 26 27  2  0  0  0  0
 28 24  1  0  0  0  0
 28 26  1  0  0  0  0
 29 28  1  6  0  0  0
 29 26  1  0  0  0  0
 31 30  1  1  0  0  0
 31 32  1  0  0  0  0
 33 32  1  6  0  0  0
 33 29  1  0  0  0  0
 34 33  1  0  0  0  0
 35 34  1  0  0  0  0
 36 31  1  0  0  0  0
 36 35  1  0  0  0  0
 37 38  1  0  0  0  0
 38 40  1  0  0  0  0
 40 39  1  0  0  0  0
 41 40  2  0  0  0  0
M  END
>  <MODEL>
2

>  <REMARK>
 VINA RESULT:      -3.5      1.626      2.113
  Name = 
  7 active torsions:
  status: ('A' for Active; 'I' for Inactive)
    1  A    between atoms: N_3  and  O_31
    2  A    between atoms: N_3  and  C_39
    3  A    between atoms: C_14  and  C_35
    4  A    between atoms: C_15  and  N_34
    5  A    between atoms: N_27  and  C_35
    6  A    between atoms: C_28  and  O_31
    7  A    between atoms: C_37  and  C_40
                            x       y       z     vdW  Elec       q    Type
                         _______ _______ _______ _____ _____    ______ ____

>  <TORSDO>
F 7

$$$$
=
 OpenBabel11052411243D

 41 45  0  0  1  0  0  0  0  0999 V2000
  159.1580  212.1370  154.1820 C   0  0  0  0  0  3  0  0  0  0  0  0
  161.1600  211.7420  150.6920 C   0  0  0  0  0  0  0  0  0  0  0  0
  161.6700  210.1450  148.9200 C   0  0  0  0  0  0  0  0  0  0  0  0
  161.7050  208.7790  148.3310 C   0  0  0  0  0  1  0  0  0  0  0  0
  161.3370  207.2620  153.4060 C   0  0  0  0  0  3  0  0  0  0  0  0
  161.2020  210.4000  150.2330 C   0  0  0  0  0  0  0  0  0  0  0  0
  159.0410  211.6300  152.4630 S   0  0  0  0  0  0  0  0  0  0  0  0
  161.8980  208.5680  155.4430 C   0  0  0  0  0  3  0  0  0  0  0  0
  161.1650  208.3120  154.2190 C   0  0  0  0  0  0  0  0  0  0  0  0
  161.6220  212.7670  149.8510 C   0  0  0  0  0  0  0  0  0  0  0  0
  161.0720  208.0330  151.0690 C   0  0  0  0  0  3  0  0  0  0  0  0
  160.7730  209.3260  151.1620 C   0  0  0  0  0  3  0  0  0  0  0  0
  160.2650  209.3860  154.0020 N   0  0  0  0  0  0  0  0  0  0  0  0
  160.4920  210.1920  154.9900 C   0  0  0  0  0  0  0  0  0  0  0  0
  162.0960  211.1730  148.1430 N   0  0  0  0  0  0  0  0  0  0  0  0
  161.4860  209.7010  155.9110 N   0  0  0  0  0  0  0  0  0  0  0  0
  160.7720  212.0840  152.1080 C   0  0  0  0  0  2  0  0  0  0  0  0
  161.6540  214.4520  150.3680 Cl  0  0  0  0  0  0  0  0  0  0  0  0
  160.6010  207.0610  152.1080 C   0  0  1  0  0  3  0  0  0  0  0  0
  159.7790  211.4850  155.1740 C   0  0  0  0  0  0  0  0  0  0  0  0
  162.0770  212.4560  148.5720 C   0  0  0  0  0  3  0  0  0  0  0  0
  161.1350  204.6020  151.2030 C   0  0  0  0  0  0  0  0  0  0  0  0
  160.8980  205.7080  151.6250 C   0  0  0  0  0  0  0  0  0  0  0  0
  161.3790  203.2530  150.6760 C   0  0  0  0  0  2  0  0  0  0  0  0
  160.3750  200.9810  147.7930 O   0  0  0  0  0  0  0  0  0  0  0  0
  161.4410  201.7420  148.5330 S   0  0  0  0  0  0  0  0  0  0  0  0
  162.3800  200.9740  149.4270 O   0  0  0  0  0  0  0  0  0  0  0  0
  160.6860  203.0660  149.4060 N   0  0  0  0  0  0  0  0  0  0  0  0
  161.5600  203.4850  148.4190 N   0  0  2  0  0  0  0  0  0  0  0  0
  163.7590  204.4340  146.4450 C   0  0  0  0  0  1  0  0  0  0  0  0
  162.6310  204.2580  145.4420 C   0  0  1  0  0  3  0  0  0  0  0  0
  161.5500  203.3100  145.9820 C   0  0  0  0  0  2  0  0  0  0  0  0
  160.8220  203.8870  147.2110 C   0  0  2  0  0  3  0  0  0  0  0  0
  160.6440  205.4210  147.1170 C   0  0  0  0  0  2  0  0  0  0  0  0
  160.6920  205.9290  145.6820 C   0  0  0  0  0  2  0  0  0  0  0  0
  162.0580  205.6290  145.0500 C   0  0  0  0  0  2  0  0  0  0  0  0
  159.7520  212.1150  156.4530 N   0  0  0  0  0  2  0  0  0  0  0  0
  158.6170  212.1370  157.2420 O   0  0  0  0  0  0  0  0  0  0  0  0
  156.3490  211.6770  156.5200 O   0  0  0  0  0  1  0  0  0  0  0  0
  157.3960  212.5750  156.7280 C   0  0  0  0  0  0  0  0  0  0  0  0
  157.2300  213.7980  156.4590 O   0  0  0  0  0  0  0  0  0  0  0  0
  1 20  2  0  0  0  0
  2 17  1  0  0  0  0
  3  6  2  0  0  0  0
  4  3  1  0  0  0  0
  5  9  2  0  0  0  0
  6  2  1  0  0  0  0
  6 12  1  0  0  0  0
  7  1  1  0  0  0  0
  8 16  2  0  0  0  0
  9  8  1  0  0  0  0
 10 18  1  0  0  0  0
 10  2  2  0  0  0  0
 11 12  2  0  0  0  0
 11 19  1  0  0  0  0
 13  9  1  0  0  0  0
 13 14  2  0  0  0  0
 14 20  1  0  0  0  0
 14 16  1  0  0  0  0
 15 21  2  0  0  0  0
 15  3  1  0  0  0  0
 17  7  1  0  0  0  0
 19 23  1  6  0  0  0
 19  5  1  0  0  0  0
 20 37  1  0  0  0  0
 21 10  1  0  0  0  0
 22 23  3  0  0  0  0
 24 22  1  0  0  0  0
 25 26  2  0  0  0  0
 26 28  1  0  0  0  0
 26 27  2  0  0  0  0
 28 24  1  0  0  0  0
 29 26  1  0  0  0  0
 29 28  1  1  0  0  0
 31 32  1  0  0  0  0
 31 30  1  1  0  0  0
 33 32  1  6  0  0  0
 33 29  1  0  0  0  0
 34 33  1  0  0  0  0
 35 34  1  0  0  0  0
 36 31  1  0  0  0  0
 36 35  1  0  0  0  0
 37 38  1  0  0  0  0
 39 40  1  0  0  0  0
 40 38  1  0  0  0  0
 41 40  2  0  0  0  0
M  END
>  <MODEL>
3

>  <REMARK>
 VINA RESULT:      -3.2      4.601      7.647
  Name = 
  7 active torsions:
  status: ('A' for Active; 'I' for Inactive)
    1  A    between atoms: N_3  and  O_31
    2  A    between atoms: N_3  and  C_39
    3  A    between atoms: C_14  and  C_35
    4  A    between atoms: C_15  and  N_34
    5  A    between atoms: N_27  and  C_35
    6  A    between atoms: C_28  and  O_31
    7  A    between atoms: C_37  and  C_40
                            x       y       z     vdW  Elec       q    Type
                         _______ _______ _______ _____ _____    ______ ____

>  <TORSDO>
F 7

$$$$
