=
 OpenBabel11042422253D

 64 69  0  0  1  0  0  0  0  0999 V2000
  161.8270  209.8340  150.4450 C   0  0  2  0  0  3  0  0  0  0  0  0
  160.7590  210.8320  155.3650 C   0  0  0  0  0  2  0  0  0  0  0  0
  161.9420  210.1230  153.3140 C   0  0  0  0  0  3  0  0  0  0  0  0
  160.2630  212.0380  154.5730 C   0  0  0  0  0  2  0  0  0  0  0  0
  161.8980  210.1670  154.6470 C   0  0  0  0  0  3  0  0  0  0  0  0
  159.8320  211.6130  153.1660 C   0  0  2  0  0  3  0  0  0  0  0  0
  160.9040  210.7880  152.4920 C   0  0  0  0  0  0  0  0  0  0  0  0
  160.8500  210.6100  151.2050 N   0  0  0  0  0  0  0  0  0  0  0  0
  159.5610  212.7590  152.4130 O   0  0  0  0  0  0  0  0  0  0  0  0
  158.8190  213.5920  153.2560 C   0  0  0  0  0  2  0  0  0  0  0  0
  157.3260  213.4830  152.9500 C   0  0  0  0  0  2  0  0  0  0  0  0
  155.0050  213.7110  153.7080 C   0  0  0  0  0  1  0  0  0  0  0  0
  156.3890  211.9990  154.7640 C   0  0  0  0  0  1  0  0  0  0  0  0
  156.4080  213.4030  154.1790 C   0  0  0  0  0  0  0  0  0  0  0  0
  157.3670  213.8390  156.4260 N   0  0  0  0  0  1  0  0  0  0  0  0
  156.7670  214.4460  155.2460 C   0  0  0  0  0  2  0  0  0  0  0  0
  162.1320  210.5030  149.1370 C   0  0  0  0  0  0  0  0  0  0  0  0
  161.9810  209.9070  148.0810 O   0  0  0  0  0  0  0  0  0  0  0  0
  162.5550  211.9390  149.1320 C   0  0  0  0  0  2  0  0  0  0  0  0
  161.5200  212.9130  148.0570 S   0  0  0  0  0  0  0  0  0  0  0  0
  161.3730  214.2980  148.6220 O   0  0  0  0  0  0  0  0  0  0  0  0
  160.1630  212.2710  147.9500 O   0  0  0  0  0  0  0  0  0  0  0  0
  162.6240  214.4530  146.1210 C   0  0  0  0  0  2  0  0  0  0  0  0
  161.4400  213.7600  145.4720 C   0  0  2  0  0  3  0  0  0  0  0  0
  162.3160  213.0120  146.4620 C   0  0  2  0  0  3  0  0  0  0  0  0
  162.9780  213.0810  143.7840 O   0  0  0  0  0  0  0  0  0  0  0  0
  160.7410  213.1500  143.1150 N   0  0  0  0  0  2  0  0  0  0  0  0
  161.7780  213.3240  144.0850 C   0  0  0  0  0  0  0  0  0  0  0  0
  159.8330  212.6150  138.5730 C   0  0  0  0  0  2  0  0  0  0  0  0
  160.3530  211.1250  140.4560 O   0  0  0  0  0  0  0  0  0  0  0  0
  161.4650  214.1590  140.7390 S   0  0  0  0  0  0  0  0  0  0  0  0
  162.1980  213.1070  139.4370 C   0  0  1  0  0  3  0  0  0  0  0  0
  159.8770  212.0920  141.2230 O   0  0  0  0  0  0  0  0  0  0  0  0
  159.7000  211.2200  139.2060 C   0  0  1  0  0  3  0  0  0  0  0  0
  161.2750  212.9930  138.2190 C   0  0  1  0  0  3  0  0  0  0  0  0
  161.7950  212.0790  137.3000 O   0  0  0  0  0  1  0  0  0  0  0  0
  161.0120  212.7170  141.7530 C   0  0  2  0  0  3  0  0  0  0  0  0
  155.8530  211.5210  139.3010 C   0  0  0  0  0  2  0  0  0  0  0  0
  158.2350  210.7830  139.3080 C   0  0  1  0  0  3  0  0  0  0  0  0
  157.2940  211.9560  139.0360 C   0  0  0  0  0  2  0  0  0  0  0  0
  156.4650  209.3550  138.2110 C   0  0  0  0  0  3  0  0  0  0  0  0
  155.5190  210.2150  138.6250 C   0  0  0  0  0  3  0  0  0  0  0  0
  157.9360  209.6760  138.2910 C   0  0  0  0  0  2  0  0  0  0  0  0
  163.5440  213.6770  139.0150 C   0  0  0  0  0  2  0  0  0  0  0  0
  164.5820  212.5730  138.9360 C   0  0  0  0  0  1  0  0  0  0  0  0
  161.3700  208.3870  150.2720 C   0  0  0  0  0  2  0  0  0  0  0  0
  160.8520  207.7750  151.5690 C   0  0  0  0  0  2  0  0  0  0  0  0
  161.6850  206.5570  151.9250 C   0  0  0  0  0  2  0  0  0  0  0  0
  161.3080  201.9170  151.8550 C   0  0  0  0  0  3  0  0  0  0  0  0
  161.5270  205.4500  150.9300 C   0  0  0  0  0  0  0  0  0  0  0  0
  160.8600  201.4010  150.5840 N   0  0  0  0  0  0  0  0  0  0  0  0
  160.2000  201.5990  148.2660 C   0  0  0  0  0  1  0  0  0  0  0  0
  161.4450  204.4690  148.9730 C   0  0  1  0  0  3  0  0  0  0  0  0
  160.6120  202.1830  149.5730 C   0  0  0  0  0  0  0  0  0  0  0  0
  160.7050  204.2120  151.1320 C   0  0  1  0  0  3  0  0  0  0  0  0
  160.7770  203.6340  149.7610 C   0  0  1  0  0  3  0  0  0  0  0  0
  161.2960  203.2350  152.1170 C   0  0  0  0  0  3  0  0  0  0  0  0
  161.8900  205.6050  149.6980 N   0  0  0  0  0  0  0  0  0  0  0  0
  161.9430  204.1530  147.6020 C   0  0  0  0  0  2  0  0  0  0  0  0
  160.9340  204.6170  146.5650 C   0  0  0  0  0  2  0  0  0  0  0  0
  162.8730  204.3880  145.1950 O   0  0  0  0  0  1  0  0  0  0  0  0
  161.4770  204.3980  145.1630 C   0  0  2  0  0  3  0  0  0  0  0  0
  160.4030  206.5340  144.8930 O   0  0  0  0  0  1  0  0  0  0  0  0
  160.9860  205.4720  144.1970 C   0  0  0  0  0  2  0  0  0  0  0  0
  1 46  1  6  0  0  0
  1  8  1  0  0  0  0
  3  5  2  0  0  0  0
  4  2  1  0  0  0  0
  5  2  1  0  0  0  0
  6  9  1  6  0  0  0
  6  4  1  0  0  0  0
  7  6  1  0  0  0  0
  7  3  1  0  0  0  0
  8  7  2  0  0  0  0
  9 10  1  0  0  0  0
 11 10  1  0  0  0  0
 11 14  1  0  0  0  0
 12 14  1  0  0  0  0
 14 13  1  0  0  0  0
 14 16  1  0  0  0  0
 16 15  1  0  0  0  0
 17  1  1  0  0  0  0
 18 17  2  0  0  0  0
 19 17  1  0  0  0  0
 20 21  2  0  0  0  0
 20 19  1  0  0  0  0
 22 20  2  0  0  0  0
 23 25  1  0  0  0  0
 24 28  1  6  0  0  0
 24 23  1  0  0  0  0
 24 25  1  0  0  0  0
 25 20  1  1  0  0  0
 26 28  2  0  0  0  0
 27 28  1  0  0  0  0
 30 33  1  0  0  0  0
 31 37  1  0  0  0  0
 32 44  1  6  0  0  0
 32 31  1  0  0  0  0
 33 37  1  0  0  0  0
 34 29  1  1  0  0  0
 34 39  1  0  0  0  0
 34 30  1  0  0  0  0
 35 36  1  6  0  0  0
 35 29  1  0  0  0  0
 35 32  1  0  0  0  0
 37 27  1  1  0  0  0
 39 43  1  6  0  0  0
 40 38  1  0  0  0  0
 40 39  1  0  0  0  0
 41 43  1  0  0  0  0
 41 42  2  0  0  0  0
 42 38  1  0  0  0  0
 45 44  1  0  0  0  0
 46 47  1  0  0  0  0
 47 48  1  0  0  0  0
 49 57  2  0  0  0  0
 50 55  1  0  0  0  0
 50 48  1  0  0  0  0
 51 49  1  0  0  0  0
 52 54  1  0  0  0  0
 53 59  1  1  0  0  0
 53 58  1  0  0  0  0
 53 56  1  0  0  0  0
 54 51  2  0  0  0  0
 55 57  1  1  0  0  0
 56 54  1  1  0  0  0
 56 55  1  0  0  0  0
 58 50  2  0  0  0  0
 60 59  1  0  0  0  0
 62 61  1  1  0  0  0
 62 60  1  0  0  0  0
 64 63  1  0  0  0  0
 64 62  1  0  0  0  0
M  END
>  <MODEL>
1

>  <REMARK>
 VINA RESULT:      -6.9      0.000      0.000
  Name = 
  22 active torsions:
  status: ('A' for Active; 'I' for Inactive)
    1  A    between atoms: C_5  and  C_40
    2  A    between atoms: C_7  and  C_8
    3  A    between atoms: C_7  and  C_43
    4  A    between atoms: C_8  and  C_33
    5  A    between atoms: C_9  and  C_43
    6  A    between atoms: C_9  and  C_53
    7  A    between atoms: S_13  and  C_53
    8  A    between atoms: S_13  and  C_63
    9  A    between atoms: C_14  and  C_38
   10  A    between atoms: C_16  and  C_34
   11  A    between atoms: C_16  and  O_56
   12  A    between atoms: C_20  and  C_33
   13  A    between atoms: N_21  and  C_59
   14  A    between atoms: C_25  and  C_27
   15  A    between atoms: C_30  and  C_35
   16  A    between atoms: C_34  and  C_45
   17  A    between atoms: C_35  and  C_47
   18  A    between atoms: C_43  and  N_60
   19  A    between atoms: C_44  and  C_45
   20  A    between atoms: C_47  and  C_57
   21  A    between atoms: C_50  and  O_56
   22  A    between atoms: C_54  and  C_57
                            x       y       z     vdW  Elec       q    Type
                         _______ _______ _______ _____ _____    ______ ____

>  <TORSDO>
F 22

$$$$
=
 OpenBabel11042422253D

 64 69  0  0  1  0  0  0  0  0999 V2000
  161.7740  208.8660  149.5280 C   0  0  2  0  0  3  0  0  0  0  0  0
  161.0570  203.7850  149.5910 C   0  0  0  0  0  2  0  0  0  0  0  0
  160.6930  206.2130  149.8710 C   0  0  0  0  0  3  0  0  0  0  0  0
  161.6630  204.1070  148.2290 C   0  0  0  0  0  2  0  0  0  0  0  0
  160.2900  204.9640  150.1150 C   0  0  0  0  0  3  0  0  0  0  0  0
  162.5740  205.3350  148.3270 C   0  0  2  0  0  3  0  0  0  0  0  0
  161.8720  206.4830  149.0160 C   0  0  0  0  0  0  0  0  0  0  0  0
  162.3640  207.6820  148.9090 N   0  0  0  0  0  0  0  0  0  0  0  0
  162.9630  205.7120  147.0380 O   0  0  0  0  0  0  0  0  0  0  0  0
  162.8030  204.5670  146.2510 C   0  0  0  0  0  2  0  0  0  0  0  0
  161.3230  204.2330  146.0720 C   0  0  0  0  0  2  0  0  0  0  0  0
  159.7870  206.0030  145.3480 C   0  0  0  0  0  1  0  0  0  0  0  0
  161.6810  205.4710  143.9020 C   0  0  0  0  0  1  0  0  0  0  0  0
  160.6510  204.8690  144.8450 C   0  0  0  0  0  0  0  0  0  0  0  0
  159.7650  202.5550  144.6960 N   0  0  0  0  0  1  0  0  0  0  0  0
  159.7280  203.8880  144.1100 C   0  0  0  0  0  2  0  0  0  0  0  0
  161.7300  210.0070  148.5530 C   0  0  0  0  0  0  0  0  0  0  0  0
  161.2340  209.8610  147.4460 O   0  0  0  0  0  0  0  0  0  0  0  0
  162.2350  211.3510  148.9780 C   0  0  0  0  0  2  0  0  0  0  0  0
  161.3750  212.6600  148.1290 S   0  0  0  0  0  0  0  0  0  0  0  0
  161.4250  213.9130  148.9590 O   0  0  0  0  0  0  0  0  0  0  0  0
  159.9400  212.2610  147.9120 O   0  0  0  0  0  0  0  0  0  0  0  0
  162.4910  214.4280  146.4060 C   0  0  0  0  0  2  0  0  0  0  0  0
  161.3380  213.7900  145.6540 C   0  0  2  0  0  3  0  0  0  0  0  0
  162.2060  212.9530  146.5760 C   0  0  2  0  0  3  0  0  0  0  0  0
  162.9190  213.6500  143.8770 O   0  0  0  0  0  0  0  0  0  0  0  0
  160.7290  213.0800  143.3000 N   0  0  0  0  0  2  0  0  0  0  0  0
  161.7170  213.5190  144.2350 C   0  0  0  0  0  0  0  0  0  0  0  0
  159.9040  212.8750  138.7150 C   0  0  0  0  0  2  0  0  0  0  0  0
  160.5270  211.2720  140.4700 O   0  0  0  0  0  0  0  0  0  0  0  0
  161.3880  214.3480  141.0310 S   0  0  0  0  0  0  0  0  0  0  0  0
  162.2150  213.4760  139.6540 C   0  0  1  0  0  3  0  0  0  0  0  0
  159.9680  212.1270  141.3100 O   0  0  0  0  0  0  0  0  0  0  0  0
  159.8790  211.4240  139.2230 C   0  0  1  0  0  3  0  0  0  0  0  0
  161.3140  213.3960  138.4170 C   0  0  1  0  0  3  0  0  0  0  0  0
  161.9130  212.6100  137.4300 O   0  0  0  0  0  1  0  0  0  0  0  0
  161.0450  212.7910  141.9100 C   0  0  2  0  0  3  0  0  0  0  0  0
  156.0200  211.4090  139.3360 C   0  0  0  0  0  2  0  0  0  0  0  0
  158.4520  210.8640  139.2630 C   0  0  1  0  0  3  0  0  0  0  0  0
  157.4210  211.9850  139.1320 C   0  0  0  0  0  2  0  0  0  0  0  0
  156.7940  209.4470  137.9940 C   0  0  0  0  0  3  0  0  0  0  0  0
  155.7860  210.1730  138.5040 C   0  0  0  0  0  3  0  0  0  0  0  0
  158.2360  209.8690  138.1180 C   0  0  0  0  0  2  0  0  0  0  0  0
  163.5140  214.1850  139.3040 C   0  0  0  0  0  2  0  0  0  0  0  0
  164.5950  213.1740  138.9730 C   0  0  0  0  0  1  0  0  0  0  0  0
  162.4960  209.2300  150.8250 C   0  0  0  0  0  2  0  0  0  0  0  0
  161.7930  208.6830  152.0620 C   0  0  0  0  0  2  0  0  0  0  0  0
  160.3320  209.0940  152.0390 C   0  0  0  0  0  2  0  0  0  0  0  0
  159.1770  213.4170  153.3260 C   0  0  0  0  0  3  0  0  0  0  0  0
  159.9310  209.8380  153.2750 C   0  0  0  0  0  0  0  0  0  0  0  0
  158.5740  213.4810  154.6350 N   0  0  0  0  0  0  0  0  0  0  0  0
  157.8180  212.5380  156.7290 C   0  0  0  0  0  1  0  0  0  0  0  0
  159.5680  210.1990  155.4050 C   0  0  1  0  0  3  0  0  0  0  0  0
  158.4000  212.4160  155.3630 C   0  0  0  0  0  0  0  0  0  0  0  0
  158.9260  210.9500  153.3310 C   0  0  1  0  0  3  0  0  0  0  0  0
  158.8180  211.1180  154.8080 C   0  0  1  0  0  3  0  0  0  0  0  0
  159.4030  212.2420  152.7160 C   0  0  0  0  0  3  0  0  0  0  0  0
  160.2400  209.3920  154.4500 N   0  0  0  0  0  0  0  0  0  0  0  0
  159.9220  210.1800  156.8550 C   0  0  0  0  0  2  0  0  0  0  0  0
  161.3820  209.7990  157.0270 C   0  0  0  0  0  2  0  0  0  0  0  0
  161.4880  212.1810  156.9470 O   0  0  0  0  0  1  0  0  0  0  0  0
  162.2290  211.0390  157.2610 C   0  0  2  0  0  3  0  0  0  0  0  0
  164.5280  211.7210  157.0700 O   0  0  0  0  0  1  0  0  0  0  0  0
  163.5100  211.0070  156.4340 C   0  0  0  0  0  2  0  0  0  0  0  0
  1 46  1  1  0  0  0
  2  5  1  0  0  0  0
  3  5  2  0  0  0  0
  4  6  1  0  0  0  0
  4  2  1  0  0  0  0
  6  9  1  6  0  0  0
  6  7  1  0  0  0  0
  7  3  1  0  0  0  0
  8  7  2  0  0  0  0
  8  1  1  0  0  0  0
 10  9  1  0  0  0  0
 11 10  1  0  0  0  0
 13 14  1  0  0  0  0
 14 12  1  0  0  0  0
 14 11  1  0  0  0  0
 16 15  1  0  0  0  0
 16 14  1  0  0  0  0
 17 19  1  0  0  0  0
 17  1  1  0  0  0  0
 18 17  2  0  0  0  0
 20 21  2  0  0  0  0
 20 19  1  0  0  0  0
 22 20  2  0  0  0  0
 23 25  1  0  0  0  0
 24 28  1  6  0  0  0
 24 23  1  0  0  0  0
 24 25  1  0  0  0  0
 25 20  1  1  0  0  0
 26 28  2  0  0  0  0
 27 28  1  0  0  0  0
 30 33  1  0  0  0  0
 31 37  1  0  0  0  0
 32 44  1  6  0  0  0
 32 31  1  0  0  0  0
 33 37  1  0  0  0  0
 34 29  1  1  0  0  0
 34 39  1  0  0  0  0
 34 30  1  0  0  0  0
 35 36  1  6  0  0  0
 35 29  1  0  0  0  0
 35 32  1  0  0  0  0
 37 27  1  1  0  0  0
 39 43  1  6  0  0  0
 40 39  1  0  0  0  0
 40 38  1  0  0  0  0
 41 43  1  0  0  0  0
 41 42  2  0  0  0  0
 42 38  1  0  0  0  0
 45 44  1  0  0  0  0
 46 47  1  0  0  0  0
 48 47  1  0  0  0  0
 48 50  1  0  0  0  0
 49 51  1  0  0  0  0
 50 55  1  0  0  0  0
 50 58  2  0  0  0  0
 51 54  2  0  0  0  0
 53 59  1  1  0  0  0
 54 52  1  0  0  0  0
 55 57  1  6  0  0  0
 55 56  1  0  0  0  0
 56 54  1  6  0  0  0
 56 53  1  0  0  0  0
 57 49  2  0  0  0  0
 58 53  1  0  0  0  0
 59 60  1  0  0  0  0
 60 62  1  0  0  0  0
 62 61  1  6  0  0  0
 64 63  1  0  0  0  0
 64 62  1  0  0  0  0
M  END
>  <MODEL>
2

>  <REMARK>
 VINA RESULT:      -5.0      1.817      7.778
  Name = 
  22 active torsions:
  status: ('A' for Active; 'I' for Inactive)
    1  A    between atoms: C_5  and  C_40
    2  A    between atoms: C_7  and  C_8
    3  A    between atoms: C_7  and  C_43
    4  A    between atoms: C_8  and  C_33
    5  A    between atoms: C_9  and  C_43
    6  A    between atoms: C_9  and  C_53
    7  A    between atoms: S_13  and  C_53
    8  A    between atoms: S_13  and  C_63
    9  A    between atoms: C_14  and  C_38
   10  A    between atoms: C_16  and  C_34
   11  A    between atoms: C_16  and  O_56
   12  A    between atoms: C_20  and  C_33
   13  A    between atoms: N_21  and  C_59
   14  A    between atoms: C_25  and  C_27
   15  A    between atoms: C_30  and  C_35
   16  A    between atoms: C_34  and  C_45
   17  A    between atoms: C_35  and  C_47
   18  A    between atoms: C_43  and  N_60
   19  A    between atoms: C_44  and  C_45
   20  A    between atoms: C_47  and  C_57
   21  A    between atoms: C_50  and  O_56
   22  A    between atoms: C_54  and  C_57
                            x       y       z     vdW  Elec       q    Type
                         _______ _______ _______ _____ _____    ______ ____

>  <TORSDO>
F 22

$$$$
=
 OpenBabel11042422253D

 64 69  0  0  1  0  0  0  0  0999 V2000
  161.8210  208.8240  149.4400 C   0  0  2  0  0  3  0  0  0  0  0  0
  161.1230  203.7410  149.5720 C   0  0  0  0  0  2  0  0  0  0  0  0
  160.7670  206.1700  149.8560 C   0  0  0  0  0  3  0  0  0  0  0  0
  161.6560  204.0560  148.1790 C   0  0  0  0  0  2  0  0  0  0  0  0
  160.3820  204.9220  150.1290 C   0  0  0  0  0  3  0  0  0  0  0  0
  162.5670  205.2870  148.2210 C   0  0  2  0  0  3  0  0  0  0  0  0
  161.8990  206.4370  148.9380 C   0  0  0  0  0  0  0  0  0  0  0  0
  162.3810  207.6370  148.7980 N   0  0  0  0  0  0  0  0  0  0  0  0
  162.8870  205.6560  146.9110 O   0  0  0  0  0  0  0  0  0  0  0  0
  162.6800  204.5090  146.1400 C   0  0  0  0  0  2  0  0  0  0  0  0
  161.1910  204.1850  146.0370 C   0  0  0  0  0  2  0  0  0  0  0  0
  161.5480  205.2180  143.8410 C   0  0  0  0  0  1  0  0  0  0  0  0
  159.6510  203.7020  144.0960 C   0  0  0  0  0  1  0  0  0  0  0  0
  160.4760  204.7640  144.8060 C   0  0  0  0  0  0  0  0  0  0  0  0
  160.0790  206.6530  146.3660 N   0  0  0  0  0  1  0  0  0  0  0  0
  159.6250  205.9940  145.1490 C   0  0  0  0  0  2  0  0  0  0  0  0
  161.7380  209.9630  148.4660 C   0  0  0  0  0  0  0  0  0  0  0  0
  161.1000  209.8510  147.4290 O   0  0  0  0  0  0  0  0  0  0  0  0
  162.3850  211.2680  148.8110 C   0  0  0  0  0  2  0  0  0  0  0  0
  161.5780  212.6260  147.9860 S   0  0  0  0  0  0  0  0  0  0  0  0
  161.7280  213.8740  148.8110 O   0  0  0  0  0  0  0  0  0  0  0  0
  160.1160  212.3120  147.8150 O   0  0  0  0  0  0  0  0  0  0  0  0
  162.6880  214.3320  146.1980 C   0  0  0  0  0  2  0  0  0  0  0  0
  161.5040  213.7030  145.4880 C   0  0  2  0  0  3  0  0  0  0  0  0
  162.3770  212.8670  146.4070 C   0  0  2  0  0  3  0  0  0  0  0  0
  163.0220  213.5670  143.6580 O   0  0  0  0  0  0  0  0  0  0  0  0
  160.8430  212.8710  143.1890 N   0  0  0  0  0  2  0  0  0  0  0  0
  161.8430  213.3930  144.0670 C   0  0  0  0  0  0  0  0  0  0  0  0
  159.9320  212.6310  138.6220 C   0  0  0  0  0  2  0  0  0  0  0  0
  160.4990  211.0270  140.3960 O   0  0  0  0  0  0  0  0  0  0  0  0
  161.5300  214.0630  140.8880 S   0  0  0  0  0  0  0  0  0  0  0  0
  162.2860  213.1250  139.5140 C   0  0  1  0  0  3  0  0  0  0  0  0
  160.0000  211.9250  141.2300 O   0  0  0  0  0  0  0  0  0  0  0  0
  159.8390  211.1920  139.1570 C   0  0  1  0  0  3  0  0  0  0  0  0
  161.3630  213.0710  138.2930 C   0  0  1  0  0  3  0  0  0  0  0  0
  161.9030  212.2380  137.3110 O   0  0  0  0  0  1  0  0  0  0  0  0
  161.1200  212.5420  141.8000 C   0  0  2  0  0  3  0  0  0  0  0  0
  155.9930  211.3810  139.4280 C   0  0  0  0  0  2  0  0  0  0  0  0
  158.3860  210.7090  139.2300 C   0  0  1  0  0  3  0  0  0  0  0  0
  157.4150  211.8890  139.1940 C   0  0  0  0  0  2  0  0  0  0  0  0
  156.6040  209.4470  137.9640 C   0  0  0  0  0  3  0  0  0  0  0  0
  155.6580  210.2010  138.5500 C   0  0  0  0  0  3  0  0  0  0  0  0
  158.0710  209.7840  138.0490 C   0  0  0  0  0  2  0  0  0  0  0  0
  163.6150  213.7580  139.1310 C   0  0  0  0  0  2  0  0  0  0  0  0
  164.6760  212.6900  138.9470 C   0  0  0  0  0  1  0  0  0  0  0  0
  162.5980  209.1880  150.7040 C   0  0  0  0  0  2  0  0  0  0  0  0
  161.8950  208.7340  151.9780 C   0  0  0  0  0  2  0  0  0  0  0  0
  160.5030  209.3380  152.0330 C   0  0  0  0  0  2  0  0  0  0  0  0
  161.1520  209.2520  156.6430 C   0  0  0  0  0  3  0  0  0  0  0  0
  160.3190  210.2330  153.2180 C   0  0  0  0  0  0  0  0  0  0  0  0
  161.0750  210.5580  157.2540 N   0  0  0  0  0  0  0  0  0  0  0  0
  160.7110  212.9480  157.2390 C   0  0  0  0  0  1  0  0  0  0  0  0
  159.6610  211.9790  154.3670 C   0  0  1  0  0  3  0  0  0  0  0  0
  160.8300  211.6290  156.5560 C   0  0  0  0  0  0  0  0  0  0  0  0
  161.2390  210.3090  154.4010 C   0  0  1  0  0  3  0  0  0  0  0  0
  160.6520  211.4860  155.1010 C   0  0  1  0  0  3  0  0  0  0  0  0
  161.1760  209.1060  155.3080 C   0  0  0  0  0  3  0  0  0  0  0  0
  159.4730  211.2120  153.1880 N   0  0  0  0  0  0  0  0  0  0  0  0
  158.6700  212.9960  154.8240 C   0  0  0  0  0  2  0  0  0  0  0  0
  157.2770  212.6080  154.3580 C   0  0  0  0  0  2  0  0  0  0  0  0
  157.3940  210.7450  155.8420 O   0  0  0  0  0  1  0  0  0  0  0  0
  156.5690  211.7920  155.4270 C   0  0  2  0  0  3  0  0  0  0  0  0
  154.9590  210.0070  155.5150 O   0  0  0  0  0  1  0  0  0  0  0  0
  155.2400  211.2390  154.9210 C   0  0  0  0  0  2  0  0  0  0  0  0
  1 46  1  1  0  0  0
  2  5  1  0  0  0  0
  3  5  2  0  0  0  0
  4  6  1  0  0  0  0
  4  2  1  0  0  0  0
  6  9  1  6  0  0  0
  6  7  1  0  0  0  0
  7  3  1  0  0  0  0
  8  7  2  0  0  0  0
  8  1  1  0  0  0  0
 10  9  1  0  0  0  0
 11 10  1  0  0  0  0
 12 14  1  0  0  0  0
 13 14  1  0  0  0  0
 14 16  1  0  0  0  0
 14 11  1  0  0  0  0
 16 15  1  0  0  0  0
 17 19  1  0  0  0  0
 17  1  1  0  0  0  0
 18 17  2  0  0  0  0
 20 21  2  0  0  0  0
 20 19  1  0  0  0  0
 22 20  2  0  0  0  0
 23 25  1  0  0  0  0
 24 28  1  6  0  0  0
 24 23  1  0  0  0  0
 24 25  1  0  0  0  0
 25 20  1  1  0  0  0
 26 28  2  0  0  0  0
 27 28  1  0  0  0  0
 30 33  1  0  0  0  0
 31 37  1  0  0  0  0
 32 44  1  6  0  0  0
 32 31  1  0  0  0  0
 33 37  1  0  0  0  0
 34 29  1  1  0  0  0
 34 39  1  0  0  0  0
 34 30  1  0  0  0  0
 35 36  1  6  0  0  0
 35 29  1  0  0  0  0
 35 32  1  0  0  0  0
 37 27  1  1  0  0  0
 39 43  1  6  0  0  0
 40 39  1  0  0  0  0
 40 38  1  0  0  0  0
 41 43  1  0  0  0  0
 41 42  2  0  0  0  0
 42 38  1  0  0  0  0
 45 44  1  0  0  0  0
 46 47  1  0  0  0  0
 47 48  1  0  0  0  0
 48 50  1  0  0  0  0
 49 51  1  0  0  0  0
 50 55  1  0  0  0  0
 53 59  1  1  0  0  0
 53 56  1  0  0  0  0
 54 52  1  0  0  0  0
 54 51  2  0  0  0  0
 55 56  1  0  0  0  0
 55 57  1  1  0  0  0
 56 54  1  1  0  0  0
 57 49  2  0  0  0  0
 58 50  2  0  0  0  0
 58 53  1  0  0  0  0
 60 59  1  0  0  0  0
 60 62  1  0  0  0  0
 62 61  1  6  0  0  0
 64 62  1  0  0  0  0
 64 63  1  0  0  0  0
M  END
>  <MODEL>
3

>  <REMARK>
 VINA RESULT:      -4.6      1.688      7.513
  Name = 
  22 active torsions:
  status: ('A' for Active; 'I' for Inactive)
    1  A    between atoms: C_5  and  C_40
    2  A    between atoms: C_7  and  C_8
    3  A    between atoms: C_7  and  C_43
    4  A    between atoms: C_8  and  C_33
    5  A    between atoms: C_9  and  C_43
    6  A    between atoms: C_9  and  C_53
    7  A    between atoms: S_13  and  C_53
    8  A    between atoms: S_13  and  C_63
    9  A    between atoms: C_14  and  C_38
   10  A    between atoms: C_16  and  C_34
   11  A    between atoms: C_16  and  O_56
   12  A    between atoms: C_20  and  C_33
   13  A    between atoms: N_21  and  C_59
   14  A    between atoms: C_25  and  C_27
   15  A    between atoms: C_30  and  C_35
   16  A    between atoms: C_34  and  C_45
   17  A    between atoms: C_35  and  C_47
   18  A    between atoms: C_43  and  N_60
   19  A    between atoms: C_44  and  C_45
   20  A    between atoms: C_47  and  C_57
   21  A    between atoms: C_50  and  O_56
   22  A    between atoms: C_54  and  C_57
                            x       y       z     vdW  Elec       q    Type
                         _______ _______ _______ _____ _____    ______ ____

>  <TORSDO>
F 22

$$$$
