=
 OpenBabel11052410323D

 45 50  0  0  1  0  0  0  0  0999 V2000
  160.0870  212.2320  153.7730 C   0  0  0  0  0  1  0  0  0  0  0  0
  160.9360  211.8050  150.3850 C   0  0  0  0  0  0  0  0  0  0  0  0
  161.2220  203.6660  150.5920 C   0  0  0  0  0  3  0  0  0  0  0  0
  158.9360  213.2430  151.8300 C   0  0  0  0  0  0  0  0  0  0  0  0
  160.7920  208.6180  151.7400 C   0  0  0  0  0  0  0  0  0  0  0  0
  161.5040  209.7930  148.9470 C   0  0  0  0  0  2  0  0  0  0  0  0
  160.5460  212.9940  150.0270 N   0  0  0  0  0  0  0  0  0  0  0  0
  160.9170  207.9770  150.3750 C   0  0  2  0  0  3  0  0  0  0  0  0
  161.4370  208.0170  152.8820 N   0  0  0  0  0  0  0  0  0  0  0  0
  161.6430  204.4420  151.6750 C   0  0  0  0  0  3  0  0  0  0  0  0
  160.6670  204.2820  149.4680 C   0  0  0  0  0  3  0  0  0  0  0  0
  162.0210  211.0760  149.6060 C   0  0  1  0  0  3  0  0  0  0  0  0
  160.9960  206.4640  150.4880 C   0  0  0  0  0  0  0  0  0  0  0  0
  160.2960  211.1590  151.5530 C   0  0  0  0  0  0  0  0  0  0  0  0
  161.6180  208.7640  154.1230 C   0  0  0  0  0  1  0  0  0  0  0  0
  162.5440  207.7650  148.5520 C   0  0  0  0  0  1  0  0  0  0  0  0
  162.0340  208.6100  149.6250 N   0  0  0  0  0  0  0  0  0  0  0  0
  161.8580  206.6470  152.8180 C   0  0  0  0  0  0  0  0  0  0  0  0
  160.4880  209.8860  151.7400 C   0  0  0  0  0  0  0  0  0  0  0  0
  162.4760  206.1260  153.7880 O   0  0  0  0  0  0  0  0  0  0  0  0
  161.5250  205.8380  151.6350 C   0  0  0  0  0  0  0  0  0  0  0  0
  159.3880  211.9460  152.4550 C   0  0  1  0  0  3  0  0  0  0  0  0
  160.5530  205.6740  149.4180 C   0  0  0  0  0  3  0  0  0  0  0  0
  159.5130  213.7160  150.7140 C   0  0  0  0  0  3  0  0  0  0  0  0
  157.9080  213.9530  152.4550 O   0  0  0  0  0  0  0  0  0  0  0  0
  156.5810  213.6220  152.2710 N   0  0  0  0  0  2  0  0  0  0  0  0
  155.8340  214.2410  153.3540 C   0  0  0  0  0  2  0  0  0  0  0  0
  157.3040  212.0090  157.1130 C   0  0  0  0  0  2  0  0  0  0  0  0
  156.1550  214.3050  157.2020 C   0  0  0  0  0  2  0  0  0  0  0  0
  156.2490  211.5780  156.0900 C   0  0  0  0  0  2  0  0  0  0  0  0
  155.4710  214.3100  155.8230 C   0  0  0  0  0  2  0  0  0  0  0  0
  156.4280  212.2150  154.7080 C   0  0  0  0  0  2  0  0  0  0  0  0
  157.4760  213.5270  157.2530 C   0  0  0  0  0  2  0  0  0  0  0  0
  156.3480  213.7520  154.6990 C   0  0  0  0  0  3  0  0  0  0  0  0
  162.7920  211.9510  148.6150 C   0  0  0  0  0  2  0  0  0  0  0  0
  161.9190  212.4540  147.5630 N   0  0  0  0  0  2  0  0  0  0  0  0
  163.1310  214.4530  147.5190 O   0  0  0  0  0  1  0  0  0  0  0  0
  162.7040  213.3690  146.7480 C   0  0  2  0  0  3  0  0  0  0  0  0
  163.8960  213.5240  144.1820 O   0  0  0  0  0  1  0  0  0  0  0  0
  161.7790  213.7040  143.2020 C   0  0  0  0  0  0  0  0  0  0  0  0
  161.9450  213.9430  141.9780 O   0  0  0  0  0  0  0  0  0  0  0  0
  161.8920  213.8310  145.5330 C   0  0  1  0  0  3  0  0  0  0  0  0
  162.6780  214.2050  144.2610 C   0  0  1  0  0  3  0  0  0  0  0  0
  160.7040  212.9240  143.6840 N   0  0  0  0  0  2  0  0  0  0  0  0
  160.8170  212.8180  145.1250 C   0  0  0  0  0  2  0  0  0  0  0  0
  2 14  1  0  0  0  0
  3 10  1  0  0  0  0
  4 25  1  0  0  0  0
  4 22  1  0  0  0  0
  5 19  2  0  0  0  0
  5  9  1  0  0  0  0
  6 12  1  0  0  0  0
  6 17  1  0  0  0  0
  7  2  2  0  0  0  0
  7 24  1  0  0  0  0
  8 13  1  1  0  0  0
  8  5  1  0  0  0  0
  9 15  1  0  0  0  0
 11  3  2  0  0  0  0
 12 35  1  6  0  0  0
 12  2  1  0  0  0  0
 13 21  1  0  0  0  0
 14 19  2  0  0  0  0
 14 22  1  0  0  0  0
 16 17  1  0  0  0  0
 17  8  1  0  0  0  0
 18  9  1  0  0  0  0
 18 20  2  0  0  0  0
 21 10  2  0  0  0  0
 21 18  1  0  0  0  0
 22  1  1  1  0  0  0
 23 11  1  0  0  0  0
 23 13  2  0  0  0  0
 24  4  2  0  0  0  0
 26 25  1  0  0  0  0
 26 27  1  0  0  0  0
 27 34  1  0  0  0  0
 28 33  1  0  0  0  0
 29 33  1  0  0  0  0
 30 28  1  0  0  0  0
 31 29  1  0  0  0  0
 32 30  1  0  0  0  0
 34 32  1  0  0  0  0
 34 31  1  0  0  0  0
 36 35  1  0  0  0  0
 38 37  1  1  0  0  0
 38 36  1  0  0  0  0
 40 44  1  0  0  0  0
 40 43  1  0  0  0  0
 41 40  2  0  0  0  0
 42 38  1  1  0  0  0
 43 39  1  1  0  0  0
 43 42  1  0  0  0  0
 44 45  1  0  0  0  0
 45 42  1  0  0  0  0
M  END
>  <MODEL>
1

>  <REMARK>
 VINA RESULT:      -6.5      0.000      0.000
  Name = 
  8 active torsions:
  status: ('A' for Active; 'I' for Inactive)
    1  A    between atoms: C_7  and  O_29
    2  A    between atoms: N_15  and  C_30
    3  A    between atoms: N_15  and  C_39
    4  A    between atoms: C_21  and  C_28
    5  A    between atoms: C_21  and  N_33
    6  A    between atoms: C_22  and  C_39
    7  A    between atoms: O_29  and  N_33
    8  A    between atoms: C_30  and  C_36
                            x       y       z     vdW  Elec       q    Type
                         _______ _______ _______ _____ _____    ______ ____

>  <TORSDO>
F 8

$$$$
=
 OpenBabel11052410323D

 45 50  0  0  1  0  0  0  0  0999 V2000
  157.7860  213.7690  153.1730 C   0  0  0  0  0  1  0  0  0  0  0  0
  160.3430  211.3900  152.7370 C   0  0  0  0  0  0  0  0  0  0  0  0
  162.2030  213.5220  145.0980 C   0  0  0  0  0  3  0  0  0  0  0  0
  159.6930  213.3630  154.6970 C   0  0  0  0  0  0  0  0  0  0  0  0
  160.1230  213.1140  149.7380 C   0  0  0  0  0  0  0  0  0  0  0  0
  161.8180  210.7210  150.7840 C   0  0  0  0  0  2  0  0  0  0  0  0
  160.5110  211.1800  154.0100 N   0  0  0  0  0  0  0  0  0  0  0  0
  161.3810  212.4570  149.2100 C   0  0  2  0  0  3  0  0  0  0  0  0
  159.0200  213.3790  148.8470 N   0  0  0  0  0  0  0  0  0  0  0  0
  160.8880  213.5540  145.5670 C   0  0  0  0  0  3  0  0  0  0  0  0
  163.2460  213.1900  145.9660 C   0  0  0  0  0  3  0  0  0  0  0  0
  160.6770  210.3090  151.7210 C   0  0  1  0  0  3  0  0  0  0  0  0
  161.6520  212.8730  147.7740 C   0  0  0  0  0  0  0  0  0  0  0  0
  159.8370  212.7060  152.2860 C   0  0  0  0  0  0  0  0  0  0  0  0
  157.6920  213.6950  149.3680 C   0  0  0  0  0  1  0  0  0  0  0  0
  162.1970  210.2400  148.5530 C   0  0  0  0  0  1  0  0  0  0  0  0
  161.3130  210.9890  149.4370 N   0  0  0  0  0  0  0  0  0  0  0  0
  159.2390  213.3870  147.4300 C   0  0  0  0  0  0  0  0  0  0  0  0
  159.9290  213.0060  151.0230 C   0  0  0  0  0  0  0  0  0  0  0  0
  158.2710  213.5600  146.6380 O   0  0  0  0  0  0  0  0  0  0  0  0
  160.6060  213.2400  146.9040 C   0  0  0  0  0  0  0  0  0  0  0  0
  159.3000  213.6970  153.2790 C   0  0  1  0  0  3  0  0  0  0  0  0
  162.9710  212.8700  147.2980 C   0  0  0  0  0  3  0  0  0  0  0  0
  160.2300  212.1730  155.0080 C   0  0  0  0  0  3  0  0  0  0  0  0
  159.4660  214.3220  155.6870 O   0  0  0  0  0  0  0  0  0  0  0  0
  158.9500  213.9820  156.9210 N   0  0  0  0  0  2  0  0  0  0  0  0
  157.5160  214.2130  156.8620 C   0  0  0  0  0  2  0  0  0  0  0  0
  154.7240  210.6530  155.9670 C   0  0  0  0  0  2  0  0  0  0  0  0
  157.2860  210.4830  155.8900 C   0  0  0  0  0  2  0  0  0  0  0  0
  154.8670  211.4600  157.2600 C   0  0  0  0  0  2  0  0  0  0  0  0
  157.6570  211.7250  156.7200 C   0  0  0  0  0  2  0  0  0  0  0  0
  155.3990  212.8820  157.0490 C   0  0  0  0  0  2  0  0  0  0  0  0
  155.9830  210.6180  155.0920 C   0  0  0  0  0  2  0  0  0  0  0  0
  156.7960  212.9530  156.4090 C   0  0  0  0  0  3  0  0  0  0  0  0
  160.9100  208.9200  152.3210 C   0  0  0  0  0  2  0  0  0  0  0  0
  160.4980  207.8700  151.3990 N   0  0  0  0  0  2  0  0  0  0  0  0
  162.3030  206.9700  152.5810 O   0  0  0  0  0  1  0  0  0  0  0  0
  161.2000  206.6540  151.7840 C   0  0  2  0  0  3  0  0  0  0  0  0
  160.3180  203.9890  151.4000 O   0  0  0  0  0  1  0  0  0  0  0  0
  160.9910  204.0810  149.1610 C   0  0  0  0  0  0  0  0  0  0  0  0
  160.8610  202.9280  148.6760 O   0  0  0  0  0  0  0  0  0  0  0  0
  161.6160  205.8630  150.5390 C   0  0  1  0  0  3  0  0  0  0  0  0
  161.3800  204.3400  150.5620 C   0  0  1  0  0  3  0  0  0  0  0  0
  160.7740  205.2530  148.4010 N   0  0  0  0  0  2  0  0  0  0  0  0
  160.9780  206.4060  149.2560 C   0  0  0  0  0  2  0  0  0  0  0  0
  2  7  2  0  0  0  0
  3 10  2  0  0  0  0
  3 11  1  0  0  0  0
  4 24  2  0  0  0  0
  4 25  1  0  0  0  0
  5 19  2  0  0  0  0
  6 12  1  0  0  0  0
  7 24  1  0  0  0  0
  8 13  1  6  0  0  0
  8 17  1  0  0  0  0
  8  5  1  0  0  0  0
  9 15  1  0  0  0  0
  9  5  1  0  0  0  0
 10 21  1  0  0  0  0
 11 23  2  0  0  0  0
 12 35  1  1  0  0  0
 12  2  1  0  0  0  0
 14  2  1  0  0  0  0
 14 22  1  0  0  0  0
 16 17  1  0  0  0  0
 17  6  1  0  0  0  0
 18  9  1  0  0  0  0
 19 14  2  0  0  0  0
 20 18  2  0  0  0  0
 21 18  1  0  0  0  0
 21 13  2  0  0  0  0
 22  1  1  1  0  0  0
 22  4  1  0  0  0  0
 23 13  1  0  0  0  0
 25 26  1  0  0  0  0
 27 26  1  0  0  0  0
 28 30  1  0  0  0  0
 29 31  1  0  0  0  0
 32 30  1  0  0  0  0
 33 29  1  0  0  0  0
 33 28  1  0  0  0  0
 34 31  1  0  0  0  0
 34 27  1  0  0  0  0
 34 32  1  0  0  0  0
 36 38  1  0  0  0  0
 36 35  1  0  0  0  0
 38 37  1  6  0  0  0
 40 43  1  0  0  0  0
 41 40  2  0  0  0  0
 42 43  1  0  0  0  0
 42 38  1  1  0  0  0
 43 39  1  1  0  0  0
 44 40  1  0  0  0  0
 44 45  1  0  0  0  0
 45 42  1  0  0  0  0
M  END
>  <MODEL>
2

>  <REMARK>
 VINA RESULT:      -5.7      2.296      6.941
  Name = 
  8 active torsions:
  status: ('A' for Active; 'I' for Inactive)
    1  A    between atoms: C_7  and  O_29
    2  A    between atoms: N_15  and  C_30
    3  A    between atoms: N_15  and  C_39
    4  A    between atoms: C_21  and  C_28
    5  A    between atoms: C_21  and  N_33
    6  A    between atoms: C_22  and  C_39
    7  A    between atoms: O_29  and  N_33
    8  A    between atoms: C_30  and  C_36
                            x       y       z     vdW  Elec       q    Type
                         _______ _______ _______ _____ _____    ______ ____

>  <TORSDO>
F 8

$$$$
=
 OpenBabel11052410323D

 45 50  0  0  1  0  0  0  0  0999 V2000
  160.3570  211.2150  154.0730 C   0  0  0  0  0  1  0  0  0  0  0  0
  161.1140  211.2300  150.6350 C   0  0  0  0  0  0  0  0  0  0  0  0
  161.2460  203.1330  149.7510 C   0  0  0  0  0  3  0  0  0  0  0  0
  159.1790  212.4950  152.3130 C   0  0  0  0  0  0  0  0  0  0  0  0
  160.9410  207.8940  151.5590 C   0  0  0  0  0  0  0  0  0  0  0  0
  161.6070  209.4200  148.9280 C   0  0  0  0  0  2  0  0  0  0  0  0
  160.7400  212.4630  150.4500 N   0  0  0  0  0  0  0  0  0  0  0  0
  161.0200  207.4390  150.1170 C   0  0  2  0  0  3  0  0  0  0  0  0
  161.6010  207.1350  152.5920 N   0  0  0  0  0  0  0  0  0  0  0  0
  161.7080  203.7500  150.9160 C   0  0  0  0  0  3  0  0  0  0  0  0
  160.6760  203.9020  148.7340 C   0  0  0  0  0  3  0  0  0  0  0  0
  162.1650  210.5950  149.7380 C   0  0  1  0  0  3  0  0  0  0  0  0
  161.0720  205.9230  150.0260 C   0  0  0  0  0  0  0  0  0  0  0  0
  160.4910  210.4450  151.7240 C   0  0  0  0  0  0  0  0  0  0  0  0
  161.8280  207.7070  153.9170 C   0  0  0  0  0  1  0  0  0  0  0  0
  162.5980  207.4460  148.2390 C   0  0  0  0  0  1  0  0  0  0  0  0
  162.1310  208.1480  149.4280 N   0  0  0  0  0  0  0  0  0  0  0  0
  161.9940  205.7800  152.3360 C   0  0  0  0  0  0  0  0  0  0  0  0
  160.6620  209.1550  151.7350 C   0  0  0  0  0  0  0  0  0  0  0  0
  162.6250  205.1240  153.2110 O   0  0  0  0  0  0  0  0  0  0  0  0
  161.6170  205.1410  151.0640 C   0  0  0  0  0  0  0  0  0  0  0  0
  159.6210  211.1190  152.7470 C   0  0  1  0  0  3  0  0  0  0  0  0
  160.5880  205.2900  148.8720 C   0  0  0  0  0  3  0  0  0  0  0  0
  159.7380  213.1030  151.2540 C   0  0  0  0  0  3  0  0  0  0  0  0
  158.1810  213.1310  153.0540 O   0  0  0  0  0  0  0  0  0  0  0  0
  158.3000  214.4470  153.4520 N   0  0  0  0  0  2  0  0  0  0  0  0
  158.3460  214.4510  154.9050 C   0  0  0  0  0  2  0  0  0  0  0  0
  155.1710  211.7080  156.8190 C   0  0  0  0  0  2  0  0  0  0  0  0
  157.6660  211.1040  156.7090 C   0  0  0  0  0  2  0  0  0  0  0  0
  155.5840  213.1260  157.2210 C   0  0  0  0  0  2  0  0  0  0  0  0
  158.2640  212.5020  156.4630 C   0  0  0  0  0  2  0  0  0  0  0  0
  156.1870  213.9460  156.0750 C   0  0  0  0  0  2  0  0  0  0  0  0
  156.2670  210.8980  156.1140 C   0  0  0  0  0  2  0  0  0  0  0  0
  157.4650  213.3450  155.4650 C   0  0  0  0  0  3  0  0  0  0  0  0
  162.9290  211.5820  148.8520 C   0  0  0  0  0  2  0  0  0  0  0  0
  162.0920  212.7140  148.4780 N   0  0  0  0  0  2  0  0  0  0  0  0
  163.0580  212.9850  146.3670 O   0  0  0  0  0  1  0  0  0  0  0  0
  161.8820  212.6430  147.0400 C   0  0  2  0  0  3  0  0  0  0  0  0
  160.7780  212.4820  144.4360 O   0  0  0  0  0  1  0  0  0  0  0  0
  158.9210  213.7200  145.1390 C   0  0  0  0  0  0  0  0  0  0  0  0
  158.2260  213.9760  144.1230 O   0  0  0  0  0  0  0  0  0  0  0  0
  160.7170  213.5470  146.6270 C   0  0  1  0  0  3  0  0  0  0  0  0
  160.3960  213.6380  145.1220 C   0  0  1  0  0  3  0  0  0  0  0  0
  158.3490  213.4840  146.4100 N   0  0  0  0  0  2  0  0  0  0  0  0
  159.4130  213.1950  147.3520 C   0  0  0  0  0  2  0  0  0  0  0  0
  2 14  1  0  0  0  0
  3 10  1  0  0  0  0
  4 22  1  0  0  0  0
  4 25  1  0  0  0  0
  5 19  2  0  0  0  0
  5  9  1  0  0  0  0
  6 17  1  0  0  0  0
  6 12  1  0  0  0  0
  7  2  2  0  0  0  0
  7 24  1  0  0  0  0
  8 13  1  1  0  0  0
  8  5  1  0  0  0  0
  9 15  1  0  0  0  0
 10 21  2  0  0  0  0
 11 23  1  0  0  0  0
 11  3  2  0  0  0  0
 12 35  1  6  0  0  0
 12  2  1  0  0  0  0
 13 21  1  0  0  0  0
 14 19  2  0  0  0  0
 14 22  1  0  0  0  0
 16 17  1  0  0  0  0
 17  8  1  0  0  0  0
 18  9  1  0  0  0  0
 18 20  2  0  0  0  0
 21 18  1  0  0  0  0
 22  1  1  1  0  0  0
 23 13  2  0  0  0  0
 24  4  2  0  0  0  0
 25 26  1  0  0  0  0
 26 27  1  0  0  0  0
 27 34  1  0  0  0  0
 28 30  1  0  0  0  0
 31 29  1  0  0  0  0
 32 30  1  0  0  0  0
 33 29  1  0  0  0  0
 33 28  1  0  0  0  0
 34 32  1  0  0  0  0
 34 31  1  0  0  0  0
 36 35  1  0  0  0  0
 38 37  1  6  0  0  0
 38 36  1  0  0  0  0
 40 44  1  0  0  0  0
 41 40  2  0  0  0  0
 42 38  1  6  0  0  0
 42 45  1  0  0  0  0
 43 39  1  6  0  0  0
 43 40  1  0  0  0  0
 43 42  1  0  0  0  0
 44 45  1  0  0  0  0
M  END
>  <MODEL>
3

>  <REMARK>
 VINA RESULT:      -5.2      1.465      1.871
  Name = 
  8 active torsions:
  status: ('A' for Active; 'I' for Inactive)
    1  A    between atoms: C_7  and  O_29
    2  A    between atoms: N_15  and  C_30
    3  A    between atoms: N_15  and  C_39
    4  A    between atoms: C_21  and  C_28
    5  A    between atoms: C_21  and  N_33
    6  A    between atoms: C_22  and  C_39
    7  A    between atoms: O_29  and  N_33
    8  A    between atoms: C_30  and  C_36
                            x       y       z     vdW  Elec       q    Type
                         _______ _______ _______ _____ _____    ______ ____

>  <TORSDO>
F 8

$$$$
=
 OpenBabel11052410323D

 45 50  0  0  1  0  0  0  0  0999 V2000
  162.2690  207.7620  151.6650 C   0  0  0  0  0  1  0  0  0  0  0  0
  161.1650  208.4710  154.9310 C   0  0  0  0  0  0  0  0  0  0  0  0
  156.0270  214.4310  152.8240 C   0  0  0  0  0  3  0  0  0  0  0  0
  161.4350  206.1260  153.3230 C   0  0  0  0  0  0  0  0  0  0  0  0
  159.5020  210.6960  152.8580 C   0  0  0  0  0  0  0  0  0  0  0  0
  159.6130  210.2100  155.9310 C   0  0  0  0  0  2  0  0  0  0  0  0
  161.5650  207.3360  155.4270 N   0  0  0  0  0  0  0  0  0  0  0  0
  158.6080  211.1600  153.9890 C   0  0  2  0  0  3  0  0  0  0  0  0
  159.9670  211.6410  151.8730 N   0  0  0  0  0  0  0  0  0  0  0  0
  157.2410  214.2420  152.1600 C   0  0  0  0  0  3  0  0  0  0  0  0
  155.6350  213.5410  153.8270 C   0  0  0  0  0  3  0  0  0  0  0  0
  161.0550  209.7070  155.8100 C   0  0  1  0  0  3  0  0  0  0  0  0
  157.7000  212.2910  153.5370 C   0  0  0  0  0  0  0  0  0  0  0  0
  160.8010  208.5410  153.4980 C   0  0  0  0  0  0  0  0  0  0  0  0
  161.0750  211.3120  150.9790 C   0  0  0  0  0  1  0  0  0  0  0  0
  158.7660  212.3550  156.1250 C   0  0  0  0  0  1  0  0  0  0  0  0
  159.4340  211.4590  155.1890 N   0  0  0  0  0  0  0  0  0  0  0  0
  159.2990  212.9020  151.7280 C   0  0  0  0  0  0  0  0  0  0  0  0
  160.1510  209.5860  153.0740 C   0  0  0  0  0  0  0  0  0  0  0  0
  159.7310  213.7610  150.9100 O   0  0  0  0  0  0  0  0  0  0  0  0
  158.0770  213.1710  152.5040 C   0  0  0  0  0  0  0  0  0  0  0  0
  161.1100  207.3960  152.5760 C   0  0  1  0  0  3  0  0  0  0  0  0
  156.4670  212.4750  154.1790 C   0  0  0  0  0  3  0  0  0  0  0  0
  161.6670  206.1360  154.6450 C   0  0  0  0  0  3  0  0  0  0  0  0
  161.5070  204.9350  152.5970 O   0  0  0  0  0  0  0  0  0  0  0  0
  161.8260  204.9210  151.2540 N   0  0  0  0  0  2  0  0  0  0  0  0
  160.6190  204.5460  150.5340 C   0  0  0  0  0  2  0  0  0  0  0  0
  161.2380  204.9200  145.9790 C   0  0  0  0  0  2  0  0  0  0  0  0
  161.4630  206.9050  147.5950 C   0  0  0  0  0  2  0  0  0  0  0  0
  162.0190  204.0750  146.9890 C   0  0  0  0  0  2  0  0  0  0  0  0
  161.6540  206.1440  148.9200 C   0  0  0  0  0  2  0  0  0  0  0  0
  161.2200  203.7140  148.2470 C   0  0  0  0  0  2  0  0  0  0  0  0
  160.5870  206.1780  146.5670 C   0  0  0  0  0  2  0  0  0  0  0  0
  160.7400  204.9240  149.0660 C   0  0  0  0  0  3  0  0  0  0  0  0
  161.7270  209.5770  157.1800 C   0  0  0  0  0  2  0  0  0  0  0  0
  163.1670  209.7760  157.0840 N   0  0  0  0  0  2  0  0  0  0  0  0
  163.6040  210.7870  155.0220 O   0  0  0  0  0  1  0  0  0  0  0  0
  163.3860  211.0310  156.3800 C   0  0  2  0  0  3  0  0  0  0  0  0
  165.7680  211.4870  154.9160 O   0  0  0  0  0  1  0  0  0  0  0  0
  166.4400  213.0800  156.4920 C   0  0  0  0  0  0  0  0  0  0  0  0
  167.6160  213.4250  156.2090 O   0  0  0  0  0  0  0  0  0  0  0  0
  164.5560  211.7960  157.0070 C   0  0  1  0  0  3  0  0  0  0  0  0
  165.9170  211.7140  156.2870 C   0  0  1  0  0  3  0  0  0  0  0  0
  165.4970  213.9790  157.0410 N   0  0  0  0  0  2  0  0  0  0  0  0
  164.2410  213.2790  157.2240 C   0  0  0  0  0  2  0  0  0  0  0  0
  2  7  2  0  0  0  0
  2 12  1  0  0  0  0
  3 11  1  0  0  0  0
  4 24  2  0  0  0  0
  5 19  2  0  0  0  0
  8  5  1  6  0  0  0
  8 17  1  0  0  0  0
  9  5  1  0  0  0  0
 10 21  1  0  0  0  0
 10  3  2  0  0  0  0
 11 23  2  0  0  0  0
 12  6  1  0  0  0  0
 12 35  1  1  0  0  0
 13  8  1  0  0  0  0
 13 23  1  0  0  0  0
 14  2  1  0  0  0  0
 15  9  1  0  0  0  0
 17  6  1  0  0  0  0
 17 16  1  0  0  0  0
 18  9  1  0  0  0  0
 18 21  1  0  0  0  0
 19 14  2  0  0  0  0
 20 18  2  0  0  0  0
 21 13  2  0  0  0  0
 22  1  1  1  0  0  0
 22  4  1  0  0  0  0
 22 14  1  0  0  0  0
 24  7  1  0  0  0  0
 25  4  1  0  0  0  0
 26 25  1  0  0  0  0
 27 26  1  0  0  0  0
 28 33  1  0  0  0  0
 28 30  1  0  0  0  0
 29 31  1  0  0  0  0
 30 32  1  0  0  0  0
 31 34  1  0  0  0  0
 32 34  1  0  0  0  0
 33 29  1  0  0  0  0
 34 27  1  0  0  0  0
 36 35  1  0  0  0  0
 38 37  1  6  0  0  0
 38 36  1  0  0  0  0
 40 44  1  0  0  0  0
 41 40  2  0  0  0  0
 42 38  1  6  0  0  0
 42 45  1  0  0  0  0
 43 39  1  6  0  0  0
 43 40  1  0  0  0  0
 43 42  1  0  0  0  0
 44 45  1  0  0  0  0
M  END
>  <MODEL>
4

>  <REMARK>
 VINA RESULT:      -4.1      3.703      9.826
  Name = 
  8 active torsions:
  status: ('A' for Active; 'I' for Inactive)
    1  A    between atoms: C_7  and  O_29
    2  A    between atoms: N_15  and  C_30
    3  A    between atoms: N_15  and  C_39
    4  A    between atoms: C_21  and  C_28
    5  A    between atoms: C_21  and  N_33
    6  A    between atoms: C_22  and  C_39
    7  A    between atoms: O_29  and  N_33
    8  A    between atoms: C_30  and  C_36
                            x       y       z     vdW  Elec       q    Type
                         _______ _______ _______ _____ _____    ______ ____

>  <TORSDO>
F 8

$$$$
=
 OpenBabel11052410323D

 45 50  0  0  1  0  0  0  0  0999 V2000
  160.8220  208.9970  154.8410 C   0  0  0  0  0  1  0  0  0  0  0  0
  161.3620  210.1530  151.5600 C   0  0  0  0  0  0  0  0  0  0  0  0
  161.0000  202.8340  148.0020 C   0  0  0  0  0  3  0  0  0  0  0  0
  159.6070  210.8310  153.7090 C   0  0  0  0  0  0  0  0  0  0  0  0
  161.0670  206.7080  151.3210 C   0  0  0  0  0  0  0  0  0  0  0  0
  161.6490  209.0140  149.3120 C   0  0  0  0  0  2  0  0  0  0  0  0
  161.0440  211.3860  151.8290 N   0  0  0  0  0  0  0  0  0  0  0  0
  161.0310  206.7650  149.8090 C   0  0  2  0  0  3  0  0  0  0  0  0
  161.7490  205.6250  151.9860 N   0  0  0  0  0  0  0  0  0  0  0  0
  161.5680  203.0060  149.2670 C   0  0  0  0  0  3  0  0  0  0  0  0
  160.4100  203.9180  147.3500 C   0  0  0  0  0  3  0  0  0  0  0  0
  162.3190  209.8280  150.4240 C   0  0  1  0  0  3  0  0  0  0  0  0
  160.9960  205.3690  149.2110 C   0  0  0  0  0  0  0  0  0  0  0  0
  160.7670  209.0640  152.3680 C   0  0  0  0  0  0  0  0  0  0  0  0
  162.0890  205.7070  153.4040 C   0  0  0  0  0  1  0  0  0  0  0  0
  162.4860  207.3610  147.9260 C   0  0  0  0  0  1  0  0  0  0  0  0
  162.1330  207.6330  149.3140 N   0  0  0  0  0  0  0  0  0  0  0  0
  162.0510  204.4250  151.2600 C   0  0  0  0  0  0  0  0  0  0  0  0
  160.8680  207.8420  151.9320 C   0  0  0  0  0  0  0  0  0  0  0  0
  162.7000  203.4930  151.8120 O   0  0  0  0  0  0  0  0  0  0  0  0
  161.5610  204.2660  149.8810 C   0  0  0  0  0  0  0  0  0  0  0  0
  160.0000  209.3770  153.6210 C   0  0  1  0  0  3  0  0  0  0  0  0
  160.4060  205.1790  147.9520 C   0  0  0  0  0  3  0  0  0  0  0  0
  160.1300  211.7450  152.8770 C   0  0  0  0  0  3  0  0  0  0  0  0
  158.6930  211.2090  154.6960 O   0  0  0  0  0  0  0  0  0  0  0  0
  158.9910  212.1820  155.6270 N   0  0  0  0  0  2  0  0  0  0  0  0
  158.5400  213.4510  155.0770 C   0  0  0  0  0  2  0  0  0  0  0  0
  154.2040  213.6850  156.6300 C   0  0  0  0  0  2  0  0  0  0  0  0
  154.7970  213.5690  154.1320 C   0  0  0  0  0  2  0  0  0  0  0  0
  155.2570  212.6010  156.8780 C   0  0  0  0  0  2  0  0  0  0  0  0
  156.2320  213.0190  154.2290 C   0  0  0  0  0  2  0  0  0  0  0  0
  156.7010  213.0960  156.7430 C   0  0  0  0  0  2  0  0  0  0  0  0
  154.3760  214.4530  155.3130 C   0  0  0  0  0  2  0  0  0  0  0  0
  157.0590  213.6500  155.3540 C   0  0  0  0  0  3  0  0  0  0  0  0
  163.0780  211.0340  149.8640 C   0  0  0  0  0  2  0  0  0  0  0  0
  162.1720  211.9770  149.2220 N   0  0  0  0  0  2  0  0  0  0  0  0
  163.9170  212.8670  147.9460 O   0  0  0  0  0  1  0  0  0  0  0  0
  162.6790  212.2210  147.8800 C   0  0  2  0  0  3  0  0  0  0  0  0
  163.2080  212.9160  145.1850 O   0  0  0  0  0  1  0  0  0  0  0  0
  160.9620  213.5020  144.8880 C   0  0  0  0  0  0  0  0  0  0  0  0
  160.8510  214.0250  143.7500 O   0  0  0  0  0  0  0  0  0  0  0  0
  161.6660  213.0340  147.0680 C   0  0  1  0  0  3  0  0  0  0  0  0
  162.1570  213.6500  145.7430 C   0  0  1  0  0  3  0  0  0  0  0  0
  159.9400  212.7140  145.4640 N   0  0  0  0  0  2  0  0  0  0  0  0
  160.3900  212.2430  146.7590 C   0  0  0  0  0  2  0  0  0  0  0  0
  2  7  2  0  0  0  0
  2 14  1  0  0  0  0
  3 10  1  0  0  0  0
  4 25  1  0  0  0  0
  5 19  2  0  0  0  0
  5  9  1  0  0  0  0
  6 17  1  0  0  0  0
  6 12  1  0  0  0  0
  7 24  1  0  0  0  0
  8 13  1  6  0  0  0
  8  5  1  0  0  0  0
  9 15  1  0  0  0  0
 10 21  2  0  0  0  0
 11 23  1  0  0  0  0
 11  3  2  0  0  0  0
 12 35  1  6  0  0  0
 12  2  1  0  0  0  0
 13 21  1  0  0  0  0
 14 22  1  0  0  0  0
 16 17  1  0  0  0  0
 17  8  1  0  0  0  0
 18 20  2  0  0  0  0
 18  9  1  0  0  0  0
 19 14  2  0  0  0  0
 21 18  1  0  0  0  0
 22  4  1  0  0  0  0
 22  1  1  1  0  0  0
 23 13  2  0  0  0  0
 24  4  2  0  0  0  0
 25 26  1  0  0  0  0
 27 34  1  0  0  0  0
 27 26  1  0  0  0  0
 28 30  1  0  0  0  0
 29 31  1  0  0  0  0
 29 33  1  0  0  0  0
 31 34  1  0  0  0  0
 32 30  1  0  0  0  0
 33 28  1  0  0  0  0
 34 32  1  0  0  0  0
 36 35  1  0  0  0  0
 38 37  1  1  0  0  0
 38 36  1  0  0  0  0
 40 44  1  0  0  0  0
 40 43  1  0  0  0  0
 41 40  2  0  0  0  0
 42 38  1  6  0  0  0
 43 39  1  6  0  0  0
 43 42  1  0  0  0  0
 44 45  1  0  0  0  0
 45 42  1  0  0  0  0
M  END
>  <MODEL>
5

>  <REMARK>
 VINA RESULT:      -4.0      1.688      2.425
  Name = 
  8 active torsions:
  status: ('A' for Active; 'I' for Inactive)
    1  A    between atoms: C_7  and  O_29
    2  A    between atoms: N_15  and  C_30
    3  A    between atoms: N_15  and  C_39
    4  A    between atoms: C_21  and  C_28
    5  A    between atoms: C_21  and  N_33
    6  A    between atoms: C_22  and  C_39
    7  A    between atoms: O_29  and  N_33
    8  A    between atoms: C_30  and  C_36
                            x       y       z     vdW  Elec       q    Type
                         _______ _______ _______ _____ _____    ______ ____

>  <TORSDO>
F 8

$$$$
