=
 OpenBabel11052411413D

 42 48  0  0  1  0  0  0  0  0999 V2000
  160.9640  208.3080  149.8480 N   0  0  2  0  0  0  0  0  0  0  0  0
  162.3150  210.1830  150.1330 C   0  0  1  0  0  3  0  0  0  0  0  0
  161.6300  209.7510  151.4260 C   0  0  0  0  0  2  0  0  0  0  0  0
  161.6480  208.2760  151.1730 C   0  0  2  0  0  0  0  0  0  0  0  0
  160.8980  207.1260  150.7000 C   0  0  1  0  0  0  0  0  0  0  0  0
  160.8390  207.5090  152.1810 C   0  0  1  0  0  3  0  0  0  0  0  0
  162.1090  208.9550  149.2390 C   0  0  0  0  0  2  0  0  0  0  0  0
  161.6140  211.3340  149.5710 N   0  0  0  0  0  2  0  0  0  0  0  0
  160.7280  211.9030  147.3260 C   0  0  0  0  0  2  0  0  0  0  0  0
  162.3660  213.5490  146.5860 C   0  0  0  0  0  2  0  0  0  0  0  0
  163.3010  212.6840  147.8850 S   0  0  0  0  0  0  0  0  0  0  0  0
  161.9380  211.4960  148.1510 C   0  0  1  0  0  3  0  0  0  0  0  0
  161.2560  212.6310  146.1100 C   0  0  2  0  0  3  0  0  0  0  0  0
  159.2280  212.5270  144.8670 F   0  0  0  0  0  0  0  0  0  0  0  0
  159.5090  214.2600  146.2810 F   0  0  0  0  0  0  0  0  0  0  0  0
  160.1510  213.4100  145.3980 C   0  0  0  0  0  0  0  0  0  0  0  0
  160.6960  214.1540  144.3680 F   0  0  0  0  0  0  0  0  0  0  0  0
  161.8880  206.1140  150.3370 N   0  0  0  0  0  2  0  0  0  0  0  0
  161.5650  204.0200  147.2520 C   0  0  0  0  0  3  0  0  0  0  0  0
  161.0300  202.8440  147.7860 C   0  0  0  0  0  0  0  0  0  0  0  0
  161.0740  203.8400  149.9980 C   0  0  0  0  0  3  0  0  0  0  0  0
  160.2570  201.5920  149.7190 O   0  0  0  0  0  1  0  0  0  0  0  0
  161.8490  205.1050  148.0860 C   0  0  0  0  0  3  0  0  0  0  0  0
  161.6050  205.0180  149.4630 C   0  0  0  0  0  0  0  0  0  0  0  0
  160.7870  202.7530  149.1660 C   0  0  0  0  0  0  0  0  0  0  0  0
  160.7570  201.6890  146.8830 C   0  0  0  0  0  2  0  0  0  0  0  0
  160.7660  202.1330  145.4990 N   0  0  0  0  0  2  0  0  0  0  0  0
  159.7200  201.3940  144.8180 C   0  0  0  0  0  1  0  0  0  0  0  0
  161.7690  206.6880  153.0600 C   0  0  0  0  0  2  0  0  0  0  0  0
  161.5270  207.0350  154.5150 C   0  0  0  0  0  2  0  0  0  0  0  0
  161.3450  209.3110  155.3980 C   0  0  1  0  0  3  0  0  0  0  0  0
  160.1660  208.6340  155.9600 N   0  0  0  0  0  0  0  0  0  0  0  0
  160.6710  208.2970  154.5990 C   0  0  2  0  0  3  0  0  0  0  0  0
  159.7350  206.7460  157.2600 O   0  0  0  0  0  1  0  0  0  0  0  0
  160.6640  207.7560  157.0150 C   0  0  0  0  0  2  0  0  0  0  0  0
  160.9440  210.6890  154.9120 C   0  0  0  0  0  2  0  0  0  0  0  0
  159.4340  210.7810  154.8380 C   0  0  1  0  0  3  0  0  0  0  0  0
  159.0300  212.1990  154.6990 C   0  0  1  0  0  3  0  0  0  0  0  0
  159.0690  211.3270  153.5950 O   0  0  0  0  0  0  0  0  0  0  0  0
  157.6180  212.3810  155.1450 C   0  0  0  0  0  0  0  0  0  0  0  0
  157.3090  212.4270  156.5340 N   0  0  0  0  0  1  0  0  0  0  0  0
  156.6990  212.5290  154.2960 O   0  0  0  0  0  0  0  0  0  0  0  0
  1  7  1  6  0  0  0
  1  5  1  0  0  0  0
  1  4  1  0  0  0  0
  2  8  1  6  0  0  0
  2  3  1  0  0  0  0
  4  3  1  1  0  0  0
  4  6  1  0  0  0  0
  5 18  1  6  0  0  0
  5  4  1  0  0  0  0
  5  6  1  0  0  0  0
  6 29  1  1  0  0  0
  7  2  1  0  0  0  0
  9 12  1  0  0  0  0
 10 11  1  0  0  0  0
 11 12  1  0  0  0  0
 12  8  1  1  0  0  0
 13 16  1  1  0  0  0
 13 10  1  0  0  0  0
 13  9  1  0  0  0  0
 14 16  1  0  0  0  0
 16 15  1  0  0  0  0
 17 16  1  0  0  0  0
 19 20  2  0  0  0  0
 19 23  1  0  0  0  0
 20 25  1  0  0  0  0
 23 24  2  0  0  0  0
 24 21  1  0  0  0  0
 24 18  1  0  0  0  0
 25 22  1  0  0  0  0
 25 21  2  0  0  0  0
 26 20  1  0  0  0  0
 27 26  1  0  0  0  0
 28 27  1  0  0  0  0
 29 30  1  0  0  0  0
 31 36  1  6  0  0  0
 31 32  1  0  0  0  0
 32 35  1  0  0  0  0
 33 30  1  1  0  0  0
 33 31  1  0  0  0  0
 33 32  1  0  0  0  0
 35 34  1  0  0  0  0
 37 36  1  6  0  0  0
 38 37  1  0  0  0  0
 38 40  1  1  0  0  0
 39 38  1  0  0  0  0
 39 37  1  0  0  0  0
 40 41  1  0  0  0  0
 42 40  2  0  0  0  0
M  END
>  <MODEL>
1

>  <REMARK>
 VINA RESULT:      -7.2      0.000      0.000
  Name = 
  14 active torsions:
  status: ('A' for Active; 'I' for Inactive)
    1  A    between atoms: C_1  and  C_24
    2  A    between atoms: C_5  and  C_8
    3  A    between atoms: C_5  and  N_23
    4  A    between atoms: C_10  and  C_25
    5  A    between atoms: C_12  and  N_36
    6  A    between atoms: C_19  and  C_27
    7  A    between atoms: C_19  and  C_41
    8  A    between atoms: C_21  and  C_25
    9  A    between atoms: C_22  and  N_36
   10  A    between atoms: N_26  and  C_30
   11  A    between atoms: C_31  and  C_34
   12  A    between atoms: C_32  and  N_40
   13  A    between atoms: C_33  and  N_40
   14  A    between atoms: C_37  and  C_41
                            x       y       z     vdW  Elec       q    Type
                         _______ _______ _______ _____ _____    ______ ____

>  <TORSDO>
F 14

$$$$
=
 OpenBabel11052411413D

 42 48  0  0  1  0  0  0  0  0999 V2000
  162.0240  207.8930  151.6740 N   0  0  2  0  0  0  0  0  0  0  0  0
  160.8740  209.2990  153.1290 C   0  0  1  0  0  3  0  0  0  0  0  0
  161.8270  210.0570  152.2120 C   0  0  0  0  0  2  0  0  0  0  0  0
  161.6780  209.1820  151.0080 C   0  0  2  0  0  0  0  0  0  0  0  0
  162.2350  208.0800  150.2420 C   0  0  1  0  0  0  0  0  0  0  0  0
  162.6670  209.5150  149.9260 C   0  0  1  0  0  3  0  0  0  0  0  0
  160.7990  207.9290  152.4470 C   0  0  0  0  0  2  0  0  0  0  0  0
  161.4740  209.1660  154.4540 N   0  0  0  0  0  2  0  0  0  0  0  0
  159.7780  210.9230  154.8790 C   0  0  0  0  0  2  0  0  0  0  0  0
  159.3710  210.6070  157.2610 C   0  0  0  0  0  2  0  0  0  0  0  0
  160.9950  209.8110  157.0740 S   0  0  0  0  0  0  0  0  0  0  0  0
  161.0880  210.2880  155.3130 C   0  0  1  0  0  3  0  0  0  0  0  0
  159.1820  211.5730  156.1070 C   0  0  2  0  0  3  0  0  0  0  0  0
  157.5960  213.2030  155.4010 F   0  0  0  0  0  0  0  0  0  0  0  0
  157.1210  211.0340  155.0120 F   0  0  0  0  0  0  0  0  0  0  0  0
  157.7080  211.9180  155.9000 C   0  0  0  0  0  0  0  0  0  0  0  0
  157.0400  211.8540  157.1100 F   0  0  0  0  0  0  0  0  0  0  0  0
  161.1390  207.5470  149.4360 N   0  0  0  0  0  2  0  0  0  0  0  0
  161.4490  204.7600  146.9570 C   0  0  0  0  0  3  0  0  0  0  0  0
  161.1700  203.6550  147.7670 C   0  0  0  0  0  0  0  0  0  0  0  0
  160.8810  205.1330  149.6690 C   0  0  0  0  0  3  0  0  0  0  0  0
  160.6100  202.7570  149.9540 O   0  0  0  0  0  1  0  0  0  0  0  0
  161.4380  206.0490  147.4990 C   0  0  0  0  0  3  0  0  0  0  0  0
  161.1550  206.2390  148.8580 C   0  0  0  0  0  0  0  0  0  0  0  0
  160.8880  203.8430  149.1300 C   0  0  0  0  0  0  0  0  0  0  0  0
  161.2100  202.2870  147.1740 C   0  0  0  0  0  2  0  0  0  0  0  0
  161.1910  202.3780  145.7240 N   0  0  0  0  0  2  0  0  0  0  0  0
  160.0920  201.5460  145.2700 C   0  0  0  0  0  1  0  0  0  0  0  0
  161.9370  210.1230  148.7390 C   0  0  0  0  0  2  0  0  0  0  0  0
  161.9410  211.6330  148.8630 C   0  0  0  0  0  2  0  0  0  0  0  0
  161.8480  213.6990  147.5520 C   0  0  1  0  0  3  0  0  0  0  0  0
  160.4860  213.1550  147.4260 N   0  0  0  0  0  0  0  0  0  0  0  0
  161.6710  212.2540  147.4930 C   0  0  2  0  0  3  0  0  0  0  0  0
  158.6040  214.0020  148.5110 O   0  0  0  0  0  1  0  0  0  0  0  0
  159.8350  213.3820  148.7130 C   0  0  0  0  0  2  0  0  0  0  0  0
  162.3080  214.2080  146.2010 C   0  0  0  0  0  2  0  0  0  0  0  0
  162.3150  213.0690  145.2050 C   0  0  1  0  0  3  0  0  0  0  0  0
  162.0020  213.5890  143.8540 C   0  0  1  0  0  3  0  0  0  0  0  0
  163.3210  213.3010  144.2510 O   0  0  0  0  0  0  0  0  0  0  0  0
  161.4900  212.4910  142.9830 C   0  0  0  0  0  0  0  0  0  0  0  0
  162.2620  212.0410  141.8750 N   0  0  0  0  0  1  0  0  0  0  0  0
  160.3900  211.9350  143.2450 O   0  0  0  0  0  0  0  0  0  0  0  0
  1  7  1  6  0  0  0
  2  8  1  1  0  0  0
  3  2  1  0  0  0  0
  4  1  1  0  0  0  0
  4  3  1  6  0  0  0
  5 18  1  6  0  0  0
  5  4  1  0  0  0  0
  5  1  1  0  0  0  0
  6 29  1  6  0  0  0
  6  5  1  0  0  0  0
  6  4  1  0  0  0  0
  7  2  1  0  0  0  0
  9 12  1  0  0  0  0
  9 13  1  0  0  0  0
 11 10  1  0  0  0  0
 12  8  1  6  0  0  0
 12 11  1  0  0  0  0
 13 16  1  6  0  0  0
 13 10  1  0  0  0  0
 14 16  1  0  0  0  0
 15 16  1  0  0  0  0
 16 17  1  0  0  0  0
 19 23  2  0  0  0  0
 19 20  1  0  0  0  0
 20 25  2  0  0  0  0
 23 24  1  0  0  0  0
 24 18  1  0  0  0  0
 24 21  2  0  0  0  0
 25 21  1  0  0  0  0
 25 22  1  0  0  0  0
 26 20  1  0  0  0  0
 27 26  1  0  0  0  0
 28 27  1  0  0  0  0
 29 30  1  0  0  0  0
 31 36  1  6  0  0  0
 32 33  1  0  0  0  0
 32 31  1  0  0  0  0
 32 35  1  0  0  0  0
 33 31  1  0  0  0  0
 33 30  1  1  0  0  0
 34 35  1  0  0  0  0
 37 36  1  1  0  0  0
 38 40  1  6  0  0  0
 38 39  1  0  0  0  0
 38 37  1  0  0  0  0
 39 37  1  0  0  0  0
 40 42  2  0  0  0  0
 41 40  1  0  0  0  0
M  END
>  <MODEL>
2

>  <REMARK>
 VINA RESULT:      -7.1      4.336      7.826
  Name = 
  14 active torsions:
  status: ('A' for Active; 'I' for Inactive)
    1  A    between atoms: C_1  and  C_24
    2  A    between atoms: C_5  and  C_8
    3  A    between atoms: C_5  and  N_23
    4  A    between atoms: C_10  and  C_25
    5  A    between atoms: C_12  and  N_36
    6  A    between atoms: C_19  and  C_27
    7  A    between atoms: C_19  and  C_41
    8  A    between atoms: C_21  and  C_25
    9  A    between atoms: C_22  and  N_36
   10  A    between atoms: N_26  and  C_30
   11  A    between atoms: C_31  and  C_34
   12  A    between atoms: C_32  and  N_40
   13  A    between atoms: C_33  and  N_40
   14  A    between atoms: C_37  and  C_41
                            x       y       z     vdW  Elec       q    Type
                         _______ _______ _______ _____ _____    ______ ____

>  <TORSDO>
F 14

$$$$
=
 OpenBabel11052411413D

 42 48  0  0  1  0  0  0  0  0999 V2000
  160.4400  209.2510  153.8070 N   0  0  2  0  0  0  0  0  0  0  0  0
  161.3060  209.4040  155.9630 C   0  0  1  0  0  3  0  0  0  0  0  0
  160.8670  207.9870  155.6060 C   0  0  0  0  0  2  0  0  0  0  0  0
  161.2260  208.0310  154.1540 C   0  0  2  0  0  0  0  0  0  0  0  0
  160.7440  208.2410  152.8000 C   0  0  1  0  0  0  0  0  0  0  0  0
  160.7240  206.8320  153.3990 C   0  0  1  0  0  3  0  0  0  0  0  0
  161.3320  210.0840  154.5900 C   0  0  0  0  0  2  0  0  0  0  0  0
  160.2960  210.0280  156.8120 N   0  0  0  0  0  2  0  0  0  0  0  0
  158.1970  210.8870  155.8110 C   0  0  0  0  0  2  0  0  0  0  0  0
  158.0570  213.0880  156.8470 C   0  0  0  0  0  2  0  0  0  0  0  0
  159.8250  212.7170  157.0490 S   0  0  0  0  0  0  0  0  0  0  0  0
  159.6600  211.1530  156.1210 C   0  0  1  0  0  3  0  0  0  0  0  0
  157.5210  212.2360  155.7120 C   0  0  2  0  0  3  0  0  0  0  0  0
  155.6280  211.5920  157.0040 F   0  0  0  0  0  0  0  0  0  0  0  0
  155.4000  213.3440  155.6040 F   0  0  0  0  0  0  0  0  0  0  0  0
  156.0000  212.1090  155.7760 C   0  0  0  0  0  0  0  0  0  0  0  0
  155.5620  211.2500  154.7840 F   0  0  0  0  0  0  0  0  0  0  0  0
  161.9170  208.5810  151.9970 N   0  0  0  0  0  2  0  0  0  0  0  0
  162.1840  209.9020  148.5050 C   0  0  0  0  0  3  0  0  0  0  0  0
  161.7610  211.2220  148.6900 C   0  0  0  0  0  0  0  0  0  0  0  0
  161.4410  210.7790  151.0530 C   0  0  0  0  0  3  0  0  0  0  0  0
  160.9590  212.9690  150.1750 O   0  0  0  0  0  1  0  0  0  0  0  0
  162.2410  209.0240  149.5910 C   0  0  0  0  0  3  0  0  0  0  0  0
  161.8680  209.4600  150.8700 C   0  0  0  0  0  0  0  0  0  0  0  0
  161.3840  211.6610  149.9690 C   0  0  0  0  0  0  0  0  0  0  0  0
  161.6850  212.1350  147.5130 C   0  0  0  0  0  2  0  0  0  0  0  0
  160.3480  212.0960  146.9450 N   0  0  0  0  0  2  0  0  0  0  0  0
  160.3800  212.9210  145.7520 C   0  0  0  0  0  1  0  0  0  0  0  0
  161.9020  205.9720  152.9710 C   0  0  0  0  0  2  0  0  0  0  0  0
  161.4010  204.8010  152.1510 C   0  0  0  0  0  2  0  0  0  0  0  0
  160.3750  205.1030  149.9490 C   0  0  1  0  0  3  0  0  0  0  0  0
  161.2870  203.9670  149.7440 N   0  0  0  0  0  0  0  0  0  0  0  0
  161.6410  205.0810  150.6680 C   0  0  2  0  0  3  0  0  0  0  0  0
  159.9810  202.0570  149.4590 O   0  0  0  0  0  1  0  0  0  0  0  0
  160.6660  202.8220  150.4020 C   0  0  0  0  0  2  0  0  0  0  0  0
  160.4810  206.0460  148.7670 C   0  0  0  0  0  2  0  0  0  0  0  0
  161.4630  205.4890  147.7590 C   0  0  1  0  0  3  0  0  0  0  0  0
  161.2370  206.1250  146.4410 C   0  0  1  0  0  3  0  0  0  0  0  0
  162.2810  206.5320  147.2930 O   0  0  0  0  0  0  0  0  0  0  0  0
  161.7850  205.2660  145.3510 C   0  0  0  0  0  0  0  0  0  0  0  0
  163.0220  204.5840  145.5340 N   0  0  0  0  0  1  0  0  0  0  0  0
  161.1400  205.1120  144.2810 O   0  0  0  0  0  0  0  0  0  0  0  0
  1  4  1  0  0  0  0
  1  7  1  6  0  0  0
  2  8  1  1  0  0  0
  3  2  1  0  0  0  0
  4  3  1  1  0  0  0
  5 18  1  6  0  0  0
  5  6  1  0  0  0  0
  5  1  1  0  0  0  0
  5  4  1  0  0  0  0
  6 29  1  6  0  0  0
  6  4  1  0  0  0  0
  7  2  1  0  0  0  0
  9 12  1  0  0  0  0
 10 11  1  0  0  0  0
 12  8  1  1  0  0  0
 12 11  1  0  0  0  0
 13 16  1  1  0  0  0
 13  9  1  0  0  0  0
 13 10  1  0  0  0  0
 15 16  1  0  0  0  0
 16 14  1  0  0  0  0
 17 16  1  0  0  0  0
 19 20  2  0  0  0  0
 19 23  1  0  0  0  0
 20 25  1  0  0  0  0
 23 24  2  0  0  0  0
 24 21  1  0  0  0  0
 24 18  1  0  0  0  0
 25 22  1  0  0  0  0
 25 21  2  0  0  0  0
 26 20  1  0  0  0  0
 27 26  1  0  0  0  0
 28 27  1  0  0  0  0
 30 29  1  0  0  0  0
 31 36  1  6  0  0  0
 31 33  1  0  0  0  0
 32 31  1  0  0  0  0
 32 35  1  0  0  0  0
 32 33  1  0  0  0  0
 33 30  1  1  0  0  0
 34 35  1  0  0  0  0
 37 36  1  1  0  0  0
 38 40  1  6  0  0  0
 38 39  1  0  0  0  0
 38 37  1  0  0  0  0
 39 37  1  0  0  0  0
 40 41  1  0  0  0  0
 42 40  2  0  0  0  0
M  END
>  <MODEL>
3

>  <REMARK>
 VINA RESULT:      -7.0      4.106      8.629
  Name = 
  14 active torsions:
  status: ('A' for Active; 'I' for Inactive)
    1  A    between atoms: C_1  and  C_24
    2  A    between atoms: C_5  and  C_8
    3  A    between atoms: C_5  and  N_23
    4  A    between atoms: C_10  and  C_25
    5  A    between atoms: C_12  and  N_36
    6  A    between atoms: C_19  and  C_27
    7  A    between atoms: C_19  and  C_41
    8  A    between atoms: C_21  and  C_25
    9  A    between atoms: C_22  and  N_36
   10  A    between atoms: N_26  and  C_30
   11  A    between atoms: C_31  and  C_34
   12  A    between atoms: C_32  and  N_40
   13  A    between atoms: C_33  and  N_40
   14  A    between atoms: C_37  and  C_41
                            x       y       z     vdW  Elec       q    Type
                         _______ _______ _______ _____ _____    ______ ____

>  <TORSDO>
F 14

$$$$
=
 OpenBabel11052411413D

 42 48  0  0  1  0  0  0  0  0999 V2000
  162.1400  206.9510  151.1500 N   0  0  2  0  0  0  0  0  0  0  0  0
  160.9770  207.6650  153.0360 C   0  0  1  0  0  3  0  0  0  0  0  0
  161.7820  208.7840  152.3840 C   0  0  0  0  0  2  0  0  0  0  0  0
  161.6240  208.3380  150.9650 C   0  0  2  0  0  0  0  0  0  0  0  0
  162.2220  207.6170  149.8550 C   0  0  1  0  0  0  0  0  0  0  0  0
  162.4920  209.1160  150.0160 C   0  0  1  0  0  3  0  0  0  0  0  0
  160.9800  206.5930  151.9410 C   0  0  0  0  0  2  0  0  0  0  0  0
  161.6870  207.1770  154.2150 N   0  0  0  0  0  2  0  0  0  0  0  0
  161.4850  209.4870  155.0940 C   0  0  0  0  0  2  0  0  0  0  0  0
  159.2920  209.3900  156.1520 C   0  0  0  0  0  2  0  0  0  0  0  0
  159.7210  207.6240  156.0720 S   0  0  0  0  0  0  0  0  0  0  0  0
  161.3720  208.0000  155.3870 C   0  0  1  0  0  3  0  0  0  0  0  0
  160.5770  210.1930  156.0750 C   0  0  2  0  0  3  0  0  0  0  0  0
  160.8130  211.8510  154.3830 F   0  0  0  0  0  0  0  0  0  0  0  0
  158.9520  211.9020  155.6560 F   0  0  0  0  0  0  0  0  0  0  0  0
  160.3100  211.6370  155.6540 C   0  0  0  0  0  0  0  0  0  0  0  0
  160.9410  212.5020  156.5300 F   0  0  0  0  0  0  0  0  0  0  0  0
  161.1230  207.2540  148.9630 N   0  0  0  0  0  2  0  0  0  0  0  0
  161.2320  203.7240  147.7230 C   0  0  0  0  0  3  0  0  0  0  0  0
  161.2440  203.9310  146.3400 C   0  0  0  0  0  0  0  0  0  0  0  0
  161.1680  206.3270  146.7080 C   0  0  0  0  0  3  0  0  0  0  0  0
  161.2160  205.4670  144.4590 O   0  0  0  0  0  1  0  0  0  0  0  0
  161.1950  204.8150  148.5970 C   0  0  0  0  0  3  0  0  0  0  0  0
  161.1620  206.1220  148.0900 C   0  0  0  0  0  0  0  0  0  0  0  0
  161.2080  205.2390  145.8310 C   0  0  0  0  0  0  0  0  0  0  0  0
  161.2590  202.7520  145.4270 C   0  0  0  0  0  2  0  0  0  0  0  0
  160.4840  201.6690  146.0060 N   0  0  0  0  0  2  0  0  0  0  0  0
  159.9760  200.8820  144.8980 C   0  0  0  0  0  1  0  0  0  0  0  0
  161.6190  209.9900  149.1290 C   0  0  0  0  0  2  0  0  0  0  0  0
  162.0580  211.4350  149.2540 C   0  0  0  0  0  2  0  0  0  0  0  0
  161.9700  213.6150  148.1450 C   0  0  1  0  0  3  0  0  0  0  0  0
  160.5510  213.2660  148.3190 N   0  0  0  0  0  0  0  0  0  0  0  0
  161.5720  212.2190  148.0360 C   0  0  2  0  0  3  0  0  0  0  0  0
  158.8820  213.5720  149.9190 O   0  0  0  0  0  1  0  0  0  0  0  0
  160.2580  213.4450  149.7380 C   0  0  0  0  0  2  0  0  0  0  0  0
  162.1740  214.1940  146.7600 C   0  0  0  0  0  2  0  0  0  0  0  0
  162.0090  213.1020  145.7240 C   0  0  1  0  0  3  0  0  0  0  0  0
  162.0260  213.6960  144.3680 C   0  0  1  0  0  3  0  0  0  0  0  0
  163.1570  213.0610  144.9150 O   0  0  0  0  0  0  0  0  0  0  0  0
  161.3600  212.7830  143.3950 C   0  0  0  0  0  0  0  0  0  0  0  0
  162.1140  212.1910  142.3410 N   0  0  0  0  0  1  0  0  0  0  0  0
  160.1380  212.5040  143.5210 O   0  0  0  0  0  0  0  0  0  0  0  0
  1  7  1  6  0  0  0
  2  8  1  1  0  0  0
  3  2  1  0  0  0  0
  4  1  1  0  0  0  0
  4  3  1  1  0  0  0
  5 18  1  6  0  0  0
  5  6  1  0  0  0  0
  5  4  1  0  0  0  0
  5  1  1  0  0  0  0
  6 29  1  6  0  0  0
  6  4  1  0  0  0  0
  7  2  1  0  0  0  0
  9 12  1  0  0  0  0
  9 13  1  0  0  0  0
 11 10  1  0  0  0  0
 12  8  1  6  0  0  0
 12 11  1  0  0  0  0
 13 16  1  6  0  0  0
 13 10  1  0  0  0  0
 14 16  1  0  0  0  0
 16 15  1  0  0  0  0
 16 17  1  0  0  0  0
 19 23  1  0  0  0  0
 20 19  2  0  0  0  0
 21 24  1  0  0  0  0
 22 25  1  0  0  0  0
 24 23  2  0  0  0  0
 24 18  1  0  0  0  0
 25 20  1  0  0  0  0
 25 21  2  0  0  0  0
 26 27  1  0  0  0  0
 26 20  1  0  0  0  0
 28 27  1  0  0  0  0
 29 30  1  0  0  0  0
 31 36  1  6  0  0  0
 31 32  1  0  0  0  0
 32 35  1  0  0  0  0
 33 31  1  0  0  0  0
 33 32  1  0  0  0  0
 33 30  1  1  0  0  0
 35 34  1  0  0  0  0
 37 36  1  1  0  0  0
 38 40  1  6  0  0  0
 38 39  1  0  0  0  0
 38 37  1  0  0  0  0
 39 37  1  0  0  0  0
 40 42  2  0  0  0  0
 41 40  1  0  0  0  0
M  END
>  <MODEL>
4

>  <REMARK>
 VINA RESULT:      -6.8      4.285      7.645
  Name = 
  14 active torsions:
  status: ('A' for Active; 'I' for Inactive)
    1  A    between atoms: C_1  and  C_24
    2  A    between atoms: C_5  and  C_8
    3  A    between atoms: C_5  and  N_23
    4  A    between atoms: C_10  and  C_25
    5  A    between atoms: C_12  and  N_36
    6  A    between atoms: C_19  and  C_27
    7  A    between atoms: C_19  and  C_41
    8  A    between atoms: C_21  and  C_25
    9  A    between atoms: C_22  and  N_36
   10  A    between atoms: N_26  and  C_30
   11  A    between atoms: C_31  and  C_34
   12  A    between atoms: C_32  and  N_40
   13  A    between atoms: C_33  and  N_40
   14  A    between atoms: C_37  and  C_41
                            x       y       z     vdW  Elec       q    Type
                         _______ _______ _______ _____ _____    ______ ____

>  <TORSDO>
F 14

$$$$
=
 OpenBabel11052411413D

 42 48  0  0  1  0  0  0  0  0999 V2000
  162.1540  207.6990  151.3950 N   0  0  2  0  0  0  0  0  0  0  0  0
  160.8740  208.5130  153.1610 C   0  0  1  0  0  3  0  0  0  0  0  0
  161.6270  209.6160  152.4250 C   0  0  0  0  0  2  0  0  0  0  0  0
  161.5540  209.0210  151.0540 C   0  0  2  0  0  0  0  0  0  0  0  0
  162.2410  208.2380  150.0420 C   0  0  1  0  0  0  0  0  0  0  0  0
  162.4040  209.7610  150.0590 C   0  0  1  0  0  3  0  0  0  0  0  0
  160.9900  207.3410  152.1810 C   0  0  0  0  0  2  0  0  0  0  0  0
  161.5690  208.1960  154.4060 N   0  0  0  0  0  2  0  0  0  0  0  0
  160.3300  210.2690  154.9640 C   0  0  0  0  0  2  0  0  0  0  0  0
  159.6470  209.7970  157.2560 C   0  0  0  0  0  2  0  0  0  0  0  0
  161.0330  208.6370  157.0570 S   0  0  0  0  0  0  0  0  0  0  0  0
  161.3980  209.2730  155.3840 C   0  0  1  0  0  3  0  0  0  0  0  0
  159.8070  210.9060  156.2320 C   0  0  2  0  0  3  0  0  0  0  0  0
  158.7390  212.9780  155.7470 F   0  0  0  0  0  0  0  0  0  0  0  0
  157.8230  211.0980  154.9050 F   0  0  0  0  0  0  0  0  0  0  0  0
  158.4890  211.6390  155.9900 C   0  0  0  0  0  0  0  0  0  0  0  0
  157.6850  211.5360  157.1120 F   0  0  0  0  0  0  0  0  0  0  0  0
  161.2040  207.7120  149.1580 N   0  0  0  0  0  2  0  0  0  0  0  0
  161.2000  204.0430  148.4170 C   0  0  0  0  0  3  0  0  0  0  0  0
  161.5680  204.0470  147.0670 C   0  0  0  0  0  0  0  0  0  0  0  0
  161.6840  206.4690  147.1150 C   0  0  0  0  0  3  0  0  0  0  0  0
  162.1730  205.2920  145.0720 O   0  0  0  0  0  1  0  0  0  0  0  0
  161.0800  205.2480  149.1150 C   0  0  0  0  0  3  0  0  0  0  0  0
  161.3210  206.4660  148.4650 C   0  0  0  0  0  0  0  0  0  0  0  0
  161.8070  205.2660  146.4140 C   0  0  0  0  0  0  0  0  0  0  0  0
  161.6670  202.7520  146.3350 C   0  0  0  0  0  2  0  0  0  0  0  0
  160.6960  202.7210  145.2550 N   0  0  0  0  0  2  0  0  0  0  0  0
  160.1210  201.3880  145.2500 C   0  0  0  0  0  1  0  0  0  0  0  0
  161.5090  210.4790  149.0610 C   0  0  0  0  0  2  0  0  0  0  0  0
  162.3320  211.4730  148.2680 C   0  0  0  0  0  2  0  0  0  0  0  0
  160.4720  213.0060  147.8410 C   0  0  1  0  0  3  0  0  0  0  0  0
  161.6250  213.6990  147.2460 N   0  0  0  0  0  0  0  0  0  0  0  0
  161.7740  212.8790  148.4810 C   0  0  2  0  0  3  0  0  0  0  0  0
  162.9180  213.6800  145.3050 O   0  0  0  0  0  1  0  0  0  0  0  0
  161.9400  212.9830  146.0140 C   0  0  0  0  0  2  0  0  0  0  0  0
  159.6280  214.0070  148.6040 C   0  0  0  0  0  2  0  0  0  0  0  0
  158.9170  213.3080  149.7430 C   0  0  1  0  0  3  0  0  0  0  0  0
  158.6890  214.2660  150.8490 C   0  0  1  0  0  3  0  0  0  0  0  0
  157.6670  213.9180  149.9450 O   0  0  0  0  0  0  0  0  0  0  0  0
  158.4920  213.5350  152.1340 C   0  0  0  0  0  0  0  0  0  0  0  0
  159.6040  212.9340  152.7910 N   0  0  0  0  0  1  0  0  0  0  0  0
  157.3490  213.4760  152.6610 O   0  0  0  0  0  0  0  0  0  0  0  0
  1  7  1  6  0  0  0
  2  8  1  1  0  0  0
  3  2  1  0  0  0  0
  4  1  1  0  0  0  0
  4  3  1  6  0  0  0
  5 18  1  6  0  0  0
  5  6  1  0  0  0  0
  5  4  1  0  0  0  0
  5  1  1  0  0  0  0
  6 29  1  6  0  0  0
  6  4  1  0  0  0  0
  7  2  1  0  0  0  0
  9 12  1  0  0  0  0
  9 13  1  0  0  0  0
 11 10  1  0  0  0  0
 12  8  1  6  0  0  0
 12 11  1  0  0  0  0
 13 16  1  6  0  0  0
 13 10  1  0  0  0  0
 14 16  1  0  0  0  0
 15 16  1  0  0  0  0
 16 17  1  0  0  0  0
 19 23  1  0  0  0  0
 20 19  2  0  0  0  0
 21 24  1  0  0  0  0
 22 25  1  0  0  0  0
 24 23  2  0  0  0  0
 24 18  1  0  0  0  0
 25 20  1  0  0  0  0
 25 21  2  0  0  0  0
 26 20  1  0  0  0  0
 27 26  1  0  0  0  0
 28 27  1  0  0  0  0
 30 29  1  0  0  0  0
 31 33  1  0  0  0  0
 31 36  1  1  0  0  0
 32 31  1  0  0  0  0
 32 33  1  0  0  0  0
 33 30  1  6  0  0  0
 34 35  1  0  0  0  0
 35 32  1  0  0  0  0
 37 36  1  6  0  0  0
 37 39  1  0  0  0  0
 37 38  1  0  0  0  0
 38 40  1  1  0  0  0
 39 38  1  0  0  0  0
 40 42  2  0  0  0  0
 40 41  1  0  0  0  0
M  END
>  <MODEL>
5

>  <REMARK>
 VINA RESULT:      -6.4      4.034      6.854
  Name = 
  14 active torsions:
  status: ('A' for Active; 'I' for Inactive)
    1  A    between atoms: C_1  and  C_24
    2  A    between atoms: C_5  and  C_8
    3  A    between atoms: C_5  and  N_23
    4  A    between atoms: C_10  and  C_25
    5  A    between atoms: C_12  and  N_36
    6  A    between atoms: C_19  and  C_27
    7  A    between atoms: C_19  and  C_41
    8  A    between atoms: C_21  and  C_25
    9  A    between atoms: C_22  and  N_36
   10  A    between atoms: N_26  and  C_30
   11  A    between atoms: C_31  and  C_34
   12  A    between atoms: C_32  and  N_40
   13  A    between atoms: C_33  and  N_40
   14  A    between atoms: C_37  and  C_41
                            x       y       z     vdW  Elec       q    Type
                         _______ _______ _______ _____ _____    ______ ____

>  <TORSDO>
F 14

$$$$
=
 OpenBabel11052411413D

 42 48  0  0  1  0  0  0  0  0999 V2000
  162.1450  210.6160  151.2410 N   0  0  2  0  0  0  0  0  0  0  0  0
  161.6520  210.5780  148.9660 C   0  0  1  0  0  3  0  0  0  0  0  0
  162.2990  209.2830  149.4480 C   0  0  0  0  0  2  0  0  0  0  0  0
  161.6930  209.2600  150.8150 C   0  0  2  0  0  0  0  0  0  0  0  0
  161.8800  209.5690  152.2220 C   0  0  1  0  0  0  0  0  0  0  0  0
  162.2870  208.1920  151.6910 C   0  0  1  0  0  3  0  0  0  0  0  0
  161.2540  211.2450  150.2870 C   0  0  0  0  0  2  0  0  0  0  0  0
  162.6480  211.3920  148.2750 N   0  0  0  0  0  2  0  0  0  0  0  0
  160.7650  211.9850  146.7760 C   0  0  0  0  0  2  0  0  0  0  0  0
  159.8980  213.9750  147.8850 C   0  0  0  0  0  2  0  0  0  0  0  0
  161.5850  213.9020  148.5620 S   0  0  0  0  0  0  0  0  0  0  0  0
  162.0030  212.4660  147.5140 C   0  0  1  0  0  3  0  0  0  0  0  0
  159.8760  213.1940  146.5850 C   0  0  2  0  0  3  0  0  0  0  0  0
  158.4950  211.9030  145.1370 F   0  0  0  0  0  0  0  0  0  0  0  0
  157.8110  212.1900  147.2660 F   0  0  0  0  0  0  0  0  0  0  0  0
  158.4540  212.7900  146.1980 C   0  0  0  0  0  0  0  0  0  0  0  0
  157.7410  213.9100  145.8110 F   0  0  0  0  0  0  0  0  0  0  0  0
  160.5420  209.6650  152.8010 N   0  0  0  0  0  2  0  0  0  0  0  0
  158.8030  212.7660  153.9720 C   0  0  0  0  0  3  0  0  0  0  0  0
  159.3210  212.8870  155.2650 C   0  0  0  0  0  0  0  0  0  0  0  0
  160.6330  210.8770  154.9160 C   0  0  0  0  0  3  0  0  0  0  0  0
  160.7650  212.0360  157.0230 O   0  0  0  0  0  1  0  0  0  0  0  0
  159.2020  211.7080  153.1510 C   0  0  0  0  0  3  0  0  0  0  0  0
  160.1190  210.7580  153.6220 C   0  0  0  0  0  0  0  0  0  0  0  0
  160.2380  211.9360  155.7400 C   0  0  0  0  0  0  0  0  0  0  0  0
  158.8640  214.0110  156.1320 C   0  0  0  0  0  2  0  0  0  0  0  0
  157.8630  213.5330  157.0710 N   0  0  0  0  0  2  0  0  0  0  0  0
  156.5730  213.7230  156.4360 C   0  0  0  0  0  1  0  0  0  0  0  0
  161.2490  207.1100  151.9480 C   0  0  0  0  0  2  0  0  0  0  0  0
  161.7830  205.7750  151.4710 C   0  0  0  0  0  2  0  0  0  0  0  0
  160.4440  205.5930  149.4290 C   0  0  1  0  0  3  0  0  0  0  0  0
  161.3790  204.4620  149.3230 N   0  0  0  0  0  0  0  0  0  0  0  0
  161.7970  205.7510  149.9430 C   0  0  2  0  0  3  0  0  0  0  0  0
  160.2330  202.4520  149.6080 O   0  0  0  0  0  1  0  0  0  0  0  0
  160.9190  203.4610  150.2810 C   0  0  0  0  0  2  0  0  0  0  0  0
  160.3310  206.2760  148.0810 C   0  0  0  0  0  2  0  0  0  0  0  0
  161.1150  205.4930  147.0490 C   0  0  1  0  0  3  0  0  0  0  0  0
  160.8280  206.0270  145.6980 C   0  0  1  0  0  3  0  0  0  0  0  0
  162.0050  206.3610  146.3950 O   0  0  0  0  0  0  0  0  0  0  0  0
  161.1350  205.0000  144.6600 C   0  0  0  0  0  0  0  0  0  0  0  0
  160.8350  203.6290  144.9030 N   0  0  0  0  0  1  0  0  0  0  0  0
  161.6260  205.3450  143.5530 O   0  0  0  0  0  0  0  0  0  0  0  0
  1  7  1  1  0  0  0
  1  5  1  0  0  0  0
  2  8  1  1  0  0  0
  2  3  1  0  0  0  0
  2  7  1  0  0  0  0
  4  3  1  6  0  0  0
  4  1  1  0  0  0  0
  4  6  1  0  0  0  0
  4  5  1  0  0  0  0
  5 18  1  1  0  0  0
  6 29  1  1  0  0  0
  6  5  1  0  0  0  0
  9 12  1  0  0  0  0
 10 11  1  0  0  0  0
 12  8  1  1  0  0  0
 12 11  1  0  0  0  0
 13 16  1  1  0  0  0
 13  9  1  0  0  0  0
 13 10  1  0  0  0  0
 14 16  1  0  0  0  0
 16 15  1  0  0  0  0
 17 16  1  0  0  0  0
 18 24  1  0  0  0  0
 19 20  1  0  0  0  0
 20 25  2  0  0  0  0
 20 26  1  0  0  0  0
 21 25  1  0  0  0  0
 23 24  1  0  0  0  0
 23 19  2  0  0  0  0
 24 21  2  0  0  0  0
 25 22  1  0  0  0  0
 26 27  1  0  0  0  0
 28 27  1  0  0  0  0
 30 29  1  0  0  0  0
 31 36  1  6  0  0  0
 31 33  1  0  0  0  0
 32 31  1  0  0  0  0
 32 33  1  0  0  0  0
 32 35  1  0  0  0  0
 33 30  1  1  0  0  0
 34 35  1  0  0  0  0
 37 36  1  1  0  0  0
 38 40  1  6  0  0  0
 38 39  1  0  0  0  0
 38 37  1  0  0  0  0
 39 37  1  0  0  0  0
 40 41  1  0  0  0  0
 42 40  2  0  0  0  0
M  END
>  <MODEL>
6

>  <REMARK>
 VINA RESULT:      -6.1      2.254      8.376
  Name = 
  14 active torsions:
  status: ('A' for Active; 'I' for Inactive)
    1  A    between atoms: C_1  and  C_24
    2  A    between atoms: C_5  and  C_8
    3  A    between atoms: C_5  and  N_23
    4  A    between atoms: C_10  and  C_25
    5  A    between atoms: C_12  and  N_36
    6  A    between atoms: C_19  and  C_27
    7  A    between atoms: C_19  and  C_41
    8  A    between atoms: C_21  and  C_25
    9  A    between atoms: C_22  and  N_36
   10  A    between atoms: N_26  and  C_30
   11  A    between atoms: C_31  and  C_34
   12  A    between atoms: C_32  and  N_40
   13  A    between atoms: C_33  and  N_40
   14  A    between atoms: C_37  and  C_41
                            x       y       z     vdW  Elec       q    Type
                         _______ _______ _______ _____ _____    ______ ____

>  <TORSDO>
F 14

$$$$
=
 OpenBabel11052411413D

 42 48  0  0  1  0  0  0  0  0999 V2000
  162.4760  210.1140  150.6980 N   0  0  2  0  0  0  0  0  0  0  0  0
  161.8660  211.3080  148.7950 C   0  0  1  0  0  3  0  0  0  0  0  0
  162.4570  209.9410  148.4650 C   0  0  0  0  0  2  0  0  0  0  0  0
  161.9210  209.2050  149.6530 C   0  0  2  0  0  0  0  0  0  0  0  0
  162.1990  208.7120  150.9910 C   0  0  1  0  0  0  0  0  0  0  0  0
  162.4940  207.8210  149.7810 C   0  0  1  0  0  3  0  0  0  0  0  0
  161.5770  211.1760  150.2940 C   0  0  0  0  0  2  0  0  0  0  0  0
  162.8730  212.3410  148.5680 N   0  0  0  0  0  2  0  0  0  0  0  0
  162.0540  212.7920  146.2720 C   0  0  0  0  0  2  0  0  0  0  0  0
  160.0030  214.0200  146.7440 C   0  0  0  0  0  2  0  0  0  0  0  0
  160.9060  214.2330  148.3080 S   0  0  0  0  0  0  0  0  0  0  0  0
  162.3690  213.3620  147.6450 C   0  0  1  0  0  3  0  0  0  0  0  0
  161.0090  213.6950  145.6560 C   0  0  2  0  0  3  0  0  0  0  0  0
  159.9670  211.7440  144.7740 F   0  0  0  0  0  0  0  0  0  0  0  0
  159.2160  213.7500  144.0700 F   0  0  0  0  0  0  0  0  0  0  0  0
  160.3390  213.0370  144.4510 C   0  0  0  0  0  0  0  0  0  0  0  0
  161.2270  212.9910  143.3920 F   0  0  0  0  0  0  0  0  0  0  0  0
  160.9010  208.5160  151.6320 N   0  0  0  0  0  2  0  0  0  0  0  0
  159.7660  210.6660  154.4780 C   0  0  0  0  0  3  0  0  0  0  0  0
  160.0360  209.8290  155.5650 C   0  0  0  0  0  0  0  0  0  0  0  0
  160.8670  208.1340  154.0410 C   0  0  0  0  0  3  0  0  0  0  0  0
  160.8610  207.7060  156.4100 O   0  0  0  0  0  1  0  0  0  0  0  0
  160.0500  210.2420  153.1760 C   0  0  0  0  0  3  0  0  0  0  0  0
  160.6020  208.9730  152.9540 C   0  0  0  0  0  0  0  0  0  0  0  0
  160.5860  208.5560  155.3440 C   0  0  0  0  0  0  0  0  0  0  0  0
  159.7020  210.2910  156.9420 C   0  0  0  0  0  2  0  0  0  0  0  0
  159.6500  211.7430  156.9760 N   0  0  0  0  0  2  0  0  0  0  0  0
  158.2730  212.1030  157.2590 C   0  0  0  0  0  1  0  0  0  0  0  0
  161.4080  206.7950  149.5020 C   0  0  0  0  0  2  0  0  0  0  0  0
  161.1460  206.7280  148.0110 C   0  0  0  0  0  2  0  0  0  0  0  0
  161.5310  204.3610  147.5210 C   0  0  1  0  0  3  0  0  0  0  0  0
  160.8370  204.8470  146.3180 N   0  0  0  0  0  0  0  0  0  0  0  0
  160.5060  205.3840  147.6680 C   0  0  2  0  0  3  0  0  0  0  0  0
  163.0770  205.0790  145.7130 O   0  0  0  0  0  1  0  0  0  0  0  0
  161.8110  205.6460  145.5810 C   0  0  0  0  0  2  0  0  0  0  0  0
  160.9620  203.0120  147.9150 C   0  0  0  0  0  2  0  0  0  0  0  0
  161.4260  202.6530  149.3100 C   0  0  1  0  0  3  0  0  0  0  0  0
  160.5190  203.2660  150.3080 C   0  0  1  0  0  3  0  0  0  0  0  0
  160.4210  201.9080  149.9490 O   0  0  0  0  0  0  0  0  0  0  0  0
  161.2070  203.3870  151.6260 C   0  0  0  0  0  0  0  0  0  0  0  0
  160.9770  204.5280  152.4480 N   0  0  0  0  0  1  0  0  0  0  0  0
  161.9650  202.4670  152.0330 O   0  0  0  0  0  0  0  0  0  0  0  0
  1  7  1  1  0  0  0
  1  5  1  0  0  0  0
  2  8  1  1  0  0  0
  2  7  1  0  0  0  0
  3  2  1  0  0  0  0
  4  3  1  6  0  0  0
  4  6  1  0  0  0  0
  4  1  1  0  0  0  0
  4  5  1  0  0  0  0
  5 18  1  1  0  0  0
  6 29  1  1  0  0  0
  6  5  1  0  0  0  0
  9 12  1  0  0  0  0
 10 11  1  0  0  0  0
 12 11  1  0  0  0  0
 12  8  1  1  0  0  0
 13 16  1  6  0  0  0
 13  9  1  0  0  0  0
 13 10  1  0  0  0  0
 15 16  1  0  0  0  0
 16 14  1  0  0  0  0
 17 16  1  0  0  0  0
 18 24  1  0  0  0  0
 19 20  1  0  0  0  0
 20 26  1  0  0  0  0
 21 25  1  0  0  0  0
 23 19  2  0  0  0  0
 24 23  1  0  0  0  0
 24 21  2  0  0  0  0
 25 20  2  0  0  0  0
 25 22  1  0  0  0  0
 26 27  1  0  0  0  0
 27 28  1  0  0  0  0
 30 29  1  0  0  0  0
 31 33  1  0  0  0  0
 31 36  1  1  0  0  0
 32 31  1  0  0  0  0
 32 33  1  0  0  0  0
 33 30  1  6  0  0  0
 35 34  1  0  0  0  0
 35 32  1  0  0  0  0
 37 36  1  6  0  0  0
 37 39  1  0  0  0  0
 37 38  1  0  0  0  0
 38 40  1  1  0  0  0
 39 38  1  0  0  0  0
 40 42  2  0  0  0  0
 40 41  1  0  0  0  0
M  END
>  <MODEL>
7

>  <REMARK>
 VINA RESULT:      -5.9      2.108      7.837
  Name = 
  14 active torsions:
  status: ('A' for Active; 'I' for Inactive)
    1  A    between atoms: C_1  and  C_24
    2  A    between atoms: C_5  and  C_8
    3  A    between atoms: C_5  and  N_23
    4  A    between atoms: C_10  and  C_25
    5  A    between atoms: C_12  and  N_36
    6  A    between atoms: C_19  and  C_27
    7  A    between atoms: C_19  and  C_41
    8  A    between atoms: C_21  and  C_25
    9  A    between atoms: C_22  and  N_36
   10  A    between atoms: N_26  and  C_30
   11  A    between atoms: C_31  and  C_34
   12  A    between atoms: C_32  and  N_40
   13  A    between atoms: C_33  and  N_40
   14  A    between atoms: C_37  and  C_41
                            x       y       z     vdW  Elec       q    Type
                         _______ _______ _______ _____ _____    ______ ____

>  <TORSDO>
F 14

$$$$
=
 OpenBabel11052411413D

 42 48  0  0  1  0  0  0  0  0999 V2000
  161.0910  209.4750  148.5710 N   0  0  2  0  0  0  0  0  0  0  0  0
  162.2650  211.4400  148.9920 C   0  0  1  0  0  3  0  0  0  0  0  0
  162.0870  210.5830  150.2420 C   0  0  0  0  0  2  0  0  0  0  0  0
  162.1690  209.2460  149.5750 C   0  0  2  0  0  0  0  0  0  0  0  0
  161.4260  208.1280  149.0210 C   0  0  1  0  0  0  0  0  0  0  0  0
  161.8150  208.1170  150.5020 C   0  0  1  0  0  3  0  0  0  0  0  0
  161.9030  210.4540  147.8770 C   0  0  0  0  0  2  0  0  0  0  0  0
  161.3070  212.5420  149.0170 N   0  0  0  0  0  2  0  0  0  0  0  0
  162.6360  213.0880  146.9960 C   0  0  0  0  0  2  0  0  0  0  0  0
  160.9890  214.3010  145.6720 C   0  0  0  0  0  2  0  0  0  0  0  0
  160.2760  214.4480  147.3390 S   0  0  0  0  0  0  0  0  0  0  0  0
  161.7110  213.6000  148.0870 C   0  0  1  0  0  3  0  0  0  0  0  0
  162.4720  214.0180  145.8150 C   0  0  2  0  0  3  0  0  0  0  0  0
  164.1980  212.6970  144.8410 F   0  0  0  0  0  0  0  0  0  0  0  0
  162.1350  212.5650  143.9410 F   0  0  0  0  0  0  0  0  0  0  0  0
  163.0520  213.4110  144.5380 C   0  0  0  0  0  0  0  0  0  0  0  0
  163.3820  214.4200  143.6510 F   0  0  0  0  0  0  0  0  0  0  0  0
  162.3390  207.4410  148.1120 N   0  0  0  0  0  2  0  0  0  0  0  0
  161.6000  203.7990  147.6620 C   0  0  0  0  0  3  0  0  0  0  0  0
  161.4600  203.7280  146.2720 C   0  0  0  0  0  0  0  0  0  0  0  0
  161.8950  206.1090  146.1170 C   0  0  0  0  0  3  0  0  0  0  0  0
  161.4670  204.8420  144.1140 O   0  0  0  0  0  1  0  0  0  0  0  0
  161.8930  205.0190  148.2770 C   0  0  0  0  0  3  0  0  0  0  0  0
  162.0410  206.1800  147.5050 C   0  0  0  0  0  0  0  0  0  0  0  0
  161.6040  204.8900  145.4970 C   0  0  0  0  0  0  0  0  0  0  0  0
  161.1240  202.4210  145.6390 C   0  0  0  0  0  2  0  0  0  0  0  0
  160.4370  201.5710  146.5960 N   0  0  0  0  0  2  0  0  0  0  0  0
  161.3870  200.5530  147.0050 C   0  0  0  0  0  1  0  0  0  0  0  0
  163.0590  207.2940  150.7980 C   0  0  0  0  0  2  0  0  0  0  0  0
  162.6900  206.1200  151.6830 C   0  0  0  0  0  2  0  0  0  0  0  0
  161.3240  205.7780  153.6850 C   0  0  1  0  0  3  0  0  0  0  0  0
  160.4960  205.2110  152.6090 N   0  0  0  0  0  0  0  0  0  0  0  0
  161.3560  206.4050  152.3710 C   0  0  2  0  0  3  0  0  0  0  0  0
  160.4460  203.3930  151.1500 O   0  0  0  0  0  1  0  0  0  0  0  0
  161.1190  203.9440  152.2390 C   0  0  0  0  0  2  0  0  0  0  0  0
  160.4460  206.5920  154.6140 C   0  0  0  0  0  2  0  0  0  0  0  0
  160.9130  208.0320  154.6210 C   0  0  1  0  0  3  0  0  0  0  0  0
  160.3660  208.7270  155.8090 C   0  0  1  0  0  3  0  0  0  0  0  0
  161.6910  208.2550  155.7690 O   0  0  0  0  0  0  0  0  0  0  0  0
  160.3500  210.2010  155.5850 C   0  0  0  0  0  0  0  0  0  0  0  0
  159.7200  210.7400  154.4270 N   0  0  0  0  0  1  0  0  0  0  0  0
  160.8630  210.9770  156.4350 O   0  0  0  0  0  0  0  0  0  0  0  0
  1  7  1  6  0  0  0
  1  5  1  0  0  0  0
  1  4  1  0  0  0  0
  2  8  1  1  0  0  0
  2  3  1  0  0  0  0
  4  3  1  6  0  0  0
  4  6  1  0  0  0  0
  5 18  1  6  0  0  0
  5  4  1  0  0  0  0
  5  6  1  0  0  0  0
  6 29  1  6  0  0  0
  7  2  1  0  0  0  0
  9 12  1  0  0  0  0
 10 13  1  0  0  0  0
 10 11  1  0  0  0  0
 11 12  1  0  0  0  0
 12  8  1  6  0  0  0
 13 16  1  6  0  0  0
 13  9  1  0  0  0  0
 15 16  1  0  0  0  0
 16 14  1  0  0  0  0
 17 16  1  0  0  0  0
 19 23  1  0  0  0  0
 20 19  2  0  0  0  0
 21 24  1  0  0  0  0
 22 25  1  0  0  0  0
 24 18  1  0  0  0  0
 24 23  2  0  0  0  0
 25 21  2  0  0  0  0
 25 20  1  0  0  0  0
 26 20  1  0  0  0  0
 26 27  1  0  0  0  0
 27 28  1  0  0  0  0
 29 30  1  0  0  0  0
 31 36  1  1  0  0  0
 32 31  1  0  0  0  0
 33 30  1  6  0  0  0
 33 32  1  0  0  0  0
 33 31  1  0  0  0  0
 34 35  1  0  0  0  0
 35 32  1  0  0  0  0
 37 36  1  1  0  0  0
 37 39  1  0  0  0  0
 37 38  1  0  0  0  0
 38 40  1  6  0  0  0
 39 38  1  0  0  0  0
 40 42  2  0  0  0  0
 41 40  1  0  0  0  0
M  END
>  <MODEL>
8

>  <REMARK>
 VINA RESULT:      -5.8      2.106      3.406
  Name = 
  14 active torsions:
  status: ('A' for Active; 'I' for Inactive)
    1  A    between atoms: C_1  and  C_24
    2  A    between atoms: C_5  and  C_8
    3  A    between atoms: C_5  and  N_23
    4  A    between atoms: C_10  and  C_25
    5  A    between atoms: C_12  and  N_36
    6  A    between atoms: C_19  and  C_27
    7  A    between atoms: C_19  and  C_41
    8  A    between atoms: C_21  and  C_25
    9  A    between atoms: C_22  and  N_36
   10  A    between atoms: N_26  and  C_30
   11  A    between atoms: C_31  and  C_34
   12  A    between atoms: C_32  and  N_40
   13  A    between atoms: C_33  and  N_40
   14  A    between atoms: C_37  and  C_41
                            x       y       z     vdW  Elec       q    Type
                         _______ _______ _______ _____ _____    ______ ____

>  <TORSDO>
F 14

$$$$
=
 OpenBabel11052411413D

 42 48  0  0  1  0  0  0  0  0999 V2000
  162.2420  207.8750  150.1160 N   0  0  2  0  0  0  0  0  0  0  0  0
  160.8290  206.2810  151.0530 C   0  0  1  0  0  3  0  0  0  0  0  0
  161.2300  207.3660  152.0470 C   0  0  0  0  0  2  0  0  0  0  0  0
  161.2920  208.5040  151.0790 C   0  0  2  0  0  0  0  0  0  0  0  0
  162.1450  209.3260  150.2380 C   0  0  1  0  0  0  0  0  0  0  0  0
  161.8820  209.7470  151.6870 C   0  0  1  0  0  3  0  0  0  0  0  0
  161.2410  206.9060  149.7170 C   0  0  0  0  0  2  0  0  0  0  0  0
  161.6130  205.0750  151.3050 N   0  0  0  0  0  2  0  0  0  0  0  0
  160.7820  203.5350  149.5490 C   0  0  0  0  0  2  0  0  0  0  0  0
  161.3900  201.3760  150.5010 C   0  0  0  0  0  2  0  0  0  0  0  0
  161.4010  202.4280  151.9830 S   0  0  0  0  0  0  0  0  0  0  0  0
  160.8200  203.8740  151.0300 C   0  0  1  0  0  3  0  0  0  0  0  0
  160.5270  202.0480  149.4490 C   0  0  2  0  0  3  0  0  0  0  0  0
  159.7260  201.6780  147.2380 F   0  0  0  0  0  0  0  0  0  0  0  0
  161.9040  202.1980  147.4950 F   0  0  0  0  0  0  0  0  0  0  0  0
  160.8340  201.5180  148.0490 C   0  0  0  0  0  0  0  0  0  0  0  0
  161.1410  200.1710  148.1180 F   0  0  0  0  0  0  0  0  0  0  0  0
  161.2730  209.9200  149.2280 N   0  0  0  0  0  2  0  0  0  0  0  0
  163.3330  212.5130  147.4830 C   0  0  0  0  0  3  0  0  0  0  0  0
  162.3330  213.2820  146.8790 C   0  0  0  0  0  0  0  0  0  0  0  0
  160.6480  211.8180  147.8280 C   0  0  0  0  0  3  0  0  0  0  0  0
  159.9740  213.6790  146.4580 O   0  0  0  0  0  1  0  0  0  0  0  0
  162.9930  211.4040  148.2620 C   0  0  0  0  0  3  0  0  0  0  0  0
  161.6470  211.0520  148.4360 C   0  0  0  0  0  0  0  0  0  0  0  0
  160.9850  212.9300  147.0500 C   0  0  0  0  0  0  0  0  0  0  0  0
  162.7190  214.4470  146.0330 C   0  0  0  0  0  2  0  0  0  0  0  0
  162.2760  214.2320  144.6660 N   0  0  0  0  0  2  0  0  0  0  0  0
  163.1630  213.2370  144.0930 C   0  0  0  0  0  1  0  0  0  0  0  0
  160.8000  210.8070  151.8250 C   0  0  0  0  0  2  0  0  0  0  0  0
  159.9640  210.5180  153.0560 C   0  0  0  0  0  2  0  0  0  0  0  0
  159.4890  212.9080  153.2900 C   0  0  1  0  0  3  0  0  0  0  0  0
  158.8760  212.3210  154.4920 N   0  0  0  0  0  0  0  0  0  0  0  0
  158.8820  211.5870  153.1950 C   0  0  2  0  0  3  0  0  0  0  0  0
  160.0280  212.8700  156.4440 O   0  0  0  0  0  1  0  0  0  0  0  0
  159.9790  211.9690  155.3810 C   0  0  0  0  0  2  0  0  0  0  0  0
  158.5470  213.9410  152.7040 C   0  0  0  0  0  2  0  0  0  0  0  0
  157.8660  213.3700  151.4790 C   0  0  1  0  0  3  0  0  0  0  0  0
  157.6190  214.4520  150.4990 C   0  0  1  0  0  3  0  0  0  0  0  0
  158.6980  213.5590  150.3630 O   0  0  0  0  0  0  0  0  0  0  0  0
  156.5250  214.0630  149.5630 C   0  0  0  0  0  0  0  0  0  0  0  0
  155.1710  214.0740  150.0050 N   0  0  0  0  0  1  0  0  0  0  0  0
  156.7890  213.7570  148.3700 O   0  0  0  0  0  0  0  0  0  0  0  0
  1  7  1  6  0  0  0
  1  5  1  0  0  0  0
  1  4  1  0  0  0  0
  2  8  1  1  0  0  0
  2  3  1  0  0  0  0
  4  6  1  0  0  0  0
  4  3  1  6  0  0  0
  5 18  1  6  0  0  0
  5  4  1  0  0  0  0
  5  6  1  0  0  0  0
  6 29  1  6  0  0  0
  7  2  1  0  0  0  0
  9 12  1  0  0  0  0
 10 11  1  0  0  0  0
 12  8  1  6  0  0  0
 12 11  1  0  0  0  0
 13 16  1  6  0  0  0
 13  9  1  0  0  0  0
 13 10  1  0  0  0  0
 14 16  1  0  0  0  0
 15 16  1  0  0  0  0
 16 17  1  0  0  0  0
 19 23  1  0  0  0  0
 20 25  1  0  0  0  0
 20 19  2  0  0  0  0
 21 24  1  0  0  0  0
 22 25  1  0  0  0  0
 23 24  2  0  0  0  0
 24 18  1  0  0  0  0
 25 21  2  0  0  0  0
 26 20  1  0  0  0  0
 27 26  1  0  0  0  0
 28 27  1  0  0  0  0
 29 30  1  0  0  0  0
 31 36  1  6  0  0  0
 31 32  1  0  0  0  0
 32 35  1  0  0  0  0
 33 30  1  1  0  0  0
 33 31  1  0  0  0  0
 33 32  1  0  0  0  0
 35 34  1  0  0  0  0
 37 36  1  1  0  0  0
 38 40  1  6  0  0  0
 38 37  1  0  0  0  0
 39 38  1  0  0  0  0
 39 37  1  0  0  0  0
 40 41  1  0  0  0  0
 42 40  2  0  0  0  0
M  END
>  <MODEL>
9

>  <REMARK>
 VINA RESULT:      -5.8      4.719      8.041
  Name = 
  14 active torsions:
  status: ('A' for Active; 'I' for Inactive)
    1  A    between atoms: C_1  and  C_24
    2  A    between atoms: C_5  and  C_8
    3  A    between atoms: C_5  and  N_23
    4  A    between atoms: C_10  and  C_25
    5  A    between atoms: C_12  and  N_36
    6  A    between atoms: C_19  and  C_27
    7  A    between atoms: C_19  and  C_41
    8  A    between atoms: C_21  and  C_25
    9  A    between atoms: C_22  and  N_36
   10  A    between atoms: N_26  and  C_30
   11  A    between atoms: C_31  and  C_34
   12  A    between atoms: C_32  and  N_40
   13  A    between atoms: C_33  and  N_40
   14  A    between atoms: C_37  and  C_41
                            x       y       z     vdW  Elec       q    Type
                         _______ _______ _______ _____ _____    ______ ____

>  <TORSDO>
F 14

$$$$
