=
 OpenBabel11052411543D

 32 38  0  0  1  0  0  0  0  0999 V2000
  161.3530  208.1000  151.6310 C   0  0  0  0  0  0  0  0  0  0  0  0
  161.9560  209.8720  149.4780 C   0  0  0  0  0  0  0  0  0  0  0  0
  161.9120  205.8260  146.5030 C   0  0  0  0  0  2  0  0  0  0  0  0
  161.2010  203.1920  148.9260 N   0  0  0  0  0  2  0  0  0  0  0  0
  161.2070  201.1390  147.1070 N   0  0  0  0  0  0  0  0  0  0  0  0
  161.8150  206.5750  147.7850 C   0  0  0  0  0  0  0  0  0  0  0  0
  161.4480  209.4870  151.8200 O   0  0  0  0  0  0  0  0  0  0  0  0
  162.0600  210.6890  148.4770 N   0  0  0  0  0  0  0  0  0  0  0  0
  161.6670  204.4430  146.9290 N   0  0  0  0  0  0  0  0  0  0  0  0
  161.5330  207.5700  150.3390 C   0  0  0  0  0  0  0  0  0  0  0  0
  160.9490  200.5790  148.3220 C   0  0  0  0  0  2  0  0  0  0  0  0
  161.1330  201.9250  148.2760 C   0  0  0  0  0  0  0  0  0  0  0  0
  160.9070  205.8580  152.4560 C   0  0  0  0  0  3  0  0  0  0  0  0
  162.0960  210.3610  150.8920 C   0  0  0  0  0  2  0  0  0  0  0  0
  161.3910  206.1800  150.1160 C   0  0  0  0  0  0  0  0  0  0  0  0
  161.0360  207.2360  152.7090 C   0  0  0  0  0  0  0  0  0  0  0  0
  161.9410  207.9120  147.9830 N   0  0  0  0  0  0  0  0  0  0  0  0
  161.0820  205.3320  151.1770 C   0  0  0  0  0  3  0  0  0  0  0  0
  161.8100  208.4270  149.2430 C   0  0  0  0  0  0  0  0  0  0  0  0
  161.5500  205.7140  148.8100 C   0  0  0  0  0  0  0  0  0  0  0  0
  161.4670  204.3990  148.2110 C   0  0  0  0  0  0  0  0  0  0  0  0
  160.8380  207.7250  154.1030 C   0  0  0  0  0  0  0  0  0  0  0  0
  161.2050  209.0270  154.4850 C   0  0  0  0  0  3  0  0  0  0  0  0
  160.4870  208.6030  156.7570 C   0  0  0  0  0  3  0  0  0  0  0  0
  160.3010  206.8670  155.0800 C   0  0  0  0  0  3  0  0  0  0  0  0
  161.0280  209.4650  155.8000 C   0  0  0  0  0  3  0  0  0  0  0  0
  160.1230  207.3040  156.3970 C   0  0  0  0  0  3  0  0  0  0  0  0
  162.2460  212.0400  148.6640 O   0  0  0  0  0  0  0  0  0  0  0  0
  162.2360  214.4510  146.0450 C   0  0  0  0  0  1  0  0  0  0  0  0
  162.7060  213.9010  147.3020 N   0  0  0  0  0  0  0  0  0  0  0  0
  161.6690  212.9670  147.7630 C   0  0  2  0  0  3  0  0  0  0  0  0
  161.7370  214.3080  148.3280 C   0  0  0  0  0  2  0  0  0  0  0  0
  1  7  1  0  0  0  0
  1 16  1  0  0  0  0
  2 14  1  0  0  0  0
  3  9  1  0  0  0  0
  3  6  1  0  0  0  0
  5 12  2  0  0  0  0
  5 11  1  0  0  0  0
  6 17  1  0  0  0  0
  6 20  2  0  0  0  0
  8 28  1  0  0  0  0
  8  2  2  0  0  0  0
  9 21  2  0  0  0  0
 10  1  2  0  0  0  0
 12 11  1  0  0  0  0
 12  4  1  0  0  0  0
 13 16  2  0  0  0  0
 14  7  1  0  0  0  0
 15 10  1  0  0  0  0
 15 18  2  0  0  0  0
 16 22  1  0  0  0  0
 17 19  2  0  0  0  0
 18 13  1  0  0  0  0
 19  2  1  0  0  0  0
 19 10  1  0  0  0  0
 20 15  1  0  0  0  0
 21 20  1  0  0  0  0
 21  4  1  0  0  0  0
 22 23  2  0  0  0  0
 22 25  1  0  0  0  0
 23 26  1  0  0  0  0
 25 27  2  0  0  0  0
 26 24  2  0  0  0  0
 27 24  1  0  0  0  0
 29 30  1  0  0  0  0
 30 31  1  0  0  0  0
 30 32  1  0  0  0  0
 31 32  1  0  0  0  0
 31 28  1  1  0  0  0
M  END
>  <MODEL>
1

>  <REMARK>
 VINA RESULT:     -10.9      0.000      0.000
  Name = 
  3 active torsions:
  status: ('A' for Active; 'I' for Inactive)
    1  A    between atoms: C_3  and  C_21
    2  A    between atoms: O_8  and  N_11
    3  A    between atoms: O_8  and  C_28
                            x       y       z     vdW  Elec       q    Type
                         _______ _______ _______ _____ _____    ______ ____

>  <TORSDO>
F 3

$$$$
=
 OpenBabel11052411543D

 32 38  0  0  1  0  0  0  0  0999 V2000
  161.6420  209.3550  150.6740 C   0  0  0  0  0  0  0  0  0  0  0  0
  161.2300  208.7240  153.4250 C   0  0  0  0  0  0  0  0  0  0  0  0
  160.8510  203.9290  151.9830 C   0  0  0  0  0  2  0  0  0  0  0  0
  161.2800  204.2550  148.3740 N   0  0  0  0  0  2  0  0  0  0  0  0
  161.0600  201.5760  147.8300 N   0  0  0  0  0  0  0  0  0  0  0  0
  161.0260  205.3960  151.8030 C   0  0  0  0  0  0  0  0  0  0  0  0
  161.6930  210.3390  151.6720 O   0  0  0  0  0  0  0  0  0  0  0  0
  161.2130  208.4170  154.6840 N   0  0  0  0  0  0  0  0  0  0  0  0
  160.9490  203.4300  150.6060 N   0  0  0  0  0  0  0  0  0  0  0  0
  161.4080  208.0160  151.0410 C   0  0  0  0  0  0  0  0  0  0  0  0
  161.2560  202.1980  146.6350 C   0  0  0  0  0  2  0  0  0  0  0  0
  161.2150  202.9750  147.7490 C   0  0  0  0  0  0  0  0  0  0  0  0
  161.8490  208.6510  148.3560 C   0  0  0  0  0  3  0  0  0  0  0  0
  161.1410  210.1570  152.9790 C   0  0  0  0  0  2  0  0  0  0  0  0
  161.4030  207.0000  150.0560 C   0  0  0  0  0  0  0  0  0  0  0  0
  161.8660  209.6830  149.3130 C   0  0  0  0  0  0  0  0  0  0  0  0
  161.0400  206.3590  152.7600 N   0  0  0  0  0  0  0  0  0  0  0  0
  161.6210  207.3240  148.7190 C   0  0  0  0  0  3  0  0  0  0  0  0
  161.2240  207.6660  152.4030 C   0  0  0  0  0  0  0  0  0  0  0  0
  161.1980  205.6870  150.4810 C   0  0  0  0  0  0  0  0  0  0  0  0
  161.1420  204.4190  149.7860 C   0  0  0  0  0  0  0  0  0  0  0  0
  162.1120  211.0790  148.8500 C   0  0  0  0  0  0  0  0  0  0  0  0
  161.1970  212.1120  149.1120 C   0  0  0  0  0  3  0  0  0  0  0  0
  162.5910  213.6960  147.9270 C   0  0  0  0  0  3  0  0  0  0  0  0
  163.2680  211.3800  148.1070 C   0  0  0  0  0  3  0  0  0  0  0  0
  161.4360  213.4130  148.6580 C   0  0  0  0  0  3  0  0  0  0  0  0
  163.5080  212.6800  147.6510 C   0  0  0  0  0  3  0  0  0  0  0  0
  161.1700  209.3830  155.6630 O   0  0  0  0  0  0  0  0  0  0  0  0
  158.1530  211.2150  156.1220 C   0  0  0  0  0  1  0  0  0  0  0  0
  159.5880  211.0990  155.9440 N   0  0  0  0  0  0  0  0  0  0  0  0
  159.9400  209.7130  156.2810 C   0  0  2  0  0  3  0  0  0  0  0  0
  160.1510  210.7700  157.2610 C   0  0  0  0  0  2  0  0  0  0  0  0
  1 10  1  0  0  0  0
  1  7  1  0  0  0  0
  2  8  2  0  0  0  0
  4 21  1  0  0  0  0
  6  3  1  0  0  0  0
  6 17  1  0  0  0  0
  7 14  1  0  0  0  0
  8 28  1  0  0  0  0
  9  3  1  0  0  0  0
 10 19  1  0  0  0  0
 11 12  1  0  0  0  0
 11  5  1  0  0  0  0
 12  5  2  0  0  0  0
 12  4  1  0  0  0  0
 13 18  2  0  0  0  0
 13 16  1  0  0  0  0
 14  2  1  0  0  0  0
 15 20  1  0  0  0  0
 15 10  2  0  0  0  0
 16  1  2  0  0  0  0
 18 15  1  0  0  0  0
 19 17  2  0  0  0  0
 19  2  1  0  0  0  0
 20  6  2  0  0  0  0
 21 20  1  0  0  0  0
 21  9  2  0  0  0  0
 22 23  1  0  0  0  0
 22 16  1  0  0  0  0
 24 26  1  0  0  0  0
 25 22  2  0  0  0  0
 26 23  2  0  0  0  0
 27 24  2  0  0  0  0
 27 25  1  0  0  0  0
 30 29  1  0  0  0  0
 30 31  1  0  0  0  0
 30 32  1  0  0  0  0
 31 28  1  6  0  0  0
 31 32  1  0  0  0  0
M  END
>  <MODEL>
2

>  <REMARK>
 VINA RESULT:      -9.3      2.543      6.003
  Name = 
  3 active torsions:
  status: ('A' for Active; 'I' for Inactive)
    1  A    between atoms: C_3  and  C_21
    2  A    between atoms: O_8  and  N_11
    3  A    between atoms: O_8  and  C_28
                            x       y       z     vdW  Elec       q    Type
                         _______ _______ _______ _____ _____    ______ ____

>  <TORSDO>
F 3

$$$$
=
 OpenBabel11052411543D

 32 38  0  0  1  0  0  0  0  0999 V2000
  161.8160  209.0100  149.0730 C   0  0  0  0  0  0  0  0  0  0  0  0
  161.7740  206.2150  148.5050 C   0  0  0  0  0  0  0  0  0  0  0  0
  161.0260  205.5100  153.4200 C   0  0  0  0  0  2  0  0  0  0  0  0
  161.0560  208.9530  154.6270 N   0  0  0  0  0  2  0  0  0  0  0  0
  160.6210  208.3230  157.2600 N   0  0  0  0  0  0  0  0  0  0  0  0
  161.2600  206.2930  152.1760 C   0  0  0  0  0  0  0  0  0  0  0  0
  161.9250  208.5210  147.7630 O   0  0  0  0  0  0  0  0  0  0  0  0
  161.5850  204.9630  148.2280 N   0  0  0  0  0  0  0  0  0  0  0  0
  160.9380  206.5610  154.4410 N   0  0  0  0  0  0  0  0  0  0  0  0
  161.6530  208.0990  150.1340 C   0  0  0  0  0  0  0  0  0  0  0  0
  160.7130  209.6810  157.1970 C   0  0  0  0  0  2  0  0  0  0  0  0
  160.8460  208.9870  156.0370 C   0  0  0  0  0  0  0  0  0  0  0  0
  161.6620  210.8430  150.6620 C   0  0  0  0  0  3  0  0  0  0  0  0
  162.2780  207.1690  147.4590 C   0  0  0  0  0  2  0  0  0  0  0  0
  161.4900  208.5720  151.4570 C   0  0  0  0  0  0  0  0  0  0  0  0
  161.8210  210.4040  149.3350 C   0  0  0  0  0  0  0  0  0  0  0  0
  161.4040  205.8250  150.9100 N   0  0  0  0  0  0  0  0  0  0  0  0
  161.4970  209.9420  151.7140 C   0  0  0  0  0  3  0  0  0  0  0  0
  161.6040  206.7040  149.8820 C   0  0  0  0  0  0  0  0  0  0  0  0
  161.3010  207.6260  152.4650 C   0  0  0  0  0  0  0  0  0  0  0  0
  161.0920  207.7280  153.8930 C   0  0  0  0  0  0  0  0  0  0  0  0
  161.9950  211.4250  148.2630 C   0  0  0  0  0  0  0  0  0  0  0  0
  163.2440  212.0140  148.0060 C   0  0  0  0  0  3  0  0  0  0  0  0
  162.2790  213.3810  146.2560 C   0  0  0  0  0  3  0  0  0  0  0  0
  160.8880  211.8420  147.5020 C   0  0  0  0  0  3  0  0  0  0  0  0
  163.3870  212.9830  147.0070 C   0  0  0  0  0  3  0  0  0  0  0  0
  161.0290  212.8100  146.5030 C   0  0  0  0  0  3  0  0  0  0  0  0
  161.7830  204.4650  146.9600 O   0  0  0  0  0  0  0  0  0  0  0  0
  160.2110  201.7860  145.2210 C   0  0  0  0  0  1  0  0  0  0  0  0
  161.2870  202.7320  145.4510 N   0  0  0  0  0  0  0  0  0  0  0  0
  160.7280  203.8050  146.2850 C   0  0  2  0  0  3  0  0  0  0  0  0
  160.8660  204.0040  144.8480 C   0  0  0  0  0  2  0  0  0  0  0  0
  1 16  2  0  0  0  0
  1 10  1  0  0  0  0
  2 19  1  0  0  0  0
  3  9  1  0  0  0  0
  4 12  1  0  0  0  0
  6 20  1  0  0  0  0
  6  3  1  0  0  0  0
  7  1  1  0  0  0  0
  8  2  2  0  0  0  0
 10 15  1  0  0  0  0
 11  5  1  0  0  0  0
 12 11  1  0  0  0  0
 12  5  2  0  0  0  0
 13 18  2  0  0  0  0
 14  7  1  0  0  0  0
 14  2  1  0  0  0  0
 15 18  1  0  0  0  0
 15 20  2  0  0  0  0
 16 13  1  0  0  0  0
 17  6  2  0  0  0  0
 19 10  2  0  0  0  0
 19 17  1  0  0  0  0
 20 21  1  0  0  0  0
 21  9  2  0  0  0  0
 21  4  1  0  0  0  0
 22 16  1  0  0  0  0
 23 22  1  0  0  0  0
 24 27  2  0  0  0  0
 24 26  1  0  0  0  0
 25 22  2  0  0  0  0
 26 23  2  0  0  0  0
 27 25  1  0  0  0  0
 28  8  1  0  0  0  0
 29 30  1  0  0  0  0
 30 31  1  0  0  0  0
 31 28  1  1  0  0  0
 32 30  1  0  0  0  0
 32 31  1  0  0  0  0
M  END
>  <MODEL>
3

>  <REMARK>
 VINA RESULT:      -8.6      3.030      7.874
  Name = 
  3 active torsions:
  status: ('A' for Active; 'I' for Inactive)
    1  A    between atoms: C_3  and  C_21
    2  A    between atoms: O_8  and  N_11
    3  A    between atoms: O_8  and  C_28
                            x       y       z     vdW  Elec       q    Type
                         _______ _______ _______ _____ _____    ______ ____

>  <TORSDO>
F 3

$$$$
=
 OpenBabel11052411543D

 32 38  0  0  1  0  0  0  0  0999 V2000
  161.7280  207.7540  149.1140 C   0  0  0  0  0  0  0  0  0  0  0  0
  162.1150  210.5600  148.7790 C   0  0  0  0  0  0  0  0  0  0  0  0
  161.2080  210.9900  153.7000 C   0  0  0  0  0  2  0  0  0  0  0  0
  160.5810  207.5090  154.5960 N   0  0  0  0  0  2  0  0  0  0  0  0
  160.1420  207.9880  157.2600 N   0  0  0  0  0  0  0  0  0  0  0  0
  161.3620  210.2820  152.3990 C   0  0  0  0  0  0  0  0  0  0  0  0
  162.0920  208.3060  147.8770 O   0  0  0  0  0  0  0  0  0  0  0  0
  162.4560  211.8050  148.6650 N   0  0  0  0  0  0  0  0  0  0  0  0
  160.8890  209.8910  154.6190 N   0  0  0  0  0  0  0  0  0  0  0  0
  161.5760  208.6020  150.2270 C   0  0  0  0  0  0  0  0  0  0  0  0
  159.9990  206.6450  157.0800 C   0  0  0  0  0  2  0  0  0  0  0  0
  160.3030  207.3970  155.9900 C   0  0  0  0  0  0  0  0  0  0  0  0
  161.2360  205.8460  150.5390 C   0  0  0  0  0  3  0  0  0  0  0  0
  161.9390  209.6930  147.5640 C   0  0  0  0  0  2  0  0  0  0  0  0
  161.2590  208.0600  151.4950 C   0  0  0  0  0  0  0  0  0  0  0  0
  161.5570  206.3540  149.2660 C   0  0  0  0  0  0  0  0  0  0  0  0
  161.6780  210.8140  151.1920 N   0  0  0  0  0  0  0  0  0  0  0  0
  161.0880  206.6850  151.6420 C   0  0  0  0  0  3  0  0  0  0  0  0
  161.7850  209.9990  150.0990 C   0  0  0  0  0  0  0  0  0  0  0  0
  161.1510  208.9450  152.5680 C   0  0  0  0  0  0  0  0  0  0  0  0
  160.8630  208.7640  153.9750 C   0  0  0  0  0  0  0  0  0  0  0  0
  161.6950  205.3960  148.1320 C   0  0  0  0  0  0  0  0  0  0  0  0
  162.3160  205.7680  146.9280 C   0  0  0  0  0  3  0  0  0  0  0  0
  161.9050  203.5730  145.9950 C   0  0  0  0  0  3  0  0  0  0  0  0
  161.1720  204.0950  148.2420 C   0  0  0  0  0  3  0  0  0  0  0  0
  162.4240  204.8630  145.8680 C   0  0  0  0  0  3  0  0  0  0  0  0
  161.2790  203.1880  147.1830 C   0  0  0  0  0  3  0  0  0  0  0  0
  162.7240  212.3710  147.4400 O   0  0  0  0  0  0  0  0  0  0  0  0
  160.0890  213.6630  145.4250 C   0  0  0  0  0  1  0  0  0  0  0  0
  161.3060  212.9040  145.6410 N   0  0  0  0  0  0  0  0  0  0  0  0
  161.8670  213.3700  146.9170 C   0  0  2  0  0  3  0  0  0  0  0  0
  162.4100  213.8730  145.6620 C   0  0  0  0  0  2  0  0  0  0  0  0
  1 16  2  0  0  0  0
  1 10  1  0  0  0  0
  2 19  1  0  0  0  0
  3  9  1  0  0  0  0
  4 12  1  0  0  0  0
  6 20  1  0  0  0  0
  6  3  1  0  0  0  0
  7  1  1  0  0  0  0
  8  2  2  0  0  0  0
 10 15  1  0  0  0  0
 11  5  1  0  0  0  0
 12 11  1  0  0  0  0
 12  5  2  0  0  0  0
 13 18  2  0  0  0  0
 14  7  1  0  0  0  0
 14  2  1  0  0  0  0
 15 18  1  0  0  0  0
 15 20  2  0  0  0  0
 16 13  1  0  0  0  0
 17  6  2  0  0  0  0
 19 10  2  0  0  0  0
 19 17  1  0  0  0  0
 20 21  1  0  0  0  0
 21  4  1  0  0  0  0
 21  9  2  0  0  0  0
 22 25  1  0  0  0  0
 22 16  1  0  0  0  0
 23 22  2  0  0  0  0
 24 27  1  0  0  0  0
 26 24  2  0  0  0  0
 26 23  1  0  0  0  0
 27 25  2  0  0  0  0
 28  8  1  0  0  0  0
 29 30  1  0  0  0  0
 30 32  1  0  0  0  0
 30 31  1  0  0  0  0
 31 28  1  6  0  0  0
 32 31  1  0  0  0  0
M  END
>  <MODEL>
4

>  <REMARK>
 VINA RESULT:      -8.1      2.967      6.444
  Name = 
  3 active torsions:
  status: ('A' for Active; 'I' for Inactive)
    1  A    between atoms: C_3  and  C_21
    2  A    between atoms: O_8  and  N_11
    3  A    between atoms: O_8  and  C_28
                            x       y       z     vdW  Elec       q    Type
                         _______ _______ _______ _____ _____    ______ ____

>  <TORSDO>
F 3

$$$$
