=
 OpenBabel11052410563D

 30 32  0  0  1  0  0  0  0  0999 V2000
  161.7700  207.4380  150.5110 C   0  0  1  0  0  3  0  0  0  0  0  0
  161.2870  212.2750  149.8950 N   0  0  0  0  0  0  0  0  0  0  0  0
  162.5650  208.5210  148.5320 O   0  0  0  0  0  0  0  0  0  0  0  0
  162.0010  208.6420  149.6530 C   0  0  0  0  0  0  0  0  0  0  0  0
  162.1960  212.8100  147.9730 C   0  0  0  0  0  0  0  0  0  0  0  0
  161.5580  209.9200  150.1190 N   0  0  0  0  0  2  0  0  0  0  0  0
  162.3760  211.3340  148.0900 C   0  0  0  0  0  2  0  0  0  0  0  0
  161.7160  211.1570  149.4170 C   0  0  0  0  0  0  0  0  0  0  0  0
  161.5850  213.3020  148.9970 N   0  0  0  0  0  0  0  0  0  0  0  0
  162.3150  213.3380  145.6390 N   0  0  0  0  0  2  0  0  0  0  0  0
  162.6430  213.6370  146.8510 C   0  0  0  0  0  3  0  0  0  0  0  0
  160.6590  208.9200  153.6450 C   0  0  0  0  0  0  0  0  0  0  0  0
  161.0370  207.7410  154.0810 O   0  0  0  0  0  0  0  0  0  0  0  0
  159.9870  210.1680  154.6730 Cl  0  0  0  0  0  0  0  0  0  0  0  0
  160.8580  209.0450  152.2780 C   0  0  0  0  0  3  0  0  0  0  0  0
  161.4040  207.8300  151.9090 C   0  0  0  0  0  0  0  0  0  0  0  0
  161.9780  205.7330  153.1370 N   0  0  0  0  0  1  0  0  0  0  0  0
  161.4840  207.0660  153.0550 C   0  0  0  0  0  0  0  0  0  0  0  0
  160.7500  206.5750  149.9320 N   0  0  0  0  0  2  0  0  0  0  0  0
  161.0840  202.7350  148.3090 C   0  0  0  0  0  0  0  0  0  0  0  0
  161.2000  205.1640  147.9870 C   0  0  1  0  0  3  0  0  0  0  0  0
  160.2820  203.0360  149.5480 C   0  0  0  0  0  2  0  0  0  0  0  0
  161.5180  203.7590  147.5740 C   0  0  0  0  0  3  0  0  0  0  0  0
  161.4100  205.3560  149.4960 C   0  0  2  0  0  3  0  0  0  0  0  0
  160.9300  204.1670  150.3550 C   0  0  0  0  0  2  0  0  0  0  0  0
  161.9910  206.0510  147.2800 F   0  0  0  0  0  0  0  0  0  0  0  0
  161.4700  199.5000  146.4910 N   0  0  0  0  0  1  0  0  0  0  0  0
  161.0820  200.8480  146.7290 C   0  0  0  0  0  0  0  0  0  0  0  0
  160.3750  201.5530  145.7110 N   0  0  0  0  0  1  0  0  0  0  0  0
  161.3770  201.3980  147.8700 N   0  0  0  0  0  0  0  0  0  0  0  0
  1  4  1  6  0  0  0
  1 16  1  0  0  0  0
  3  4  2  0  0  0  0
  4  6  1  0  0  0  0
  5  7  1  0  0  0  0
  5  9  2  0  0  0  0
  7  8  1  0  0  0  0
  8  2  2  0  0  0  0
  8  6  1  0  0  0  0
  9  2  1  0  0  0  0
 10 11  2  0  0  0  0
 11  5  1  0  0  0  0
 12 13  1  0  0  0  0
 12 14  1  0  0  0  0
 15 12  2  0  0  0  0
 16 15  1  0  0  0  0
 16 18  2  0  0  0  0
 18 17  1  0  0  0  0
 18 13  1  0  0  0  0
 19  1  1  0  0  0  0
 20 22  1  0  0  0  0
 21 26  1  6  0  0  0
 21 24  1  0  0  0  0
 22 25  1  0  0  0  0
 23 21  1  0  0  0  0
 23 20  2  0  0  0  0
 24 19  1  1  0  0  0
 24 25  1  0  0  0  0
 27 28  1  0  0  0  0
 28 30  2  0  0  0  0
 29 28  1  0  0  0  0
 30 20  1  0  0  0  0
M  END
>  <MODEL>
1

>  <REMARK>
 VINA RESULT:      -7.8      0.000      0.000
  Name = 
  6 active torsions:
  status: ('A' for Active; 'I' for Inactive)
    1  A    between atoms: C_3  and  N_24
    2  A    between atoms: C_8  and  C_25
    3  A    between atoms: C_12  and  C_25
    4  A    between atoms: C_13  and  C_21
    5  A    between atoms: C_25  and  N_27
    6  A    between atoms: C_26  and  N_27
                            x       y       z     vdW  Elec       q    Type
                         _______ _______ _______ _____ _____    ______ ____

>  <TORSDO>
F 6

$$$$
=
 OpenBabel11052410563D

 30 32  0  0  1  0  0  0  0  0999 V2000
  161.5760  208.7160  152.2530 C   0  0  1  0  0  3  0  0  0  0  0  0
  162.7190  211.3580  148.2880 N   0  0  0  0  0  0  0  0  0  0  0  0
  160.4850  210.7940  151.7920 O   0  0  0  0  0  0  0  0  0  0  0  0
  161.3400  209.9420  151.4280 C   0  0  0  0  0  0  0  0  0  0  0  0
  161.4390  213.1390  148.2650 C   0  0  0  0  0  0  0  0  0  0  0  0
  162.1090  210.1330  150.2360 N   0  0  0  0  0  2  0  0  0  0  0  0
  161.0400  212.3900  149.4920 C   0  0  0  0  0  2  0  0  0  0  0  0
  161.9890  211.2460  149.3450 C   0  0  0  0  0  0  0  0  0  0  0  0
  162.3780  212.5350  147.6180 N   0  0  0  0  0  0  0  0  0  0  0  0
  160.0370  214.4410  146.8230 N   0  0  0  0  0  2  0  0  0  0  0  0
  160.8620  214.4060  147.8150 C   0  0  0  0  0  3  0  0  0  0  0  0
  161.7020  210.0490  155.6390 C   0  0  0  0  0  0  0  0  0  0  0  0
  161.1410  208.8870  155.8810 O   0  0  0  0  0  0  0  0  0  0  0  0
  162.0490  211.2370  156.8760 Cl  0  0  0  0  0  0  0  0  0  0  0  0
  161.9760  210.2110  154.2880 C   0  0  0  0  0  3  0  0  0  0  0  0
  161.5390  209.0310  153.7170 C   0  0  0  0  0  0  0  0  0  0  0  0
  160.4570  206.9610  154.6020 N   0  0  0  0  0  1  0  0  0  0  0  0
  161.0290  208.2580  154.7400 C   0  0  0  0  0  0  0  0  0  0  0  0
  160.6140  207.6740  151.9240 N   0  0  0  0  0  2  0  0  0  0  0  0
  161.0920  204.2000  149.6440 C   0  0  0  0  0  0  0  0  0  0  0  0
  160.5600  206.5930  149.7310 C   0  0  1  0  0  3  0  0  0  0  0  0
  160.7900  204.1790  151.1190 C   0  0  0  0  0  2  0  0  0  0  0  0
  160.9820  205.3580  148.9930 C   0  0  0  0  0  3  0  0  0  0  0  0
  161.2940  206.7090  151.0750 C   0  0  2  0  0  3  0  0  0  0  0  0
  161.4470  205.3700  151.8270 C   0  0  0  0  0  2  0  0  0  0  0  0
  160.8090  207.7100  148.9550 F   0  0  0  0  0  0  0  0  0  0  0  0
  161.3510  200.8700  147.9810 N   0  0  0  0  0  1  0  0  0  0  0  0
  160.7990  201.9190  148.7680 C   0  0  0  0  0  0  0  0  0  0  0  0
  159.5310  201.7210  149.3900 N   0  0  0  0  0  1  0  0  0  0  0  0
  161.4660  203.0270  148.9030 N   0  0  0  0  0  0  0  0  0  0  0  0
  1  4  1  6  0  0  0
  1 16  1  0  0  0  0
  2  8  2  0  0  0  0
  4  3  2  0  0  0  0
  5  7  1  0  0  0  0
  6  4  1  0  0  0  0
  8  7  1  0  0  0  0
  8  6  1  0  0  0  0
  9  5  2  0  0  0  0
  9  2  1  0  0  0  0
 10 11  2  0  0  0  0
 11  5  1  0  0  0  0
 12 13  1  0  0  0  0
 12 14  1  0  0  0  0
 15 12  2  0  0  0  0
 16 15  1  0  0  0  0
 16 18  2  0  0  0  0
 17 18  1  0  0  0  0
 18 13  1  0  0  0  0
 19  1  1  0  0  0  0
 20 22  1  0  0  0  0
 21 26  1  6  0  0  0
 21 24  1  0  0  0  0
 22 25  1  0  0  0  0
 23 20  2  0  0  0  0
 23 21  1  0  0  0  0
 24 25  1  0  0  0  0
 24 19  1  1  0  0  0
 27 28  1  0  0  0  0
 28 30  2  0  0  0  0
 28 29  1  0  0  0  0
 30 20  1  0  0  0  0
M  END
>  <MODEL>
2

>  <REMARK>
 VINA RESULT:      -7.8      1.923      2.355
  Name = 
  6 active torsions:
  status: ('A' for Active; 'I' for Inactive)
    1  A    between atoms: C_3  and  N_24
    2  A    between atoms: C_8  and  C_25
    3  A    between atoms: C_12  and  C_25
    4  A    between atoms: C_13  and  C_21
    5  A    between atoms: C_25  and  N_27
    6  A    between atoms: C_26  and  N_27
                            x       y       z     vdW  Elec       q    Type
                         _______ _______ _______ _____ _____    ______ ____

>  <TORSDO>
F 6

$$$$
=
 OpenBabel11052410563D

 30 32  0  0  1  0  0  0  0  0999 V2000
  160.7120  205.9030  150.2570 C   0  0  1  0  0  3  0  0  0  0  0  0
  162.9150  204.7440  146.0370 N   0  0  0  0  0  0  0  0  0  0  0  0
  159.7550  206.5130  148.1520 O   0  0  0  0  0  0  0  0  0  0  0  0
  160.7010  205.9440  148.7620 C   0  0  0  0  0  0  0  0  0  0  0  0
  161.6550  205.4620  144.3920 C   0  0  0  0  0  0  0  0  0  0  0  0
  161.7840  205.3440  148.0440 N   0  0  0  0  0  2  0  0  0  0  0  0
  160.9280  205.8500  145.6360 C   0  0  0  0  0  2  0  0  0  0  0  0
  161.9060  205.2970  146.6190 C   0  0  0  0  0  0  0  0  0  0  0  0
  162.7590  204.8460  144.6530 N   0  0  0  0  0  0  0  0  0  0  0  0
  162.0380  206.1230  142.1210 N   0  0  0  0  0  2  0  0  0  0  0  0
  161.2060  205.7270  143.0250 C   0  0  0  0  0  3  0  0  0  0  0  0
  161.0020  202.3260  150.8720 C   0  0  0  0  0  0  0  0  0  0  0  0
  161.1900  202.7750  152.0920 O   0  0  0  0  0  0  0  0  0  0  0  0
  161.0300  200.6280  150.4460 Cl  0  0  0  0  0  0  0  0  0  0  0  0
  160.7840  203.3630  149.9760 C   0  0  0  0  0  3  0  0  0  0  0  0
  160.8470  204.4980  150.7610 C   0  0  0  0  0  0  0  0  0  0  0  0
  161.2640  204.9210  153.1870 N   0  0  0  0  0  1  0  0  0  0  0  0
  161.1060  204.0780  152.0500 C   0  0  0  0  0  0  0  0  0  0  0  0
  161.7700  206.7470  150.7930 N   0  0  0  0  0  2  0  0  0  0  0  0
  161.2810  210.2110  153.0860 C   0  0  0  0  0  0  0  0  0  0  0  0
  162.1320  209.1530  151.0440 C   0  0  1  0  0  3  0  0  0  0  0  0
  161.2530  208.8250  153.6750 C   0  0  0  0  0  2  0  0  0  0  0  0
  161.6990  210.3540  151.8290 C   0  0  0  0  0  3  0  0  0  0  0  0
  161.1530  207.9860  151.2380 C   0  0  2  0  0  3  0  0  0  0  0  0
  160.6440  207.8240  152.6860 C   0  0  0  0  0  2  0  0  0  0  0  0
  162.2240  209.4780  149.7030 F   0  0  0  0  0  0  0  0  0  0  0  0
  159.5590  213.0810  154.7350 N   0  0  0  0  0  1  0  0  0  0  0  0
  159.7190  211.9060  153.9490 C   0  0  0  0  0  0  0  0  0  0  0  0
  158.5750  211.3380  153.3160 N   0  0  0  0  0  1  0  0  0  0  0  0
  160.9040  211.3850  153.8250 N   0  0  0  0  0  0  0  0  0  0  0  0
  1  4  1  6  0  0  0
  1 16  1  0  0  0  0
  1 19  1  0  0  0  0
  2  8  2  0  0  0  0
  3  4  2  0  0  0  0
  5  9  2  0  0  0  0
  5  7  1  0  0  0  0
  6  4  1  0  0  0  0
  7  8  1  0  0  0  0
  8  6  1  0  0  0  0
  9  2  1  0  0  0  0
 10 11  2  0  0  0  0
 11  5  1  0  0  0  0
 12 13  1  0  0  0  0
 14 12  1  0  0  0  0
 15 16  1  0  0  0  0
 15 12  2  0  0  0  0
 16 18  2  0  0  0  0
 18 13  1  0  0  0  0
 18 17  1  0  0  0  0
 20 22  1  0  0  0  0
 20 30  1  0  0  0  0
 21 26  1  6  0  0  0
 21 24  1  0  0  0  0
 21 23  1  0  0  0  0
 23 20  2  0  0  0  0
 24 19  1  1  0  0  0
 24 25  1  0  0  0  0
 25 22  1  0  0  0  0
 28 27  1  0  0  0  0
 29 28  1  0  0  0  0
 30 28  2  0  0  0  0
M  END
>  <MODEL>
3

>  <REMARK>
 VINA RESULT:      -7.5      3.936      7.638
  Name = 
  6 active torsions:
  status: ('A' for Active; 'I' for Inactive)
    1  A    between atoms: C_3  and  N_24
    2  A    between atoms: C_8  and  C_25
    3  A    between atoms: C_12  and  C_25
    4  A    between atoms: C_13  and  C_21
    5  A    between atoms: C_25  and  N_27
    6  A    between atoms: C_26  and  N_27
                            x       y       z     vdW  Elec       q    Type
                         _______ _______ _______ _____ _____    ______ ____

>  <TORSDO>
F 6

$$$$
=
 OpenBabel11052410563D

 30 32  0  0  1  0  0  0  0  0999 V2000
  161.3860  209.9850  150.1720 C   0  0  1  0  0  3  0  0  0  0  0  0
  159.9420  210.5370  154.8210 N   0  0  0  0  0  0  0  0  0  0  0  0
  162.9710  210.3340  151.9290 O   0  0  0  0  0  0  0  0  0  0  0  0
  161.7600  210.2040  151.6040 C   0  0  0  0  0  0  0  0  0  0  0  0
  161.7300  210.7810  156.0650 C   0  0  0  0  0  0  0  0  0  0  0  0
  160.7220  210.2790  152.5870 N   0  0  0  0  0  2  0  0  0  0  0  0
  162.2440  210.6220  154.6730 C   0  0  0  0  0  2  0  0  0  0  0  0
  160.9250  210.4740  153.9900 C   0  0  0  0  0  0  0  0  0  0  0  0
  160.4420  210.7280  156.1110 N   0  0  0  0  0  0  0  0  0  0  0  0
  163.8330  211.1130  157.1650 N   0  0  0  0  0  2  0  0  0  0  0  0
  162.5530  210.9740  157.2600 C   0  0  0  0  0  3  0  0  0  0  0  0
  162.3760  212.5600  147.7970 C   0  0  0  0  0  0  0  0  0  0  0  0
  161.5700  213.2620  148.5590 O   0  0  0  0  0  0  0  0  0  0  0  0
  163.2110  213.2130  146.4040 Cl  0  0  0  0  0  0  0  0  0  0  0  0
  162.4740  211.2470  148.2330 C   0  0  0  0  0  3  0  0  0  0  0  0
  161.6570  211.2050  149.3470 C   0  0  0  0  0  0  0  0  0  0  0  0
  160.2120  212.8750  150.5130 N   0  0  0  0  0  1  0  0  0  0  0  0
  161.1220  212.4680  149.4960 C   0  0  0  0  0  0  0  0  0  0  0  0
  162.0800  208.8270  149.6250 N   0  0  0  0  0  2  0  0  0  0  0  0
  161.1340  204.7610  149.8790 C   0  0  0  0  0  0  0  0  0  0  0  0
  162.1760  206.7370  150.8910 C   0  0  1  0  0  3  0  0  0  0  0  0
  161.2280  205.5020  148.5710 C   0  0  0  0  0  2  0  0  0  0  0  0
  161.5870  205.3610  150.9790 C   0  0  0  0  0  3  0  0  0  0  0  0
  161.3170  207.6470  150.0010 C   0  0  2  0  0  3  0  0  0  0  0  0
  160.7690  206.9560  148.7350 C   0  0  0  0  0  2  0  0  0  0  0  0
  162.2890  207.2800  152.1580 F   0  0  0  0  0  0  0  0  0  0  0  0
  160.0560  201.2190  149.4150 N   0  0  0  0  0  1  0  0  0  0  0  0
  160.6410  202.4780  149.1030 C   0  0  0  0  0  0  0  0  0  0  0  0
  161.2440  202.6600  147.8240 N   0  0  0  0  0  1  0  0  0  0  0  0
  160.6060  203.4290  149.9890 N   0  0  0  0  0  0  0  0  0  0  0  0
  1 19  1  6  0  0  0
  1  4  1  0  0  0  0
  2  9  1  0  0  0  0
  4  3  2  0  0  0  0
  4  6  1  0  0  0  0
  5  9  2  0  0  0  0
  5 11  1  0  0  0  0
  6  8  1  0  0  0  0
  7  5  1  0  0  0  0
  8  7  1  0  0  0  0
  8  2  2  0  0  0  0
 10 11  2  0  0  0  0
 12 15  2  0  0  0  0
 12 13  1  0  0  0  0
 13 18  1  0  0  0  0
 14 12  1  0  0  0  0
 15 16  1  0  0  0  0
 16 18  2  0  0  0  0
 16  1  1  0  0  0  0
 18 17  1  0  0  0  0
 20 30  1  0  0  0  0
 20 23  2  0  0  0  0
 21 23  1  0  0  0  0
 21 26  1  1  0  0  0
 22 25  1  0  0  0  0
 22 20  1  0  0  0  0
 24 19  1  6  0  0  0
 24 21  1  0  0  0  0
 25 24  1  0  0  0  0
 28 27  1  0  0  0  0
 28 30  2  0  0  0  0
 29 28  1  0  0  0  0
M  END
>  <MODEL>
4

>  <REMARK>
 VINA RESULT:      -7.2      3.383      5.730
  Name = 
  6 active torsions:
  status: ('A' for Active; 'I' for Inactive)
    1  A    between atoms: C_3  and  N_24
    2  A    between atoms: C_8  and  C_25
    3  A    between atoms: C_12  and  C_25
    4  A    between atoms: C_13  and  C_21
    5  A    between atoms: C_25  and  N_27
    6  A    between atoms: C_26  and  N_27
                            x       y       z     vdW  Elec       q    Type
                         _______ _______ _______ _____ _____    ______ ____

>  <TORSDO>
F 6

$$$$
=
 OpenBabel11052410563D

 30 32  0  0  1  0  0  0  0  0999 V2000
  161.2130  209.3990  151.2010 C   0  0  1  0  0  3  0  0  0  0  0  0
  158.2170  211.8280  154.2220 N   0  0  0  0  0  0  0  0  0  0  0  0
  162.0290  210.4010  153.2140 O   0  0  0  0  0  0  0  0  0  0  0  0
  161.0370  210.1750  152.4680 C   0  0  0  0  0  0  0  0  0  0  0  0
  159.3950  212.5210  155.9370 C   0  0  0  0  0  0  0  0  0  0  0  0
  159.7360  210.6650  152.8050 N   0  0  0  0  0  2  0  0  0  0  0  0
  160.3670  211.7990  155.0650 C   0  0  0  0  0  2  0  0  0  0  0  0
  159.4130  211.4120  153.9830 C   0  0  0  0  0  0  0  0  0  0  0  0
  158.2060  212.5180  155.4370 N   0  0  0  0  0  0  0  0  0  0  0  0
  160.3130  214.3090  157.2410 N   0  0  0  0  0  2  0  0  0  0  0  0
  159.7120  213.1670  157.2110 C   0  0  0  0  0  3  0  0  0  0  0  0
  162.1360  212.0330  148.8640 C   0  0  0  0  0  0  0  0  0  0  0  0
  162.4600  210.9810  148.1480 O   0  0  0  0  0  0  0  0  0  0  0  0
  162.3450  213.6830  148.3170 Cl  0  0  0  0  0  0  0  0  0  0  0  0
  161.6160  211.6700  150.0970 C   0  0  0  0  0  3  0  0  0  0  0  0
  161.6400  210.2880  150.0740 C   0  0  0  0  0  0  0  0  0  0  0  0
  162.3960  208.5860  148.4100 N   0  0  0  0  0  1  0  0  0  0  0  0
  162.1750  209.9200  148.8560 C   0  0  0  0  0  0  0  0  0  0  0  0
  162.1590  208.3080  151.3860 N   0  0  0  0  0  2  0  0  0  0  0  0
  161.0440  204.3480  150.6320 C   0  0  0  0  0  0  0  0  0  0  0  0
  162.2990  205.9470  152.0050 C   0  0  1  0  0  3  0  0  0  0  0  0
  161.0180  205.4230  149.5780 C   0  0  0  0  0  2  0  0  0  0  0  0
  161.6550  204.6100  151.7870 C   0  0  0  0  0  3  0  0  0  0  0  0
  161.3880  207.0820  151.5180 C   0  0  2  0  0  3  0  0  0  0  0  0
  160.6580  206.7810  150.1920 C   0  0  0  0  0  2  0  0  0  0  0  0
  162.5900  206.1120  153.3470 F   0  0  0  0  0  0  0  0  0  0  0  0
  159.8870  201.0210  149.4000 N   0  0  0  0  0  1  0  0  0  0  0  0
  160.5350  202.2880  149.3850 C   0  0  0  0  0  0  0  0  0  0  0  0
  161.2370  202.6890  148.2110 N   0  0  0  0  0  1  0  0  0  0  0  0
  160.4650  203.0460  150.4390 N   0  0  0  0  0  0  0  0  0  0  0  0
  1 19  1  1  0  0  0
  1  4  1  0  0  0  0
  2  9  1  0  0  0  0
  4  6  1  0  0  0  0
  4  3  2  0  0  0  0
  5 11  1  0  0  0  0
  6  8  1  0  0  0  0
  7  5  1  0  0  0  0
  8  2  2  0  0  0  0
  8  7  1  0  0  0  0
  9  5  2  0  0  0  0
 11 10  2  0  0  0  0
 12 15  2  0  0  0  0
 13 18  1  0  0  0  0
 13 12  1  0  0  0  0
 14 12  1  0  0  0  0
 16 15  1  0  0  0  0
 16  1  1  0  0  0  0
 17 18  1  0  0  0  0
 18 16  2  0  0  0  0
 20 23  2  0  0  0  0
 21 26  1  1  0  0  0
 22 25  1  0  0  0  0
 22 20  1  0  0  0  0
 23 21  1  0  0  0  0
 24 19  1  6  0  0  0
 24 21  1  0  0  0  0
 25 24  1  0  0  0  0
 28 27  1  0  0  0  0
 28 30  2  0  0  0  0
 29 28  1  0  0  0  0
 30 20  1  0  0  0  0
M  END
>  <MODEL>
5

>  <REMARK>
 VINA RESULT:      -7.1      3.477      5.508
  Name = 
  6 active torsions:
  status: ('A' for Active; 'I' for Inactive)
    1  A    between atoms: C_3  and  N_24
    2  A    between atoms: C_8  and  C_25
    3  A    between atoms: C_12  and  C_25
    4  A    between atoms: C_13  and  C_21
    5  A    between atoms: C_25  and  N_27
    6  A    between atoms: C_26  and  N_27
                            x       y       z     vdW  Elec       q    Type
                         _______ _______ _______ _____ _____    ______ ____

>  <TORSDO>
F 6

$$$$
=
 OpenBabel11052410563D

 30 32  0  0  1  0  0  0  0  0999 V2000
  160.9900  209.7980  152.1390 C   0  0  1  0  0  3  0  0  0  0  0  0
  161.2270  205.8330  149.2690 N   0  0  0  0  0  0  0  0  0  0  0  0
  160.8380  207.5930  153.0560 O   0  0  0  0  0  0  0  0  0  0  0  0
  160.9750  208.3060  152.0240 C   0  0  0  0  0  0  0  0  0  0  0  0
  161.0900  204.0580  150.5480 C   0  0  0  0  0  0  0  0  0  0  0  0
  161.1020  207.7100  150.7290 N   0  0  0  0  0  2  0  0  0  0  0  0
  161.0080  205.2170  151.4840 C   0  0  0  0  0  2  0  0  0  0  0  0
  161.1140  206.3030  150.4640 C   0  0  0  0  0  0  0  0  0  0  0  0
  161.2110  204.4380  149.3220 N   0  0  0  0  0  0  0  0  0  0  0  0
  160.7790  201.7320  150.0630 N   0  0  0  0  0  2  0  0  0  0  0  0
  161.0420  202.6470  150.9350 C   0  0  0  0  0  3  0  0  0  0  0  0
  162.1040  210.7060  155.4840 C   0  0  0  0  0  0  0  0  0  0  0  0
  160.8500  211.0880  155.5590 O   0  0  0  0  0  0  0  0  0  0  0  0
  163.2520  210.8770  156.7950 Cl  0  0  0  0  0  0  0  0  0  0  0  0
  162.3970  210.1600  154.2430 C   0  0  0  0  0  3  0  0  0  0  0  0
  161.1990  210.2310  153.5580 C   0  0  0  0  0  0  0  0  0  0  0  0
  158.9230  211.0960  154.1110 N   0  0  0  0  0  1  0  0  0  0  0  0
  160.2860  210.8170  154.4110 C   0  0  0  0  0  0  0  0  0  0  0  0
  162.0040  210.3760  151.2680 N   0  0  0  0  0  2  0  0  0  0  0  0
  161.2760  212.8180  147.9520 C   0  0  0  0  0  0  0  0  0  0  0  0
  162.2920  210.7850  148.8750 C   0  0  1  0  0  3  0  0  0  0  0  0
  161.2390  213.3260  149.3690 C   0  0  0  0  0  2  0  0  0  0  0  0
  161.7780  211.6040  147.7290 C   0  0  0  0  0  3  0  0  0  0  0  0
  161.3280  210.8440  150.0690 C   0  0  2  0  0  3  0  0  0  0  0  0
  160.7240  212.2410  150.3230 C   0  0  0  0  0  2  0  0  0  0  0  0
  162.4690  209.4750  148.4710 F   0  0  0  0  0  0  0  0  0  0  0  0
  159.4560  214.3320  145.0680 N   0  0  0  0  0  1  0  0  0  0  0  0
  159.7200  213.4510  146.1530 C   0  0  0  0  0  0  0  0  0  0  0  0
  158.7700  212.4340  146.4620 N   0  0  0  0  0  1  0  0  0  0  0  0
  160.8220  213.5930  146.8290 N   0  0  0  0  0  0  0  0  0  0  0  0
  1 19  1  6  0  0  0
  1 16  1  0  0  0  0
  2  9  1  0  0  0  0
  2  8  2  0  0  0  0
  4  1  1  0  0  0  0
  4  3  2  0  0  0  0
  5 11  1  0  0  0  0
  5  7  1  0  0  0  0
  6  4  1  0  0  0  0
  8  6  1  0  0  0  0
  8  7  1  0  0  0  0
  9  5  2  0  0  0  0
 10 11  2  0  0  0  0
 12 13  1  0  0  0  0
 12 14  1  0  0  0  0
 15 12  2  0  0  0  0
 16 15  1  0  0  0  0
 16 18  2  0  0  0  0
 17 18  1  0  0  0  0
 18 13  1  0  0  0  0
 20 22  1  0  0  0  0
 21 26  1  6  0  0  0
 21 24  1  0  0  0  0
 22 25  1  0  0  0  0
 23 20  2  0  0  0  0
 23 21  1  0  0  0  0
 24 25  1  0  0  0  0
 24 19  1  1  0  0  0
 27 28  1  0  0  0  0
 28 29  1  0  0  0  0
 28 30  2  0  0  0  0
 30 20  1  0  0  0  0
M  END
>  <MODEL>
6

>  <REMARK>
 VINA RESULT:      -6.8      2.538      7.794
  Name = 
  6 active torsions:
  status: ('A' for Active; 'I' for Inactive)
    1  A    between atoms: C_3  and  N_24
    2  A    between atoms: C_8  and  C_25
    3  A    between atoms: C_12  and  C_25
    4  A    between atoms: C_13  and  C_21
    5  A    between atoms: C_25  and  N_27
    6  A    between atoms: C_26  and  N_27
                            x       y       z     vdW  Elec       q    Type
                         _______ _______ _______ _____ _____    ______ ____

>  <TORSDO>
F 6

$$$$
=
 OpenBabel11052410563D

 30 32  0  0  1  0  0  0  0  0999 V2000
  160.2550  210.1190  153.7950 C   0  0  1  0  0  3  0  0  0  0  0  0
  160.8740  206.0300  151.1670 N   0  0  0  0  0  0  0  0  0  0  0  0
  161.1920  210.1900  151.5950 O   0  0  0  0  0  0  0  0  0  0  0  0
  160.7110  209.4810  152.5200 C   0  0  0  0  0  0  0  0  0  0  0  0
  161.7120  206.5930  149.2200 C   0  0  0  0  0  0  0  0  0  0  0  0
  160.6060  208.0610  152.3810 N   0  0  0  0  0  2  0  0  0  0  0  0
  161.5550  207.8780  149.9610 C   0  0  0  0  0  2  0  0  0  0  0  0
  160.9910  207.3130  151.2230 C   0  0  0  0  0  0  0  0  0  0  0  0
  161.3220  205.5830  149.9220 N   0  0  0  0  0  0  0  0  0  0  0  0
  162.2260  205.3080  147.2640 N   0  0  0  0  0  2  0  0  0  0  0  0
  162.2380  206.4520  147.8620 C   0  0  0  0  0  3  0  0  0  0  0  0
  162.8500  210.2440  156.3450 C   0  0  0  0  0  0  0  0  0  0  0  0
  162.3710  209.0440  156.5780 O   0  0  0  0  0  0  0  0  0  0  0  0
  164.1570  210.9630  157.2610 Cl  0  0  0  0  0  0  0  0  0  0  0  0
  162.1890  210.8610  155.2930 C   0  0  0  0  0  3  0  0  0  0  0  0
  161.2580  209.9230  154.8900 C   0  0  0  0  0  0  0  0  0  0  0  0
  160.6440  207.6300  155.6660 N   0  0  0  0  0  1  0  0  0  0  0  0
  161.4090  208.8290  155.7180 C   0  0  0  0  0  0  0  0  0  0  0  0
  159.9760  211.5340  153.5970 N   0  0  0  0  0  2  0  0  0  0  0  0
  156.7620  213.5590  155.3460 C   0  0  0  0  0  0  0  0  0  0  0  0
  158.0670  213.0390  153.3360 C   0  0  1  0  0  3  0  0  0  0  0  0
  157.9630  213.0960  156.1270 C   0  0  0  0  0  2  0  0  0  0  0  0
  156.8220  213.5250  154.0150 C   0  0  0  0  0  3  0  0  0  0  0  0
  158.6020  211.7680  154.0100 C   0  0  2  0  0  3  0  0  0  0  0  0
  158.5170  211.7870  155.5510 C   0  0  0  0  0  2  0  0  0  0  0  0
  157.8060  212.7950  152.0000 F   0  0  0  0  0  0  0  0  0  0  0  0
  153.6070  214.1090  157.2610 N   0  0  0  0  0  1  0  0  0  0  0  0
  154.7380  213.4210  156.7400 C   0  0  0  0  0  0  0  0  0  0  0  0
  154.9250  212.0480  157.0760 N   0  0  0  0  0  1  0  0  0  0  0  0
  155.5670  214.0610  155.9690 N   0  0  0  0  0  0  0  0  0  0  0  0
  1  4  1  6  0  0  0
  1 16  1  0  0  0  0
  2  8  2  0  0  0  0
  3  4  2  0  0  0  0
  5  9  2  0  0  0  0
  5  7  1  0  0  0  0
  6  4  1  0  0  0  0
  7  8  1  0  0  0  0
  8  6  1  0  0  0  0
  9  2  1  0  0  0  0
 10 11  2  0  0  0  0
 11  5  1  0  0  0  0
 12 13  1  0  0  0  0
 12 14  1  0  0  0  0
 15 12  2  0  0  0  0
 16 15  1  0  0  0  0
 16 18  2  0  0  0  0
 17 18  1  0  0  0  0
 18 13  1  0  0  0  0
 19  1  1  0  0  0  0
 20 30  1  0  0  0  0
 20 22  1  0  0  0  0
 21 26  1  6  0  0  0
 21 24  1  0  0  0  0
 21 23  1  0  0  0  0
 23 20  2  0  0  0  0
 24 19  1  1  0  0  0
 24 25  1  0  0  0  0
 25 22  1  0  0  0  0
 28 29  1  0  0  0  0
 28 27  1  0  0  0  0
 30 28  2  0  0  0  0
M  END
>  <MODEL>
7

>  <REMARK>
 VINA RESULT:      -6.6      4.917      9.212
  Name = 
  6 active torsions:
  status: ('A' for Active; 'I' for Inactive)
    1  A    between atoms: C_3  and  N_24
    2  A    between atoms: C_8  and  C_25
    3  A    between atoms: C_12  and  C_25
    4  A    between atoms: C_13  and  C_21
    5  A    between atoms: C_25  and  N_27
    6  A    between atoms: C_26  and  N_27
                            x       y       z     vdW  Elec       q    Type
                         _______ _______ _______ _____ _____    ______ ____

>  <TORSDO>
F 6

$$$$
=
 OpenBabel11052410563D

 30 32  0  0  1  0  0  0  0  0999 V2000
  161.0780  209.1520  152.3800 C   0  0  1  0  0  3  0  0  0  0  0  0
  160.1200  206.1110  148.6600 N   0  0  0  0  0  0  0  0  0  0  0  0
  162.6570  208.8180  150.6140 O   0  0  0  0  0  0  0  0  0  0  0  0
  161.5260  208.5320  151.0940 C   0  0  0  0  0  0  0  0  0  0  0  0
  161.8220  206.1670  147.2790 C   0  0  0  0  0  0  0  0  0  0  0  0
  160.6600  207.6050  150.4330 N   0  0  0  0  0  2  0  0  0  0  0  0
  162.1840  207.1070  148.3800 C   0  0  0  0  0  2  0  0  0  0  0  0
  160.9460  206.9410  149.1980 C   0  0  0  0  0  0  0  0  0  0  0  0
  160.6640  205.6290  147.4680 N   0  0  0  0  0  0  0  0  0  0  0  0
  163.2020  204.7040  145.9760 N   0  0  0  0  0  2  0  0  0  0  0  0
  162.6500  205.8630  146.1120 C   0  0  0  0  0  3  0  0  0  0  0  0
  160.4540  207.0850  155.3110 C   0  0  0  0  0  0  0  0  0  0  0  0
  161.1650  206.2440  154.5960 O   0  0  0  0  0  0  0  0  0  0  0  0
  159.7970  206.7050  156.8880 Cl  0  0  0  0  0  0  0  0  0  0  0  0
  160.2920  208.2980  154.6570 C   0  0  0  0  0  3  0  0  0  0  0  0
  160.9800  208.1300  153.4700 C   0  0  0  0  0  0  0  0  0  0  0  0
  162.2590  206.2460  152.4480 N   0  0  0  0  0  1  0  0  0  0  0  0
  161.4890  206.8480  153.4830 C   0  0  0  0  0  0  0  0  0  0  0  0
  161.9640  210.2400  152.7700 N   0  0  0  0  0  2  0  0  0  0  0  0
  158.5210  212.2390  154.0520 C   0  0  0  0  0  0  0  0  0  0  0  0
  160.6900  211.2350  154.6040 C   0  0  1  0  0  3  0  0  0  0  0  0
  158.5720  211.4170  152.7910 C   0  0  0  0  0  2  0  0  0  0  0  0
  159.5390  212.1460  154.9080 C   0  0  0  0  0  3  0  0  0  0  0  0
  161.1280  211.3700  153.1390 C   0  0  2  0  0  3  0  0  0  0  0  0
  159.9580  211.5010  152.1400 C   0  0  0  0  0  2  0  0  0  0  0  0
  161.7490  211.5220  155.4460 F   0  0  0  0  0  0  0  0  0  0  0  0
  155.2860  213.7660  155.1110 N   0  0  0  0  0  1  0  0  0  0  0  0
  156.2470  212.7520  154.8390 C   0  0  0  0  0  0  0  0  0  0  0  0
  155.8950  211.3900  155.0660 N   0  0  0  0  0  1  0  0  0  0  0  0
  157.4170  213.0950  154.3860 N   0  0  0  0  0  0  0  0  0  0  0  0
  1  4  1  6  0  0  0
  1 19  1  0  0  0  0
  1 16  1  0  0  0  0
  2  8  2  0  0  0  0
  3  4  2  0  0  0  0
  5  9  2  0  0  0  0
  5  7  1  0  0  0  0
  6  4  1  0  0  0  0
  7  8  1  0  0  0  0
  8  6  1  0  0  0  0
  9  2  1  0  0  0  0
 10 11  2  0  0  0  0
 11  5  1  0  0  0  0
 12 14  1  0  0  0  0
 13 12  1  0  0  0  0
 15 12  2  0  0  0  0
 16 18  2  0  0  0  0
 16 15  1  0  0  0  0
 17 18  1  0  0  0  0
 18 13  1  0  0  0  0
 20 30  1  0  0  0  0
 20 23  2  0  0  0  0
 21 23  1  0  0  0  0
 21 26  1  1  0  0  0
 22 20  1  0  0  0  0
 24 19  1  6  0  0  0
 24 21  1  0  0  0  0
 25 22  1  0  0  0  0
 25 24  1  0  0  0  0
 28 29  1  0  0  0  0
 28 27  1  0  0  0  0
 30 28  2  0  0  0  0
M  END
>  <MODEL>
8

>  <REMARK>
 VINA RESULT:      -6.3      3.935      8.108
  Name = 
  6 active torsions:
  status: ('A' for Active; 'I' for Inactive)
    1  A    between atoms: C_3  and  N_24
    2  A    between atoms: C_8  and  C_25
    3  A    between atoms: C_12  and  C_25
    4  A    between atoms: C_13  and  C_21
    5  A    between atoms: C_25  and  N_27
    6  A    between atoms: C_26  and  N_27
                            x       y       z     vdW  Elec       q    Type
                         _______ _______ _______ _____ _____    ______ ____

>  <TORSDO>
F 6

$$$$
=
 OpenBabel11052410563D

 30 32  0  0  1  0  0  0  0  0999 V2000
  161.5400  210.5030  153.3520 C   0  0  1  0  0  3  0  0  0  0  0  0
  160.1420  213.9860  150.2020 N   0  0  0  0  0  0  0  0  0  0  0  0
  159.2840  210.6320  152.5680 O   0  0  0  0  0  0  0  0  0  0  0  0
  160.4470  211.1160  152.5350 C   0  0  0  0  0  0  0  0  0  0  0  0
  158.0210  213.6750  149.7420 C   0  0  0  0  0  0  0  0  0  0  0  0
  160.7440  212.2650  151.7330 N   0  0  0  0  0  2  0  0  0  0  0  0
  158.3730  212.5880  150.7020 C   0  0  0  0  0  2  0  0  0  0  0  0
  159.8080  212.9510  150.8960 C   0  0  0  0  0  0  0  0  0  0  0  0
  159.0310  214.4360  149.4860 N   0  0  0  0  0  0  0  0  0  0  0  0
  155.6340  213.8390  149.8620 N   0  0  0  0  0  2  0  0  0  0  0  0
  156.7040  213.8870  149.1420 C   0  0  0  0  0  3  0  0  0  0  0  0
  160.4050  208.4460  156.1330 C   0  0  0  0  0  0  0  0  0  0  0  0
  160.1790  209.6380  156.6350 O   0  0  0  0  0  0  0  0  0  0  0  0
  160.0830  206.9530  156.9890 Cl  0  0  0  0  0  0  0  0  0  0  0  0
  160.9300  208.5240  154.8510 C   0  0  0  0  0  3  0  0  0  0  0  0
  161.0000  209.8820  154.6030 C   0  0  0  0  0  0  0  0  0  0  0  0
  160.4390  211.9260  155.9230 N   0  0  0  0  0  1  0  0  0  0  0  0
  160.5330  210.5180  155.7350 C   0  0  0  0  0  0  0  0  0  0  0  0
  162.2880  209.5270  152.5720 N   0  0  0  0  0  2  0  0  0  0  0  0
  161.2250  207.5260  149.0570 C   0  0  0  0  0  0  0  0  0  0  0  0
  161.2880  207.5650  151.5080 C   0  0  1  0  0  3  0  0  0  0  0  0
  162.3010  208.5770  149.1100 C   0  0  0  0  0  2  0  0  0  0  0  0
  160.7470  207.0520  150.2080 C   0  0  0  0  0  3  0  0  0  0  0  0
  161.4290  209.0940  151.4820 C   0  0  2  0  0  3  0  0  0  0  0  0
  161.9610  209.6550  150.1460 C   0  0  0  0  0  2  0  0  0  0  0  0
  160.4560  207.1820  152.5450 F   0  0  0  0  0  0  0  0  0  0  0  0
  160.6260  205.8100  145.7980 N   0  0  0  0  0  1  0  0  0  0  0  0
  161.3240  206.2370  146.9620 C   0  0  0  0  0  0  0  0  0  0  0  0
  162.6780  205.8300  147.1430 N   0  0  0  0  0  1  0  0  0  0  0  0
  160.7100  206.9910  147.8260 N   0  0  0  0  0  0  0  0  0  0  0  0
  1  4  1  6  0  0  0
  1 16  1  0  0  0  0
  2  8  2  0  0  0  0
  4  3  2  0  0  0  0
  5  7  1  0  0  0  0
  6  4  1  0  0  0  0
  7  8  1  0  0  0  0
  8  6  1  0  0  0  0
  9  5  2  0  0  0  0
  9  2  1  0  0  0  0
 11  5  1  0  0  0  0
 11 10  2  0  0  0  0
 12 13  1  0  0  0  0
 12 14  1  0  0  0  0
 15 12  2  0  0  0  0
 16 15  1  0  0  0  0
 16 18  2  0  0  0  0
 18 17  1  0  0  0  0
 18 13  1  0  0  0  0
 19  1  1  0  0  0  0
 20 22  1  0  0  0  0
 20 23  2  0  0  0  0
 21 26  1  1  0  0  0
 22 25  1  0  0  0  0
 23 21  1  0  0  0  0
 24 21  1  0  0  0  0
 24 19  1  1  0  0  0
 25 24  1  0  0  0  0
 27 28  1  0  0  0  0
 28 29  1  0  0  0  0
 28 30  2  0  0  0  0
 30 20  1  0  0  0  0
M  END
>  <MODEL>
9

>  <REMARK>
 VINA RESULT:      -6.1      3.501      4.783
  Name = 
  6 active torsions:
  status: ('A' for Active; 'I' for Inactive)
    1  A    between atoms: C_3  and  N_24
    2  A    between atoms: C_8  and  C_25
    3  A    between atoms: C_12  and  C_25
    4  A    between atoms: C_13  and  C_21
    5  A    between atoms: C_25  and  N_27
    6  A    between atoms: C_26  and  N_27
                            x       y       z     vdW  Elec       q    Type
                         _______ _______ _______ _____ _____    ______ ____

>  <TORSDO>
F 6

$$$$
