=
 OpenBabel11052410503D

 28 31  0  0  1  0  0  0  0  0999 V2000
  160.6150  207.4750  153.1560 C   0  0  0  0  0  2  0  0  0  0  0  0
  161.7500  209.3490  154.3000 O   0  0  0  0  0  0  0  0  0  0  0  0
  160.7590  211.1880  152.4710 O   0  0  0  0  0  0  0  0  0  0  0  0
  160.9640  209.8720  152.0200 C   0  0  2  0  0  3  0  0  0  0  0  0
  160.9510  208.9550  153.2160 C   0  0  1  0  0  0  0  0  0  0  0  0
  160.3810  209.6990  154.3260 C   0  0  2  0  0  3  0  0  0  0  0  0
  160.1990  211.0960  153.7620 C   0  0  0  0  0  2  0  0  0  0  0  0
  162.2910  209.7650  151.2860 C   0  0  0  0  0  2  0  0  0  0  0  0
  162.1140  210.0870  149.8430 C   0  0  0  0  0  0  0  0  0  0  0  0
  161.9820  209.1530  149.0070 O   0  0  0  0  0  0  0  0  0  0  0  0
  162.0630  211.4520  149.4240 N   0  0  0  0  0  2  0  0  0  0  0  0
  161.8040  211.8410  148.0460 C   0  0  0  0  0  2  0  0  0  0  0  0
  162.3860  213.5400  147.7490 S   0  0  0  0  0  0  0  0  0  0  0  0
  161.8160  213.5460  146.0240 C   0  0  0  0  0  2  0  0  0  0  0  0
  162.8660  213.1850  145.1790 O   0  0  0  0  0  1  0  0  0  0  0  0
  161.8540  206.6550  152.8340 C   0  0  0  0  0  2  0  0  0  0  0  0
  161.2210  203.5330  150.8960 C   0  0  0  0  0  0  0  0  0  0  0  0
  161.0100  204.0160  149.5870 C   0  0  0  0  0  0  0  0  0  0  0  0
  161.3650  206.2610  150.4150 C   0  0  0  0  0  3  0  0  0  0  0  0
  160.6590  201.7990  148.8030 C   0  0  0  0  0  3  0  0  0  0  0  0
  160.8630  201.2870  150.0870 C   0  0  0  0  0  3  0  0  0  0  0  0
  160.7360  203.1390  148.5800 N   0  0  0  0  0  0  0  0  0  0  0  0
  161.5740  205.7380  151.6950 C   0  0  0  0  0  0  0  0  0  0  0  0
  161.0840  205.3980  149.3530 C   0  0  0  0  0  0  0  0  0  0  0  0
  161.4930  204.3970  151.9090 N   0  0  0  0  0  0  0  0  0  0  0  0
  161.1450  202.1610  151.1380 C   0  0  0  0  0  3  0  0  0  0  0  0
  160.8760  205.9510  148.0400 C   0  0  0  0  0  0  0  0  0  0  0  0
  160.7080  206.3960  146.9850 N   0  0  0  0  0  0  0  0  0  0  0  0
  2  6  1  0  0  0  0
  3  7  1  0  0  0  0
  4  8  1  1  0  0  0
  4  3  1  0  0  0  0
  4  5  1  0  0  0  0
  5  1  1  6  0  0  0
  5  2  1  0  0  0  0
  5  6  1  0  0  0  0
  6  7  1  6  0  0  0
  9  8  1  0  0  0  0
 10  9  2  0  0  0  0
 11  9  1  0  0  0  0
 12 11  1  0  0  0  0
 13 12  1  0  0  0  0
 14 13  1  0  0  0  0
 15 14  1  0  0  0  0
 16  1  1  0  0  0  0
 17 26  1  0  0  0  0
 17 25  1  0  0  0  0
 18 17  2  0  0  0  0
 19 23  1  0  0  0  0
 20 21  1  0  0  0  0
 21 26  2  0  0  0  0
 22 20  2  0  0  0  0
 22 18  1  0  0  0  0
 23 25  2  0  0  0  0
 23 16  1  0  0  0  0
 24 18  1  0  0  0  0
 24 19  2  0  0  0  0
 27 24  1  0  0  0  0
 28 27  3  0  0  0  0
M  END
>  <MODEL>
1

>  <REMARK>
 VINA RESULT:      -7.4      0.000      0.000
  Name = 
  9 active torsions:
  status: ('A' for Active; 'I' for Inactive)
    1  A    between atoms: C_1  and  C_3
    2  A    between atoms: C_1  and  C_20
    3  A    between atoms: C_3  and  C_13
    4  A    between atoms: C_4  and  S_22
    5  A    between atoms: C_6  and  C_17
    6  A    between atoms: C_10  and  C_21
    7  A    between atoms: C_11  and  C_17
    8  A    between atoms: S_22  and  C_25
    9  A    between atoms: C_25  and  N_27
                            x       y       z     vdW  Elec       q    Type
                         _______ _______ _______ _____ _____    ______ ____

>  <TORSDO>
F 9

$$$$
=
 OpenBabel11052410503D

 28 31  0  0  1  0  0  0  0  0999 V2000
  161.6760  204.7290  151.9150 C   0  0  0  0  0  2  0  0  0  0  0  0
  162.5230  206.3850  153.5420 O   0  0  0  0  0  0  0  0  0  0  0  0
  160.8410  208.3580  152.5500 O   0  0  0  0  0  0  0  0  0  0  0  0
  161.2650  207.3600  151.6560 C   0  0  2  0  0  3  0  0  0  0  0  0
  161.6660  206.1480  152.4570 C   0  0  1  0  0  0  0  0  0  0  0  0
  161.1340  206.3200  153.7980 C   0  0  2  0  0  3  0  0  0  0  0  0
  160.5430  207.7170  153.7700 C   0  0  0  0  0  2  0  0  0  0  0  0
  162.4390  207.8570  150.8250 C   0  0  0  0  0  2  0  0  0  0  0  0
  162.0010  208.9410  149.9040 C   0  0  0  0  0  0  0  0  0  0  0  0
  161.5270  208.6460  148.7740 O   0  0  0  0  0  0  0  0  0  0  0  0
  162.0910  210.3040  150.3230 N   0  0  0  0  0  2  0  0  0  0  0  0
  161.6000  211.4080  149.5120 C   0  0  0  0  0  2  0  0  0  0  0  0
  162.8220  211.8460  148.2350 S   0  0  0  0  0  0  0  0  0  0  0  0
  161.6870  212.9870  147.3910 C   0  0  0  0  0  2  0  0  0  0  0  0
  160.7160  212.2620  146.7010 O   0  0  0  0  0  1  0  0  0  0  0  0
  160.4070  204.4450  151.1270 C   0  0  0  0  0  2  0  0  0  0  0  0
  161.3300  204.9280  147.5470 C   0  0  0  0  0  0  0  0  0  0  0  0
  161.4230  203.6040  147.0680 C   0  0  0  0  0  0  0  0  0  0  0  0
  160.8330  202.8190  149.2790 C   0  0  0  0  0  3  0  0  0  0  0  0
  162.0050  204.4050  144.9070 C   0  0  0  0  0  3  0  0  0  0  0  0
  161.9230  205.7290  145.3480 C   0  0  0  0  0  3  0  0  0  0  0  0
  161.7560  203.3800  145.7650 N   0  0  0  0  0  0  0  0  0  0  0  0
  160.7460  204.1460  149.7090 C   0  0  0  0  0  0  0  0  0  0  0  0
  161.1700  202.5420  147.9510 C   0  0  0  0  0  0  0  0  0  0  0  0
  161.0000  205.1650  148.8430 N   0  0  0  0  0  0  0  0  0  0  0  0
  161.5820  205.9890  146.6770 C   0  0  0  0  0  3  0  0  0  0  0  0
  161.2520  201.1710  147.5210 C   0  0  0  0  0  0  0  0  0  0  0  0
  161.3190  200.0680  147.1760 N   0  0  0  0  0  0  0  0  0  0  0  0
  2  6  1  0  0  0  0
  3  7  1  0  0  0  0
  4  8  1  1  0  0  0
  4  5  1  0  0  0  0
  4  3  1  0  0  0  0
  5  1  1  6  0  0  0
  5  2  1  0  0  0  0
  5  6  1  0  0  0  0
  6  7  1  6  0  0  0
  9 11  1  0  0  0  0
  9  8  1  0  0  0  0
 10  9  2  0  0  0  0
 12 11  1  0  0  0  0
 13 12  1  0  0  0  0
 14 13  1  0  0  0  0
 15 14  1  0  0  0  0
 16  1  1  0  0  0  0
 17 25  1  0  0  0  0
 18 17  1  0  0  0  0
 18 24  1  0  0  0  0
 19 23  1  0  0  0  0
 20 21  2  0  0  0  0
 20 22  1  0  0  0  0
 21 26  1  0  0  0  0
 22 18  2  0  0  0  0
 23 16  1  0  0  0  0
 24 19  2  0  0  0  0
 25 23  2  0  0  0  0
 26 17  2  0  0  0  0
 27 24  1  0  0  0  0
 28 27  3  0  0  0  0
M  END
>  <MODEL>
2

>  <REMARK>
 VINA RESULT:      -7.4      1.961      3.465
  Name = 
  9 active torsions:
  status: ('A' for Active; 'I' for Inactive)
    1  A    between atoms: C_1  and  C_3
    2  A    between atoms: C_1  and  C_20
    3  A    between atoms: C_3  and  C_13
    4  A    between atoms: C_4  and  S_22
    5  A    between atoms: C_6  and  C_17
    6  A    between atoms: C_10  and  C_21
    7  A    between atoms: C_11  and  C_17
    8  A    between atoms: S_22  and  C_25
    9  A    between atoms: C_25  and  N_27
                            x       y       z     vdW  Elec       q    Type
                         _______ _______ _______ _____ _____    ______ ____

>  <TORSDO>
F 9

$$$$
=
 OpenBabel11052410503D

 28 31  0  0  1  0  0  0  0  0999 V2000
  160.7230  206.9290  150.3390 C   0  0  0  0  0  2  0  0  0  0  0  0
  162.3990  206.4900  152.1030 O   0  0  0  0  0  0  0  0  0  0  0  0
  161.3200  208.4510  153.7450 O   0  0  0  0  0  0  0  0  0  0  0  0
  161.1860  208.6240  152.3560 C   0  0  2  0  0  3  0  0  0  0  0  0
  161.3080  207.2730  151.6980 C   0  0  1  0  0  0  0  0  0  0  0  0
  161.1550  206.2700  152.7370 C   0  0  2  0  0  3  0  0  0  0  0  0
  161.0800  207.0880  154.0140 C   0  0  0  0  0  2  0  0  0  0  0  0
  162.2600  209.5660  151.8340 C   0  0  0  0  0  2  0  0  0  0  0  0
  161.6440  210.6810  151.0640 C   0  0  0  0  0  0  0  0  0  0  0  0
  160.7430  211.3840  151.5970 O   0  0  0  0  0  0  0  0  0  0  0  0
  162.1020  210.9630  149.7410 N   0  0  0  0  0  2  0  0  0  0  0  0
  161.6080  212.0910  148.9640 C   0  0  0  0  0  2  0  0  0  0  0  0
  162.8770  212.6470  147.7820 S   0  0  0  0  0  0  0  0  0  0  0  0
  161.6690  212.9180  146.4520 C   0  0  0  0  0  2  0  0  0  0  0  0
  160.5130  212.1800  146.7070 O   0  0  0  0  0  1  0  0  0  0  0  0
  161.7930  206.9940  149.2610 C   0  0  0  0  0  2  0  0  0  0  0  0
  161.2630  203.5500  147.9360 C   0  0  0  0  0  0  0  0  0  0  0  0
  161.2590  203.7510  146.5390 C   0  0  0  0  0  0  0  0  0  0  0  0
  161.6180  206.1100  146.9310 C   0  0  0  0  0  3  0  0  0  0  0  0
  160.9000  201.4270  146.1850 C   0  0  0  0  0  3  0  0  0  0  0  0
  160.8980  201.1930  147.5630 C   0  0  0  0  0  3  0  0  0  0  0  0
  161.0780  202.6880  145.7050 N   0  0  0  0  0  0  0  0  0  0  0  0
  161.6220  205.8650  148.3070 C   0  0  0  0  0  0  0  0  0  0  0  0
  161.4380  205.0500  146.0390 C   0  0  0  0  0  0  0  0  0  0  0  0
  161.4410  204.6010  148.7780 N   0  0  0  0  0  0  0  0  0  0  0  0
  161.0820  202.2620  148.4410 C   0  0  0  0  0  3  0  0  0  0  0  0
  161.4410  205.3180  144.6250 C   0  0  0  0  0  0  0  0  0  0  0  0
  161.4410  205.5330  143.4870 N   0  0  0  0  0  0  0  0  0  0  0  0
  2  6  1  0  0  0  0
  3  7  1  0  0  0  0
  4  8  1  6  0  0  0
  4  3  1  0  0  0  0
  5  1  1  6  0  0  0
  5  2  1  0  0  0  0
  5  4  1  0  0  0  0
  5  6  1  0  0  0  0
  6  7  1  1  0  0  0
  9 10  2  0  0  0  0
  9  8  1  0  0  0  0
 11  9  1  0  0  0  0
 12 11  1  0  0  0  0
 13 12  1  0  0  0  0
 14 15  1  0  0  0  0
 14 13  1  0  0  0  0
 16  1  1  0  0  0  0
 17 26  1  0  0  0  0
 17 25  1  0  0  0  0
 18 17  2  0  0  0  0
 19 23  1  0  0  0  0
 20 21  1  0  0  0  0
 21 26  2  0  0  0  0
 22 20  2  0  0  0  0
 22 18  1  0  0  0  0
 23 25  2  0  0  0  0
 23 16  1  0  0  0  0
 24 18  1  0  0  0  0
 24 19  2  0  0  0  0
 27 24  1  0  0  0  0
 28 27  3  0  0  0  0
M  END
>  <MODEL>
3

>  <REMARK>
 VINA RESULT:      -7.3      1.900      2.856
  Name = 
  9 active torsions:
  status: ('A' for Active; 'I' for Inactive)
    1  A    between atoms: C_1  and  C_3
    2  A    between atoms: C_1  and  C_20
    3  A    between atoms: C_3  and  C_13
    4  A    between atoms: C_4  and  S_22
    5  A    between atoms: C_6  and  C_17
    6  A    between atoms: C_10  and  C_21
    7  A    between atoms: C_11  and  C_17
    8  A    between atoms: S_22  and  C_25
    9  A    between atoms: C_25  and  N_27
                            x       y       z     vdW  Elec       q    Type
                         _______ _______ _______ _____ _____    ______ ____

>  <TORSDO>
F 9

$$$$
=
 OpenBabel11052410503D

 28 31  0  0  1  0  0  0  0  0999 V2000
  160.8470  207.2830  150.0960 C   0  0  0  0  0  2  0  0  0  0  0  0
  162.6140  206.6280  151.6960 O   0  0  0  0  0  0  0  0  0  0  0  0
  161.1780  207.6480  153.8420 O   0  0  0  0  0  0  0  0  0  0  0  0
  160.9810  208.2500  152.5870 C   0  0  2  0  0  3  0  0  0  0  0  0
  161.3730  207.2590  151.5210 C   0  0  1  0  0  0  0  0  0  0  0  0
  161.4580  205.9550  152.1530 C   0  0  2  0  0  3  0  0  0  0  0  0
  161.2390  206.2560  153.6240 C   0  0  0  0  0  2  0  0  0  0  0  0
  161.8200  209.5140  152.4690 C   0  0  0  0  0  2  0  0  0  0  0  0
  161.4420  210.4880  153.5290 C   0  0  0  0  0  0  0  0  0  0  0  0
  162.2190  210.6830  154.5030 O   0  0  0  0  0  0  0  0  0  0  0  0
  160.2190  211.2170  153.4170 N   0  0  0  0  0  2  0  0  0  0  0  0
  159.8290  212.2480  154.3670 C   0  0  0  0  0  2  0  0  0  0  0  0
  158.5980  213.3630  153.6210 S   0  0  0  0  0  0  0  0  0  0  0  0
  158.7980  212.6440  151.9640 C   0  0  0  0  0  2  0  0  0  0  0  0
  157.8950  213.2360  151.0800 O   0  0  0  0  0  1  0  0  0  0  0  0
  161.9890  207.1790  149.0990 C   0  0  0  0  0  2  0  0  0  0  0  0
  161.3170  203.7190  147.8840 C   0  0  0  0  0  0  0  0  0  0  0  0
  161.2850  203.8810  146.4830 C   0  0  0  0  0  0  0  0  0  0  0  0
  161.7290  206.2380  146.7990 C   0  0  0  0  0  3  0  0  0  0  0  0
  160.8440  201.5620  146.2030 C   0  0  0  0  0  3  0  0  0  0  0  0
  160.8690  201.3650  147.5870 C   0  0  0  0  0  3  0  0  0  0  0  0
  161.0510  202.8020  145.6840 N   0  0  0  0  0  0  0  0  0  0  0  0
  161.7590  206.0310  148.1820 C   0  0  0  0  0  0  0  0  0  0  0  0
  161.4930  205.1600  145.9420 C   0  0  0  0  0  0  0  0  0  0  0  0
  161.5490  204.7870  148.6920 N   0  0  0  0  0  0  0  0  0  0  0  0
  161.1080  202.4520  148.4300 C   0  0  0  0  0  3  0  0  0  0  0  0
  161.4700  205.3880  144.5210 C   0  0  0  0  0  0  0  0  0  0  0  0
  161.4510  205.5700  143.3780 N   0  0  0  0  0  0  0  0  0  0  0  0
  2  6  1  0  0  0  0
  4  8  1  1  0  0  0
  4  3  1  0  0  0  0
  5  1  1  6  0  0  0
  5  2  1  0  0  0  0
  5  6  1  0  0  0  0
  5  4  1  0  0  0  0
  6  7  1  1  0  0  0
  7  3  1  0  0  0  0
  8  9  1  0  0  0  0
  9 10  2  0  0  0  0
 11  9  1  0  0  0  0
 11 12  1  0  0  0  0
 13 12  1  0  0  0  0
 14 13  1  0  0  0  0
 15 14  1  0  0  0  0
 16  1  1  0  0  0  0
 17 26  1  0  0  0  0
 17 25  1  0  0  0  0
 18 17  2  0  0  0  0
 19 23  1  0  0  0  0
 20 21  1  0  0  0  0
 21 26  2  0  0  0  0
 22 20  2  0  0  0  0
 22 18  1  0  0  0  0
 23 25  2  0  0  0  0
 23 16  1  0  0  0  0
 24 18  1  0  0  0  0
 24 19  2  0  0  0  0
 27 24  1  0  0  0  0
 28 27  3  0  0  0  0
M  END
>  <MODEL>
4

>  <REMARK>
 VINA RESULT:      -7.2      3.181      4.206
  Name = 
  9 active torsions:
  status: ('A' for Active; 'I' for Inactive)
    1  A    between atoms: C_1  and  C_3
    2  A    between atoms: C_1  and  C_20
    3  A    between atoms: C_3  and  C_13
    4  A    between atoms: C_4  and  S_22
    5  A    between atoms: C_6  and  C_17
    6  A    between atoms: C_10  and  C_21
    7  A    between atoms: C_11  and  C_17
    8  A    between atoms: S_22  and  C_25
    9  A    between atoms: C_25  and  N_27
                            x       y       z     vdW  Elec       q    Type
                         _______ _______ _______ _____ _____    ______ ____

>  <TORSDO>
F 9

$$$$
=
 OpenBabel11052410503D

 28 31  0  0  1  0  0  0  0  0999 V2000
  160.8450  207.2880  150.0560 C   0  0  0  0  0  2  0  0  0  0  0  0
  162.6860  206.7280  151.6080 O   0  0  0  0  0  0  0  0  0  0  0  0
  161.1940  207.5200  153.8110 O   0  0  0  0  0  0  0  0  0  0  0  0
  160.9250  208.1550  152.5860 C   0  0  2  0  0  3  0  0  0  0  0  0
  161.3910  207.2510  151.4730 C   0  0  1  0  0  0  0  0  0  0  0  0
  161.6030  205.9330  152.0470 C   0  0  2  0  0  3  0  0  0  0  0  0
  161.3770  206.1500  153.5320 C   0  0  0  0  0  2  0  0  0  0  0  0
  161.6440  209.4940  152.5150 C   0  0  0  0  0  2  0  0  0  0  0  0
  161.0520  210.4540  153.4860 C   0  0  0  0  0  0  0  0  0  0  0  0
  161.7150  210.8080  154.4980 O   0  0  0  0  0  0  0  0  0  0  0  0
  159.7500  210.9890  153.2450 N   0  0  0  0  0  2  0  0  0  0  0  0
  159.1450  211.9980  154.1030 C   0  0  0  0  0  2  0  0  0  0  0  0
  158.3000  211.2070  155.5090 S   0  0  0  0  0  0  0  0  0  0  0  0
  156.6520  211.4280  154.7790 C   0  0  0  0  0  2  0  0  0  0  0  0
  155.7210  210.6490  155.4670 O   0  0  0  0  0  1  0  0  0  0  0  0
  161.9730  207.1970  149.0420 C   0  0  0  0  0  2  0  0  0  0  0  0
  161.3080  203.7300  147.8420 C   0  0  0  0  0  0  0  0  0  0  0  0
  161.2720  203.8870  146.4400 C   0  0  0  0  0  0  0  0  0  0  0  0
  161.7100  206.2460  146.7470 C   0  0  0  0  0  3  0  0  0  0  0  0
  160.8370  201.5660  146.1700 C   0  0  0  0  0  3  0  0  0  0  0  0
  160.8660  201.3740  147.5540 C   0  0  0  0  0  3  0  0  0  0  0  0
  161.0390  202.8050  145.6450 N   0  0  0  0  0  0  0  0  0  0  0  0
  161.7440  206.0440  148.1300 C   0  0  0  0  0  0  0  0  0  0  0  0
  161.4750  205.1640  145.8940 C   0  0  0  0  0  0  0  0  0  0  0  0
  161.5390  204.8010  148.6450 N   0  0  0  0  0  0  0  0  0  0  0  0
  161.1030  202.4650  148.3930 C   0  0  0  0  0  3  0  0  0  0  0  0
  161.4470  205.3870  144.4720 C   0  0  0  0  0  0  0  0  0  0  0  0
  161.4250  205.5650  143.3290 N   0  0  0  0  0  0  0  0  0  0  0  0
  2  6  1  0  0  0  0
  4  8  1  1  0  0  0
  4  3  1  0  0  0  0
  5  1  1  6  0  0  0
  5  2  1  0  0  0  0
  5  6  1  0  0  0  0
  5  4  1  0  0  0  0
  6  7  1  1  0  0  0
  7  3  1  0  0  0  0
  8  9  1  0  0  0  0
  9 10  2  0  0  0  0
 11  9  1  0  0  0  0
 11 12  1  0  0  0  0
 12 13  1  0  0  0  0
 14 15  1  0  0  0  0
 14 13  1  0  0  0  0
 16  1  1  0  0  0  0
 17 26  1  0  0  0  0
 17 25  1  0  0  0  0
 18 17  2  0  0  0  0
 19 23  1  0  0  0  0
 20 21  1  0  0  0  0
 21 26  2  0  0  0  0
 22 20  2  0  0  0  0
 22 18  1  0  0  0  0
 23 25  2  0  0  0  0
 23 16  1  0  0  0  0
 24 18  1  0  0  0  0
 24 19  2  0  0  0  0
 27 24  1  0  0  0  0
 28 27  3  0  0  0  0
M  END
>  <MODEL>
5

>  <REMARK>
 VINA RESULT:      -7.2      3.498      5.016
  Name = 
  9 active torsions:
  status: ('A' for Active; 'I' for Inactive)
    1  A    between atoms: C_1  and  C_3
    2  A    between atoms: C_1  and  C_20
    3  A    between atoms: C_3  and  C_13
    4  A    between atoms: C_4  and  S_22
    5  A    between atoms: C_6  and  C_17
    6  A    between atoms: C_10  and  C_21
    7  A    between atoms: C_11  and  C_17
    8  A    between atoms: S_22  and  C_25
    9  A    between atoms: C_25  and  N_27
                            x       y       z     vdW  Elec       q    Type
                         _______ _______ _______ _____ _____    ______ ____

>  <TORSDO>
F 9

$$$$
=
 OpenBabel11052410503D

 28 31  0  0  1  0  0  0  0  0999 V2000
  162.1460  204.9280  152.0530 C   0  0  0  0  0  2  0  0  0  0  0  0
  160.0680  203.7080  151.5000 O   0  0  0  0  0  0  0  0  0  0  0  0
  160.8320  203.4230  148.8460 O   0  0  0  0  0  0  0  0  0  0  0  0
  161.3110  204.5480  149.5400 C   0  0  2  0  0  3  0  0  0  0  0  0
  161.2710  204.2450  151.0160 C   0  0  1  0  0  0  0  0  0  0  0  0
  161.1050  202.8100  151.1590 C   0  0  2  0  0  3  0  0  0  0  0  0
  160.9160  202.3290  149.7320 C   0  0  0  0  0  2  0  0  0  0  0  0
  160.4550  205.7670  149.2270 C   0  0  0  0  0  2  0  0  0  0  0  0
  160.9060  206.4050  147.9600 C   0  0  0  0  0  0  0  0  0  0  0  0
  161.7510  207.3400  147.9980 O   0  0  0  0  0  0  0  0  0  0  0  0
  160.4000  205.9320  146.7110 N   0  0  0  0  0  2  0  0  0  0  0  0
  160.8620  206.4480  145.4310 C   0  0  0  0  0  2  0  0  0  0  0  0
  161.2060  205.0770  144.2830 S   0  0  0  0  0  0  0  0  0  0  0  0
  162.0800  204.1030  145.5440 C   0  0  0  0  0  2  0  0  0  0  0  0
  163.3040  204.7030  145.8400 O   0  0  0  0  0  1  0  0  0  0  0  0
  161.3160  205.3840  153.2420 C   0  0  0  0  0  2  0  0  0  0  0  0
  160.6370  208.8650  154.3890 C   0  0  0  0  0  0  0  0  0  0  0  0
  161.0340  209.6420  153.2810 C   0  0  0  0  0  0  0  0  0  0  0  0
  161.6180  207.5990  152.1250 C   0  0  0  0  0  3  0  0  0  0  0  0
  160.4570  211.6340  154.4430 C   0  0  0  0  0  3  0  0  0  0  0  0
  160.0540  210.8960  155.5590 C   0  0  0  0  0  3  0  0  0  0  0  0
  160.9330  211.0000  153.3370 N   0  0  0  0  0  0  0  0  0  0  0  0
  161.2060  206.8680  153.2440 C   0  0  0  0  0  0  0  0  0  0  0  0
  161.5300  208.9930  152.1390 C   0  0  0  0  0  0  0  0  0  0  0  0
  160.7330  207.5110  154.3460 N   0  0  0  0  0  0  0  0  0  0  0  0
  160.1460  209.5030  155.5290 C   0  0  0  0  0  3  0  0  0  0  0  0
  161.9540  209.7320  150.9780 C   0  0  0  0  0  0  0  0  0  0  0  0
  162.2960  210.3260  150.0460 N   0  0  0  0  0  0  0  0  0  0  0  0
  1 16  1  0  0  0  0
  3  4  1  0  0  0  0
  3  7  1  0  0  0  0
  4  8  1  1  0  0  0
  4  5  1  0  0  0  0
  5  6  1  0  0  0  0
  5  2  1  0  0  0  0
  5  1  1  1  0  0  0
  6  7  1  6  0  0  0
  6  2  1  0  0  0  0
  9 10  2  0  0  0  0
  9  8  1  0  0  0  0
 11  9  1  0  0  0  0
 12 11  1  0  0  0  0
 13 12  1  0  0  0  0
 13 14  1  0  0  0  0
 14 15  1  0  0  0  0
 16 23  1  0  0  0  0
 17 26  1  0  0  0  0
 18 22  1  0  0  0  0
 18 17  2  0  0  0  0
 19 24  2  0  0  0  0
 19 23  1  0  0  0  0
 20 21  1  0  0  0  0
 22 20  2  0  0  0  0
 23 25  2  0  0  0  0
 24 18  1  0  0  0  0
 25 17  1  0  0  0  0
 26 21  2  0  0  0  0
 27 24  1  0  0  0  0
 28 27  3  0  0  0  0
M  END
>  <MODEL>
6

>  <REMARK>
 VINA RESULT:      -7.2      3.313      6.829
  Name = 
  9 active torsions:
  status: ('A' for Active; 'I' for Inactive)
    1  A    between atoms: C_1  and  C_3
    2  A    between atoms: C_1  and  C_20
    3  A    between atoms: C_3  and  C_13
    4  A    between atoms: C_4  and  S_22
    5  A    between atoms: C_6  and  C_17
    6  A    between atoms: C_10  and  C_21
    7  A    between atoms: C_11  and  C_17
    8  A    between atoms: S_22  and  C_25
    9  A    between atoms: C_25  and  N_27
                            x       y       z     vdW  Elec       q    Type
                         _______ _______ _______ _____ _____    ______ ____

>  <TORSDO>
F 9

$$$$
=
 OpenBabel11052410503D

 28 31  0  0  1  0  0  0  0  0999 V2000
  161.1740  203.7330  151.8030 C   0  0  0  0  0  2  0  0  0  0  0  0
  159.6240  202.7310  150.1580 O   0  0  0  0  0  0  0  0  0  0  0  0
  161.3180  203.3480  148.0480 O   0  0  0  0  0  0  0  0  0  0  0  0
  161.3550  204.1900  149.1730 C   0  0  2  0  0  3  0  0  0  0  0  0
  160.8320  203.4170  150.3570 C   0  0  1  0  0  0  0  0  0  0  0  0
  160.8290  202.0120  149.9900 C   0  0  2  0  0  3  0  0  0  0  0  0
  161.2330  202.0250  148.5270 C   0  0  0  0  0  2  0  0  0  0  0  0
  160.5060  205.4290  148.9350 C   0  0  0  0  0  2  0  0  0  0  0  0
  160.9000  206.0910  147.6610 C   0  0  0  0  0  0  0  0  0  0  0  0
  161.9620  206.7700  147.6130 O   0  0  0  0  0  0  0  0  0  0  0  0
  160.0900  205.9240  146.4970 N   0  0  0  0  0  2  0  0  0  0  0  0
  160.4590  206.4670  145.1980 C   0  0  0  0  0  2  0  0  0  0  0  0
  161.4020  205.2350  144.2440 S   0  0  0  0  0  0  0  0  0  0  0  0
  160.1630  203.9320  144.5030 C   0  0  0  0  0  2  0  0  0  0  0  0
  160.7740  202.8000  145.0440 O   0  0  0  0  0  1  0  0  0  0  0  0
  162.3380  204.7070  151.8800 C   0  0  0  0  0  2  0  0  0  0  0  0
  161.5640  208.3450  152.1370 C   0  0  0  0  0  0  0  0  0  0  0  0
  160.9710  208.4480  153.4120 C   0  0  0  0  0  0  0  0  0  0  0  0
  161.2850  206.0660  153.6930 C   0  0  0  0  0  3  0  0  0  0  0  0
  160.6700  210.7870  153.1070 C   0  0  0  0  0  3  0  0  0  0  0  0
  161.2530  210.7210  151.8380 C   0  0  0  0  0  3  0  0  0  0  0  0
  160.5420  209.6620  153.8610 N   0  0  0  0  0  0  0  0  0  0  0  0
  161.8730  206.0110  152.4260 C   0  0  0  0  0  0  0  0  0  0  0  0
  160.8330  207.2900  154.1930 C   0  0  0  0  0  0  0  0  0  0  0  0
  161.9950  207.1410  151.6770 N   0  0  0  0  0  0  0  0  0  0  0  0
  161.7020  209.4910  151.3530 C   0  0  0  0  0  3  0  0  0  0  0  0
  160.2330  207.3320  155.5020 C   0  0  0  0  0  0  0  0  0  0  0  0
  159.7510  207.3670  156.5530 N   0  0  0  0  0  0  0  0  0  0  0  0
  1 16  1  0  0  0  0
  2  5  1  0  0  0  0
  3  7  1  0  0  0  0
  3  4  1  0  0  0  0
  4  8  1  6  0  0  0
  4  5  1  0  0  0  0
  5  1  1  1  0  0  0
  6  7  1  6  0  0  0
  6  2  1  0  0  0  0
  6  5  1  0  0  0  0
  9  8  1  0  0  0  0
 10  9  2  0  0  0  0
 11  9  1  0  0  0  0
 12 11  1  0  0  0  0
 13 14  1  0  0  0  0
 13 12  1  0  0  0  0
 14 15  1  0  0  0  0
 16 23  1  0  0  0  0
 17 18  1  0  0  0  0
 18 22  1  0  0  0  0
 18 24  2  0  0  0  0
 19 24  1  0  0  0  0
 20 22  2  0  0  0  0
 21 20  1  0  0  0  0
 23 19  2  0  0  0  0
 24 27  1  0  0  0  0
 25 17  2  0  0  0  0
 25 23  1  0  0  0  0
 26 21  2  0  0  0  0
 26 17  1  0  0  0  0
 27 28  3  0  0  0  0
M  END
>  <MODEL>
7

>  <REMARK>
 VINA RESULT:      -7.1      3.558      7.172
  Name = 
  9 active torsions:
  status: ('A' for Active; 'I' for Inactive)
    1  A    between atoms: C_1  and  C_3
    2  A    between atoms: C_1  and  C_20
    3  A    between atoms: C_3  and  C_13
    4  A    between atoms: C_4  and  S_22
    5  A    between atoms: C_6  and  C_17
    6  A    between atoms: C_10  and  C_21
    7  A    between atoms: C_11  and  C_17
    8  A    between atoms: S_22  and  C_25
    9  A    between atoms: C_25  and  N_27
                            x       y       z     vdW  Elec       q    Type
                         _______ _______ _______ _____ _____    ______ ____

>  <TORSDO>
F 9

$$$$
=
 OpenBabel11052410503D

 28 31  0  0  1  0  0  0  0  0999 V2000
  162.3110  206.2050  151.5550 C   0  0  0  0  0  2  0  0  0  0  0  0
  160.8300  208.1040  150.9950 O   0  0  0  0  0  0  0  0  0  0  0  0
  161.9600  209.6890  152.9750 O   0  0  0  0  0  0  0  0  0  0  0  0
  161.9570  208.2980  153.1830 C   0  0  2  0  0  3  0  0  0  0  0  0
  161.8400  207.6200  151.8420 C   0  0  1  0  0  0  0  0  0  0  0  0
  162.1370  208.6150  150.8260 C   0  0  2  0  0  3  0  0  0  0  0  0
  162.2900  209.9000  151.6200 C   0  0  0  0  0  2  0  0  0  0  0  0
  160.7940  207.9010  154.0800 C   0  0  0  0  0  2  0  0  0  0  0  0
  160.8050  208.7060  155.3310 C   0  0  0  0  0  0  0  0  0  0  0  0
  161.7930  208.6340  156.1110 O   0  0  0  0  0  0  0  0  0  0  0  0
  159.7110  209.5780  155.6210 N   0  0  0  0  0  2  0  0  0  0  0  0
  159.6950  210.4590  156.7790 C   0  0  0  0  0  2  0  0  0  0  0  0
  158.5860  211.8730  156.4820 S   0  0  0  0  0  0  0  0  0  0  0  0
  159.6350  212.5530  155.1630 C   0  0  0  0  0  2  0  0  0  0  0  0
  159.0050  213.6510  154.5770 O   0  0  0  0  0  1  0  0  0  0  0  0
  161.1280  205.2830  151.3080 C   0  0  0  0  0  2  0  0  0  0  0  0
  161.2540  205.2500  147.5820 C   0  0  0  0  0  0  0  0  0  0  0  0
  161.2530  203.8710  147.2830 C   0  0  0  0  0  0  0  0  0  0  0  0
  161.1600  203.4100  149.6560 C   0  0  0  0  0  3  0  0  0  0  0  0
  161.3500  204.3540  144.9570 C   0  0  0  0  0  3  0  0  0  0  0  0
  161.3530  205.7270  145.2180 C   0  0  0  0  0  3  0  0  0  0  0  0
  161.3000  203.4620  145.9830 N   0  0  0  0  0  0  0  0  0  0  0  0
  161.1570  204.7850  149.9060 C   0  0  0  0  0  0  0  0  0  0  0  0
  161.2060  202.9460  148.3380 C   0  0  0  0  0  0  0  0  0  0  0  0
  161.2090  205.6700  148.8730 N   0  0  0  0  0  0  0  0  0  0  0  0
  161.3040  206.1750  146.5390 C   0  0  0  0  0  3  0  0  0  0  0  0
  161.2050  201.5270  148.0960 C   0  0  0  0  0  0  0  0  0  0  0  0
  161.2040  200.3870  147.8990 N   0  0  0  0  0  0  0  0  0  0  0  0
  2  5  1  0  0  0  0
  3  4  1  0  0  0  0
  4  8  1  1  0  0  0
  5  1  1  6  0  0  0
  5  4  1  0  0  0  0
  6  2  1  0  0  0  0
  6  7  1  1  0  0  0
  6  5  1  0  0  0  0
  7  3  1  0  0  0  0
  8  9  1  0  0  0  0
  9 11  1  0  0  0  0
  9 10  2  0  0  0  0
 11 12  1  0  0  0  0
 13 12  1  0  0  0  0
 14 13  1  0  0  0  0
 15 14  1  0  0  0  0
 16  1  1  0  0  0  0
 17 25  1  0  0  0  0
 18 17  1  0  0  0  0
 18 24  1  0  0  0  0
 19 23  1  0  0  0  0
 20 21  2  0  0  0  0
 20 22  1  0  0  0  0
 21 26  1  0  0  0  0
 22 18  2  0  0  0  0
 23 16  1  0  0  0  0
 24 19  2  0  0  0  0
 25 23  2  0  0  0  0
 26 17  2  0  0  0  0
 27 24  1  0  0  0  0
 28 27  3  0  0  0  0
M  END
>  <MODEL>
8

>  <REMARK>
 VINA RESULT:      -7.0      3.372      5.334
  Name = 
  9 active torsions:
  status: ('A' for Active; 'I' for Inactive)
    1  A    between atoms: C_1  and  C_3
    2  A    between atoms: C_1  and  C_20
    3  A    between atoms: C_3  and  C_13
    4  A    between atoms: C_4  and  S_22
    5  A    between atoms: C_6  and  C_17
    6  A    between atoms: C_10  and  C_21
    7  A    between atoms: C_11  and  C_17
    8  A    between atoms: S_22  and  C_25
    9  A    between atoms: C_25  and  N_27
                            x       y       z     vdW  Elec       q    Type
                         _______ _______ _______ _____ _____    ______ ____

>  <TORSDO>
F 9

$$$$
=
 OpenBabel11052410503D

 28 31  0  0  1  0  0  0  0  0999 V2000
  162.0320  206.4510  152.2950 C   0  0  0  0  0  2  0  0  0  0  0  0
  160.4860  208.2720  151.6550 O   0  0  0  0  0  0  0  0  0  0  0  0
  161.5360  209.9670  153.5860 O   0  0  0  0  0  0  0  0  0  0  0  0
  161.5820  208.5860  153.8440 C   0  0  2  0  0  3  0  0  0  0  0  0
  161.5040  207.8570  152.5270 C   0  0  1  0  0  0  0  0  0  0  0  0
  161.7750  208.8260  151.4790 C   0  0  2  0  0  3  0  0  0  0  0  0
  161.8720  210.1420  152.2280 C   0  0  0  0  0  2  0  0  0  0  0  0
  160.4260  208.1770  154.7440 C   0  0  0  0  0  2  0  0  0  0  0  0
  160.2770  209.1420  155.8680 C   0  0  0  0  0  0  0  0  0  0  0  0
  161.0750  209.0920  156.8430 O   0  0  0  0  0  0  0  0  0  0  0  0
  159.2510  210.1340  155.8160 N   0  0  0  0  0  2  0  0  0  0  0  0
  159.1030  211.1640  156.8340 C   0  0  0  0  0  2  0  0  0  0  0  0
  157.4160  211.8490  156.7990 S   0  0  0  0  0  0  0  0  0  0  0  0
  157.0780  211.2070  155.1330 C   0  0  0  0  0  2  0  0  0  0  0  0
  155.9060  211.7770  154.6360 O   0  0  0  0  0  1  0  0  0  0  0  0
  160.8850  205.4640  152.1510 C   0  0  0  0  0  2  0  0  0  0  0  0
  161.0580  202.7130  149.6400 C   0  0  0  0  0  0  0  0  0  0  0  0
  161.1370  203.4120  148.4170 C   0  0  0  0  0  0  0  0  0  0  0  0
  161.0580  205.4870  149.6590 C   0  0  0  0  0  3  0  0  0  0  0  0
  161.2070  201.3580  147.2220 C   0  0  0  0  0  3  0  0  0  0  0  0
  161.1300  200.6340  148.4150 C   0  0  0  0  0  3  0  0  0  0  0  0
  161.2100  202.7180  147.2460 N   0  0  0  0  0  0  0  0  0  0  0  0
  160.9880  204.7540  150.8470 C   0  0  0  0  0  0  0  0  0  0  0  0
  161.1350  204.8160  148.4350 C   0  0  0  0  0  0  0  0  0  0  0  0
  160.9840  203.3930  150.8130 N   0  0  0  0  0  0  0  0  0  0  0  0
  161.0560  201.3180  149.6300 C   0  0  0  0  0  3  0  0  0  0  0  0
  161.2110  205.5840  147.2200 C   0  0  0  0  0  0  0  0  0  0  0  0
  161.2700  206.2030  146.2430 N   0  0  0  0  0  0  0  0  0  0  0  0
  2  5  1  0  0  0  0
  3  4  1  0  0  0  0
  4  8  1  1  0  0  0
  5  1  1  6  0  0  0
  5  4  1  0  0  0  0
  6  2  1  0  0  0  0
  6  7  1  1  0  0  0
  6  5  1  0  0  0  0
  7  3  1  0  0  0  0
  8  9  1  0  0  0  0
  9 10  2  0  0  0  0
 11  9  1  0  0  0  0
 11 12  1  0  0  0  0
 13 12  1  0  0  0  0
 14 13  1  0  0  0  0
 15 14  1  0  0  0  0
 16  1  1  0  0  0  0
 17 25  1  0  0  0  0
 18 24  1  0  0  0  0
 18 17  2  0  0  0  0
 19 23  1  0  0  0  0
 20 22  2  0  0  0  0
 20 21  1  0  0  0  0
 21 26  2  0  0  0  0
 22 18  1  0  0  0  0
 23 16  1  0  0  0  0
 24 19  2  0  0  0  0
 25 23  2  0  0  0  0
 26 17  1  0  0  0  0
 27 24  1  0  0  0  0
 28 27  3  0  0  0  0
M  END
>  <MODEL>
9

>  <REMARK>
 VINA RESULT:      -7.0      3.473      4.945
  Name = 
  9 active torsions:
  status: ('A' for Active; 'I' for Inactive)
    1  A    between atoms: C_1  and  C_3
    2  A    between atoms: C_1  and  C_20
    3  A    between atoms: C_3  and  C_13
    4  A    between atoms: C_4  and  S_22
    5  A    between atoms: C_6  and  C_17
    6  A    between atoms: C_10  and  C_21
    7  A    between atoms: C_11  and  C_17
    8  A    between atoms: S_22  and  C_25
    9  A    between atoms: C_25  and  N_27
                            x       y       z     vdW  Elec       q    Type
                         _______ _______ _______ _____ _____    ______ ____

>  <TORSDO>
F 9

$$$$
