=
 OpenBabel11052411333D

 66 71  0  0  1  0  0  0  0  0999 V2000
  160.3650  210.0350  153.9410 C   0  0  2  0  0  3  0  0  0  0  0  0
  161.1870  207.7260  154.5080 C   0  0  0  0  0  2  0  0  0  0  0  0
  161.2320  209.2030  154.8820 C   0  0  0  0  0  2  0  0  0  0  0  0
  161.9050  207.4770  153.3270 O   0  0  0  0  0  0  0  0  0  0  0  0
  161.2630  209.1040  151.6710 C   0  0  0  0  0  2  0  0  0  0  0  0
  161.1110  210.3210  152.6150 C   0  0  1  0  0  3  0  0  0  0  0  0
  160.9970  207.7270  152.2870 C   0  0  1  0  0  3  0  0  0  0  0  0
  161.0820  206.6780  151.2210 C   0  0  0  0  0  0  0  0  0  0  0  0
  160.0020  206.5330  150.2980 N   0  0  0  0  0  2  0  0  0  0  0  0
  162.0890  205.9200  151.1370 O   0  0  0  0  0  0  0  0  0  0  0  0
  161.2770  206.6810  148.1950 C   0  0  0  0  0  0  0  0  0  0  0  0
  160.2420  206.0950  148.9830 N   0  0  0  0  0  2  0  0  0  0  0  0
  161.6850  207.8420  148.4530 O   0  0  0  0  0  0  0  0  0  0  0  0
  161.8650  205.9170  147.0500 C   0  0  0  0  0  2  0  0  0  0  0  0
  160.6150  202.4780  146.3490 C   0  0  0  0  0  0  0  0  0  0  0  0
  161.6440  204.4850  147.2170 N   0  0  0  0  0  0  0  0  0  0  0  0
  160.1760  202.0930  147.7490 C   0  0  0  0  0  2  0  0  0  0  0  0
  161.7300  203.9130  148.5480 C   0  0  0  0  0  2  0  0  0  0  0  0
  161.2190  203.6780  146.1080 C   0  0  0  0  0  0  0  0  0  0  0  0
  160.4390  203.1700  148.8330 C   0  0  2  0  0  3  0  0  0  0  0  0
  160.4450  202.6890  150.2230 N   0  0  0  0  0  0  0  0  0  0  0  0
  161.8370  202.7090  152.1810 C   0  0  0  0  0  2  0  0  0  0  0  0
  161.1340  203.5750  151.1620 C   0  0  0  0  0  2  0  0  0  0  0  0
  161.1730  201.4270  150.2450 C   0  0  0  0  0  2  0  0  0  0  0  0
  161.8890  201.3270  151.5760 C   0  0  0  0  0  2  0  0  0  0  0  0
  160.9050  200.0780  145.4330 C   0  0  0  0  0  1  0  0  0  0  0  0
  159.6450  201.7480  144.3120 O   0  0  0  0  0  0  0  0  0  0  0  0
  160.3810  201.4690  145.2960 C   0  0  0  0  0  0  0  0  0  0  0  0
  161.4470  204.1790  144.8170 O   0  0  0  0  0  0  0  0  0  0  0  0
  162.1500  205.3970  144.5310 C   0  0  0  0  0  1  0  0  0  0  0  0
  159.9820  211.2800  154.6910 C   0  0  0  0  0  0  0  0  0  0  0  0
  160.5610  212.3350  154.4600 O   0  0  0  0  0  0  0  0  0  0  0  0
  158.9970  211.1700  155.8190 C   0  0  0  0  0  2  0  0  0  0  0  0
  157.6790  210.5500  155.3660 C   0  0  0  0  0  2  0  0  0  0  0  0
  154.4810  211.5480  157.2600 C   0  0  0  0  0  1  0  0  0  0  0  0
  156.7850  212.3330  156.8450 C   0  0  0  0  0  2  0  0  0  0  0  0
  156.4300  211.3830  155.7220 C   0  0  2  0  0  3  0  0  0  0  0  0
  155.9360  211.1180  157.1420 C   0  0  2  0  0  3  0  0  0  0  0  0
  160.6720  211.6080  151.8800 C   0  0  1  0  0  3  0  0  0  0  0  0
  161.5170  212.4140  149.7000 C   0  0  0  0  0  3  0  0  0  0  0  0
  160.8700  211.4720  150.3940 C   0  0  0  0  0  3  0  0  0  0  0  0
  161.5700  212.8980  145.8850 C   0  0  0  0  0  2  0  0  0  0  0  0
  161.2420  213.0570  147.3040 C   0  0  0  0  0  0  0  0  0  0  0  0
  160.8110  213.9670  145.2210 N   0  0  0  0  0  0  0  0  0  0  0  0
  160.1700  213.9360  147.5040 N   0  0  0  0  0  2  0  0  0  0  0  0
  161.8160  212.3270  148.2670 C   0  0  0  0  0  3  0  0  0  0  0  0
  159.7990  214.4440  146.1850 C   0  0  0  0  0  2  0  0  0  0  0  0
  160.1970  213.5170  143.9540 C   0  0  2  0  0  3  0  0  0  0  0  0
  160.9030  213.1580  141.4530 C   0  0  2  0  0  3  0  0  0  0  0  0
  160.8790  214.0870  142.6620 C   0  0  2  0  0  3  0  0  0  0  0  0
  162.9410  213.3820  142.5170 O   0  0  0  0  0  0  0  0  0  0  0  0
  160.2940  211.9260  141.7260 O   0  0  0  0  0  1  0  0  0  0  0  0
  162.3990  213.0170  141.2820 C   0  0  1  0  0  3  0  0  0  0  0  0
  162.2220  214.4360  142.8810 O   0  0  0  0  0  0  0  0  0  0  0  0
  162.8870  211.6490  140.8420 C   0  0  0  0  0  3  0  0  0  0  0  0
  163.2940  211.4440  139.7000 O   0  0  0  0  0  0  0  0  0  0  0  0
  158.6830  213.8000  144.0030 C   0  0  0  0  0  3  0  0  0  0  0  0
  158.2110  214.2010  142.7470 O   0  0  0  0  0  1  0  0  0  0  0  0
  157.9750  212.6810  144.4430 O   0  0  0  0  0  1  0  0  0  0  0  0
  159.2370  212.0450  152.2320 C   0  0  0  0  0  2  0  0  0  0  0  0
  158.8670  213.3640  151.5700 C   0  0  2  0  0  3  0  0  0  0  0  0
  158.4910  214.3980  152.6070 C   0  0  0  0  0  2  0  0  0  0  0  0
  157.3890  213.8770  153.5050 C   0  0  0  0  0  1  0  0  0  0  0  0
  157.7190  213.1470  150.5950 C   0  0  0  0  0  2  0  0  0  0  0  0
  157.1910  214.4500  150.2090 N   0  0  0  0  0  2  0  0  0  0  0  0
  156.5410  214.2610  148.9220 C   0  0  0  0  0  1  0  0  0  0  0  0
  1 31  1  1  0  0  0
  1  3  1  0  0  0  0
  2  3  1  0  0  0  0
  4  2  1  0  0  0  0
  5  7  1  0  0  0  0
  5  6  1  0  0  0  0
  6 39  1  6  0  0  0
  6  1  1  0  0  0  0
  7  8  1  6  0  0  0
  7  4  1  0  0  0  0
  9  8  1  0  0  0  0
 10  8  2  0  0  0  0
 11 13  2  0  0  0  0
 11 12  1  0  0  0  0
 12  9  1  0  0  0  0
 14 16  1  0  0  0  0
 14 11  1  0  0  0  0
 15 17  1  0  0  0  0
 16 18  1  0  0  0  0
 18 20  1  0  0  0  0
 19 15  2  0  0  0  0
 19 16  1  0  0  0  0
 20 17  1  6  0  0  0
 20 21  1  0  0  0  0
 21 24  1  0  0  0  0
 21 23  1  0  0  0  0
 23 22  1  0  0  0  0
 24 25  1  0  0  0  0
 25 22  1  0  0  0  0
 27 28  2  0  0  0  0
 28 26  1  0  0  0  0
 28 15  1  0  0  0  0
 29 19  1  0  0  0  0
 30 29  1  0  0  0  0
 31 33  1  0  0  0  0
 32 31  2  0  0  0  0
 34 33  1  0  0  0  0
 36 38  1  0  0  0  0
 37 34  1  1  0  0  0
 37 36  1  0  0  0  0
 37 38  1  0  0  0  0
 38 35  1  6  0  0  0
 39 41  1  6  0  0  0
 39 60  1  0  0  0  0
 40 41  2  0  0  0  0
 42 43  1  0  0  0  0
 43 45  1  0  0  0  0
 43 46  2  0  0  0  0
 44 42  1  0  0  0  0
 44 47  1  0  0  0  0
 46 40  1  0  0  0  0
 47 45  1  0  0  0  0
 48 57  1  1  0  0  0
 48 44  1  0  0  0  0
 49 52  1  1  0  0  0
 49 50  1  0  0  0  0
 50 54  1  0  0  0  0
 50 48  1  1  0  0  0
 51 54  1  0  0  0  0
 53 55  1  1  0  0  0
 53 49  1  0  0  0  0
 53 51  1  0  0  0  0
 56 55  2  0  0  0  0
 57 59  1  0  0  0  0
 58 57  1  0  0  0  0
 61 64  1  6  0  0  0
 61 60  1  0  0  0  0
 61 62  1  0  0  0  0
 62 63  1  0  0  0  0
 65 64  1  0  0  0  0
 66 65  1  0  0  0  0
M  END
>  <MODEL>
1

>  <REMARK>
 VINA RESULT:      -4.7      0.000      0.000
  Name = 
  23 active torsions:
  status: ('A' for Active; 'I' for Inactive)
    1  A    between atoms: C_1  and  C_11
    2  A    between atoms: N_2  and  C_52
    3  A    between atoms: C_3  and  C_49
    4  A    between atoms: C_4  and  C_11
    5  A    between atoms: C_4  and  C_14
    6  A    between atoms: C_7  and  C_64
    7  A    between atoms: C_9  and  C_45
    8  A    between atoms: C_14  and  C_32
    9  A    between atoms: O_15  and  C_44
   10  A    between atoms: C_18  and  N_20
   11  A    between atoms: C_18  and  C_22
   12  A    between atoms: C_19  and  C_54
   13  A    between atoms: C_21  and  C_25
   14  A    between atoms: C_21  and  C_52
   15  A    between atoms: C_21  and  C_55
   16  A    between atoms: N_24  and  C_48
   17  A    between atoms: C_25  and  C_63
   18  A    between atoms: N_28  and  C_45
   19  A    between atoms: N_30  and  N_53
   20  A    between atoms: C_38  and  C_60
   21  A    between atoms: C_43  and  C_63
   22  A    between atoms: C_45  and  C_46
   23  A    between atoms: C_47  and  C_63
                            x       y       z     vdW  Elec       q    Type
                         _______ _______ _______ _____ _____    ______ ____

>  <TORSDO>
F 23

$$$$
=
 OpenBabel11052411333D

 66 71  0  0  1  0  0  0  0  0999 V2000
  161.2540  205.5730  148.8550 C   0  0  2  0  0  3  0  0  0  0  0  0
  161.8330  207.4210  147.2490 C   0  0  0  0  0  2  0  0  0  0  0  0
  161.9670  205.9340  147.5550 C   0  0  0  0  0  2  0  0  0  0  0  0
  162.6260  208.1920  148.1140 O   0  0  0  0  0  0  0  0  0  0  0  0
  162.2630  207.4440  150.3750 C   0  0  0  0  0  2  0  0  0  0  0  0
  162.1310  205.9310  150.0800 C   0  0  1  0  0  3  0  0  0  0  0  0
  161.8330  208.3960  149.2530 C   0  0  1  0  0  3  0  0  0  0  0  0
  161.9230  209.8110  149.7370 C   0  0  0  0  0  0  0  0  0  0  0  0
  162.4100  210.8200  148.8520 N   0  0  0  0  0  0  0  0  0  0  0  0
  161.5820  210.1160  150.9150 O   0  0  0  0  0  0  0  0  0  0  0  0
  162.5710  213.1960  148.2230 C   0  0  0  0  0  0  0  0  0  0  0  0
  161.9470  212.1440  148.9570 N   0  0  0  0  0  0  0  0  0  0  0  0
  163.7620  213.0770  147.8390 O   0  0  0  0  0  0  0  0  0  0  0  0
  161.8110  214.4510  147.9260 C   0  0  0  0  0  2  0  0  0  0  0  0
  158.6120  213.3740  146.3480 C   0  0  0  0  0  0  0  0  0  0  0  0
  160.8120  214.2140  146.8890 N   0  0  0  0  0  0  0  0  0  0  0  0
  159.1720  212.6950  145.1110 C   0  0  0  0  0  2  0  0  0  0  0  0
  161.2510  214.0670  145.5140 C   0  0  0  0  0  2  0  0  0  0  0  0
  159.4350  214.0020  147.2370 C   0  0  0  0  0  0  0  0  0  0  0  0
  160.7160  212.7510  144.9810 C   0  0  2  0  0  3  0  0  0  0  0  0
  161.2510  212.5130  143.6320 N   0  0  0  0  0  0  0  0  0  0  0  0
  161.6760  213.6840  141.5770 C   0  0  0  0  0  2  0  0  0  0  0  0
  161.9650  213.6550  143.0600 C   0  0  0  0  0  2  0  0  0  0  0  0
  160.1190  212.2580  142.7510 C   0  0  0  0  0  2  0  0  0  0  0  0
  160.4640  212.8040  141.3810 C   0  0  0  0  0  2  0  0  0  0  0  0
  156.4110  214.4530  147.1720 C   0  0  0  0  0  1  0  0  0  0  0  0
  156.4800  212.4120  145.9600 O   0  0  0  0  0  0  0  0  0  0  0  0
  157.1430  213.3400  146.4960 C   0  0  0  0  0  0  0  0  0  0  0  0
  159.0070  214.4520  148.4950 O   0  0  0  0  0  0  0  0  0  0  0  0
  158.7130  213.5960  149.6080 C   0  0  0  0  0  1  0  0  0  0  0  0
  160.9130  204.1120  148.7720 C   0  0  0  0  0  0  0  0  0  0  0  0
  159.9010  203.6880  149.3180 O   0  0  0  0  0  0  0  0  0  0  0  0
  161.9040  203.1730  148.1450 C   0  0  0  0  0  2  0  0  0  0  0  0
  161.2420  201.8910  147.6510 C   0  0  0  0  0  2  0  0  0  0  0  0
  159.6790  203.3830  144.4680 C   0  0  0  0  0  1  0  0  0  0  0  0
  160.5770  201.2570  145.3450 C   0  0  0  0  0  2  0  0  0  0  0  0
  160.1950  202.1050  146.5390 C   0  0  2  0  0  3  0  0  0  0  0  0
  160.7910  202.7530  145.2920 C   0  0  2  0  0  3  0  0  0  0  0  0
  161.8630  205.0870  151.3470 C   0  0  1  0  0  3  0  0  0  0  0  0
  160.7200  205.8100  153.4170 C   0  0  0  0  0  3  0  0  0  0  0  0
  161.7340  205.9680  152.5600 C   0  0  0  0  0  3  0  0  0  0  0  0
  160.2560  208.6010  156.0210 C   0  0  0  0  0  2  0  0  0  0  0  0
  160.3840  207.8970  154.7420 C   0  0  0  0  0  0  0  0  0  0  0  0
  159.9610  209.9890  155.6360 N   0  0  0  0  0  0  0  0  0  0  0  0
  160.4560  208.7800  153.6570 N   0  0  0  0  0  2  0  0  0  0  0  0
  160.5570  206.5740  154.6570 C   0  0  0  0  0  3  0  0  0  0  0  0
  160.3040  210.1250  154.2070 C   0  0  0  0  0  2  0  0  0  0  0  0
  160.6830  210.9690  156.4740 C   0  0  2  0  0  3  0  0  0  0  0  0
  158.5120  212.3740  156.9150 C   0  0  2  0  0  3  0  0  0  0  0  0
  159.9970  212.3760  156.5680 C   0  0  2  0  0  3  0  0  0  0  0  0
  158.9680  212.8470  154.7010 O   0  0  0  0  0  0  0  0  0  0  0  0
  158.0160  211.0750  157.0890 O   0  0  0  0  0  1  0  0  0  0  0  0
  157.9670  213.0180  155.6590 C   0  0  1  0  0  3  0  0  0  0  0  0
  160.0900  213.0940  155.3640 O   0  0  0  0  0  0  0  0  0  0  0  0
  156.6320  212.4850  155.1710 C   0  0  0  0  0  3  0  0  0  0  0  0
  156.5610  211.5560  154.3700 O   0  0  0  0  0  0  0  0  0  0  0  0
  162.1470  211.0510  155.9990 C   0  0  0  0  0  3  0  0  0  0  0  0
  162.9240  211.7860  156.9030 O   0  0  0  0  0  1  0  0  0  0  0  0
  162.6930  209.7790  155.8260 O   0  0  0  0  0  1  0  0  0  0  0  0
  160.6620  204.1340  151.1950 C   0  0  0  0  0  2  0  0  0  0  0  0
  160.9350  202.7730  151.8170 C   0  0  2  0  0  3  0  0  0  0  0  0
  162.3640  202.6830  152.3060 C   0  0  0  0  0  2  0  0  0  0  0  0
  163.0180  201.4120  151.8090 C   0  0  0  0  0  1  0  0  0  0  0  0
  160.6510  201.6770  150.8020 C   0  0  0  0  0  2  0  0  0  0  0  0
  159.2590  201.2660  150.9450 N   0  0  0  0  0  2  0  0  0  0  0  0
  158.8990  200.6040  149.7020 C   0  0  0  0  0  1  0  0  0  0  0  0
  1 31  1  6  0  0  0
  1  6  1  0  0  0  0
  2  3  1  0  0  0  0
  2  4  1  0  0  0  0
  3  1  1  0  0  0  0
  4  7  1  0  0  0  0
  6  5  1  0  0  0  0
  6 39  1  1  0  0  0
  7  8  1  1  0  0  0
  7  5  1  0  0  0  0
  8 10  2  0  0  0  0
  9 12  2  0  0  0  0
  9  8  1  0  0  0  0
 11 12  1  0  0  0  0
 13 11  2  0  0  0  0
 14 11  1  0  0  0  0
 15 28  1  0  0  0  0
 15 19  2  0  0  0  0
 16 19  1  0  0  0  0
 16 14  1  0  0  0  0
 17 15  1  0  0  0  0
 18 16  1  0  0  0  0
 19 29  1  0  0  0  0
 20 21  1  6  0  0  0
 20 17  1  0  0  0  0
 20 18  1  0  0  0  0
 22 23  1  0  0  0  0
 23 21  1  0  0  0  0
 24 21  1  0  0  0  0
 25 22  1  0  0  0  0
 25 24  1  0  0  0  0
 27 28  2  0  0  0  0
 28 26  1  0  0  0  0
 29 30  1  0  0  0  0
 31 32  2  0  0  0  0
 33 31  1  0  0  0  0
 34 33  1  0  0  0  0
 36 37  1  0  0  0  0
 37 34  1  1  0  0  0
 38 35  1  6  0  0  0
 38 36  1  0  0  0  0
 38 37  1  0  0  0  0
 39 60  1  6  0  0  0
 39 41  1  0  0  0  0
 40 46  1  0  0  0  0
 41 40  2  0  0  0  0
 43 42  1  0  0  0  0
 44 42  1  0  0  0  0
 44 48  1  0  0  0  0
 45 47  1  0  0  0  0
 45 43  1  0  0  0  0
 46 43  2  0  0  0  0
 47 44  1  0  0  0  0
 48 57  1  6  0  0  0
 49 52  1  6  0  0  0
 50 48  1  6  0  0  0
 50 49  1  0  0  0  0
 51 54  1  0  0  0  0
 51 53  1  0  0  0  0
 53 55  1  6  0  0  0
 53 49  1  0  0  0  0
 54 50  1  0  0  0  0
 56 55  2  0  0  0  0
 57 58  1  0  0  0  0
 59 57  1  0  0  0  0
 60 61  1  0  0  0  0
 61 64  1  6  0  0  0
 61 62  1  0  0  0  0
 63 62  1  0  0  0  0
 64 65  1  0  0  0  0
 66 65  1  0  0  0  0
M  END
>  <MODEL>
2

>  <REMARK>
 VINA RESULT:      -3.0      2.762     11.310
  Name = 
  23 active torsions:
  status: ('A' for Active; 'I' for Inactive)
    1  A    between atoms: C_1  and  C_11
    2  A    between atoms: N_2  and  C_52
    3  A    between atoms: C_3  and  C_49
    4  A    between atoms: C_4  and  C_11
    5  A    between atoms: C_4  and  C_14
    6  A    between atoms: C_7  and  C_64
    7  A    between atoms: C_9  and  C_45
    8  A    between atoms: C_14  and  C_32
    9  A    between atoms: O_15  and  C_44
   10  A    between atoms: C_18  and  N_20
   11  A    between atoms: C_18  and  C_22
   12  A    between atoms: C_19  and  C_54
   13  A    between atoms: C_21  and  C_25
   14  A    between atoms: C_21  and  C_52
   15  A    between atoms: C_21  and  C_55
   16  A    between atoms: N_24  and  C_48
   17  A    between atoms: C_25  and  C_63
   18  A    between atoms: N_28  and  C_45
   19  A    between atoms: N_30  and  N_53
   20  A    between atoms: C_38  and  C_60
   21  A    between atoms: C_43  and  C_63
   22  A    between atoms: C_45  and  C_46
   23  A    between atoms: C_47  and  C_63
                            x       y       z     vdW  Elec       q    Type
                         _______ _______ _______ _____ _____    ______ ____

>  <TORSDO>
F 23

$$$$
=
 OpenBabel11052411333D

 66 71  0  0  1  0  0  0  0  0999 V2000
  160.4070  210.1660  155.2920 C   0  0  2  0  0  3  0  0  0  0  0  0
  161.3510  207.9140  155.8950 C   0  0  0  0  0  2  0  0  0  0  0  0
  161.3240  209.3990  156.2400 C   0  0  0  0  0  2  0  0  0  0  0  0
  162.0700  207.6790  154.7120 O   0  0  0  0  0  0  0  0  0  0  0  0
  161.3300  209.2370  153.0310 C   0  0  0  0  0  2  0  0  0  0  0  0
  161.1250  210.4640  153.9530 C   0  0  1  0  0  3  0  0  0  0  0  0
  161.1400  207.8610  153.6770 C   0  0  1  0  0  3  0  0  0  0  0  0
  161.2680  206.7960  152.6310 C   0  0  0  0  0  0  0  0  0  0  0  0
  160.5280  205.5840  152.7760 N   0  0  0  0  0  2  0  0  0  0  0  0
  162.0270  206.9560  151.6330 O   0  0  0  0  0  0  0  0  0  0  0  0
  160.8740  203.8200  151.0920 C   0  0  0  0  0  0  0  0  0  0  0  0
  160.0890  204.8770  151.6430 N   0  0  0  0  0  2  0  0  0  0  0  0
  162.1140  203.7820  151.2970 O   0  0  0  0  0  0  0  0  0  0  0  0
  160.2210  202.7650  150.2550 C   0  0  0  0  0  2  0  0  0  0  0  0
  161.5840  203.5530  146.8790 C   0  0  0  0  0  0  0  0  0  0  0  0
  160.9370  202.5870  148.9970 N   0  0  0  0  0  0  0  0  0  0  0  0
  161.2670  202.2440  146.1810 C   0  0  0  0  0  2  0  0  0  0  0  0
  161.1470  201.2420  148.4930 C   0  0  0  0  0  2  0  0  0  0  0  0
  161.3160  203.7240  148.2060 C   0  0  0  0  0  0  0  0  0  0  0  0
  160.6000  201.1710  147.0810 C   0  0  2  0  0  3  0  0  0  0  0  0
  160.6810  199.7870  146.5910 N   0  0  0  0  0  0  0  0  0  0  0  0
  162.2390  198.2800  145.5550 C   0  0  0  0  0  2  0  0  0  0  0  0
  161.9980  199.1700  146.7520 C   0  0  0  0  0  2  0  0  0  0  0  0
  160.4160  199.8150  145.1580 C   0  0  0  0  0  2  0  0  0  0  0  0
  161.2370  198.7170  144.5130 C   0  0  0  0  0  2  0  0  0  0  0  0
  161.4480  205.7650  145.5470 C   0  0  0  0  0  1  0  0  0  0  0  0
  163.4660  204.5490  145.8340 O   0  0  0  0  0  0  0  0  0  0  0  0
  162.2250  204.5920  146.0470 C   0  0  0  0  0  0  0  0  0  0  0  0
  161.3820  204.9690  148.8500 O   0  0  0  0  0  0  0  0  0  0  0  0
  160.4090  206.0140  148.7020 C   0  0  0  0  0  1  0  0  0  0  0  0
  159.9690  211.4060  156.0210 C   0  0  0  0  0  0  0  0  0  0  0  0
  160.3930  212.5020  155.6750 O   0  0  0  0  0  0  0  0  0  0  0  0
  159.1320  211.2570  157.2610 C   0  0  0  0  0  2  0  0  0  0  0  0
  157.8550  212.0880  157.1900 C   0  0  0  0  0  2  0  0  0  0  0  0
  154.4070  210.4300  156.7870 C   0  0  0  0  0  1  0  0  0  0  0  0
  155.6610  212.4360  156.0820 C   0  0  0  0  0  2  0  0  0  0  0  0
  156.6810  211.3900  156.4750 C   0  0  2  0  0  3  0  0  0  0  0  0
  155.3690  211.5150  157.2440 C   0  0  2  0  0  3  0  0  0  0  0  0
  160.6140  211.7120  153.1970 C   0  0  1  0  0  3  0  0  0  0  0  0
  161.6110  211.6740  150.9350 C   0  0  0  0  0  3  0  0  0  0  0  0
  160.5490  211.4530  151.7160 C   0  0  0  0  0  3  0  0  0  0  0  0
  161.6720  211.9270  147.0980 C   0  0  0  0  0  2  0  0  0  0  0  0
  161.6520  212.2910  148.5170 C   0  0  0  0  0  0  0  0  0  0  0  0
  161.7850  213.2160  146.4000 N   0  0  0  0  0  0  0  0  0  0  0  0
  161.4770  213.6670  148.7080 N   0  0  0  0  0  2  0  0  0  0  0  0
  161.6580  211.3820  149.4990 C   0  0  0  0  0  3  0  0  0  0  0  0
  161.4430  214.2690  147.3760 C   0  0  0  0  0  2  0  0  0  0  0  0
  160.9300  213.2790  145.1960 C   0  0  2  0  0  3  0  0  0  0  0  0
  160.9180  214.0900  142.7020 C   0  0  2  0  0  3  0  0  0  0  0  0
  161.3800  214.3400  144.1330 C   0  0  2  0  0  3  0  0  0  0  0  0
  163.1540  213.6430  143.0670 O   0  0  0  0  0  0  0  0  0  0  0  0
  160.1530  212.9210  142.5930 O   0  0  0  0  0  1  0  0  0  0  0  0
  162.2660  213.9420  142.0320 C   0  0  1  0  0  3  0  0  0  0  0  0
  162.7780  214.4490  144.0520 O   0  0  0  0  0  0  0  0  0  0  0  0
  162.3400  212.9110  140.9210 C   0  0  0  0  0  3  0  0  0  0  0  0
  162.5700  211.7260  141.1520 O   0  0  0  0  0  0  0  0  0  0  0  0
  159.4630  213.4590  145.6340 C   0  0  0  0  0  3  0  0  0  0  0  0
  158.5920  213.2410  144.5580 O   0  0  0  0  0  1  0  0  0  0  0  0
  159.1420  212.6020  146.6870 O   0  0  0  0  0  1  0  0  0  0  0  0
  159.2780  212.2460  153.7480 C   0  0  0  0  0  2  0  0  0  0  0  0
  158.7070  213.3540  152.8750 C   0  0  2  0  0  3  0  0  0  0  0  0
  157.6520  214.1370  153.6230 C   0  0  0  0  0  2  0  0  0  0  0  0
  156.2650  213.7240  153.1780 C   0  0  0  0  0  1  0  0  0  0  0  0
  158.1240  212.7580  151.6020 C   0  0  0  0  0  2  0  0  0  0  0  0
  157.6440  213.8480  150.7610 N   0  0  0  0  0  2  0  0  0  0  0  0
  157.9250  213.4590  149.3900 C   0  0  0  0  0  1  0  0  0  0  0  0
  1 31  1  1  0  0  0
  1  3  1  0  0  0  0
  2  3  1  0  0  0  0
  4  2  1  0  0  0  0
  5  7  1  0  0  0  0
  5  6  1  0  0  0  0
  6 39  1  6  0  0  0
  6  1  1  0  0  0  0
  7  8  1  6  0  0  0
  7  4  1  0  0  0  0
  8  9  1  0  0  0  0
 10  8  2  0  0  0  0
 11 13  2  0  0  0  0
 11 12  1  0  0  0  0
 12  9  1  0  0  0  0
 14 11  1  0  0  0  0
 15 19  2  0  0  0  0
 16 14  1  0  0  0  0
 17 15  1  0  0  0  0
 18 16  1  0  0  0  0
 19 29  1  0  0  0  0
 19 16  1  0  0  0  0
 20 17  1  6  0  0  0
 20 18  1  0  0  0  0
 21 23  1  0  0  0  0
 21 20  1  0  0  0  0
 22 23  1  0  0  0  0
 24 21  1  0  0  0  0
 25 24  1  0  0  0  0
 25 22  1  0  0  0  0
 26 28  1  0  0  0  0
 27 28  2  0  0  0  0
 28 15  1  0  0  0  0
 30 29  1  0  0  0  0
 31 33  1  0  0  0  0
 32 31  2  0  0  0  0
 34 33  1  0  0  0  0
 36 37  1  0  0  0  0
 36 38  1  0  0  0  0
 37 34  1  1  0  0  0
 37 38  1  0  0  0  0
 38 35  1  6  0  0  0
 39 41  1  6  0  0  0
 39 60  1  0  0  0  0
 40 41  2  0  0  0  0
 42 43  1  0  0  0  0
 43 45  1  0  0  0  0
 43 46  2  0  0  0  0
 44 42  1  0  0  0  0
 44 47  1  0  0  0  0
 46 40  1  0  0  0  0
 47 45  1  0  0  0  0
 48 57  1  1  0  0  0
 48 44  1  0  0  0  0
 49 52  1  1  0  0  0
 49 50  1  0  0  0  0
 50 48  1  1  0  0  0
 51 54  1  0  0  0  0
 53 55  1  6  0  0  0
 53 49  1  0  0  0  0
 53 51  1  0  0  0  0
 54 50  1  0  0  0  0
 55 56  2  0  0  0  0
 57 59  1  0  0  0  0
 58 57  1  0  0  0  0
 61 64  1  6  0  0  0
 61 62  1  0  0  0  0
 61 60  1  0  0  0  0
 63 62  1  0  0  0  0
 65 64  1  0  0  0  0
 66 65  1  0  0  0  0
M  END
>  <MODEL>
3

>  <REMARK>
 VINA RESULT:      -2.9      1.519      2.837
  Name = 
  23 active torsions:
  status: ('A' for Active; 'I' for Inactive)
    1  A    between atoms: C_1  and  C_11
    2  A    between atoms: N_2  and  C_52
    3  A    between atoms: C_3  and  C_49
    4  A    between atoms: C_4  and  C_11
    5  A    between atoms: C_4  and  C_14
    6  A    between atoms: C_7  and  C_64
    7  A    between atoms: C_9  and  C_45
    8  A    between atoms: C_14  and  C_32
    9  A    between atoms: O_15  and  C_44
   10  A    between atoms: C_18  and  N_20
   11  A    between atoms: C_18  and  C_22
   12  A    between atoms: C_19  and  C_54
   13  A    between atoms: C_21  and  C_25
   14  A    between atoms: C_21  and  C_52
   15  A    between atoms: C_21  and  C_55
   16  A    between atoms: N_24  and  C_48
   17  A    between atoms: C_25  and  C_63
   18  A    between atoms: N_28  and  C_45
   19  A    between atoms: N_30  and  N_53
   20  A    between atoms: C_38  and  C_60
   21  A    between atoms: C_43  and  C_63
   22  A    between atoms: C_45  and  C_46
   23  A    between atoms: C_47  and  C_63
                            x       y       z     vdW  Elec       q    Type
                         _______ _______ _______ _____ _____    ______ ____

>  <TORSDO>
F 23

$$$$
=
 OpenBabel11052411333D

 66 71  0  0  1  0  0  0  0  0999 V2000
  160.6200  212.1390  149.4020 C   0  0  2  0  0  3  0  0  0  0  0  0
  161.8130  210.6340  151.0270 C   0  0  0  0  0  2  0  0  0  0  0  0
  161.6490  212.0640  150.5270 C   0  0  0  0  0  2  0  0  0  0  0  0
  162.5040  209.8440  150.0930 O   0  0  0  0  0  0  0  0  0  0  0  0
  161.5420  210.2000  147.9130 C   0  0  0  0  0  2  0  0  0  0  0  0
  161.2500  211.7130  148.0530 C   0  0  1  0  0  3  0  0  0  0  0  0
  161.5190  209.3800  149.2080 C   0  0  1  0  0  3  0  0  0  0  0  0
  161.7140  207.9300  148.8840 C   0  0  0  0  0  0  0  0  0  0  0  0
  162.3740  207.0880  149.8290 N   0  0  0  0  0  2  0  0  0  0  0  0
  161.3100  207.4510  147.7870 O   0  0  0  0  0  0  0  0  0  0  0  0
  161.2180  205.2440  150.9830 C   0  0  0  0  0  0  0  0  0  0  0  0
  162.0420  205.7240  149.9220 N   0  0  0  0  0  2  0  0  0  0  0  0
  161.1380  205.8870  152.0600 O   0  0  0  0  0  0  0  0  0  0  0  0
  160.4610  203.9630  150.8170 C   0  0  0  0  0  2  0  0  0  0  0  0
  161.2680  201.6920  147.9750 C   0  0  0  0  0  0  0  0  0  0  0  0
  160.5650  203.4770  149.4460 N   0  0  0  0  0  0  0  0  0  0  0  0
  161.8550  202.7100  147.0150 C   0  0  0  0  0  2  0  0  0  0  0  0
  160.6060  204.4400  148.3610 C   0  0  0  0  0  2  0  0  0  0  0  0
  160.7540  202.0780  149.1790 C   0  0  0  0  0  0  0  0  0  0  0  0
  161.8470  204.1730  147.5310 C   0  0  2  0  0  3  0  0  0  0  0  0
  161.9840  205.2130  146.5010 N   0  0  0  0  0  0  0  0  0  0  0  0
  160.7280  206.2380  144.7280 C   0  0  0  0  0  2  0  0  0  0  0  0
  160.7440  205.9340  146.2080 C   0  0  0  0  0  2  0  0  0  0  0  0
  162.3750  204.5530  145.2630 C   0  0  0  0  0  2  0  0  0  0  0  0
  161.7600  205.3240  144.1120 C   0  0  0  0  0  2  0  0  0  0  0  0
  160.8460  199.9480  146.1140 C   0  0  0  0  0  1  0  0  0  0  0  0
  161.6970  199.3770  148.2560 O   0  0  0  0  0  0  0  0  0  0  0  0
  161.2580  200.2910  147.5080 C   0  0  0  0  0  0  0  0  0  0  0  0
  160.4020  201.1720  150.1910 O   0  0  0  0  0  0  0  0  0  0  0  0
  159.2280  200.3470  150.1700 C   0  0  0  0  0  1  0  0  0  0  0  0
  160.0870  213.5450  149.3940 C   0  0  0  0  0  0  0  0  0  0  0  0
  160.7010  214.4280  148.8060 O   0  0  0  0  0  0  0  0  0  0  0  0
  158.8860  213.8670  150.2370 C   0  0  0  0  0  2  0  0  0  0  0  0
  159.1290  213.5700  151.7130 C   0  0  0  0  0  2  0  0  0  0  0  0
  156.7650  212.3780  154.5050 C   0  0  0  0  0  1  0  0  0  0  0  0
  158.0350  214.3710  153.7920 C   0  0  0  0  0  2  0  0  0  0  0  0
  157.8470  213.5030  152.5670 C   0  0  2  0  0  3  0  0  0  0  0  0
  158.0870  212.8680  153.9340 C   0  0  2  0  0  3  0  0  0  0  0  0
  160.5840  212.3210  146.7980 C   0  0  1  0  0  3  0  0  0  0  0  0
  161.0960  212.6380  144.3990 C   0  0  0  0  0  3  0  0  0  0  0  0
  161.4860  212.1980  145.5990 C   0  0  0  0  0  3  0  0  0  0  0  0
  162.4300  212.2880  140.8090 C   0  0  0  0  0  2  0  0  0  0  0  0
  161.5270  212.3100  141.9630 C   0  0  0  0  0  0  0  0  0  0  0  0
  161.5430  212.0250  139.6670 N   0  0  0  0  0  0  0  0  0  0  0  0
  160.2510  211.8280  141.6450 N   0  0  0  0  0  2  0  0  0  0  0  0
  161.9360  212.6220  143.1980 C   0  0  0  0  0  3  0  0  0  0  0  0
  160.2650  211.5310  140.2150 C   0  0  0  0  0  2  0  0  0  0  0  0
  162.1360  211.0730  138.7030 C   0  0  2  0  0  3  0  0  0  0  0  0
  164.3210  212.0760  137.6540 C   0  0  2  0  0  3  0  0  0  0  0  0
  162.8430  211.7460  137.4760 C   0  0  2  0  0  3  0  0  0  0  0  0
  162.9240  213.9120  137.7380 O   0  0  0  0  0  0  0  0  0  0  0  0
  164.7920  211.7080  138.9210 O   0  0  0  0  0  1  0  0  0  0  0  0
  164.2570  213.5790  137.4940 C   0  0  1  0  0  3  0  0  0  0  0  0
  162.2380  212.9620  137.1160 O   0  0  0  0  0  0  0  0  0  0  0  0
  165.2010  214.3760  138.3760 C   0  0  0  0  0  3  0  0  0  0  0  0
  166.4150  214.3800  138.1860 O   0  0  0  0  0  0  0  0  0  0  0  0
  161.0620  210.0500  138.2850 C   0  0  0  0  0  3  0  0  0  0  0  0
  160.5240  210.3760  137.0340 O   0  0  0  0  0  1  0  0  0  0  0  0
  161.5830  208.7560  138.2580 O   0  0  0  0  0  1  0  0  0  0  0  0
  159.1800  211.7510  146.5220 C   0  0  0  0  0  2  0  0  0  0  0  0
  158.2150  212.8260  146.0450 C   0  0  2  0  0  3  0  0  0  0  0  0
  156.8000  212.5060  146.4730 C   0  0  0  0  0  2  0  0  0  0  0  0
  156.6120  212.7850  147.9480 C   0  0  0  0  0  1  0  0  0  0  0  0
  158.2960  212.9550  144.5310 C   0  0  0  0  0  2  0  0  0  0  0  0
  157.6620  214.2090  144.1410 N   0  0  0  0  0  2  0  0  0  0  0  0
  156.6090  214.4530  145.1120 C   0  0  0  0  0  1  0  0  0  0  0  0
  1 31  1  6  0  0  0
  1  3  1  0  0  0  0
  3  2  1  0  0  0  0
  4  2  1  0  0  0  0
  5  6  1  0  0  0  0
  5  7  1  0  0  0  0
  6 39  1  6  0  0  0
  6  1  1  0  0  0  0
  7  8  1  6  0  0  0
  7  4  1  0  0  0  0
  8  9  1  0  0  0  0
  9 12  1  0  0  0  0
 10  8  2  0  0  0  0
 11 13  2  0  0  0  0
 12 11  1  0  0  0  0
 14 11  1  0  0  0  0
 15 19  2  0  0  0  0
 16 14  1  0  0  0  0
 17 20  1  0  0  0  0
 17 15  1  0  0  0  0
 18 16  1  0  0  0  0
 19 16  1  0  0  0  0
 19 29  1  0  0  0  0
 20 21  1  6  0  0  0
 20 18  1  0  0  0  0
 22 23  1  0  0  0  0
 23 21  1  0  0  0  0
 24 21  1  0  0  0  0
 25 22  1  0  0  0  0
 25 24  1  0  0  0  0
 26 28  1  0  0  0  0
 28 15  1  0  0  0  0
 28 27  2  0  0  0  0
 30 29  1  0  0  0  0
 31 33  1  0  0  0  0
 32 31  2  0  0  0  0
 33 34  1  0  0  0  0
 36 38  1  0  0  0  0
 37 34  1  6  0  0  0
 37 36  1  0  0  0  0
 37 38  1  0  0  0  0
 38 35  1  1  0  0  0
 39 41  1  6  0  0  0
 40 41  2  0  0  0  0
 42 43  1  0  0  0  0
 43 46  2  0  0  0  0
 44 47  1  0  0  0  0
 44 42  1  0  0  0  0
 45 43  1  0  0  0  0
 46 40  1  0  0  0  0
 47 45  1  0  0  0  0
 48 57  1  6  0  0  0
 48 44  1  0  0  0  0
 49 52  1  1  0  0  0
 50 49  1  0  0  0  0
 50 48  1  1  0  0  0
 53 49  1  0  0  0  0
 53 51  1  0  0  0  0
 53 55  1  1  0  0  0
 54 50  1  0  0  0  0
 54 51  1  0  0  0  0
 56 55  2  0  0  0  0
 58 57  1  0  0  0  0
 59 57  1  0  0  0  0
 60 39  1  0  0  0  0
 61 64  1  6  0  0  0
 61 62  1  0  0  0  0
 61 60  1  0  0  0  0
 62 63  1  0  0  0  0
 65 64  1  0  0  0  0
 65 66  1  0  0  0  0
M  END
>  <MODEL>
4

>  <REMARK>
 VINA RESULT:      -1.9      2.697      5.136
  Name = 
  23 active torsions:
  status: ('A' for Active; 'I' for Inactive)
    1  A    between atoms: C_1  and  C_11
    2  A    between atoms: N_2  and  C_52
    3  A    between atoms: C_3  and  C_49
    4  A    between atoms: C_4  and  C_11
    5  A    between atoms: C_4  and  C_14
    6  A    between atoms: C_7  and  C_64
    7  A    between atoms: C_9  and  C_45
    8  A    between atoms: C_14  and  C_32
    9  A    between atoms: O_15  and  C_44
   10  A    between atoms: C_18  and  N_20
   11  A    between atoms: C_18  and  C_22
   12  A    between atoms: C_19  and  C_54
   13  A    between atoms: C_21  and  C_25
   14  A    between atoms: C_21  and  C_52
   15  A    between atoms: C_21  and  C_55
   16  A    between atoms: N_24  and  C_48
   17  A    between atoms: C_25  and  C_63
   18  A    between atoms: N_28  and  C_45
   19  A    between atoms: N_30  and  N_53
   20  A    between atoms: C_38  and  C_60
   21  A    between atoms: C_43  and  C_63
   22  A    between atoms: C_45  and  C_46
   23  A    between atoms: C_47  and  C_63
                            x       y       z     vdW  Elec       q    Type
                         _______ _______ _______ _____ _____    ______ ____

>  <TORSDO>
F 23

$$$$
