=
 OpenBabel11052409343D

 44 48  0  0  1  0  0  0  0  0999 V2000
  161.2080  204.6050  150.2340 C   0  0  1  0  0  3  0  0  0  0  0  0
  161.6320  207.1050  150.4880 N   0  0  0  0  0  0  0  0  0  0  0  0
  161.8630  204.7150  152.6540 C   0  0  0  0  0  2  0  0  0  0  0  0
  160.6560  203.6800  149.2210 N   0  0  0  0  0  0  0  0  0  0  0  0
  161.2080  202.0730  150.9040 O   0  0  0  0  0  0  0  0  0  0  0  0
  160.5240  202.2920  149.6970 C   0  0  0  0  0  2  0  0  0  0  0  0
  162.0360  206.2320  152.7760 C   0  0  1  0  0  3  0  0  0  0  0  0
  160.4950  202.8080  151.8570 C   0  0  0  0  0  2  0  0  0  0  0  0
  159.8870  206.2940  149.1620 O   0  0  0  0  0  0  0  0  0  0  0  0
  160.8730  206.0340  149.9070 C   0  0  0  0  0  0  0  0  0  0  0  0
  162.6470  206.8430  151.5120 C   0  0  0  0  0  2  0  0  0  0  0  0
  160.7670  204.2970  151.6760 C   0  0  2  0  0  3  0  0  0  0  0  0
  162.0850  208.6150  148.5900 C   0  0  0  0  0  2  0  0  0  0  0  0
  161.9950  209.4910  150.9380 C   0  0  0  0  0  3  0  0  0  0  0  0
  162.0650  210.0580  148.1640 C   0  0  0  0  0  3  0  0  0  0  0  0
  162.2130  211.0470  149.0610 C   0  0  0  0  0  0  0  0  0  0  0  0
  161.4540  208.4630  149.9780 C   0  0  2  0  0  3  0  0  0  0  0  0
  162.3140  210.7120  150.4970 C   0  0  0  0  0  3  0  0  0  0  0  0
  162.2750  212.3990  148.6880 O   0  0  0  0  0  0  0  0  0  0  0  0
  161.1840  213.2310  148.3960 C   0  0  0  0  0  0  0  0  0  0  0  0
  160.3530  213.5290  149.3900 C   0  0  0  0  0  2  0  0  0  0  0  0
  160.9910  213.7270  147.0940 O   0  0  0  0  0  0  0  0  0  0  0  0
  159.8440  212.0240  145.9980 O   0  0  0  0  0  0  0  0  0  0  0  0
  160.6620  212.9810  145.9510 C   0  0  0  0  0  0  0  0  0  0  0  0
  161.3240  213.3080  144.6610 C   0  0  0  0  0  2  0  0  0  0  0  0
  162.8250  213.3840  144.8570 C   0  0  0  0  0  1  0  0  0  0  0  0
  160.8120  206.8780  153.1230 O   0  0  0  0  0  0  0  0  0  0  0  0
  161.0870  209.1810  156.0610 C   0  0  0  0  0  3  0  0  0  0  0  0
  160.7460  208.0280  153.9150 C   0  0  0  0  0  0  0  0  0  0  0  0
  160.2650  209.2200  153.3350 C   0  0  0  0  0  3  0  0  0  0  0  0
  159.7890  211.5840  153.8000 N   0  0  0  0  0  0  0  0  0  0  0  0
  160.6030  210.3310  155.4470 C   0  0  0  0  0  0  0  0  0  0  0  0
  160.6770  212.1350  157.2610 C   0  0  0  0  0  1  0  0  0  0  0  0
  161.1560  208.0160  155.2750 C   0  0  0  0  0  3  0  0  0  0  0  0
  160.2090  210.3530  154.1400 C   0  0  0  0  0  0  0  0  0  0  0  0
  159.9100  212.3560  154.8780 N   0  0  0  0  0  2  0  0  0  0  0  0
  160.4050  211.6130  155.8940 C   0  0  0  0  0  0  0  0  0  0  0  0
  161.6040  203.6460  148.1170 C   0  0  0  0  0  2  0  0  0  0  0  0
  161.1980  202.5670  147.1300 C   0  0  0  0  0  2  0  0  0  0  0  0
  161.2710  203.1020  145.7100 C   0  0  0  0  0  2  0  0  0  0  0  0
  161.7040  204.4920  145.7190 N   0  0  0  0  0  0  0  0  0  0  0  0
  163.0910  204.4950  145.2940 C   0  0  0  0  0  1  0  0  0  0  0  0
  160.2030  206.2830  145.2780 N   0  0  0  0  0  1  0  0  0  0  0  0
  160.9540  205.1890  144.6860 C   0  0  0  0  0  2  0  0  0  0  0  0
  1 10  1  6  0  0  0
  1 12  1  0  0  0  0
  2 11  1  0  0  0  0
  3  7  1  0  0  0  0
  4  6  1  0  0  0  0
  4  1  1  0  0  0  0
  5  8  1  0  0  0  0
  6  5  1  0  0  0  0
  7 27  1  6  0  0  0
  9 10  2  0  0  0  0
 10  2  1  0  0  0  0
 11  7  1  0  0  0  0
 12  8  1  6  0  0  0
 12  3  1  0  0  0  0
 15 13  1  0  0  0  0
 15 16  2  0  0  0  0
 16 18  1  0  0  0  0
 17 13  1  6  0  0  0
 17  2  1  0  0  0  0
 17 14  1  0  0  0  0
 18 14  2  0  0  0  0
 19 16  1  0  0  0  0
 20 19  1  0  0  0  0
 20 21  2  0  0  0  0
 22 20  1  0  0  0  0
 24 23  2  0  0  0  0
 24 22  1  0  0  0  0
 25 26  1  0  0  0  0
 25 24  1  0  0  0  0
 27 29  1  0  0  0  0
 29 34  1  0  0  0  0
 30 29  2  0  0  0  0
 30 35  1  0  0  0  0
 31 35  2  0  0  0  0
 31 36  1  0  0  0  0
 32 37  2  0  0  0  0
 32 28  1  0  0  0  0
 34 28  2  0  0  0  0
 35 32  1  0  0  0  0
 36 37  1  0  0  0  0
 37 33  1  0  0  0  0
 38  4  1  0  0  0  0
 39 38  1  0  0  0  0
 40 41  1  0  0  0  0
 40 39  1  0  0  0  0
 42 41  1  0  0  0  0
 44 43  1  0  0  0  0
 44 41  1  0  0  0  0
M  END
>  <MODEL>
1

>  <REMARK>
 VINA RESULT:      -7.9      0.000      0.000
  Name = 
  13 active torsions:
  status: ('A' for Active; 'I' for Inactive)
    1  A    between atoms: O_3  and  C_12
    2  A    between atoms: O_3  and  C_29
    3  A    between atoms: N_6  and  C_30
    4  A    between atoms: C_9  and  C_16
    5  A    between atoms: C_9  and  C_19
    6  A    between atoms: N_13  and  C_16
    7  A    between atoms: N_15  and  C_19
    8  A    between atoms: N_15  and  C_40
    9  A    between atoms: C_17  and  C_22
   10  A    between atoms: C_21  and  O_32
   11  A    between atoms: C_22  and  O_39
   12  A    between atoms: C_31  and  O_32
   13  A    between atoms: C_31  and  O_39
                            x       y       z     vdW  Elec       q    Type
                         _______ _______ _______ _____ _____    ______ ____

>  <TORSDO>
F 13

$$$$
=
 OpenBabel11052409343D

 44 48  0  0  1  0  0  0  0  0999 V2000
  161.2500  204.6210  150.2130 C   0  0  1  0  0  3  0  0  0  0  0  0
  161.6740  207.1200  150.4850 N   0  0  0  0  0  0  0  0  0  0  0  0
  161.8900  204.7160  152.6380 C   0  0  0  0  0  2  0  0  0  0  0  0
  160.7040  203.7030  149.1910 N   0  0  0  0  0  0  0  0  0  0  0  0
  161.2450  202.0850  150.8670 O   0  0  0  0  0  0  0  0  0  0  0  0
  160.5690  202.3120  149.6570 C   0  0  0  0  0  2  0  0  0  0  0  0
  162.0630  206.2320  152.7700 C   0  0  1  0  0  3  0  0  0  0  0  0
  160.5260  202.8140  151.8200 C   0  0  0  0  0  2  0  0  0  0  0  0
  159.9370  206.3170  149.1430 O   0  0  0  0  0  0  0  0  0  0  0  0
  160.9180  206.0530  149.8920 C   0  0  0  0  0  0  0  0  0  0  0  0
  162.6820  206.8510  151.5140 C   0  0  0  0  0  2  0  0  0  0  0  0
  160.8010  204.3040  151.6500 C   0  0  2  0  0  3  0  0  0  0  0  0
  162.1810  208.6550  148.6210 C   0  0  0  0  0  2  0  0  0  0  0  0
  161.9910  209.5050  150.9720 C   0  0  0  0  0  3  0  0  0  0  0  0
  162.1600  210.1010  148.2090 C   0  0  0  0  0  3  0  0  0  0  0  0
  162.2630  211.0820  149.1210 C   0  0  0  0  0  0  0  0  0  0  0  0
  161.5000  208.4810  149.9820 C   0  0  2  0  0  3  0  0  0  0  0  0
  162.3120  210.7340  150.5560 C   0  0  0  0  0  3  0  0  0  0  0  0
  162.3230  212.4390  148.7650 O   0  0  0  0  0  0  0  0  0  0  0  0
  161.6950  213.0370  147.6620 C   0  0  0  0  0  0  0  0  0  0  0  0
  162.2820  212.9130  146.4760 C   0  0  0  0  0  2  0  0  0  0  0  0
  160.4860  213.7390  147.8210 O   0  0  0  0  0  0  0  0  0  0  0  0
  158.4220  213.2720  148.7890 O   0  0  0  0  0  0  0  0  0  0  0  0
  159.6110  213.6670  148.9160 C   0  0  0  0  0  0  0  0  0  0  0  0
  160.0920  214.1020  150.2540 C   0  0  0  0  0  2  0  0  0  0  0  0
  159.7320  213.0610  151.2950 C   0  0  0  0  0  1  0  0  0  0  0  0
  160.8370  206.8760  153.1130 O   0  0  0  0  0  0  0  0  0  0  0  0
  159.9470  210.3670  154.1340 C   0  0  0  0  0  3  0  0  0  0  0  0
  160.7710  208.0670  153.8430 C   0  0  0  0  0  0  0  0  0  0  0  0
  161.4800  208.1530  155.0590 C   0  0  0  0  0  3  0  0  0  0  0  0
  161.9900  209.6460  156.9420 N   0  0  0  0  0  0  0  0  0  0  0  0
  160.6650  210.4050  155.3240 C   0  0  0  0  0  0  0  0  0  0  0  0
  160.2370  212.7380  156.2830 C   0  0  0  0  0  1  0  0  0  0  0  0
  160.0070  209.1750  153.3880 C   0  0  0  0  0  3  0  0  0  0  0  0
  161.4010  209.3460  155.7710 C   0  0  0  0  0  0  0  0  0  0  0  0
  161.6380  210.8910  157.2530 N   0  0  0  0  0  2  0  0  0  0  0  0
  160.8310  211.3740  156.2810 C   0  0  0  0  0  0  0  0  0  0  0  0
  161.6590  203.6750  148.0920 C   0  0  0  0  0  2  0  0  0  0  0  0
  161.1570  202.7440  147.0040 C   0  0  0  0  0  2  0  0  0  0  0  0
  161.2450  203.4260  145.6500 C   0  0  0  0  0  2  0  0  0  0  0  0
  161.6570  204.8130  145.8120 N   0  0  0  0  0  0  0  0  0  0  0  0
  162.9960  204.9130  145.2620 C   0  0  0  0  0  1  0  0  0  0  0  0
  161.2050  205.4780  143.5740 N   0  0  0  0  0  1  0  0  0  0  0  0
  160.8000  205.6240  144.9620 C   0  0  0  0  0  2  0  0  0  0  0  0
  1 10  1  6  0  0  0
  1 12  1  0  0  0  0
  2 11  1  0  0  0  0
  3  7  1  0  0  0  0
  4  6  1  0  0  0  0
  4  1  1  0  0  0  0
  5  8  1  0  0  0  0
  6  5  1  0  0  0  0
  7 27  1  6  0  0  0
  9 10  2  0  0  0  0
 10  2  1  0  0  0  0
 11  7  1  0  0  0  0
 12  8  1  6  0  0  0
 12  3  1  0  0  0  0
 15 13  1  0  0  0  0
 15 16  2  0  0  0  0
 16 18  1  0  0  0  0
 17 13  1  6  0  0  0
 17  2  1  0  0  0  0
 17 14  1  0  0  0  0
 18 14  2  0  0  0  0
 19 16  1  0  0  0  0
 20 22  1  0  0  0  0
 20 19  1  0  0  0  0
 21 20  2  0  0  0  0
 22 24  1  0  0  0  0
 23 24  2  0  0  0  0
 24 25  1  0  0  0  0
 25 26  1  0  0  0  0
 27 29  1  0  0  0  0
 28 32  1  0  0  0  0
 29 30  2  0  0  0  0
 30 35  1  0  0  0  0
 31 36  1  0  0  0  0
 32 35  1  0  0  0  0
 32 37  2  0  0  0  0
 34 29  1  0  0  0  0
 34 28  2  0  0  0  0
 35 31  2  0  0  0  0
 37 33  1  0  0  0  0
 37 36  1  0  0  0  0
 38  4  1  0  0  0  0
 39 38  1  0  0  0  0
 40 41  1  0  0  0  0
 40 39  1  0  0  0  0
 42 41  1  0  0  0  0
 43 44  1  0  0  0  0
 44 41  1  0  0  0  0
M  END
>  <MODEL>
2

>  <REMARK>
 VINA RESULT:      -7.4      1.117      2.025
  Name = 
  13 active torsions:
  status: ('A' for Active; 'I' for Inactive)
    1  A    between atoms: O_3  and  C_12
    2  A    between atoms: O_3  and  C_29
    3  A    between atoms: N_6  and  C_30
    4  A    between atoms: C_9  and  C_16
    5  A    between atoms: C_9  and  C_19
    6  A    between atoms: N_13  and  C_16
    7  A    between atoms: N_15  and  C_19
    8  A    between atoms: N_15  and  C_40
    9  A    between atoms: C_17  and  C_22
   10  A    between atoms: C_21  and  O_32
   11  A    between atoms: C_22  and  O_39
   12  A    between atoms: C_31  and  O_32
   13  A    between atoms: C_31  and  O_39
                            x       y       z     vdW  Elec       q    Type
                         _______ _______ _______ _____ _____    ______ ____

>  <TORSDO>
F 13

$$$$
=
 OpenBabel11052409343D

 44 48  0  0  1  0  0  0  0  0999 V2000
  159.9740  212.2300  152.7220 C   0  0  1  0  0  3  0  0  0  0  0  0
  161.3690  211.1420  150.8860 N   0  0  0  0  0  0  0  0  0  0  0  0
  159.8900  214.0180  150.9610 C   0  0  0  0  0  2  0  0  0  0  0  0
  159.3860  211.8550  154.0240 N   0  0  0  0  0  0  0  0  0  0  0  0
  158.6650  214.1340  153.9540 O   0  0  0  0  0  0  0  0  0  0  0  0
  158.5240  212.8990  154.6070 C   0  0  0  0  0  2  0  0  0  0  0  0
  160.6740  213.2930  149.8620 C   0  0  1  0  0  3  0  0  0  0  0  0
  158.1110  213.9330  152.6850 C   0  0  0  0  0  2  0  0  0  0  0  0
  159.9040  209.8900  152.2090 O   0  0  0  0  0  0  0  0  0  0  0  0
  160.4150  211.0150  151.9520 C   0  0  0  0  0  0  0  0  0  0  0  0
  161.8230  212.4590  150.4310 C   0  0  0  0  0  2  0  0  0  0  0  0
  159.0530  213.0870  151.8350 C   0  0  2  0  0  3  0  0  0  0  0  0
  161.9350  209.9800  148.7850 C   0  0  0  0  0  2  0  0  0  0  0  0
  161.2950  208.6880  150.8370 C   0  0  0  0  0  3  0  0  0  0  0  0
  162.3700  208.6560  148.2170 C   0  0  0  0  0  3  0  0  0  0  0  0
  162.0750  207.5040  148.8420 C   0  0  0  0  0  0  0  0  0  0  0  0
  161.9630  209.9350  150.3160 C   0  0  2  0  0  3  0  0  0  0  0  0
  161.3880  207.5460  150.1500 C   0  0  0  0  0  3  0  0  0  0  0  0
  162.4000  206.2490  148.3020 O   0  0  0  0  0  0  0  0  0  0  0  0
  161.5580  205.4330  147.5320 C   0  0  0  0  0  0  0  0  0  0  0  0
  160.8030  206.0230  146.6110 C   0  0  0  0  0  2  0  0  0  0  0  0
  161.5270  204.0420  147.7380 O   0  0  0  0  0  0  0  0  0  0  0  0
  160.7310  203.9450  149.9230 O   0  0  0  0  0  0  0  0  0  0  0  0
  160.9530  203.3670  148.8260 C   0  0  0  0  0  0  0  0  0  0  0  0
  160.6310  201.9210  148.6890 C   0  0  0  0  0  2  0  0  0  0  0  0
  160.8680  201.2130  150.0080 C   0  0  0  0  0  1  0  0  0  0  0  0
  159.8190  212.5020  149.0370 O   0  0  0  0  0  0  0  0  0  0  0  0
  158.3950  212.8880  145.5970 C   0  0  0  0  0  3  0  0  0  0  0  0
  159.7290  212.6560  147.6510 C   0  0  0  0  0  0  0  0  0  0  0  0
  160.9210  212.7420  146.9030 C   0  0  0  0  0  3  0  0  0  0  0  0
  161.8040  212.9990  144.6250 N   0  0  0  0  0  0  0  0  0  0  0  0
  159.5970  212.9650  144.9020 C   0  0  0  0  0  0  0  0  0  0  0  0
  158.9290  213.2450  142.4480 C   0  0  0  0  0  1  0  0  0  0  0  0
  158.4720  212.7310  146.9930 C   0  0  0  0  0  2  0  0  0  0  0  0
  160.8100  212.8960  145.5250 C   0  0  0  0  0  0  0  0  0  0  0  0
  161.2410  213.1350  143.4270 N   0  0  0  0  0  0  0  0  0  0  0  0
  159.8970  213.1170  143.5710 C   0  0  0  0  0  0  0  0  0  0  0  0
  160.4910  211.6720  154.9530 C   0  0  0  0  0  2  0  0  0  0  0  0
  160.3580  210.3280  155.6450 C   0  0  0  0  0  2  0  0  0  0  0  0
  161.5710  209.4640  155.3470 C   0  0  0  0  0  2  0  0  0  0  0  0
  161.2680  208.0640  155.6080 N   0  0  0  0  0  0  0  0  0  0  0  0
  160.2400  208.0490  156.6330 C   0  0  0  0  0  1  0  0  0  0  0  0
  161.4820  206.4360  153.8890 N   0  0  0  0  0  1  0  0  0  0  0  0
  160.6600  207.5170  154.4060 C   0  0  0  0  0  2  0  0  0  0  0  0
  1 10  1  6  0  0  0
  1  4  1  0  0  0  0
  2 10  1  0  0  0  0
  4  6  1  0  0  0  0
  4 38  1  0  0  0  0
  5  6  1  0  0  0  0
  7 27  1  1  0  0  0
  7 11  1  0  0  0  0
  7  3  1  0  0  0  0
  8  5  1  0  0  0  0
 10  9  2  0  0  0  0
 11  2  1  0  0  0  0
 12  3  1  1  0  0  0
 12  8  1  0  0  0  0
 12  1  1  0  0  0  0
 15 13  1  0  0  0  0
 15 16  2  0  0  0  0
 16 18  1  0  0  0  0
 17 13  1  6  0  0  0
 17 14  1  0  0  0  0
 17  2  1  0  0  0  0
 18 14  2  0  0  0  0
 19 16  1  0  0  0  0
 20 22  1  0  0  0  0
 20 19  1  0  0  0  0
 21 20  2  0  0  0  0
 22 24  1  0  0  0  0
 24 23  2  0  0  0  0
 25 24  1  0  0  0  0
 25 26  1  0  0  0  0
 28 34  1  0  0  0  0
 29 27  1  0  0  0  0
 30 29  2  0  0  0  0
 31 35  2  0  0  0  0
 32 35  1  0  0  0  0
 32 28  2  0  0  0  0
 33 37  1  0  0  0  0
 34 29  1  0  0  0  0
 35 30  1  0  0  0  0
 36 37  2  0  0  0  0
 36 31  1  0  0  0  0
 37 32  1  0  0  0  0
 38 39  1  0  0  0  0
 40 41  1  0  0  0  0
 40 39  1  0  0  0  0
 41 42  1  0  0  0  0
 43 44  1  0  0  0  0
 44 41  1  0  0  0  0
M  END
>  <MODEL>
3

>  <REMARK>
 VINA RESULT:      -5.1      2.710      9.210
  Name = 
  13 active torsions:
  status: ('A' for Active; 'I' for Inactive)
    1  A    between atoms: O_3  and  C_12
    2  A    between atoms: O_3  and  C_29
    3  A    between atoms: N_6  and  C_30
    4  A    between atoms: C_9  and  C_16
    5  A    between atoms: C_9  and  C_19
    6  A    between atoms: N_13  and  C_16
    7  A    between atoms: N_15  and  C_19
    8  A    between atoms: N_15  and  C_40
    9  A    between atoms: C_17  and  C_22
   10  A    between atoms: C_21  and  O_32
   11  A    between atoms: C_22  and  O_39
   12  A    between atoms: C_31  and  O_32
   13  A    between atoms: C_31  and  O_39
                            x       y       z     vdW  Elec       q    Type
                         _______ _______ _______ _____ _____    ______ ____

>  <TORSDO>
F 13

$$$$
=
 OpenBabel11052409343D

 44 48  0  0  1  0  0  0  0  0999 V2000
  161.7690  206.6490  149.7840 C   0  0  1  0  0  3  0  0  0  0  0  0
  162.1490  209.1310  150.2300 N   0  0  0  0  0  0  0  0  0  0  0  0
  161.4630  206.7200  152.2750 C   0  0  0  0  0  2  0  0  0  0  0  0
  161.6120  205.7530  148.6200 N   0  0  0  0  0  0  0  0  0  0  0  0
  161.4320  204.1160  150.3540 O   0  0  0  0  0  0  0  0  0  0  0  0
  161.2630  204.3680  148.9830 C   0  0  0  0  0  2  0  0  0  0  0  0
  161.6270  208.2290  152.4820 C   0  0  1  0  0  3  0  0  0  0  0  0
  160.4360  204.8720  150.9810 C   0  0  0  0  0  2  0  0  0  0  0  0
  161.0100  208.3940  148.3270 O   0  0  0  0  0  0  0  0  0  0  0  0
  161.6310  208.0930  149.3830 C   0  0  0  0  0  0  0  0  0  0  0  0
  162.6910  208.8240  151.5560 C   0  0  0  0  0  2  0  0  0  0  0  0
  160.8060  206.3500  150.9470 C   0  0  2  0  0  3  0  0  0  0  0  0
  161.2520  211.4170  150.4640 C   0  0  0  0  0  2  0  0  0  0  0  0
  161.9830  210.5450  148.2300 C   0  0  0  0  0  3  0  0  0  0  0  0
  161.1980  212.7660  149.8010 C   0  0  0  0  0  3  0  0  0  0  0  0
  161.3190  212.8880  148.4690 C   0  0  0  0  0  0  0  0  0  0  0  0
  162.2220  210.4970  149.7170 C   0  0  2  0  0  3  0  0  0  0  0  0
  161.5940  211.6860  147.6540 C   0  0  0  0  0  3  0  0  0  0  0  0
  161.1990  214.1230  147.8110 O   0  0  0  0  0  0  0  0  0  0  0  0
  161.0200  214.3170  146.4330 C   0  0  0  0  0  0  0  0  0  0  0  0
  162.1090  214.3660  145.6720 C   0  0  0  0  0  2  0  0  0  0  0  0
  159.7290  214.4500  145.8910 O   0  0  0  0  0  0  0  0  0  0  0  0
  158.5060  213.2530  144.3140 O   0  0  0  0  0  0  0  0  0  0  0  0
  158.8670  213.4100  145.5100 C   0  0  0  0  0  0  0  0  0  0  0  0
  158.3390  212.4920  146.5540 C   0  0  0  0  0  2  0  0  0  0  0  0
  157.4130  213.2500  147.4850 C   0  0  0  0  0  1  0  0  0  0  0  0
  160.3850  208.9190  152.3540 O   0  0  0  0  0  0  0  0  0  0  0  0
  160.4750  211.5700  154.9950 C   0  0  0  0  0  3  0  0  0  0  0  0
  160.0410  210.0350  153.1230 C   0  0  0  0  0  0  0  0  0  0  0  0
  158.8860  210.7640  152.7750 C   0  0  0  0  0  3  0  0  0  0  0  0
  157.5160  212.7040  153.4030 N   0  0  0  0  0  0  0  0  0  0  0  0
  159.3260  212.2550  154.6160 C   0  0  0  0  0  0  0  0  0  0  0  0
  159.1200  214.1840  156.2850 C   0  0  0  0  0  1  0  0  0  0  0  0
  160.8300  210.4440  154.2310 C   0  0  0  0  0  3  0  0  0  0  0  0
  158.5620  211.8720  153.5520 C   0  0  0  0  0  0  0  0  0  0  0  0
  157.6010  213.6210  154.3640 N   0  0  0  0  0  2  0  0  0  0  0  0
  158.6960  213.3680  155.1150 C   0  0  0  0  0  0  0  0  0  0  0  0
  162.9050  205.6890  147.9560 C   0  0  0  0  0  2  0  0  0  0  0  0
  162.8520  204.6690  146.8330 C   0  0  0  0  0  2  0  0  0  0  0  0
  162.3330  205.3180  145.5610 C   0  0  0  0  0  2  0  0  0  0  0  0
  161.5450  204.3640  144.7950 N   0  0  0  0  0  0  0  0  0  0  0  0
  161.3760  203.1960  145.6400 C   0  0  0  0  0  1  0  0  0  0  0  0
  160.2000  206.2970  145.1270 N   0  0  0  0  0  1  0  0  0  0  0  0
  160.2210  204.9380  144.6140 C   0  0  0  0  0  2  0  0  0  0  0  0
  1 10  1  6  0  0  0
  1 12  1  0  0  0  0
  2 11  1  0  0  0  0
  3  7  1  0  0  0  0
  4  6  1  0  0  0  0
  4  1  1  0  0  0  0
  5  8  1  0  0  0  0
  6  5  1  0  0  0  0
  7 27  1  6  0  0  0
  9 10  2  0  0  0  0
 10  2  1  0  0  0  0
 11  7  1  0  0  0  0
 12  8  1  1  0  0  0
 12  3  1  0  0  0  0
 15 13  1  0  0  0  0
 16 15  2  0  0  0  0
 17 14  1  6  0  0  0
 17  2  1  0  0  0  0
 17 13  1  0  0  0  0
 18 14  2  0  0  0  0
 18 16  1  0  0  0  0
 19 16  1  0  0  0  0
 20 19  1  0  0  0  0
 21 20  2  0  0  0  0
 22 20  1  0  0  0  0
 23 24  2  0  0  0  0
 24 22  1  0  0  0  0
 24 25  1  0  0  0  0
 25 26  1  0  0  0  0
 27 29  1  0  0  0  0
 29 34  1  0  0  0  0
 30 29  2  0  0  0  0
 30 35  1  0  0  0  0
 31 35  2  0  0  0  0
 31 36  1  0  0  0  0
 32 28  1  0  0  0  0
 32 37  2  0  0  0  0
 34 28  2  0  0  0  0
 35 32  1  0  0  0  0
 36 37  1  0  0  0  0
 37 33  1  0  0  0  0
 38  4  1  0  0  0  0
 39 38  1  0  0  0  0
 40 39  1  0  0  0  0
 41 40  1  0  0  0  0
 41 42  1  0  0  0  0
 44 41  1  0  0  0  0
 44 43  1  0  0  0  0
M  END
>  <MODEL>
4

>  <REMARK>
 VINA RESULT:      -5.0      1.738      2.579
  Name = 
  13 active torsions:
  status: ('A' for Active; 'I' for Inactive)
    1  A    between atoms: O_3  and  C_12
    2  A    between atoms: O_3  and  C_29
    3  A    between atoms: N_6  and  C_30
    4  A    between atoms: C_9  and  C_16
    5  A    between atoms: C_9  and  C_19
    6  A    between atoms: N_13  and  C_16
    7  A    between atoms: N_15  and  C_19
    8  A    between atoms: N_15  and  C_40
    9  A    between atoms: C_17  and  C_22
   10  A    between atoms: C_21  and  O_32
   11  A    between atoms: C_22  and  O_39
   12  A    between atoms: C_31  and  O_32
   13  A    between atoms: C_31  and  O_39
                            x       y       z     vdW  Elec       q    Type
                         _______ _______ _______ _____ _____    ______ ____

>  <TORSDO>
F 13

$$$$
