=
 OpenBabel11042422523D

 29 33  0  0  1  0  0  0  0  0999 V2000
  160.6780  201.2990  148.6970 C   0  0  0  0  0  3  0  0  0  0  0  0
  161.2720  206.9110  152.1070 C   0  0  2  0  0  3  0  0  0  0  0  0
  161.4070  209.7360  154.5970 C   0  0  0  0  0  1  0  0  0  0  0  0
  160.8500  205.9550  154.2410 C   0  0  0  0  0  3  0  0  0  0  0  0
  161.6540  208.9860  151.5230 C   0  0  0  0  0  0  0  0  0  0  0  0
  161.1560  203.2150  147.2550 C   0  0  0  0  0  3  0  0  0  0  0  0
  161.6560  208.2400  150.3820 N   0  0  0  0  0  0  0  0  0  0  0  0
  160.8500  204.4400  152.1510 C   0  0  0  0  0  3  0  0  0  0  0  0
  160.6960  202.1220  149.8360 C   0  0  0  0  0  3  0  0  0  0  0  0
  161.3950  205.4370  148.5540 C   0  0  0  0  0  0  0  0  0  0  0  0
  161.6380  206.2570  147.6310 O   0  0  0  0  0  0  0  0  0  0  0  0
  161.0260  204.5600  150.6370 C   0  0  0  0  0  0  0  0  0  0  0  0
  161.4060  208.1620  152.6210 C   0  0  0  0  0  0  0  0  0  0  0  0
  161.1690  204.0100  148.3980 C   0  0  0  0  0  0  0  0  0  0  0  0
  160.9460  203.4820  149.6530 C   0  0  0  0  0  0  0  0  0  0  0  0
  160.9060  201.8410  147.4140 C   0  0  0  0  0  0  0  0  0  0  0  0
  161.4230  206.9600  150.7600 C   0  0  0  0  0  0  0  0  0  0  0  0
  160.8430  207.3940  156.1900 O   0  0  0  0  0  1  0  0  0  0  0  0
  161.2900  205.7130  149.9900 C   0  0  0  0  0  0  0  0  0  0  0  0
  160.9880  207.2470  154.8150 C   0  0  0  0  0  0  0  0  0  0  0  0
  160.9940  205.7800  152.8550 C   0  0  0  0  0  0  0  0  0  0  0  0
  161.2680  208.3760  153.9990 C   0  0  0  0  0  0  0  0  0  0  0  0
  160.8820  200.9520  146.2230 C   0  0  0  0  0  1  0  0  0  0  0  0
  161.8460  208.7420  149.0320 C   0  0  0  0  0  1  0  0  0  0  0  0
  161.8100  210.4730  151.5560 C   0  0  0  0  0  2  0  0  0  0  0  0
  159.5210  211.6100  152.3280 C   0  0  0  0  0  0  0  0  0  0  0  0
  160.5550  211.0970  151.9770 C   0  0  0  0  0  0  0  0  0  0  0  0
  157.7690  211.9140  153.9250 C   0  0  0  0  0  2  0  0  0  0  0  0
  158.2910  212.2180  152.7470 C   0  0  0  0  0  3  0  0  0  0  0  0
  1  9  1  0  0  0  0
  2 17  1  6  0  0  0
  2 13  1  0  0  0  0
  2 21  1  0  0  0  0
  4 20  1  0  0  0  0
  5 25  1  0  0  0  0
  5 13  2  0  0  0  0
  6 16  1  0  0  0  0
  6 14  2  0  0  0  0
  7 17  1  0  0  0  0
  7  5  1  0  0  0  0
  8 21  1  0  0  0  0
 10 19  1  0  0  0  0
 11 10  2  0  0  0  0
 12  8  2  0  0  0  0
 13 22  1  0  0  0  0
 14 10  1  0  0  0  0
 14 15  1  0  0  0  0
 15  9  2  0  0  0  0
 15 12  1  0  0  0  0
 16  1  2  0  0  0  0
 19 12  1  0  0  0  0
 19 17  2  0  0  0  0
 20 18  1  0  0  0  0
 21  4  2  0  0  0  0
 22  3  1  0  0  0  0
 22 20  2  0  0  0  0
 23 16  1  0  0  0  0
 24  7  1  0  0  0  0
 25 27  1  0  0  0  0
 26 29  1  0  0  0  0
 27 26  3  0  0  0  0
 29 28  2  0  0  0  0
M  END
>  <MODEL>
1

>  <REMARK>
 VINA RESULT:     -11.0      0.000      0.000
  Name = 
  3 active torsions:
  status: ('A' for Active; 'I' for Inactive)
    1  A    between atoms: C_5  and  C_8
    2  A    between atoms: C_8  and  C_20
    3  A    between atoms: C_12  and  C_28
                            x       y       z     vdW  Elec       q    Type
                         _______ _______ _______ _____ _____    ______ ____

>  <TORSDO>
F 3

$$$$
=
 OpenBabel11042422523D

 29 33  0  0  0  0  0  0  0  0999 V2000
  161.3550  203.3430  148.1510 C   0  0  0  0  0  3  0  0  0  0  0  0
  160.9930  207.7360  153.0550 C   0  0  0  0  0  0  0  0  0  0  0  0
  160.6130  209.7010  156.2490 C   0  0  0  0  0  1  0  0  0  0  0  0
  160.6150  206.1520  154.7860 C   0  0  0  0  0  3  0  0  0  0  0  0
  161.1030  209.9220  153.1210 C   0  0  0  0  0  0  0  0  0  0  0  0
  161.6210  205.6420  147.3600 C   0  0  0  0  0  3  0  0  0  0  0  0
  161.2620  209.5490  151.8190 N   0  0  0  0  0  0  0  0  0  0  0  0
  160.9240  205.3290  152.3580 C   0  0  0  0  0  2  0  0  0  0  0  0
  161.2050  203.7920  149.4750 C   0  0  0  0  0  3  0  0  0  0  0  0
  161.4850  207.3960  149.2530 C   0  0  0  0  0  0  0  0  0  0  0  0
  161.6500  208.4750  148.6260 O   0  0  0  0  0  0  0  0  0  0  0  0
  161.1490  205.9090  150.9620 C   0  0  0  0  0  0  0  0  0  0  0  0
  160.9250  208.7880  153.9130 C   0  0  0  0  0  0  0  0  0  0  0  0
  161.4700  206.0620  148.6790 C   0  0  0  0  0  0  0  0  0  0  0  0
  161.2680  205.1660  149.7090 C   0  0  0  0  0  0  0  0  0  0  0  0
  161.5610  204.2620  147.1000 C   0  0  0  0  0  0  0  0  0  0  0  0
  161.1970  208.1970  151.7960 C   0  0  0  0  0  0  0  0  0  0  0  0
  160.3150  206.9440  157.0550 O   0  0  0  0  0  1  0  0  0  0  0  0
  161.2760  207.2240  150.6940 C   0  0  0  0  0  0  0  0  0  0  0  0
  160.5420  207.2250  155.7130 C   0  0  0  0  0  0  0  0  0  0  0  0
  160.8450  206.4100  153.4240 C   0  0  0  0  0  0  0  0  0  0  0  0
  160.6950  208.5700  155.2790 C   0  0  0  0  0  0  0  0  0  0  0  0
  161.7170  203.7660  145.7070 C   0  0  0  0  0  1  0  0  0  0  0  0
  161.4400  210.4450  150.6890 C   0  0  0  0  0  1  0  0  0  0  0  0
  161.0450  211.3420  153.5890 C   0  0  0  0  0  2  0  0  0  0  0  0
  158.5030  212.1060  153.8710 C   0  0  0  0  0  0  0  0  0  0  0  0
  159.6510  211.7590  153.7420 C   0  0  0  0  0  0  0  0  0  0  0  0
  156.3000  211.7880  154.7420 C   0  0  0  0  0  2  0  0  0  0  0  0
  157.1380  212.5210  154.0260 C   0  0  0  0  0  3  0  0  0  0  0  0
  1  9  1  0  0  0  0
  2 21  1  0  0  0  0
  2 13  1  0  0  0  0
  4 20  1  0  0  0  0
  5 25  1  0  0  0  0
  5 13  2  0  0  0  0
  6 14  2  0  0  0  0
  7  5  1  0  0  0  0
  8 21  1  0  0  0  0
  9 15  2  0  0  0  0
 10 19  1  0  0  0  0
 11 10  2  0  0  0  0
 12  8  1  0  0  0  0
 13 22  1  0  0  0  0
 14 10  1  0  0  0  0
 14 15  1  0  0  0  0
 15 12  1  0  0  0  0
 16  6  1  0  0  0  0
 16  1  2  0  0  0  0
 17  7  1  0  0  0  0
 17  2  2  0  0  0  0
 19 12  2  0  0  0  0
 19 17  1  0  0  0  0
 20 18  1  0  0  0  0
 21  4  2  0  0  0  0
 22 20  2  0  0  0  0
 22  3  1  0  0  0  0
 23 16  1  0  0  0  0
 24  7  1  0  0  0  0
 25 27  1  0  0  0  0
 26 29  1  0  0  0  0
 27 26  3  0  0  0  0
 29 28  2  0  0  0  0
M  END
>  <MODEL>
2

>  <REMARK>
 VINA RESULT:     -10.3      1.342      1.865
  Name = 
  3 active torsions:
  status: ('A' for Active; 'I' for Inactive)
    1  A    between atoms: C_5  and  C_8
    2  A    between atoms: C_8  and  C_20
    3  A    between atoms: C_12  and  C_28
                            x       y       z     vdW  Elec       q    Type
                         _______ _______ _______ _____ _____    ______ ____

>  <TORSDO>
F 3

$$$$
=
 OpenBabel11042422523D

 29 33  0  0  1  0  0  0  0  0999 V2000
  160.5580  201.3580  148.8240 C   0  0  0  0  0  3  0  0  0  0  0  0
  161.4050  207.2690  151.6180 C   0  0  2  0  0  3  0  0  0  0  0  0
  161.6110  210.3510  153.7780 C   0  0  0  0  0  1  0  0  0  0  0  0
  160.7460  206.6120  153.8050 C   0  0  0  0  0  3  0  0  0  0  0  0
  162.0110  209.2240  150.8390 C   0  0  0  0  0  0  0  0  0  0  0  0
  161.3080  203.0440  147.2200 C   0  0  0  0  0  3  0  0  0  0  0  0
  162.0290  208.3490  149.7930 N   0  0  0  0  0  0  0  0  0  0  0  0
  160.7610  204.8640  151.9050 C   0  0  0  0  0  3  0  0  0  0  0  0
  160.5680  202.3070  149.8610 C   0  0  0  0  0  3  0  0  0  0  0  0
  161.6510  205.3780  148.2760 C   0  0  0  0  0  0  0  0  0  0  0  0
  162.0320  206.0610  147.2900 O   0  0  0  0  0  0  0  0  0  0  0  0
  161.0550  204.7890  150.4070 C   0  0  0  0  0  0  0  0  0  0  0  0
  161.6120  208.5580  151.9980 C   0  0  0  0  0  0  0  0  0  0  0  0
  161.3100  203.9660  148.2630 C   0  0  0  0  0  0  0  0  0  0  0  0
  160.9510  203.6110  149.5470 C   0  0  0  0  0  0  0  0  0  0  0  0
  160.9250  201.7230  147.5110 C   0  0  0  0  0  0  0  0  0  0  0  0
  161.6560  207.1460  150.2920 C   0  0  0  0  0  0  0  0  0  0  0  0
  160.7270  208.2690  155.5720 O   0  0  0  0  0  1  0  0  0  0  0  0
  161.4680  205.8310  149.6590 C   0  0  0  0  0  0  0  0  0  0  0  0
  160.9570  207.9470  154.2390 C   0  0  0  0  0  0  0  0  0  0  0  0
  160.9730  206.2620  152.4640 C   0  0  0  0  0  0  0  0  0  0  0  0
  161.3940  208.9450  153.3270 C   0  0  0  0  0  0  0  0  0  0  0  0
  160.9080  200.7040  146.4300 C   0  0  0  0  0  1  0  0  0  0  0  0
  162.3600  208.6700  148.4150 C   0  0  0  0  0  1  0  0  0  0  0  0
  162.2980  210.6860  150.7170 C   0  0  0  0  0  2  0  0  0  0  0  0
  161.3490  211.6100  148.3980 C   0  0  0  0  0  0  0  0  0  0  0  0
  161.7760  211.1910  149.4450 C   0  0  0  0  0  0  0  0  0  0  0  0
  161.5490  212.9840  146.4520 C   0  0  0  0  0  2  0  0  0  0  0  0
  160.8420  212.1110  147.1530 C   0  0  0  0  0  3  0  0  0  0  0  0
  1  9  1  0  0  0  0
  2 17  1  6  0  0  0
  2 13  1  0  0  0  0
  2 21  1  0  0  0  0
  4 20  1  0  0  0  0
  5 13  2  0  0  0  0
  6 16  1  0  0  0  0
  6 14  2  0  0  0  0
  7 17  1  0  0  0  0
  7  5  1  0  0  0  0
  8 21  1  0  0  0  0
 10 19  1  0  0  0  0
 11 10  2  0  0  0  0
 12  8  2  0  0  0  0
 13 22  1  0  0  0  0
 14 10  1  0  0  0  0
 14 15  1  0  0  0  0
 15  9  2  0  0  0  0
 15 12  1  0  0  0  0
 16  1  2  0  0  0  0
 19 17  2  0  0  0  0
 19 12  1  0  0  0  0
 20 18  1  0  0  0  0
 21  4  2  0  0  0  0
 22  3  1  0  0  0  0
 22 20  2  0  0  0  0
 23 16  1  0  0  0  0
 24  7  1  0  0  0  0
 25  5  1  0  0  0  0
 26 27  3  0  0  0  0
 27 25  1  0  0  0  0
 28 29  2  0  0  0  0
 29 26  1  0  0  0  0
M  END
>  <MODEL>
3

>  <REMARK>
 VINA RESULT:     -10.1      1.486      2.244
  Name = 
  3 active torsions:
  status: ('A' for Active; 'I' for Inactive)
    1  A    between atoms: C_5  and  C_8
    2  A    between atoms: C_8  and  C_20
    3  A    between atoms: C_12  and  C_28
                            x       y       z     vdW  Elec       q    Type
                         _______ _______ _______ _____ _____    ______ ____

>  <TORSDO>
F 3

$$$$
=
 OpenBabel11042422523D

 29 33  0  0  0  0  0  0  0  0999 V2000
  161.0750  202.6430  145.6350 C   0  0  0  0  0  3  0  0  0  0  0  0
  161.5740  207.2650  150.3110 C   0  0  0  0  0  0  0  0  0  0  0  0
  162.0300  210.3280  152.4590 C   0  0  0  0  0  1  0  0  0  0  0  0
  161.9560  209.0830  148.8290 C   0  0  0  0  0  3  0  0  0  0  0  0
  161.4960  207.2000  152.4980 C   0  0  0  0  0  0  0  0  0  0  0  0
  160.8300  201.7170  147.8860 C   0  0  0  0  0  3  0  0  0  0  0  0
  161.3120  205.9250  152.0500 N   0  0  0  0  0  0  0  0  0  0  0  0
  161.5990  206.7150  147.8650 C   0  0  0  0  0  2  0  0  0  0  0  0
  161.2510  203.9350  146.1610 C   0  0  0  0  0  3  0  0  0  0  0  0
  161.0200  203.4990  149.7490 C   0  0  0  0  0  0  0  0  0  0  0  0
  160.8600  202.8090  150.7900 O   0  0  0  0  0  0  0  0  0  0  0  0
  161.3600  205.2890  148.3630 C   0  0  0  0  0  0  0  0  0  0  0  0
  161.6700  208.0570  151.4110 C   0  0  0  0  0  0  0  0  0  0  0  0
  161.0070  203.0060  148.3820 C   0  0  0  0  0  0  0  0  0  0  0  0
  161.2120  204.0850  147.5470 C   0  0  0  0  0  0  0  0  0  0  0  0
  160.8660  201.5410  146.4910 C   0  0  0  0  0  0  0  0  0  0  0  0
  161.3580  205.9840  150.6970 C   0  0  0  0  0  0  0  0  0  0  0  0
  162.3010  211.2960  149.7520 O   0  0  0  0  0  1  0  0  0  0  0  0
  161.2470  204.9440  149.6610 C   0  0  0  0  0  0  0  0  0  0  0  0
  162.0580  209.9420  149.9550 C   0  0  0  0  0  0  0  0  0  0  0  0
  161.7090  207.7120  149.0070 C   0  0  0  0  0  0  0  0  0  0  0  0
  161.9170  209.4300  151.2720 C   0  0  0  0  0  0  0  0  0  0  0  0
  160.6810  200.1830  145.9150 C   0  0  0  0  0  1  0  0  0  0  0  0
  161.1300  204.7450  152.8780 C   0  0  0  0  0  1  0  0  0  0  0  0
  161.5810  207.5800  153.9420 C   0  0  0  0  0  2  0  0  0  0  0  0
  159.7760  209.4680  154.4940 C   0  0  0  0  0  0  0  0  0  0  0  0
  160.5900  208.6140  154.2440 C   0  0  0  0  0  0  0  0  0  0  0  0
  158.5740  211.4530  153.9240 C   0  0  0  0  0  2  0  0  0  0  0  0
  158.8090  210.4840  154.7950 C   0  0  0  0  0  3  0  0  0  0  0  0
  1  9  2  0  0  0  0
  1 16  1  0  0  0  0
  2 17  2  0  0  0  0
  2 13  1  0  0  0  0
  4 21  2  0  0  0  0
  4 20  1  0  0  0  0
  5 25  1  0  0  0  0
  6 14  1  0  0  0  0
  7  5  1  0  0  0  0
  7 24  1  0  0  0  0
  8 12  1  0  0  0  0
  8 21  1  0  0  0  0
  9 15  1  0  0  0  0
 10 11  2  0  0  0  0
 12 19  2  0  0  0  0
 13  5  2  0  0  0  0
 14 10  1  0  0  0  0
 15 12  1  0  0  0  0
 15 14  2  0  0  0  0
 16  6  2  0  0  0  0
 17  7  1  0  0  0  0
 18 20  1  0  0  0  0
 19 10  1  0  0  0  0
 19 17  1  0  0  0  0
 20 22  2  0  0  0  0
 21  2  1  0  0  0  0
 22 13  1  0  0  0  0
 22  3  1  0  0  0  0
 23 16  1  0  0  0  0
 25 27  1  0  0  0  0
 26 29  1  0  0  0  0
 27 26  3  0  0  0  0
 28 29  2  0  0  0  0
M  END
>  <MODEL>
4

>  <REMARK>
 VINA RESULT:      -9.5      1.939      3.496
  Name = 
  3 active torsions:
  status: ('A' for Active; 'I' for Inactive)
    1  A    between atoms: C_5  and  C_8
    2  A    between atoms: C_8  and  C_20
    3  A    between atoms: C_12  and  C_28
                            x       y       z     vdW  Elec       q    Type
                         _______ _______ _______ _____ _____    ______ ____

>  <TORSDO>
F 3

$$$$
=
 OpenBabel11042422523D

 29 33  0  0  1  0  0  0  0  0999 V2000
  160.4540  208.0190  155.7630 C   0  0  0  0  0  3  0  0  0  0  0  0
  161.2800  205.0570  149.9310 C   0  0  2  0  0  3  0  0  0  0  0  0
  161.6520  202.7770  146.9530 C   0  0  0  0  0  1  0  0  0  0  0  0
  160.7550  202.8650  150.6840 C   0  0  0  0  0  3  0  0  0  0  0  0
  161.8970  205.7770  147.9570 C   0  0  0  0  0  0  0  0  0  0  0  0
  161.1340  209.5870  154.0140 C   0  0  0  0  0  3  0  0  0  0  0  0
  161.8850  206.8540  148.7940 N   0  0  0  0  0  0  0  0  0  0  0  0
  160.6780  204.8320  152.3540 C   0  0  0  0  0  3  0  0  0  0  0  0
  160.4780  206.9520  154.8480 C   0  0  0  0  0  3  0  0  0  0  0  0
  161.4700  208.4640  151.7100 C   0  0  0  0  0  0  0  0  0  0  0  0
  161.8030  209.4390  150.9880 O   0  0  0  0  0  0  0  0  0  0  0  0
  160.9420  206.3380  152.3780 C   0  0  0  0  0  0  0  0  0  0  0  0
  161.5240  204.6330  148.6630 C   0  0  0  0  0  0  0  0  0  0  0  0
  161.1510  208.5140  153.1270 C   0  0  0  0  0  0  0  0  0  0  0  0
  160.8330  207.2330  153.5290 C   0  0  0  0  0  0  0  0  0  0  0  0
  160.7800  209.3280  155.3500 C   0  0  0  0  0  0  0  0  0  0  0  0
  161.4970  206.3930  150.0070 C   0  0  0  0  0  0  0  0  0  0  0  0
  160.8440  201.0300  149.1060 O   0  0  0  0  0  1  0  0  0  0  0  0
  161.3170  207.0630  151.3060 C   0  0  0  0  0  0  0  0  0  0  0  0
  160.9960  202.3860  149.3700 C   0  0  0  0  0  0  0  0  0  0  0  0
  160.9000  204.2310  150.9760 C   0  0  0  0  0  0  0  0  0  0  0  0
  161.3910  203.2770  148.3350 C   0  0  0  0  0  0  0  0  0  0  0  0
  160.7470  210.4420  156.3330 C   0  0  0  0  0  1  0  0  0  0  0  0
  162.2450  208.2160  148.4400 C   0  0  0  0  0  1  0  0  0  0  0  0
  162.3320  205.8280  146.5270 C   0  0  0  0  0  2  0  0  0  0  0  0
  160.4580  204.7340  144.9710 C   0  0  0  0  0  0  0  0  0  0  0  0
  161.3040  205.2310  145.6730 C   0  0  0  0  0  0  0  0  0  0  0  0
  159.2790  202.8300  144.1370 C   0  0  0  0  0  2  0  0  0  0  0  0
  159.4530  204.1420  144.1360 C   0  0  0  0  0  3  0  0  0  0  0  0
  2 13  1  1  0  0  0
  2 17  1  0  0  0  0
  2 21  1  0  0  0  0
  3 22  1  0  0  0  0
  4 21  2  0  0  0  0
  5 13  2  0  0  0  0
  5  7  1  0  0  0  0
  6 16  2  0  0  0  0
  7 17  1  0  0  0  0
  8 12  2  0  0  0  0
  9  1  2  0  0  0  0
 10 14  1  0  0  0  0
 11 10  2  0  0  0  0
 12 15  1  0  0  0  0
 14 15  2  0  0  0  0
 14  6  1  0  0  0  0
 15  9  1  0  0  0  0
 16  1  1  0  0  0  0
 16 23  1  0  0  0  0
 17 19  2  0  0  0  0
 18 20  1  0  0  0  0
 19 10  1  0  0  0  0
 19 12  1  0  0  0  0
 20  4  1  0  0  0  0
 21  8  1  0  0  0  0
 22 13  1  0  0  0  0
 22 20  2  0  0  0  0
 24  7  1  0  0  0  0
 25  5  1  0  0  0  0
 26 27  3  0  0  0  0
 27 25  1  0  0  0  0
 29 28  2  0  0  0  0
 29 26  1  0  0  0  0
M  END
>  <MODEL>
5

>  <REMARK>
 VINA RESULT:      -9.0      2.118      7.455
  Name = 
  3 active torsions:
  status: ('A' for Active; 'I' for Inactive)
    1  A    between atoms: C_5  and  C_8
    2  A    between atoms: C_8  and  C_20
    3  A    between atoms: C_12  and  C_28
                            x       y       z     vdW  Elec       q    Type
                         _______ _______ _______ _____ _____    ______ ____

>  <TORSDO>
F 3

$$$$
=
 OpenBabel11042422523D

 29 33  0  0  0  0  0  0  0  0999 V2000
  161.2390  202.5530  147.4380 C   0  0  0  0  0  3  0  0  0  0  0  0
  161.2870  208.0070  151.1430 C   0  0  0  0  0  0  0  0  0  0  0  0
  161.4670  211.4500  152.6660 C   0  0  0  0  0  1  0  0  0  0  0  0
  161.5690  209.5330  149.3420 C   0  0  0  0  0  3  0  0  0  0  0  0
  161.1650  208.3560  153.3010 C   0  0  0  0  0  0  0  0  0  0  0  0
  161.0110  202.0580  149.8220 C   0  0  0  0  0  3  0  0  0  0  0  0
  161.0850  207.0080  153.1040 N   0  0  0  0  0  0  0  0  0  0  0  0
  161.4090  207.0040  148.8490 C   0  0  0  0  0  2  0  0  0  0  0  0
  161.3070  203.9310  147.7080 C   0  0  0  0  0  3  0  0  0  0  0  0
  161.0260  204.1720  151.3110 C   0  0  0  0  0  0  0  0  0  0  0  0
  160.8940  203.6840  152.4630 O   0  0  0  0  0  0  0  0  0  0  0  0
  161.2650  205.6850  149.6090 C   0  0  0  0  0  0  0  0  0  0  0  0
  161.3000  209.0000  152.0710 C   0  0  0  0  0  0  0  0  0  0  0  0
  161.0800  203.4280  150.0640 C   0  0  0  0  0  0  0  0  0  0  0  0
  161.2250  204.3400  149.0380 C   0  0  0  0  0  0  0  0  0  0  0  0
  161.0920  201.6220  148.4890 C   0  0  0  0  0  0  0  0  0  0  0  0
  161.1580  206.8110  151.7660 C   0  0  0  0  0  0  0  0  0  0  0  0
  161.7280  211.9010  149.8260 O   0  0  0  0  0  1  0  0  0  0  0  0
  161.1480  205.5870  150.9480 C   0  0  0  0  0  0  0  0  0  0  0  0
  161.5810  210.5970  150.2830 C   0  0  0  0  0  0  0  0  0  0  0  0
  161.4200  208.2060  149.7790 C   0  0  0  0  0  0  0  0  0  0  0  0
  161.4480  210.3360  151.6730 C   0  0  0  0  0  0  0  0  0  0  0  0
  161.0210  200.1690  148.1820 C   0  0  0  0  0  1  0  0  0  0  0  0
  160.9710  205.9980  154.1430 C   0  0  0  0  0  1  0  0  0  0  0  0
  161.1880  209.0090  154.6460 C   0  0  0  0  0  2  0  0  0  0  0  0
  158.8720  210.2620  155.0900 C   0  0  0  0  0  0  0  0  0  0  0  0
  159.9170  209.6940  154.8880 C   0  0  0  0  0  0  0  0  0  0  0  0
  157.4840  212.2040  154.9770 C   0  0  0  0  0  2  0  0  0  0  0  0
  157.6300  210.9380  155.3320 C   0  0  0  0  0  3  0  0  0  0  0  0
  1  9  2  0  0  0  0
  1 16  1  0  0  0  0
  2 17  2  0  0  0  0
  2 13  1  0  0  0  0
  4 21  2  0  0  0  0
  4 20  1  0  0  0  0
  5 25  1  0  0  0  0
  6 14  1  0  0  0  0
  7  5  1  0  0  0  0
  7 24  1  0  0  0  0
  8 12  1  0  0  0  0
  8 21  1  0  0  0  0
  9 15  1  0  0  0  0
 10 11  2  0  0  0  0
 12 19  2  0  0  0  0
 13  5  2  0  0  0  0
 14 10  1  0  0  0  0
 15 12  1  0  0  0  0
 15 14  2  0  0  0  0
 16  6  2  0  0  0  0
 17  7  1  0  0  0  0
 18 20  1  0  0  0  0
 19 10  1  0  0  0  0
 19 17  1  0  0  0  0
 20 22  2  0  0  0  0
 21  2  1  0  0  0  0
 22 13  1  0  0  0  0
 22  3  1  0  0  0  0
 23 16  1  0  0  0  0
 25 27  1  0  0  0  0
 26 29  1  0  0  0  0
 27 26  3  0  0  0  0
 28 29  2  0  0  0  0
M  END
>  <MODEL>
6

>  <REMARK>
 VINA RESULT:      -8.3      1.871      3.462
  Name = 
  3 active torsions:
  status: ('A' for Active; 'I' for Inactive)
    1  A    between atoms: C_5  and  C_8
    2  A    between atoms: C_8  and  C_20
    3  A    between atoms: C_12  and  C_28
                            x       y       z     vdW  Elec       q    Type
                         _______ _______ _______ _____ _____    ______ ____

>  <TORSDO>
F 3

$$$$
