=
 OpenBabel11042421133D

 32 34  0  0  1  0  0  0  0  0999 V2000
  160.9240  207.8140  151.4420 C   0  0  1  0  0  3  0  0  0  0  0  0
  162.2730  210.4820  154.0160 C   0  0  0  0  0  2  0  0  0  0  0  0
  160.8860  210.9540  154.4770 C   0  0  2  0  0  3  0  0  0  0  0  0
  160.9890  208.6190  152.7420 C   0  0  1  0  0  3  0  0  0  0  0  0
  157.8220  211.8750  154.4610 C   0  0  1  0  0  0  0  0  0  0  0  0
  157.1280  213.0790  154.5660 O   0  0  0  0  0  1  0  0  0  0  0  0
  156.9240  210.8870  154.0970 F   0  0  0  0  0  0  0  0  0  0  0  0
  160.6740  207.7330  153.9530 C   0  0  0  0  0  2  0  0  0  0  0  0
  158.8480  212.0180  153.3590 C   0  0  0  0  0  3  0  0  0  0  0  0
  160.6640  208.4700  155.2960 C   0  0  0  0  0  2  0  0  0  0  0  0
  158.9930  210.1590  155.8600 C   0  0  0  0  0  3  0  0  0  0  0  0
  160.1150  209.8660  155.1980 C   0  0  0  0  0  0  0  0  0  0  0  0
  160.1290  211.6050  153.3440 C   0  0  0  0  0  3  0  0  0  0  0  0
  158.4080  211.5400  155.8340 C   0  0  0  0  0  2  0  0  0  0  0  0
  162.2780  209.4490  152.8740 C   0  0  0  0  0  2  0  0  0  0  0  0
  162.1440  210.1710  149.0860 C   0  0  0  0  0  0  0  0  0  0  0  0
  161.6200  209.9240  150.2980 N   0  0  0  0  0  0  0  0  0  0  0  0
  162.2920  209.0000  148.3650 C   0  0  0  0  0  3  0  0  0  0  0  0
  161.4600  208.5880  150.2780 C   0  0  0  0  0  0  0  0  0  0  0  0
  161.8570  208.0430  149.1480 O   0  0  0  0  0  0  0  0  0  0  0  0
  161.7190  212.2980  147.7510 C   0  0  0  0  0  0  0  0  0  0  0  0
  162.1850  213.5970  147.4060 N   0  0  0  0  0  1  0  0  0  0  0  0
  162.4910  211.4890  148.6430 N   0  0  0  0  0  2  0  0  0  0  0  0
  160.6350  211.8790  147.2660 O   0  0  0  0  0  0  0  0  0  0  0  0
  162.6770  206.2720  152.0080 O   0  0  0  0  0  0  0  0  0  0  0  0
  160.7490  205.3190  151.1040 N   0  0  0  0  0  2  0  0  0  0  0  0
  161.5170  206.4390  151.5410 C   0  0  0  0  0  0  0  0  0  0  0  0
  161.2600  203.9600  151.1780 C   0  0  0  0  0  2  0  0  0  0  0  0
  160.6400  203.1120  150.0800 C   0  0  1  0  0  3  0  0  0  0  0  0
  161.1590  203.5060  148.7800 N   0  0  0  0  0  1  0  0  0  0  0  0
  160.8980  201.6300  150.3260 C   0  0  0  0  0  2  0  0  0  0  0  0
  161.2050  200.9380  149.0840 N   0  0  0  0  0  1  0  0  0  0  0  0
  1 27  1  1  0  0  0
  2  3  1  0  0  0  0
  3 13  1  6  0  0  0
  3 12  1  0  0  0  0
  4  1  1  6  0  0  0
  4 15  1  0  0  0  0
  4  8  1  0  0  0  0
  5  7  1  6  0  0  0
  5  6  1  0  0  0  0
  5 14  1  0  0  0  0
  8 10  1  0  0  0  0
  9  5  1  0  0  0  0
 12 10  1  0  0  0  0
 12 11  2  0  0  0  0
 13  9  2  0  0  0  0
 14 11  1  0  0  0  0
 15  2  1  0  0  0  0
 16 17  1  0  0  0  0
 18 16  2  0  0  0  0
 18 20  1  0  0  0  0
 19 17  2  0  0  0  0
 19  1  1  0  0  0  0
 20 19  1  0  0  0  0
 21 23  1  0  0  0  0
 22 21  1  0  0  0  0
 23 16  1  0  0  0  0
 24 21  2  0  0  0  0
 26 28  1  0  0  0  0
 26 27  1  0  0  0  0
 27 25  2  0  0  0  0
 29 30  1  6  0  0  0
 29 31  1  0  0  0  0
 29 28  1  0  0  0  0
 32 31  1  0  0  0  0
M  END
>  <MODEL>
1

>  <REMARK>
 VINA RESULT:      -7.1      0.000      0.000
  Name = 
  7 active torsions:
  status: ('A' for Active; 'I' for Inactive)
    1  A    between atoms: N_5  and  C_11
    2  A    between atoms: C_6  and  C_26
    3  A    between atoms: C_10  and  N_16
    4  A    between atoms: C_11  and  C_12
    5  A    between atoms: C_12  and  C_17
    6  A    between atoms: C_20  and  C_26
    7  A    between atoms: C_21  and  C_26
                            x       y       z     vdW  Elec       q    Type
                         _______ _______ _______ _____ _____    ______ ____

>  <TORSDO>
F 7

$$$$
=
 OpenBabel11042421133D

 32 34  0  0  1  0  0  0  0  0999 V2000
  160.6660  206.8760  151.4130 C   0  0  1  0  0  3  0  0  0  0  0  0
  162.4230  210.0860  152.8890 C   0  0  0  0  0  2  0  0  0  0  0  0
  161.1410  210.6980  153.4740 C   0  0  2  0  0  3  0  0  0  0  0  0
  160.9640  207.9900  152.4200 C   0  0  1  0  0  3  0  0  0  0  0  0
  158.1100  211.6610  153.8210 C   0  0  1  0  0  0  0  0  0  0  0  0
  157.4180  212.8690  153.7430 O   0  0  0  0  0  1  0  0  0  0  0  0
  157.1840  210.6360  153.9100 F   0  0  0  0  0  0  0  0  0  0  0  0
  160.9160  207.4570  153.8580 C   0  0  0  0  0  2  0  0  0  0  0  0
  158.8960  211.4860  152.5410 C   0  0  0  0  0  3  0  0  0  0  0  0
  161.1490  208.5180  154.9380 C   0  0  0  0  0  2  0  0  0  0  0  0
  159.5780  210.3390  155.3600 C   0  0  0  0  0  3  0  0  0  0  0  0
  160.5560  209.8550  154.5900 C   0  0  0  0  0  0  0  0  0  0  0  0
  160.1600  211.0510  152.3830 C   0  0  0  0  0  3  0  0  0  0  0  0
  158.9620  211.6810  155.0910 C   0  0  0  0  0  2  0  0  0  0  0  0
  162.2320  208.7920  152.0770 C   0  0  0  0  0  2  0  0  0  0  0  0
  161.2220  207.2610  147.9300 C   0  0  0  0  0  0  0  0  0  0  0  0
  160.7550  206.5120  148.9430 N   0  0  0  0  0  0  0  0  0  0  0  0
  161.7610  208.4440  148.3990 C   0  0  0  0  0  3  0  0  0  0  0  0
  161.0310  207.2740  150.0170 C   0  0  0  0  0  0  0  0  0  0  0  0
  161.6170  208.4090  149.7020 O   0  0  0  0  0  0  0  0  0  0  0  0
  161.9000  205.7850  145.9670 C   0  0  0  0  0  0  0  0  0  0  0  0
  161.7130  205.4800  144.5910 N   0  0  0  0  0  1  0  0  0  0  0  0
  161.1470  206.8470  146.5600 N   0  0  0  0  0  2  0  0  0  0  0  0
  162.7260  205.1180  146.6440 O   0  0  0  0  0  0  0  0  0  0  0  0
  162.2930  205.4550  152.4660 O   0  0  0  0  0  0  0  0  0  0  0  0
  160.5330  204.3560  151.3960 N   0  0  0  0  0  2  0  0  0  0  0  0
  161.2260  205.5370  151.7950 C   0  0  0  0  0  0  0  0  0  0  0  0
  161.0170  203.0280  151.7380 C   0  0  0  0  0  2  0  0  0  0  0  0
  161.2620  202.2230  150.4730 C   0  0  1  0  0  3  0  0  0  0  0  0
  160.4690  201.0040  150.4870 N   0  0  0  0  0  1  0  0  0  0  0  0
  160.9420  203.0490  149.2330 C   0  0  0  0  0  2  0  0  0  0  0  0
  161.0310  202.2400  148.0270 N   0  0  0  0  0  1  0  0  0  0  0  0
  1 27  1  1  0  0  0
  2  3  1  0  0  0  0
  3 13  1  6  0  0  0
  3 12  1  0  0  0  0
  4  1  1  6  0  0  0
  4  8  1  0  0  0  0
  5  6  1  6  0  0  0
  5  7  1  0  0  0  0
  5 14  1  0  0  0  0
  8 10  1  0  0  0  0
  9  5  1  0  0  0  0
 12 10  1  0  0  0  0
 12 11  2  0  0  0  0
 13  9  2  0  0  0  0
 14 11  1  0  0  0  0
 15  4  1  0  0  0  0
 15  2  1  0  0  0  0
 16 18  2  0  0  0  0
 16 17  1  0  0  0  0
 17 19  2  0  0  0  0
 18 20  1  0  0  0  0
 19  1  1  0  0  0  0
 20 19  1  0  0  0  0
 21 23  1  0  0  0  0
 21 24  2  0  0  0  0
 22 21  1  0  0  0  0
 23 16  1  0  0  0  0
 26 28  1  0  0  0  0
 26 27  1  0  0  0  0
 27 25  2  0  0  0  0
 29 30  1  1  0  0  0
 29 28  1  0  0  0  0
 31 29  1  0  0  0  0
 32 31  1  0  0  0  0
M  END
>  <MODEL>
2

>  <REMARK>
 VINA RESULT:      -7.0      2.173      2.842
  Name = 
  7 active torsions:
  status: ('A' for Active; 'I' for Inactive)
    1  A    between atoms: N_5  and  C_11
    2  A    between atoms: C_6  and  C_26
    3  A    between atoms: C_10  and  N_16
    4  A    between atoms: C_11  and  C_12
    5  A    between atoms: C_12  and  C_17
    6  A    between atoms: C_20  and  C_26
    7  A    between atoms: C_21  and  C_26
                            x       y       z     vdW  Elec       q    Type
                         _______ _______ _______ _____ _____    ______ ____

>  <TORSDO>
F 7

$$$$
=
 OpenBabel11042421133D

 32 34  0  0  1  0  0  0  0  0999 V2000
  161.0500  207.0960  148.4500 C   0  0  1  0  0  3  0  0  0  0  0  0
  163.0590  205.2440  145.6050 C   0  0  0  0  0  2  0  0  0  0  0  0
  162.2540  203.9380  145.6840 C   0  0  2  0  0  3  0  0  0  0  0  0
  161.2740  206.2030  147.2270 C   0  0  1  0  0  3  0  0  0  0  0  0
  160.6700  201.4020  146.8190 C   0  0  1  0  0  0  0  0  0  0  0  0
  160.9270  200.0430  146.9910 O   0  0  0  0  0  1  0  0  0  0  0  0
  159.4840  201.7030  147.4680 F   0  0  0  0  0  0  0  0  0  0  0  0
  160.1520  206.3910  146.1970 C   0  0  0  0  0  2  0  0  0  0  0  0
  161.7870  202.1800  147.4780 C   0  0  0  0  0  3  0  0  0  0  0  0
  160.2660  205.4940  144.9610 C   0  0  0  0  0  2  0  0  0  0  0  0
  160.0210  203.0670  145.0650 C   0  0  0  0  0  3  0  0  0  0  0  0
  160.8070  204.1260  145.2720 C   0  0  0  0  0  0  0  0  0  0  0  0
  162.4360  203.2670  147.0230 C   0  0  0  0  0  3  0  0  0  0  0  0
  160.5060  201.6710  145.3220 C   0  0  0  0  0  2  0  0  0  0  0  0
  162.6960  206.3130  146.6510 C   0  0  0  0  0  2  0  0  0  0  0  0
  161.0000  205.8000  151.7530 C   0  0  0  0  0  0  0  0  0  0  0  0
  161.1550  206.8550  150.9350 N   0  0  0  0  0  0  0  0  0  0  0  0
  160.7510  204.6470  151.0310 C   0  0  0  0  0  3  0  0  0  0  0  0
  160.9960  206.3020  149.7180 C   0  0  0  0  0  0  0  0  0  0  0  0
  160.7550  205.0100  149.7710 O   0  0  0  0  0  0  0  0  0  0  0  0
  160.9170  207.1060  153.9380 C   0  0  0  0  0  0  0  0  0  0  0  0
  161.0220  207.0570  155.3560 N   0  0  0  0  0  1  0  0  0  0  0  0
  161.0860  205.9050  153.1800 N   0  0  0  0  0  2  0  0  0  0  0  0
  160.6780  208.2050  153.3720 O   0  0  0  0  0  0  0  0  0  0  0  0
  163.2360  208.0760  148.6200 O   0  0  0  0  0  0  0  0  0  0  0  0
  161.4590  209.5850  148.5280 N   0  0  0  0  0  2  0  0  0  0  0  0
  161.9900  208.2620  148.5400 C   0  0  0  0  0  0  0  0  0  0  0  0
  162.3140  210.7590  148.6050 C   0  0  0  0  0  2  0  0  0  0  0  0
  161.5880  211.9680  148.0410 C   0  0  1  0  0  3  0  0  0  0  0  0
  161.0210  212.7670  149.1160 N   0  0  0  0  0  1  0  0  0  0  0  0
  162.5250  212.8150  147.1890 C   0  0  0  0  0  2  0  0  0  0  0  0
  162.7390  214.1230  147.7880 N   0  0  0  0  0  1  0  0  0  0  0  0
  1 27  1  1  0  0  0
  1 19  1  0  0  0  0
  2 15  1  0  0  0  0
  3  2  1  1  0  0  0
  3 13  1  0  0  0  0
  4  1  1  1  0  0  0
  5  6  1  1  0  0  0
  5  7  1  0  0  0  0
  5  9  1  0  0  0  0
  8  4  1  0  0  0  0
 10 12  1  0  0  0  0
 10  8  1  0  0  0  0
 11 12  2  0  0  0  0
 11 14  1  0  0  0  0
 12  3  1  0  0  0  0
 13  9  2  0  0  0  0
 14  5  1  0  0  0  0
 15  4  1  0  0  0  0
 16 23  1  0  0  0  0
 17 16  1  0  0  0  0
 18 16  2  0  0  0  0
 19 20  1  0  0  0  0
 19 17  2  0  0  0  0
 20 18  1  0  0  0  0
 21 22  1  0  0  0  0
 23 21  1  0  0  0  0
 24 21  2  0  0  0  0
 26 27  1  0  0  0  0
 26 28  1  0  0  0  0
 27 25  2  0  0  0  0
 29 28  1  0  0  0  0
 29 30  1  1  0  0  0
 31 32  1  0  0  0  0
 31 29  1  0  0  0  0
M  END
>  <MODEL>
3

>  <REMARK>
 VINA RESULT:      -6.2      3.920      9.307
  Name = 
  7 active torsions:
  status: ('A' for Active; 'I' for Inactive)
    1  A    between atoms: N_5  and  C_11
    2  A    between atoms: C_6  and  C_26
    3  A    between atoms: C_10  and  N_16
    4  A    between atoms: C_11  and  C_12
    5  A    between atoms: C_12  and  C_17
    6  A    between atoms: C_20  and  C_26
    7  A    between atoms: C_21  and  C_26
                            x       y       z     vdW  Elec       q    Type
                         _______ _______ _______ _____ _____    ______ ____

>  <TORSDO>
F 7

$$$$
=
 OpenBabel11042421133D

 32 34  0  0  1  0  0  0  0  0999 V2000
  162.3260  207.0400  151.5410 C   0  0  1  0  0  3  0  0  0  0  0  0
  159.4890  206.0420  148.9870 C   0  0  0  0  0  2  0  0  0  0  0  0
  160.4360  205.4070  147.9570 C   0  0  2  0  0  3  0  0  0  0  0  0
  161.5780  206.1750  150.5220 C   0  0  1  0  0  3  0  0  0  0  0  0
  162.9470  204.8880  146.0440 C   0  0  1  0  0  0  0  0  0  0  0  0
  163.2260  205.0200  144.6850 O   0  0  0  0  0  1  0  0  0  0  0  0
  164.1320  204.6190  146.7060 F   0  0  0  0  0  0  0  0  0  0  0  0
  161.6270  204.6940  150.9190 C   0  0  0  0  0  2  0  0  0  0  0  0
  162.4090  206.2100  146.5440 C   0  0  0  0  0  3  0  0  0  0  0  0
  160.9480  203.7460  149.9260 C   0  0  0  0  0  2  0  0  0  0  0  0
  161.8050  203.3650  147.6710 C   0  0  0  0  0  3  0  0  0  0  0  0
  161.1250  204.1680  148.4930 C   0  0  0  0  0  0  0  0  0  0  0  0
  161.3740  206.4370  147.3750 C   0  0  0  0  0  3  0  0  0  0  0  0
  161.9920  203.7060  146.2220 C   0  0  0  0  0  2  0  0  0  0  0  0
  160.1710  206.7050  150.1980 C   0  0  0  0  0  2  0  0  0  0  0  0
  162.2280  210.2430  150.0160 C   0  0  0  0  0  0  0  0  0  0  0  0
  162.2350  208.9060  149.8810 N   0  0  0  0  0  0  0  0  0  0  0  0
  162.3030  210.6050  151.3480 C   0  0  0  0  0  3  0  0  0  0  0  0
  162.3180  208.4870  151.1570 C   0  0  0  0  0  0  0  0  0  0  0  0
  162.3530  209.4800  152.0200 O   0  0  0  0  0  0  0  0  0  0  0  0
  161.3990  212.3530  148.8550 C   0  0  0  0  0  0  0  0  0  0  0  0
  161.4210  213.1460  147.6740 N   0  0  0  0  0  1  0  0  0  0  0  0
  162.1490  211.1350  148.8980 N   0  0  0  0  0  2  0  0  0  0  0  0
  160.7190  212.7330  149.8440 O   0  0  0  0  0  0  0  0  0  0  0  0
  162.4290  205.9040  153.6550 O   0  0  0  0  0  0  0  0  0  0  0  0
  160.8980  207.6610  153.5270 N   0  0  0  0  0  2  0  0  0  0  0  0
  161.9020  206.8190  152.9630 C   0  0  0  0  0  0  0  0  0  0  0  0
  160.4460  207.5050  154.9000 C   0  0  0  0  0  2  0  0  0  0  0  0
  160.5660  208.8270  155.6390 C   0  0  1  0  0  3  0  0  0  0  0  0
  161.9060  208.9850  156.1810 N   0  0  0  0  0  1  0  0  0  0  0  0
  160.2240  209.9950  154.7220 C   0  0  0  0  0  2  0  0  0  0  0  0
  161.1810  211.0800  154.8760 N   0  0  0  0  0  1  0  0  0  0  0  0
  1 27  1  1  0  0  0
  2 15  1  0  0  0  0
  3 13  1  1  0  0  0
  3 12  1  0  0  0  0
  3  2  1  0  0  0  0
  4  8  1  0  0  0  0
  4  1  1  1  0  0  0
  5  6  1  6  0  0  0
  5 14  1  0  0  0  0
  5  9  1  0  0  0  0
  5  7  1  0  0  0  0
  9 13  2  0  0  0  0
 10  8  1  0  0  0  0
 11 12  2  0  0  0  0
 12 10  1  0  0  0  0
 14 11  1  0  0  0  0
 15  4  1  0  0  0  0
 16 18  2  0  0  0  0
 17 16  1  0  0  0  0
 17 19  2  0  0  0  0
 18 20  1  0  0  0  0
 19  1  1  0  0  0  0
 19 20  1  0  0  0  0
 21 23  1  0  0  0  0
 21 24  2  0  0  0  0
 22 21  1  0  0  0  0
 23 16  1  0  0  0  0
 26 28  1  0  0  0  0
 27 26  1  0  0  0  0
 27 25  2  0  0  0  0
 28 29  1  0  0  0  0
 29 30  1  6  0  0  0
 31 32  1  0  0  0  0
 31 29  1  0  0  0  0
M  END
>  <MODEL>
4

>  <REMARK>
 VINA RESULT:      -6.1      3.440      7.286
  Name = 
  7 active torsions:
  status: ('A' for Active; 'I' for Inactive)
    1  A    between atoms: N_5  and  C_11
    2  A    between atoms: C_6  and  C_26
    3  A    between atoms: C_10  and  N_16
    4  A    between atoms: C_11  and  C_12
    5  A    between atoms: C_12  and  C_17
    6  A    between atoms: C_20  and  C_26
    7  A    between atoms: C_21  and  C_26
                            x       y       z     vdW  Elec       q    Type
                         _______ _______ _______ _____ _____    ______ ____

>  <TORSDO>
F 7

$$$$
=
 OpenBabel11042421133D

 32 34  0  0  1  0  0  0  0  0999 V2000
  161.8530  205.2760  151.4630 C   0  0  1  0  0  3  0  0  0  0  0  0
  162.3580  207.9540  148.6100 C   0  0  0  0  0  2  0  0  0  0  0  0
  162.2150  206.9590  147.4480 C   0  0  2  0  0  3  0  0  0  0  0  0
  161.6170  205.9790  150.1230 C   0  0  1  0  0  3  0  0  0  0  0  0
  162.4800  204.3360  145.6360 C   0  0  1  0  0  0  0  0  0  0  0  0
  163.2120  203.9530  144.5130 O   0  0  0  0  0  1  0  0  0  0  0  0
  161.8530  203.2140  146.1480 F   0  0  0  0  0  0  0  0  0  0  0  0
  160.1220  206.0170  149.7790 C   0  0  0  0  0  2  0  0  0  0  0  0
  163.4480  204.8590  146.6730 C   0  0  0  0  0  3  0  0  0  0  0  0
  159.7960  206.6560  148.4260 C   0  0  0  0  0  2  0  0  0  0  0  0
  160.4550  205.6510  146.3000 C   0  0  0  0  0  3  0  0  0  0  0  0
  160.8250  206.3580  147.3700 C   0  0  0  0  0  0  0  0  0  0  0  0
  163.3310  205.9420  147.4630 C   0  0  0  0  0  3  0  0  0  0  0  0
  161.4190  205.3450  145.1920 C   0  0  0  0  0  2  0  0  0  0  0  0
  162.3310  207.3380  150.0210 C   0  0  0  0  0  2  0  0  0  0  0  0
  160.8400  207.7920  153.7520 C   0  0  0  0  0  0  0  0  0  0  0  0
  161.0440  207.4110  152.4790 N   0  0  0  0  0  0  0  0  0  0  0  0
  161.1700  206.7760  154.6300 C   0  0  0  0  0  3  0  0  0  0  0  0
  161.5030  206.1540  152.6240 C   0  0  0  0  0  0  0  0  0  0  0  0
  161.5740  205.7770  153.8820 O   0  0  0  0  0  0  0  0  0  0  0  0
  161.0780  210.3120  154.0300 C   0  0  0  0  0  0  0  0  0  0  0  0
  160.4470  211.5310  154.4050 N   0  0  0  0  0  1  0  0  0  0  0  0
  160.3410  209.0880  154.1030 N   0  0  0  0  0  2  0  0  0  0  0  0
  162.2750  210.3280  153.6400 O   0  0  0  0  0  0  0  0  0  0  0  0
  160.4560  203.6320  152.5190 O   0  0  0  0  0  0  0  0  0  0  0  0
  161.5090  202.9470  150.5520 N   0  0  0  0  0  2  0  0  0  0  0  0
  161.2270  203.9160  151.5610 C   0  0  0  0  0  0  0  0  0  0  0  0
  160.9310  201.6140  150.5820 C   0  0  0  0  0  2  0  0  0  0  0  0
  160.4780  201.2120  149.1890 C   0  0  1  0  0  3  0  0  0  0  0  0
  160.0720  202.3840  148.4300 N   0  0  0  0  0  1  0  0  0  0  0  0
  161.5810  200.4610  148.4540 C   0  0  0  0  0  2  0  0  0  0  0  0
  161.2090  200.2030  147.0720 N   0  0  0  0  0  1  0  0  0  0  0  0
  1 27  1  6  0  0  0
  1 19  1  0  0  0  0
  2 15  1  0  0  0  0
  3 13  1  1  0  0  0
  3  2  1  0  0  0  0
  4  1  1  1  0  0  0
  5  6  1  6  0  0  0
  5  7  1  0  0  0  0
  5  9  1  0  0  0  0
  8  4  1  0  0  0  0
  9 13  2  0  0  0  0
 10  8  1  0  0  0  0
 11 12  2  0  0  0  0
 12  3  1  0  0  0  0
 12 10  1  0  0  0  0
 14  5  1  0  0  0  0
 14 11  1  0  0  0  0
 15  4  1  0  0  0  0
 16 23  1  0  0  0  0
 16 18  2  0  0  0  0
 17 19  2  0  0  0  0
 17 16  1  0  0  0  0
 19 20  1  0  0  0  0
 20 18  1  0  0  0  0
 21 23  1  0  0  0  0
 21 22  1  0  0  0  0
 24 21  2  0  0  0  0
 26 28  1  0  0  0  0
 26 27  1  0  0  0  0
 27 25  2  0  0  0  0
 29 30  1  6  0  0  0
 29 28  1  0  0  0  0
 31 29  1  0  0  0  0
 32 31  1  0  0  0  0
M  END
>  <MODEL>
5

>  <REMARK>
 VINA RESULT:      -5.6      3.814      7.147
  Name = 
  7 active torsions:
  status: ('A' for Active; 'I' for Inactive)
    1  A    between atoms: N_5  and  C_11
    2  A    between atoms: C_6  and  C_26
    3  A    between atoms: C_10  and  N_16
    4  A    between atoms: C_11  and  C_12
    5  A    between atoms: C_12  and  C_17
    6  A    between atoms: C_20  and  C_26
    7  A    between atoms: C_21  and  C_26
                            x       y       z     vdW  Elec       q    Type
                         _______ _______ _______ _____ _____    ______ ____

>  <TORSDO>
F 7

$$$$
=
 OpenBabel11042421133D

 32 34  0  0  1  0  0  0  0  0999 V2000
  161.9080  209.9530  152.0310 C   0  0  1  0  0  3  0  0  0  0  0  0
  161.7950  210.9660  155.8420 C   0  0  0  0  0  2  0  0  0  0  0  0
  160.3150  211.3770  155.8400 C   0  0  2  0  0  3  0  0  0  0  0  0
  161.3390  210.0750  153.4470 C   0  0  1  0  0  3  0  0  0  0  0  0
  157.5050  212.6360  154.9720 C   0  0  1  0  0  0  0  0  0  0  0  0
  156.7470  213.7520  155.3210 O   0  0  0  0  0  1  0  0  0  0  0  0
  156.9320  212.0550  153.8540 F   0  0  0  0  0  0  0  0  0  0  0  0
  160.5940  208.7960  153.8510 C   0  0  0  0  0  2  0  0  0  0  0  0
  158.8950  213.1070  154.6070 C   0  0  0  0  0  3  0  0  0  0  0  0
  159.9440  208.8480  155.2370 C   0  0  0  0  0  2  0  0  0  0  0  0
  158.0740  210.3290  155.7610 C   0  0  0  0  0  3  0  0  0  0  0  0
  159.3900  210.2040  155.5780 C   0  0  0  0  0  0  0  0  0  0  0  0
  160.0810  212.5660  154.9400 C   0  0  0  0  0  3  0  0  0  0  0  0
  157.4560  211.6430  156.1350 C   0  0  0  0  0  2  0  0  0  0  0  0
  162.3750  210.5630  154.4740 C   0  0  0  0  0  2  0  0  0  0  0  0
  161.3900  206.9160  150.2700 C   0  0  0  0  0  0  0  0  0  0  0  0
  161.2100  208.2460  150.3450 N   0  0  0  0  0  0  0  0  0  0  0  0
  162.0880  206.4500  151.3680 C   0  0  0  0  0  3  0  0  0  0  0  0
  161.8120  208.5540  151.5090 C   0  0  0  0  0  0  0  0  0  0  0  0
  162.3310  207.5050  152.1090 O   0  0  0  0  0  0  0  0  0  0  0  0
  161.4040  206.1730  147.8340 C   0  0  0  0  0  0  0  0  0  0  0  0
  160.8310  205.3220  146.8480 N   0  0  0  0  0  1  0  0  0  0  0  0
  160.9070  206.1280  149.1750 N   0  0  0  0  0  2  0  0  0  0  0  0
  162.3390  206.9530  147.5120 O   0  0  0  0  0  0  0  0  0  0  0  0
  160.4110  211.7210  151.3930 O   0  0  0  0  0  0  0  0  0  0  0  0
  161.9550  211.0710  149.7680 N   0  0  0  0  0  2  0  0  0  0  0  0
  161.3680  210.9670  151.0640 C   0  0  0  0  0  0  0  0  0  0  0  0
  161.4860  212.0340  148.7860 C   0  0  0  0  0  2  0  0  0  0  0  0
  162.6440  212.8920  148.3060 C   0  0  1  0  0  3  0  0  0  0  0  0
  163.7210  212.0550  147.8020 N   0  0  0  0  0  1  0  0  0  0  0  0
  162.1870  213.8710  147.2310 C   0  0  0  0  0  2  0  0  0  0  0  0
  162.4410  213.3430  145.9000 N   0  0  0  0  0  1  0  0  0  0  0  0
  1 27  1  6  0  0  0
  3 13  1  6  0  0  0
  3  2  1  0  0  0  0
  4  1  1  6  0  0  0
  4  8  1  0  0  0  0
  4 15  1  0  0  0  0
  5  7  1  6  0  0  0
  5  6  1  0  0  0  0
  5 14  1  0  0  0  0
  8 10  1  0  0  0  0
  9 13  2  0  0  0  0
  9  5  1  0  0  0  0
 10 12  1  0  0  0  0
 11 14  1  0  0  0  0
 12 11  2  0  0  0  0
 12  3  1  0  0  0  0
 15  2  1  0  0  0  0
 16 17  1  0  0  0  0
 16 18  2  0  0  0  0
 17 19  2  0  0  0  0
 18 20  1  0  0  0  0
 19  1  1  0  0  0  0
 19 20  1  0  0  0  0
 21 23  1  0  0  0  0
 22 21  1  0  0  0  0
 23 16  1  0  0  0  0
 24 21  2  0  0  0  0
 26 27  1  0  0  0  0
 27 25  2  0  0  0  0
 28 26  1  0  0  0  0
 29 30  1  6  0  0  0
 29 28  1  0  0  0  0
 31 29  1  0  0  0  0
 32 31  1  0  0  0  0
M  END
>  <MODEL>
6

>  <REMARK>
 VINA RESULT:      -5.5      2.149      5.348
  Name = 
  7 active torsions:
  status: ('A' for Active; 'I' for Inactive)
    1  A    between atoms: N_5  and  C_11
    2  A    between atoms: C_6  and  C_26
    3  A    between atoms: C_10  and  N_16
    4  A    between atoms: C_11  and  C_12
    5  A    between atoms: C_12  and  C_17
    6  A    between atoms: C_20  and  C_26
    7  A    between atoms: C_21  and  C_26
                            x       y       z     vdW  Elec       q    Type
                         _______ _______ _______ _____ _____    ______ ____

>  <TORSDO>
F 7

$$$$
=
 OpenBabel11042421133D

 32 34  0  0  1  0  0  0  0  0999 V2000
  161.9100  209.9530  152.2710 C   0  0  1  0  0  3  0  0  0  0  0  0
  161.6680  210.8650  156.1020 C   0  0  0  0  0  2  0  0  0  0  0  0
  160.2110  211.3510  156.0440 C   0  0  2  0  0  3  0  0  0  0  0  0
  161.2820  210.0640  153.6630 C   0  0  1  0  0  3  0  0  0  0  0  0
  157.5130  212.7770  155.0860 C   0  0  1  0  0  0  0  0  0  0  0  0
  156.7960  213.9210  155.4320 O   0  0  0  0  0  1  0  0  0  0  0  0
  156.9660  212.2580  153.9250 F   0  0  0  0  0  0  0  0  0  0  0  0
  160.4550  208.8150  153.9930 C   0  0  0  0  0  2  0  0  0  0  0  0
  158.9410  213.1860  154.7990 C   0  0  0  0  0  3  0  0  0  0  0  0
  159.7430  208.8630  155.3490 C   0  0  0  0  0  2  0  0  0  0  0  0
  157.9270  210.4230  155.8300 C   0  0  0  0  0  3  0  0  0  0  0  0
  159.2430  210.2360  155.7040 C   0  0  0  0  0  0  0  0  0  0  0  0
  160.0810  212.5750  155.1700 C   0  0  0  0  0  3  0  0  0  0  0  0
  157.3590  211.7570  156.2150 C   0  0  0  0  0  2  0  0  0  0  0  0
  162.2910  210.4700  154.7510 C   0  0  0  0  0  2  0  0  0  0  0  0
  161.3350  206.9820  150.4170 C   0  0  0  0  0  0  0  0  0  0  0  0
  161.1970  208.3150  150.5240 N   0  0  0  0  0  0  0  0  0  0  0  0
  161.9900  206.4640  151.5180 C   0  0  0  0  0  3  0  0  0  0  0  0
  161.7810  208.5710  151.7090 C   0  0  0  0  0  0  0  0  0  0  0  0
  162.2510  207.4900  152.2930 O   0  0  0  0  0  0  0  0  0  0  0  0
  161.4200  206.2570  147.9770 C   0  0  0  0  0  0  0  0  0  0  0  0
  160.8380  205.4580  146.9540 N   0  0  0  0  0  1  0  0  0  0  0  0
  160.8530  206.2400  149.2900 N   0  0  0  0  0  2  0  0  0  0  0  0
  162.4260  206.9680  147.7120 O   0  0  0  0  0  0  0  0  0  0  0  0
  161.9560  211.0770  150.1490 O   0  0  0  0  0  0  0  0  0  0  0  0
  160.4560  211.9390  151.7150 N   0  0  0  0  0  2  0  0  0  0  0  0
  161.4590  211.0110  151.3070 C   0  0  0  0  0  0  0  0  0  0  0  0
  159.9690  212.9850  150.8290 C   0  0  0  0  0  2  0  0  0  0  0  0
  158.4900  213.2270  151.0770 C   0  0  1  0  0  3  0  0  0  0  0  0
  158.2990  214.4350  151.8630 N   0  0  0  0  0  1  0  0  0  0  0  0
  157.7280  213.3260  149.7610 C   0  0  0  0  0  2  0  0  0  0  0  0
  158.6400  213.3490  148.6280 N   0  0  0  0  0  1  0  0  0  0  0  0
  1 27  1  6  0  0  0
  3 13  1  6  0  0  0
  3  2  1  0  0  0  0
  4  1  1  6  0  0  0
  4  8  1  0  0  0  0
  4 15  1  0  0  0  0
  5  7  1  6  0  0  0
  5  6  1  0  0  0  0
  5 14  1  0  0  0  0
  8 10  1  0  0  0  0
  9  5  1  0  0  0  0
  9 13  2  0  0  0  0
 10 12  1  0  0  0  0
 11 14  1  0  0  0  0
 12 11  2  0  0  0  0
 12  3  1  0  0  0  0
 15  2  1  0  0  0  0
 16 17  1  0  0  0  0
 16 18  2  0  0  0  0
 17 19  2  0  0  0  0
 18 20  1  0  0  0  0
 19  1  1  0  0  0  0
 19 20  1  0  0  0  0
 21 23  1  0  0  0  0
 22 21  1  0  0  0  0
 23 16  1  0  0  0  0
 24 21  2  0  0  0  0
 25 27  2  0  0  0  0
 27 26  1  0  0  0  0
 28 29  1  0  0  0  0
 28 26  1  0  0  0  0
 29 30  1  6  0  0  0
 31 29  1  0  0  0  0
 32 31  1  0  0  0  0
M  END
>  <MODEL>
7

>  <REMARK>
 VINA RESULT:      -5.5      2.396      5.523
  Name = 
  7 active torsions:
  status: ('A' for Active; 'I' for Inactive)
    1  A    between atoms: N_5  and  C_11
    2  A    between atoms: C_6  and  C_26
    3  A    between atoms: C_10  and  N_16
    4  A    between atoms: C_11  and  C_12
    5  A    between atoms: C_12  and  C_17
    6  A    between atoms: C_20  and  C_26
    7  A    between atoms: C_21  and  C_26
                            x       y       z     vdW  Elec       q    Type
                         _______ _______ _______ _____ _____    ______ ____

>  <TORSDO>
F 7

$$$$
=
 OpenBabel11042421133D

 32 34  0  0  1  0  0  0  0  0999 V2000
  160.7280  206.6560  148.9490 C   0  0  1  0  0  3  0  0  0  0  0  0
  162.9910  205.4200  145.9630 C   0  0  0  0  0  2  0  0  0  0  0  0
  162.1260  204.1970  145.6210 C   0  0  2  0  0  3  0  0  0  0  0  0
  161.0630  206.0780  147.5720 C   0  0  1  0  0  3  0  0  0  0  0  0
  160.3050  201.5820  145.8990 C   0  0  1  0  0  0  0  0  0  0  0  0
  160.4800  200.2070  145.7490 O   0  0  0  0  0  1  0  0  0  0  0  0
  159.0630  201.8000  146.4710 F   0  0  0  0  0  0  0  0  0  0  0  0
  160.0860  206.5950  146.5080 C   0  0  0  0  0  2  0  0  0  0  0  0
  161.3650  202.0900  146.8510 C   0  0  0  0  0  3  0  0  0  0  0  0
  160.3120  206.0240  145.1040 C   0  0  0  0  0  2  0  0  0  0  0  0
  159.9510  203.6700  144.5640 C   0  0  0  0  0  3  0  0  0  0  0  0
  160.7510  204.5860  145.1160 C   0  0  0  0  0  0  0  0  0  0  0  0
  162.1130  203.2050  146.7590 C   0  0  0  0  0  3  0  0  0  0  0  0
  160.3390  202.2220  144.5100 C   0  0  0  0  0  2  0  0  0  0  0  0
  162.5490  206.2220  147.2000 C   0  0  0  0  0  2  0  0  0  0  0  0
  161.0470  203.7820  151.0060 C   0  0  0  0  0  0  0  0  0  0  0  0
  160.9650  204.3090  149.7720 N   0  0  0  0  0  0  0  0  0  0  0  0
  160.9630  204.7680  151.9700 C   0  0  0  0  0  3  0  0  0  0  0  0
  160.8290  205.6230  150.0280 C   0  0  0  0  0  0  0  0  0  0  0  0
  160.8320  205.8970  151.3140 O   0  0  0  0  0  0  0  0  0  0  0  0
  160.5730  201.3320  150.4930 C   0  0  0  0  0  0  0  0  0  0  0  0
  160.8290  199.9760  150.8360 N   0  0  0  0  0  1  0  0  0  0  0  0
  161.2030  202.3770  151.2410 N   0  0  0  0  0  2  0  0  0  0  0  0
  159.7950  201.5940  149.5370 O   0  0  0  0  0  0  0  0  0  0  0  0
  161.9540  208.6390  148.3700 O   0  0  0  0  0  0  0  0  0  0  0  0
  161.6320  208.2830  150.6540 N   0  0  0  0  0  2  0  0  0  0  0  0
  161.4750  207.9140  149.2850 C   0  0  0  0  0  0  0  0  0  0  0  0
  162.3380  209.4910  151.0480 C   0  0  0  0  0  2  0  0  0  0  0  0
  161.7460  210.0430  152.3340 C   0  0  1  0  0  3  0  0  0  0  0  0
  160.6940  211.0020  152.0370 N   0  0  0  0  0  1  0  0  0  0  0  0
  161.2050  208.9190  153.2090 C   0  0  0  0  0  2  0  0  0  0  0  0
  160.3870  209.4440  154.2910 N   0  0  0  0  0  1  0  0  0  0  0  0
  1 27  1  1  0  0  0
  1 19  1  0  0  0  0
  2 15  1  0  0  0  0
  3  2  1  1  0  0  0
  3 13  1  0  0  0  0
  4  1  1  1  0  0  0
  5  6  1  6  0  0  0
  5  7  1  0  0  0  0
  5  9  1  0  0  0  0
  8  4  1  0  0  0  0
 10 12  1  0  0  0  0
 10  8  1  0  0  0  0
 11 12  2  0  0  0  0
 12  3  1  0  0  0  0
 13  9  2  0  0  0  0
 14 11  1  0  0  0  0
 14  5  1  0  0  0  0
 15  4  1  0  0  0  0
 16 23  1  0  0  0  0
 16 18  2  0  0  0  0
 17 19  2  0  0  0  0
 17 16  1  0  0  0  0
 19 20  1  0  0  0  0
 20 18  1  0  0  0  0
 21 22  1  0  0  0  0
 21 23  1  0  0  0  0
 24 21  2  0  0  0  0
 25 27  2  0  0  0  0
 26 28  1  0  0  0  0
 27 26  1  0  0  0  0
 28 29  1  0  0  0  0
 29 30  1  6  0  0  0
 29 31  1  0  0  0  0
 31 32  1  0  0  0  0
M  END
>  <MODEL>
8

>  <REMARK>
 VINA RESULT:      -5.2      4.147      9.437
  Name = 
  7 active torsions:
  status: ('A' for Active; 'I' for Inactive)
    1  A    between atoms: N_5  and  C_11
    2  A    between atoms: C_6  and  C_26
    3  A    between atoms: C_10  and  N_16
    4  A    between atoms: C_11  and  C_12
    5  A    between atoms: C_12  and  C_17
    6  A    between atoms: C_20  and  C_26
    7  A    between atoms: C_21  and  C_26
                            x       y       z     vdW  Elec       q    Type
                         _______ _______ _______ _____ _____    ______ ____

>  <TORSDO>
F 7

$$$$
=
 OpenBabel11042421133D

 32 34  0  0  1  0  0  0  0  0999 V2000
  162.2440  207.0030  151.5420 C   0  0  1  0  0  3  0  0  0  0  0  0
  159.5080  206.0230  148.8740 C   0  0  0  0  0  2  0  0  0  0  0  0
  160.4940  205.3960  147.8770 C   0  0  2  0  0  3  0  0  0  0  0  0
  161.5360  206.1460  150.4890 C   0  0  1  0  0  3  0  0  0  0  0  0
  163.0770  204.8930  146.0570 C   0  0  1  0  0  0  0  0  0  0  0  0
  163.4090  205.0350  144.7110 O   0  0  0  0  0  1  0  0  0  0  0  0
  164.2360  204.6190  146.7630 F   0  0  0  0  0  0  0  0  0  0  0  0
  161.5700  204.6620  150.8770 C   0  0  0  0  0  2  0  0  0  0  0  0
  162.5190  206.2100  146.5460 C   0  0  0  0  0  3  0  0  0  0  0  0
  160.9310  203.7210  149.8510 C   0  0  0  0  0  2  0  0  0  0  0  0
  161.8750  203.3570  147.6280 C   0  0  0  0  0  3  0  0  0  0  0  0
  161.1630  204.1530  148.4290 C   0  0  0  0  0  0  0  0  0  0  0  0
  161.4530  206.4300  147.3380 C   0  0  0  0  0  3  0  0  0  0  0  0
  162.1170  203.7090  146.1900 C   0  0  0  0  0  2  0  0  0  0  0  0
  160.1420  206.6780  150.1150 C   0  0  0  0  0  2  0  0  0  0  0  0
  161.1170  210.3680  151.6020 C   0  0  0  0  0  0  0  0  0  0  0  0
  161.0000  209.1080  152.0560 N   0  0  0  0  0  0  0  0  0  0  0  0
  162.1230  210.4600  150.6580 C   0  0  0  0  0  3  0  0  0  0  0  0
  161.9530  208.4610  151.3620 C   0  0  0  0  0  0  0  0  0  0  0  0
  162.6160  209.2500  150.5450 O   0  0  0  0  0  0  0  0  0  0  0  0
  160.1760  211.8810  153.4220 C   0  0  0  0  0  0  0  0  0  0  0  0
  159.3160  212.9700  153.7350 N   0  0  0  0  0  1  0  0  0  0  0  0
  160.2870  211.4400  152.0650 N   0  0  0  0  0  2  0  0  0  0  0  0
  160.8270  211.3200  154.3430 O   0  0  0  0  0  0  0  0  0  0  0  0
  162.8710  205.7920  153.5200 O   0  0  0  0  0  0  0  0  0  0  0  0
  160.8610  206.9710  153.6530 N   0  0  0  0  0  2  0  0  0  0  0  0
  162.0280  206.5430  152.9540 C   0  0  0  0  0  0  0  0  0  0  0  0
  160.5940  206.5680  155.0240 C   0  0  0  0  0  2  0  0  0  0  0  0
  160.3650  207.7960  155.8910 C   0  0  1  0  0  3  0  0  0  0  0  0
  160.0730  207.4020  157.2600 N   0  0  0  0  0  1  0  0  0  0  0  0
  161.5740  208.7220  155.8510 C   0  0  0  0  0  2  0  0  0  0  0  0
  162.2350  208.7760  157.1460 N   0  0  0  0  0  1  0  0  0  0  0  0
  1 27  1  1  0  0  0
  2 15  1  0  0  0  0
  3 13  1  1  0  0  0
  3 12  1  0  0  0  0
  3  2  1  0  0  0  0
  4  8  1  0  0  0  0
  4  1  1  1  0  0  0
  5  6  1  6  0  0  0
  5 14  1  0  0  0  0
  5  9  1  0  0  0  0
  5  7  1  0  0  0  0
  9 13  2  0  0  0  0
 10  8  1  0  0  0  0
 11 12  2  0  0  0  0
 12 10  1  0  0  0  0
 14 11  1  0  0  0  0
 15  4  1  0  0  0  0
 16 17  1  0  0  0  0
 16 23  1  0  0  0  0
 18 16  2  0  0  0  0
 19  1  1  0  0  0  0
 19 17  2  0  0  0  0
 20 18  1  0  0  0  0
 20 19  1  0  0  0  0
 21 22  1  0  0  0  0
 21 24  2  0  0  0  0
 23 21  1  0  0  0  0
 26 28  1  0  0  0  0
 27 25  2  0  0  0  0
 27 26  1  0  0  0  0
 28 29  1  0  0  0  0
 29 30  1  1  0  0  0
 31 29  1  0  0  0  0
 31 32  1  0  0  0  0
M  END
>  <MODEL>
9

>  <REMARK>
 VINA RESULT:      -5.1      3.766      7.544
  Name = 
  7 active torsions:
  status: ('A' for Active; 'I' for Inactive)
    1  A    between atoms: N_5  and  C_11
    2  A    between atoms: C_6  and  C_26
    3  A    between atoms: C_10  and  N_16
    4  A    between atoms: C_11  and  C_12
    5  A    between atoms: C_12  and  C_17
    6  A    between atoms: C_20  and  C_26
    7  A    between atoms: C_21  and  C_26
                            x       y       z     vdW  Elec       q    Type
                         _______ _______ _______ _____ _____    ______ ____

>  <TORSDO>
F 7

$$$$
