=
 OpenBabel11052411143D

 26 30  0  0  1  0  0  0  0  0999 V2000
  158.7370  211.7120  155.0680 C   0  0  1  0  0  3  0  0  0  0  0  0
  158.9730  214.2400  154.3560 C   0  0  0  0  0  1  0  0  0  0  0  0
  159.5380  210.5300  154.5430 C   0  0  1  0  0  3  0  0  0  0  0  0
  159.7550  212.3340  152.9190 C   0  0  1  0  0  3  0  0  0  0  0  0
  160.0760  210.9550  153.2560 N   0  0  0  0  0  0  0  0  0  0  0  0
  158.2750  212.4710  152.5870 C   0  0  0  0  0  2  0  0  0  0  0  0
  158.7770  212.7860  153.9820 C   0  0  1  0  0  0  0  0  0  0  0  0
  161.9570  208.3140  150.5090 C   0  0  0  0  0  0  0  0  0  0  0  0
  161.5680  210.5580  151.3310 C   0  0  0  0  0  3  0  0  0  0  0  0
  162.5580  207.4730  149.6340 F   0  0  0  0  0  0  0  0  0  0  0  0
  161.1070  207.8060  151.4950 C   0  0  0  0  0  3  0  0  0  0  0  0
  162.1880  209.6900  150.4280 C   0  0  0  0  0  3  0  0  0  0  0  0
  160.7120  210.0590  152.3260 C   0  0  0  0  0  0  0  0  0  0  0  0
  160.4880  208.6750  152.3980 C   0  0  0  0  0  3  0  0  0  0  0  0
  161.5880  211.1470  155.8380 C   0  0  0  0  0  3  0  0  0  0  0  0
  160.6360  210.1810  155.5030 C   0  0  0  0  0  0  0  0  0  0  0  0
  162.5970  210.8440  156.6990 N   0  0  0  0  0  0  0  0  0  0  0  0
  161.7850  208.6100  156.9420 C   0  0  0  0  0  3  0  0  0  0  0  0
  160.7450  208.9000  156.0600 C   0  0  0  0  0  3  0  0  0  0  0  0
  162.7130  209.6060  157.2540 C   0  0  0  0  0  3  0  0  0  0  0  0
  156.6400  211.7530  156.5060 C   0  0  0  0  0  3  0  0  0  0  0  0
  157.3370  211.3110  155.3980 C   0  0  0  0  0  0  0  0  0  0  0  0
  155.4270  210.3540  155.2170 C   0  0  0  0  0  3  0  0  0  0  0  0
  154.3280  211.2450  157.2580 N   0  0  0  0  0  1  0  0  0  0  0  0
  155.4240  211.1210  156.3600 C   0  0  0  0  0  0  0  0  0  0  0  0
  156.6080  210.4990  154.6640 O   0  0  0  0  0  0  0  0  0  0  0  0
  1 22  1  6  0  0  0
  3  1  1  0  0  0  0
  3 16  1  1  0  0  0
  4  6  1  6  0  0  0
  4  5  1  0  0  0  0
  4  7  1  0  0  0  0
  5  3  1  0  0  0  0
  6  7  1  0  0  0  0
  7  2  1  1  0  0  0
  7  1  1  0  0  0  0
  8 11  1  0  0  0  0
  9 13  2  0  0  0  0
 10  8  1  0  0  0  0
 11 14  2  0  0  0  0
 12  8  2  0  0  0  0
 12  9  1  0  0  0  0
 13 14  1  0  0  0  0
 13  5  1  0  0  0  0
 15 17  1  0  0  0  0
 16 15  2  0  0  0  0
 16 19  1  0  0  0  0
 17 20  2  0  0  0  0
 18 20  1  0  0  0  0
 19 18  2  0  0  0  0
 22 21  2  0  0  0  0
 23 25  2  0  0  0  0
 25 21  1  0  0  0  0
 25 24  1  0  0  0  0
 26 23  1  0  0  0  0
 26 22  1  0  0  0  0
M  END
>  <MODEL>
1

>  <REMARK>
 VINA RESULT:      -5.4      0.000      0.000
  Name = 
  3 active torsions:
  status: ('A' for Active; 'I' for Inactive)
    1  A    between atoms: C_2  and  C_5
    2  A    between atoms: C_4  and  C_13
    3  A    between atoms: C_15  and  N_23
                            x       y       z     vdW  Elec       q    Type
                         _______ _______ _______ _____ _____    ______ ____

>  <TORSDO>
F 3

$$$$
=
 OpenBabel11052411143D

 26 30  0  0  1  0  0  0  0  0999 V2000
  161.8150  211.5930  139.1620 C   0  0  1  0  0  3  0  0  0  0  0  0
  162.3600  213.1570  137.1110 C   0  0  0  0  0  1  0  0  0  0  0  0
  160.7150  210.5460  139.2550 C   0  0  1  0  0  3  0  0  0  0  0  0
  160.1210  212.0680  137.4460 C   0  0  1  0  0  3  0  0  0  0  0  0
  159.7320  210.9120  138.2420 N   0  0  0  0  0  0  0  0  0  0  0  0
  160.0480  213.3390  138.2820 C   0  0  0  0  0  2  0  0  0  0  0  0
  161.3670  212.6090  138.1140 C   0  0  1  0  0  0  0  0  0  0  0  0
  155.8880  209.1270  137.9470 C   0  0  0  0  0  0  0  0  0  0  0  0
  158.1430  209.3990  137.1120 C   0  0  0  0  0  3  0  0  0  0  0  0
  154.6630  208.5570  137.8530 F   0  0  0  0  0  0  0  0  0  0  0  0
  156.1600  210.0310  138.9770 C   0  0  0  0  0  3  0  0  0  0  0  0
  156.8790  208.8110  137.0150 C   0  0  0  0  0  3  0  0  0  0  0  0
  158.4290  210.3080  138.1430 C   0  0  0  0  0  0  0  0  0  0  0  0
  157.4250  210.6180  139.0740 C   0  0  0  0  0  3  0  0  0  0  0  0
  161.5380  208.3310  140.0770 C   0  0  0  0  0  3  0  0  0  0  0  0
  161.2760  209.1800  138.9990 C   0  0  0  0  0  0  0  0  0  0  0  0
  162.0570  207.0910  139.8630 N   0  0  0  0  0  0  0  0  0  0  0  0
  162.0940  207.4610  137.5030 C   0  0  0  0  0  3  0  0  0  0  0  0
  161.5640  208.7360  137.7020 C   0  0  0  0  0  3  0  0  0  0  0  0
  162.3360  206.6440  138.6090 C   0  0  0  0  0  3  0  0  0  0  0  0
  161.5250  211.7890  141.6810 C   0  0  0  0  0  3  0  0  0  0  0  0
  162.0600  212.2360  140.4880 C   0  0  0  0  0  0  0  0  0  0  0  0
  162.8350  213.6060  141.9430 C   0  0  0  0  0  3  0  0  0  0  0  0
  161.7860  212.6690  143.9890 N   0  0  0  0  0  1  0  0  0  0  0  0
  162.0400  212.6880  142.5900 C   0  0  0  0  0  0  0  0  0  0  0  0
  162.8190  213.2940  140.6680 O   0  0  0  0  0  0  0  0  0  0  0  0
  1  3  1  0  0  0  0
  1 22  1  1  0  0  0
  3 16  1  6  0  0  0
  4  7  1  0  0  0  0
  4  5  1  0  0  0  0
  4  6  1  1  0  0  0
  5  3  1  0  0  0  0
  7  2  1  6  0  0  0
  7  6  1  0  0  0  0
  7  1  1  0  0  0  0
  8 11  1  0  0  0  0
  9 13  2  0  0  0  0
 10  8  1  0  0  0  0
 11 14  2  0  0  0  0
 12  9  1  0  0  0  0
 12  8  2  0  0  0  0
 13  5  1  0  0  0  0
 13 14  1  0  0  0  0
 16 15  2  0  0  0  0
 17 15  1  0  0  0  0
 18 19  2  0  0  0  0
 18 20  1  0  0  0  0
 19 16  1  0  0  0  0
 20 17  2  0  0  0  0
 21 25  1  0  0  0  0
 22 26  1  0  0  0  0
 22 21  2  0  0  0  0
 23 25  2  0  0  0  0
 25 24  1  0  0  0  0
 26 23  1  0  0  0  0
M  END
>  <MODEL>
2

>  <REMARK>
 VINA RESULT:      -5.2     12.686     15.798
  Name = 
  3 active torsions:
  status: ('A' for Active; 'I' for Inactive)
    1  A    between atoms: C_2  and  C_5
    2  A    between atoms: C_4  and  C_13
    3  A    between atoms: C_15  and  N_23
                            x       y       z     vdW  Elec       q    Type
                         _______ _______ _______ _____ _____    ______ ____

>  <TORSDO>
F 3

$$$$
=
 OpenBabel11052411143D

 26 30  0  0  1  0  0  0  0  0999 V2000
  161.0220  210.0410  153.8600 C   0  0  1  0  0  3  0  0  0  0  0  0
  163.0220  210.6780  155.4550 C   0  0  0  0  0  1  0  0  0  0  0  0
  159.6050  210.5960  153.8930 C   0  0  1  0  0  3  0  0  0  0  0  0
  160.6130  211.0430  156.0670 C   0  0  1  0  0  3  0  0  0  0  0  0
  159.4210  211.1350  155.2360 N   0  0  0  0  0  0  0  0  0  0  0  0
  160.8820  209.5950  156.4540 C   0  0  0  0  0  2  0  0  0  0  0  0
  161.5930  210.2130  155.2660 C   0  0  1  0  0  0  0  0  0  0  0  0
  155.6610  212.3870  156.7700 C   0  0  0  0  0  0  0  0  0  0  0  0
  158.0570  212.6870  156.5850 C   0  0  0  0  0  3  0  0  0  0  0  0
  154.4630  212.7880  157.2580 F   0  0  0  0  0  0  0  0  0  0  0  0
  155.7390  211.2620  155.9450 C   0  0  0  0  0  3  0  0  0  0  0  0
  156.8200  213.1000  157.0890 C   0  0  0  0  0  3  0  0  0  0  0  0
  158.1470  211.5580  155.7550 C   0  0  0  0  0  0  0  0  0  0  0  0
  156.9760  210.8490  155.4410 C   0  0  0  0  0  3  0  0  0  0  0  0
  160.4820  211.9100  151.9530 C   0  0  0  0  0  3  0  0  0  0  0  0
  159.4420  211.6630  152.8530 C   0  0  0  0  0  0  0  0  0  0  0  0
  160.3540  212.8810  151.0080 N   0  0  0  0  0  0  0  0  0  0  0  0
  158.1650  213.4270  151.7950 C   0  0  0  0  0  3  0  0  0  0  0  0
  158.2770  212.4370  152.7710 C   0  0  0  0  0  3  0  0  0  0  0  0
  159.2260  213.6370  150.9120 C   0  0  0  0  0  3  0  0  0  0  0  0
  161.0330  208.1920  152.1150 C   0  0  0  0  0  3  0  0  0  0  0  0
  161.0290  208.6110  153.4310 C   0  0  0  0  0  0  0  0  0  0  0  0
  161.0560  206.4720  153.5720 C   0  0  0  0  0  3  0  0  0  0  0  0
  161.0550  205.9010  151.1560 N   0  0  0  0  0  1  0  0  0  0  0  0
  161.0480  206.8210  152.2410 C   0  0  0  0  0  0  0  0  0  0  0  0
  161.0450  207.5900  154.2600 O   0  0  0  0  0  0  0  0  0  0  0  0
  1 22  1  1  0  0  0
  1  3  1  0  0  0  0
  1  7  1  0  0  0  0
  3 16  1  6  0  0  0
  3  5  1  0  0  0  0
  4  6  1  1  0  0  0
  5 13  1  0  0  0  0
  5  4  1  0  0  0  0
  7  2  1  1  0  0  0
  7  4  1  0  0  0  0
  7  6  1  0  0  0  0
  8 12  1  0  0  0  0
  8 10  1  0  0  0  0
  9 12  2  0  0  0  0
 11  8  2  0  0  0  0
 13  9  1  0  0  0  0
 14 13  2  0  0  0  0
 14 11  1  0  0  0  0
 15 16  1  0  0  0  0
 17 15  2  0  0  0  0
 18 19  1  0  0  0  0
 19 16  2  0  0  0  0
 20 17  1  0  0  0  0
 20 18  2  0  0  0  0
 21 25  1  0  0  0  0
 21 22  2  0  0  0  0
 22 26  1  0  0  0  0
 23 26  1  0  0  0  0
 24 25  1  0  0  0  0
 25 23  2  0  0  0  0
M  END
>  <MODEL>
3

>  <REMARK>
 VINA RESULT:      -4.8      3.198      6.648
  Name = 
  3 active torsions:
  status: ('A' for Active; 'I' for Inactive)
    1  A    between atoms: C_2  and  C_5
    2  A    between atoms: C_4  and  C_13
    3  A    between atoms: C_15  and  N_23
                            x       y       z     vdW  Elec       q    Type
                         _______ _______ _______ _____ _____    ______ ____

>  <TORSDO>
F 3

$$$$
=
 OpenBabel11052411143D

 26 30  0  0  1  0  0  0  0  0999 V2000
  161.1200  210.0440  153.0310 C   0  0  1  0  0  3  0  0  0  0  0  0
  163.5040  210.8140  152.2090 C   0  0  0  0  0  1  0  0  0  0  0  0
  160.6070  208.6170  153.1580 C   0  0  1  0  0  3  0  0  0  0  0  0
  162.5230  208.5700  151.6520 C   0  0  1  0  0  3  0  0  0  0  0  0
  161.4560  207.8110  152.2880 N   0  0  0  0  0  0  0  0  0  0  0  0
  161.9540  209.5020  150.5900 C   0  0  0  0  0  2  0  0  0  0  0  0
  162.2360  210.0180  151.9880 C   0  0  1  0  0  0  0  0  0  0  0  0
  160.6210  203.7680  151.2820 C   0  0  0  0  0  0  0  0  0  0  0  0
  160.7860  206.0970  150.6430 C   0  0  0  0  0  3  0  0  0  0  0  0
  160.3560  202.4790  150.9600 F   0  0  0  0  0  0  0  0  0  0  0  0
  161.0050  204.0980  152.5840 C   0  0  0  0  0  3  0  0  0  0  0  0
  160.5120  204.7670  150.3120 C   0  0  0  0  0  3  0  0  0  0  0  0
  161.1730  206.4410  151.9480 C   0  0  0  0  0  0  0  0  0  0  0  0
  161.2790  205.4280  152.9150 C   0  0  0  0  0  3  0  0  0  0  0  0
  161.7900  208.5500  155.3610 C   0  0  0  0  0  3  0  0  0  0  0  0
  160.6990  208.1580  154.5820 C   0  0  0  0  0  0  0  0  0  0  0  0
  161.8940  208.1340  156.6530 N   0  0  0  0  0  0  0  0  0  0  0  0
  159.8470  206.9140  156.4760 C   0  0  0  0  0  3  0  0  0  0  0  0
  159.7240  207.3280  155.1500 C   0  0  0  0  0  3  0  0  0  0  0  0
  160.9520  207.3330  157.2210 C   0  0  0  0  0  3  0  0  0  0  0  0
  160.1930  212.0930  151.8450 C   0  0  0  0  0  3  0  0  0  0  0  0
  160.0220  210.9780  152.6430 C   0  0  0  0  0  0  0  0  0  0  0  0
  158.0530  211.8140  152.5000 C   0  0  0  0  0  3  0  0  0  0  0  0
  158.5430  213.7760  151.0590 N   0  0  0  0  0  1  0  0  0  0  0  0
  158.9150  212.6040  151.7750 C   0  0  0  0  0  0  0  0  0  0  0  0
  158.7670  210.8380  153.0090 O   0  0  0  0  0  0  0  0  0  0  0  0
  1 22  1  6  0  0  0
  1  3  1  0  0  0  0
  3 16  1  1  0  0  0
  4  6  1  6  0  0  0
  4  7  1  0  0  0  0
  4  5  1  0  0  0  0
  5  3  1  0  0  0  0
  6  7  1  0  0  0  0
  7  2  1  1  0  0  0
  7  1  1  0  0  0  0
  8 11  1  0  0  0  0
  9 13  2  0  0  0  0
 10  8  1  0  0  0  0
 11 14  2  0  0  0  0
 12  9  1  0  0  0  0
 12  8  2  0  0  0  0
 13  5  1  0  0  0  0
 13 14  1  0  0  0  0
 15 17  1  0  0  0  0
 16 19  1  0  0  0  0
 16 15  2  0  0  0  0
 17 20  2  0  0  0  0
 18 20  1  0  0  0  0
 19 18  2  0  0  0  0
 21 22  2  0  0  0  0
 22 26  1  0  0  0  0
 23 26  1  0  0  0  0
 24 25  1  0  0  0  0
 25 21  1  0  0  0  0
 25 23  2  0  0  0  0
M  END
>  <MODEL>
4

>  <REMARK>
 VINA RESULT:      -4.6      3.044      4.365
  Name = 
  3 active torsions:
  status: ('A' for Active; 'I' for Inactive)
    1  A    between atoms: C_2  and  C_5
    2  A    between atoms: C_4  and  C_13
    3  A    between atoms: C_15  and  N_23
                            x       y       z     vdW  Elec       q    Type
                         _______ _______ _______ _____ _____    ______ ____

>  <TORSDO>
F 3

$$$$
=
 OpenBabel11052411143D

 26 30  0  0  1  0  0  0  0  0999 V2000
  160.0770  212.1690  139.6960 C   0  0  1  0  0  3  0  0  0  0  0  0
  160.4150  214.4530  138.4230 C   0  0  0  0  0  1  0  0  0  0  0  0
  159.0450  211.0920  139.3960 C   0  0  1  0  0  3  0  0  0  0  0  0
  158.2640  213.1560  138.3620 C   0  0  1  0  0  3  0  0  0  0  0  0
  157.9870  211.7550  138.6420 N   0  0  0  0  0  0  0  0  0  0  0  0
  158.1670  213.9840  139.6370 C   0  0  0  0  0  2  0  0  0  0  0  0
  159.5130  213.4810  139.1540 C   0  0  1  0  0  0  0  0  0  0  0  0
  154.2370  209.9540  137.7740 C   0  0  0  0  0  0  0  0  0  0  0  0
  155.8550  211.7160  137.4000 C   0  0  0  0  0  3  0  0  0  0  0  0
  153.0430  209.3800  137.4960 F   0  0  0  0  0  0  0  0  0  0  0  0
  155.0870  209.3760  138.7210 C   0  0  0  0  0  3  0  0  0  0  0  0
  154.6220  211.1240  137.1140 C   0  0  0  0  0  3  0  0  0  0  0  0
  156.7170  211.1440  138.3490 C   0  0  0  0  0  0  0  0  0  0  0  0
  156.3200  209.9680  139.0070 C   0  0  0  0  0  3  0  0  0  0  0  0
  161.0430  209.7600  138.6940 C   0  0  0  0  0  3  0  0  0  0  0  0
  159.6680  209.9850  138.6000 C   0  0  0  0  0  0  0  0  0  0  0  0
  161.6260  208.7650  137.9700 N   0  0  0  0  0  0  0  0  0  0  0  0
  159.5210  208.1620  137.0130 C   0  0  0  0  0  3  0  0  0  0  0  0
  158.9060  209.1770  137.7450 C   0  0  0  0  0  3  0  0  0  0  0  0
  160.8980  207.9690  137.1400 C   0  0  0  0  0  3  0  0  0  0  0  0
  161.5760  212.6240  141.6990 C   0  0  0  0  0  3  0  0  0  0  0  0
  160.3600  212.2510  141.1600 C   0  0  0  0  0  0  0  0  0  0  0  0
  160.0330  212.1610  143.2770 C   0  0  0  0  0  3  0  0  0  0  0  0
  162.2840  212.8450  144.0700 N   0  0  0  0  0  1  0  0  0  0  0  0
  161.3320  212.5540  143.0530 C   0  0  0  0  0  0  0  0  0  0  0  0
  159.4780  211.9880  142.0990 O   0  0  0  0  0  0  0  0  0  0  0  0
  1 22  1  1  0  0  0
  3 16  1  6  0  0  0
  3  1  1  0  0  0  0
  4  5  1  0  0  0  0
  4  7  1  0  0  0  0
  4  6  1  1  0  0  0
  5  3  1  0  0  0  0
  7  2  1  6  0  0  0
  7  6  1  0  0  0  0
  7  1  1  0  0  0  0
  8 11  1  0  0  0  0
  9 13  2  0  0  0  0
 10  8  1  0  0  0  0
 11 14  2  0  0  0  0
 12  9  1  0  0  0  0
 12  8  2  0  0  0  0
 13  5  1  0  0  0  0
 13 14  1  0  0  0  0
 16 15  1  0  0  0  0
 17 15  2  0  0  0  0
 18 20  2  0  0  0  0
 18 19  1  0  0  0  0
 19 16  2  0  0  0  0
 20 17  1  0  0  0  0
 21 25  1  0  0  0  0
 22 21  2  0  0  0  0
 22 26  1  0  0  0  0
 25 23  2  0  0  0  0
 25 24  1  0  0  0  0
 26 23  1  0  0  0  0
M  END
>  <MODEL>
5

>  <REMARK>
 VINA RESULT:      -3.0     12.709     15.725
  Name = 
  3 active torsions:
  status: ('A' for Active; 'I' for Inactive)
    1  A    between atoms: C_2  and  C_5
    2  A    between atoms: C_4  and  C_13
    3  A    between atoms: C_15  and  N_23
                            x       y       z     vdW  Elec       q    Type
                         _______ _______ _______ _____ _____    ______ ____

>  <TORSDO>
F 3

$$$$
=
 OpenBabel11052411143D

 26 30  0  0  1  0  0  0  0  0999 V2000
  161.0440  210.4230  153.2300 C   0  0  1  0  0  3  0  0  0  0  0  0
  162.4060  210.9070  155.4350 C   0  0  0  0  0  1  0  0  0  0  0  0
  159.7940  211.1410  152.7440 C   0  0  1  0  0  3  0  0  0  0  0  0
  160.0060  211.5840  155.1320 C   0  0  1  0  0  3  0  0  0  0  0  0
  159.2120  211.7690  153.9250 N   0  0  0  0  0  0  0  0  0  0  0  0
  159.9300  210.1380  155.6020 C   0  0  0  0  0  2  0  0  0  0  0  0
  161.0920  210.6030  154.7460 C   0  0  1  0  0  0  0  0  0  0  0  0
  155.3440  213.5280  153.9860 C   0  0  0  0  0  0  0  0  0  0  0  0
  156.8170  211.6800  154.5140 C   0  0  0  0  0  3  0  0  0  0  0  0
  154.1110  214.0880  154.0070 F   0  0  0  0  0  0  0  0  0  0  0  0
  156.4170  214.2200  153.4170 C   0  0  0  0  0  3  0  0  0  0  0  0
  155.5450  212.2590  154.5340 C   0  0  0  0  0  3  0  0  0  0  0  0
  157.9020  212.3660  153.9450 C   0  0  0  0  0  0  0  0  0  0  0  0
  157.6890  213.6410  153.3970 C   0  0  0  0  0  3  0  0  0  0  0  0
  159.8540  213.5070  151.9350 C   0  0  0  0  0  3  0  0  0  0  0  0
  160.1520  212.1620  151.7070 C   0  0  0  0  0  0  0  0  0  0  0  0
  160.1640  214.4460  150.9990 N   0  0  0  0  0  0  0  0  0  0  0  0
  161.0750  212.7750  149.5540 C   0  0  0  0  0  3  0  0  0  0  0  0
  160.7640  211.7980  150.5000 C   0  0  0  0  0  3  0  0  0  0  0  0
  160.7640  214.1090  149.8250 C   0  0  0  0  0  3  0  0  0  0  0  0
  161.1380  208.5180  151.5480 C   0  0  0  0  0  3  0  0  0  0  0  0
  161.0210  208.9810  152.8450 C   0  0  0  0  0  0  0  0  0  0  0  0
  160.9190  206.8490  153.0490 C   0  0  0  0  0  3  0  0  0  0  0  0
  161.1390  206.1980  150.6630 N   0  0  0  0  0  1  0  0  0  0  0  0
  161.0680  207.1520  151.7150 C   0  0  0  0  0  0  0  0  0  0  0  0
  160.8950  207.9880  153.6990 O   0  0  0  0  0  0  0  0  0  0  0  0
  1 22  1  1  0  0  0
  1  7  1  0  0  0  0
  3 16  1  6  0  0  0
  3  1  1  0  0  0  0
  3  5  1  0  0  0  0
  4  6  1  1  0  0  0
  5 13  1  0  0  0  0
  5  4  1  0  0  0  0
  7  4  1  0  0  0  0
  7  2  1  1  0  0  0
  7  6  1  0  0  0  0
  8 10  1  0  0  0  0
  8 12  1  0  0  0  0
  9 12  2  0  0  0  0
 11  8  2  0  0  0  0
 13  9  1  0  0  0  0
 14 11  1  0  0  0  0
 14 13  2  0  0  0  0
 16 15  1  0  0  0  0
 17 15  2  0  0  0  0
 18 20  2  0  0  0  0
 18 19  1  0  0  0  0
 19 16  2  0  0  0  0
 20 17  1  0  0  0  0
 21 25  1  0  0  0  0
 21 22  2  0  0  0  0
 22 26  1  0  0  0  0
 23 26  1  0  0  0  0
 24 25  1  0  0  0  0
 25 23  2  0  0  0  0
M  END
>  <MODEL>
6

>  <REMARK>
 VINA RESULT:      -2.8      3.261      6.596
  Name = 
  3 active torsions:
  status: ('A' for Active; 'I' for Inactive)
    1  A    between atoms: C_2  and  C_5
    2  A    between atoms: C_4  and  C_13
    3  A    between atoms: C_15  and  N_23
                            x       y       z     vdW  Elec       q    Type
                         _______ _______ _______ _____ _____    ______ ____

>  <TORSDO>
F 3

$$$$
