=
 OpenBabel11052410203D

 55 61  0  0  1  0  0  0  0  0999 V2000
  160.5180  212.1730  146.6990 C   0  0  0  0  0  3  0  0  0  0  0  0
  159.6080  213.2380  148.6870 C   0  0  0  0  0  0  0  0  0  0  0  0
  161.5360  211.6010  147.4640 C   0  0  0  0  0  3  0  0  0  0  0  0
  161.5960  211.8430  148.8380 C   0  0  0  0  0  0  0  0  0  0  0  0
  159.5590  212.9970  147.2970 C   0  0  0  0  0  0  0  0  0  0  0  0
  160.6300  212.6480  149.4480 C   0  0  0  0  0  3  0  0  0  0  0  0
  158.5690  214.0920  149.3540 C   0  0  2  0  0  3  0  0  0  0  0  0
  158.6730  214.0190  150.8700 C   0  0  0  0  0  1  0  0  0  0  0  0
  156.2580  213.7250  149.6730 O   0  0  0  0  0  0  0  0  0  0  0  0
  157.1990  213.7010  148.8980 C   0  0  0  0  0  3  0  0  0  0  0  0
  162.6730  211.2270  149.6640 C   0  0  0  0  0  2  0  0  0  0  0  0
  160.9650  205.1950  151.5810 C   0  0  0  0  0  3  0  0  0  0  0  0
  161.0830  207.5850  154.4120 C   0  0  0  0  0  0  0  0  0  0  0  0
  161.1620  205.1750  150.1920 C   0  0  0  0  0  0  0  0  0  0  0  0
  160.9310  206.3940  153.6830 C   0  0  0  0  0  3  0  0  0  0  0  0
  162.1950  208.8150  148.2840 O   0  0  0  0  0  0  0  0  0  0  0  0
  161.4800  207.5720  151.6280 C   0  0  0  0  0  0  0  0  0  0  0  0
  161.5130  206.3570  149.5280 C   0  0  0  0  0  3  0  0  0  0  0  0
  161.1240  206.3820  152.2990 C   0  0  0  0  0  0  0  0  0  0  0  0
  161.6380  208.7630  152.3610 C   0  0  0  0  0  0  0  0  0  0  0  0
  161.4360  208.7630  153.7430 C   0  0  0  0  0  3  0  0  0  0  0  0
  162.0320  208.8030  149.5350 C   0  0  0  0  0  0  0  0  0  0  0  0
  161.6700  207.5570  150.2340 C   0  0  0  0  0  0  0  0  0  0  0  0
  162.2000  210.0050  150.3030 N   0  0  0  0  0  0  0  0  0  0  0  0
  162.0180  209.9720  151.6970 N   0  0  0  0  0  2  0  0  0  0  0  0
  161.2870  203.8810  148.2100 O   0  0  0  0  0  0  0  0  0  0  0  0
  160.9950  203.9260  149.4340 C   0  0  0  0  0  0  0  0  0  0  0  0
  160.5210  202.7800  150.0650 O   0  0  0  0  0  1  0  0  0  0  0  0
  160.8800  207.6260  155.7940 O   0  0  0  0  0  0  0  0  0  0  0  0
  159.7340  208.2260  156.3820 C   0  0  0  0  0  2  0  0  0  0  0  0
  160.1450  209.4870  157.1190 C   0  0  0  0  0  2  0  0  0  0  0  0
  159.8730  210.6110  156.3350 O   0  0  0  0  0  0  0  0  0  0  0  0
  158.7000  210.3340  155.7120 N   0  0  0  0  0  0  0  0  0  0  0  0
  156.4870  211.2660  155.4700 C   0  0  0  0  0  1  0  0  0  0  0  0
  157.9590  211.5690  155.6590 C   0  0  2  0  0  3  0  0  0  0  0  0
  158.6530  211.1280  154.5770 O   0  0  0  0  0  0  0  0  0  0  0  0
  158.4730  213.5620  146.4440 C   0  0  0  0  0  2  0  0  0  0  0  0
  159.0350  214.4520  145.4880 O   0  0  0  0  0  0  0  0  0  0  0  0
  158.9660  214.2280  144.1090 C   0  0  0  0  0  0  0  0  0  0  0  0
  157.8370  214.0360  143.5860 O   0  0  0  0  0  0  0  0  0  0  0  0
  160.1700  214.1630  143.2550 C   0  0  0  0  0  0  0  0  0  0  0  0
  161.2870  214.4530  143.7550 O   0  0  0  0  0  0  0  0  0  0  0  0
  160.1170  213.7670  141.9150 O   0  0  0  0  0  0  0  0  0  0  0  0
  160.6170  212.5190  141.4440 C   0  0  0  0  0  2  0  0  0  0  0  0
  159.9550  212.1160  140.1200 C   0  0  2  0  0  0  0  0  0  0  0  0
  160.4320  212.9250  138.9130 C   0  0  2  0  0  3  0  0  0  0  0  0
  162.3380  210.9040  138.3200 C   0  0  0  0  0  2  0  0  0  0  0  0
  158.5700  212.2350  140.2250 O   0  0  0  0  0  1  0  0  0  0  0  0
  163.0430  212.7580  137.0130 F   0  0  0  0  0  0  0  0  0  0  0  0
  162.8700  212.3490  138.3240 C   0  0  2  0  0  0  0  0  0  0  0  0
  164.2150  212.3780  139.0210 C   0  0  0  0  0  1  0  0  0  0  0  0
  160.2870  212.0600  137.8120 O   0  0  0  0  0  0  0  0  0  0  0  0
  160.7990  210.8400  138.2970 C   0  0  2  0  0  3  0  0  0  0  0  0
  160.3050  210.7010  139.7290 C   0  0  0  0  0  2  0  0  0  0  0  0
  161.9200  213.3390  139.0250 C   0  0  0  0  0  2  0  0  0  0  0  0
  1  5  2  0  0  0  0
  1  3  1  0  0  0  0
  2  7  1  0  0  0  0
  2  6  2  0  0  0  0
  3  4  2  0  0  0  0
  4  6  1  0  0  0  0
  4 11  1  0  0  0  0
  5  2  1  0  0  0  0
  7  8  1  1  0  0  0
 10  7  1  0  0  0  0
 10  9  2  0  0  0  0
 11 24  1  0  0  0  0
 12 19  1  0  0  0  0
 13 29  1  0  0  0  0
 14 12  2  0  0  0  0
 15 13  2  0  0  0  0
 16 22  2  0  0  0  0
 17 19  2  0  0  0  0
 17 20  1  0  0  0  0
 18 14  1  0  0  0  0
 18 23  2  0  0  0  0
 19 15  1  0  0  0  0
 20 21  2  0  0  0  0
 21 13  1  0  0  0  0
 22 23  1  0  0  0  0
 22 24  1  0  0  0  0
 23 17  1  0  0  0  0
 24 25  1  0  0  0  0
 25 20  1  0  0  0  0
 26 27  2  0  0  0  0
 27 28  1  0  0  0  0
 27 14  1  0  0  0  0
 29 30  1  0  0  0  0
 30 31  1  0  0  0  0
 32 31  1  0  0  0  0
 33 32  1  0  0  0  0
 35 34  1  6  0  0  0
 35 33  1  0  0  0  0
 36 35  1  0  0  0  0
 36 33  1  0  0  0  0
 37  5  1  0  0  0  0
 38 37  1  0  0  0  0
 39 38  1  0  0  0  0
 40 39  2  0  0  0  0
 41 42  2  0  0  0  0
 41 39  1  0  0  0  0
 43 41  1  0  0  0  0
 44 43  1  0  0  0  0
 45 48  1  1  0  0  0
 45 44  1  0  0  0  0
 46 55  1  1  0  0  0
 46 45  1  0  0  0  0
 47 50  1  0  0  0  0
 49 50  1  0  0  0  0
 50 51  1  1  0  0  0
 50 55  1  0  0  0  0
 52 53  1  0  0  0  0
 52 46  1  0  0  0  0
 53 47  1  1  0  0  0
 53 54  1  0  0  0  0
 54 45  1  0  0  0  0
M  END
>  <MODEL>
1

>  <REMARK>
 VINA RESULT:      -7.0      0.000      0.000
  Name = 
  17 active torsions:
  status: ('A' for Active; 'I' for Inactive)
    1  A    between atoms: C_2  and  C_8
    2  A    between atoms: C_2  and  O_48
    3  A    between atoms: O_3  and  C_4
    4  A    between atoms: O_3  and  C_8
    5  A    between atoms: C_4  and  C_7
    6  A    between atoms: C_5  and  C_16
    7  A    between atoms: C_5  and  C_47
    8  A    between atoms: C_6  and  C_22
    9  A    between atoms: C_6  and  N_52
   10  A    between atoms: N_10  and  O_28
   11  A    between atoms: C_11  and  O_36
   12  A    between atoms: C_12  and  C_39
   13  A    between atoms: O_28  and  C_34
   14  A    between atoms: C_34  and  C_44
   15  A    between atoms: O_36  and  C_44
   16  A    between atoms: C_43  and  O_48
   17  A    between atoms: C_43  and  C_49
                            x       y       z     vdW  Elec       q    Type
                         _______ _______ _______ _____ _____    ______ ____

>  <TORSDO>
F 17

$$$$
=
 OpenBabel11052410203D

 55 61  0  0  1  0  0  0  0  0999 V2000
  161.1690  212.1160  150.2680 C   0  0  0  0  0  3  0  0  0  0  0  0
  160.8640  212.5770  147.9000 C   0  0  0  0  0  0  0  0  0  0  0  0
  161.8170  210.9190  149.9580 C   0  0  0  0  0  3  0  0  0  0  0  0
  161.9910  210.5450  148.6240 C   0  0  0  0  0  0  0  0  0  0  0  0
  160.6830  212.9440  149.2510 C   0  0  0  0  0  0  0  0  0  0  0  0
  161.5270  211.3760  147.6000 C   0  0  0  0  0  3  0  0  0  0  0  0
  160.3800  213.4670  146.7930 C   0  0  2  0  0  3  0  0  0  0  0  0
  159.4950  212.7130  145.8130 C   0  0  0  0  0  1  0  0  0  0  0  0
  161.7020  213.9210  144.8890 O   0  0  0  0  0  0  0  0  0  0  0  0
  161.5380  214.0980  146.0840 C   0  0  0  0  0  3  0  0  0  0  0  0
  162.6910  209.2740  148.2840 C   0  0  0  0  0  2  0  0  0  0  0  0
  160.7040  203.6450  150.9930 C   0  0  0  0  0  3  0  0  0  0  0  0
  161.2010  206.3150  153.5150 C   0  0  0  0  0  0  0  0  0  0  0  0
  160.7950  203.4570  149.6060 C   0  0  0  0  0  0  0  0  0  0  0  0
  160.9120  205.0670  152.9400 C   0  0  0  0  0  3  0  0  0  0  0  0
  161.9410  206.7700  147.2270 O   0  0  0  0  0  0  0  0  0  0  0  0
  161.3890  205.9650  150.7310 C   0  0  0  0  0  0  0  0  0  0  0  0
  161.1800  204.5260  148.7880 C   0  0  0  0  0  3  0  0  0  0  0  0
  161.0000  204.8870  151.5570 C   0  0  0  0  0  0  0  0  0  0  0  0
  161.6860  207.2120  151.3090 C   0  0  0  0  0  0  0  0  0  0  0  0
  161.5870  207.3810  152.6930 C   0  0  0  0  0  3  0  0  0  0  0  0
  161.8710  206.9100  148.4780 C   0  0  0  0  0  0  0  0  0  0  0  0
  161.4740  205.7810  149.3380 C   0  0  0  0  0  0  0  0  0  0  0  0
  162.1810  208.1710  149.0890 N   0  0  0  0  0  0  0  0  0  0  0  0
  162.1010  208.3070  150.4870 N   0  0  0  0  0  2  0  0  0  0  0  0
  159.9900  201.2290  149.7130 O   0  0  0  0  0  1  0  0  0  0  0  0
  160.4840  202.1490  149.0090 C   0  0  0  0  0  0  0  0  0  0  0  0
  160.7260  201.9190  147.6580 O   0  0  0  0  0  0  0  0  0  0  0  0
  161.1050  206.5250  154.8930 O   0  0  0  0  0  0  0  0  0  0  0  0
  160.2310  207.4900  155.4620 C   0  0  0  0  0  2  0  0  0  0  0  0
  160.7210  207.8610  156.8490 C   0  0  0  0  0  2  0  0  0  0  0  0
  161.7330  208.8210  156.7590 O   0  0  0  0  0  0  0  0  0  0  0  0
  161.6140  209.3470  155.5140 N   0  0  0  0  0  0  0  0  0  0  0  0
  160.9160  211.3980  154.4490 C   0  0  0  0  0  1  0  0  0  0  0  0
  161.5550  210.7780  155.6750 C   0  0  2  0  0  3  0  0  0  0  0  0
  162.7150  210.1660  155.3200 O   0  0  0  0  0  0  0  0  0  0  0  0
  160.0240  214.2270  149.6310 C   0  0  0  0  0  2  0  0  0  0  0  0
  160.0430  214.3710  151.0450 O   0  0  0  0  0  0  0  0  0  0  0  0
  158.9300  214.1020  151.8500 C   0  0  0  0  0  0  0  0  0  0  0  0
  159.1060  213.9440  153.0870 O   0  0  0  0  0  0  0  0  0  0  0  0
  157.5690  213.9530  151.2970 C   0  0  0  0  0  0  0  0  0  0  0  0
  157.4340  213.6420  150.0850 O   0  0  0  0  0  0  0  0  0  0  0  0
  156.4200  214.1240  152.0770 O   0  0  0  0  0  0  0  0  0  0  0  0
  156.4540  214.4480  153.4640 C   0  0  0  0  0  2  0  0  0  0  0  0
  155.4960  213.5600  154.2680 C   0  0  2  0  0  0  0  0  0  0  0  0
  156.1210  212.2540  154.7590 C   0  0  2  0  0  3  0  0  0  0  0  0
  156.7200  213.4840  157.2490 C   0  0  0  0  0  2  0  0  0  0  0  0
  154.3690  213.2630  153.5040 O   0  0  0  0  0  1  0  0  0  0  0  0
  158.0270  211.5000  157.2600 F   0  0  0  0  0  0  0  0  0  0  0  0
  157.8720  212.7020  156.5910 C   0  0  2  0  0  0  0  0  0  0  0  0
  159.1520  213.5010  156.7290 C   0  0  0  0  0  1  0  0  0  0  0  0
  155.4220  211.9340  155.9390 O   0  0  0  0  0  0  0  0  0  0  0  0
  155.3530  213.1700  156.6110 C   0  0  2  0  0  3  0  0  0  0  0  0
  155.0660  214.2250  155.5540 C   0  0  0  0  0  2  0  0  0  0  0  0
  157.6240  212.4040  155.1000 C   0  0  0  0  0  2  0  0  0  0  0  0
  2  5  1  0  0  0  0
  3  1  1  0  0  0  0
  4  3  2  0  0  0  0
  5 37  1  0  0  0  0
  5  1  2  0  0  0  0
  6  2  2  0  0  0  0
  6  4  1  0  0  0  0
  7  8  1  6  0  0  0
  7  2  1  0  0  0  0
  9 10  2  0  0  0  0
 10  7  1  0  0  0  0
 11  4  1  0  0  0  0
 11 24  1  0  0  0  0
 12 19  1  0  0  0  0
 13 29  1  0  0  0  0
 14 12  2  0  0  0  0
 15 13  1  0  0  0  0
 16 22  2  0  0  0  0
 17 20  2  0  0  0  0
 17 19  1  0  0  0  0
 18 23  2  0  0  0  0
 18 14  1  0  0  0  0
 19 15  2  0  0  0  0
 20 21  1  0  0  0  0
 21 13  2  0  0  0  0
 22 24  1  0  0  0  0
 22 23  1  0  0  0  0
 23 17  1  0  0  0  0
 24 25  1  0  0  0  0
 25 20  1  0  0  0  0
 27 14  1  0  0  0  0
 27 26  1  0  0  0  0
 28 27  2  0  0  0  0
 29 30  1  0  0  0  0
 30 31  1  0  0  0  0
 32 31  1  0  0  0  0
 33 35  1  0  0  0  0
 33 32  1  0  0  0  0
 35 34  1  6  0  0  0
 36 33  1  0  0  0  0
 36 35  1  0  0  0  0
 37 38  1  0  0  0  0
 38 39  1  0  0  0  0
 39 40  2  0  0  0  0
 41 39  1  0  0  0  0
 41 43  1  0  0  0  0
 42 41  2  0  0  0  0
 43 44  1  0  0  0  0
 44 45  1  0  0  0  0
 45 48  1  6  0  0  0
 45 46  1  0  0  0  0
 45 54  1  0  0  0  0
 46 55  1  1  0  0  0
 46 52  1  0  0  0  0
 50 51  1  1  0  0  0
 50 47  1  0  0  0  0
 50 49  1  0  0  0  0
 52 53  1  0  0  0  0
 53 54  1  6  0  0  0
 53 47  1  0  0  0  0
 55 50  1  0  0  0  0
M  END
>  <MODEL>
2

>  <REMARK>
 VINA RESULT:      -6.9      4.506      8.968
  Name = 
  17 active torsions:
  status: ('A' for Active; 'I' for Inactive)
    1  A    between atoms: C_2  and  C_8
    2  A    between atoms: C_2  and  O_48
    3  A    between atoms: O_3  and  C_4
    4  A    between atoms: O_3  and  C_8
    5  A    between atoms: C_4  and  C_7
    6  A    between atoms: C_5  and  C_16
    7  A    between atoms: C_5  and  C_47
    8  A    between atoms: C_6  and  C_22
    9  A    between atoms: C_6  and  N_52
   10  A    between atoms: N_10  and  O_28
   11  A    between atoms: C_11  and  O_36
   12  A    between atoms: C_12  and  C_39
   13  A    between atoms: O_28  and  C_34
   14  A    between atoms: C_34  and  C_44
   15  A    between atoms: O_36  and  C_44
   16  A    between atoms: C_43  and  O_48
   17  A    between atoms: C_43  and  C_49
                            x       y       z     vdW  Elec       q    Type
                         _______ _______ _______ _____ _____    ______ ____

>  <TORSDO>
F 17

$$$$
=
 OpenBabel11052410203D

 55 61  0  0  1  0  0  0  0  0999 V2000
  160.4560  212.4780  146.6280 C   0  0  0  0  0  3  0  0  0  0  0  0
  159.7220  213.2720  148.8070 C   0  0  0  0  0  0  0  0  0  0  0  0
  161.5160  211.7940  147.2280 C   0  0  0  0  0  3  0  0  0  0  0  0
  161.6850  211.8450  148.6130 C   0  0  0  0  0  0  0  0  0  0  0  0
  159.5640  213.2240  147.4050 C   0  0  0  0  0  0  0  0  0  0  0  0
  160.7850  212.5710  149.4000 C   0  0  0  0  0  3  0  0  0  0  0  0
  158.7560  214.0380  149.6620 C   0  0  2  0  0  3  0  0  0  0  0  0
  159.3800  214.4440  150.9880 C   0  0  0  0  0  1  0  0  0  0  0  0
  156.4130  213.7660  149.7850 O   0  0  0  0  0  0  0  0  0  0  0  0
  157.5090  213.2410  149.8860 C   0  0  0  0  0  3  0  0  0  0  0  0
  162.8070  211.1100  149.2620 C   0  0  0  0  0  2  0  0  0  0  0  0
  160.9490  205.9160  152.8040 C   0  0  0  0  0  3  0  0  0  0  0  0
  161.0770  209.0180  154.8270 C   0  0  0  0  0  0  0  0  0  0  0  0
  161.1640  205.4930  151.4840 C   0  0  0  0  0  0  0  0  0  0  0  0
  160.9110  207.6700  154.4700 C   0  0  0  0  0  3  0  0  0  0  0  0
  162.2980  208.4100  148.6280 O   0  0  0  0  0  0  0  0  0  0  0  0
  161.5120  208.1970  152.1740 C   0  0  0  0  0  0  0  0  0  0  0  0
  161.5490  206.4260  150.5140 C   0  0  0  0  0  3  0  0  0  0  0  0
  161.1230  207.2570  153.1530 C   0  0  0  0  0  0  0  0  0  0  0  0
  161.6850  209.5450  152.5350 C   0  0  0  0  0  0  0  0  0  0  0  0
  161.4630  209.9480  153.8550 C   0  0  0  0  0  3  0  0  0  0  0  0
  162.1180  208.7630  149.8250 C   0  0  0  0  0  0  0  0  0  0  0  0
  161.7210  207.7770  150.8470 C   0  0  0  0  0  0  0  0  0  0  0  0
  162.3000  210.1320  150.2170 N   0  0  0  0  0  0  0  0  0  0  0  0
  162.0990  210.5050  151.5580 N   0  0  0  0  0  2  0  0  0  0  0  0
  160.5920  203.2440  151.9700 O   0  0  0  0  0  1  0  0  0  0  0  0
  160.9830  204.0810  151.1150 C   0  0  0  0  0  0  0  0  0  0  0  0
  161.2330  203.6590  149.8120 O   0  0  0  0  0  0  0  0  0  0  0  0
  160.8570  209.4600  156.1350 O   0  0  0  0  0  0  0  0  0  0  0  0
  160.6830  210.8320  156.4600 C   0  0  0  0  0  2  0  0  0  0  0  0
  159.2130  211.1940  156.3580 C   0  0  0  0  0  2  0  0  0  0  0  0
  159.0110  212.0850  155.3000 O   0  0  0  0  0  0  0  0  0  0  0  0
  157.6690  212.1060  155.1050 N   0  0  0  0  0  0  0  0  0  0  0  0
  156.0190  213.3200  153.8280 C   0  0  0  0  0  1  0  0  0  0  0  0
  157.4430  212.8020  153.8640 C   0  0  2  0  0  3  0  0  0  0  0  0
  157.4280  211.4440  153.9120 O   0  0  0  0  0  0  0  0  0  0  0  0
  158.4300  213.9130  146.7230 C   0  0  0  0  0  2  0  0  0  0  0  0
  158.8570  214.3890  145.4540 O   0  0  0  0  0  0  0  0  0  0  0  0
  158.7170  213.6450  144.2770 C   0  0  0  0  0  0  0  0  0  0  0  0
  158.2700  212.4700  144.3570 O   0  0  0  0  0  0  0  0  0  0  0  0
  159.1160  214.1700  142.9550 C   0  0  0  0  0  0  0  0  0  0  0  0
  158.2210  214.4530  142.1170 O   0  0  0  0  0  0  0  0  0  0  0  0
  160.4530  214.3850  142.6080 O   0  0  0  0  0  0  0  0  0  0  0  0
  161.3870  213.3320  142.3850 C   0  0  0  0  0  2  0  0  0  0  0  0
  162.2720  213.6190  141.1650 C   0  0  2  0  0  0  0  0  0  0  0  0
  162.6910  212.3690  140.3910 C   0  0  2  0  0  3  0  0  0  0  0  0
  160.5040  212.7460  138.6160 C   0  0  0  0  0  2  0  0  0  0  0  0
  163.4170  214.3090  141.5610 O   0  0  0  0  0  1  0  0  0  0  0  0
  161.2160  210.5210  138.1850 F   0  0  0  0  0  0  0  0  0  0  0  0
  160.6770  211.3210  139.1770 C   0  0  2  0  0  0  0  0  0  0  0  0
  159.3170  210.7730  139.5560 C   0  0  0  0  0  1  0  0  0  0  0  0
  162.8700  212.8030  139.0640 O   0  0  0  0  0  0  0  0  0  0  0  0
  161.7480  213.6260  138.8450 C   0  0  2  0  0  3  0  0  0  0  0  0
  161.5390  214.4260  140.1210 C   0  0  0  0  0  2  0  0  0  0  0  0
  161.6020  211.2670  140.4070 C   0  0  0  0  0  2  0  0  0  0  0  0
  1  3  2  0  0  0  0
  1  5  1  0  0  0  0
  2  6  1  0  0  0  0
  2  7  1  0  0  0  0
  3  4  1  0  0  0  0
  4 11  1  0  0  0  0
  4  6  2  0  0  0  0
  5  2  2  0  0  0  0
  7 10  1  0  0  0  0
  7  8  1  1  0  0  0
  9 10  2  0  0  0  0
 11 24  1  0  0  0  0
 12 19  1  0  0  0  0
 13 29  1  0  0  0  0
 14 12  2  0  0  0  0
 15 13  1  0  0  0  0
 16 22  2  0  0  0  0
 17 20  2  0  0  0  0
 17 19  1  0  0  0  0
 18 23  2  0  0  0  0
 18 14  1  0  0  0  0
 19 15  2  0  0  0  0
 20 21  1  0  0  0  0
 21 13  2  0  0  0  0
 22 24  1  0  0  0  0
 22 23  1  0  0  0  0
 23 17  1  0  0  0  0
 24 25  1  0  0  0  0
 25 20  1  0  0  0  0
 27 14  1  0  0  0  0
 27 26  1  0  0  0  0
 28 27  2  0  0  0  0
 29 30  1  0  0  0  0
 31 30  1  0  0  0  0
 32 31  1  0  0  0  0
 33 32  1  0  0  0  0
 35 34  1  1  0  0  0
 35 36  1  0  0  0  0
 35 33  1  0  0  0  0
 36 33  1  0  0  0  0
 37  5  1  0  0  0  0
 38 37  1  0  0  0  0
 39 40  2  0  0  0  0
 39 38  1  0  0  0  0
 41 39  1  0  0  0  0
 42 41  2  0  0  0  0
 43 41  1  0  0  0  0
 44 43  1  0  0  0  0
 45 48  1  1  0  0  0
 45 44  1  0  0  0  0
 46 55  1  6  0  0  0
 46 45  1  0  0  0  0
 47 50  1  0  0  0  0
 49 50  1  0  0  0  0
 50 51  1  1  0  0  0
 50 55  1  0  0  0  0
 52 46  1  0  0  0  0
 53 47  1  1  0  0  0
 53 52  1  0  0  0  0
 53 54  1  0  0  0  0
 54 45  1  0  0  0  0
M  END
>  <MODEL>
3

>  <REMARK>
 VINA RESULT:      -6.9      1.332      2.048
  Name = 
  17 active torsions:
  status: ('A' for Active; 'I' for Inactive)
    1  A    between atoms: C_2  and  C_8
    2  A    between atoms: C_2  and  O_48
    3  A    between atoms: O_3  and  C_4
    4  A    between atoms: O_3  and  C_8
    5  A    between atoms: C_4  and  C_7
    6  A    between atoms: C_5  and  C_16
    7  A    between atoms: C_5  and  C_47
    8  A    between atoms: C_6  and  C_22
    9  A    between atoms: C_6  and  N_52
   10  A    between atoms: N_10  and  O_28
   11  A    between atoms: C_11  and  O_36
   12  A    between atoms: C_12  and  C_39
   13  A    between atoms: O_28  and  C_34
   14  A    between atoms: C_34  and  C_44
   15  A    between atoms: O_36  and  C_44
   16  A    between atoms: C_43  and  O_48
   17  A    between atoms: C_43  and  C_49
                            x       y       z     vdW  Elec       q    Type
                         _______ _______ _______ _____ _____    ______ ____

>  <TORSDO>
F 17

$$$$
=
 OpenBabel11052410203D

 55 61  0  0  1  0  0  0  0  0999 V2000
  162.1460  205.9700  144.9250 C   0  0  0  0  0  3  0  0  0  0  0  0
  160.5990  204.0930  144.9080 C   0  0  0  0  0  0  0  0  0  0  0  0
  162.3960  205.7590  146.2830 C   0  0  0  0  0  3  0  0  0  0  0  0
  161.7520  204.7200  146.9580 C   0  0  0  0  0  0  0  0  0  0  0  0
  161.2470  205.1520  144.2350 C   0  0  0  0  0  0  0  0  0  0  0  0
  160.8670  203.8840  146.2700 C   0  0  0  0  0  3  0  0  0  0  0  0
  159.6560  203.1830  144.1770 C   0  0  2  0  0  3  0  0  0  0  0  0
  158.2210  203.6800  144.2580 C   0  0  0  0  0  1  0  0  0  0  0  0
  160.6480  201.4870  145.4880 O   0  0  0  0  0  0  0  0  0  0  0  0
  159.7640  201.7860  144.7030 C   0  0  0  0  0  3  0  0  0  0  0  0
  162.0210  204.4810  148.4040 C   0  0  0  0  0  2  0  0  0  0  0  0
  161.1910  209.2540  152.8200 C   0  0  0  0  0  3  0  0  0  0  0  0
  161.9760  210.5840  149.4500 C   0  0  0  0  0  0  0  0  0  0  0  0
  160.9970  208.0230  153.4630 C   0  0  0  0  0  0  0  0  0  0  0  0
  161.6840  210.5300  150.8230 C   0  0  0  0  0  3  0  0  0  0  0  0
  161.2920  204.5000  151.1280 O   0  0  0  0  0  0  0  0  0  0  0  0
  161.5880  208.1030  150.7140 C   0  0  0  0  0  0  0  0  0  0  0  0
  161.0960  206.8360  152.7260 C   0  0  0  0  0  3  0  0  0  0  0  0
  161.4880  209.3000  151.4560 C   0  0  0  0  0  0  0  0  0  0  0  0
  161.8870  208.1580  149.3410 C   0  0  0  0  0  0  0  0  0  0  0  0
  162.0750  209.3950  148.7180 C   0  0  0  0  0  3  0  0  0  0  0  0
  161.4830  205.6180  150.5760 C   0  0  0  0  0  0  0  0  0  0  0  0
  161.3860  206.8660  151.3550 C   0  0  0  0  0  0  0  0  0  0  0  0
  161.8000  205.6960  149.1780 N   0  0  0  0  0  0  0  0  0  0  0  0
  162.0120  206.9520  148.5810 N   0  0  0  0  0  2  0  0  0  0  0  0
  160.3640  206.8840  155.4430 O   0  0  0  0  0  0  0  0  0  0  0  0
  160.6860  207.9730  154.8990 C   0  0  0  0  0  0  0  0  0  0  0  0
  160.7530  209.1290  155.6720 O   0  0  0  0  0  1  0  0  0  0  0  0
  162.1610  211.8020  148.7900 O   0  0  0  0  0  0  0  0  0  0  0  0
  161.6810  212.0410  147.4750 C   0  0  0  0  0  2  0  0  0  0  0  0
  161.5060  213.5330  147.2630 C   0  0  0  0  0  2  0  0  0  0  0  0
  160.5000  213.7700  146.3230 O   0  0  0  0  0  0  0  0  0  0  0  0
  159.5800  212.7950  146.5340 N   0  0  0  0  0  0  0  0  0  0  0  0
  157.2130  212.4160  146.2540 C   0  0  0  0  0  1  0  0  0  0  0  0
  158.4410  213.1180  145.7120 C   0  0  2  0  0  3  0  0  0  0  0  0
  159.3490  212.1910  145.3080 O   0  0  0  0  0  0  0  0  0  0  0  0
  161.0340  205.3970  142.7780 C   0  0  0  0  0  2  0  0  0  0  0  0
  161.9150  206.4220  142.3360 O   0  0  0  0  0  0  0  0  0  0  0  0
  162.2230  206.6280  140.9860 C   0  0  0  0  0  0  0  0  0  0  0  0
  163.0530  205.8590  140.4340 O   0  0  0  0  0  0  0  0  0  0  0  0
  161.6470  207.7400  140.2030 C   0  0  0  0  0  0  0  0  0  0  0  0
  161.2700  207.5230  139.0220 O   0  0  0  0  0  0  0  0  0  0  0  0
  161.4830  209.0240  140.7340 O   0  0  0  0  0  0  0  0  0  0  0  0
  162.2070  210.1620  140.2740 C   0  0  0  0  0  2  0  0  0  0  0  0
  161.2620  211.2470  139.7410 C   0  0  2  0  0  0  0  0  0  0  0  0
  160.3000  211.8070  140.7900 C   0  0  2  0  0  3  0  0  0  0  0  0
  162.1070  213.9400  141.2960 C   0  0  0  0  0  2  0  0  0  0  0  0
  160.5210  210.7470  138.6710 O   0  0  0  0  0  1  0  0  0  0  0  0
  160.6050  214.0120  143.1340 F   0  0  0  0  0  0  0  0  0  0  0  0
  161.5640  213.2110  142.5390 C   0  0  2  0  0  0  0  0  0  0  0  0
  162.6970  212.9990  143.5210 C   0  0  0  0  0  1  0  0  0  0  0  0
  160.0350  213.1260  140.3760 O   0  0  0  0  0  0  0  0  0  0  0  0
  161.3090  213.6090  140.0200 C   0  0  2  0  0  3  0  0  0  0  0  0
  162.0170  212.4750  139.2950 C   0  0  0  0  0  2  0  0  0  0  0  0
  160.9250  211.8490  142.2070 C   0  0  0  0  0  2  0  0  0  0  0  0
  1  3  1  0  0  0  0
  2  6  2  0  0  0  0
  3  4  2  0  0  0  0
  4 11  1  0  0  0  0
  5  2  1  0  0  0  0
  5  1  2  0  0  0  0
  6  4  1  0  0  0  0
  7  8  1  1  0  0  0
  7 10  1  0  0  0  0
  7  2  1  0  0  0  0
 10  9  2  0  0  0  0
 11 24  1  0  0  0  0
 12 14  1  0  0  0  0
 13 15  2  0  0  0  0
 14 27  1  0  0  0  0
 15 19  1  0  0  0  0
 17 23  2  0  0  0  0
 17 19  1  0  0  0  0
 18 14  2  0  0  0  0
 19 12  2  0  0  0  0
 20 17  1  0  0  0  0
 21 20  2  0  0  0  0
 21 13  1  0  0  0  0
 22 16  2  0  0  0  0
 22 23  1  0  0  0  0
 23 18  1  0  0  0  0
 24 22  1  0  0  0  0
 25 24  1  0  0  0  0
 25 20  1  0  0  0  0
 27 26  2  0  0  0  0
 27 28  1  0  0  0  0
 29 13  1  0  0  0  0
 30 29  1  0  0  0  0
 31 30  1  0  0  0  0
 32 33  1  0  0  0  0
 32 31  1  0  0  0  0
 35 34  1  1  0  0  0
 35 33  1  0  0  0  0
 36 35  1  0  0  0  0
 36 33  1  0  0  0  0
 37  5  1  0  0  0  0
 38 37  1  0  0  0  0
 39 38  1  0  0  0  0
 40 39  2  0  0  0  0
 41 43  1  0  0  0  0
 41 39  1  0  0  0  0
 42 41  2  0  0  0  0
 44 43  1  0  0  0  0
 45 48  1  6  0  0  0
 45 44  1  0  0  0  0
 45 46  1  0  0  0  0
 46 55  1  1  0  0  0
 47 50  1  0  0  0  0
 50 49  1  0  0  0  0
 50 51  1  1  0  0  0
 52 46  1  0  0  0  0
 53 54  1  1  0  0  0
 53 52  1  0  0  0  0
 53 47  1  0  0  0  0
 54 45  1  0  0  0  0
 55 50  1  0  0  0  0
M  END
>  <MODEL>
4

>  <REMARK>
 VINA RESULT:      -6.0      3.287      7.306
  Name = 
  17 active torsions:
  status: ('A' for Active; 'I' for Inactive)
    1  A    between atoms: C_2  and  C_8
    2  A    between atoms: C_2  and  O_48
    3  A    between atoms: O_3  and  C_4
    4  A    between atoms: O_3  and  C_8
    5  A    between atoms: C_4  and  C_7
    6  A    between atoms: C_5  and  C_16
    7  A    between atoms: C_5  and  C_47
    8  A    between atoms: C_6  and  C_22
    9  A    between atoms: C_6  and  N_52
   10  A    between atoms: N_10  and  O_28
   11  A    between atoms: C_11  and  O_36
   12  A    between atoms: C_12  and  C_39
   13  A    between atoms: O_28  and  C_34
   14  A    between atoms: C_34  and  C_44
   15  A    between atoms: O_36  and  C_44
   16  A    between atoms: C_43  and  O_48
   17  A    between atoms: C_43  and  C_49
                            x       y       z     vdW  Elec       q    Type
                         _______ _______ _______ _____ _____    ______ ____

>  <TORSDO>
F 17

$$$$
=
 OpenBabel11052410203D

 55 61  0  0  1  0  0  0  0  0999 V2000
  161.3440  205.1100  146.4720 C   0  0  0  0  0  3  0  0  0  0  0  0
  161.0610  202.6940  146.4530 C   0  0  0  0  0  0  0  0  0  0  0  0
  161.4200  205.0960  147.8660 C   0  0  0  0  0  3  0  0  0  0  0  0
  161.3170  203.8870  148.5590 C   0  0  0  0  0  0  0  0  0  0  0  0
  161.1560  203.9200  145.7610 C   0  0  0  0  0  0  0  0  0  0  0  0
  161.1500  202.6910  147.8550 C   0  0  0  0  0  3  0  0  0  0  0  0
  160.8930  201.4030  145.7070 C   0  0  2  0  0  3  0  0  0  0  0  0
  159.5160  201.2980  145.0700 C   0  0  0  0  0  1  0  0  0  0  0  0
  161.4430  199.1490  146.1490 O   0  0  0  0  0  0  0  0  0  0  0  0
  161.1490  200.2380  146.6110 C   0  0  0  0  0  3  0  0  0  0  0  0
  161.4080  203.8620  150.0460 C   0  0  0  0  0  2  0  0  0  0  0  0
  161.3310  209.4150  153.5290 C   0  0  0  0  0  3  0  0  0  0  0  0
  161.9770  210.0270  149.9310 C   0  0  0  0  0  0  0  0  0  0  0  0
  161.0770  208.3470  154.4010 C   0  0  0  0  0  0  0  0  0  0  0  0
  161.7840  210.2520  151.3040 C   0  0  0  0  0  3  0  0  0  0  0  0
  160.8880  204.4470  152.7550 O   0  0  0  0  0  0  0  0  0  0  0  0
  161.4670  207.8680  151.6580 C   0  0  0  0  0  0  0  0  0  0  0  0
  161.0160  207.0430  153.8950 C   0  0  0  0  0  3  0  0  0  0  0  0
  161.5280  209.1830  152.1660 C   0  0  0  0  0  0  0  0  0  0  0  0
  161.6680  207.6430  150.2840 C   0  0  0  0  0  0  0  0  0  0  0  0
  161.9170  208.7220  149.4300 C   0  0  0  0  0  3  0  0  0  0  0  0
  161.1350  205.4220  151.9940 C   0  0  0  0  0  0  0  0  0  0  0  0
  161.2060  206.7940  152.5290 C   0  0  0  0  0  0  0  0  0  0  0  0
  161.3530  205.2140  150.5900 N   0  0  0  0  0  0  0  0  0  0  0  0
  161.6300  206.3130  149.7580 N   0  0  0  0  0  2  0  0  0  0  0  0
  159.7450  208.9570  156.2640 O   0  0  0  0  0  0  0  0  0  0  0  0
  160.8700  208.5900  155.8370 C   0  0  0  0  0  0  0  0  0  0  0  0
  161.9150  208.4050  156.7370 O   0  0  0  0  0  1  0  0  0  0  0  0
  162.2190  211.0810  149.0450 O   0  0  0  0  0  0  0  0  0  0  0  0
  161.5370  212.3240  149.1280 C   0  0  0  0  0  2  0  0  0  0  0  0
  161.4230  212.9320  147.7430 C   0  0  0  0  0  2  0  0  0  0  0  0
  160.6610  212.1030  146.9160 O   0  0  0  0  0  0  0  0  0  0  0  0
  160.6230  212.7350  145.7160 N   0  0  0  0  0  0  0  0  0  0  0  0
  159.5060  212.5580  143.5830 C   0  0  0  0  0  1  0  0  0  0  0  0
  159.3940  212.3370  145.0780 C   0  0  2  0  0  3  0  0  0  0  0  0
  159.4890  213.5310  145.7200 O   0  0  0  0  0  0  0  0  0  0  0  0
  161.1100  203.9810  144.2700 C   0  0  0  0  0  2  0  0  0  0  0  0
  161.9710  205.0140  143.8110 O   0  0  0  0  0  0  0  0  0  0  0  0
  161.5060  206.1470  143.1330 C   0  0  0  0  0  0  0  0  0  0  0  0
  160.7130  206.9220  143.7300 O   0  0  0  0  0  0  0  0  0  0  0  0
  161.8730  206.4390  141.7330 C   0  0  0  0  0  0  0  0  0  0  0  0
  162.6620  205.6620  141.1350 O   0  0  0  0  0  0  0  0  0  0  0  0
  161.3590  207.5390  141.0370 O   0  0  0  0  0  0  0  0  0  0  0  0
  162.1350  208.3420  140.1530 C   0  0  0  0  0  2  0  0  0  0  0  0
  161.2770  208.9100  139.0160 C   0  0  2  0  0  0  0  0  0  0  0  0
  160.2840  209.9850  139.4590 C   0  0  2  0  0  3  0  0  0  0  0  0
  162.1600  211.9980  138.7520 C   0  0  0  0  0  2  0  0  0  0  0  0
  160.5760  207.8790  138.3900 O   0  0  0  0  0  1  0  0  0  0  0  0
  160.5580  213.1470  140.0780 F   0  0  0  0  0  0  0  0  0  0  0  0
  161.5090  212.1430  140.1400 C   0  0  2  0  0  0  0  0  0  0  0  0
  162.5710  212.5460  141.1430 C   0  0  0  0  0  1  0  0  0  0  0  0
  160.1080  210.8080  138.3320 O   0  0  0  0  0  0  0  0  0  0  0  0
  161.4230  210.9820  137.8570 C   0  0  2  0  0  3  0  0  0  0  0  0
  162.1160  209.6360  137.9920 C   0  0  0  0  0  2  0  0  0  0  0  0
  160.8260  210.8500  140.6240 C   0  0  0  0  0  2  0  0  0  0  0  0
  1  3  1  0  0  0  0
  2  6  2  0  0  0  0
  3  4  2  0  0  0  0
  4 11  1  0  0  0  0
  5  2  1  0  0  0  0
  5  1  2  0  0  0  0
  6  4  1  0  0  0  0
  7  8  1  1  0  0  0
  7  2  1  0  0  0  0
  7 10  1  0  0  0  0
  9 10  2  0  0  0  0
 11 24  1  0  0  0  0
 12 14  1  0  0  0  0
 13 15  2  0  0  0  0
 14 27  1  0  0  0  0
 15 19  1  0  0  0  0
 17 19  1  0  0  0  0
 17 23  2  0  0  0  0
 18 14  2  0  0  0  0
 19 12  2  0  0  0  0
 20 17  1  0  0  0  0
 21 13  1  0  0  0  0
 21 20  2  0  0  0  0
 22 23  1  0  0  0  0
 22 16  2  0  0  0  0
 23 18  1  0  0  0  0
 24 22  1  0  0  0  0
 25 20  1  0  0  0  0
 25 24  1  0  0  0  0
 27 26  2  0  0  0  0
 27 28  1  0  0  0  0
 29 30  1  0  0  0  0
 29 13  1  0  0  0  0
 31 30  1  0  0  0  0
 32 31  1  0  0  0  0
 33 36  1  0  0  0  0
 33 32  1  0  0  0  0
 35 34  1  6  0  0  0
 35 33  1  0  0  0  0
 35 36  1  0  0  0  0
 37  5  1  0  0  0  0
 38 37  1  0  0  0  0
 39 40  2  0  0  0  0
 39 38  1  0  0  0  0
 41 39  1  0  0  0  0
 42 41  2  0  0  0  0
 43 41  1  0  0  0  0
 44 43  1  0  0  0  0
 45 48  1  6  0  0  0
 45 46  1  0  0  0  0
 45 44  1  0  0  0  0
 46 55  1  1  0  0  0
 47 50  1  0  0  0  0
 49 50  1  0  0  0  0
 50 55  1  0  0  0  0
 50 51  1  1  0  0  0
 52 46  1  0  0  0  0
 53 54  1  1  0  0  0
 53 52  1  0  0  0  0
 53 47  1  0  0  0  0
 54 45  1  0  0  0  0
M  END
>  <MODEL>
5

>  <REMARK>
 VINA RESULT:      -5.7      3.130      7.714
  Name = 
  17 active torsions:
  status: ('A' for Active; 'I' for Inactive)
    1  A    between atoms: C_2  and  C_8
    2  A    between atoms: C_2  and  O_48
    3  A    between atoms: O_3  and  C_4
    4  A    between atoms: O_3  and  C_8
    5  A    between atoms: C_4  and  C_7
    6  A    between atoms: C_5  and  C_16
    7  A    between atoms: C_5  and  C_47
    8  A    between atoms: C_6  and  C_22
    9  A    between atoms: C_6  and  N_52
   10  A    between atoms: N_10  and  O_28
   11  A    between atoms: C_11  and  O_36
   12  A    between atoms: C_12  and  C_39
   13  A    between atoms: O_28  and  C_34
   14  A    between atoms: C_34  and  C_44
   15  A    between atoms: O_36  and  C_44
   16  A    between atoms: C_43  and  O_48
   17  A    between atoms: C_43  and  C_49
                            x       y       z     vdW  Elec       q    Type
                         _______ _______ _______ _____ _____    ______ ____

>  <TORSDO>
F 17

$$$$
=
 OpenBabel11052410203D

 55 61  0  0  1  0  0  0  0  0999 V2000
  160.8620  211.0350  150.6490 C   0  0  0  0  0  3  0  0  0  0  0  0
  161.4210  212.4210  148.7300 C   0  0  0  0  0  0  0  0  0  0  0  0
  161.4580  209.9320  150.0340 C   0  0  0  0  0  3  0  0  0  0  0  0
  162.0350  210.0660  148.7690 C   0  0  0  0  0  0  0  0  0  0  0  0
  160.8310  212.2760  150.0040 C   0  0  0  0  0  0  0  0  0  0  0  0
  162.0270  211.3070  148.1260 C   0  0  0  0  0  3  0  0  0  0  0  0
  161.4290  213.7510  148.0350 C   0  0  2  0  0  3  0  0  0  0  0  0
  161.1300  213.6100  146.5500 C   0  0  0  0  0  1  0  0  0  0  0  0
  163.7490  214.0430  147.7010 O   0  0  0  0  0  0  0  0  0  0  0  0
  162.7370  214.4460  148.2490 C   0  0  0  0  0  3  0  0  0  0  0  0
  162.6820  208.8970  148.1100 C   0  0  0  0  0  2  0  0  0  0  0  0
  160.8800  202.7910  149.6750 C   0  0  0  0  0  3  0  0  0  0  0  0
  161.0740  205.0000  152.6450 C   0  0  0  0  0  0  0  0  0  0  0  0
  161.0610  202.8530  148.2860 C   0  0  0  0  0  0  0  0  0  0  0  0
  160.8920  203.8590  151.8470 C   0  0  0  0  0  3  0  0  0  0  0  0
  162.1430  206.5830  146.5920 O   0  0  0  0  0  0  0  0  0  0  0  0
  161.4400  205.1510  149.8620 C   0  0  0  0  0  0  0  0  0  0  0  0
  161.4270  204.0660  147.6910 C   0  0  0  0  0  3  0  0  0  0  0  0
  161.0700  203.9280  150.4630 C   0  0  0  0  0  0  0  0  0  0  0  0
  161.6300  206.2910  150.6640 C   0  0  0  0  0  0  0  0  0  0  0  0
  161.4420  206.2100  152.0460 C   0  0  0  0  0  3  0  0  0  0  0  0
  161.9940  206.4980  147.8410 C   0  0  0  0  0  0  0  0  0  0  0  0
  161.6150  205.2180  148.4670 C   0  0  0  0  0  0  0  0  0  0  0  0
  162.1930  207.6470  148.6790 N   0  0  0  0  0  0  0  0  0  0  0  0
  162.0260  207.5310  150.0700 N   0  0  0  0  0  2  0  0  0  0  0  0
  160.1850  201.7220  146.3950 O   0  0  0  0  0  0  0  0  0  0  0  0
  160.8620  201.6560  147.4550 C   0  0  0  0  0  0  0  0  0  0  0  0
  161.4290  200.4410  147.8270 O   0  0  0  0  0  1  0  0  0  0  0  0
  160.8880  204.9600  154.0300 O   0  0  0  0  0  0  0  0  0  0  0  0
  161.3280  206.0000  154.8920 C   0  0  0  0  0  2  0  0  0  0  0  0
  160.2720  207.0880  154.9510 C   0  0  0  0  0  2  0  0  0  0  0  0
  160.6840  208.1110  155.8110 O   0  0  0  0  0  0  0  0  0  0  0  0
  160.4210  209.2620  155.1450 N   0  0  0  0  0  0  0  0  0  0  0  0
  161.5870  210.9690  153.8970 C   0  0  0  0  0  1  0  0  0  0  0  0
  161.5420  209.5010  154.2720 C   0  0  2  0  0  3  0  0  0  0  0  0
  160.3960  208.9480  153.7950 O   0  0  0  0  0  0  0  0  0  0  0  0
  160.2100  213.4320  150.7130 C   0  0  0  0  0  2  0  0  0  0  0  0
  159.0320  213.8340  150.0260 O   0  0  0  0  0  0  0  0  0  0  0  0
  157.7470  213.6500  150.5490 C   0  0  0  0  0  0  0  0  0  0  0  0
  156.8520  213.1840  149.7970 O   0  0  0  0  0  0  0  0  0  0  0  0
  157.3940  214.0240  151.9340 C   0  0  0  0  0  0  0  0  0  0  0  0
  156.2030  214.3340  152.1960 O   0  0  0  0  0  0  0  0  0  0  0  0
  158.3320  214.0250  152.9720 O   0  0  0  0  0  0  0  0  0  0  0  0
  158.5640  212.9060  153.8220 C   0  0  0  0  0  2  0  0  0  0  0  0
  158.5800  213.3200  155.2990 C   0  0  2  0  0  0  0  0  0  0  0  0
  157.1980  213.6240  155.8770 C   0  0  2  0  0  3  0  0  0  0  0  0
  157.0310  210.9610  156.8550 C   0  0  0  0  0  2  0  0  0  0  0  0
  159.3960  214.4380  155.4690 O   0  0  0  0  0  1  0  0  0  0  0  0
  154.8020  211.7680  157.0040 F   0  0  0  0  0  0  0  0  0  0  0  0
  155.7980  211.4740  156.0890 C   0  0  2  0  0  0  0  0  0  0  0  0
  155.3000  210.3810  155.1660 C   0  0  0  0  0  1  0  0  0  0  0  0
  157.3000  213.3230  157.2480 O   0  0  0  0  0  0  0  0  0  0  0  0
  157.9940  212.0970  157.2530 C   0  0  2  0  0  3  0  0  0  0  0  0
  159.0730  212.2030  156.1870 C   0  0  0  0  0  2  0  0  0  0  0  0
  156.0870  212.7390  155.2580 C   0  0  0  0  0  2  0  0  0  0  0  0
  2  5  1  0  0  0  0
  3  1  1  0  0  0  0
  4  3  2  0  0  0  0
  5  1  2  0  0  0  0
  5 37  1  0  0  0  0
  6  2  2  0  0  0  0
  6  4  1  0  0  0  0
  7  8  1  6  0  0  0
  7 10  1  0  0  0  0
  7  2  1  0  0  0  0
  9 10  2  0  0  0  0
 11 24  1  0  0  0  0
 11  4  1  0  0  0  0
 12 19  1  0  0  0  0
 13 29  1  0  0  0  0
 14 12  2  0  0  0  0
 15 13  2  0  0  0  0
 16 22  2  0  0  0  0
 17 19  2  0  0  0  0
 17 20  1  0  0  0  0
 18 14  1  0  0  0  0
 18 23  2  0  0  0  0
 19 15  1  0  0  0  0
 20 21  2  0  0  0  0
 21 13  1  0  0  0  0
 22 23  1  0  0  0  0
 22 24  1  0  0  0  0
 23 17  1  0  0  0  0
 24 25  1  0  0  0  0
 25 20  1  0  0  0  0
 26 27  2  0  0  0  0
 27 28  1  0  0  0  0
 27 14  1  0  0  0  0
 29 30  1  0  0  0  0
 30 31  1  0  0  0  0
 31 32  1  0  0  0  0
 33 32  1  0  0  0  0
 35 34  1  6  0  0  0
 35 33  1  0  0  0  0
 36 35  1  0  0  0  0
 36 33  1  0  0  0  0
 38 39  1  0  0  0  0
 38 37  1  0  0  0  0
 39 41  1  0  0  0  0
 40 39  2  0  0  0  0
 41 42  2  0  0  0  0
 41 43  1  0  0  0  0
 43 44  1  0  0  0  0
 44 45  1  0  0  0  0
 45 48  1  1  0  0  0
 45 46  1  0  0  0  0
 45 54  1  0  0  0  0
 46 55  1  6  0  0  0
 46 52  1  0  0  0  0
 47 53  1  0  0  0  0
 50 51  1  6  0  0  0
 50 47  1  0  0  0  0
 50 49  1  0  0  0  0
 52 53  1  0  0  0  0
 53 54  1  6  0  0  0
 55 50  1  0  0  0  0
M  END
>  <MODEL>
6

>  <REMARK>
 VINA RESULT:      -5.3      5.187      9.220
  Name = 
  17 active torsions:
  status: ('A' for Active; 'I' for Inactive)
    1  A    between atoms: C_2  and  C_8
    2  A    between atoms: C_2  and  O_48
    3  A    between atoms: O_3  and  C_4
    4  A    between atoms: O_3  and  C_8
    5  A    between atoms: C_4  and  C_7
    6  A    between atoms: C_5  and  C_16
    7  A    between atoms: C_5  and  C_47
    8  A    between atoms: C_6  and  C_22
    9  A    between atoms: C_6  and  N_52
   10  A    between atoms: N_10  and  O_28
   11  A    between atoms: C_11  and  O_36
   12  A    between atoms: C_12  and  C_39
   13  A    between atoms: O_28  and  C_34
   14  A    between atoms: C_34  and  C_44
   15  A    between atoms: O_36  and  C_44
   16  A    between atoms: C_43  and  O_48
   17  A    between atoms: C_43  and  C_49
                            x       y       z     vdW  Elec       q    Type
                         _______ _______ _______ _____ _____    ______ ____

>  <TORSDO>
F 17

$$$$
=
 OpenBabel11052410203D

 55 61  0  0  1  0  0  0  0  0999 V2000
  159.0380  214.0400  146.4010 C   0  0  0  0  0  3  0  0  0  0  0  0
  161.3120  213.2530  146.7540 C   0  0  0  0  0  0  0  0  0  0  0  0
  158.8580  214.1570  147.7800 C   0  0  0  0  0  3  0  0  0  0  0  0
  159.8980  213.8240  148.6510 C   0  0  0  0  0  0  0  0  0  0  0  0
  160.2530  213.5820  145.8810 C   0  0  0  0  0  0  0  0  0  0  0  0
  161.1230  213.3850  148.1390 C   0  0  0  0  0  3  0  0  0  0  0  0
  162.6350  212.7920  146.2160 C   0  0  2  0  0  3  0  0  0  0  0  0
  163.6520  212.5880  147.3270 C   0  0  0  0  0  1  0  0  0  0  0  0
  163.6670  213.3560  144.1670 O   0  0  0  0  0  0  0  0  0  0  0  0
  163.1510  213.7580  145.1960 C   0  0  0  0  0  3  0  0  0  0  0  0
  159.7170  213.9560  150.1240 C   0  0  0  0  0  2  0  0  0  0  0  0
  161.0160  208.8530  154.0300 C   0  0  0  0  0  3  0  0  0  0  0  0
  162.2340  208.3160  150.5710 C   0  0  0  0  0  0  0  0  0  0  0  0
  160.3610  209.8330  154.7900 C   0  0  0  0  0  0  0  0  0  0  0  0
  161.9430  208.0950  151.9270 C   0  0  0  0  0  3  0  0  0  0  0  0
  159.3210  213.4650  152.8720 O   0  0  0  0  0  0  0  0  0  0  0  0
  160.9230  210.2970  152.0740 C   0  0  0  0  0  0  0  0  0  0  0  0
  159.9940  211.0430  154.1890 C   0  0  0  0  0  3  0  0  0  0  0  0
  161.2950  209.0770  152.6800 C   0  0  0  0  0  0  0  0  0  0  0  0
  161.2070  210.5130  150.7140 C   0  0  0  0  0  0  0  0  0  0  0  0
  161.8630  209.5260  149.9730 C   0  0  0  0  0  3  0  0  0  0  0  0
  159.8930  212.5610  152.2040 C   0  0  0  0  0  0  0  0  0  0  0  0
  160.2720  211.2850  152.8370 C   0  0  0  0  0  0  0  0  0  0  0  0
  160.1830  212.7570  150.8110 N   0  0  0  0  0  0  0  0  0  0  0  0
  160.8180  211.7360  150.0820 N   0  0  0  0  0  2  0  0  0  0  0  0
  159.0650  208.9140  156.5500 O   0  0  0  0  0  0  0  0  0  0  0  0
  160.0660  209.5990  156.2120 C   0  0  0  0  0  0  0  0  0  0  0  0
  160.8960  210.1250  157.1970 O   0  0  0  0  0  1  0  0  0  0  0  0
  162.8950  207.3560  149.8000 O   0  0  0  0  0  0  0  0  0  0  0  0
  162.3500  206.8310  148.5970 C   0  0  0  0  0  2  0  0  0  0  0  0
  161.4030  205.6920  148.9260 C   0  0  0  0  0  2  0  0  0  0  0  0
  161.0480  205.0110  147.7580 O   0  0  0  0  0  0  0  0  0  0  0  0
  161.5210  205.7760  146.7430 N   0  0  0  0  0  0  0  0  0  0  0  0
  161.6250  205.7640  144.3310 C   0  0  0  0  0  1  0  0  0  0  0  0
  160.8250  205.3590  145.5520 C   0  0  2  0  0  3  0  0  0  0  0  0
  160.4390  206.4730  146.2290 O   0  0  0  0  0  0  0  0  0  0  0  0
  160.4090  213.5020  144.3990 C   0  0  0  0  0  2  0  0  0  0  0  0
  159.2110  213.0020  143.8220 O   0  0  0  0  0  0  0  0  0  0  0  0
  158.3390  213.7980  143.0710 C   0  0  0  0  0  0  0  0  0  0  0  0
  157.4480  214.4520  143.6750 O   0  0  0  0  0  0  0  0  0  0  0  0
  158.3960  213.8640  141.5960 C   0  0  0  0  0  0  0  0  0  0  0  0
  157.3330  213.7250  140.9380 O   0  0  0  0  0  0  0  0  0  0  0  0
  159.5890  214.0970  140.9030 O   0  0  0  0  0  0  0  0  0  0  0  0
  160.7260  213.2430  140.9860 C   0  0  0  0  0  2  0  0  0  0  0  0
  160.7240  212.2000  139.8600 C   0  0  2  0  0  0  0  0  0  0  0  0
  161.1670  212.7470  138.5030 C   0  0  2  0  0  3  0  0  0  0  0  0
  163.8170  211.8620  139.0190 C   0  0  0  0  0  2  0  0  0  0  0  0
  159.4520  211.6440  139.7290 O   0  0  0  0  0  1  0  0  0  0  0  0
  164.0560  213.3490  137.1810 F   0  0  0  0  0  0  0  0  0  0  0  0
  163.6780  213.3110  138.5130 C   0  0  2  0  0  0  0  0  0  0  0  0
  164.6110  214.2020  139.3060 C   0  0  0  0  0  1  0  0  0  0  0  0
  161.7320  211.6470  137.8310 O   0  0  0  0  0  0  0  0  0  0  0  0
  162.5260  211.0430  138.8250 C   0  0  2  0  0  3  0  0  0  0  0  0
  161.7260  211.1000  140.1160 C   0  0  0  0  0  2  0  0  0  0  0  0
  162.2420  213.8550  138.6300 C   0  0  0  0  0  2  0  0  0  0  0  0
  1  3  1  0  0  0  0
  2  6  2  0  0  0  0
  3  4  2  0  0  0  0
  4 11  1  0  0  0  0
  5  1  2  0  0  0  0
  5  2  1  0  0  0  0
  6  4  1  0  0  0  0
  7  2  1  0  0  0  0
  7  8  1  1  0  0  0
  9 10  2  0  0  0  0
 10  7  1  0  0  0  0
 11 24  1  0  0  0  0
 12 14  1  0  0  0  0
 13 15  2  0  0  0  0
 14 27  1  0  0  0  0
 15 19  1  0  0  0  0
 17 19  1  0  0  0  0
 17 23  2  0  0  0  0
 18 14  2  0  0  0  0
 19 12  2  0  0  0  0
 20 17  1  0  0  0  0
 21 13  1  0  0  0  0
 21 20  2  0  0  0  0
 22 23  1  0  0  0  0
 22 16  2  0  0  0  0
 23 18  1  0  0  0  0
 24 22  1  0  0  0  0
 25 20  1  0  0  0  0
 25 24  1  0  0  0  0
 27 26  2  0  0  0  0
 27 28  1  0  0  0  0
 29 13  1  0  0  0  0
 30 31  1  0  0  0  0
 30 29  1  0  0  0  0
 32 31  1  0  0  0  0
 33 32  1  0  0  0  0
 35 34  1  6  0  0  0
 35 36  1  0  0  0  0
 35 33  1  0  0  0  0
 36 33  1  0  0  0  0
 37  5  1  0  0  0  0
 38 37  1  0  0  0  0
 39 40  2  0  0  0  0
 39 38  1  0  0  0  0
 41 39  1  0  0  0  0
 42 41  2  0  0  0  0
 43 44  1  0  0  0  0
 43 41  1  0  0  0  0
 45 48  1  6  0  0  0
 45 54  1  0  0  0  0
 45 44  1  0  0  0  0
 46 55  1  1  0  0  0
 46 45  1  0  0  0  0
 49 50  1  0  0  0  0
 50 55  1  0  0  0  0
 50 47  1  0  0  0  0
 50 51  1  1  0  0  0
 52 46  1  0  0  0  0
 52 53  1  0  0  0  0
 53 47  1  1  0  0  0
 53 54  1  0  0  0  0
M  END
>  <MODEL>
7

>  <REMARK>
 VINA RESULT:      -4.7      2.071      5.606
  Name = 
  17 active torsions:
  status: ('A' for Active; 'I' for Inactive)
    1  A    between atoms: C_2  and  C_8
    2  A    between atoms: C_2  and  O_48
    3  A    between atoms: O_3  and  C_4
    4  A    between atoms: O_3  and  C_8
    5  A    between atoms: C_4  and  C_7
    6  A    between atoms: C_5  and  C_16
    7  A    between atoms: C_5  and  C_47
    8  A    between atoms: C_6  and  C_22
    9  A    between atoms: C_6  and  N_52
   10  A    between atoms: N_10  and  O_28
   11  A    between atoms: C_11  and  O_36
   12  A    between atoms: C_12  and  C_39
   13  A    between atoms: O_28  and  C_34
   14  A    between atoms: C_34  and  C_44
   15  A    between atoms: O_36  and  C_44
   16  A    between atoms: C_43  and  O_48
   17  A    between atoms: C_43  and  C_49
                            x       y       z     vdW  Elec       q    Type
                         _______ _______ _______ _____ _____    ______ ____

>  <TORSDO>
F 17

$$$$
=
 OpenBabel11052410203D

 55 61  0  0  1  0  0  0  0  0999 V2000
  159.9740  212.1650  146.9140 C   0  0  0  0  0  3  0  0  0  0  0  0
  161.7350  213.4670  145.8570 C   0  0  0  0  0  0  0  0  0  0  0  0
  160.8930  211.6590  147.8360 C   0  0  0  0  0  3  0  0  0  0  0  0
  162.2320  212.0530  147.7740 C   0  0  0  0  0  0  0  0  0  0  0  0
  160.3860  213.0580  145.9200 C   0  0  0  0  0  0  0  0  0  0  0  0
  162.6480  212.9610  146.7960 C   0  0  0  0  0  3  0  0  0  0  0  0
  162.1900  214.4510  144.8190 C   0  0  2  0  0  3  0  0  0  0  0  0
  161.3210  214.3940  143.5730 C   0  0  0  0  0  1  0  0  0  0  0  0
  163.9940  214.2290  143.3100 O   0  0  0  0  0  0  0  0  0  0  0  0
  163.6280  214.2200  144.4730 C   0  0  0  0  0  3  0  0  0  0  0  0
  163.2160  211.5270  148.7610 C   0  0  0  0  0  2  0  0  0  0  0  0
  160.8200  206.2990  151.9070 C   0  0  0  0  0  3  0  0  0  0  0  0
  161.0860  209.2630  154.1160 C   0  0  0  0  0  0  0  0  0  0  0  0
  161.0620  205.9360  150.5740 C   0  0  0  0  0  0  0  0  0  0  0  0
  160.8370  207.9540  153.6720 C   0  0  0  0  0  3  0  0  0  0  0  0
  162.5380  208.9140  147.9460 O   0  0  0  0  0  0  0  0  0  0  0  0
  161.5780  208.5620  151.4380 C   0  0  0  0  0  0  0  0  0  0  0  0
  161.5590  206.8910  149.6780 C   0  0  0  0  0  3  0  0  0  0  0  0
  161.0770  207.6010  152.3420 C   0  0  0  0  0  0  0  0  0  0  0  0
  161.8340  209.8710  151.8860 C   0  0  0  0  0  0  0  0  0  0  0  0
  161.5840  210.2140  153.2170 C   0  0  0  0  0  3  0  0  0  0  0  0
  162.3310  209.2110  149.1540 C   0  0  0  0  0  0  0  0  0  0  0  0
  161.8150  208.2030  150.0980 C   0  0  0  0  0  0  0  0  0  0  0  0
  162.5960  210.5380  149.6340 N   0  0  0  0  0  0  0  0  0  0  0  0
  162.3620  210.8500  150.9850 N   0  0  0  0  0  2  0  0  0  0  0  0
  160.7320  204.3070  148.8840 O   0  0  0  0  0  0  0  0  0  0  0  0
  160.7930  204.5650  150.1140 C   0  0  0  0  0  0  0  0  0  0  0  0
  160.6130  203.5380  151.0370 O   0  0  0  0  0  1  0  0  0  0  0  0
  160.8400  209.6460  155.4370 O   0  0  0  0  0  0  0  0  0  0  0  0
  159.5960  209.4140  156.0830 C   0  0  0  0  0  2  0  0  0  0  0  0
  158.5320  210.3010  155.4640 C   0  0  0  0  0  2  0  0  0  0  0  0
  159.0080  211.6100  155.3450 O   0  0  0  0  0  0  0  0  0  0  0  0
  158.2000  212.2000  154.4300 N   0  0  0  0  0  0  0  0  0  0  0  0
  158.0860  214.2230  153.1160 C   0  0  0  0  0  1  0  0  0  0  0  0
  158.9960  213.1940  153.7550 C   0  0  2  0  0  3  0  0  0  0  0  0
  158.7730  211.9790  153.1880 O   0  0  0  0  0  0  0  0  0  0  0  0
  159.3620  213.5940  144.9750 C   0  0  0  0  0  2  0  0  0  0  0  0
  159.4570  212.9090  143.7330 O   0  0  0  0  0  0  0  0  0  0  0  0
  158.8560  213.3780  142.5600 C   0  0  0  0  0  0  0  0  0  0  0  0
  157.8520  214.1310  142.6560 O   0  0  0  0  0  0  0  0  0  0  0  0
  159.3280  212.9840  141.2160 C   0  0  0  0  0  0  0  0  0  0  0  0
  160.3450  213.5500  140.7380 O   0  0  0  0  0  0  0  0  0  0  0  0
  158.6970  211.9880  140.4630 O   0  0  0  0  0  0  0  0  0  0  0  0
  158.3470  212.1440  139.0910 C   0  0  0  0  0  2  0  0  0  0  0  0
  158.5230  210.8320  138.3170 C   0  0  2  0  0  0  0  0  0  0  0  0
  159.6450  210.8650  137.2780 C   0  0  2  0  0  3  0  0  0  0  0  0
  161.4260  209.7270  139.1760 C   0  0  0  0  0  2  0  0  0  0  0  0
  157.3290  210.4910  137.6810 O   0  0  0  0  0  1  0  0  0  0  0  0
  162.8560  210.5360  137.4600 F   0  0  0  0  0  0  0  0  0  0  0  0
  161.9510  210.9610  138.4170 C   0  0  2  0  0  0  0  0  0  0  0  0
  162.6680  211.8710  139.3920 C   0  0  0  0  0  1  0  0  0  0  0  0
  160.0930  209.5340  137.1800 O   0  0  0  0  0  0  0  0  0  0  0  0
  160.1670  209.1240  138.5250 C   0  0  2  0  0  3  0  0  0  0  0  0
  158.9450  209.7010  139.2240 C   0  0  0  0  0  2  0  0  0  0  0  0
  160.8340  211.7560  137.7160 C   0  0  0  0  0  2  0  0  0  0  0  0
  1  3  1  0  0  0  0
  2  5  1  0  0  0  0
  2  6  2  0  0  0  0
  4  3  2  0  0  0  0
  4 11  1  0  0  0  0
  5  1  2  0  0  0  0
  6  4  1  0  0  0  0
  7  8  1  6  0  0  0
  7  2  1  0  0  0  0
  9 10  2  0  0  0  0
 10  7  1  0  0  0  0
 11 24  1  0  0  0  0
 12 19  1  0  0  0  0
 13 29  1  0  0  0  0
 14 12  2  0  0  0  0
 15 13  1  0  0  0  0
 16 22  2  0  0  0  0
 17 20  2  0  0  0  0
 17 19  1  0  0  0  0
 18 23  2  0  0  0  0
 18 14  1  0  0  0  0
 19 15  2  0  0  0  0
 20 21  1  0  0  0  0
 21 13  2  0  0  0  0
 22 24  1  0  0  0  0
 22 23  1  0  0  0  0
 23 17  1  0  0  0  0
 24 25  1  0  0  0  0
 25 20  1  0  0  0  0
 26 27  2  0  0  0  0
 27 14  1  0  0  0  0
 27 28  1  0  0  0  0
 29 30  1  0  0  0  0
 31 30  1  0  0  0  0
 32 31  1  0  0  0  0
 33 32  1  0  0  0  0
 35 34  1  6  0  0  0
 35 33  1  0  0  0  0
 36 35  1  0  0  0  0
 36 33  1  0  0  0  0
 37  5  1  0  0  0  0
 38 37  1  0  0  0  0
 39 40  2  0  0  0  0
 39 38  1  0  0  0  0
 41 39  1  0  0  0  0
 42 41  2  0  0  0  0
 43 41  1  0  0  0  0
 44 43  1  0  0  0  0
 45 48  1  6  0  0  0
 45 44  1  0  0  0  0
 45 54  1  0  0  0  0
 46 55  1  1  0  0  0
 46 45  1  0  0  0  0
 49 50  1  0  0  0  0
 50 47  1  0  0  0  0
 50 51  1  1  0  0  0
 52 46  1  0  0  0  0
 52 53  1  0  0  0  0
 53 47  1  1  0  0  0
 53 54  1  0  0  0  0
 55 50  1  0  0  0  0
M  END
>  <MODEL>
8

>  <REMARK>
 VINA RESULT:      -4.3      1.667      2.890
  Name = 
  17 active torsions:
  status: ('A' for Active; 'I' for Inactive)
    1  A    between atoms: C_2  and  C_8
    2  A    between atoms: C_2  and  O_48
    3  A    between atoms: O_3  and  C_4
    4  A    between atoms: O_3  and  C_8
    5  A    between atoms: C_4  and  C_7
    6  A    between atoms: C_5  and  C_16
    7  A    between atoms: C_5  and  C_47
    8  A    between atoms: C_6  and  C_22
    9  A    between atoms: C_6  and  N_52
   10  A    between atoms: N_10  and  O_28
   11  A    between atoms: C_11  and  O_36
   12  A    between atoms: C_12  and  C_39
   13  A    between atoms: O_28  and  C_34
   14  A    between atoms: C_34  and  C_44
   15  A    between atoms: O_36  and  C_44
   16  A    between atoms: C_43  and  O_48
   17  A    between atoms: C_43  and  C_49
                            x       y       z     vdW  Elec       q    Type
                         _______ _______ _______ _____ _____    ______ ____

>  <TORSDO>
F 17

$$$$
=
 OpenBabel11052410203D

 55 61  0  0  1  0  0  0  0  0999 V2000
  161.5850  208.3140  150.8900 C   0  0  0  0  0  3  0  0  0  0  0  0
  161.6130  209.3170  153.1050 C   0  0  0  0  0  0  0  0  0  0  0  0
  161.8100  209.5650  150.3130 C   0  0  0  0  0  3  0  0  0  0  0  0
  161.9360  210.6950  151.1250 C   0  0  0  0  0  0  0  0  0  0  0  0
  161.4760  208.1820  152.2780 C   0  0  0  0  0  0  0  0  0  0  0  0
  161.8500  210.5690  152.5140 C   0  0  0  0  0  3  0  0  0  0  0  0
  161.5330  209.1920  154.5980 C   0  0  2  0  0  3  0  0  0  0  0  0
  160.1170  208.8870  155.0610 C   0  0  0  0  0  1  0  0  0  0  0  0
  163.2450  210.6700  155.2790 O   0  0  0  0  0  0  0  0  0  0  0  0
  162.0490  210.4340  155.2560 C   0  0  0  0  0  3  0  0  0  0  0  0
  162.1870  212.0330  150.5180 C   0  0  0  0  0  2  0  0  0  0  0  0
  156.9150  214.2380  147.3070 C   0  0  0  0  0  3  0  0  0  0  0  0
  156.3910  214.1610  150.9750 C   0  0  0  0  0  0  0  0  0  0  0  0
  157.9140  213.9510  146.3650 C   0  0  0  0  0  0  0  0  0  0  0  0
  156.1540  214.3380  149.6020 C   0  0  0  0  0  3  0  0  0  0  0  0
  161.6520  212.5670  147.8020 O   0  0  0  0  0  0  0  0  0  0  0  0
  158.4110  213.5810  149.1080 C   0  0  0  0  0  0  0  0  0  0  0  0
  159.1590  213.4830  146.8010 C   0  0  0  0  0  3  0  0  0  0  0  0
  157.1550  214.0540  148.6700 C   0  0  0  0  0  0  0  0  0  0  0  0
  158.6440  213.3970  150.4830 C   0  0  0  0  0  0  0  0  0  0  0  0
  157.6370  213.6920  151.4060 C   0  0  0  0  0  3  0  0  0  0  0  0
  160.7310  212.8130  148.6280 C   0  0  0  0  0  0  0  0  0  0  0  0
  159.4180  213.2990  148.1660 C   0  0  0  0  0  0  0  0  0  0  0  0
  160.9450  212.6220  150.0350 N   0  0  0  0  0  0  0  0  0  0  0  0
  159.9050  212.8990  150.9410 N   0  0  0  0  0  2  0  0  0  0  0  0
  156.4980  214.3810  144.5130 O   0  0  0  0  0  1  0  0  0  0  0  0
  157.6620  214.1430  144.9290 C   0  0  0  0  0  0  0  0  0  0  0  0
  158.7120  214.0740  144.0180 O   0  0  0  0  0  0  0  0  0  0  0  0
  155.4110  214.4530  151.9290 O   0  0  0  0  0  0  0  0  0  0  0  0
  155.6750  214.4440  153.3240 C   0  0  0  0  0  2  0  0  0  0  0  0
  155.9390  213.0210  153.7800 C   0  0  0  0  0  2  0  0  0  0  0  0
  156.5750  213.0260  155.0250 O   0  0  0  0  0  0  0  0  0  0  0  0
  157.7810  212.4460  154.8100 N   0  0  0  0  0  0  0  0  0  0  0  0
  160.0610  212.6120  155.5860 C   0  0  0  0  0  1  0  0  0  0  0  0
  158.5990  212.7560  155.9550 C   0  0  2  0  0  3  0  0  0  0  0  0
  157.9850  211.5490  155.8470 O   0  0  0  0  0  0  0  0  0  0  0  0
  161.2650  206.8200  152.8490 C   0  0  0  0  0  2  0  0  0  0  0  0
  160.4500  206.0570  151.9700 O   0  0  0  0  0  0  0  0  0  0  0  0
  160.5910  204.6730  151.8120 C   0  0  0  0  0  0  0  0  0  0  0  0
  159.8330  203.9120  152.4680 O   0  0  0  0  0  0  0  0  0  0  0  0
  161.6250  204.0770  150.9410 C   0  0  0  0  0  0  0  0  0  0  0  0
  162.3250  203.1310  151.3880 O   0  0  0  0  0  0  0  0  0  0  0  0
  161.8390  204.5090  149.6290 O   0  0  0  0  0  0  0  0  0  0  0  0
  160.8550  205.1880  148.8550 C   0  0  0  0  0  2  0  0  0  0  0  0
  161.4940  205.9710  147.7010 C   0  0  2  0  0  0  0  0  0  0  0  0
  162.5210  205.1720  146.8980 C   0  0  2  0  0  3  0  0  0  0  0  0
  160.5050  204.4800  145.0200 C   0  0  0  0  0  2  0  0  0  0  0  0
  162.1020  207.1260  148.1900 O   0  0  0  0  0  1  0  0  0  0  0  0
  162.2810  202.9780  144.5360 F   0  0  0  0  0  0  0  0  0  0  0  0
  161.3780  203.3170  145.5280 C   0  0  2  0  0  0  0  0  0  0  0  0
  160.4920  202.1200  145.8060 C   0  0  0  0  0  1  0  0  0  0  0  0
  162.4840  205.7230  145.6040 O   0  0  0  0  0  0  0  0  0  0  0  0
  161.1040  205.8590  145.3560 C   0  0  2  0  0  3  0  0  0  0  0  0
  160.4760  206.3490  146.6520 C   0  0  0  0  0  2  0  0  0  0  0  0
  162.1640  203.6680  146.8060 C   0  0  0  0  0  2  0  0  0  0  0  0
  1  5  1  0  0  0  0
  2  7  1  0  0  0  0
  3  1  2  0  0  0  0
  3  4  1  0  0  0  0
  4  6  2  0  0  0  0
  5 37  1  0  0  0  0
  5  2  2  0  0  0  0
  6  2  1  0  0  0  0
  7  8  1  6  0  0  0
  7 10  1  0  0  0  0
 10  9  2  0  0  0  0
 11  4  1  0  0  0  0
 12 19  1  0  0  0  0
 13 21  1  0  0  0  0
 13 29  1  0  0  0  0
 14 18  1  0  0  0  0
 14 12  2  0  0  0  0
 15 13  2  0  0  0  0
 16 22  2  0  0  0  0
 17 20  1  0  0  0  0
 18 23  2  0  0  0  0
 19 17  2  0  0  0  0
 19 15  1  0  0  0  0
 20 25  1  0  0  0  0
 20 21  2  0  0  0  0
 22 24  1  0  0  0  0
 23 22  1  0  0  0  0
 23 17  1  0  0  0  0
 24 11  1  0  0  0  0
 24 25  1  0  0  0  0
 26 27  1  0  0  0  0
 27 14  1  0  0  0  0
 28 27  2  0  0  0  0
 29 30  1  0  0  0  0
 30 31  1  0  0  0  0
 31 32  1  0  0  0  0
 33 32  1  0  0  0  0
 33 36  1  0  0  0  0
 33 35  1  0  0  0  0
 35 34  1  6  0  0  0
 36 35  1  0  0  0  0
 38 37  1  0  0  0  0
 39 38  1  0  0  0  0
 39 40  2  0  0  0  0
 41 42  2  0  0  0  0
 41 39  1  0  0  0  0
 43 41  1  0  0  0  0
 44 43  1  0  0  0  0
 45 48  1  1  0  0  0
 45 44  1  0  0  0  0
 46 55  1  6  0  0  0
 46 45  1  0  0  0  0
 47 50  1  0  0  0  0
 49 50  1  0  0  0  0
 50 51  1  1  0  0  0
 50 55  1  0  0  0  0
 52 46  1  0  0  0  0
 53 47  1  1  0  0  0
 53 52  1  0  0  0  0
 53 54  1  0  0  0  0
 54 45  1  0  0  0  0
M  END
>  <MODEL>
9

>  <REMARK>
 VINA RESULT:      -4.2      3.928      8.869
  Name = 
  17 active torsions:
  status: ('A' for Active; 'I' for Inactive)
    1  A    between atoms: C_2  and  C_8
    2  A    between atoms: C_2  and  O_48
    3  A    between atoms: O_3  and  C_4
    4  A    between atoms: O_3  and  C_8
    5  A    between atoms: C_4  and  C_7
    6  A    between atoms: C_5  and  C_16
    7  A    between atoms: C_5  and  C_47
    8  A    between atoms: C_6  and  C_22
    9  A    between atoms: C_6  and  N_52
   10  A    between atoms: N_10  and  O_28
   11  A    between atoms: C_11  and  O_36
   12  A    between atoms: C_12  and  C_39
   13  A    between atoms: O_28  and  C_34
   14  A    between atoms: C_34  and  C_44
   15  A    between atoms: O_36  and  C_44
   16  A    between atoms: C_43  and  O_48
   17  A    between atoms: C_43  and  C_49
                            x       y       z     vdW  Elec       q    Type
                         _______ _______ _______ _____ _____    ______ ____

>  <TORSDO>
F 17

$$$$
