=
 OpenBabel11042422543D

 54 61  0  0  1  0  0  0  0  0999 V2000
  159.0990  213.2330  150.9660 C   0  0  1  0  0  3  0  0  0  0  0  0
  157.2880  211.7260  155.3950 O   0  0  0  0  0  0  0  0  0  0  0  0
  157.1930  212.8420  152.4990 C   0  0  0  0  0  2  0  0  0  0  0  0
  158.2200  211.9250  154.6300 C   0  0  0  0  0  0  0  0  0  0  0  0
  159.3560  210.9270  154.6330 C   0  0  0  0  0  2  0  0  0  0  0  0
  159.9630  213.0910  152.2250 C   0  0  1  0  0  3  0  0  0  0  0  0
  160.6340  211.3550  153.9180 C   0  0  2  0  0  3  0  0  0  0  0  0
  159.3790  213.6910  153.3730 O   0  0  0  0  0  0  0  0  0  0  0  0
  160.3570  211.6300  152.4450 C   0  0  0  0  0  2  0  0  0  0  0  0
  157.6590  213.6330  151.2910 C   0  0  0  0  0  2  0  0  0  0  0  0
  158.1250  213.1070  153.6940 C   0  0  1  0  0  3  0  0  0  0  0  0
  159.3730  213.7450  148.5550 N   0  0  0  0  0  0  0  0  0  0  0  0
  158.5750  213.3810  146.4990 C   0  0  0  0  0  0  0  0  0  0  0  0
  160.3680  213.3020  147.8240 C   0  0  0  0  0  0  0  0  0  0  0  0
  157.0670  214.3260  148.2680 C   0  0  0  0  0  3  0  0  0  0  0  0
  156.4500  213.6280  145.3190 N   0  0  0  0  0  0  0  0  0  0  0  0
  161.6690  213.2530  148.5290 C   0  0  2  0  0  3  0  0  0  0  0  0
  159.9370  213.0420  146.5460 C   0  0  0  0  0  0  0  0  0  0  0  0
  157.7620  213.2840  145.3610 C   0  0  0  0  0  0  0  0  0  0  0  0
  161.2930  213.8600  149.9030 C   0  0  0  0  0  2  0  0  0  0  0  0
  158.2730  212.8480  144.2950 O   0  0  0  0  0  0  0  0  0  0  0  0
  155.6040  214.1320  146.2500 C   0  0  0  0  0  3  0  0  0  0  0  0
  158.2660  213.8350  147.7880 C   0  0  0  0  0  0  0  0  0  0  0  0
  155.8780  214.4530  147.5740 C   0  0  0  0  0  3  0  0  0  0  0  0
  159.7650  214.1120  149.9000 C   0  0  2  0  0  3  0  0  0  0  0  0
  160.7150  212.5520  145.5020 O   0  0  0  0  0  1  0  0  0  0  0  0
  162.6930  214.1560  147.8550 C   0  0  0  0  0  2  0  0  0  0  0  0
  163.4540  213.3830  146.7940 C   0  0  0  0  0  1  0  0  0  0  0  0
  161.4030  209.4460  155.1780 O   0  0  0  0  0  1  0  0  0  0  0  0
  161.7080  210.2860  154.1060 C   0  0  1  0  0  3  0  0  0  0  0  0
  161.8950  209.4610  152.8260 C   0  0  0  0  0  2  0  0  0  0  0  0
  160.4360  206.9140  154.5310 C   0  0  0  0  0  1  0  0  0  0  0  0
  161.3220  207.1760  153.3270 C   0  0  2  0  0  3  0  0  0  0  0  0
  161.4410  204.8480  152.6100 N   0  0  0  0  0  0  0  0  0  0  0  0
  160.8890  208.4030  152.6600 N   0  0  0  0  0  0  0  0  0  0  0  0
  161.1780  206.0930  152.3330 C   0  0  0  0  0  0  0  0  0  0  0  0
  160.7190  206.6090  151.0300 C   0  0  0  0  0  2  0  0  0  0  0  0
  160.7110  208.1130  151.2290 C   0  0  0  0  0  2  0  0  0  0  0  0
  161.3370  201.5140  150.5500 N   0  0  0  0  0  0  0  0  0  0  0  0
  160.9800  203.8230  150.4350 N   0  0  0  0  0  0  0  0  0  0  0  0
  161.6780  202.1180  152.0600 S   0  0  0  0  0  0  0  0  0  0  0  0
  160.9710  202.6030  149.8130 C   0  0  0  0  0  0  0  0  0  0  0  0
  161.3650  203.7220  151.7250 C   0  0  0  0  0  0  0  0  0  0  0  0
  160.6300  202.4730  148.3680 C   0  0  0  0  0  2  0  0  0  0  0  0
  161.0270  201.0980  147.8390 C   0  0  0  0  0  2  0  0  0  0  0  0
  161.2030  201.1270  146.3280 C   0  0  0  0  0  2  0  0  0  0  0  0
  160.4100  202.2910  145.7210 C   0  0  0  0  0  2  0  0  0  0  0  0
  161.2560  203.2830  145.0470 N   0  0  0  0  0  0  0  0  0  0  0  0
  161.6770  205.9750  147.2800 C   0  0  0  0  0  1  0  0  0  0  0  0
  160.4970  206.6870  144.6350 O   0  0  0  0  0  0  0  0  0  0  0  0
  162.0500  205.4230  145.9170 C   0  0  1  0  0  3  0  0  0  0  0  0
  162.1820  203.9110  146.0050 C   0  0  0  0  0  2  0  0  0  0  0  0
  160.4130  204.3250  144.4600 C   0  0  0  0  0  2  0  0  0  0  0  0
  160.9350  205.5970  144.9730 C   0  0  0  0  0  0  0  0  0  0  0  0
  1 10  1  1  0  0  0
  1  6  1  0  0  0  0
  4  5  1  0  0  0  0
  4  2  2  0  0  0  0
  6  9  1  1  0  0  0
  6  8  1  0  0  0  0
  7 30  1  6  0  0  0
  7  5  1  0  0  0  0
  8 11  1  0  0  0  0
  9  7  1  0  0  0  0
 10  3  1  0  0  0  0
 11  3  1  6  0  0  0
 11  4  1  0  0  0  0
 12 25  1  0  0  0  0
 13 18  1  0  0  0  0
 13 23  2  0  0  0  0
 14 17  1  0  0  0  0
 14 12  1  0  0  0  0
 16 19  1  0  0  0  0
 16 22  2  0  0  0  0
 17 27  1  6  0  0  0
 17 20  1  0  0  0  0
 18 14  2  0  0  0  0
 19 13  1  0  0  0  0
 21 19  2  0  0  0  0
 22 24  1  0  0  0  0
 23 15  1  0  0  0  0
 23 12  1  0  0  0  0
 24 15  2  0  0  0  0
 25 20  1  6  0  0  0
 25  1  1  0  0  0  0
 26 18  1  0  0  0  0
 28 27  1  0  0  0  0
 30 29  1  1  0  0  0
 31 30  1  0  0  0  0
 33 32  1  1  0  0  0
 35 31  1  0  0  0  0
 35 33  1  0  0  0  0
 36 34  2  0  0  0  0
 36 33  1  0  0  0  0
 37 38  1  0  0  0  0
 37 36  1  0  0  0  0
 38 35  1  0  0  0  0
 39 41  1  0  0  0  0
 40 43  2  0  0  0  0
 42 40  1  0  0  0  0
 42 39  2  0  0  0  0
 43 41  1  0  0  0  0
 43 34  1  0  0  0  0
 44 42  1  0  0  0  0
 45 44  1  0  0  0  0
 46 45  1  0  0  0  0
 47 46  1  0  0  0  0
 48 47  1  0  0  0  0
 48 52  1  0  0  0  0
 50 54  2  0  0  0  0
 51 52  1  0  0  0  0
 51 49  1  1  0  0  0
 53 54  1  0  0  0  0
 53 48  1  0  0  0  0
 54 51  1  0  0  0  0
M  END
>  <MODEL>
1

>  <REMARK>
 VINA RESULT:      -6.7      0.000      0.000
  Name = 
  11 active torsions:
  status: ('A' for Active; 'I' for Inactive)
    1  A    between atoms: C_4  and  N_16
    2  A    between atoms: C_4  and  C_25
    3  A    between atoms: C_6  and  C_52
    4  A    between atoms: C_9  and  C_15
    5  A    between atoms: C_17  and  C_23
    6  A    between atoms: C_17  and  C_35
    7  A    between atoms: C_18  and  N_33
    8  A    between atoms: C_18  and  C_36
    9  A    between atoms: C_23  and  C_25
   10  A    between atoms: N_31  and  C_37
   11  A    between atoms: C_32  and  C_36
                            x       y       z     vdW  Elec       q    Type
                         _______ _______ _______ _____ _____    ______ ____

>  <TORSDO>
F 11

$$$$
=
 OpenBabel11042422543D

 54 61  0  0  1  0  0  0  0  0999 V2000
  159.5560  210.9720  154.3000 C   0  0  1  0  0  3  0  0  0  0  0  0
  161.5260  206.7290  156.1120 O   0  0  0  0  0  0  0  0  0  0  0  0
  159.7360  209.2660  156.0870 C   0  0  0  0  0  2  0  0  0  0  0  0
  161.4290  207.5780  155.2380 C   0  0  0  0  0  0  0  0  0  0  0  0
  161.4790  207.1140  153.8000 C   0  0  0  0  0  2  0  0  0  0  0  0
  160.8490  210.3470  153.7620 C   0  0  1  0  0  3  0  0  0  0  0  0
  161.6760  208.1990  152.7460 C   0  0  2  0  0  3  0  0  0  0  0  0
  161.7560  209.9720  154.7900 O   0  0  0  0  0  0  0  0  0  0  0  0
  160.5330  209.2070  152.7930 C   0  0  0  0  0  2  0  0  0  0  0  0
  159.3580  210.7060  155.7930 C   0  0  0  0  0  2  0  0  0  0  0  0
  161.1930  209.0070  155.6650 C   0  0  1  0  0  3  0  0  0  0  0  0
  158.0330  212.8720  153.8300 N   0  0  0  0  0  0  0  0  0  0  0  0
  155.9310  213.6190  153.9750 C   0  0  0  0  0  0  0  0  0  0  0  0
  157.6610  213.2270  152.6220 C   0  0  0  0  0  0  0  0  0  0  0  0
  157.1390  212.8930  156.0520 C   0  0  0  0  0  3  0  0  0  0  0  0
  154.2570  213.9660  155.7200 N   0  0  0  0  0  0  0  0  0  0  0  0
  158.7210  213.1030  151.5960 C   0  0  2  0  0  3  0  0  0  0  0  0
  156.3660  213.6830  152.6410 C   0  0  0  0  0  0  0  0  0  0  0  0
  154.6650  214.0170  154.4270 C   0  0  0  0  0  0  0  0  0  0  0  0
  159.9250  212.6460  152.4560 C   0  0  0  0  0  2  0  0  0  0  0  0
  153.8370  214.4530  153.5840 O   0  0  0  0  0  0  0  0  0  0  0  0
  154.8740  213.5770  156.8620 C   0  0  0  0  0  3  0  0  0  0  0  0
  157.0230  213.1140  154.6930 C   0  0  0  0  0  0  0  0  0  0  0  0
  156.1710  213.1000  157.0170 C   0  0  0  0  0  3  0  0  0  0  0  0
  159.4150  212.4480  153.9050 C   0  0  2  0  0  3  0  0  0  0  0  0
  155.6400  214.1330  151.5440 O   0  0  0  0  0  1  0  0  0  0  0  0
  159.0450  214.4530  150.9740 C   0  0  0  0  0  2  0  0  0  0  0  0
  159.7790  214.2610  149.6600 C   0  0  0  0  0  1  0  0  0  0  0  0
  163.0140  207.9120  150.7590 O   0  0  0  0  0  1  0  0  0  0  0  0
  161.8100  207.5560  151.3670 C   0  0  1  0  0  3  0  0  0  0  0  0
  161.6940  206.0300  151.4570 C   0  0  0  0  0  2  0  0  0  0  0  0
  160.9510  203.0900  149.9290 C   0  0  0  0  0  1  0  0  0  0  0  0
  161.4520  204.4900  149.6200 C   0  0  2  0  0  3  0  0  0  0  0  0
  161.5410  204.1810  147.2030 N   0  0  0  0  0  0  0  0  0  0  0  0
  160.7620  205.4540  150.4770 N   0  0  0  0  0  0  0  0  0  0  0  0
  161.1210  204.8630  148.2300 C   0  0  0  0  0  0  0  0  0  0  0  0
  160.2850  206.0760  148.1770 C   0  0  0  0  0  2  0  0  0  0  0  0
  160.2210  206.5240  149.6250 C   0  0  0  0  0  2  0  0  0  0  0  0
  160.5190  204.7110  143.4550 N   0  0  0  0  0  0  0  0  0  0  0  0
  162.1170  205.2480  145.0770 N   0  0  0  0  0  0  0  0  0  0  0  0
  160.0490  203.9420  144.8510 S   0  0  0  0  0  0  0  0  0  0  0  0
  161.6650  205.3720  143.7900 C   0  0  0  0  0  0  0  0  0  0  0  0
  161.3080  204.4600  145.8150 C   0  0  0  0  0  0  0  0  0  0  0  0
  162.4260  206.1530  142.7740 C   0  0  0  0  0  2  0  0  0  0  0  0
  161.6580  206.2220  141.4570 C   0  0  0  0  0  2  0  0  0  0  0  0
  162.4430  206.9980  140.4100 C   0  0  0  0  0  2  0  0  0  0  0  0
  161.9410  208.4450  140.3330 C   0  0  0  0  0  2  0  0  0  0  0  0
  161.0210  208.6840  139.2140 N   0  0  0  0  0  0  0  0  0  0  0  0
  162.5940  210.9730  137.0480 C   0  0  0  0  0  1  0  0  0  0  0  0
  159.9320  211.8260  138.0870 O   0  0  0  0  0  0  0  0  0  0  0  0
  161.3620  210.1150  137.2640 C   0  0  1  0  0  3  0  0  0  0  0  0
  161.7660  208.8190  137.9510 C   0  0  0  0  0  2  0  0  0  0  0  0
  160.2750  209.9190  139.4520 C   0  0  0  0  0  2  0  0  0  0  0  0
  160.4700  210.7410  138.2520 C   0  0  0  0  0  0  0  0  0  0  0  0
  1 10  1  1  0  0  0
  4 11  1  0  0  0  0
  4  2  2  0  0  0  0
  5  4  1  0  0  0  0
  6  9  1  1  0  0  0
  6  1  1  0  0  0  0
  6  8  1  0  0  0  0
  7 30  1  6  0  0  0
  7  9  1  0  0  0  0
  7  5  1  0  0  0  0
  8 11  1  0  0  0  0
 10  3  1  0  0  0  0
 11  3  1  6  0  0  0
 12 25  1  0  0  0  0
 12 23  1  0  0  0  0
 13 19  1  0  0  0  0
 13 23  2  0  0  0  0
 14 18  2  0  0  0  0
 14 12  1  0  0  0  0
 15 24  2  0  0  0  0
 16 22  2  0  0  0  0
 17 27  1  1  0  0  0
 17 20  1  0  0  0  0
 17 14  1  0  0  0  0
 18 13  1  0  0  0  0
 19 16  1  0  0  0  0
 21 19  2  0  0  0  0
 22 24  1  0  0  0  0
 23 15  1  0  0  0  0
 25 20  1  6  0  0  0
 25  1  1  0  0  0  0
 26 18  1  0  0  0  0
 28 27  1  0  0  0  0
 30 29  1  1  0  0  0
 30 31  1  0  0  0  0
 33 32  1  1  0  0  0
 33 35  1  0  0  0  0
 34 36  2  0  0  0  0
 35 31  1  0  0  0  0
 36 33  1  0  0  0  0
 37 36  1  0  0  0  0
 37 38  1  0  0  0  0
 38 35  1  0  0  0  0
 39 42  2  0  0  0  0
 39 41  1  0  0  0  0
 40 43  2  0  0  0  0
 41 43  1  0  0  0  0
 42 40  1  0  0  0  0
 43 34  1  0  0  0  0
 44 42  1  0  0  0  0
 45 44  1  0  0  0  0
 46 45  1  0  0  0  0
 47 46  1  0  0  0  0
 48 53  1  0  0  0  0
 48 47  1  0  0  0  0
 50 54  2  0  0  0  0
 51 49  1  1  0  0  0
 51 52  1  0  0  0  0
 51 54  1  0  0  0  0
 52 48  1  0  0  0  0
 54 53  1  0  0  0  0
M  END
>  <MODEL>
2

>  <REMARK>
 VINA RESULT:      -5.8      4.038      6.758
  Name = 
  11 active torsions:
  status: ('A' for Active; 'I' for Inactive)
    1  A    between atoms: C_4  and  N_16
    2  A    between atoms: C_4  and  C_25
    3  A    between atoms: C_6  and  C_52
    4  A    between atoms: C_9  and  C_15
    5  A    between atoms: C_17  and  C_23
    6  A    between atoms: C_17  and  C_35
    7  A    between atoms: C_18  and  N_33
    8  A    between atoms: C_18  and  C_36
    9  A    between atoms: C_23  and  C_25
   10  A    between atoms: N_31  and  C_37
   11  A    between atoms: C_32  and  C_36
                            x       y       z     vdW  Elec       q    Type
                         _______ _______ _______ _____ _____    ______ ____

>  <TORSDO>
F 11

$$$$
=
 OpenBabel11042422543D

 54 61  0  0  1  0  0  0  0  0999 V2000
  160.8170  209.1760  152.3400 C   0  0  1  0  0  3  0  0  0  0  0  0
  161.6220  204.2280  152.1590 O   0  0  0  0  0  0  0  0  0  0  0  0
  160.7000  206.9300  153.3790 C   0  0  0  0  0  2  0  0  0  0  0  0
  161.6760  205.3410  151.6580 C   0  0  0  0  0  0  0  0  0  0  0  0
  161.3960  205.4600  150.1770 C   0  0  0  0  0  2  0  0  0  0  0  0
  161.7790  208.5150  151.3450 C   0  0  1  0  0  3  0  0  0  0  0  0
  161.7760  206.7830  149.5210 C   0  0  2  0  0  3  0  0  0  0  0  0
  162.6540  207.5770  151.9550 O   0  0  0  0  0  0  0  0  0  0  0  0
  161.0090  207.9360  150.1570 C   0  0  0  0  0  2  0  0  0  0  0  0
  160.7430  208.4190  153.6670 C   0  0  0  0  0  2  0  0  0  0  0  0
  161.9420  206.5140  152.5720 C   0  0  1  0  0  3  0  0  0  0  0  0
  159.9750  211.3760  153.1140 N   0  0  0  0  0  0  0  0  0  0  0  0
  158.4030  212.4230  154.3120 C   0  0  0  0  0  0  0  0  0  0  0  0
  159.4050  212.2570  152.3250 C   0  0  0  0  0  0  0  0  0  0  0  0
  159.8490  210.6860  155.4040 C   0  0  0  0  0  3  0  0  0  0  0  0
  157.5530  212.3780  156.6020 N   0  0  0  0  0  0  0  0  0  0  0  0
  160.0000  212.3390  150.9720 C   0  0  2  0  0  3  0  0  0  0  0  0
  158.4140  212.9260  153.0010 C   0  0  0  0  0  0  0  0  0  0  0  0
  157.5480  212.8590  155.3330 C   0  0  0  0  0  0  0  0  0  0  0  0
  161.1710  211.3340  151.0930 C   0  0  0  0  0  2  0  0  0  0  0  0
  156.7090  213.7610  155.0680 O   0  0  0  0  0  0  0  0  0  0  0  0
  158.3100  211.4410  157.2240 C   0  0  0  0  0  3  0  0  0  0  0  0
  159.4160  211.4550  154.3410 C   0  0  0  0  0  0  0  0  0  0  0  0
  159.3460  210.6830  156.6920 C   0  0  0  0  0  3  0  0  0  0  0  0
  161.0820  210.6790  152.4940 C   0  0  2  0  0  3  0  0  0  0  0  0
  157.5950  213.9220  152.4790 O   0  0  0  0  0  1  0  0  0  0  0  0
  160.5660  213.7260  150.7030 C   0  0  0  0  0  2  0  0  0  0  0  0
  160.6220  213.9880  149.2100 C   0  0  0  0  0  1  0  0  0  0  0  0
  162.5800  207.2710  147.2990 O   0  0  0  0  0  1  0  0  0  0  0  0
  161.5290  206.6980  148.0160 C   0  0  1  0  0  3  0  0  0  0  0  0
  161.3180  205.2450  147.5730 C   0  0  0  0  0  2  0  0  0  0  0  0
  161.0630  203.1820  144.8890 C   0  0  0  0  0  1  0  0  0  0  0  0
  161.5070  204.5850  145.2640 C   0  0  2  0  0  3  0  0  0  0  0  0
  162.0340  205.2830  142.9880 N   0  0  0  0  0  0  0  0  0  0  0  0
  160.6130  205.1210  146.2890 N   0  0  0  0  0  0  0  0  0  0  0  0
  161.3950  205.4910  144.1040 C   0  0  0  0  0  0  0  0  0  0  0  0
  160.4960  206.6250  144.3850 C   0  0  0  0  0  2  0  0  0  0  0  0
  160.1520  206.4470  145.8510 C   0  0  0  0  0  2  0  0  0  0  0  0
  162.1240  207.1480  139.5410 N   0  0  0  0  0  0  0  0  0  0  0  0
  161.6450  207.3970  141.8170 N   0  0  0  0  0  0  0  0  0  0  0  0
  162.4200  205.6740  140.2470 S   0  0  0  0  0  0  0  0  0  0  0  0
  161.7060  207.9480  140.5650 C   0  0  0  0  0  0  0  0  0  0  0  0
  162.0250  206.1020  141.8100 C   0  0  0  0  0  0  0  0  0  0  0  0
  161.3840  209.3850  140.3350 C   0  0  0  0  0  2  0  0  0  0  0  0
  161.9560  209.8620  139.0030 C   0  0  0  0  0  2  0  0  0  0  0  0
  162.4020  211.3140  139.0920 C   0  0  0  0  0  2  0  0  0  0  0  0
  161.3070  212.2410  138.5490 C   0  0  0  0  0  2  0  0  0  0  0  0
  160.9050  213.2860  139.4990 N   0  0  0  0  0  0  0  0  0  0  0  0
  162.1720  212.3640  142.6540 C   0  0  0  0  0  1  0  0  0  0  0  0
  159.2190  212.7640  142.5350 O   0  0  0  0  0  0  0  0  0  0  0  0
  161.4080  213.4260  141.8850 C   0  0  1  0  0  3  0  0  0  0  0  0
  161.9760  213.5350  140.4780 C   0  0  0  0  0  2  0  0  0  0  0  0
  159.7050  212.8570  140.2170 C   0  0  0  0  0  2  0  0  0  0  0  0
  160.0250  212.9850  141.6440 C   0  0  0  0  0  0  0  0  0  0  0  0
  1 25  1  0  0  0  0
  1 10  1  1  0  0  0
  3 10  1  0  0  0  0
  4  2  2  0  0  0  0
  4 11  1  0  0  0  0
  5  4  1  0  0  0  0
  6  9  1  6  0  0  0
  6  8  1  0  0  0  0
  6  1  1  0  0  0  0
  7 30  1  6  0  0  0
  7  9  1  0  0  0  0
  7  5  1  0  0  0  0
  8 11  1  0  0  0  0
 11  3  1  6  0  0  0
 12 23  1  0  0  0  0
 13 23  2  0  0  0  0
 13 19  1  0  0  0  0
 14 18  2  0  0  0  0
 14 12  1  0  0  0  0
 15 24  2  0  0  0  0
 16 22  2  0  0  0  0
 17 27  1  1  0  0  0
 17 20  1  0  0  0  0
 17 14  1  0  0  0  0
 18 13  1  0  0  0  0
 19 16  1  0  0  0  0
 21 19  2  0  0  0  0
 23 15  1  0  0  0  0
 24 22  1  0  0  0  0
 25 20  1  6  0  0  0
 25 12  1  0  0  0  0
 26 18  1  0  0  0  0
 28 27  1  0  0  0  0
 30 29  1  6  0  0  0
 31 30  1  0  0  0  0
 33 32  1  6  0  0  0
 33 35  1  0  0  0  0
 34 36  2  0  0  0  0
 35 31  1  0  0  0  0
 36 37  1  0  0  0  0
 36 33  1  0  0  0  0
 37 38  1  0  0  0  0
 38 35  1  0  0  0  0
 39 41  1  0  0  0  0
 39 42  2  0  0  0  0
 41 43  1  0  0  0  0
 42 40  1  0  0  0  0
 43 40  2  0  0  0  0
 43 34  1  0  0  0  0
 44 42  1  0  0  0  0
 45 46  1  0  0  0  0
 45 44  1  0  0  0  0
 47 46  1  0  0  0  0
 47 48  1  0  0  0  0
 48 53  1  0  0  0  0
 48 52  1  0  0  0  0
 51 49  1  1  0  0  0
 52 51  1  0  0  0  0
 53 54  1  0  0  0  0
 54 51  1  0  0  0  0
 54 50  2  0  0  0  0
M  END
>  <MODEL>
3

>  <REMARK>
 VINA RESULT:      -3.9      3.987      8.527
  Name = 
  11 active torsions:
  status: ('A' for Active; 'I' for Inactive)
    1  A    between atoms: C_4  and  N_16
    2  A    between atoms: C_4  and  C_25
    3  A    between atoms: C_6  and  C_52
    4  A    between atoms: C_9  and  C_15
    5  A    between atoms: C_17  and  C_23
    6  A    between atoms: C_17  and  C_35
    7  A    between atoms: C_18  and  N_33
    8  A    between atoms: C_18  and  C_36
    9  A    between atoms: C_23  and  C_25
   10  A    between atoms: N_31  and  C_37
   11  A    between atoms: C_32  and  C_36
                            x       y       z     vdW  Elec       q    Type
                         _______ _______ _______ _____ _____    ______ ____

>  <TORSDO>
F 11

$$$$
