=
 OpenBabel11052410313D

 45 51  0  0  1  0  0  0  0  0999 V2000
  162.1680  207.6330  151.9070 C   0  0  2  0  0  3  0  0  0  0  0  0
  161.4880  213.8190  146.2270 C   0  0  0  0  0  3  0  0  0  0  0  0
  161.0730  210.9940  155.3060 N   0  0  0  0  0  0  0  0  0  0  0  0
  162.2130  210.4680  151.1230 C   0  0  2  0  0  3  0  0  0  0  0  0
  162.7060  213.5620  145.5940 C   0  0  0  0  0  3  0  0  0  0  0  0
  160.5220  209.8540  154.5700 C   0  0  1  0  0  3  0  0  0  0  0  0
  161.0250  208.1830  152.7620 C   0  0  0  0  0  2  0  0  0  0  0  0
  162.0750  208.0420  150.4280 C   0  0  0  0  0  2  0  0  0  0  0  0
  157.8490  214.3840  149.9450 C   0  0  0  0  0  3  0  0  0  0  0  0
  163.5390  212.5460  146.0680 C   0  0  0  0  0  3  0  0  0  0  0  0
  164.0160  210.7880  147.6370 O   0  0  0  0  0  1  0  0  0  0  0  0
  158.7740  210.1500  154.1060 S   0  0  0  0  0  0  0  0  0  0  0  0
  159.8500  213.3160  147.9980 N   0  0  0  0  0  2  0  0  0  0  0  0
  155.4520  214.1060  150.1260 C   0  0  0  0  0  3  0  0  0  0  0  0
  156.8270  212.8500  152.7620 C   0  0  0  0  0  2  0  0  0  0  0  0
  156.4960  214.1960  147.9410 C   0  0  0  0  0  0  0  0  0  0  0  0
  157.6620  212.4330  155.0570 C   0  0  0  0  0  3  0  0  0  0  0  0
  158.9620  211.8810  154.5660 C   0  0  1  0  0  3  0  0  0  0  0  0
  161.6350  209.8810  148.9030 O   0  0  0  0  0  0  0  0  0  0  0  0
  161.4990  211.2690  149.0320 C   0  0  2  0  0  3  0  0  0  0  0  0
  156.8090  214.2710  152.2220 C   0  0  0  0  0  2  0  0  0  0  0  0
  161.9250  212.0260  147.8080 C   0  0  0  0  0  0  0  0  0  0  0  0
  161.5280  209.4510  150.2310 C   0  0  2  0  0  3  0  0  0  0  0  0
  156.3770  214.1570  146.5560 O   0  0  0  0  0  1  0  0  0  0  0  0
  155.3490  214.0750  148.7330 C   0  0  0  0  0  3  0  0  0  0  0  0
  161.3320  210.7000  152.3370 C   0  0  0  0  0  2  0  0  0  0  0  0
  158.9900  214.4530  147.7160 C   0  0  0  0  0  2  0  0  0  0  0  0
  156.7000  214.2610  150.7350 C   0  0  0  0  0  0  0  0  0  0  0  0
  163.1590  211.7810  147.1740 C   0  0  0  0  0  0  0  0  0  0  0  0
  160.4710  213.1700  155.8530 F   0  0  0  0  0  0  0  0  0  0  0  0
  157.7520  214.3530  148.5470 C   0  0  0  0  0  0  0  0  0  0  0  0
  162.2450  211.7040  150.2720 C   0  0  0  0  0  2  0  0  0  0  0  0
  156.6900  212.8650  154.2520 C   0  0  0  0  0  0  0  0  0  0  0  0
  161.0930  213.0560  147.3350 C   0  0  0  0  0  0  0  0  0  0  0  0
  159.9820  211.8880  155.6740 C   0  0  2  0  0  3  0  0  0  0  0  0
  161.3970  209.5490  153.3510 C   0  0  1  0  0  3  0  0  0  0  0  0
  155.5140  213.3420  154.8160 O   0  0  0  0  0  1  0  0  0  0  0  0
  162.1970  206.1740  152.0030 C   0  0  0  0  0  0  0  0  0  0  0  0
  162.2190  205.0190  152.0790 N   0  0  0  0  0  0  0  0  0  0  0  0
  161.6330  210.4700  156.5420 C   0  0  0  0  0  2  0  0  0  0  0  0
  163.1490  210.4460  156.4550 C   0  0  2  0  0  3  0  0  0  0  0  0
  164.9160  211.7860  156.6490 C   0  0  0  0  0  2  0  0  0  0  0  0
  164.7670  211.5950  155.1580 C   0  0  0  0  0  2  0  0  0  0  0  0
  163.7000  211.4540  157.2610 O   0  0  0  0  0  0  0  0  0  0  0  0
  163.5820  210.6850  155.0290 C   0  0  0  0  0  2  0  0  0  0  0  0
  1 38  1  6  0  0  0
  1  7  1  0  0  0  0
  2 34  1  0  0  0  0
  3 35  1  0  0  0  0
  3 40  1  0  0  0  0
  4 32  1  6  0  0  0
  4 26  1  0  0  0  0
  5 10  1  0  0  0  0
  5  2  2  0  0  0  0
  6 12  1  6  0  0  0
  6  3  1  0  0  0  0
  7 36  1  0  0  0  0
  8  1  1  0  0  0  0
  9 28  1  0  0  0  0
 10 29  2  0  0  0  0
 12 18  1  0  0  0  0
 14 28  2  0  0  0  0
 15 33  1  0  0  0  0
 16 31  1  0  0  0  0
 16 25  2  0  0  0  0
 18 17  1  1  0  0  0
 18 35  1  0  0  0  0
 19 20  1  0  0  0  0
 19 23  1  0  0  0  0
 20 32  1  1  0  0  0
 21 15  1  0  0  0  0
 22 20  1  0  0  0  0
 23  8  1  6  0  0  0
 23  4  1  0  0  0  0
 24 16  1  0  0  0  0
 25 14  1  0  0  0  0
 27 13  1  0  0  0  0
 27 31  1  0  0  0  0
 28 21  1  0  0  0  0
 29 11  1  0  0  0  0
 29 22  1  0  0  0  0
 31  9  2  0  0  0  0
 33 37  1  0  0  0  0
 33 17  2  0  0  0  0
 34 22  2  0  0  0  0
 34 13  1  0  0  0  0
 35 30  1  6  0  0  0
 36 26  1  6  0  0  0
 36  6  1  0  0  0  0
 38 39  3  0  0  0  0
 41 40  1  6  0  0  0
 41 44  1  0  0  0  0
 42 44  1  0  0  0  0
 43 42  1  0  0  0  0
 45 43  1  0  0  0  0
 45 41  1  0  0  0  0
M  END
>  <MODEL>
1

>  <REMARK>
 VINA RESULT:      -0.1      0.000      0.000
  Name = 
  3 active torsions:
  status: ('A' for Active; 'I' for Inactive)
    1  A    between atoms: C_1  and  C_19
    2  A    between atoms: C_3  and  C_7
    3  A    between atoms: N_4  and  C_7
                            x       y       z     vdW  Elec       q    Type
                         _______ _______ _______ _____ _____    ______ ____

>  <TORSDO>
F 3

$$$$
