=
 OpenBabel11042421183D

 39 42  0  0  1  0  0  0  0  0999 V2000
  160.7210  205.6040  148.8160 N   0  0  0  0  0  2  0  0  0  0  0  0
  161.8780  207.7820  148.7740 C   0  0  0  0  0  0  0  0  0  0  0  0
  161.2710  204.4350  149.4890 C   0  0  2  0  0  3  0  0  0  0  0  0
  162.2330  207.6750  150.1890 C   0  0  0  0  0  3  0  0  0  0  0  0
  162.2600  208.4010  152.4980 C   0  0  0  0  0  2  0  0  0  0  0  0
  161.5480  202.9080  147.4580 N   0  0  0  0  0  2  0  0  0  0  0  0
  162.1340  208.6930  151.0360 C   0  0  0  0  0  0  0  0  0  0  0  0
  161.5130  208.9630  148.2510 C   0  0  0  0  0  3  0  0  0  0  0  0
  161.1910  207.3790  152.9050 C   0  0  1  0  0  3  0  0  0  0  0  0
  159.9970  202.4250  149.1180 O   0  0  0  0  0  0  0  0  0  0  0  0
  161.7180  204.9730  146.1610 C   0  0  0  0  0  2  0  0  0  0  0  0
  161.6870  205.9650  152.7920 C   0  0  0  0  0  3  0  0  0  0  0  0
  161.2470  205.1720  151.8440 C   0  0  0  0  0  0  0  0  0  0  0  0
  160.9090  203.1970  148.7060 C   0  0  0  0  0  0  0  0  0  0  0  0
  161.5500  206.5230  148.1050 C   0  0  0  0  0  0  0  0  0  0  0  0
  162.0090  206.2510  146.8780 C   0  0  0  0  0  3  0  0  0  0  0  0
  161.5280  210.9670  151.3370 O   0  0  0  0  0  0  0  0  0  0  0  0
  162.4750  203.8160  146.7960 C   0  0  0  0  0  2  0  0  0  0  0  0
  161.5660  210.2510  149.0460 C   0  0  1  0  0  3  0  0  0  0  0  0
  161.7210  210.0200  150.5330 C   0  0  0  0  0  0  0  0  0  0  0  0
  160.7830  204.3770  150.9110 C   0  0  0  0  0  3  0  0  0  0  0  0
  160.6220  207.6840  154.2510 C   0  0  0  0  0  0  0  0  0  0  0  0
  160.3880  206.7590  155.0800 O   0  0  0  0  0  0  0  0  0  0  0  0
  160.4160  209.0480  154.6070 N   0  0  0  0  0  2  0  0  0  0  0  0
  159.8620  209.4600  155.8890 C   0  0  0  0  0  2  0  0  0  0  0  0
  158.7270  211.3800  156.7670 O   0  0  0  0  0  0  0  0  0  0  0  0
  159.1420  210.7600  155.7420 C   0  0  0  0  0  0  0  0  0  0  0  0
  158.9210  211.2740  154.4600 O   0  0  0  0  0  0  0  0  0  0  0  0
  159.5180  212.4910  154.0290 C   0  0  0  0  0  1  0  0  0  0  0  0
  162.6300  211.1070  148.5470 N   0  0  0  0  0  2  0  0  0  0  0  0
  162.0510  212.4410  148.4350 C   0  0  0  0  0  2  0  0  0  0  0  0
  162.9710  212.9980  146.1910 C   0  0  0  0  0  3  0  0  0  0  0  0
  162.8150  213.3140  144.8370 C   0  0  0  0  0  3  0  0  0  0  0  0
  161.5360  213.4250  144.2860 C   0  0  0  0  0  3  0  0  0  0  0  0
  160.4070  213.2230  145.0910 C   0  0  0  0  0  3  0  0  0  0  0  0
  161.8460  212.7940  147.0010 C   0  0  0  0  0  0  0  0  0  0  0  0
  160.5560  212.9170  146.4500 C   0  0  0  0  0  0  0  0  0  0  0  0
  158.8520  213.9930  147.7840 N   0  0  0  0  0  1  0  0  0  0  0  0
  159.3310  212.7100  147.2820 C   0  0  0  0  0  2  0  0  0  0  0  0
  1  3  1  0  0  0  0
  2  4  1  0  0  0  0
  3 21  1  1  0  0  0
  4  7  2  0  0  0  0
  5  9  1  0  0  0  0
  6 14  1  0  0  0  0
  7  5  1  0  0  0  0
  8  2  2  0  0  0  0
  8 19  1  0  0  0  0
  9 22  1  1  0  0  0
 11 18  1  0  0  0  0
 11 16  1  0  0  0  0
 12  9  1  0  0  0  0
 13 12  2  0  0  0  0
 14 10  2  0  0  0  0
 14  3  1  0  0  0  0
 15  2  1  0  0  0  0
 15  1  1  0  0  0  0
 16 15  2  0  0  0  0
 18  6  1  0  0  0  0
 19 30  1  6  0  0  0
 19 20  1  0  0  0  0
 20  7  1  0  0  0  0
 20 17  2  0  0  0  0
 21 13  2  0  0  0  0
 22 24  1  0  0  0  0
 22 23  2  0  0  0  0
 24 25  1  0  0  0  0
 27 25  1  0  0  0  0
 27 26  2  0  0  0  0
 28 27  1  0  0  0  0
 29 28  1  0  0  0  0
 31 30  1  0  0  0  0
 32 36  1  0  0  0  0
 33 32  2  0  0  0  0
 34 33  1  0  0  0  0
 34 35  2  0  0  0  0
 35 37  1  0  0  0  0
 36 31  1  0  0  0  0
 37 36  2  0  0  0  0
 37 39  1  0  0  0  0
 39 38  1  0  0  0  0
M  END
>  <MODEL>
1

>  <REMARK>
 VINA RESULT:      -8.0      0.000      0.000
  Name = 
  8 active torsions:
  status: ('A' for Active; 'I' for Inactive)
    1  A    between atoms: N_3  and  C_8
    2  A    between atoms: N_3  and  C_30
    3  A    between atoms: C_8  and  C_35
    4  A    between atoms: C_10  and  C_31
    5  A    between atoms: C_10  and  N_37
    6  A    between atoms: O_15  and  C_31
    7  A    between atoms: C_17  and  C_23
    8  A    between atoms: C_27  and  C_39
                            x       y       z     vdW  Elec       q    Type
                         _______ _______ _______ _____ _____    ______ ____

>  <TORSDO>
F 8

$$$$
=
 OpenBabel11042421183D

 39 42  0  0  1  0  0  0  0  0999 V2000
  159.9780  210.0590  152.6270 N   0  0  0  0  0  2  0  0  0  0  0  0
  161.1940  208.3170  151.3730 C   0  0  0  0  0  0  0  0  0  0  0  0
  160.5850  211.3320  152.9920 C   0  0  2  0  0  3  0  0  0  0  0  0
  161.7650  209.3050  150.4590 C   0  0  0  0  0  3  0  0  0  0  0  0
  162.1870  210.2920  148.2890 C   0  0  0  0  0  2  0  0  0  0  0  0
  160.4770  211.1020  155.5350 N   0  0  0  0  0  2  0  0  0  0  0  0
  161.8400  209.1160  149.1470 C   0  0  0  0  0  0  0  0  0  0  0  0
  160.7940  207.1200  150.9170 C   0  0  0  0  0  3  0  0  0  0  0  0
  161.1590  211.4070  148.5180 C   0  0  1  0  0  3  0  0  0  0  0  0
  159.1940  212.6840  154.4180 O   0  0  0  0  0  0  0  0  0  0  0  0
  160.5150  208.6920  155.1330 C   0  0  0  0  0  2  0  0  0  0  0  0
  161.5780  212.3470  149.6140 C   0  0  0  0  0  3  0  0  0  0  0  0
  160.9630  212.3450  150.7730 C   0  0  0  0  0  0  0  0  0  0  0  0
  160.0570  211.7640  154.3370 C   0  0  0  0  0  0  0  0  0  0  0  0
  160.7160  208.8380  152.6540 C   0  0  0  0  0  0  0  0  0  0  0  0
  160.9630  208.1920  153.7990 C   0  0  0  0  0  3  0  0  0  0  0  0
  161.3740  207.6680  147.3250 O   0  0  0  0  0  0  0  0  0  0  0  0
  161.3200  209.9140  155.5470 C   0  0  0  0  0  2  0  0  0  0  0  0
  161.0200  206.6820  149.4840 C   0  0  1  0  0  3  0  0  0  0  0  0
  161.4020  207.8270  148.5720 C   0  0  0  0  0  0  0  0  0  0  0  0
  160.3280  212.3550  151.9190 C   0  0  0  0  0  3  0  0  0  0  0  0
  160.8240  212.1160  147.2480 C   0  0  0  0  0  0  0  0  0  0  0  0
  159.6690  212.0260  146.7410 O   0  0  0  0  0  0  0  0  0  0  0  0
  161.8130  212.9570  146.6590 N   0  0  0  0  0  2  0  0  0  0  0  0
  161.5960  213.6900  145.4200 C   0  0  0  0  0  2  0  0  0  0  0  0
  163.6270  213.1010  144.2910 O   0  0  0  0  0  0  0  0  0  0  0  0
  162.3610  213.0510  144.3070 C   0  0  0  0  0  0  0  0  0  0  0  0
  161.6590  212.4130  143.2790 O   0  0  0  0  0  0  0  0  0  0  0  0
  160.2800  212.0880  143.4050 C   0  0  0  0  0  1  0  0  0  0  0  0
  162.0220  205.6300  149.4320 N   0  0  0  0  0  2  0  0  0  0  0  0
  161.2940  204.3760  149.5920 C   0  0  0  0  0  2  0  0  0  0  0  0
  161.6580  204.3120  147.1320 C   0  0  0  0  0  3  0  0  0  0  0  0
  161.6080  203.6640  145.8930 C   0  0  0  0  0  3  0  0  0  0  0  0
  161.1100  202.3620  145.8040 C   0  0  0  0  0  3  0  0  0  0  0  0
  160.6560  201.7050  146.9560 C   0  0  0  0  0  3  0  0  0  0  0  0
  161.2080  203.6610  148.2880 C   0  0  0  0  0  0  0  0  0  0  0  0
  160.6950  202.3520  148.1970 C   0  0  0  0  0  0  0  0  0  0  0  0
  161.3220  201.0070  150.1060 N   0  0  0  0  0  1  0  0  0  0  0  0
  160.2010  201.6240  149.4070 C   0  0  0  0  0  2  0  0  0  0  0  0
  1 15  1  0  0  0  0
  1  3  1  0  0  0  0
  2 15  1  0  0  0  0
  3 21  1  6  0  0  0
  3 14  1  0  0  0  0
  4  2  1  0  0  0  0
  5  9  1  0  0  0  0
  5  7  1  0  0  0  0
  6 18  1  0  0  0  0
  7  4  2  0  0  0  0
  8  2  2  0  0  0  0
  9 22  1  6  0  0  0
  9 12  1  0  0  0  0
 11 18  1  0  0  0  0
 12 13  2  0  0  0  0
 13 21  2  0  0  0  0
 14 10  2  0  0  0  0
 14  6  1  0  0  0  0
 15 16  2  0  0  0  0
 16 11  1  0  0  0  0
 17 20  2  0  0  0  0
 19 30  1  1  0  0  0
 19  8  1  0  0  0  0
 20  7  1  0  0  0  0
 20 19  1  0  0  0  0
 23 22  2  0  0  0  0
 24 22  1  0  0  0  0
 25 24  1  0  0  0  0
 26 27  2  0  0  0  0
 27 25  1  0  0  0  0
 28 29  1  0  0  0  0
 28 27  1  0  0  0  0
 30 31  1  0  0  0  0
 32 36  1  0  0  0  0
 33 32  2  0  0  0  0
 34 33  1  0  0  0  0
 34 35  2  0  0  0  0
 35 37  1  0  0  0  0
 36 31  1  0  0  0  0
 37 36  2  0  0  0  0
 37 39  1  0  0  0  0
 39 38  1  0  0  0  0
M  END
>  <MODEL>
2

>  <REMARK>
 VINA RESULT:      -7.8      2.638      8.849
  Name = 
  8 active torsions:
  status: ('A' for Active; 'I' for Inactive)
    1  A    between atoms: N_3  and  C_8
    2  A    between atoms: N_3  and  C_30
    3  A    between atoms: C_8  and  C_35
    4  A    between atoms: C_10  and  C_31
    5  A    between atoms: C_10  and  N_37
    6  A    between atoms: O_15  and  C_31
    7  A    between atoms: C_17  and  C_23
    8  A    between atoms: C_27  and  C_39
                            x       y       z     vdW  Elec       q    Type
                         _______ _______ _______ _____ _____    ______ ____

>  <TORSDO>
F 8

$$$$
=
 OpenBabel11042421183D

 39 42  0  0  1  0  0  0  0  0999 V2000
  160.0410  209.7890  152.6110 N   0  0  0  0  0  2  0  0  0  0  0  0
  161.1960  208.1320  151.1950 C   0  0  0  0  0  0  0  0  0  0  0  0
  160.6770  211.0200  153.0590 C   0  0  2  0  0  3  0  0  0  0  0  0
  161.7620  209.1810  150.3470 C   0  0  0  0  0  3  0  0  0  0  0  0
  162.1500  210.3290  148.2510 C   0  0  0  0  0  2  0  0  0  0  0  0
  160.6260  210.5920  155.5790 N   0  0  0  0  0  2  0  0  0  0  0  0
  161.8030  209.0940  149.0220 C   0  0  0  0  0  0  0  0  0  0  0  0
  160.7650  206.9810  150.6560 C   0  0  0  0  0  3  0  0  0  0  0  0
  161.1470  211.4380  148.5920 C   0  0  1  0  0  3  0  0  0  0  0  0
  159.3440  212.2760  154.6220 O   0  0  0  0  0  0  0  0  0  0  0  0
  160.6130  208.2210  154.9880 C   0  0  0  0  0  2  0  0  0  0  0  0
  161.6080  212.2820  149.7480 C   0  0  0  0  0  3  0  0  0  0  0  0
  161.0200  212.1980  150.9180 C   0  0  0  0  0  0  0  0  0  0  0  0
  160.1890  211.3530  154.4470 C   0  0  0  0  0  0  0  0  0  0  0  0
  160.7580  208.5580  152.5230 C   0  0  0  0  0  0  0  0  0  0  0  0
  161.0210  207.8200  153.6080 C   0  0  0  0  0  3  0  0  0  0  0  0
  161.2700  207.8020  147.1050 O   0  0  0  0  0  0  0  0  0  0  0  0
  161.4480  209.3940  155.4760 C   0  0  0  0  0  2  0  0  0  0  0  0
  160.9500  206.6540  149.1880 C   0  0  1  0  0  3  0  0  0  0  0  0
  161.3300  207.8610  148.3600 C   0  0  0  0  0  0  0  0  0  0  0  0
  160.4130  212.1280  152.0770 C   0  0  0  0  0  3  0  0  0  0  0  0
  160.7940  212.2500  147.3910 C   0  0  0  0  0  0  0  0  0  0  0  0
  159.5910  212.3670  147.0180 O   0  0  0  0  0  0  0  0  0  0  0  0
  161.8350  212.9500  146.7150 N   0  0  0  0  0  2  0  0  0  0  0  0
  161.6060  213.7650  145.5310 C   0  0  0  0  0  2  0  0  0  0  0  0
  163.5010  213.0340  144.2590 O   0  0  0  0  0  0  0  0  0  0  0  0
  162.2400  213.1270  144.3390 C   0  0  0  0  0  0  0  0  0  0  0  0
  161.4230  212.6480  143.3090 O   0  0  0  0  0  0  0  0  0  0  0  0
  160.1680  212.0340  143.5750 C   0  0  0  0  0  1  0  0  0  0  0  0
  161.9320  205.5940  149.0290 N   0  0  0  0  0  2  0  0  0  0  0  0
  161.4170  204.7250  147.9770 C   0  0  0  0  0  2  0  0  0  0  0  0
  161.1020  203.1600  149.8850 C   0  0  0  0  0  3  0  0  0  0  0  0
  160.8960  201.8800  150.4110 C   0  0  0  0  0  3  0  0  0  0  0  0
  160.8040  200.7790  149.5570 C   0  0  0  0  0  3  0  0  0  0  0  0
  160.9210  200.9560  148.1710 C   0  0  0  0  0  3  0  0  0  0  0  0
  161.2170  203.3450  148.5010 C   0  0  0  0  0  0  0  0  0  0  0  0
  161.1360  202.2340  147.6400 C   0  0  0  0  0  0  0  0  0  0  0  0
  160.2840  201.5340  145.4880 N   0  0  0  0  0  1  0  0  0  0  0  0
  161.2580  202.3880  146.1570 C   0  0  0  0  0  2  0  0  0  0  0  0
  1  3  1  0  0  0  0
  2 15  1  0  0  0  0
  3 21  1  6  0  0  0
  3 14  1  0  0  0  0
  4  2  1  0  0  0  0
  5  9  1  0  0  0  0
  5  7  1  0  0  0  0
  7  4  2  0  0  0  0
  8  2  2  0  0  0  0
  9 22  1  6  0  0  0
  9 12  1  0  0  0  0
 11 18  1  0  0  0  0
 12 13  2  0  0  0  0
 13 21  2  0  0  0  0
 14 10  2  0  0  0  0
 14  6  1  0  0  0  0
 15  1  1  0  0  0  0
 15 16  2  0  0  0  0
 16 11  1  0  0  0  0
 17 20  2  0  0  0  0
 18  6  1  0  0  0  0
 19 30  1  1  0  0  0
 19  8  1  0  0  0  0
 20  7  1  0  0  0  0
 20 19  1  0  0  0  0
 23 22  2  0  0  0  0
 24 22  1  0  0  0  0
 25 24  1  0  0  0  0
 26 27  2  0  0  0  0
 27 25  1  0  0  0  0
 28 29  1  0  0  0  0
 28 27  1  0  0  0  0
 31 36  1  0  0  0  0
 31 30  1  0  0  0  0
 32 33  1  0  0  0  0
 34 33  2  0  0  0  0
 35 34  1  0  0  0  0
 36 32  2  0  0  0  0
 37 35  2  0  0  0  0
 37 36  1  0  0  0  0
 38 39  1  0  0  0  0
 39 37  1  0  0  0  0
M  END
>  <MODEL>
3

>  <REMARK>
 VINA RESULT:      -7.7      2.641      8.986
  Name = 
  8 active torsions:
  status: ('A' for Active; 'I' for Inactive)
    1  A    between atoms: N_3  and  C_8
    2  A    between atoms: N_3  and  C_30
    3  A    between atoms: C_8  and  C_35
    4  A    between atoms: C_10  and  C_31
    5  A    between atoms: C_10  and  N_37
    6  A    between atoms: O_15  and  C_31
    7  A    between atoms: C_17  and  C_23
    8  A    between atoms: C_27  and  C_39
                            x       y       z     vdW  Elec       q    Type
                         _______ _______ _______ _____ _____    ______ ____

>  <TORSDO>
F 8

$$$$
=
 OpenBabel11042421183D

 39 42  0  0  1  0  0  0  0  0999 V2000
  159.1390  211.6810  152.5040 N   0  0  0  0  0  2  0  0  0  0  0  0
  160.8860  210.0330  151.9380 C   0  0  0  0  0  0  0  0  0  0  0  0
  159.4210  213.1000  152.6700 C   0  0  2  0  0  3  0  0  0  0  0  0
  161.4750  210.9290  150.9430 C   0  0  0  0  0  3  0  0  0  0  0  0
  162.2090  211.5500  148.7220 C   0  0  0  0  0  2  0  0  0  0  0  0
  158.7750  213.3420  155.1310 N   0  0  0  0  0  2  0  0  0  0  0  0
  161.8800  210.5130  149.7490 C   0  0  0  0  0  0  0  0  0  0  0  0
  160.8100  208.7140  151.7060 C   0  0  0  0  0  3  0  0  0  0  0  0
  160.9820  212.4420  148.4890 C   0  0  1  0  0  3  0  0  0  0  0  0
  157.5330  214.3690  153.4580 O   0  0  0  0  0  0  0  0  0  0  0  0
  159.3110  210.9650  155.3140 C   0  0  0  0  0  2  0  0  0  0  0  0
  160.9740  213.6410  149.3960 C   0  0  0  0  0  3  0  0  0  0  0  0
  160.1200  213.7280  150.3880 C   0  0  0  0  0  0  0  0  0  0  0  0
  158.5350  213.6570  153.7550 C   0  0  0  0  0  0  0  0  0  0  0  0
  160.0470  210.6740  152.9510 C   0  0  0  0  0  0  0  0  0  0  0  0
  160.1310  210.3270  154.2400 C   0  0  0  0  0  3  0  0  0  0  0  0
  162.0950  208.6790  148.2590 O   0  0  0  0  0  0  0  0  0  0  0  0
  159.7810  212.3870  155.5750 C   0  0  0  0  0  2  0  0  0  0  0  0
  161.4290  208.0700  150.4820 C   0  0  1  0  0  3  0  0  0  0  0  0
  161.8100  209.0740  149.4170 C   0  0  0  0  0  0  0  0  0  0  0  0
  159.2470  213.8200  151.3610 C   0  0  0  0  0  3  0  0  0  0  0  0
  160.8310  212.8060  147.0500 C   0  0  0  0  0  0  0  0  0  0  0  0
  159.8860  212.3320  146.3570 O   0  0  0  0  0  0  0  0  0  0  0  0
  161.7340  213.7580  146.4930 N   0  0  0  0  0  2  0  0  0  0  0  0
  161.6830  214.1820  145.1010 C   0  0  0  0  0  2  0  0  0  0  0  0
  163.7180  213.1730  144.3390 O   0  0  0  0  0  0  0  0  0  0  0  0
  162.4560  213.2310  144.2470 C   0  0  0  0  0  0  0  0  0  0  0  0
  161.7680  212.4200  143.3390 O   0  0  0  0  0  0  0  0  0  0  0  0
  162.1680  212.3130  141.9790 C   0  0  0  0  0  1  0  0  0  0  0  0
  162.5790  207.2680  150.8640 N   0  0  0  0  0  2  0  0  0  0  0  0
  162.0390  206.0150  151.3810 C   0  0  0  0  0  2  0  0  0  0  0  0
  161.8330  205.5690  148.9420 C   0  0  0  0  0  3  0  0  0  0  0  0
  161.4890  204.7500  147.8620 C   0  0  0  0  0  3  0  0  0  0  0  0
  160.9580  203.4790  148.0890 C   0  0  0  0  0  3  0  0  0  0  0  0
  160.7650  203.0240  149.4000 C   0  0  0  0  0  3  0  0  0  0  0  0
  161.6440  205.1210  150.2560 C   0  0  0  0  0  0  0  0  0  0  0  0
  161.0980  203.8440  150.4860 C   0  0  0  0  0  0  0  0  0  0  0  0
  161.6820  202.1340  152.0920 N   0  0  0  0  0  1  0  0  0  0  0  0
  160.8770  203.3300  151.8730 C   0  0  0  0  0  2  0  0  0  0  0  0
  1  3  1  0  0  0  0
  1 15  1  0  0  0  0
  2 15  1  0  0  0  0
  3 21  1  6  0  0  0
  3 14  1  0  0  0  0
  4  2  1  0  0  0  0
  5  7  1  0  0  0  0
  6 18  1  0  0  0  0
  7  4  2  0  0  0  0
  8  2  2  0  0  0  0
  9 22  1  6  0  0  0
  9  5  1  0  0  0  0
  9 12  1  0  0  0  0
 10 14  2  0  0  0  0
 11 18  1  0  0  0  0
 12 13  2  0  0  0  0
 13 21  2  0  0  0  0
 14  6  1  0  0  0  0
 15 16  2  0  0  0  0
 16 11  1  0  0  0  0
 17 20  2  0  0  0  0
 19 30  1  1  0  0  0
 19  8  1  0  0  0  0
 20  7  1  0  0  0  0
 20 19  1  0  0  0  0
 23 22  2  0  0  0  0
 24 22  1  0  0  0  0
 25 24  1  0  0  0  0
 27 26  2  0  0  0  0
 27 25  1  0  0  0  0
 28 27  1  0  0  0  0
 29 28  1  0  0  0  0
 30 31  1  0  0  0  0
 32 36  1  0  0  0  0
 33 34  1  0  0  0  0
 33 32  2  0  0  0  0
 34 35  2  0  0  0  0
 35 37  1  0  0  0  0
 36 37  2  0  0  0  0
 36 31  1  0  0  0  0
 37 39  1  0  0  0  0
 39 38  1  0  0  0  0
M  END
>  <MODEL>
4

>  <REMARK>
 VINA RESULT:      -7.7      2.895      9.254
  Name = 
  8 active torsions:
  status: ('A' for Active; 'I' for Inactive)
    1  A    between atoms: N_3  and  C_8
    2  A    between atoms: N_3  and  C_30
    3  A    between atoms: C_8  and  C_35
    4  A    between atoms: C_10  and  C_31
    5  A    between atoms: C_10  and  N_37
    6  A    between atoms: O_15  and  C_31
    7  A    between atoms: C_17  and  C_23
    8  A    between atoms: C_27  and  C_39
                            x       y       z     vdW  Elec       q    Type
                         _______ _______ _______ _____ _____    ______ ____

>  <TORSDO>
F 8

$$$$
=
 OpenBabel11042421183D

 39 42  0  0  1  0  0  0  0  0999 V2000
  161.8540  208.6800  153.9250 N   0  0  0  0  0  2  0  0  0  0  0  0
  161.3860  209.3130  151.5870 C   0  0  0  0  0  0  0  0  0  0  0  0
  160.8870  207.9780  154.7580 C   0  0  2  0  0  3  0  0  0  0  0  0
  160.7730  208.0150  151.3080 C   0  0  0  0  0  3  0  0  0  0  0  0
  160.5470  205.9090  150.1350 C   0  0  0  0  0  2  0  0  0  0  0  0
  160.5500  209.7620  156.5570 N   0  0  0  0  0  2  0  0  0  0  0  0
  161.0050  207.3320  150.1920 C   0  0  0  0  0  0  0  0  0  0  0  0
  162.1560  209.9130  150.6670 C   0  0  0  0  0  3  0  0  0  0  0  0
  161.1950  205.1210  151.2810 C   0  0  1  0  0  3  0  0  0  0  0  0
  161.5850  207.7420  157.0500 O   0  0  0  0  0  0  0  0  0  0  0  0
  161.2020  211.3630  154.8280 C   0  0  0  0  0  2  0  0  0  0  0  0
  160.3470  205.1260  152.5220 C   0  0  0  0  0  3  0  0  0  0  0  0
  160.7040  205.8180  153.5770 C   0  0  0  0  0  0  0  0  0  0  0  0
  161.0150  208.4610  156.1800 C   0  0  0  0  0  0  0  0  0  0  0  0
  161.4570  209.6910  152.9980 C   0  0  0  0  0  0  0  0  0  0  0  0
  161.1630  210.9330  153.3980 C   0  0  0  0  0  3  0  0  0  0  0  0
  162.1670  207.2530  148.1250 O   0  0  0  0  0  0  0  0  0  0  0  0
  160.0500  210.7460  155.6060 C   0  0  0  0  0  2  0  0  0  0  0  0
  162.3310  209.3570  149.2690 C   0  0  1  0  0  3  0  0  0  0  0  0
  161.8580  207.9260  149.1410 C   0  0  0  0  0  0  0  0  0  0  0  0
  161.0800  206.4910  154.6370 C   0  0  0  0  0  3  0  0  0  0  0  0
  161.5810  203.7440  150.8530 C   0  0  0  0  0  0  0  0  0  0  0  0
  162.2200  202.9790  151.6300 O   0  0  0  0  0  0  0  0  0  0  0  0
  161.1500  203.2860  149.5740 N   0  0  0  0  0  2  0  0  0  0  0  0
  161.4740  201.9650  149.0530 C   0  0  0  0  0  2  0  0  0  0  0  0
  161.2030  200.8030  146.9750 O   0  0  0  0  0  0  0  0  0  0  0  0
  161.2060  201.9140  147.5850 C   0  0  0  0  0  0  0  0  0  0  0  0
  160.9740  203.1080  146.8940 O   0  0  0  0  0  0  0  0  0  0  0  0
  161.5810  203.3750  145.6360 C   0  0  0  0  0  1  0  0  0  0  0  0
  161.6570  210.2060  148.3010 N   0  0  0  0  0  2  0  0  0  0  0  0
  161.9600  211.5790  148.6930 C   0  0  0  0  0  2  0  0  0  0  0  0
  161.0840  212.5830  146.5920 C   0  0  0  0  0  3  0  0  0  0  0  0
  160.2320  213.4500  145.9010 C   0  0  0  0  0  3  0  0  0  0  0  0
  159.3400  214.2630  146.6030 C   0  0  0  0  0  3  0  0  0  0  0  0
  159.3010  214.2140  148.0040 C   0  0  0  0  0  3  0  0  0  0  0  0
  161.0500  212.5270  147.9920 C   0  0  0  0  0  0  0  0  0  0  0  0
  160.1600  213.3550  148.7020 C   0  0  0  0  0  0  0  0  0  0  0  0
  158.7590  213.7070  150.6410 N   0  0  0  0  0  1  0  0  0  0  0  0
  160.0950  213.3290  150.1960 C   0  0  0  0  0  2  0  0  0  0  0  0
  1  3  1  0  0  0  0
  2 15  1  0  0  0  0
  3 21  1  1  0  0  0
  3 14  1  0  0  0  0
  4  2  1  0  0  0  0
  5  7  1  0  0  0  0
  5  9  1  0  0  0  0
  7  4  2  0  0  0  0
  8  2  2  0  0  0  0
  9 22  1  6  0  0  0
  9 12  1  0  0  0  0
 11 18  1  0  0  0  0
 12 13  2  0  0  0  0
 13 21  2  0  0  0  0
 14  6  1  0  0  0  0
 14 10  2  0  0  0  0
 15 16  2  0  0  0  0
 15  1  1  0  0  0  0
 16 11  1  0  0  0  0
 17 20  2  0  0  0  0
 18  6  1  0  0  0  0
 19 30  1  6  0  0  0
 19  8  1  0  0  0  0
 20 19  1  0  0  0  0
 20  7  1  0  0  0  0
 22 23  2  0  0  0  0
 24 22  1  0  0  0  0
 25 24  1  0  0  0  0
 26 27  2  0  0  0  0
 27 25  1  0  0  0  0
 28 27  1  0  0  0  0
 29 28  1  0  0  0  0
 30 31  1  0  0  0  0
 32 36  1  0  0  0  0
 33 32  2  0  0  0  0
 33 34  1  0  0  0  0
 34 35  2  0  0  0  0
 35 37  1  0  0  0  0
 36 31  1  0  0  0  0
 36 37  2  0  0  0  0
 37 39  1  0  0  0  0
 39 38  1  0  0  0  0
M  END
>  <MODEL>
5

>  <REMARK>
 VINA RESULT:      -7.2      2.099      6.734
  Name = 
  8 active torsions:
  status: ('A' for Active; 'I' for Inactive)
    1  A    between atoms: N_3  and  C_8
    2  A    between atoms: N_3  and  C_30
    3  A    between atoms: C_8  and  C_35
    4  A    between atoms: C_10  and  C_31
    5  A    between atoms: C_10  and  N_37
    6  A    between atoms: O_15  and  C_31
    7  A    between atoms: C_17  and  C_23
    8  A    between atoms: C_27  and  C_39
                            x       y       z     vdW  Elec       q    Type
                         _______ _______ _______ _____ _____    ______ ____

>  <TORSDO>
F 8

$$$$
=
 OpenBabel11042421183D

 39 42  0  0  1  0  0  0  0  0999 V2000
  161.9070  204.1790  149.6860 N   0  0  0  0  0  2  0  0  0  0  0  0
  161.0700  205.3620  151.6830 C   0  0  0  0  0  0  0  0  0  0  0  0
  161.2120  204.2090  148.4060 C   0  0  2  0  0  3  0  0  0  0  0  0
  160.7360  206.5490  150.8980 C   0  0  0  0  0  3  0  0  0  0  0  0
  160.8650  208.8970  150.3200 C   0  0  0  0  0  2  0  0  0  0  0  0
  160.6750  201.7180  148.1940 N   0  0  0  0  0  2  0  0  0  0  0  0
  160.9980  207.7840  151.3120 C   0  0  0  0  0  0  0  0  0  0  0  0
  161.5870  205.4840  152.9150 C   0  0  0  0  0  3  0  0  0  0  0  0
  161.7870  208.6240  149.1250 C   0  0  1  0  0  3  0  0  0  0  0  0
  162.1790  202.7480  146.7550 O   0  0  0  0  0  0  0  0  0  0  0  0
  160.7700  201.6800  150.6360 C   0  0  0  0  0  2  0  0  0  0  0  0
  161.0930  207.8520  148.0380 C   0  0  0  0  0  3  0  0  0  0  0  0
  161.3940  206.5960  147.8090 C   0  0  0  0  0  0  0  0  0  0  0  0
  161.3760  202.8740  147.7230 C   0  0  0  0  0  0  0  0  0  0  0  0
  161.2010  204.1170  150.9260 C   0  0  0  0  0  0  0  0  0  0  0  0
  160.6800  202.9720  151.3810 C   0  0  0  0  0  3  0  0  0  0  0  0
  161.9280  209.1460  153.0180 O   0  0  0  0  0  0  0  0  0  0  0  0
  159.8720  201.7030  149.4090 C   0  0  0  0  0  2  0  0  0  0  0  0
  161.7360  206.8260  153.6020 C   0  0  1  0  0  3  0  0  0  0  0  0
  161.5830  207.9930  152.6520 C   0  0  0  0  0  0  0  0  0  0  0  0
  161.7190  205.3500  147.5680 C   0  0  0  0  0  3  0  0  0  0  0  0
  162.4240  209.8780  148.6240 C   0  0  0  0  0  0  0  0  0  0  0  0
  163.4610  209.8340  147.9000 O   0  0  0  0  0  0  0  0  0  0  0  0
  161.7960  211.1220  148.9190 N   0  0  0  0  0  2  0  0  0  0  0  0
  162.3330  212.4050  148.4860 C   0  0  0  0  0  2  0  0  0  0  0  0
  162.5680  213.1630  146.2250 O   0  0  0  0  0  0  0  0  0  0  0  0
  161.7900  212.7600  147.1410 C   0  0  0  0  0  0  0  0  0  0  0  0
  160.4140  212.6550  146.9140 O   0  0  0  0  0  0  0  0  0  0  0  0
  159.8810  212.5060  145.6040 C   0  0  0  0  0  1  0  0  0  0  0  0
  160.7940  206.9340  154.7030 N   0  0  0  0  0  2  0  0  0  0  0  0
  161.4910  207.6640  155.7560 C   0  0  0  0  0  2  0  0  0  0  0  0
  159.5220  209.1690  155.5330 C   0  0  0  0  0  3  0  0  0  0  0  0
  158.8660  210.3840  155.7550 C   0  0  0  0  0  3  0  0  0  0  0  0
  159.5130  211.4140  156.4410 C   0  0  0  0  0  3  0  0  0  0  0  0
  160.8240  211.2320  156.9040 C   0  0  0  0  0  3  0  0  0  0  0  0
  160.8310  208.9790  155.9950 C   0  0  0  0  0  0  0  0  0  0  0  0
  161.4890  210.0200  156.6770 C   0  0  0  0  0  0  0  0  0  0  0  0
  163.6690  211.0480  156.8650 N   0  0  0  0  0  1  0  0  0  0  0  0
  162.8870  209.8590  157.1820 C   0  0  0  0  0  2  0  0  0  0  0  0
  1 15  1  0  0  0  0
  2  8  2  0  0  0  0
  3 21  1  6  0  0  0
  3  1  1  0  0  0  0
  4  7  2  0  0  0  0
  4  2  1  0  0  0  0
  5  7  1  0  0  0  0
  6 18  1  0  0  0  0
  7 20  1  0  0  0  0
  8 19  1  0  0  0  0
  9 22  1  6  0  0  0
  9  5  1  0  0  0  0
 10 14  2  0  0  0  0
 11 16  1  0  0  0  0
 12  9  1  0  0  0  0
 13 12  2  0  0  0  0
 14  6  1  0  0  0  0
 14  3  1  0  0  0  0
 15 16  2  0  0  0  0
 15  2  1  0  0  0  0
 18 11  1  0  0  0  0
 19 30  1  1  0  0  0
 20 17  2  0  0  0  0
 20 19  1  0  0  0  0
 21 13  2  0  0  0  0
 22 24  1  0  0  0  0
 23 22  2  0  0  0  0
 25 24  1  0  0  0  0
 26 27  2  0  0  0  0
 27 25  1  0  0  0  0
 28 27  1  0  0  0  0
 29 28  1  0  0  0  0
 30 31  1  0  0  0  0
 31 36  1  0  0  0  0
 32 33  2  0  0  0  0
 32 36  1  0  0  0  0
 33 34  1  0  0  0  0
 34 35  2  0  0  0  0
 36 37  2  0  0  0  0
 37 35  1  0  0  0  0
 37 39  1  0  0  0  0
 38 39  1  0  0  0  0
M  END
>  <MODEL>
6

>  <REMARK>
 VINA RESULT:      -5.7      2.124      7.161
  Name = 
  8 active torsions:
  status: ('A' for Active; 'I' for Inactive)
    1  A    between atoms: N_3  and  C_8
    2  A    between atoms: N_3  and  C_30
    3  A    between atoms: C_8  and  C_35
    4  A    between atoms: C_10  and  C_31
    5  A    between atoms: C_10  and  N_37
    6  A    between atoms: O_15  and  C_31
    7  A    between atoms: C_17  and  C_23
    8  A    between atoms: C_27  and  C_39
                            x       y       z     vdW  Elec       q    Type
                         _______ _______ _______ _____ _____    ______ ____

>  <TORSDO>
F 8

$$$$
