=
 OpenBabel11042421193D

 39 40  0  0  1  0  0  0  0  0999 V2000
  161.1040  209.0560  155.5220 C   0  0  1  0  0  3  0  0  0  0  0  0
  161.4820  208.3210  156.7970 C   0  0  0  0  0  1  0  0  0  0  0  0
  160.3740  207.1830  154.1730 O   0  0  0  0  0  1  0  0  0  0  0  0
  161.3670  208.1610  154.3120 C   0  0  1  0  0  3  0  0  0  0  0  0
  161.5190  208.9570  153.0210 C   0  0  0  0  0  2  0  0  0  0  0  0
  161.4540  207.4050  151.0340 C   0  0  0  0  0  0  0  0  0  0  0  0
  160.7220  206.8710  149.9260 N   0  0  0  0  0  2  0  0  0  0  0  0
  162.6670  207.1010  151.2090 O   0  0  0  0  0  0  0  0  0  0  0  0
  160.8090  208.3180  151.9230 N   0  0  0  0  0  2  0  0  0  0  0  0
  160.9810  204.4470  149.5150 C   0  0  0  0  0  0  0  0  0  0  0  0
  161.0960  205.7170  149.1600 C   0  0  1  0  0  3  0  0  0  0  0  0
  160.4950  203.8880  150.7010 C   0  0  0  0  0  3  0  0  0  0  0  0
  161.3890  203.6580  148.4680 C   0  0  0  0  0  0  0  0  0  0  0  0
  160.4580  202.4870  150.8080 C   0  0  0  0  0  3  0  0  0  0  0  0
  161.6120  205.7580  147.7500 C   0  0  1  0  0  3  0  0  0  0  0  0
  160.8940  201.6810  149.7370 C   0  0  0  0  0  3  0  0  0  0  0  0
  161.3630  202.2660  148.5500 C   0  0  0  0  0  3  0  0  0  0  0  0
  161.7630  204.3360  147.4340 N   0  0  0  0  0  2  0  0  0  0  0  0
  160.6220  206.3790  146.8160 C   0  0  0  0  0  3  0  0  0  0  0  0
  160.6480  205.8500  144.3270 O   0  0  0  0  0  0  0  0  0  0  0  0
  160.6390  206.1070  145.5400 C   0  0  0  0  0  0  0  0  0  0  0  0
  159.7010  209.4520  155.5780 N   0  0  0  0  0  2  0  0  0  0  0  0
  159.6490  210.8790  155.8680 C   0  0  1  0  0  3  0  0  0  0  0  0
  160.7740  211.5060  155.3260 O   0  0  0  0  0  1  0  0  0  0  0  0
  158.3820  211.4850  155.2680 C   0  0  2  0  0  3  0  0  0  0  0  0
  158.9510  213.8330  155.0070 O   0  0  0  0  0  1  0  0  0  0  0  0
  158.6570  211.3480  152.4760 O   0  0  0  0  0  0  0  0  0  0  0  0
  158.7070  212.6340  154.4270 N   0  0  0  0  0  0  0  0  0  0  0  0
  158.7210  212.4950  152.9960 C   0  0  0  0  0  0  0  0  0  0  0  0
  158.8050  213.6870  152.0880 C   0  0  1  0  0  3  0  0  0  0  0  0
  159.9630  213.6540  151.3070 O   0  0  0  0  0  1  0  0  0  0  0  0
  157.5580  213.8510  151.2210 C   0  0  0  0  0  2  0  0  0  0  0  0
  157.6890  213.1730  150.0060 O   0  0  0  0  0  0  0  0  0  0  0  0
  156.9880  213.4770  147.7570 C   0  0  0  0  0  1  0  0  0  0  0  0
  156.6320  213.6370  149.2190 C   0  0  0  0  0  2  0  0  0  0  0  0
  157.4690  211.8970  156.3290 N   0  0  0  0  0  2  0  0  0  0  0  0
  156.1690  212.1270  155.7170 C   0  0  0  0  0  2  0  0  0  0  0  0
  155.6800  210.8570  155.0440 C   0  0  0  0  0  2  0  0  0  0  0  0
  154.8280  210.1620  155.9030 O   0  0  0  0  0  1  0  0  0  0  0  0
  1 22  1  0  0  0  0
  1  2  1  1  0  0  0
  4  3  1  6  0  0  0
  4  1  1  0  0  0  0
  5  4  1  0  0  0  0
  6  8  2  0  0  0  0
  6  9  1  0  0  0  0
  7  6  1  0  0  0  0
  9  5  1  0  0  0  0
 10 12  1  0  0  0  0
 11 10  1  0  0  0  0
 11  7  1  6  0  0  0
 12 14  2  0  0  0  0
 13 17  1  0  0  0  0
 13 10  2  0  0  0  0
 15 19  1  6  0  0  0
 15 11  1  0  0  0  0
 16 14  1  0  0  0  0
 17 16  2  0  0  0  0
 18 15  1  0  0  0  0
 18 13  1  0  0  0  0
 20 21  2  0  0  0  0
 21 19  2  0  0  0  0
 22 23  1  0  0  0  0
 23 24  1  6  0  0  0
 25 23  1  0  0  0  0
 25 36  1  1  0  0  0
 27 29  2  0  0  0  0
 28 26  1  0  0  0  0
 28 25  1  0  0  0  0
 29 28  1  0  0  0  0
 30 31  1  6  0  0  0
 30 29  1  0  0  0  0
 32 30  1  0  0  0  0
 33 32  1  0  0  0  0
 34 35  1  0  0  0  0
 35 33  1  0  0  0  0
 37 36  1  0  0  0  0
 38 37  1  0  0  0  0
 38 39  1  0  0  0  0
M  END
>  <MODEL>
1

>  <REMARK>
 VINA RESULT:      -7.0      0.000      0.000
  Name = 
  16 active torsions:
  status: ('A' for Active; 'I' for Inactive)
    1  A    between atoms: C_1  and  C_19
    2  A    between atoms: C_1  and  N_35
    3  A    between atoms: C_3  and  C_25
    4  A    between atoms: C_4  and  N_14
    5  A    between atoms: C_11  and  O_32
    6  A    between atoms: N_13  and  C_23
    7  A    between atoms: N_13  and  C_27
    8  A    between atoms: C_15  and  C_19
    9  A    between atoms: C_15  and  N_34
   10  A    between atoms: N_18  and  C_27
   11  A    between atoms: C_22  and  C_27
   12  A    between atoms: C_22  and  N_34
   13  A    between atoms: C_23  and  C_24
   14  A    between atoms: C_26  and  C_28
   15  A    between atoms: C_26  and  C_38
   16  A    between atoms: C_28  and  O_32
                            x       y       z     vdW  Elec       q    Type
                         _______ _______ _______ _____ _____    ______ ____

>  <TORSDO>
F 16

$$$$
=
 OpenBabel11042421193D

 39 40  0  0  1  0  0  0  0  0999 V2000
  161.2480  211.1250  153.4690 C   0  0  1  0  0  3  0  0  0  0  0  0
  161.8780  210.3970  154.6450 C   0  0  0  0  0  1  0  0  0  0  0  0
  161.6900  210.5400  151.1630 O   0  0  0  0  0  1  0  0  0  0  0  0
  161.0100  210.1450  152.3220 C   0  0  1  0  0  3  0  0  0  0  0  0
  161.3750  208.7120  152.6940 C   0  0  0  0  0  2  0  0  0  0  0  0
  161.3010  207.0850  150.7700 C   0  0  0  0  0  0  0  0  0  0  0  0
  160.5280  206.2140  149.9370 N   0  0  0  0  0  2  0  0  0  0  0  0
  162.5230  207.2860  150.5290 O   0  0  0  0  0  0  0  0  0  0  0  0
  160.6650  207.7550  151.8590 N   0  0  0  0  0  2  0  0  0  0  0  0
  160.9810  203.9130  149.1570 C   0  0  0  0  0  0  0  0  0  0  0  0
  161.0610  205.2290  149.0400 C   0  0  1  0  0  3  0  0  0  0  0  0
  160.3900  203.1360  150.1570 C   0  0  0  0  0  3  0  0  0  0  0  0
  161.5600  203.3370  148.0530 C   0  0  0  0  0  0  0  0  0  0  0  0
  160.4250  201.7380  150.0190 C   0  0  0  0  0  3  0  0  0  0  0  0
  161.7420  205.5380  147.7380 C   0  0  1  0  0  3  0  0  0  0  0  0
  161.0360  201.1490  148.8930 C   0  0  0  0  0  3  0  0  0  0  0  0
  161.6100  201.9520  147.8940 C   0  0  0  0  0  3  0  0  0  0  0  0
  162.0150  204.2000  147.2070 N   0  0  0  0  0  2  0  0  0  0  0  0
  160.8370  206.2750  146.8010 C   0  0  0  0  0  3  0  0  0  0  0  0
  160.6040  205.5720  144.3670 O   0  0  0  0  0  0  0  0  0  0  0  0
  160.7200  205.9130  145.5530 C   0  0  0  0  0  0  0  0  0  0  0  0
  159.9980  211.7490  153.8870 N   0  0  0  0  0  2  0  0  0  0  0  0
  159.0350  211.5950  152.8040 C   0  0  1  0  0  3  0  0  0  0  0  0
  157.9820  210.7810  153.2300 O   0  0  0  0  0  1  0  0  0  0  0  0
  158.4950  212.9620  152.3910 C   0  0  2  0  0  3  0  0  0  0  0  0
  160.4320  213.7850  151.1760 O   0  0  0  0  0  1  0  0  0  0  0  0
  157.2020  213.0090  149.8970 O   0  0  0  0  0  0  0  0  0  0  0  0
  159.1290  213.4150  151.1550 N   0  0  0  0  0  0  0  0  0  0  0  0
  158.3590  213.5080  149.9450 C   0  0  0  0  0  0  0  0  0  0  0  0
  158.8920  214.1940  148.7210 C   0  0  1  0  0  3  0  0  0  0  0  0
  160.0910  213.6190  148.2950 O   0  0  0  0  0  1  0  0  0  0  0  0
  157.8690  214.2440  147.5870 C   0  0  0  0  0  2  0  0  0  0  0  0
  158.1100  213.2460  146.6380 O   0  0  0  0  0  0  0  0  0  0  0  0
  158.7870  213.6300  144.3940 C   0  0  0  0  0  1  0  0  0  0  0  0
  157.6900  213.7940  145.4240 C   0  0  0  0  0  2  0  0  0  0  0  0
  158.7300  213.9380  153.4490 N   0  0  0  0  0  2  0  0  0  0  0  0
  157.4670  214.1340  154.1450 C   0  0  0  0  0  2  0  0  0  0  0  0
  156.3110  214.0020  153.1700 C   0  0  0  0  0  2  0  0  0  0  0  0
  155.2460  213.3400  153.7820 O   0  0  0  0  0  1  0  0  0  0  0  0
  1 22  1  0  0  0  0
  1  2  1  1  0  0  0
  4  3  1  6  0  0  0
  4  5  1  0  0  0  0
  4  1  1  0  0  0  0
  6  9  1  0  0  0  0
  7  6  1  0  0  0  0
  8  6  2  0  0  0  0
  9  5  1  0  0  0  0
 10 12  1  0  0  0  0
 11 10  1  0  0  0  0
 11  7  1  6  0  0  0
 13 10  2  0  0  0  0
 14 12  2  0  0  0  0
 15 19  1  6  0  0  0
 15 11  1  0  0  0  0
 16 14  1  0  0  0  0
 17 13  1  0  0  0  0
 17 16  2  0  0  0  0
 18 15  1  0  0  0  0
 18 13  1  0  0  0  0
 20 21  2  0  0  0  0
 21 19  2  0  0  0  0
 23 24  1  1  0  0  0
 23 22  1  0  0  0  0
 25 23  1  0  0  0  0
 25 36  1  1  0  0  0
 27 29  2  0  0  0  0
 28 26  1  0  0  0  0
 28 25  1  0  0  0  0
 29 28  1  0  0  0  0
 30 31  1  6  0  0  0
 30 29  1  0  0  0  0
 32 30  1  0  0  0  0
 33 32  1  0  0  0  0
 34 35  1  0  0  0  0
 35 33  1  0  0  0  0
 36 37  1  0  0  0  0
 38 39  1  0  0  0  0
 38 37  1  0  0  0  0
M  END
>  <MODEL>
2

>  <REMARK>
 VINA RESULT:      -6.3      1.952      2.646
  Name = 
  16 active torsions:
  status: ('A' for Active; 'I' for Inactive)
    1  A    between atoms: C_1  and  C_19
    2  A    between atoms: C_1  and  N_35
    3  A    between atoms: C_3  and  C_25
    4  A    between atoms: C_4  and  N_14
    5  A    between atoms: C_11  and  O_32
    6  A    between atoms: N_13  and  C_23
    7  A    between atoms: N_13  and  C_27
    8  A    between atoms: C_15  and  C_19
    9  A    between atoms: C_15  and  N_34
   10  A    between atoms: N_18  and  C_27
   11  A    between atoms: C_22  and  C_27
   12  A    between atoms: C_22  and  N_34
   13  A    between atoms: C_23  and  C_24
   14  A    between atoms: C_26  and  C_28
   15  A    between atoms: C_26  and  C_38
   16  A    between atoms: C_28  and  O_32
                            x       y       z     vdW  Elec       q    Type
                         _______ _______ _______ _____ _____    ______ ____

>  <TORSDO>
F 16

$$$$
=
 OpenBabel11042421193D

 39 40  0  0  1  0  0  0  0  0999 V2000
  160.4390  210.7740  152.7720 C   0  0  1  0  0  3  0  0  0  0  0  0
  160.6110  211.4700  154.1120 C   0  0  0  0  0  1  0  0  0  0  0  0
  159.7610  213.0440  152.2740 O   0  0  0  0  0  1  0  0  0  0  0  0
  160.0480  211.7970  151.7050 C   0  0  1  0  0  3  0  0  0  0  0  0
  161.1050  211.9350  150.6160 C   0  0  0  0  0  2  0  0  0  0  0  0
  160.8240  212.7600  148.2500 C   0  0  0  0  0  0  0  0  0  0  0  0
  160.5290  213.8430  147.3620 N   0  0  0  0  0  2  0  0  0  0  0  0
  161.1860  211.6390  147.7970 O   0  0  0  0  0  0  0  0  0  0  0  0
  160.7420  212.9700  149.6600 N   0  0  0  0  0  2  0  0  0  0  0  0
  161.1020  213.5130  144.9810 C   0  0  0  0  0  0  0  0  0  0  0  0
  160.2380  213.7180  145.9630 C   0  0  1  0  0  3  0  0  0  0  0  0
  162.4920  213.3800  145.0220 C   0  0  0  0  0  3  0  0  0  0  0  0
  160.4060  213.3860  143.8030 C   0  0  0  0  0  0  0  0  0  0  0  0
  163.1720  213.1380  143.8160 C   0  0  0  0  0  3  0  0  0  0  0  0
  158.8570  213.7110  145.3740 C   0  0  1  0  0  3  0  0  0  0  0  0
  162.4570  213.0260  142.6070 C   0  0  0  0  0  3  0  0  0  0  0  0
  161.0580  213.1470  142.5930 C   0  0  0  0  0  3  0  0  0  0  0  0
  159.1270  213.4900  143.9510 N   0  0  0  0  0  2  0  0  0  0  0  0
  158.0330  212.5830  145.9100 C   0  0  0  0  0  3  0  0  0  0  0  0
  156.8830  212.7490  148.1740 O   0  0  0  0  0  0  0  0  0  0  0  0
  157.4450  212.6700  147.0720 C   0  0  0  0  0  0  0  0  0  0  0  0
  161.6760  210.0910  152.4080 N   0  0  0  0  0  2  0  0  0  0  0  0
  161.5070  208.6730  152.6940 C   0  0  1  0  0  3  0  0  0  0  0  0
  160.3200  208.4800  153.4060 O   0  0  0  0  0  1  0  0  0  0  0  0
  161.4590  207.8810  151.3890 C   0  0  2  0  0  3  0  0  0  0  0  0
  162.4920  206.0660  152.6300 O   0  0  0  0  0  1  0  0  0  0  0  0
  160.0880  205.8510  150.0140 O   0  0  0  0  0  0  0  0  0  0  0  0
  161.6520  206.4560  151.6420 N   0  0  0  0  0  0  0  0  0  0  0  0
  160.9890  205.4840  150.8160 C   0  0  0  0  0  0  0  0  0  0  0  0
  161.3410  204.0260  150.8750 C   0  0  1  0  0  3  0  0  0  0  0  0
  160.7690  203.4060  151.9880 O   0  0  0  0  0  1  0  0  0  0  0  0
  160.9860  203.2860  149.5860 C   0  0  0  0  0  2  0  0  0  0  0  0
  160.0980  202.2350  149.8300 O   0  0  0  0  0  0  0  0  0  0  0  0
  161.2110  201.1810  148.0150 C   0  0  0  0  0  1  0  0  0  0  0  0
  160.7970  201.0810  149.4670 C   0  0  0  0  0  2  0  0  0  0  0  0
  162.4880  208.3600  150.4710 N   0  0  0  0  0  2  0  0  0  0  0  0
  161.8700  208.4940  149.1610 C   0  0  0  0  0  2  0  0  0  0  0  0
  162.5350  207.5520  148.1740 C   0  0  0  0  0  2  0  0  0  0  0  0
  161.5700  206.9570  147.3600 O   0  0  0  0  0  1  0  0  0  0  0  0
  1  2  1  1  0  0  0
  4  3  1  1  0  0  0
  4  1  1  0  0  0  0
  5  4  1  0  0  0  0
  6  9  1  0  0  0  0
  7  6  1  0  0  0  0
  8  6  2  0  0  0  0
  9  5  1  0  0  0  0
 10 12  1  0  0  0  0
 10 11  1  0  0  0  0
 11  7  1  1  0  0  0
 13 18  1  0  0  0  0
 13 10  2  0  0  0  0
 14 12  2  0  0  0  0
 15 19  1  1  0  0  0
 15 11  1  0  0  0  0
 16 14  1  0  0  0  0
 17 16  2  0  0  0  0
 17 13  1  0  0  0  0
 18 15  1  0  0  0  0
 19 21  2  0  0  0  0
 21 20  2  0  0  0  0
 22 23  1  0  0  0  0
 22  1  1  0  0  0  0
 23 24  1  6  0  0  0
 25 36  1  6  0  0  0
 25 28  1  0  0  0  0
 25 23  1  0  0  0  0
 27 29  2  0  0  0  0
 28 26  1  0  0  0  0
 29 30  1  0  0  0  0
 29 28  1  0  0  0  0
 30 31  1  1  0  0  0
 32 33  1  0  0  0  0
 32 30  1  0  0  0  0
 34 35  1  0  0  0  0
 35 33  1  0  0  0  0
 37 36  1  0  0  0  0
 38 37  1  0  0  0  0
 39 38  1  0  0  0  0
M  END
>  <MODEL>
3

>  <REMARK>
 VINA RESULT:      -6.0      3.928      8.848
  Name = 
  16 active torsions:
  status: ('A' for Active; 'I' for Inactive)
    1  A    between atoms: C_1  and  C_19
    2  A    between atoms: C_1  and  N_35
    3  A    between atoms: C_3  and  C_25
    4  A    between atoms: C_4  and  N_14
    5  A    between atoms: C_11  and  O_32
    6  A    between atoms: N_13  and  C_23
    7  A    between atoms: N_13  and  C_27
    8  A    between atoms: C_15  and  C_19
    9  A    between atoms: C_15  and  N_34
   10  A    between atoms: N_18  and  C_27
   11  A    between atoms: C_22  and  C_27
   12  A    between atoms: C_22  and  N_34
   13  A    between atoms: C_23  and  C_24
   14  A    between atoms: C_26  and  C_28
   15  A    between atoms: C_26  and  C_38
   16  A    between atoms: C_28  and  O_32
                            x       y       z     vdW  Elec       q    Type
                         _______ _______ _______ _____ _____    ______ ____

>  <TORSDO>
F 16

$$$$
=
 OpenBabel11042421193D

 39 40  0  0  1  0  0  0  0  0999 V2000
  160.7650  208.0960  153.8680 C   0  0  1  0  0  3  0  0  0  0  0  0
  160.5260  206.6890  154.3910 C   0  0  0  0  0  1  0  0  0  0  0  0
  161.8050  208.4010  156.0320 O   0  0  0  0  0  1  0  0  0  0  0  0
  161.0560  209.0380  155.0340 C   0  0  1  0  0  3  0  0  0  0  0  0
  161.7440  210.3230  154.5870 C   0  0  0  0  0  2  0  0  0  0  0  0
  159.7380  211.8410  154.4120 C   0  0  0  0  0  0  0  0  0  0  0  0
  159.0840  213.0500  154.8120 N   0  0  0  0  0  2  0  0  0  0  0  0
  159.2340  211.1020  153.5220 O   0  0  0  0  0  0  0  0  0  0  0  0
  160.9910  211.4950  155.0050 N   0  0  0  0  0  2  0  0  0  0  0  0
  157.1490  213.7310  153.4330 C   0  0  0  0  0  0  0  0  0  0  0  0
  157.7050  213.3660  154.5790 C   0  0  1  0  0  3  0  0  0  0  0  0
  157.7280  213.9190  152.1750 C   0  0  0  0  0  3  0  0  0  0  0  0
  155.7970  213.8730  153.6270 C   0  0  0  0  0  0  0  0  0  0  0  0
  156.8910  214.2860  151.1080 C   0  0  0  0  0  3  0  0  0  0  0  0
  156.6150  213.2480  155.6050 C   0  0  1  0  0  3  0  0  0  0  0  0
  155.5060  214.4490  151.3130 C   0  0  0  0  0  3  0  0  0  0  0  0
  154.9450  214.2390  152.5830 C   0  0  0  0  0  3  0  0  0  0  0  0
  155.4230  213.6170  154.8360 N   0  0  0  0  0  2  0  0  0  0  0  0
  156.4750  211.8450  156.1060 C   0  0  0  0  0  3  0  0  0  0  0  0
  155.1660  210.1020  154.7940 O   0  0  0  0  0  0  0  0  0  0  0  0
  155.8020  210.9540  155.4320 C   0  0  0  0  0  0  0  0  0  0  0  0
  161.8710  208.0870  152.9170 N   0  0  0  0  0  2  0  0  0  0  0  0
  161.3820  208.6200  151.6530 C   0  0  1  0  0  3  0  0  0  0  0  0
  162.1670  209.7100  151.2720 O   0  0  0  0  0  1  0  0  0  0  0  0
  161.4410  207.5400  150.5760 C   0  0  2  0  0  3  0  0  0  0  0  0
  162.8490  206.1050  151.9410 O   0  0  0  0  0  1  0  0  0  0  0  0
  159.8010  205.2760  150.3020 O   0  0  0  0  0  0  0  0  0  0  0  0
  161.7470  206.2390  151.1650 N   0  0  0  0  0  0  0  0  0  0  0  0
  160.9070  205.1070  150.8830 C   0  0  0  0  0  0  0  0  0  0  0  0
  161.3100  203.7110  151.2590 C   0  0  1  0  0  3  0  0  0  0  0  0
  160.8660  203.3780  152.5410 O   0  0  0  0  0  1  0  0  0  0  0  0
  160.8590  202.6750  150.2310 C   0  0  0  0  0  2  0  0  0  0  0  0
  161.3130  202.9970  148.9490 O   0  0  0  0  0  0  0  0  0  0  0  0
  161.3970  200.6890  148.3960 C   0  0  0  0  0  1  0  0  0  0  0  0
  160.7530  202.0290  148.1140 C   0  0  0  0  0  2  0  0  0  0  0  0
  162.4520  207.8760  149.5790 N   0  0  0  0  0  2  0  0  0  0  0  0
  161.7690  208.0240  148.3030 C   0  0  0  0  0  2  0  0  0  0  0  0
  161.9660  206.7770  147.4610 C   0  0  0  0  0  2  0  0  0  0  0  0
  160.7810  206.0410  147.4190 O   0  0  0  0  0  1  0  0  0  0  0  0
  1  2  1  1  0  0  0
  1  4  1  0  0  0  0
  4  3  1  1  0  0  0
  5  9  1  0  0  0  0
  5  4  1  0  0  0  0
  6  7  1  0  0  0  0
  6  9  1  0  0  0  0
  8  6  2  0  0  0  0
 10 13  1  0  0  0  0
 10 11  1  0  0  0  0
 11  7  1  6  0  0  0
 11 15  1  0  0  0  0
 12 10  2  0  0  0  0
 13 18  1  0  0  0  0
 14 16  2  0  0  0  0
 14 12  1  0  0  0  0
 15 19  1  6  0  0  0
 16 17  1  0  0  0  0
 17 13  2  0  0  0  0
 18 15  1  0  0  0  0
 20 21  2  0  0  0  0
 21 19  2  0  0  0  0
 22  1  1  0  0  0  0
 23 24  1  6  0  0  0
 23 22  1  0  0  0  0
 25 36  1  6  0  0  0
 25 28  1  0  0  0  0
 25 23  1  0  0  0  0
 27 29  2  0  0  0  0
 28 26  1  0  0  0  0
 29 28  1  0  0  0  0
 29 30  1  0  0  0  0
 30 31  1  1  0  0  0
 32 30  1  0  0  0  0
 33 32  1  0  0  0  0
 35 34  1  0  0  0  0
 35 33  1  0  0  0  0
 37 36  1  0  0  0  0
 38 37  1  0  0  0  0
 39 38  1  0  0  0  0
M  END
>  <MODEL>
4

>  <REMARK>
 VINA RESULT:      -5.8      2.053      9.562
  Name = 
  16 active torsions:
  status: ('A' for Active; 'I' for Inactive)
    1  A    between atoms: C_1  and  C_19
    2  A    between atoms: C_1  and  N_35
    3  A    between atoms: C_3  and  C_25
    4  A    between atoms: C_4  and  N_14
    5  A    between atoms: C_11  and  O_32
    6  A    between atoms: N_13  and  C_23
    7  A    between atoms: N_13  and  C_27
    8  A    between atoms: C_15  and  C_19
    9  A    between atoms: C_15  and  N_34
   10  A    between atoms: N_18  and  C_27
   11  A    between atoms: C_22  and  C_27
   12  A    between atoms: C_22  and  N_34
   13  A    between atoms: C_23  and  C_24
   14  A    between atoms: C_26  and  C_28
   15  A    between atoms: C_26  and  C_38
   16  A    between atoms: C_28  and  O_32
                            x       y       z     vdW  Elec       q    Type
                         _______ _______ _______ _____ _____    ______ ____

>  <TORSDO>
F 16

$$$$
=
 OpenBabel11042421193D

 39 40  0  0  1  0  0  0  0  0999 V2000
  161.3980  209.6800  152.6110 C   0  0  1  0  0  3  0  0  0  0  0  0
  160.7130  208.3230  152.6040 C   0  0  0  0  0  1  0  0  0  0  0  0
  160.7870  211.7890  151.5930 O   0  0  0  0  0  1  0  0  0  0  0  0
  161.0530  210.4390  151.3310 C   0  0  1  0  0  3  0  0  0  0  0  0
  162.1330  210.3040  150.2640 C   0  0  0  0  0  2  0  0  0  0  0  0
  162.0710  208.0650  149.1050 C   0  0  0  0  0  0  0  0  0  0  0  0
  161.6730  207.2880  147.9710 N   0  0  0  0  0  2  0  0  0  0  0  0
  162.7770  207.5530  150.0180 O   0  0  0  0  0  0  0  0  0  0  0  0
  161.6940  209.4400  149.1780 N   0  0  0  0  0  2  0  0  0  0  0  0
  161.2540  205.0090  148.8290 C   0  0  0  0  0  0  0  0  0  0  0  0
  161.6720  205.8560  147.9010 C   0  0  1  0  0  3  0  0  0  0  0  0
  160.7280  205.2580  150.0990 C   0  0  0  0  0  3  0  0  0  0  0  0
  161.3610  203.7300  148.3370 C   0  0  0  0  0  0  0  0  0  0  0  0
  160.3320  204.1590  150.8810 C   0  0  0  0  0  3  0  0  0  0  0  0
  162.0750  205.0590  146.6940 C   0  0  1  0  0  3  0  0  0  0  0  0
  160.4600  202.8470  150.3810 C   0  0  0  0  0  3  0  0  0  0  0  0
  160.9770  202.6230  149.0950 C   0  0  0  0  0  3  0  0  0  0  0  0
  161.8220  203.6830  147.1320 N   0  0  0  0  0  2  0  0  0  0  0  0
  161.2160  205.3740  145.5100 C   0  0  0  0  0  3  0  0  0  0  0  0
  160.0570  203.5320  144.1930 O   0  0  0  0  0  0  0  0  0  0  0  0
  160.6240  204.4270  144.8350 C   0  0  0  0  0  0  0  0  0  0  0  0
  160.9870  210.4350  153.7890 N   0  0  0  0  0  2  0  0  0  0  0  0
  161.7300  209.9230  154.9330 C   0  0  1  0  0  3  0  0  0  0  0  0
  162.8950  210.6750  155.1050 O   0  0  0  0  0  1  0  0  0  0  0  0
  160.8700  210.0080  156.1920 C   0  0  2  0  0  3  0  0  0  0  0  0
  161.7770  211.9940  157.2590 O   0  0  0  0  0  1  0  0  0  0  0  0
  158.5940  211.5860  155.7190 O   0  0  0  0  0  0  0  0  0  0  0  0
  160.7360  211.3940  156.6340 N   0  0  0  0  0  0  0  0  0  0  0  0
  159.4940  212.0910  156.4430 C   0  0  0  0  0  0  0  0  0  0  0  0
  159.2260  213.4180  157.0920 C   0  0  1  0  0  3  0  0  0  0  0  0
  159.9200  214.4490  156.4530 O   0  0  0  0  0  1  0  0  0  0  0  0
  157.7340  213.7320  157.1880 C   0  0  0  0  0  2  0  0  0  0  0  0
  157.2600  214.3190  156.0110 O   0  0  0  0  0  0  0  0  0  0  0  0
  155.6070  212.9650  157.0490 C   0  0  0  0  0  1  0  0  0  0  0  0
  155.9760  213.7970  155.8400 C   0  0  0  0  0  2  0  0  0  0  0  0
  161.4590  209.2080  157.2600 N   0  0  0  0  0  2  0  0  0  0  0  0
  161.5620  207.8410  156.7710 C   0  0  0  0  0  2  0  0  0  0  0  0
  160.3100  207.0640  157.1350 C   0  0  0  0  0  2  0  0  0  0  0  0
  159.3720  207.1650  156.1070 O   0  0  0  0  0  1  0  0  0  0  0  0
  1  2  1  6  0  0  0
  1 22  1  0  0  0  0
  4  3  1  1  0  0  0
  4  1  1  0  0  0  0
  5  4  1  0  0  0  0
  6  9  1  0  0  0  0
  6  8  2  0  0  0  0
  7  6  1  0  0  0  0
  9  5  1  0  0  0  0
 10 12  1  0  0  0  0
 11  7  1  6  0  0  0
 11 10  1  0  0  0  0
 12 14  2  0  0  0  0
 13 10  2  0  0  0  0
 13 17  1  0  0  0  0
 15 19  1  6  0  0  0
 15 18  1  0  0  0  0
 15 11  1  0  0  0  0
 16 14  1  0  0  0  0
 17 16  2  0  0  0  0
 18 13  1  0  0  0  0
 20 21  2  0  0  0  0
 21 19  2  0  0  0  0
 22 23  1  0  0  0  0
 23 24  1  1  0  0  0
 23 25  1  0  0  0  0
 25 28  1  0  0  0  0
 25 36  1  1  0  0  0
 27 29  2  0  0  0  0
 28 26  1  0  0  0  0
 29 28  1  0  0  0  0
 29 30  1  0  0  0  0
 30 31  1  6  0  0  0
 30 32  1  0  0  0  0
 33 32  1  0  0  0  0
 35 33  1  0  0  0  0
 35 34  1  0  0  0  0
 37 38  1  0  0  0  0
 37 36  1  0  0  0  0
 39 38  1  0  0  0  0
M  END
>  <MODEL>
5

>  <REMARK>
 VINA RESULT:      -5.8      2.579      3.929
  Name = 
  16 active torsions:
  status: ('A' for Active; 'I' for Inactive)
    1  A    between atoms: C_1  and  C_19
    2  A    between atoms: C_1  and  N_35
    3  A    between atoms: C_3  and  C_25
    4  A    between atoms: C_4  and  N_14
    5  A    between atoms: C_11  and  O_32
    6  A    between atoms: N_13  and  C_23
    7  A    between atoms: N_13  and  C_27
    8  A    between atoms: C_15  and  C_19
    9  A    between atoms: C_15  and  N_34
   10  A    between atoms: N_18  and  C_27
   11  A    between atoms: C_22  and  C_27
   12  A    between atoms: C_22  and  N_34
   13  A    between atoms: C_23  and  C_24
   14  A    between atoms: C_26  and  C_28
   15  A    between atoms: C_26  and  C_38
   16  A    between atoms: C_28  and  O_32
                            x       y       z     vdW  Elec       q    Type
                         _______ _______ _______ _____ _____    ______ ____

>  <TORSDO>
F 16

$$$$
=
 OpenBabel11042421193D

 39 40  0  0  1  0  0  0  0  0999 V2000
  161.8250  208.1060  151.5920 C   0  0  1  0  0  3  0  0  0  0  0  0
  162.0840  207.1830  152.7710 C   0  0  0  0  0  1  0  0  0  0  0  0
  161.9430  210.4260  150.9130 O   0  0  0  0  0  1  0  0  0  0  0  0
  162.2180  209.5360  151.9590 C   0  0  1  0  0  3  0  0  0  0  0  0
  161.5610  210.0070  153.2500 C   0  0  0  0  0  2  0  0  0  0  0  0
  159.7610  211.7170  152.8070 C   0  0  0  0  0  0  0  0  0  0  0  0
  159.3980  213.0910  152.6330 N   0  0  0  0  0  2  0  0  0  0  0  0
  158.9080  210.8020  152.6380 O   0  0  0  0  0  0  0  0  0  0  0  0
  161.1100  211.3860  153.1380 N   0  0  0  0  0  2  0  0  0  0  0  0
  157.2560  213.7560  151.5950 C   0  0  0  0  0  0  0  0  0  0  0  0
  158.0600  213.6060  152.6370 C   0  0  1  0  0  3  0  0  0  0  0  0
  157.4790  213.4790  150.2440 C   0  0  0  0  0  3  0  0  0  0  0  0
  156.0410  214.2150  152.0400 C   0  0  0  0  0  0  0  0  0  0  0  0
  156.4290  213.7090  149.3380 C   0  0  0  0  0  3  0  0  0  0  0  0
  157.2950  213.9900  153.8710 C   0  0  1  0  0  3  0  0  0  0  0  0
  155.1890  214.1980  149.7950 C   0  0  0  0  0  3  0  0  0  0  0  0
  154.9840  214.4530  151.1600 C   0  0  0  0  0  3  0  0  0  0  0  0
  155.9920  214.3730  153.3210 N   0  0  0  0  0  2  0  0  0  0  0  0
  157.1270  212.8300  154.8010 C   0  0  0  0  0  3  0  0  0  0  0  0
  155.9580  213.0990  157.0450 O   0  0  0  0  0  0  0  0  0  0  0  0
  156.5280  212.9710  155.9520 C   0  0  0  0  0  0  0  0  0  0  0  0
  162.5740  207.6430  150.4290 N   0  0  0  0  0  2  0  0  0  0  0  0
  161.6440  207.5230  149.3140 C   0  0  1  0  0  3  0  0  0  0  0  0
  162.1440  208.2240  148.2130 O   0  0  0  0  0  1  0  0  0  0  0  0
  161.4600  206.0520  148.9480 C   0  0  2  0  0  3  0  0  0  0  0  0
  159.7310  206.2980  147.2570 O   0  0  0  0  0  1  0  0  0  0  0  0
  163.0730  205.1470  146.8330 O   0  0  0  0  0  0  0  0  0  0  0  0
  160.9930  205.9170  147.5710 N   0  0  0  0  0  0  0  0  0  0  0  0
  161.8550  205.3430  146.5730 C   0  0  0  0  0  0  0  0  0  0  0  0
  161.3440  204.9590  145.2150 C   0  0  1  0  0  3  0  0  0  0  0  0
  162.3710  204.9440  144.2680 O   0  0  0  0  0  1  0  0  0  0  0  0
  160.5850  203.6330  145.2290 C   0  0  0  0  0  2  0  0  0  0  0  0
  161.3520  202.6120  145.7980 O   0  0  0  0  0  0  0  0  0  0  0  0
  161.1540  200.8250  147.3510 C   0  0  0  0  0  1  0  0  0  0  0  0
  160.4270  201.7680  146.4160 C   0  0  0  0  0  2  0  0  0  0  0  0
  160.5040  205.4240  149.8530 N   0  0  0  0  0  2  0  0  0  0  0  0
  160.8630  204.0170  149.9540 C   0  0  0  0  0  2  0  0  0  0  0  0
  161.7010  203.7830  151.1970 C   0  0  0  0  0  2  0  0  0  0  0  0
  160.8880  203.8140  152.3310 O   0  0  0  0  0  1  0  0  0  0  0  0
  1  4  1  0  0  0  0
  1  2  1  1  0  0  0
  4  3  1  6  0  0  0
  4  5  1  0  0  0  0
  6  9  1  0  0  0  0
  7  6  1  0  0  0  0
  8  6  2  0  0  0  0
  9  5  1  0  0  0  0
 10 13  1  0  0  0  0
 10 11  1  0  0  0  0
 11  7  1  1  0  0  0
 11 15  1  0  0  0  0
 12 10  2  0  0  0  0
 13 18  1  0  0  0  0
 14 16  2  0  0  0  0
 14 12  1  0  0  0  0
 15 19  1  1  0  0  0
 16 17  1  0  0  0  0
 17 13  2  0  0  0  0
 18 15  1  0  0  0  0
 19 21  2  0  0  0  0
 21 20  2  0  0  0  0
 22  1  1  0  0  0  0
 23 24  1  6  0  0  0
 23 22  1  0  0  0  0
 25 23  1  0  0  0  0
 25 36  1  1  0  0  0
 26 28  1  0  0  0  0
 28 25  1  0  0  0  0
 29 27  2  0  0  0  0
 29 28  1  0  0  0  0
 30 31  1  6  0  0  0
 30 32  1  0  0  0  0
 30 29  1  0  0  0  0
 32 33  1  0  0  0  0
 33 35  1  0  0  0  0
 35 34  1  0  0  0  0
 36 37  1  0  0  0  0
 37 38  1  0  0  0  0
 38 39  1  0  0  0  0
M  END
>  <MODEL>
6

>  <REMARK>
 VINA RESULT:      -5.6      2.327     10.020
  Name = 
  16 active torsions:
  status: ('A' for Active; 'I' for Inactive)
    1  A    between atoms: C_1  and  C_19
    2  A    between atoms: C_1  and  N_35
    3  A    between atoms: C_3  and  C_25
    4  A    between atoms: C_4  and  N_14
    5  A    between atoms: C_11  and  O_32
    6  A    between atoms: N_13  and  C_23
    7  A    between atoms: N_13  and  C_27
    8  A    between atoms: C_15  and  C_19
    9  A    between atoms: C_15  and  N_34
   10  A    between atoms: N_18  and  C_27
   11  A    between atoms: C_22  and  C_27
   12  A    between atoms: C_22  and  N_34
   13  A    between atoms: C_23  and  C_24
   14  A    between atoms: C_26  and  C_28
   15  A    between atoms: C_26  and  C_38
   16  A    between atoms: C_28  and  O_32
                            x       y       z     vdW  Elec       q    Type
                         _______ _______ _______ _____ _____    ______ ____

>  <TORSDO>
F 16

$$$$
=
 OpenBabel11042421193D

 39 40  0  0  1  0  0  0  0  0999 V2000
  161.2130  207.2490  148.3380 C   0  0  1  0  0  3  0  0  0  0  0  0
  160.4480  206.4320  149.3660 C   0  0  0  0  0  1  0  0  0  0  0  0
  162.1390  209.4240  148.8580 O   0  0  0  0  0  1  0  0  0  0  0  0
  162.3190  208.0450  149.0290 C   0  0  1  0  0  3  0  0  0  0  0  0
  162.4470  207.7010  150.5080 C   0  0  0  0  0  2  0  0  0  0  0  0
  161.4410  209.1070  152.3440 C   0  0  0  0  0  0  0  0  0  0  0  0
  161.4260  210.3440  153.0650 N   0  0  0  0  0  2  0  0  0  0  0  0
  160.5760  208.2180  152.5750 O   0  0  0  0  0  0  0  0  0  0  0  0
  162.4260  208.9020  151.3300 N   0  0  0  0  0  2  0  0  0  0  0  0
  159.5200  211.0440  154.4750 C   0  0  0  0  0  0  0  0  0  0  0  0
  160.7470  210.5750  154.3080 C   0  0  1  0  0  3  0  0  0  0  0  0
  158.5770  211.4460  153.5250 C   0  0  0  0  0  3  0  0  0  0  0  0
  159.2300  211.0480  155.8170 C   0  0  0  0  0  0  0  0  0  0  0  0
  157.3220  211.8840  153.9820 C   0  0  0  0  0  3  0  0  0  0  0  0
  161.3000  210.2310  155.6610 C   0  0  1  0  0  3  0  0  0  0  0  0
  157.0330  211.9040  155.3610 C   0  0  0  0  0  3  0  0  0  0  0  0
  157.9920  211.4790  156.2950 C   0  0  0  0  0  3  0  0  0  0  0  0
  160.1960  210.6010  156.5500 N   0  0  0  0  0  2  0  0  0  0  0  0
  161.5780  208.7660  155.7890 C   0  0  0  0  0  3  0  0  0  0  0  0
  159.7410  207.1260  156.4270 O   0  0  0  0  0  0  0  0  0  0  0  0
  160.6350  207.9270  156.1180 C   0  0  0  0  0  0  0  0  0  0  0  0
  161.7690  206.3640  147.3200 N   0  0  0  0  0  2  0  0  0  0  0  0
  160.7100  205.4660  146.8780 C   0  0  1  0  0  3  0  0  0  0  0  0
  159.7060  206.2050  146.2480 O   0  0  0  0  0  1  0  0  0  0  0  0
  161.2770  204.4330  145.9060 C   0  0  2  0  0  3  0  0  0  0  0  0
  160.5140  202.1530  145.5570 O   0  0  0  0  0  1  0  0  0  0  0  0
  161.9560  203.5630  148.4900 O   0  0  0  0  0  0  0  0  0  0  0  0
  161.0380  203.0780  146.3960 N   0  0  0  0  0  0  0  0  0  0  0  0
  161.3180  202.7500  147.7670 C   0  0  0  0  0  0  0  0  0  0  0  0
  160.8650  201.4550  148.3770 C   0  0  1  0  0  3  0  0  0  0  0  0
  161.5450  200.3660  147.8280 O   0  0  0  0  0  1  0  0  0  0  0  0
  160.9680  201.4600  149.9020 C   0  0  0  0  0  2  0  0  0  0  0  0
  160.4960  202.6590  150.4410 O   0  0  0  0  0  0  0  0  0  0  0  0
  161.1810  204.2830  152.0340 C   0  0  0  0  0  1  0  0  0  0  0  0
  161.2050  202.8240  151.6330 C   0  0  0  0  0  2  0  0  0  0  0  0
  162.7090  204.6440  145.7250 N   0  0  0  0  0  2  0  0  0  0  0  0
  162.8820  205.4200  144.5070 C   0  0  0  0  0  2  0  0  0  0  0  0
  161.5830  205.4530  143.7230 C   0  0  0  0  0  2  0  0  0  0  0  0
  161.8100  205.9700  142.4470 O   0  0  0  0  0  1  0  0  0  0  0  0
  1  4  1  0  0  0  0
  1  2  1  1  0  0  0
  4  3  1  1  0  0  0
  4  5  1  0  0  0  0
  5  9  1  0  0  0  0
  6  8  2  0  0  0  0
  6  7  1  0  0  0  0
  9  6  1  0  0  0  0
 10 13  1  0  0  0  0
 11  7  1  6  0  0  0
 11 10  1  0  0  0  0
 11 15  1  0  0  0  0
 12 14  1  0  0  0  0
 12 10  2  0  0  0  0
 13 17  2  0  0  0  0
 13 18  1  0  0  0  0
 14 16  2  0  0  0  0
 15 19  1  6  0  0  0
 15 18  1  0  0  0  0
 16 17  1  0  0  0  0
 19 21  2  0  0  0  0
 21 20  2  0  0  0  0
 22  1  1  0  0  0  0
 23 24  1  6  0  0  0
 23 22  1  0  0  0  0
 25 36  1  1  0  0  0
 25 28  1  0  0  0  0
 25 23  1  0  0  0  0
 26 28  1  0  0  0  0
 28 29  1  0  0  0  0
 29 30  1  0  0  0  0
 29 27  2  0  0  0  0
 30 31  1  6  0  0  0
 30 32  1  0  0  0  0
 32 33  1  0  0  0  0
 33 35  1  0  0  0  0
 35 34  1  0  0  0  0
 37 36  1  0  0  0  0
 38 37  1  0  0  0  0
 39 38  1  0  0  0  0
M  END
>  <MODEL>
7

>  <REMARK>
 VINA RESULT:      -5.5      2.935     10.520
  Name = 
  16 active torsions:
  status: ('A' for Active; 'I' for Inactive)
    1  A    between atoms: C_1  and  C_19
    2  A    between atoms: C_1  and  N_35
    3  A    between atoms: C_3  and  C_25
    4  A    between atoms: C_4  and  N_14
    5  A    between atoms: C_11  and  O_32
    6  A    between atoms: N_13  and  C_23
    7  A    between atoms: N_13  and  C_27
    8  A    between atoms: C_15  and  C_19
    9  A    between atoms: C_15  and  N_34
   10  A    between atoms: N_18  and  C_27
   11  A    between atoms: C_22  and  C_27
   12  A    between atoms: C_22  and  N_34
   13  A    between atoms: C_23  and  C_24
   14  A    between atoms: C_26  and  C_28
   15  A    between atoms: C_26  and  C_38
   16  A    between atoms: C_28  and  O_32
                            x       y       z     vdW  Elec       q    Type
                         _______ _______ _______ _____ _____    ______ ____

>  <TORSDO>
F 16

$$$$
=
 OpenBabel11042421193D

 39 40  0  0  1  0  0  0  0  0999 V2000
  161.3560  207.9450  151.1780 C   0  0  1  0  0  3  0  0  0  0  0  0
  161.2420  206.9650  152.3340 C   0  0  0  0  0  1  0  0  0  0  0  0
  162.0910  210.1920  150.6610 O   0  0  0  0  0  1  0  0  0  0  0  0
  162.1610  209.1680  151.6140 C   0  0  1  0  0  3  0  0  0  0  0  0
  161.7410  209.6830  152.9850 C   0  0  0  0  0  2  0  0  0  0  0  0
  160.0080  211.4820  152.6400 C   0  0  0  0  0  0  0  0  0  0  0  0
  159.7030  212.8750  152.5150 N   0  0  0  0  0  2  0  0  0  0  0  0
  159.1110  210.6110  152.4710 O   0  0  0  0  0  0  0  0  0  0  0  0
  161.3500  211.0830  152.9230 N   0  0  0  0  0  2  0  0  0  0  0  0
  157.5590  213.6470  151.5600 C   0  0  0  0  0  0  0  0  0  0  0  0
  158.3900  213.4490  152.5710 C   0  0  1  0  0  3  0  0  0  0  0  0
  157.7220  213.3780  150.1980 C   0  0  0  0  0  3  0  0  0  0  0  0
  156.3810  214.1540  152.0520 C   0  0  0  0  0  0  0  0  0  0  0  0
  156.6530  213.6660  149.3320 C   0  0  0  0  0  3  0  0  0  0  0  0
  157.6860  213.8510  153.8350 C   0  0  1  0  0  3  0  0  0  0  0  0
  155.4520  214.2030  149.8380 C   0  0  0  0  0  3  0  0  0  0  0  0
  155.3060  214.4490  151.2120 C   0  0  0  0  0  3  0  0  0  0  0  0
  156.3830  214.2980  153.3350 N   0  0  0  0  0  2  0  0  0  0  0  0
  157.4980  212.6880  154.7580 C   0  0  0  0  0  3  0  0  0  0  0  0
  155.4030  211.2490  154.6550 O   0  0  0  0  0  0  0  0  0  0  0  0
  156.4220  211.9520  154.7040 C   0  0  0  0  0  0  0  0  0  0  0  0
  161.9850  207.2890  150.0360 N   0  0  0  0  0  2  0  0  0  0  0  0
  161.2170  207.6280  148.8450 C   0  0  1  0  0  3  0  0  0  0  0  0
  161.9800  208.4570  148.0200 O   0  0  0  0  0  1  0  0  0  0  0  0
  160.8410  206.3540  148.0900 C   0  0  2  0  0  3  0  0  0  0  0  0
  162.7220  204.8200  148.1920 O   0  0  0  0  0  1  0  0  0  0  0  0
  159.8220  204.8820  150.2550 O   0  0  0  0  0  0  0  0  0  0  0  0
  161.5110  205.1930  148.6700 N   0  0  0  0  0  0  0  0  0  0  0  0
  160.8650  204.4340  149.7050 C   0  0  0  0  0  0  0  0  0  0  0  0
  161.3950  203.1040  150.1570 C   0  0  1  0  0  3  0  0  0  0  0  0
  161.8220  203.1490  151.4860 O   0  0  0  0  0  1  0  0  0  0  0  0
  160.3960  201.9700  149.9340 C   0  0  0  0  0  2  0  0  0  0  0  0
  159.9070  201.9700  148.6250 O   0  0  0  0  0  0  0  0  0  0  0  0
  160.8840  201.8000  146.4660 C   0  0  0  0  0  1  0  0  0  0  0  0
  160.8610  201.2700  147.8840 C   0  0  0  0  0  2  0  0  0  0  0  0
  161.2030  206.4770  146.6820 N   0  0  0  0  0  2  0  0  0  0  0  0
  160.3180  205.6000  145.9300 C   0  0  0  0  0  2  0  0  0  0  0  0
  161.0880  204.9190  144.8140 C   0  0  0  0  0  2  0  0  0  0  0  0
  161.2990  205.8160  143.7660 O   0  0  0  0  0  1  0  0  0  0  0  0
  1  4  1  0  0  0  0
  1  2  1  1  0  0  0
  4  3  1  6  0  0  0
  4  5  1  0  0  0  0
  6  9  1  0  0  0  0
  7  6  1  0  0  0  0
  8  6  2  0  0  0  0
  9  5  1  0  0  0  0
 10 13  1  0  0  0  0
 10 11  1  0  0  0  0
 11  7  1  1  0  0  0
 11 15  1  0  0  0  0
 12 10  2  0  0  0  0
 13 18  1  0  0  0  0
 14 16  2  0  0  0  0
 14 12  1  0  0  0  0
 15 19  1  1  0  0  0
 16 17  1  0  0  0  0
 17 13  2  0  0  0  0
 18 15  1  0  0  0  0
 20 21  2  0  0  0  0
 21 19  2  0  0  0  0
 22  1  1  0  0  0  0
 23 24  1  6  0  0  0
 23 22  1  0  0  0  0
 25 36  1  6  0  0  0
 25 28  1  0  0  0  0
 25 23  1  0  0  0  0
 26 28  1  0  0  0  0
 28 29  1  0  0  0  0
 29 30  1  0  0  0  0
 29 27  2  0  0  0  0
 30 31  1  1  0  0  0
 32 30  1  0  0  0  0
 33 32  1  0  0  0  0
 34 35  1  0  0  0  0
 35 33  1  0  0  0  0
 37 36  1  0  0  0  0
 38 37  1  0  0  0  0
 39 38  1  0  0  0  0
M  END
>  <MODEL>
8

>  <REMARK>
 VINA RESULT:      -5.4      2.197     10.060
  Name = 
  16 active torsions:
  status: ('A' for Active; 'I' for Inactive)
    1  A    between atoms: C_1  and  C_19
    2  A    between atoms: C_1  and  N_35
    3  A    between atoms: C_3  and  C_25
    4  A    between atoms: C_4  and  N_14
    5  A    between atoms: C_11  and  O_32
    6  A    between atoms: N_13  and  C_23
    7  A    between atoms: N_13  and  C_27
    8  A    between atoms: C_15  and  C_19
    9  A    between atoms: C_15  and  N_34
   10  A    between atoms: N_18  and  C_27
   11  A    between atoms: C_22  and  C_27
   12  A    between atoms: C_22  and  N_34
   13  A    between atoms: C_23  and  C_24
   14  A    between atoms: C_26  and  C_28
   15  A    between atoms: C_26  and  C_38
   16  A    between atoms: C_28  and  O_32
                            x       y       z     vdW  Elec       q    Type
                         _______ _______ _______ _____ _____    ______ ____

>  <TORSDO>
F 16

$$$$
=
 OpenBabel11042421193D

 39 40  0  0  1  0  0  0  0  0999 V2000
  161.6700  207.5020  152.1750 C   0  0  1  0  0  3  0  0  0  0  0  0
  162.2630  207.3710  150.7820 C   0  0  0  0  0  1  0  0  0  0  0  0
  162.0710  206.5290  154.3550 O   0  0  0  0  0  1  0  0  0  0  0  0
  161.9750  206.2440  152.9870 C   0  0  1  0  0  3  0  0  0  0  0  0
  160.9620  205.1320  152.7420 C   0  0  0  0  0  2  0  0  0  0  0  0
  160.9210  204.0390  150.4700 C   0  0  0  0  0  0  0  0  0  0  0  0
  161.4090  203.0120  149.6010 N   0  0  0  0  0  2  0  0  0  0  0  0
  159.9930  204.8080  150.0960 O   0  0  0  0  0  0  0  0  0  0  0  0
  161.4680  204.1620  151.7830 N   0  0  0  0  0  2  0  0  0  0  0  0
  161.5320  203.9020  147.2980 C   0  0  0  0  0  0  0  0  0  0  0  0
  161.2210  202.9640  148.1800 C   0  0  1  0  0  3  0  0  0  0  0  0
  162.0980  205.1650  147.4940 C   0  0  0  0  0  3  0  0  0  0  0  0
  161.2530  203.4310  146.0380 C   0  0  0  0  0  0  0  0  0  0  0  0
  162.3520  205.9600  146.3640 C   0  0  0  0  0  3  0  0  0  0  0  0
  160.7060  201.7720  147.4250 C   0  0  1  0  0  3  0  0  0  0  0  0
  162.0480  205.4820  145.0740 C   0  0  0  0  0  3  0  0  0  0  0  0
  161.4950  204.2030  144.9010 C   0  0  0  0  0  3  0  0  0  0  0  0
  160.7790  202.2300  146.0350 N   0  0  0  0  0  2  0  0  0  0  0  0
  161.5880  200.5770  147.6080 C   0  0  0  0  0  3  0  0  0  0  0  0
  161.5670  198.6550  145.9410 O   0  0  0  0  0  0  0  0  0  0  0  0
  161.5740  199.5920  146.7520 C   0  0  0  0  0  0  0  0  0  0  0  0
  162.2090  208.6870  152.8320 N   0  0  0  0  0  2  0  0  0  0  0  0
  161.1700  209.7080  152.8400 C   0  0  1  0  0  3  0  0  0  0  0  0
  159.9910  209.1770  152.3120 O   0  0  0  0  0  1  0  0  0  0  0  0
  160.9240  210.1870  154.2690 C   0  0  2  0  0  3  0  0  0  0  0  0
  160.3350  212.3960  153.4460 O   0  0  0  0  0  1  0  0  0  0  0  0
  158.6080  210.4110  155.8440 O   0  0  0  0  0  0  0  0  0  0  0  0
  160.0590  211.3640  154.2790 N   0  0  0  0  0  0  0  0  0  0  0  0
  158.9550  211.4360  155.1960 C   0  0  0  0  0  0  0  0  0  0  0  0
  158.1930  212.7110  155.4150 C   0  0  1  0  0  3  0  0  0  0  0  0
  159.0050  213.8310  155.2260 O   0  0  0  0  0  1  0  0  0  0  0  0
  156.9300  212.7920  154.5590 C   0  0  0  0  0  2  0  0  0  0  0  0
  155.9610  213.6040  155.1540 O   0  0  0  0  0  0  0  0  0  0  0  0
  156.0090  213.8620  152.7940 C   0  0  0  0  0  1  0  0  0  0  0  0
  155.3680  214.2940  154.0950 C   0  0  0  0  0  2  0  0  0  0  0  0
  162.1910  210.5050  154.9200 N   0  0  0  0  0  2  0  0  0  0  0  0
  161.9160  210.6880  156.3370 C   0  0  0  0  0  2  0  0  0  0  0  0
  162.4150  209.4890  157.1220 C   0  0  0  0  0  2  0  0  0  0  0  0
  161.6590  208.3610  156.7970 O   0  0  0  0  0  1  0  0  0  0  0  0
  1  2  1  6  0  0  0
  1 22  1  0  0  0  0
  1  4  1  0  0  0  0
  4  3  1  1  0  0  0
  5  4  1  0  0  0  0
  6  9  1  0  0  0  0
  7  6  1  0  0  0  0
  8  6  2  0  0  0  0
  9  5  1  0  0  0  0
 10 12  1  0  0  0  0
 10 11  1  0  0  0  0
 11  7  1  6  0  0  0
 13 10  2  0  0  0  0
 14 12  2  0  0  0  0
 15 19  1  6  0  0  0
 15 11  1  0  0  0  0
 16 14  1  0  0  0  0
 17 16  2  0  0  0  0
 17 13  1  0  0  0  0
 18 13  1  0  0  0  0
 18 15  1  0  0  0  0
 20 21  2  0  0  0  0
 21 19  2  0  0  0  0
 22 23  1  0  0  0  0
 23 24  1  1  0  0  0
 23 25  1  0  0  0  0
 25 28  1  0  0  0  0
 25 36  1  6  0  0  0
 26 28  1  0  0  0  0
 28 29  1  0  0  0  0
 29 30  1  0  0  0  0
 29 27  2  0  0  0  0
 30 31  1  6  0  0  0
 32 33  1  0  0  0  0
 32 30  1  0  0  0  0
 34 35  1  0  0  0  0
 35 33  1  0  0  0  0
 36 37  1  0  0  0  0
 37 38  1  0  0  0  0
 39 38  1  0  0  0  0
M  END
>  <MODEL>
9

>  <REMARK>
 VINA RESULT:      -5.4      2.469      4.488
  Name = 
  16 active torsions:
  status: ('A' for Active; 'I' for Inactive)
    1  A    between atoms: C_1  and  C_19
    2  A    between atoms: C_1  and  N_35
    3  A    between atoms: C_3  and  C_25
    4  A    between atoms: C_4  and  N_14
    5  A    between atoms: C_11  and  O_32
    6  A    between atoms: N_13  and  C_23
    7  A    between atoms: N_13  and  C_27
    8  A    between atoms: C_15  and  C_19
    9  A    between atoms: C_15  and  N_34
   10  A    between atoms: N_18  and  C_27
   11  A    between atoms: C_22  and  C_27
   12  A    between atoms: C_22  and  N_34
   13  A    between atoms: C_23  and  C_24
   14  A    between atoms: C_26  and  C_28
   15  A    between atoms: C_26  and  C_38
   16  A    between atoms: C_28  and  O_32
                            x       y       z     vdW  Elec       q    Type
                         _______ _______ _______ _____ _____    ______ ____

>  <TORSDO>
F 16

$$$$
