=
 OpenBabel11052409553D

 29 32  0  0  1  0  0  0  0  0999 V2000
  162.3130  208.8540  148.6620 C   0  0  0  0  0  3  0  0  0  0  0  0
  161.5160  207.4180  150.0910 C   0  0  2  0  0  3  0  0  0  0  0  0
  161.2780  205.1000  150.6610 C   0  0  0  0  0  0  0  0  0  0  0  0
  161.5410  206.3460  151.1000 C   0  0  0  0  0  0  0  0  0  0  0  0
  161.0460  204.8500  149.1960 C   0  0  0  0  0  0  0  0  0  0  0  0
  160.7150  207.2330  148.8590 C   0  0  2  0  0  3  0  0  0  0  0  0
  160.8740  205.8580  148.3810 N   0  0  0  0  0  0  0  0  0  0  0  0
  161.2620  204.0420  151.5650 O   0  0  0  0  0  1  0  0  0  0  0  0
  162.4210  208.3280  149.9790 N   0  0  0  0  0  2  0  0  0  0  0  0
  161.3730  208.2260  147.9630 C   0  0  0  0  0  3  0  0  0  0  0  0
  161.9090  208.0090  152.9090 N   0  0  1  0  0  0  0  0  0  0  0  0
  161.9430  206.5830  152.5400 C   0  0  1  0  0  3  0  0  0  0  0  0
  160.5260  208.5300  152.8740 C   0  0  1  0  0  3  0  0  0  0  0  0
  161.0930  208.0690  154.1410 C   0  0  1  0  0  3  0  0  0  0  0  0
  160.6670  206.6680  154.4350 C   0  0  0  0  0  3  0  0  0  0  0  0
  161.1470  205.8210  153.5450 C   0  0  0  0  0  3  0  0  0  0  0  0
  160.5620  209.9230  152.8210 O   0  0  0  0  0  0  0  0  0  0  0  0
  161.6790  210.2740  153.5810 C   0  0  0  0  0  1  0  0  0  0  0  0
  161.1870  203.4820  148.5800 C   0  0  1  0  0  3  0  0  0  0  0  0
  160.1170  202.5880  149.0270 N   0  0  0  0  0  2  0  0  0  0  0  0
  160.2990  201.3830  149.7790 C   0  0  0  0  0  0  0  0  0  0  0  0
  161.4390  201.0410  150.1870 O   0  0  0  0  0  0  0  0  0  0  0  0
  159.1730  200.5700  150.0820 N   0  0  0  0  0  1  0  0  0  0  0  0
  161.3970  203.4590  147.0570 C   0  0  2  0  0  3  0  0  0  0  0  0
  160.4620  202.1480  145.2860 O   0  0  0  0  0  1  0  0  0  0  0  0
  161.1780  202.0630  146.4810 C   0  0  0  0  0  2  0  0  0  0  0  0
  162.7660  204.0180  146.6430 C   0  0  0  0  0  2  0  0  0  0  0  0
  162.6820  205.0860  145.5560 C   0  0  0  0  0  2  0  0  0  0  0  0
  161.3530  205.3070  145.1980 O   0  0  0  0  0  1  0  0  0  0  0  0
  1  9  1  0  0  0  0
  2  9  1  6  0  0  0
  2  4  1  0  0  0  0
  3  4  2  0  0  0  0
  3  8  1  0  0  0  0
  4 12  1  0  0  0  0
  5  3  1  0  0  0  0
  6 10  1  6  0  0  0
  6  2  1  0  0  0  0
  7  6  1  0  0  0  0
  7  5  2  0  0  0  0
 10  1  2  0  0  0  0
 11 14  1  0  0  0  0
 12 11  1  0  0  0  0
 12 16  1  0  0  0  0
 13 11  1  0  0  0  0
 13 14  1  0  0  0  0
 14 15  1  0  0  0  0
 16 15  2  0  0  0  0
 17 13  1  0  0  0  0
 17 18  1  0  0  0  0
 19 20  1  0  0  0  0
 19  5  1  0  0  0  0
 20 21  1  0  0  0  0
 21 23  1  0  0  0  0
 21 22  2  0  0  0  0
 24 19  1  0  0  0  0
 25 26  1  0  0  0  0
 26 24  1  0  0  0  0
 27 24  1  0  0  0  0
 28 27  1  0  0  0  0
 29 28  1  0  0  0  0
M  END
>  <MODEL>
1

>  <REMARK>
 VINA RESULT:      -6.8      0.000      0.000
  Name = 
  8 active torsions:
  status: ('A' for Active; 'I' for Inactive)
    1  A    between atoms: N_3  and  C_24
    2  A    between atoms: O_4  and  C_15
    3  A    between atoms: C_5  and  C_17
    4  A    between atoms: C_8  and  C_9
    5  A    between atoms: C_11  and  C_29
    6  A    between atoms: C_12  and  C_24
    7  A    between atoms: C_17  and  C_29
    8  A    between atoms: C_24  and  C_29
                            x       y       z     vdW  Elec       q    Type
                         _______ _______ _______ _____ _____    ______ ____

>  <TORSDO>
F 8

$$$$
=
 OpenBabel11052409553D

 29 32  0  0  1  0  0  0  0  0999 V2000
  161.2540  207.7570  148.2730 C   0  0  0  0  0  3  0  0  0  0  0  0
  161.4200  206.5600  150.0840 C   0  0  2  0  0  3  0  0  0  0  0  0
  161.0250  206.4620  152.4480 C   0  0  0  0  0  0  0  0  0  0  0  0
  160.9630  205.8140  151.2680 C   0  0  0  0  0  0  0  0  0  0  0  0
  161.4770  207.8960  152.4980 C   0  0  0  0  0  0  0  0  0  0  0  0
  162.3850  207.6700  150.2560 C   0  0  2  0  0  3  0  0  0  0  0  0
  162.0230  208.4450  151.4440 N   0  0  0  0  0  0  0  0  0  0  0  0
  160.6300  205.8100  153.6120 O   0  0  0  0  0  1  0  0  0  0  0  0
  160.7770  206.6110  148.9680 N   0  0  0  0  0  2  0  0  0  0  0  0
  162.1500  208.4240  148.9920 C   0  0  0  0  0  3  0  0  0  0  0  0
  160.2570  203.9410  149.7970 N   0  0  1  0  0  0  0  0  0  0  0  0
  160.3500  204.4330  151.1830 C   0  0  1  0  0  3  0  0  0  0  0  0
  161.6010  203.7290  149.2210 C   0  0  1  0  0  3  0  0  0  0  0  0
  160.8860  202.6030  149.8210 C   0  0  1  0  0  3  0  0  0  0  0  0
  161.3390  202.3730  151.2250 C   0  0  0  0  0  3  0  0  0  0  0  0
  161.0350  203.3930  152.0040 C   0  0  0  0  0  3  0  0  0  0  0  0
  161.5000  203.6660  147.8320 O   0  0  0  0  0  0  0  0  0  0  0  0
  161.1790  202.3340  147.5650 C   0  0  0  0  0  1  0  0  0  0  0  0
  161.1620  208.8000  153.6610 C   0  0  1  0  0  3  0  0  0  0  0  0
  161.4170  208.1290  154.9370 N   0  0  0  0  0  2  0  0  0  0  0  0
  160.5190  208.0890  156.0510 C   0  0  0  0  0  0  0  0  0  0  0  0
  159.3670  208.5880  155.9720 O   0  0  0  0  0  0  0  0  0  0  0  0
  160.9300  207.4630  157.2600 N   0  0  0  0  0  1  0  0  0  0  0  0
  161.7680  210.2110  153.5880 C   0  0  2  0  0  3  0  0  0  0  0  0
  161.4820  211.3710  155.6620 O   0  0  0  0  0  1  0  0  0  0  0  0
  162.3940  210.6240  154.9160 C   0  0  0  0  0  2  0  0  0  0  0  0
  160.7570  211.2610  153.1040 C   0  0  0  0  0  2  0  0  0  0  0  0
  159.3420  210.7140  152.9440 C   0  0  0  0  0  2  0  0  0  0  0  0
  158.4760  211.3440  153.8370 O   0  0  0  0  0  1  0  0  0  0  0  0
  1  9  1  0  0  0  0
  1 10  2  0  0  0  0
  2  9  1  1  0  0  0
  2  6  1  0  0  0  0
  2  4  1  0  0  0  0
  3  5  1  0  0  0  0
  3  8  1  0  0  0  0
  4  3  2  0  0  0  0
  5 19  1  0  0  0  0
  6 10  1  6  0  0  0
  6  7  1  0  0  0  0
  7  5  2  0  0  0  0
 11 14  1  0  0  0  0
 11 12  1  0  0  0  0
 12  4  1  0  0  0  0
 12 16  1  0  0  0  0
 13 11  1  0  0  0  0
 13 14  1  0  0  0  0
 14 15  1  0  0  0  0
 15 16  2  0  0  0  0
 17 13  1  0  0  0  0
 18 17  1  0  0  0  0
 19 20  1  0  0  0  0
 20 21  1  0  0  0  0
 21 23  1  0  0  0  0
 22 21  2  0  0  0  0
 24 19  1  0  0  0  0
 24 26  1  0  0  0  0
 26 25  1  0  0  0  0
 27 24  1  0  0  0  0
 28 27  1  0  0  0  0
 28 29  1  0  0  0  0
M  END
>  <MODEL>
2

>  <REMARK>
 VINA RESULT:      -6.5      1.982      7.286
  Name = 
  8 active torsions:
  status: ('A' for Active; 'I' for Inactive)
    1  A    between atoms: N_3  and  C_24
    2  A    between atoms: O_4  and  C_15
    3  A    between atoms: C_5  and  C_17
    4  A    between atoms: C_8  and  C_9
    5  A    between atoms: C_11  and  C_29
    6  A    between atoms: C_12  and  C_24
    7  A    between atoms: C_17  and  C_29
    8  A    between atoms: C_24  and  C_29
                            x       y       z     vdW  Elec       q    Type
                         _______ _______ _______ _____ _____    ______ ____

>  <TORSDO>
F 8

$$$$
=
 OpenBabel11052409553D

 29 32  0  0  1  0  0  0  0  0999 V2000
  161.2890  207.9140  148.2850 C   0  0  0  0  0  3  0  0  0  0  0  0
  161.4020  206.9710  150.2440 C   0  0  2  0  0  3  0  0  0  0  0  0
  160.8760  207.1580  152.5770 C   0  0  0  0  0  0  0  0  0  0  0  0
  160.9110  206.3610  151.4910 C   0  0  0  0  0  0  0  0  0  0  0  0
  161.2610  208.6070  152.4610 C   0  0  0  0  0  0  0  0  0  0  0  0
  162.3060  208.1420  150.3180 C   0  0  2  0  0  3  0  0  0  0  0  0
  161.8420  209.0440  151.3740 N   0  0  0  0  0  0  0  0  0  0  0  0
  160.4440  206.6410  153.7950 O   0  0  0  0  0  1  0  0  0  0  0  0
  160.8240  206.8450  149.1000 N   0  0  0  0  0  2  0  0  0  0  0  0
  162.1110  208.7140  148.9560 C   0  0  0  0  0  3  0  0  0  0  0  0
  160.2510  204.3280  150.2260 N   0  0  1  0  0  0  0  0  0  0  0  0
  160.3660  204.9510  151.5560 C   0  0  1  0  0  3  0  0  0  0  0  0
  161.5850  204.1260  149.6220 C   0  0  1  0  0  3  0  0  0  0  0  0
  160.9470  203.0290  150.3490 C   0  0  1  0  0  3  0  0  0  0  0  0
  161.4580  202.9530  151.7500 C   0  0  0  0  0  3  0  0  0  0  0  0
  161.1290  204.0260  152.4430 C   0  0  0  0  0  3  0  0  0  0  0  0
  161.4400  203.9280  148.2490 O   0  0  0  0  0  0  0  0  0  0  0  0
  161.1640  202.5660  148.1190 C   0  0  0  0  0  1  0  0  0  0  0  0
  160.8390  209.6360  153.4780 C   0  0  1  0  0  3  0  0  0  0  0  0
  162.0000  210.2410  154.1330 N   0  0  0  0  0  2  0  0  0  0  0  0
  162.2740  210.2100  155.5380 C   0  0  0  0  0  0  0  0  0  0  0  0
  161.5360  209.5650  156.3270 O   0  0  0  0  0  0  0  0  0  0  0  0
  163.4040  210.9060  156.0460 N   0  0  0  0  0  1  0  0  0  0  0  0
  159.8140  210.6730  152.9870 C   0  0  2  0  0  3  0  0  0  0  0  0
  159.7650  212.5540  151.5090 O   0  0  0  0  0  1  0  0  0  0  0  0
  160.4900  211.9670  152.5460 C   0  0  0  0  0  2  0  0  0  0  0  0
  158.7140  210.9490  154.0230 C   0  0  0  0  0  2  0  0  0  0  0  0
  159.0240  212.1300  154.9370 C   0  0  0  0  0  2  0  0  0  0  0  0
  159.0610  211.7140  156.2680 O   0  0  0  0  0  1  0  0  0  0  0  0
  1 10  2  0  0  0  0
  1  9  1  0  0  0  0
  2  9  1  6  0  0  0
  2  6  1  0  0  0  0
  2  4  1  0  0  0  0
  3  8  1  0  0  0  0
  4 12  1  0  0  0  0
  4  3  2  0  0  0  0
  5  3  1  0  0  0  0
  5 19  1  0  0  0  0
  6 10  1  6  0  0  0
  6  7  1  0  0  0  0
  7  5  2  0  0  0  0
 11 14  1  0  0  0  0
 11 12  1  0  0  0  0
 12 16  1  0  0  0  0
 13 11  1  0  0  0  0
 13 14  1  0  0  0  0
 14 15  1  0  0  0  0
 15 16  2  0  0  0  0
 17 13  1  0  0  0  0
 18 17  1  0  0  0  0
 19 20  1  0  0  0  0
 20 21  1  0  0  0  0
 21 23  1  0  0  0  0
 21 22  2  0  0  0  0
 24 19  1  0  0  0  0
 24 27  1  0  0  0  0
 25 26  1  0  0  0  0
 26 24  1  0  0  0  0
 27 28  1  0  0  0  0
 28 29  1  0  0  0  0
M  END
>  <MODEL>
3

>  <REMARK>
 VINA RESULT:      -6.4      2.325      7.660
  Name = 
  8 active torsions:
  status: ('A' for Active; 'I' for Inactive)
    1  A    between atoms: N_3  and  C_24
    2  A    between atoms: O_4  and  C_15
    3  A    between atoms: C_5  and  C_17
    4  A    between atoms: C_8  and  C_9
    5  A    between atoms: C_11  and  C_29
    6  A    between atoms: C_12  and  C_24
    7  A    between atoms: C_17  and  C_29
    8  A    between atoms: C_24  and  C_29
                            x       y       z     vdW  Elec       q    Type
                         _______ _______ _______ _____ _____    ______ ____

>  <TORSDO>
F 8

$$$$
=
 OpenBabel11052409553D

 29 32  0  0  1  0  0  0  0  0999 V2000
  161.2960  207.9430  148.4510 C   0  0  0  0  0  3  0  0  0  0  0  0
  161.4470  206.7900  150.2920 C   0  0  2  0  0  3  0  0  0  0  0  0
  161.0140  206.7400  152.6500 C   0  0  0  0  0  0  0  0  0  0  0  0
  160.9800  206.0650  151.4850 C   0  0  0  0  0  0  0  0  0  0  0  0
  161.4470  208.1810  152.6750 C   0  0  0  0  0  0  0  0  0  0  0  0
  162.3950  207.9170  150.4540 C   0  0  2  0  0  3  0  0  0  0  0  0
  162.0030  208.7130  151.6180 N   0  0  0  0  0  0  0  0  0  0  0  0
  160.6080  206.1090  153.8220 O   0  0  0  0  0  1  0  0  0  0  0  0
  160.8230  206.8070  149.1650 N   0  0  0  0  0  2  0  0  0  0  0  0
  162.1710  208.6390  149.1690 C   0  0  0  0  0  3  0  0  0  0  0  0
  160.2840  204.1670  150.0420 N   0  0  1  0  0  0  0  0  0  0  0  0
  160.3870  204.6740  151.4210 C   0  0  1  0  0  3  0  0  0  0  0  0
  161.6250  203.9690  149.4510 C   0  0  1  0  0  3  0  0  0  0  0  0
  160.9340  202.8380  150.0710 C   0  0  1  0  0  3  0  0  0  0  0  0
  161.4080  202.6300  151.4710 C   0  0  0  0  0  3  0  0  0  0  0  0
  161.0980  203.6530  152.2440 C   0  0  0  0  0  3  0  0  0  0  0  0
  161.5070  203.8900  148.0640 O   0  0  0  0  0  0  0  0  0  0  0  0
  161.0730  202.5860  147.8230 C   0  0  0  0  0  1  0  0  0  0  0  0
  161.1000  209.1070  153.8120 C   0  0  1  0  0  3  0  0  0  0  0  0
  159.8230  209.7810  153.5750 N   0  0  0  0  0  2  0  0  0  0  0  0
  159.6660  211.1160  153.0800 C   0  0  0  0  0  0  0  0  0  0  0  0
  160.6630  211.7980  152.7300 O   0  0  0  0  0  0  0  0  0  0  0  0
  158.3620  211.6720  152.9690 N   0  0  0  0  0  1  0  0  0  0  0  0
  161.2100  208.4980  155.2200 C   0  0  2  0  0  3  0  0  0  0  0  0
  159.8800  207.3460  156.8430 O   0  0  0  0  0  1  0  0  0  0  0  0
  159.8410  208.3530  155.8780 C   0  0  0  0  0  2  0  0  0  0  0  0
  162.1780  209.2760  156.1240 C   0  0  0  0  0  2  0  0  0  0  0  0
  162.3710  210.7280  155.6990 C   0  0  0  0  0  2  0  0  0  0  0  0
  161.3970  211.5370  156.2830 O   0  0  0  0  0  1  0  0  0  0  0  0
  1  9  1  0  0  0  0
  1 10  2  0  0  0  0
  2  9  1  1  0  0  0
  2  6  1  0  0  0  0
  2  4  1  0  0  0  0
  3  5  1  0  0  0  0
  3  8  1  0  0  0  0
  4  3  2  0  0  0  0
  5 19  1  0  0  0  0
  6 10  1  6  0  0  0
  6  7  1  0  0  0  0
  7  5  2  0  0  0  0
 11 14  1  0  0  0  0
 11 12  1  0  0  0  0
 12  4  1  0  0  0  0
 12 16  1  0  0  0  0
 13 11  1  0  0  0  0
 13 14  1  0  0  0  0
 14 15  1  0  0  0  0
 15 16  2  0  0  0  0
 17 13  1  0  0  0  0
 18 17  1  0  0  0  0
 19 24  1  0  0  0  0
 20 19  1  0  0  0  0
 21 20  1  0  0  0  0
 22 21  2  0  0  0  0
 23 21  1  0  0  0  0
 24 26  1  0  0  0  0
 24 27  1  0  0  0  0
 26 25  1  0  0  0  0
 28 27  1  0  0  0  0
 28 29  1  0  0  0  0
M  END
>  <MODEL>
4

>  <REMARK>
 VINA RESULT:      -6.3      2.266      7.568
  Name = 
  8 active torsions:
  status: ('A' for Active; 'I' for Inactive)
    1  A    between atoms: N_3  and  C_24
    2  A    between atoms: O_4  and  C_15
    3  A    between atoms: C_5  and  C_17
    4  A    between atoms: C_8  and  C_9
    5  A    between atoms: C_11  and  C_29
    6  A    between atoms: C_12  and  C_24
    7  A    between atoms: C_17  and  C_29
    8  A    between atoms: C_24  and  C_29
                            x       y       z     vdW  Elec       q    Type
                         _______ _______ _______ _____ _____    ______ ____

>  <TORSDO>
F 8

$$$$
=
 OpenBabel11052409553D

 29 32  0  0  1  0  0  0  0  0999 V2000
  159.3690  207.6040  156.4530 C   0  0  0  0  0  3  0  0  0  0  0  0
  160.7640  208.5520  155.0760 C   0  0  2  0  0  3  0  0  0  0  0  0
  161.4620  208.7790  152.7930 C   0  0  0  0  0  0  0  0  0  0  0  0
  161.2070  209.4030  153.9590 C   0  0  0  0  0  0  0  0  0  0  0  0
  161.2270  207.3000  152.6610 C   0  0  0  0  0  0  0  0  0  0  0  0
  161.1300  207.1170  155.0820 C   0  0  2  0  0  3  0  0  0  0  0  0
  160.9950  206.5780  153.7270 N   0  0  0  0  0  0  0  0  0  0  0  0
  161.9060  209.5190  151.7010 O   0  0  0  0  0  1  0  0  0  0  0  0
  159.7670  208.8270  155.8450 N   0  0  0  0  0  2  0  0  0  0  0  0
  160.0960  206.5830  156.0130 C   0  0  0  0  0  3  0  0  0  0  0  0
  160.3530  211.5800  153.1200 N   0  0  1  0  0  0  0  0  0  0  0  0
  161.2760  210.9120  154.0540 C   0  0  1  0  0  3  0  0  0  0  0  0
  158.9460  211.3020  153.4790 C   0  0  1  0  0  3  0  0  0  0  0  0
  159.5840  212.5300  153.9520 C   0  0  1  0  0  3  0  0  0  0  0  0
  160.0810  212.3660  155.3500 C   0  0  0  0  0  3  0  0  0  0  0  0
  161.0410  211.4640  155.4190 C   0  0  0  0  0  3  0  0  0  0  0  0
  158.1290  211.5860  152.3860 O   0  0  0  0  0  0  0  0  0  0  0  0
  158.4680  212.8910  152.0250 C   0  0  0  0  0  1  0  0  0  0  0  0
  161.0630  206.6260  151.3240 C   0  0  1  0  0  3  0  0  0  0  0  0
  162.1450  206.9930  150.4090 N   0  0  0  0  0  2  0  0  0  0  0  0
  161.9780  207.4520  149.0630 C   0  0  0  0  0  0  0  0  0  0  0  0
  160.8310  207.6500  148.5840 O   0  0  0  0  0  0  0  0  0  0  0  0
  163.1250  207.7020  148.2610 N   0  0  0  0  0  1  0  0  0  0  0  0
  160.7990  205.1110  151.3720 C   0  0  2  0  0  3  0  0  0  0  0  0
  161.7710  203.0180  152.0040 O   0  0  0  0  0  1  0  0  0  0  0  0
  162.0810  204.3260  151.6320 C   0  0  0  0  0  2  0  0  0  0  0  0
  160.0820  204.5980  150.1150 C   0  0  0  0  0  2  0  0  0  0  0  0
  161.0340  204.0750  149.0440 C   0  0  0  0  0  2  0  0  0  0  0  0
  160.7950  202.7220  148.8040 O   0  0  0  0  0  1  0  0  0  0  0  0
  2  4  1  6  0  0  0
  2  6  1  0  0  0  0
  2  9  1  0  0  0  0
  3  4  2  0  0  0  0
  4 12  1  0  0  0  0
  5  3  1  0  0  0  0
  5  7  2  0  0  0  0
  6 10  1  1  0  0  0
  7  6  1  0  0  0  0
  8  3  1  0  0  0  0
  9  1  1  0  0  0  0
 10  1  2  0  0  0  0
 11 13  1  0  0  0  0
 11 14  1  0  0  0  0
 11 12  1  0  0  0  0
 12 16  1  0  0  0  0
 13 14  1  0  0  0  0
 14 15  1  0  0  0  0
 15 16  2  0  0  0  0
 17 13  1  0  0  0  0
 18 17  1  0  0  0  0
 19 24  1  0  0  0  0
 19  5  1  0  0  0  0
 20 19  1  0  0  0  0
 21 20  1  0  0  0  0
 22 21  2  0  0  0  0
 23 21  1  0  0  0  0
 24 26  1  0  0  0  0
 26 25  1  0  0  0  0
 27 24  1  0  0  0  0
 28 27  1  0  0  0  0
 29 28  1  0  0  0  0
M  END
>  <MODEL>
5

>  <REMARK>
 VINA RESULT:      -5.7      2.584      5.522
  Name = 
  8 active torsions:
  status: ('A' for Active; 'I' for Inactive)
    1  A    between atoms: N_3  and  C_24
    2  A    between atoms: O_4  and  C_15
    3  A    between atoms: C_5  and  C_17
    4  A    between atoms: C_8  and  C_9
    5  A    between atoms: C_11  and  C_29
    6  A    between atoms: C_12  and  C_24
    7  A    between atoms: C_17  and  C_29
    8  A    between atoms: C_24  and  C_29
                            x       y       z     vdW  Elec       q    Type
                         _______ _______ _______ _____ _____    ______ ____

>  <TORSDO>
F 8

$$$$
=
 OpenBabel11052409553D

 29 32  0  0  1  0  0  0  0  0999 V2000
  162.1250  204.6790  152.4190 C   0  0  0  0  0  3  0  0  0  0  0  0
  161.6150  206.7170  151.8480 C   0  0  2  0  0  3  0  0  0  0  0  0
  161.4580  209.0030  152.5600 C   0  0  0  0  0  0  0  0  0  0  0  0
  161.8290  208.1500  151.5850 C   0  0  0  0  0  0  0  0  0  0  0  0
  160.9230  208.4730  153.8620 C   0  0  0  0  0  0  0  0  0  0  0  0
  160.5730  206.3070  152.8180 C   0  0  2  0  0  3  0  0  0  0  0  0
  160.6040  207.2090  153.9710 N   0  0  0  0  0  0  0  0  0  0  0  0
  161.6100  210.3730  152.3690 O   0  0  0  0  0  1  0  0  0  0  0  0
  162.4940  205.8020  151.6270 N   0  0  0  0  0  2  0  0  0  0  0  0
  161.0500  204.9360  153.1560 C   0  0  0  0  0  3  0  0  0  0  0  0
  162.5360  207.6690  149.2520 N   0  0  1  0  0  0  0  0  0  0  0  0
  162.5240  208.6610  150.3420 C   0  0  1  0  0  3  0  0  0  0  0  0
  161.1660  207.4050  148.7640 C   0  0  1  0  0  3  0  0  0  0  0  0
  162.0030  208.3860  148.0740 C   0  0  1  0  0  3  0  0  0  0  0  0
  161.6830  209.7710  148.5290 C   0  0  0  0  0  3  0  0  0  0  0  0
  161.9810  209.9410  149.8030 C   0  0  0  0  0  3  0  0  0  0  0  0
  161.1570  206.2080  148.0510 O   0  0  0  0  0  0  0  0  0  0  0  0
  162.3110  206.2570  147.2680 C   0  0  0  0  0  1  0  0  0  0  0  0
  160.9070  209.2990  155.1220 C   0  0  1  0  0  3  0  0  0  0  0  0
  159.5830  209.8740  155.3610 N   0  0  0  0  0  2  0  0  0  0  0  0
  159.2560  211.2670  155.2970 C   0  0  0  0  0  0  0  0  0  0  0  0
  160.1120  212.1170  154.9390 O   0  0  0  0  0  0  0  0  0  0  0  0
  157.9410  211.6930  155.6270 N   0  0  0  0  0  1  0  0  0  0  0  0
  161.5070  208.6230  156.3660 C   0  0  2  0  0  3  0  0  0  0  0  0
  160.4860  206.6330  157.2200 O   0  0  0  0  0  1  0  0  0  0  0  0
  160.4230  208.0260  157.2580 C   0  0  0  0  0  2  0  0  0  0  0  0
  162.4230  209.5620  157.1630 C   0  0  0  0  0  2  0  0  0  0  0  0
  163.0360  210.6740  156.3170 C   0  0  0  0  0  2  0  0  0  0  0  0
  164.1080  211.2590  156.9900 O   0  0  0  0  0  1  0  0  0  0  0  0
  1 10  2  0  0  0  0
  2  4  1  1  0  0  0
  2  6  1  0  0  0  0
  3  5  1  0  0  0  0
  4  3  2  0  0  0  0
  5  7  2  0  0  0  0
  5 19  1  0  0  0  0
  6 10  1  1  0  0  0
  6  7  1  0  0  0  0
  8  3  1  0  0  0  0
  9  2  1  0  0  0  0
  9  1  1  0  0  0  0
 11 12  1  0  0  0  0
 12  4  1  0  0  0  0
 13 11  1  0  0  0  0
 14 15  1  0  0  0  0
 14 13  1  0  0  0  0
 14 11  1  0  0  0  0
 15 16  2  0  0  0  0
 16 12  1  0  0  0  0
 17 13  1  0  0  0  0
 18 17  1  0  0  0  0
 19 20  1  0  0  0  0
 19 24  1  0  0  0  0
 21 20  1  0  0  0  0
 21 23  1  0  0  0  0
 22 21  2  0  0  0  0
 24 27  1  0  0  0  0
 24 26  1  0  0  0  0
 25 26  1  0  0  0  0
 28 29  1  0  0  0  0
 28 27  1  0  0  0  0
M  END
>  <MODEL>
6

>  <REMARK>
 VINA RESULT:      -5.6      2.944      8.266
  Name = 
  8 active torsions:
  status: ('A' for Active; 'I' for Inactive)
    1  A    between atoms: N_3  and  C_24
    2  A    between atoms: O_4  and  C_15
    3  A    between atoms: C_5  and  C_17
    4  A    between atoms: C_8  and  C_9
    5  A    between atoms: C_11  and  C_29
    6  A    between atoms: C_12  and  C_24
    7  A    between atoms: C_17  and  C_29
    8  A    between atoms: C_24  and  C_29
                            x       y       z     vdW  Elec       q    Type
                         _______ _______ _______ _____ _____    ______ ____

>  <TORSDO>
F 8

$$$$
=
 OpenBabel11052409553D

 29 32  0  0  1  0  0  0  0  0999 V2000
  160.3760  209.6670  156.2980 C   0  0  0  0  0  3  0  0  0  0  0  0
  160.3390  211.2710  154.8270 C   0  0  2  0  0  3  0  0  0  0  0  0
  160.2870  211.8320  152.4950 C   0  0  0  0  0  0  0  0  0  0  0  0
  159.8120  212.0970  153.7270 C   0  0  0  0  0  0  0  0  0  0  0  0
  161.2520  210.6970  152.2870 C   0  0  0  0  0  0  0  0  0  0  0  0
  161.6670  210.6320  154.6790 C   0  0  2  0  0  3  0  0  0  0  0  0
  161.8050  210.1120  153.3170 N   0  0  0  0  0  0  0  0  0  0  0  0
  159.8500  212.5890  151.4120 O   0  0  0  0  0  1  0  0  0  0  0  0
  159.6080  210.7240  155.7360 N   0  0  0  0  0  2  0  0  0  0  0  0
  161.5530  209.5460  155.6940 C   0  0  0  0  0  3  0  0  0  0  0  0
  157.3720  212.5630  153.6960 N   0  0  1  0  0  0  0  0  0  0  0  0
  158.7160  213.1220  153.9230 C   0  0  1  0  0  3  0  0  0  0  0  0
  157.0440  211.5460  154.7180 C   0  0  1  0  0  3  0  0  0  0  0  0
  156.5950  212.9260  154.9000 C   0  0  1  0  0  3  0  0  0  0  0  0
  157.5270  213.6730  155.7960 C   0  0  0  0  0  3  0  0  0  0  0  0
  158.7230  213.7980  155.2520 C   0  0  0  0  0  3  0  0  0  0  0  0
  155.9850  210.7630  154.2610 O   0  0  0  0  0  0  0  0  0  0  0  0
  155.3450  210.3280  155.4220 C   0  0  0  0  0  1  0  0  0  0  0  0
  161.4770  210.0690  150.9350 C   0  0  1  0  0  3  0  0  0  0  0  0
  162.3910  210.8730  150.1230 N   0  0  0  0  0  2  0  0  0  0  0  0
  162.0610  211.5130  148.8850 C   0  0  0  0  0  0  0  0  0  0  0  0
  160.8870  211.4840  148.4340 O   0  0  0  0  0  0  0  0  0  0  0  0
  163.0730  212.2030  148.1630 N   0  0  0  0  0  1  0  0  0  0  0  0
  161.8370  208.5740  150.9500 C   0  0  2  0  0  3  0  0  0  0  0  0
  160.8690  207.3210  149.1550 O   0  0  0  0  0  1  0  0  0  0  0  0
  162.0120  208.0240  149.5380 C   0  0  0  0  0  2  0  0  0  0  0  0
  160.8310  207.7330  151.7500 C   0  0  0  0  0  2  0  0  0  0  0  0
  161.4830  206.6300  152.5770 C   0  0  0  0  0  2  0  0  0  0  0  0
  160.9510  206.6130  153.8660 O   0  0  0  0  0  1  0  0  0  0  0  0
  2  4  1  6  0  0  0
  2  9  1  0  0  0  0
  3  4  2  0  0  0  0
  4 12  1  0  0  0  0
  5  3  1  0  0  0  0
  5  7  2  0  0  0  0
  6  2  1  0  0  0  0
  6 10  1  1  0  0  0
  7  6  1  0  0  0  0
  8  3  1  0  0  0  0
  9  1  1  0  0  0  0
 10  1  2  0  0  0  0
 11 12  1  0  0  0  0
 11 13  1  0  0  0  0
 11 14  1  0  0  0  0
 12 16  1  0  0  0  0
 13 14  1  0  0  0  0
 14 15  1  0  0  0  0
 16 15  2  0  0  0  0
 17 13  1  0  0  0  0
 17 18  1  0  0  0  0
 19 24  1  0  0  0  0
 19  5  1  0  0  0  0
 20 19  1  0  0  0  0
 21 20  1  0  0  0  0
 22 21  2  0  0  0  0
 23 21  1  0  0  0  0
 24 27  1  0  0  0  0
 25 26  1  0  0  0  0
 26 24  1  0  0  0  0
 27 28  1  0  0  0  0
 28 29  1  0  0  0  0
M  END
>  <MODEL>
7

>  <REMARK>
 VINA RESULT:      -5.4      4.444      7.605
  Name = 
  8 active torsions:
  status: ('A' for Active; 'I' for Inactive)
    1  A    between atoms: N_3  and  C_24
    2  A    between atoms: O_4  and  C_15
    3  A    between atoms: C_5  and  C_17
    4  A    between atoms: C_8  and  C_9
    5  A    between atoms: C_11  and  C_29
    6  A    between atoms: C_12  and  C_24
    7  A    between atoms: C_17  and  C_29
    8  A    between atoms: C_24  and  C_29
                            x       y       z     vdW  Elec       q    Type
                         _______ _______ _______ _____ _____    ______ ____

>  <TORSDO>
F 8

$$$$
=
 OpenBabel11052409553D

 29 32  0  0  1  0  0  0  0  0999 V2000
  161.2940  202.4360  150.3320 C   0  0  0  0  0  3  0  0  0  0  0  0
  161.1340  204.1480  148.9970 C   0  0  2  0  0  3  0  0  0  0  0  0
  161.5880  206.4840  148.6940 C   0  0  0  0  0  0  0  0  0  0  0  0
  161.5970  205.2550  148.1430 C   0  0  0  0  0  0  0  0  0  0  0  0
  161.1860  206.6630  150.1320 C   0  0  0  0  0  0  0  0  0  0  0  0
  160.2120  204.4370  150.1200 C   0  0  2  0  0  3  0  0  0  0  0  0
  160.6310  205.6740  150.7830 N   0  0  0  0  0  0  0  0  0  0  0  0
  161.9900  207.5800  147.9370 O   0  0  0  0  0  1  0  0  0  0  0  0
  161.7490  203.0220  149.1190 N   0  0  0  0  0  2  0  0  0  0  0  0
  160.4400  203.2320  150.9670 C   0  0  0  0  0  3  0  0  0  0  0  0
  162.1570  203.6220  146.3570 N   0  0  1  0  0  0  0  0  0  0  0  0
  162.1600  205.0410  146.7550 C   0  0  1  0  0  3  0  0  0  0  0  0
  160.7750  203.1150  146.2210 C   0  0  1  0  0  3  0  0  0  0  0  0
  161.4880  203.5940  145.0380 C   0  0  1  0  0  3  0  0  0  0  0  0
  161.1100  205.0040  144.7250 C   0  0  0  0  0  3  0  0  0  0  0  0
  161.4920  205.8300  145.6810 C   0  0  0  0  0  3  0  0  0  0  0  0
  160.7930  201.7210  146.2510 O   0  0  0  0  0  0  0  0  0  0  0  0
  160.0770  201.3380  145.1160 C   0  0  0  0  0  1  0  0  0  0  0  0
  161.5620  207.8860  150.9280 C   0  0  1  0  0  3  0  0  0  0  0  0
  161.5830  209.0810  150.0830 N   0  0  0  0  0  2  0  0  0  0  0  0
  162.3290  210.2750  150.3470 C   0  0  0  0  0  0  0  0  0  0  0  0
  163.1110  210.3450  151.3300 O   0  0  0  0  0  0  0  0  0  0  0  0
  162.1960  211.3900  149.4760 N   0  0  0  0  0  1  0  0  0  0  0  0
  160.7880  208.0870  152.2420 C   0  0  2  0  0  3  0  0  0  0  0  0
  160.3210  209.8960  153.7380 O   0  0  0  0  0  1  0  0  0  0  0  0
  160.3030  209.5260  152.3930 C   0  0  0  0  0  2  0  0  0  0  0  0
  161.5910  207.6420  153.4720 C   0  0  0  0  0  2  0  0  0  0  0  0
  160.9160  206.5290  154.2680 C   0  0  0  0  0  2  0  0  0  0  0  0
  160.2980  207.0530  155.4030 O   0  0  0  0  0  1  0  0  0  0  0  0
  1 10  2  0  0  0  0
  2  4  1  1  0  0  0
  2  9  1  0  0  0  0
  2  6  1  0  0  0  0
  3  5  1  0  0  0  0
  4  3  2  0  0  0  0
  5  7  2  0  0  0  0
  5 19  1  0  0  0  0
  6  7  1  0  0  0  0
  6 10  1  1  0  0  0
  8  3  1  0  0  0  0
  9  1  1  0  0  0  0
 11 12  1  0  0  0  0
 12  4  1  0  0  0  0
 13 17  1  0  0  0  0
 13 11  1  0  0  0  0
 14 13  1  0  0  0  0
 14 11  1  0  0  0  0
 15 14  1  0  0  0  0
 15 16  2  0  0  0  0
 16 12  1  0  0  0  0
 18 17  1  0  0  0  0
 19 24  1  0  0  0  0
 20 21  1  0  0  0  0
 20 19  1  0  0  0  0
 21 22  2  0  0  0  0
 23 21  1  0  0  0  0
 24 26  1  0  0  0  0
 24 27  1  0  0  0  0
 26 25  1  0  0  0  0
 27 28  1  0  0  0  0
 28 29  1  0  0  0  0
M  END
>  <MODEL>
8

>  <REMARK>
 VINA RESULT:      -5.4      2.039      7.823
  Name = 
  8 active torsions:
  status: ('A' for Active; 'I' for Inactive)
    1  A    between atoms: N_3  and  C_24
    2  A    between atoms: O_4  and  C_15
    3  A    between atoms: C_5  and  C_17
    4  A    between atoms: C_8  and  C_9
    5  A    between atoms: C_11  and  C_29
    6  A    between atoms: C_12  and  C_24
    7  A    between atoms: C_17  and  C_29
    8  A    between atoms: C_24  and  C_29
                            x       y       z     vdW  Elec       q    Type
                         _______ _______ _______ _____ _____    ______ ____

>  <TORSDO>
F 8

$$$$
=
 OpenBabel11052409553D

 29 32  0  0  1  0  0  0  0  0999 V2000
  160.8270  206.2930  146.7510 C   0  0  0  0  0  3  0  0  0  0  0  0
  161.3280  206.0670  148.8580 C   0  0  2  0  0  3  0  0  0  0  0  0
  161.4210  207.1290  151.0060 C   0  0  0  0  0  0  0  0  0  0  0  0
  161.1030  206.0190  150.3120 C   0  0  0  0  0  0  0  0  0  0  0  0
  161.9110  208.3550  150.2860 C   0  0  0  0  0  0  0  0  0  0  0  0
  162.3360  207.0050  148.3110 C   0  0  2  0  0  3  0  0  0  0  0  0
  162.2440  208.2810  149.0240 N   0  0  0  0  0  0  0  0  0  0  0  0
  161.2560  207.1460  152.3880 O   0  0  0  0  0  1  0  0  0  0  0  0
  160.4730  205.6690  147.9800 N   0  0  0  0  0  2  0  0  0  0  0  0
  161.8680  207.1060  146.9010 C   0  0  0  0  0  3  0  0  0  0  0  0
  160.1440  203.7400  150.0750 N   0  0  1  0  0  0  0  0  0  0  0  0
  160.4510  204.8420  151.0030 C   0  0  1  0  0  3  0  0  0  0  0  0
  161.3840  203.1440  149.5340 C   0  0  1  0  0  3  0  0  0  0  0  0
  160.7370  202.5360  150.6960 C   0  0  1  0  0  3  0  0  0  0  0  0
  161.3850  202.9890  151.9630 C   0  0  0  0  0  3  0  0  0  0  0  0
  161.2220  204.2850  152.1520 C   0  0  0  0  0  3  0  0  0  0  0  0
  161.0790  202.4120  148.3880 O   0  0  0  0  0  0  0  0  0  0  0  0
  161.2070  201.0790  148.7800 C   0  0  0  0  0  1  0  0  0  0  0  0
  161.8620  209.7270  150.9070 C   0  0  1  0  0  3  0  0  0  0  0  0
  161.2490  210.6980  149.9990 N   0  0  0  0  0  2  0  0  0  0  0  0
  161.9560  211.5520  149.0920 C   0  0  0  0  0  0  0  0  0  0  0  0
  163.2040  211.4630  148.9590 O   0  0  0  0  0  0  0  0  0  0  0  0
  161.2350  212.5030  148.3200 N   0  0  0  0  0  1  0  0  0  0  0  0
  161.2920  209.7900  152.3340 C   0  0  2  0  0  3  0  0  0  0  0  0
  160.2380  211.8700  152.8740 O   0  0  0  0  0  1  0  0  0  0  0  0
  159.9920  210.5860  152.3850 C   0  0  0  0  0  2  0  0  0  0  0  0
  162.3090  210.3270  153.3510 C   0  0  0  0  0  2  0  0  0  0  0  0
  162.0210  209.8930  154.7850 C   0  0  0  0  0  2  0  0  0  0  0  0
  161.8980  211.0090  155.6120 O   0  0  0  0  0  1  0  0  0  0  0  0
  1 10  2  0  0  0  0
  1  9  1  0  0  0  0
  2  9  1  6  0  0  0
  2  4  1  0  0  0  0
  3  8  1  0  0  0  0
  4 12  1  0  0  0  0
  4  3  2  0  0  0  0
  5 19  1  0  0  0  0
  5  3  1  0  0  0  0
  6 10  1  6  0  0  0
  6  2  1  0  0  0  0
  6  7  1  0  0  0  0
  7  5  2  0  0  0  0
 11 14  1  0  0  0  0
 11 12  1  0  0  0  0
 12 16  1  0  0  0  0
 13 11  1  0  0  0  0
 13 14  1  0  0  0  0
 14 15  1  0  0  0  0
 15 16  2  0  0  0  0
 17 18  1  0  0  0  0
 17 13  1  0  0  0  0
 19 24  1  0  0  0  0
 20 19  1  0  0  0  0
 21 20  1  0  0  0  0
 22 21  2  0  0  0  0
 23 21  1  0  0  0  0
 24 26  1  0  0  0  0
 24 27  1  0  0  0  0
 26 25  1  0  0  0  0
 27 28  1  0  0  0  0
 28 29  1  0  0  0  0
M  END
>  <MODEL>
9

>  <REMARK>
 VINA RESULT:      -5.3      2.246      7.310
  Name = 
  8 active torsions:
  status: ('A' for Active; 'I' for Inactive)
    1  A    between atoms: N_3  and  C_24
    2  A    between atoms: O_4  and  C_15
    3  A    between atoms: C_5  and  C_17
    4  A    between atoms: C_8  and  C_9
    5  A    between atoms: C_11  and  C_29
    6  A    between atoms: C_12  and  C_24
    7  A    between atoms: C_17  and  C_29
    8  A    between atoms: C_24  and  C_29
                            x       y       z     vdW  Elec       q    Type
                         _______ _______ _______ _____ _____    ______ ____

>  <TORSDO>
F 8

$$$$
