=
 OpenBabel11052410153D

 25 28  0  0  1  0  0  0  0  0999 V2000
  161.3250  207.4340  150.0540 C   0  0  0  0  0  0  0  0  0  0  0  0
  161.0060  207.1060  152.4680 C   0  0  0  0  0  0  0  0  0  0  0  0
  161.2820  206.0480  149.8840 C   0  0  0  0  0  3  0  0  0  0  0  0
  161.1840  207.9720  151.3620 C   0  0  0  0  0  0  0  0  0  0  0  0
  161.1050  205.1860  150.9690 C   0  0  0  0  0  0  0  0  0  0  0  0
  161.2160  209.3490  151.5640 O   0  0  0  0  0  1  0  0  0  0  0  0
  160.9690  205.7230  152.2490 C   0  0  0  0  0  3  0  0  0  0  0  0
  160.7280  200.7340  149.2360 O   0  0  0  0  0  0  0  0  0  0  0  0
  161.2810  202.7880  151.8370 N   0  0  0  0  0  0  0  0  0  0  0  0
  160.8920  201.7170  150.0030 C   0  0  0  0  0  0  0  0  0  0  0  0
  160.8150  203.1150  149.6180 C   0  0  0  0  0  3  0  0  0  0  0  0
  161.1830  201.6070  151.3840 N   0  0  0  0  0  0  0  0  0  0  0  0
  161.0610  203.7260  150.7780 C   0  0  0  0  0  0  0  0  0  0  0  0
  161.5340  208.2340  148.7870 C   0  0  2  0  0  3  0  0  0  0  0  0
  161.7940  207.3530  147.6120 N   0  0  0  0  0  0  0  0  0  0  0  0
  162.3270  205.9120  145.6860 N   0  0  0  0  0  1  0  0  0  0  0  0
  161.3820  206.4240  146.6160 C   0  0  0  0  0  0  0  0  0  0  0  0
  162.8270  208.1850  148.3040 C   0  0  0  0  0  2  0  0  0  0  0  0
  160.1820  206.0530  146.5620 O   0  0  0  0  0  0  0  0  0  0  0  0
  160.4070  207.5620  156.1350 N   0  0  0  0  0  0  0  0  0  0  0  0
  160.7500  208.8550  155.9630 C   0  0  0  0  0  0  0  0  0  0  0  0
  161.1390  209.1840  154.3660 S   0  0  0  0  0  0  0  0  0  0  0  0
  160.4620  206.8570  154.9730 C   0  0  0  0  0  3  0  0  0  0  0  0
  160.7820  210.0310  157.2590 Cl  0  0  0  0  0  0  0  0  0  0  0  0
  160.8560  207.5990  153.8590 C   0  0  0  0  0  0  0  0  0  0  0  0
  1  4  1  0  0  0  0
  2 25  1  0  0  0  0
  3  1  2  0  0  0  0
  3  5  1  0  0  0  0
  4  6  1  0  0  0  0
  4  2  2  0  0  0  0
  5  7  2  0  0  0  0
  7  2  1  0  0  0  0
  8 10  2  0  0  0  0
 10 12  1  0  0  0  0
 11 10  1  0  0  0  0
 11 13  2  0  0  0  0
 12  9  2  0  0  0  0
 13  5  1  0  0  0  0
 13  9  1  0  0  0  0
 14  1  1  1  0  0  0
 15 18  1  0  0  0  0
 15 14  1  0  0  0  0
 16 17  1  0  0  0  0
 17 15  1  0  0  0  0
 18 14  1  0  0  0  0
 19 17  2  0  0  0  0
 21 20  2  0  0  0  0
 21 24  1  0  0  0  0
 22 21  1  0  0  0  0
 23 20  1  0  0  0  0
 25 22  1  0  0  0  0
 25 23  2  0  0  0  0
M  END
>  <MODEL>
1

>  <REMARK>
 VINA RESULT:      -8.4      0.000      0.000
  Name = 
  3 active torsions:
  status: ('A' for Active; 'I' for Inactive)
    1  A    between atoms: C_3  and  C_4
    2  A    between atoms: C_6  and  C_21
    3  A    between atoms: C_17  and  C_23
                            x       y       z     vdW  Elec       q    Type
                         _______ _______ _______ _____ _____    ______ ____

>  <TORSDO>
F 3

$$$$
=
 OpenBabel11052410153D

 25 28  0  0  1  0  0  0  0  0999 V2000
  161.5350  204.7520  150.8760 C   0  0  0  0  0  0  0  0  0  0  0  0
  161.3570  207.1990  150.7470 C   0  0  0  0  0  0  0  0  0  0  0  0
  161.3870  204.6910  149.4880 C   0  0  0  0  0  3  0  0  0  0  0  0
  161.5210  206.0210  151.5160 C   0  0  0  0  0  0  0  0  0  0  0  0
  161.2270  205.8490  148.7220 C   0  0  0  0  0  0  0  0  0  0  0  0
  161.6720  206.1130  152.8970 O   0  0  0  0  0  1  0  0  0  0  0  0
  161.2130  207.0900  149.3590 C   0  0  0  0  0  3  0  0  0  0  0  0
  161.5260  204.7540  144.0660 O   0  0  0  0  0  0  0  0  0  0  0  0
  160.1850  206.6180  146.5180 N   0  0  0  0  0  0  0  0  0  0  0  0
  161.2030  205.2850  145.1590 C   0  0  0  0  0  0  0  0  0  0  0  0
  161.7300  204.9280  146.4640 C   0  0  0  0  0  3  0  0  0  0  0  0
  160.2590  206.3320  145.2840 N   0  0  0  0  0  0  0  0  0  0  0  0
  161.0730  205.7750  147.2580 C   0  0  0  0  0  0  0  0  0  0  0  0
  161.6870  203.4140  151.5670 C   0  0  2  0  0  3  0  0  0  0  0  0
  160.8460  202.3610  150.9270 N   0  0  0  0  0  0  0  0  0  0  0  0
  159.3850  200.6390  149.9430 N   0  0  0  0  0  1  0  0  0  0  0  0
  160.5450  201.4570  149.8710 C   0  0  0  0  0  0  0  0  0  0  0  0
  160.5550  203.0060  152.2450 C   0  0  0  0  0  2  0  0  0  0  0  0
  161.3040  201.3850  148.8700 O   0  0  0  0  0  0  0  0  0  0  0  0
  161.8060  210.8060  151.6430 N   0  0  0  0  0  0  0  0  0  0  0  0
  160.9780  210.5830  152.6830 C   0  0  0  0  0  0  0  0  0  0  0  0
  160.4560  208.9900  152.7280 S   0  0  0  0  0  0  0  0  0  0  0  0
  162.0090  209.6860  150.8980 C   0  0  0  0  0  3  0  0  0  0  0  0
  160.5130  211.8150  153.8350 Cl  0  0  0  0  0  0  0  0  0  0  0  0
  161.3300  208.5540  151.3500 C   0  0  0  0  0  0  0  0  0  0  0  0
  1  4  1  0  0  0  0
  2 25  1  0  0  0  0
  2  4  2  0  0  0  0
  3  1  2  0  0  0  0
  4  6  1  0  0  0  0
  5  7  2  0  0  0  0
  5  3  1  0  0  0  0
  7  2  1  0  0  0  0
  8 10  2  0  0  0  0
  9 13  1  0  0  0  0
 10 12  1  0  0  0  0
 10 11  1  0  0  0  0
 11 13  2  0  0  0  0
 12  9  2  0  0  0  0
 13  5  1  0  0  0  0
 14  1  1  6  0  0  0
 14 18  1  0  0  0  0
 15 14  1  0  0  0  0
 15 18  1  0  0  0  0
 17 16  1  0  0  0  0
 17 15  1  0  0  0  0
 19 17  2  0  0  0  0
 20 21  2  0  0  0  0
 21 22  1  0  0  0  0
 21 24  1  0  0  0  0
 23 25  2  0  0  0  0
 23 20  1  0  0  0  0
 25 22  1  0  0  0  0
M  END
>  <MODEL>
2

>  <REMARK>
 VINA RESULT:      -8.3      2.346      4.872
  Name = 
  3 active torsions:
  status: ('A' for Active; 'I' for Inactive)
    1  A    between atoms: C_3  and  C_4
    2  A    between atoms: C_6  and  C_21
    3  A    between atoms: C_17  and  C_23
                            x       y       z     vdW  Elec       q    Type
                         _______ _______ _______ _____ _____    ______ ____

>  <TORSDO>
F 3

$$$$
=
 OpenBabel11052410153D

 25 28  0  0  1  0  0  0  0  0999 V2000
  162.0710  209.9430  149.5050 C   0  0  0  0  0  0  0  0  0  0  0  0
  161.5160  208.1000  151.0320 C   0  0  0  0  0  0  0  0  0  0  0  0
  161.9810  209.0520  148.4330 C   0  0  0  0  0  3  0  0  0  0  0  0
  161.8350  209.4640  150.8220 C   0  0  0  0  0  0  0  0  0  0  0  0
  161.6650  207.7050  148.6310 C   0  0  0  0  0  0  0  0  0  0  0  0
  161.9110  210.3290  151.9100 O   0  0  0  0  0  1  0  0  0  0  0  0
  161.4360  207.2430  149.9270 C   0  0  0  0  0  3  0  0  0  0  0  0
  162.4070  204.3130  145.3290 O   0  0  0  0  0  0  0  0  0  0  0  0
  160.4590  206.7400  146.5940 N   0  0  0  0  0  0  0  0  0  0  0  0
  161.9010  205.2450  146.0030 C   0  0  0  0  0  0  0  0  0  0  0  0
  162.4970  205.8660  147.1730 C   0  0  0  0  0  2  0  0  0  0  0  0
  160.6500  205.8430  145.7170 N   0  0  0  0  0  2  0  0  0  0  0  0
  161.5720  206.7730  147.4940 C   0  0  0  0  0  0  0  0  0  0  0  0
  162.4330  211.3650  149.1330 C   0  0  2  0  0  3  0  0  0  0  0  0
  161.2430  212.2630  149.1570 N   0  0  0  0  0  0  0  0  0  0  0  0
  159.2670  213.7350  149.0940 N   0  0  0  0  0  1  0  0  0  0  0  0
  160.2340  213.0030  149.8350 C   0  0  0  0  0  0  0  0  0  0  0  0
  161.9190  211.7700  147.9180 C   0  0  0  0  0  2  0  0  0  0  0  0
  160.1950  213.0040  151.0930 O   0  0  0  0  0  0  0  0  0  0  0  0
  161.1270  205.9580  154.0770 N   0  0  0  0  0  0  0  0  0  0  0  0
  160.7000  207.0630  154.7190 C   0  0  0  0  0  0  0  0  0  0  0  0
  160.6900  208.4020  153.7090 S   0  0  0  0  0  0  0  0  0  0  0  0
  161.4410  206.2080  152.7770 C   0  0  0  0  0  3  0  0  0  0  0  0
  160.2180  207.0830  156.4020 Cl  0  0  0  0  0  0  0  0  0  0  0  0
  161.2600  207.5320  152.3790 C   0  0  0  0  0  0  0  0  0  0  0  0
  1  4  1  0  0  0  0
  2 25  1  0  0  0  0
  3  5  1  0  0  0  0
  3  1  2  0  0  0  0
  4  2  2  0  0  0  0
  4  6  1  0  0  0  0
  5  7  2  0  0  0  0
  7  2  1  0  0  0  0
  8 10  2  0  0  0  0
  9 13  2  0  0  0  0
 10 11  1  0  0  0  0
 11 13  1  0  0  0  0
 12 10  1  0  0  0  0
 12  9  1  0  0  0  0
 13  5  1  0  0  0  0
 14 15  1  0  0  0  0
 14  1  1  6  0  0  0
 15 17  1  0  0  0  0
 16 17  1  0  0  0  0
 17 19  2  0  0  0  0
 18 14  1  0  0  0  0
 18 15  1  0  0  0  0
 20 21  2  0  0  0  0
 21 24  1  0  0  0  0
 22 21  1  0  0  0  0
 23 20  1  0  0  0  0
 25 23  2  0  0  0  0
 25 22  1  0  0  0  0
M  END
>  <MODEL>
3

>  <REMARK>
 VINA RESULT:      -7.7      2.757      4.590
  Name = 
  3 active torsions:
  status: ('A' for Active; 'I' for Inactive)
    1  A    between atoms: C_3  and  C_4
    2  A    between atoms: C_6  and  C_21
    3  A    between atoms: C_17  and  C_23
                            x       y       z     vdW  Elec       q    Type
                         _______ _______ _______ _____ _____    ______ ____

>  <TORSDO>
F 3

$$$$
=
 OpenBabel11052410153D

 25 28  0  0  1  0  0  0  0  0999 V2000
  161.9440  210.0880  150.0990 C   0  0  0  0  0  0  0  0  0  0  0  0
  161.2310  208.7040  152.0000 C   0  0  0  0  0  0  0  0  0  0  0  0
  161.9290  208.9470  149.2930 C   0  0  0  0  0  3  0  0  0  0  0  0
  161.5900  209.9680  151.4700 C   0  0  0  0  0  0  0  0  0  0  0  0
  161.5750  207.6970  149.8070 C   0  0  0  0  0  0  0  0  0  0  0  0
  161.5890  211.0870  152.2970 O   0  0  0  0  0  1  0  0  0  0  0  0
  161.2300  207.5880  151.1540 C   0  0  0  0  0  3  0  0  0  0  0  0
  161.1340  203.2850  147.9900 O   0  0  0  0  0  0  0  0  0  0  0  0
  161.9660  206.5130  147.5750 N   0  0  0  0  0  0  0  0  0  0  0  0
  161.3650  204.5130  148.1240 C   0  0  0  0  0  0  0  0  0  0  0  0
  161.1800  205.2830  149.3410 C   0  0  0  0  0  3  0  0  0  0  0  0
  161.8500  205.3470  147.0880 N   0  0  0  0  0  0  0  0  0  0  0  0
  161.5620  206.5000  148.9480 C   0  0  0  0  0  0  0  0  0  0  0  0
  162.3600  211.3650  149.4020 C   0  0  2  0  0  3  0  0  0  0  0  0
  161.1980  212.2710  149.1660 N   0  0  0  0  0  0  0  0  0  0  0  0
  159.2720  213.7290  148.6800 N   0  0  0  0  0  1  0  0  0  0  0  0
  160.1960  213.1780  149.6100 C   0  0  0  0  0  0  0  0  0  0  0  0
  161.8890  211.4710  148.1080 C   0  0  0  0  0  2  0  0  0  0  0  0
  160.1250  213.4900  150.8260 O   0  0  0  0  0  0  0  0  0  0  0  0
  160.1060  209.0200  155.5560 N   0  0  0  0  0  0  0  0  0  0  0  0
  160.3640  207.7030  155.6860 C   0  0  0  0  0  0  0  0  0  0  0  0
  160.9360  207.0410  154.2550 S   0  0  0  0  0  0  0  0  0  0  0  0
  160.3750  209.4750  154.3030 C   0  0  0  0  0  3  0  0  0  0  0  0
  160.1250  206.8090  157.1710 Cl  0  0  0  0  0  0  0  0  0  0  0  0
  160.8540  208.5060  153.4210 C   0  0  0  0  0  0  0  0  0  0  0  0
  1  4  1  0  0  0  0
  2 25  1  0  0  0  0
  3  5  1  0  0  0  0
  3  1  2  0  0  0  0
  4  2  2  0  0  0  0
  4  6  1  0  0  0  0
  5  7  2  0  0  0  0
  7  2  1  0  0  0  0
  8 10  2  0  0  0  0
  9 13  1  0  0  0  0
 10 11  1  0  0  0  0
 12  9  2  0  0  0  0
 12 10  1  0  0  0  0
 13 11  2  0  0  0  0
 13  5  1  0  0  0  0
 14  1  1  1  0  0  0
 15 14  1  0  0  0  0
 15 17  1  0  0  0  0
 16 17  1  0  0  0  0
 17 19  2  0  0  0  0
 18 15  1  0  0  0  0
 18 14  1  0  0  0  0
 20 21  2  0  0  0  0
 21 24  1  0  0  0  0
 22 21  1  0  0  0  0
 23 20  1  0  0  0  0
 25 22  1  0  0  0  0
 25 23  2  0  0  0  0
M  END
>  <MODEL>
4

>  <REMARK>
 VINA RESULT:      -7.6      2.827      4.136
  Name = 
  3 active torsions:
  status: ('A' for Active; 'I' for Inactive)
    1  A    between atoms: C_3  and  C_4
    2  A    between atoms: C_6  and  C_21
    3  A    between atoms: C_17  and  C_23
                            x       y       z     vdW  Elec       q    Type
                         _______ _______ _______ _____ _____    ______ ____

>  <TORSDO>
F 3

$$$$
=
 OpenBabel11052410153D

 25 28  0  0  1  0  0  0  0  0999 V2000
  161.1880  208.6510  153.6190 C   0  0  0  0  0  0  0  0  0  0  0  0
  161.1990  206.8680  151.9280 C   0  0  0  0  0  0  0  0  0  0  0  0
  161.4110  209.5840  152.6030 C   0  0  0  0  0  3  0  0  0  0  0  0
  161.0790  207.2750  153.2800 C   0  0  0  0  0  0  0  0  0  0  0  0
  161.5290  209.1910  151.2670 C   0  0  0  0  0  0  0  0  0  0  0  0
  160.8500  206.3230  154.2690 O   0  0  0  0  0  1  0  0  0  0  0  0
  161.4220  207.8380  150.9430 C   0  0  0  0  0  3  0  0  0  0  0  0
  161.9500  213.1730  148.6350 O   0  0  0  0  0  0  0  0  0  0  0  0
  162.2180  209.8340  148.8910 N   0  0  0  0  0  0  0  0  0  0  0  0
  161.9560  211.9740  149.0120 C   0  0  0  0  0  0  0  0  0  0  0  0
  161.5840  211.4980  150.3330 C   0  0  0  0  0  2  0  0  0  0  0  0
  162.3320  210.8850  148.1890 N   0  0  0  0  0  2  0  0  0  0  0  0
  161.7640  210.1820  150.2030 C   0  0  0  0  0  0  0  0  0  0  0  0
  161.0940  209.2280  155.0150 C   0  0  2  0  0  3  0  0  0  0  0  0
  160.5130  210.6010  155.0080 N   0  0  0  0  0  0  0  0  0  0  0  0
  159.6500  212.9090  155.0010 N   0  0  0  0  0  1  0  0  0  0  0  0
  159.4280  211.5110  154.8710 C   0  0  0  0  0  0  0  0  0  0  0  0
  161.9560  210.2830  155.2400 C   0  0  0  0  0  2  0  0  0  0  0  0
  158.2720  211.0780  154.6290 O   0  0  0  0  0  0  0  0  0  0  0  0
  161.0740  203.1360  151.6690 N   0  0  0  0  0  0  0  0  0  0  0  0
  160.8640  203.3000  150.3470 C   0  0  0  0  0  0  0  0  0  0  0  0
  160.8310  204.9220  149.9240 S   0  0  0  0  0  0  0  0  0  0  0  0
  161.2060  204.3230  152.3200 C   0  0  0  0  0  3  0  0  0  0  0  0
  160.6540  201.9740  149.2250 Cl  0  0  0  0  0  0  0  0  0  0  0  0
  161.0990  205.4500  151.5050 C   0  0  0  0  0  0  0  0  0  0  0  0
  2  4  2  0  0  0  0
  3  1  2  0  0  0  0
  4  1  1  0  0  0  0
  4  6  1  0  0  0  0
  5  3  1  0  0  0  0
  7  5  2  0  0  0  0
  7  2  1  0  0  0  0
  8 10  2  0  0  0  0
  9 13  2  0  0  0  0
 10 11  1  0  0  0  0
 12  9  1  0  0  0  0
 12 10  1  0  0  0  0
 13 11  1  0  0  0  0
 13  5  1  0  0  0  0
 14  1  1  6  0  0  0
 14 18  1  0  0  0  0
 15 14  1  0  0  0  0
 15 18  1  0  0  0  0
 17 16  1  0  0  0  0
 17 15  1  0  0  0  0
 19 17  2  0  0  0  0
 20 23  1  0  0  0  0
 21 20  2  0  0  0  0
 22 21  1  0  0  0  0
 22 25  1  0  0  0  0
 24 21  1  0  0  0  0
 25  2  1  0  0  0  0
 25 23  2  0  0  0  0
M  END
>  <MODEL>
5

>  <REMARK>
 VINA RESULT:      -7.4      3.970      7.487
  Name = 
  3 active torsions:
  status: ('A' for Active; 'I' for Inactive)
    1  A    between atoms: C_3  and  C_4
    2  A    between atoms: C_6  and  C_21
    3  A    between atoms: C_17  and  C_23
                            x       y       z     vdW  Elec       q    Type
                         _______ _______ _______ _____ _____    ______ ____

>  <TORSDO>
F 3

$$$$
=
 OpenBabel11052410153D

 25 28  0  0  1  0  0  0  0  0999 V2000
  161.9590  209.5910  150.4290 C   0  0  0  0  0  0  0  0  0  0  0  0
  161.4220  207.1970  150.2960 C   0  0  0  0  0  0  0  0  0  0  0  0
  161.5830  209.5770  151.7740 C   0  0  0  0  0  3  0  0  0  0  0  0
  161.8790  208.3860  149.6780 C   0  0  0  0  0  0  0  0  0  0  0  0
  161.1320  208.4070  152.3920 C   0  0  0  0  0  0  0  0  0  0  0  0
  162.2530  208.3670  148.3370 O   0  0  0  0  0  1  0  0  0  0  0  0
  161.0560  207.2300  151.6480 C   0  0  0  0  0  3  0  0  0  0  0  0
  160.0240  207.2360  156.9050 O   0  0  0  0  0  0  0  0  0  0  0  0
  160.3910  209.5880  154.5350 N   0  0  0  0  0  0  0  0  0  0  0  0
  160.2390  207.8810  155.8470 C   0  0  0  0  0  0  0  0  0  0  0  0
  160.6600  207.3140  154.5790 C   0  0  0  0  0  3  0  0  0  0  0  0
  160.0970  209.2840  155.7310 N   0  0  0  0  0  0  0  0  0  0  0  0
  160.7380  208.4030  153.8120 C   0  0  0  0  0  0  0  0  0  0  0  0
  162.4140  210.9340  149.9000 C   0  0  2  0  0  3  0  0  0  0  0  0
  161.2760  211.8890  149.7630 N   0  0  0  0  0  0  0  0  0  0  0  0
  159.3910  213.4420  149.4360 N   0  0  0  0  0  1  0  0  0  0  0  0
  160.2880  212.7590  150.3020 C   0  0  0  0  0  0  0  0  0  0  0  0
  161.9660  211.2090  148.6230 C   0  0  0  0  0  2  0  0  0  0  0  0
  160.2050  212.9200  151.5470 O   0  0  0  0  0  0  0  0  0  0  0  0
  161.2640  204.4160  147.7950 N   0  0  0  0  0  0  0  0  0  0  0  0
  161.0620  203.5810  148.8340 C   0  0  0  0  0  0  0  0  0  0  0  0
  161.0460  204.4040  150.2950 S   0  0  0  0  0  0  0  0  0  0  0  0
  161.4040  205.7090  148.1940 C   0  0  0  0  0  3  0  0  0  0  0  0
  160.8430  201.8530  148.6620 Cl  0  0  0  0  0  0  0  0  0  0  0  0
  161.3110  205.9060  149.5720 C   0  0  0  0  0  0  0  0  0  0  0  0
  1  3  1  0  0  0  0
  2  7  2  0  0  0  0
  3  5  2  0  0  0  0
  4  2  1  0  0  0  0
  4  1  2  0  0  0  0
  5 13  1  0  0  0  0
  6  4  1  0  0  0  0
  7  5  1  0  0  0  0
  9 12  2  0  0  0  0
 10  8  2  0  0  0  0
 11 10  1  0  0  0  0
 12 10  1  0  0  0  0
 13  9  1  0  0  0  0
 13 11  2  0  0  0  0
 14  1  1  1  0  0  0
 15 14  1  0  0  0  0
 15 17  1  0  0  0  0
 16 17  1  0  0  0  0
 17 19  2  0  0  0  0
 18 15  1  0  0  0  0
 18 14  1  0  0  0  0
 20 23  1  0  0  0  0
 20 21  2  0  0  0  0
 21 22  1  0  0  0  0
 23 25  2  0  0  0  0
 24 21  1  0  0  0  0
 25 22  1  0  0  0  0
 25  2  1  0  0  0  0
M  END
>  <MODEL>
6

>  <REMARK>
 VINA RESULT:      -7.4      3.945      6.627
  Name = 
  3 active torsions:
  status: ('A' for Active; 'I' for Inactive)
    1  A    between atoms: C_3  and  C_4
    2  A    between atoms: C_6  and  C_21
    3  A    between atoms: C_17  and  C_23
                            x       y       z     vdW  Elec       q    Type
                         _______ _______ _______ _____ _____    ______ ____

>  <TORSDO>
F 3

$$$$
=
 OpenBabel11052410153D

 25 28  0  0  1  0  0  0  0  0999 V2000
  161.9820  207.6280  150.6540 C   0  0  0  0  0  0  0  0  0  0  0  0
  161.9450  209.3490  148.9000 C   0  0  0  0  0  0  0  0  0  0  0  0
  161.7700  206.6570  149.6730 C   0  0  0  0  0  3  0  0  0  0  0  0
  162.0720  208.9930  150.2650 C   0  0  0  0  0  0  0  0  0  0  0  0
  161.6440  207.0000  148.3240 C   0  0  0  0  0  0  0  0  0  0  0  0
  162.2900  209.9830  151.2190 O   0  0  0  0  0  1  0  0  0  0  0  0
  161.7330  208.3410  147.9510 C   0  0  0  0  0  3  0  0  0  0  0  0
  161.2880  202.9210  145.8330 O   0  0  0  0  0  0  0  0  0  0  0  0
  160.9440  206.2600  145.9790 N   0  0  0  0  0  0  0  0  0  0  0  0
  161.2580  204.1320  146.1700 C   0  0  0  0  0  0  0  0  0  0  0  0
  161.6330  204.6610  147.4690 C   0  0  0  0  0  3  0  0  0  0  0  0
  160.8470  205.1830  145.3150 N   0  0  0  0  0  0  0  0  0  0  0  0
  161.4210  205.9670  147.2960 C   0  0  0  0  0  0  0  0  0  0  0  0
  162.0850  207.1040  152.0700 C   0  0  2  0  0  3  0  0  0  0  0  0
  161.4430  205.7650  152.2120 N   0  0  0  0  0  0  0  0  0  0  0  0
  160.2960  203.6010  152.4830 N   0  0  0  0  0  1  0  0  0  0  0  0
  161.3980  204.3590  152.0000 C   0  0  0  0  0  0  0  0  0  0  0  0
  160.8750  207.0470  152.7320 C   0  0  0  0  0  2  0  0  0  0  0  0
  162.3320  203.7860  151.3820 O   0  0  0  0  0  0  0  0  0  0  0  0
  162.9100  212.8620  148.0410 N   0  0  0  0  0  0  0  0  0  0  0  0
  161.6930  212.9870  147.4730 C   0  0  0  0  0  0  0  0  0  0  0  0
  160.8020  211.5730  147.6020 S   0  0  0  0  0  0  0  0  0  0  0  0
  163.1040  211.6250  148.5720 C   0  0  0  0  0  3  0  0  0  0  0  0
  161.1290  214.4530  146.7000 Cl  0  0  0  0  0  0  0  0  0  0  0  0
  162.0260  210.7520  148.4260 C   0  0  0  0  0  0  0  0  0  0  0  0
  2  4  2  0  0  0  0
  3  1  2  0  0  0  0
  4  1  1  0  0  0  0
  4  6  1  0  0  0  0
  5  3  1  0  0  0  0
  7  5  2  0  0  0  0
  7  2  1  0  0  0  0
  8 10  2  0  0  0  0
  9 13  1  0  0  0  0
 10 11  1  0  0  0  0
 12  9  2  0  0  0  0
 12 10  1  0  0  0  0
 13 11  2  0  0  0  0
 13  5  1  0  0  0  0
 14  1  1  6  0  0  0
 14 15  1  0  0  0  0
 14 18  1  0  0  0  0
 15 18  1  0  0  0  0
 17 15  1  0  0  0  0
 17 16  1  0  0  0  0
 19 17  2  0  0  0  0
 20 23  1  0  0  0  0
 21 22  1  0  0  0  0
 21 20  2  0  0  0  0
 22 25  1  0  0  0  0
 24 21  1  0  0  0  0
 25 23  2  0  0  0  0
 25  2  1  0  0  0  0
M  END
>  <MODEL>
7

>  <REMARK>
 VINA RESULT:      -7.4      3.606      5.956
  Name = 
  3 active torsions:
  status: ('A' for Active; 'I' for Inactive)
    1  A    between atoms: C_3  and  C_4
    2  A    between atoms: C_6  and  C_21
    3  A    between atoms: C_17  and  C_23
                            x       y       z     vdW  Elec       q    Type
                         _______ _______ _______ _____ _____    ______ ____

>  <TORSDO>
F 3

$$$$
=
 OpenBabel11052410153D

 25 28  0  0  1  0  0  0  0  0999 V2000
  161.4710  209.0570  151.4440 C   0  0  0  0  0  0  0  0  0  0  0  0
  161.5710  207.6930  149.4020 C   0  0  0  0  0  0  0  0  0  0  0  0
  161.7010  210.1950  150.6670 C   0  0  0  0  0  3  0  0  0  0  0  0
  161.4030  207.7880  150.8050 C   0  0  0  0  0  0  0  0  0  0  0  0
  161.8660  210.1090  149.2820 C   0  0  0  0  0  0  0  0  0  0  0  0
  161.1680  206.6370  151.5520 O   0  0  0  0  0  1  0  0  0  0  0  0
  161.8000  208.8600  148.6640 C   0  0  0  0  0  3  0  0  0  0  0  0
  161.5180  213.9040  146.3760 O   0  0  0  0  0  0  0  0  0  0  0  0
  163.3790  211.9700  148.3960 N   0  0  0  0  0  0  0  0  0  0  0  0
  161.9570  213.0270  147.1630 C   0  0  0  0  0  0  0  0  0  0  0  0
  161.1890  211.9300  147.7240 C   0  0  0  0  0  3  0  0  0  0  0  0
  163.2930  212.9760  147.6280 N   0  0  0  0  0  0  0  0  0  0  0  0
  162.1090  211.3160  148.4710 C   0  0  0  0  0  0  0  0  0  0  0  0
  161.3240  209.3080  152.9290 C   0  0  2  0  0  3  0  0  0  0  0  0
  160.6660  210.6180  153.2060 N   0  0  0  0  0  0  0  0  0  0  0  0
  159.6730  212.8230  153.6780 N   0  0  0  0  0  1  0  0  0  0  0  0
  159.5330  211.4780  153.2400 C   0  0  0  0  0  0  0  0  0  0  0  0
  162.1210  210.3320  153.4010 C   0  0  0  0  0  2  0  0  0  0  0  0
  158.4070  211.0480  152.8790 O   0  0  0  0  0  0  0  0  0  0  0  0
  161.1750  204.1390  148.2970 N   0  0  0  0  0  0  0  0  0  0  0  0
  161.5850  204.5410  147.0770 C   0  0  0  0  0  0  0  0  0  0  0  0
  161.9150  206.1850  147.0470 S   0  0  0  0  0  0  0  0  0  0  0  0
  161.1340  205.1640  149.1890 C   0  0  0  0  0  3  0  0  0  0  0  0
  161.7480  203.4680  145.7050 Cl  0  0  0  0  0  0  0  0  0  0  0  0
  161.5160  206.4020  148.6730 C   0  0  0  0  0  0  0  0  0  0  0  0
  2  4  2  0  0  0  0
  3  1  2  0  0  0  0
  4  1  1  0  0  0  0
  4  6  1  0  0  0  0
  5  3  1  0  0  0  0
  7  5  2  0  0  0  0
  7  2  1  0  0  0  0
  8 10  2  0  0  0  0
  9 13  1  0  0  0  0
 10 12  1  0  0  0  0
 10 11  1  0  0  0  0
 11 13  2  0  0  0  0
 12  9  2  0  0  0  0
 13  5  1  0  0  0  0
 14  1  1  6  0  0  0
 14 15  1  0  0  0  0
 14 18  1  0  0  0  0
 15 17  1  0  0  0  0
 15 18  1  0  0  0  0
 17 16  1  0  0  0  0
 19 17  2  0  0  0  0
 20 23  1  0  0  0  0
 21 20  2  0  0  0  0
 22 21  1  0  0  0  0
 22 25  1  0  0  0  0
 24 21  1  0  0  0  0
 25 23  2  0  0  0  0
 25  2  1  0  0  0  0
M  END
>  <MODEL>
8

>  <REMARK>
 VINA RESULT:      -7.3      4.597      8.087
  Name = 
  3 active torsions:
  status: ('A' for Active; 'I' for Inactive)
    1  A    between atoms: C_3  and  C_4
    2  A    between atoms: C_6  and  C_21
    3  A    between atoms: C_17  and  C_23
                            x       y       z     vdW  Elec       q    Type
                         _______ _______ _______ _____ _____    ______ ____

>  <TORSDO>
F 3

$$$$
=
 OpenBabel11052410153D

 25 28  0  0  1  0  0  0  0  0999 V2000
  160.8240  203.1580  150.0760 C   0  0  0  0  0  0  0  0  0  0  0  0
  161.0500  205.5030  150.7730 C   0  0  0  0  0  0  0  0  0  0  0  0
  160.8560  203.5750  148.7430 C   0  0  0  0  0  3  0  0  0  0  0  0
  160.9230  204.1320  151.1060 C   0  0  0  0  0  0  0  0  0  0  0  0
  160.9820  204.9250  148.4060 C   0  0  0  0  0  0  0  0  0  0  0  0
  160.9020  203.7460  152.4430 O   0  0  0  0  0  1  0  0  0  0  0  0
  161.0770  205.8750  149.4230 C   0  0  0  0  0  3  0  0  0  0  0  0
  161.8720  205.4530  143.7270 O   0  0  0  0  0  0  0  0  0  0  0  0
  160.2250  206.4340  146.4860 N   0  0  0  0  0  0  0  0  0  0  0  0
  161.4120  205.5970  144.8880 C   0  0  0  0  0  0  0  0  0  0  0  0
  161.7700  204.8000  146.0470 C   0  0  0  0  0  3  0  0  0  0  0  0
  160.4560  206.5780  145.2460 N   0  0  0  0  0  0  0  0  0  0  0  0
  161.0150  205.3550  146.9970 C   0  0  0  0  0  0  0  0  0  0  0  0
  160.6720  201.6660  150.2810 C   0  0  2  0  0  3  0  0  0  0  0  0
  160.8140  200.9140  149.0010 N   0  0  0  0  0  0  0  0  0  0  0  0
  160.9440  199.6690  146.8790 N   0  0  0  0  0  1  0  0  0  0  0  0
  161.5810  200.3960  147.9210 C   0  0  0  0  0  0  0  0  0  0  0  0
  159.5230  201.1420  149.7220 C   0  0  0  0  0  2  0  0  0  0  0  0
  162.8240  200.5850  147.8860 O   0  0  0  0  0  0  0  0  0  0  0  0
  161.3020  207.5600  153.8900 N   0  0  0  0  0  0  0  0  0  0  0  0
  161.3280  208.6470  153.0920 C   0  0  0  0  0  0  0  0  0  0  0  0
  161.2340  208.2260  151.4710 S   0  0  0  0  0  0  0  0  0  0  0  0
  161.2060  206.4040  153.1800 C   0  0  0  0  0  3  0  0  0  0  0  0
  161.4460  210.2870  153.6900 Cl  0  0  0  0  0  0  0  0  0  0  0  0
  161.1550  206.5720  151.7960 C   0  0  0  0  0  0  0  0  0  0  0  0
  1  4  1  0  0  0  0
  2  4  2  0  0  0  0
  2 25  1  0  0  0  0
  3  1  2  0  0  0  0
  4  6  1  0  0  0  0
  5  3  1  0  0  0  0
  5  7  2  0  0  0  0
  7  2  1  0  0  0  0
  8 10  2  0  0  0  0
  9 13  1  0  0  0  0
 10 12  1  0  0  0  0
 10 11  1  0  0  0  0
 11 13  2  0  0  0  0
 12  9  2  0  0  0  0
 13  5  1  0  0  0  0
 14  1  1  6  0  0  0
 15 18  1  0  0  0  0
 15 14  1  0  0  0  0
 16 17  1  0  0  0  0
 17 15  1  0  0  0  0
 18 14  1  0  0  0  0
 19 17  2  0  0  0  0
 21 24  1  0  0  0  0
 21 20  2  0  0  0  0
 22 25  1  0  0  0  0
 22 21  1  0  0  0  0
 23 20  1  0  0  0  0
 25 23  2  0  0  0  0
M  END
>  <MODEL>
9

>  <REMARK>
 VINA RESULT:      -7.3      2.404      5.086
  Name = 
  3 active torsions:
  status: ('A' for Active; 'I' for Inactive)
    1  A    between atoms: C_3  and  C_4
    2  A    between atoms: C_6  and  C_21
    3  A    between atoms: C_17  and  C_23
                            x       y       z     vdW  Elec       q    Type
                         _______ _______ _______ _____ _____    ______ ____

>  <TORSDO>
F 3

$$$$
