=
 OpenBabel11042421333D

 27 29  0  0  1  0  0  0  0  0999 V2000
  161.7380  206.1200  148.7710 C   0  0  2  0  0  3  0  0  0  0  0  0
  161.3460  207.2880  150.9810 C   0  0  0  0  0  3  0  0  0  0  0  0
  162.0740  209.7270  149.8500 C   0  0  0  0  0  3  0  0  0  0  0  0
  162.0850  208.5700  149.0720 C   0  0  0  0  0  3  0  0  0  0  0  0
  161.6980  209.6650  151.1940 C   0  0  0  0  0  3  0  0  0  0  0  0
  161.3290  208.4450  151.7730 C   0  0  0  0  0  0  0  0  0  0  0  0
  161.7210  207.3480  149.6310 C   0  0  0  0  0  0  0  0  0  0  0  0
  160.9530  208.3740  153.2020 C   0  0  0  0  0  0  0  0  0  0  0  0
  160.2570  208.2660  155.8980 C   0  0  0  0  0  3  0  0  0  0  0  0
  160.5050  207.0800  155.2080 C   0  0  0  0  0  3  0  0  0  0  0  0
  160.3580  209.4640  155.2560 N   0  0  0  0  0  0  0  0  0  0  0  0
  160.6970  209.5410  153.9410 C   0  0  0  0  0  3  0  0  0  0  0  0
  160.8530  207.1390  153.8570 C   0  0  0  0  0  3  0  0  0  0  0  0
  162.0030  206.3890  147.2770 C   0  0  2  0  0  3  0  0  0  0  0  0
  160.4360  206.2620  146.3640 S   0  0  0  0  0  1  0  0  0  0  0  0
  162.9120  205.4760  146.7380 O   0  0  0  0  0  0  0  0  0  0  0  0
  162.6060  205.4320  145.3730 C   0  0  0  0  0  1  0  0  0  0  0  0
  160.5350  205.2130  149.0910 C   0  0  0  0  0  2  0  0  0  0  0  0
  161.3590  202.2360  151.0660 O   0  0  0  0  0  0  0  0  0  0  0  0
  160.9710  203.4010  150.7830 C   0  0  0  0  0  0  0  0  0  0  0  0
  160.8890  203.8320  149.4140 N   0  0  0  0  0  0  0  0  0  0  0  0
  160.6320  204.2660  151.8120 O   0  0  0  0  0  1  0  0  0  0  0  0
  161.4630  203.0210  148.3490 C   0  0  0  0  0  2  0  0  0  0  0  0
  161.1750  202.3980  145.7560 O   0  0  0  0  0  1  0  0  0  0  0  0
  161.3100  200.8220  147.4120 O   0  0  0  0  0  0  0  0  0  0  0  0
  160.4360  201.5290  146.5640 C   0  0  1  0  0  3  0  0  0  0  0  0
  160.5520  201.8420  148.0220 C   0  0  2  0  0  3  0  0  0  0  0  0
  1 18  1  6  0  0  0
  1  7  1  0  0  0  0
  2  6  1  0  0  0  0
  3  5  1  0  0  0  0
  4  7  1  0  0  0  0
  4  3  2  0  0  0  0
  5  6  2  0  0  0  0
  6  8  1  0  0  0  0
  7  2  2  0  0  0  0
  8 13  2  0  0  0  0
  8 12  1  0  0  0  0
 10  9  2  0  0  0  0
 11  9  1  0  0  0  0
 12 11  2  0  0  0  0
 13 10  1  0  0  0  0
 14 15  1  6  0  0  0
 14  1  1  0  0  0  0
 16 14  1  0  0  0  0
 17 16  1  0  0  0  0
 18 21  1  0  0  0  0
 20 19  2  0  0  0  0
 20 22  1  0  0  0  0
 21 20  1  0  0  0  0
 23 21  1  0  0  0  0
 25 27  1  0  0  0  0
 26 24  1  6  0  0  0
 26 25  1  0  0  0  0
 26 27  1  0  0  0  0
 27 23  1  6  0  0  0
M  END
>  <MODEL>
1

>  <REMARK>
 VINA RESULT:      -7.7      0.000      0.000
  Name = 
  8 active torsions:
  status: ('A' for Active; 'I' for Inactive)
    1  A    between atoms: C_1  and  N_17
    2  A    between atoms: C_1  and  C_26
    3  A    between atoms: O_5  and  C_8
    4  A    between atoms: C_6  and  C_22
    5  A    between atoms: C_8  and  C_24
    6  A    between atoms: C_14  and  N_17
    7  A    between atoms: C_14  and  C_24
    8  A    between atoms: C_24  and  C_27
                            x       y       z     vdW  Elec       q    Type
                         _______ _______ _______ _____ _____    ______ ____

>  <TORSDO>
F 8

$$$$
=
 OpenBabel11042421333D

 27 29  0  0  1  0  0  0  0  0999 V2000
  161.3340  208.1950  151.4110 C   0  0  2  0  0  3  0  0  0  0  0  0
  161.1590  205.8100  150.5840 C   0  0  0  0  0  3  0  0  0  0  0  0
  161.1080  204.8780  153.2090 C   0  0  0  0  0  3  0  0  0  0  0  0
  161.2070  206.2460  152.9600 C   0  0  0  0  0  3  0  0  0  0  0  0
  161.0340  203.9740  152.1460 C   0  0  0  0  0  3  0  0  0  0  0  0
  161.0580  204.4310  150.8230 C   0  0  0  0  0  0  0  0  0  0  0  0
  161.2310  206.7190  151.6500 C   0  0  0  0  0  0  0  0  0  0  0  0
  161.0040  203.4740  149.6960 C   0  0  0  0  0  0  0  0  0  0  0  0
  160.8940  201.6940  147.5550 C   0  0  0  0  0  3  0  0  0  0  0  0
  160.5610  201.2470  148.8340 C   0  0  0  0  0  3  0  0  0  0  0  0
  161.2660  202.9900  147.3600 N   0  0  0  0  0  0  0  0  0  0  0  0
  161.3260  203.8770  148.3890 C   0  0  0  0  0  3  0  0  0  0  0  0
  160.6190  202.1430  149.9040 C   0  0  0  0  0  3  0  0  0  0  0  0
  162.0380  208.5830  150.0950 C   0  0  2  0  0  3  0  0  0  0  0  0
  162.1800  210.3920  150.0100 S   0  0  0  0  0  1  0  0  0  0  0  0
  161.3320  208.1350  148.9770 O   0  0  0  0  0  0  0  0  0  0  0  0
  162.3180  207.7200  148.0750 C   0  0  0  0  0  1  0  0  0  0  0  0
  161.8230  208.9210  152.6780 C   0  0  0  0  0  2  0  0  0  0  0  0
  159.6070  209.6750  155.5010 O   0  0  0  0  0  1  0  0  0  0  0  0
  160.5750  209.2010  154.8460 C   0  0  0  0  0  0  0  0  0  0  0  0
  160.7610  209.5470  153.4630 N   0  0  0  0  0  0  0  0  0  0  0  0
  161.4530  208.3330  155.4770 O   0  0  0  0  0  0  0  0  0  0  0  0
  159.7210  210.2610  152.7340 C   0  0  0  0  0  2  0  0  0  0  0  0
  157.8650  212.0580  153.4540 O   0  0  0  0  0  1  0  0  0  0  0  0
  160.1030  212.3490  153.8420 O   0  0  0  0  0  0  0  0  0  0  0  0
  159.0260  212.6920  153.0020 C   0  0  1  0  0  3  0  0  0  0  0  0
  160.0900  211.7320  152.5750 C   0  0  2  0  0  3  0  0  0  0  0  0
  1  7  1  0  0  0  0
  1 18  1  1  0  0  0
  2  6  2  0  0  0  0
  2  7  1  0  0  0  0
  4  3  1  0  0  0  0
  5  3  2  0  0  0  0
  6  5  1  0  0  0  0
  7  4  2  0  0  0  0
  8 13  1  0  0  0  0
  8  6  1  0  0  0  0
  9 10  1  0  0  0  0
 10 13  2  0  0  0  0
 11  9  2  0  0  0  0
 11 12  1  0  0  0  0
 12  8  2  0  0  0  0
 14 15  1  6  0  0  0
 14  1  1  0  0  0  0
 16 14  1  0  0  0  0
 17 16  1  0  0  0  0
 18 21  1  0  0  0  0
 20 22  2  0  0  0  0
 20 19  1  0  0  0  0
 21 20  1  0  0  0  0
 23 21  1  0  0  0  0
 26 24  1  1  0  0  0
 26 25  1  0  0  0  0
 27 23  1  1  0  0  0
 27 26  1  0  0  0  0
 27 25  1  0  0  0  0
M  END
>  <MODEL>
2

>  <REMARK>
 VINA RESULT:      -7.5      3.443      7.625
  Name = 
  8 active torsions:
  status: ('A' for Active; 'I' for Inactive)
    1  A    between atoms: C_1  and  N_17
    2  A    between atoms: C_1  and  C_26
    3  A    between atoms: O_5  and  C_8
    4  A    between atoms: C_6  and  C_22
    5  A    between atoms: C_8  and  C_24
    6  A    between atoms: C_14  and  N_17
    7  A    between atoms: C_14  and  C_24
    8  A    between atoms: C_24  and  C_27
                            x       y       z     vdW  Elec       q    Type
                         _______ _______ _______ _____ _____    ______ ____

>  <TORSDO>
F 8

$$$$
=
 OpenBabel11042421333D

 27 29  0  0  1  0  0  0  0  0999 V2000
  161.3170  206.7940  150.4080 C   0  0  2  0  0  3  0  0  0  0  0  0
  161.1720  204.4510  149.4670 C   0  0  0  0  0  3  0  0  0  0  0  0
  160.9320  203.4060  152.0380 C   0  0  0  0  0  3  0  0  0  0  0  0
  161.0630  204.7830  151.8580 C   0  0  0  0  0  3  0  0  0  0  0  0
  160.9200  202.5510  150.9340 C   0  0  0  0  0  3  0  0  0  0  0  0
  161.0400  203.0650  149.6370 C   0  0  0  0  0  0  0  0  0  0  0  0
  161.1820  205.3110  150.5740 C   0  0  0  0  0  0  0  0  0  0  0  0
  161.0510  202.1590  148.4670 C   0  0  0  0  0  0  0  0  0  0  0  0
  161.0930  200.4360  146.2780 C   0  0  0  0  0  3  0  0  0  0  0  0
  160.7990  201.7840  146.0810 C   0  0  0  0  0  3  0  0  0  0  0  0
  161.3590  199.9700  147.5310 N   0  0  0  0  0  0  0  0  0  0  0  0
  161.3450  200.7930  148.6140 C   0  0  0  0  0  3  0  0  0  0  0  0
  160.7790  202.6440  147.1820 C   0  0  0  0  0  3  0  0  0  0  0  0
  161.7100  207.2460  148.9880 C   0  0  2  0  0  3  0  0  0  0  0  0
  162.1150  209.0170  149.0200 S   0  0  0  0  0  1  0  0  0  0  0  0
  160.6760  207.0380  148.0730 O   0  0  0  0  0  0  0  0  0  0  0  0
  161.3170  206.6480  146.8920 C   0  0  0  0  0  1  0  0  0  0  0  0
  162.1400  207.4000  151.5610 C   0  0  0  0  0  2  0  0  0  0  0  0
  160.4300  208.0330  154.7420 O   0  0  0  0  0  1  0  0  0  0  0  0
  161.1860  207.4960  153.8880 C   0  0  0  0  0  0  0  0  0  0  0  0
  161.3420  208.0760  152.5820 N   0  0  0  0  0  0  0  0  0  0  0  0
  161.8600  206.3320  154.2240 O   0  0  0  0  0  0  0  0  0  0  0  0
  160.4650  209.1530  152.1430 C   0  0  0  0  0  2  0  0  0  0  0  0
  158.8780  211.2770  152.5480 O   0  0  0  0  0  1  0  0  0  0  0  0
  160.8960  211.0080  153.5960 O   0  0  0  0  0  0  0  0  0  0  0  0
  160.2250  211.6530  152.5400 C   0  0  1  0  0  3  0  0  0  0  0  0
  161.1530  210.5050  152.3050 C   0  0  2  0  0  3  0  0  0  0  0  0
  1  7  1  0  0  0  0
  1 18  1  1  0  0  0
  2  6  2  0  0  0  0
  2  7  1  0  0  0  0
  4  3  1  0  0  0  0
  5  3  2  0  0  0  0
  6  5  1  0  0  0  0
  7  4  2  0  0  0  0
  8 12  1  0  0  0  0
  8  6  1  0  0  0  0
  9 11  1  0  0  0  0
 10  9  2  0  0  0  0
 10 13  1  0  0  0  0
 11 12  2  0  0  0  0
 13  8  2  0  0  0  0
 14 15  1  1  0  0  0
 14  1  1  0  0  0  0
 16 14  1  0  0  0  0
 17 16  1  0  0  0  0
 18 21  1  0  0  0  0
 20 22  2  0  0  0  0
 20 19  1  0  0  0  0
 21 20  1  0  0  0  0
 23 21  1  0  0  0  0
 26 24  1  1  0  0  0
 26 25  1  0  0  0  0
 27 23  1  1  0  0  0
 27 26  1  0  0  0  0
 27 25  1  0  0  0  0
M  END
>  <MODEL>
3

>  <REMARK>
 VINA RESULT:      -7.3      2.862      7.557
  Name = 
  8 active torsions:
  status: ('A' for Active; 'I' for Inactive)
    1  A    between atoms: C_1  and  N_17
    2  A    between atoms: C_1  and  C_26
    3  A    between atoms: O_5  and  C_8
    4  A    between atoms: C_6  and  C_22
    5  A    between atoms: C_8  and  C_24
    6  A    between atoms: C_14  and  N_17
    7  A    between atoms: C_14  and  C_24
    8  A    between atoms: C_24  and  C_27
                            x       y       z     vdW  Elec       q    Type
                         _______ _______ _______ _____ _____    ______ ____

>  <TORSDO>
F 8

$$$$
=
 OpenBabel11042421333D

 27 29  0  0  1  0  0  0  0  0999 V2000
  161.2970  208.5760  151.2060 C   0  0  2  0  0  3  0  0  0  0  0  0
  161.1660  206.0830  150.7930 C   0  0  0  0  0  3  0  0  0  0  0  0
  161.2390  205.5990  153.5350 C   0  0  0  0  0  3  0  0  0  0  0  0
  161.2860  206.9100  153.0600 C   0  0  0  0  0  3  0  0  0  0  0  0
  161.1550  204.5300  152.6400 C   0  0  0  0  0  3  0  0  0  0  0  0
  161.1170  204.7620  151.2590 C   0  0  0  0  0  0  0  0  0  0  0  0
  161.2490  207.1580  151.6900 C   0  0  0  0  0  0  0  0  0  0  0  0
  161.0510  203.6300  150.3090 C   0  0  0  0  0  0  0  0  0  0  0  0
  160.9390  201.4800  148.5400 C   0  0  0  0  0  3  0  0  0  0  0  0
  161.1100  202.7700  148.0380 C   0  0  0  0  0  3  0  0  0  0  0  0
  160.8310  201.2780  149.8830 N   0  0  0  0  0  0  0  0  0  0  0  0
  160.8840  202.3120  150.7650 C   0  0  0  0  0  3  0  0  0  0  0  0
  161.1650  203.8450  148.9290 C   0  0  0  0  0  3  0  0  0  0  0  0
  162.0410  208.7720  149.8710 C   0  0  2  0  0  3  0  0  0  0  0  0
  162.2450  210.5510  149.5610 S   0  0  0  0  0  1  0  0  0  0  0  0
  161.3430  208.2070  148.8010 O   0  0  0  0  0  0  0  0  0  0  0  0
  162.3270  207.5940  148.0170 C   0  0  0  0  0  1  0  0  0  0  0  0
  161.6970  209.5290  152.3480 C   0  0  0  0  0  2  0  0  0  0  0  0
  158.9670  211.7020  153.4740 O   0  0  0  0  0  1  0  0  0  0  0  0
  159.8790  211.2240  152.7470 C   0  0  0  0  0  0  0  0  0  0  0  0
  160.5740  210.0280  153.1400 N   0  0  0  0  0  0  0  0  0  0  0  0
  160.2090  211.8720  151.5670 O   0  0  0  0  0  0  0  0  0  0  0  0
  160.4010  209.4790  154.4780 C   0  0  0  0  0  2  0  0  0  0  0  0
  159.9830  209.4350  157.1270 O   0  0  0  0  0  1  0  0  0  0  0  0
  161.9390  208.7400  156.1600 O   0  0  0  0  0  0  0  0  0  0  0  0
  161.3010  209.7990  156.8350 C   0  0  1  0  0  3  0  0  0  0  0  0
  161.5840  209.8510  155.3680 C   0  0  2  0  0  3  0  0  0  0  0  0
  1  7  1  0  0  0  0
  1 18  1  1  0  0  0
  2  6  2  0  0  0  0
  2  7  1  0  0  0  0
  4  3  1  0  0  0  0
  5  3  2  0  0  0  0
  6  5  1  0  0  0  0
  7  4  2  0  0  0  0
  8 12  1  0  0  0  0
  8  6  1  0  0  0  0
  9 11  1  0  0  0  0
 10  9  2  0  0  0  0
 10 13  1  0  0  0  0
 11 12  2  0  0  0  0
 13  8  2  0  0  0  0
 14 15  1  6  0  0  0
 14  1  1  0  0  0  0
 16 14  1  0  0  0  0
 17 16  1  0  0  0  0
 18 21  1  0  0  0  0
 20 21  1  0  0  0  0
 20 19  1  0  0  0  0
 21 23  1  0  0  0  0
 22 20  2  0  0  0  0
 25 26  1  0  0  0  0
 26 24  1  6  0  0  0
 27 23  1  6  0  0  0
 27 25  1  0  0  0  0
 27 26  1  0  0  0  0
M  END
>  <MODEL>
4

>  <REMARK>
 VINA RESULT:      -7.1      3.363      7.649
  Name = 
  8 active torsions:
  status: ('A' for Active; 'I' for Inactive)
    1  A    between atoms: C_1  and  N_17
    2  A    between atoms: C_1  and  C_26
    3  A    between atoms: O_5  and  C_8
    4  A    between atoms: C_6  and  C_22
    5  A    between atoms: C_8  and  C_24
    6  A    between atoms: C_14  and  N_17
    7  A    between atoms: C_14  and  C_24
    8  A    between atoms: C_24  and  C_27
                            x       y       z     vdW  Elec       q    Type
                         _______ _______ _______ _____ _____    ______ ____

>  <TORSDO>
F 8

$$$$
=
 OpenBabel11042421333D

 27 29  0  0  1  0  0  0  0  0999 V2000
  161.0170  206.7500  150.6840 C   0  0  2  0  0  3  0  0  0  0  0  0
  161.0210  204.4620  149.6030 C   0  0  0  0  0  3  0  0  0  0  0  0
  161.0700  203.2500  152.1110 C   0  0  0  0  0  3  0  0  0  0  0  0
  161.0580  204.6410  152.0120 C   0  0  0  0  0  3  0  0  0  0  0  0
  161.0560  202.4640  150.9560 C   0  0  0  0  0  3  0  0  0  0  0  0
  161.0310  203.0630  149.6900 C   0  0  0  0  0  0  0  0  0  0  0  0
  161.0330  205.2530  150.7610 C   0  0  0  0  0  0  0  0  0  0  0  0
  161.0400  202.2320  148.4660 C   0  0  0  0  0  0  0  0  0  0  0  0
  161.0760  200.6500  146.1720 C   0  0  0  0  0  3  0  0  0  0  0  0
  160.8580  202.0220  146.0530 C   0  0  0  0  0  3  0  0  0  0  0  0
  161.2720  200.0940  147.4010 N   0  0  0  0  0  0  0  0  0  0  0  0
  161.2590  200.8470  148.5330 C   0  0  0  0  0  3  0  0  0  0  0  0
  160.8390  202.8120  147.2050 C   0  0  0  0  0  3  0  0  0  0  0  0
  161.1380  207.3190  149.2560 C   0  0  2  0  0  3  0  0  0  0  0  0
  162.7340  206.8130  148.5500 S   0  0  0  0  0  1  0  0  0  0  0  0
  161.0630  208.7130  149.2450 O   0  0  0  0  0  0  0  0  0  0  0  0
  162.1870  209.1250  148.5220 C   0  0  0  0  0  1  0  0  0  0  0  0
  161.9610  207.3610  151.7360 C   0  0  0  0  0  2  0  0  0  0  0  0
  161.3610  210.5910  153.3650 O   0  0  0  0  0  1  0  0  0  0  0  0
  161.8360  209.7310  152.5750 C   0  0  0  0  0  0  0  0  0  0  0  0
  161.3440  208.3810  152.5820 N   0  0  0  0  0  0  0  0  0  0  0  0
  162.8470  210.1050  151.7030 O   0  0  0  0  0  0  0  0  0  0  0  0
  160.4590  207.9230  153.6450 C   0  0  0  0  0  2  0  0  0  0  0  0
  159.8370  209.1320  155.9570 O   0  0  0  0  0  1  0  0  0  0  0  0
  160.4020  206.9180  155.8180 O   0  0  0  0  0  0  0  0  0  0  0  0
  160.8690  208.2070  156.1380 C   0  0  1  0  0  3  0  0  0  0  0  0
  161.2630  207.5130  154.8750 C   0  0  2  0  0  3  0  0  0  0  0  0
  1  7  1  0  0  0  0
  1 18  1  1  0  0  0
  2  6  2  0  0  0  0
  2  7  1  0  0  0  0
  4  3  1  0  0  0  0
  5  3  2  0  0  0  0
  6  5  1  0  0  0  0
  7  4  2  0  0  0  0
  8 12  1  0  0  0  0
  8  6  1  0  0  0  0
  9 11  1  0  0  0  0
 10  9  2  0  0  0  0
 10 13  1  0  0  0  0
 11 12  2  0  0  0  0
 13  8  2  0  0  0  0
 14 15  1  1  0  0  0
 14  1  1  0  0  0  0
 16 14  1  0  0  0  0
 17 16  1  0  0  0  0
 18 21  1  0  0  0  0
 20 21  1  0  0  0  0
 20 19  1  0  0  0  0
 21 23  1  0  0  0  0
 22 20  2  0  0  0  0
 25 26  1  0  0  0  0
 26 24  1  6  0  0  0
 27 23  1  6  0  0  0
 27 25  1  0  0  0  0
 27 26  1  0  0  0  0
M  END
>  <MODEL>
5

>  <REMARK>
 VINA RESULT:      -7.0      3.232      7.728
  Name = 
  8 active torsions:
  status: ('A' for Active; 'I' for Inactive)
    1  A    between atoms: C_1  and  N_17
    2  A    between atoms: C_1  and  C_26
    3  A    between atoms: O_5  and  C_8
    4  A    between atoms: C_6  and  C_22
    5  A    between atoms: C_8  and  C_24
    6  A    between atoms: C_14  and  N_17
    7  A    between atoms: C_14  and  C_24
    8  A    between atoms: C_24  and  C_27
                            x       y       z     vdW  Elec       q    Type
                         _______ _______ _______ _____ _____    ______ ____

>  <TORSDO>
F 8

$$$$
=
 OpenBabel11042421333D

 27 29  0  0  1  0  0  0  0  0999 V2000
  161.2940  207.2530  153.3440 C   0  0  2  0  0  3  0  0  0  0  0  0
  161.2080  206.0750  151.1060 C   0  0  0  0  0  3  0  0  0  0  0  0
  160.9180  203.6170  152.3840 C   0  0  0  0  0  3  0  0  0  0  0  0
  161.0330  204.7830  153.1400 C   0  0  0  0  0  3  0  0  0  0  0  0
  160.9470  203.6790  150.9880 C   0  0  0  0  0  3  0  0  0  0  0  0
  161.0910  204.9100  150.3360 C   0  0  0  0  0  0  0  0  0  0  0  0
  161.1770  206.0150  152.5070 C   0  0  0  0  0  0  0  0  0  0  0  0
  161.1450  204.9750  148.8580 C   0  0  0  0  0  0  0  0  0  0  0  0
  161.2700  205.0790  146.0770 C   0  0  0  0  0  3  0  0  0  0  0  0
  160.8470  206.2030  146.7850 C   0  0  0  0  0  3  0  0  0  0  0  0
  161.6210  203.9440  146.7440 N   0  0  0  0  0  0  0  0  0  0  0  0
  161.5690  203.8700  148.1010 C   0  0  0  0  0  3  0  0  0  0  0  0
  160.7850  206.1460  148.1790 C   0  0  0  0  0  3  0  0  0  0  0  0
  161.1320  207.0200  154.8590 C   0  0  2  0  0  3  0  0  0  0  0  0
  159.4030  207.3280  155.3250 S   0  0  0  0  0  1  0  0  0  0  0  0
  161.9560  207.8660  155.6050 O   0  0  0  0  0  0  0  0  0  0  0  0
  161.3070  208.0000  156.8370 C   0  0  0  0  0  1  0  0  0  0  0  0
  160.4560  208.3990  152.7440 C   0  0  0  0  0  2  0  0  0  0  0  0
  162.7030  210.7370  151.0320 O   0  0  0  0  0  1  0  0  0  0  0  0
  161.9810  209.7260  151.2430 C   0  0  0  0  0  0  0  0  0  0  0  0
  161.2150  209.6140  152.4550 N   0  0  0  0  0  0  0  0  0  0  0  0
  161.9410  208.7170  150.2930 O   0  0  0  0  0  0  0  0  0  0  0  0
  161.4330  210.5460  153.5540 C   0  0  0  0  0  2  0  0  0  0  0  0
  161.5900  211.4260  156.0820 O   0  0  0  0  0  1  0  0  0  0  0  0
  160.0780  212.2400  154.5680 O   0  0  0  0  0  0  0  0  0  0  0  0
  160.2600  211.3650  155.6560 C   0  0  1  0  0  3  0  0  0  0  0  0
  160.1160  210.8670  154.2540 C   0  0  2  0  0  3  0  0  0  0  0  0
  1 18  1  6  0  0  0
  1 14  1  0  0  0  0
  2  7  1  0  0  0  0
  3  4  1  0  0  0  0
  5  3  2  0  0  0  0
  6  5  1  0  0  0  0
  6  2  2  0  0  0  0
  7  4  2  0  0  0  0
  7  1  1  0  0  0  0
  8  6  1  0  0  0  0
  9 11  2  0  0  0  0
  9 10  1  0  0  0  0
 10 13  2  0  0  0  0
 11 12  1  0  0  0  0
 12  8  2  0  0  0  0
 13  8  1  0  0  0  0
 14 15  1  1  0  0  0
 14 16  1  0  0  0  0
 16 17  1  0  0  0  0
 19 20  1  0  0  0  0
 20 21  1  0  0  0  0
 21 18  1  0  0  0  0
 21 23  1  0  0  0  0
 22 20  2  0  0  0  0
 25 26  1  0  0  0  0
 26 24  1  6  0  0  0
 27 23  1  6  0  0  0
 27 25  1  0  0  0  0
 27 26  1  0  0  0  0
M  END
>  <MODEL>
6

>  <REMARK>
 VINA RESULT:      -6.9      3.730      8.397
  Name = 
  8 active torsions:
  status: ('A' for Active; 'I' for Inactive)
    1  A    between atoms: C_1  and  N_17
    2  A    between atoms: C_1  and  C_26
    3  A    between atoms: O_5  and  C_8
    4  A    between atoms: C_6  and  C_22
    5  A    between atoms: C_8  and  C_24
    6  A    between atoms: C_14  and  N_17
    7  A    between atoms: C_14  and  C_24
    8  A    between atoms: C_24  and  C_27
                            x       y       z     vdW  Elec       q    Type
                         _______ _______ _______ _____ _____    ______ ____

>  <TORSDO>
F 8

$$$$
=
 OpenBabel11042421333D

 27 29  0  0  1  0  0  0  0  0999 V2000
  161.9150  206.4060  148.5580 C   0  0  2  0  0  3  0  0  0  0  0  0
  161.9260  208.9340  148.4540 C   0  0  0  0  0  3  0  0  0  0  0  0
  162.3100  209.0700  151.2100 C   0  0  0  0  0  3  0  0  0  0  0  0
  162.2080  207.8280  150.5840 C   0  0  0  0  0  3  0  0  0  0  0  0
  162.2210  210.2440  150.4590 C   0  0  0  0  0  3  0  0  0  0  0  0
  162.0290  210.1880  149.0730 C   0  0  0  0  0  0  0  0  0  0  0  0
  162.0170  207.7530  149.2060 C   0  0  0  0  0  0  0  0  0  0  0  0
  161.9110  211.4310  148.2790 C   0  0  0  0  0  0  0  0  0  0  0  0
  161.6820  213.7560  146.7610 C   0  0  0  0  0  3  0  0  0  0  0  0
  162.6220  213.7010  147.7880 C   0  0  0  0  0  3  0  0  0  0  0  0
  160.8870  212.6790  146.5030 N   0  0  0  0  0  0  0  0  0  0  0  0
  160.9820  211.5340  147.2310 C   0  0  0  0  0  3  0  0  0  0  0  0
  162.7330  212.5330  148.5480 C   0  0  0  0  0  3  0  0  0  0  0  0
  162.1260  206.4120  147.0310 C   0  0  2  0  0  3  0  0  0  0  0  0
  160.5200  206.1920  146.2090 S   0  0  0  0  0  1  0  0  0  0  0  0
  162.9840  205.3900  146.6210 O   0  0  0  0  0  0  0  0  0  0  0  0
  162.3690  204.8380  145.4920 C   0  0  0  0  0  1  0  0  0  0  0  0
  160.6730  205.6490  149.0640 C   0  0  0  0  0  2  0  0  0  0  0  0
  161.4610  203.1400  151.6200 O   0  0  0  0  0  0  0  0  0  0  0  0
  161.1270  204.2390  151.1000 C   0  0  0  0  0  0  0  0  0  0  0  0
  160.9630  204.3530  149.6760 N   0  0  0  0  0  0  0  0  0  0  0  0
  160.9260  205.3390  151.9200 O   0  0  0  0  0  1  0  0  0  0  0  0
  161.3980  203.2780  148.7940 C   0  0  0  0  0  2  0  0  0  0  0  0
  161.0380  201.7680  146.6070 O   0  0  0  0  0  1  0  0  0  0  0  0
  161.2350  200.8900  148.7130 O   0  0  0  0  0  0  0  0  0  0  0  0
  160.3300  201.2490  147.6950 C   0  0  1  0  0  3  0  0  0  0  0  0
  160.4870  202.0630  148.9390 C   0  0  2  0  0  3  0  0  0  0  0  0
  1 18  1  6  0  0  0
  1  7  1  0  0  0  0
  2  6  2  0  0  0  0
  2  7  1  0  0  0  0
  4  3  1  0  0  0  0
  5  3  2  0  0  0  0
  6  5  1  0  0  0  0
  7  4  2  0  0  0  0
  8 13  1  0  0  0  0
  8  6  1  0  0  0  0
  9 10  1  0  0  0  0
 10 13  2  0  0  0  0
 11  9  2  0  0  0  0
 11 12  1  0  0  0  0
 12  8  2  0  0  0  0
 14 15  1  6  0  0  0
 14  1  1  0  0  0  0
 16 14  1  0  0  0  0
 17 16  1  0  0  0  0
 18 21  1  0  0  0  0
 20 19  2  0  0  0  0
 20 22  1  0  0  0  0
 21 20  1  0  0  0  0
 23 21  1  0  0  0  0
 25 27  1  0  0  0  0
 26 24  1  6  0  0  0
 26 25  1  0  0  0  0
 26 27  1  0  0  0  0
 27 23  1  6  0  0  0
M  END
>  <MODEL>
7

>  <REMARK>
 VINA RESULT:      -6.8      2.532      4.249
  Name = 
  8 active torsions:
  status: ('A' for Active; 'I' for Inactive)
    1  A    between atoms: C_1  and  N_17
    2  A    between atoms: C_1  and  C_26
    3  A    between atoms: O_5  and  C_8
    4  A    between atoms: C_6  and  C_22
    5  A    between atoms: C_8  and  C_24
    6  A    between atoms: C_14  and  N_17
    7  A    between atoms: C_14  and  C_24
    8  A    between atoms: C_24  and  C_27
                            x       y       z     vdW  Elec       q    Type
                         _______ _______ _______ _____ _____    ______ ____

>  <TORSDO>
F 8

$$$$
=
 OpenBabel11042421333D

 27 29  0  0  1  0  0  0  0  0999 V2000
  160.8390  204.4050  149.2270 C   0  0  2  0  0  3  0  0  0  0  0  0
  160.9080  206.1830  151.0260 C   0  0  0  0  0  3  0  0  0  0  0  0
  162.0680  207.9790  149.2410 C   0  0  0  0  0  3  0  0  0  0  0  0
  161.7530  206.6880  148.8190 C   0  0  0  0  0  3  0  0  0  0  0  0
  161.8020  208.3740  150.5540 C   0  0  0  0  0  3  0  0  0  0  0  0
  161.2190  207.4790  151.4600 C   0  0  0  0  0  0  0  0  0  0  0  0
  161.1720  205.7850  149.7070 C   0  0  0  0  0  0  0  0  0  0  0  0
  160.9590  207.8880  152.8580 C   0  0  0  0  0  0  0  0  0  0  0  0
  160.4840  208.6830  155.4860 C   0  0  0  0  0  3  0  0  0  0  0  0
  160.6000  207.3250  155.1930 C   0  0  0  0  0  3  0  0  0  0  0  0
  160.6050  209.6090  154.4930 N   0  0  0  0  0  0  0  0  0  0  0  0
  160.8380  209.2440  153.2040 C   0  0  0  0  0  3  0  0  0  0  0  0
  160.8370  206.9310  153.8740 C   0  0  0  0  0  3  0  0  0  0  0  0
  160.3130  203.4560  150.3220 C   0  0  2  0  0  3  0  0  0  0  0  0
  161.5850  203.2700  151.6070 S   0  0  0  0  0  1  0  0  0  0  0  0
  160.0040  202.1940  149.8100 O   0  0  0  0  0  0  0  0  0  0  0  0
  160.8270  201.3100  150.5170 C   0  0  0  0  0  1  0  0  0  0  0  0
  161.9680  203.8490  148.3380 C   0  0  0  0  0  2  0  0  0  0  0  0
  160.8310  202.3010  145.2150 O   0  0  0  0  0  0  0  0  0  0  0  0
  161.0620  202.4610  146.4440 C   0  0  0  0  0  0  0  0  0  0  0  0
  161.6080  203.6990  146.9290 N   0  0  0  0  0  0  0  0  0  0  0  0
  160.7900  201.4220  147.3210 O   0  0  0  0  0  1  0  0  0  0  0  0
  162.1150  204.6980  145.9980 C   0  0  0  0  0  2  0  0  0  0  0  0
  161.5680  205.4530  143.4830 O   0  0  0  0  0  1  0  0  0  0  0  0
  159.9790  205.3460  145.1290 O   0  0  0  0  0  0  0  0  0  0  0  0
  160.8280  206.2030  144.4020 C   0  0  1  0  0  3  0  0  0  0  0  0
  161.1060  205.8290  145.8230 C   0  0  2  0  0  3  0  0  0  0  0  0
  1 18  1  1  0  0  0
  1  7  1  0  0  0  0
  1 14  1  0  0  0  0
  2  6  1  0  0  0  0
  3  5  1  0  0  0  0
  4  3  2  0  0  0  0
  4  7  1  0  0  0  0
  5  6  2  0  0  0  0
  6  8  1  0  0  0  0
  7  2  2  0  0  0  0
  8 12  2  0  0  0  0
  8 13  1  0  0  0  0
 10  9  1  0  0  0  0
 11  9  2  0  0  0  0
 12 11  1  0  0  0  0
 13 10  2  0  0  0  0
 14 15  1  1  0  0  0
 16 14  1  0  0  0  0
 16 17  1  0  0  0  0
 19 20  2  0  0  0  0
 20 21  1  0  0  0  0
 20 22  1  0  0  0  0
 21 18  1  0  0  0  0
 23 21  1  0  0  0  0
 25 27  1  0  0  0  0
 26 24  1  6  0  0  0
 26 25  1  0  0  0  0
 26 27  1  0  0  0  0
 27 23  1  6  0  0  0
M  END
>  <MODEL>
8

>  <REMARK>
 VINA RESULT:      -6.8      1.883      3.583
  Name = 
  8 active torsions:
  status: ('A' for Active; 'I' for Inactive)
    1  A    between atoms: C_1  and  N_17
    2  A    between atoms: C_1  and  C_26
    3  A    between atoms: O_5  and  C_8
    4  A    between atoms: C_6  and  C_22
    5  A    between atoms: C_8  and  C_24
    6  A    between atoms: C_14  and  N_17
    7  A    between atoms: C_14  and  C_24
    8  A    between atoms: C_24  and  C_27
                            x       y       z     vdW  Elec       q    Type
                         _______ _______ _______ _____ _____    ______ ____

>  <TORSDO>
F 8

$$$$
=
 OpenBabel11042421333D

 27 29  0  0  1  0  0  0  0  0999 V2000
  161.9250  205.2910  147.4370 C   0  0  2  0  0  3  0  0  0  0  0  0
  161.6400  206.3630  149.7110 C   0  0  0  0  0  3  0  0  0  0  0  0
  162.2500  208.8610  148.6370 C   0  0  0  0  0  3  0  0  0  0  0  0
  162.2390  207.7350  147.8140 C   0  0  0  0  0  3  0  0  0  0  0  0
  161.9550  208.7390  149.9980 C   0  0  0  0  0  3  0  0  0  0  0  0
  161.6470  207.4890  150.5480 C   0  0  0  0  0  0  0  0  0  0  0  0
  161.9340  206.4840  148.3450 C   0  0  0  0  0  0  0  0  0  0  0  0
  161.3570  207.3540  151.9920 C   0  0  0  0  0  0  0  0  0  0  0  0
  160.8210  207.1290  154.7170 C   0  0  0  0  0  3  0  0  0  0  0  0
  161.2040  205.9960  154.0000 C   0  0  0  0  0  3  0  0  0  0  0  0
  160.7150  208.3320  154.0880 N   0  0  0  0  0  0  0  0  0  0  0  0
  160.9720  208.4660  152.7590 C   0  0  0  0  0  3  0  0  0  0  0  0
  161.4710  206.1130  152.6340 C   0  0  0  0  0  3  0  0  0  0  0  0
  162.0550  205.6260  145.9380 C   0  0  2  0  0  3  0  0  0  0  0  0
  160.3950  205.8520  145.2350 S   0  0  0  0  0  1  0  0  0  0  0  0
  162.7070  204.6120  145.2340 O   0  0  0  0  0  0  0  0  0  0  0  0
  163.8480  204.3280  145.9930 C   0  0  0  0  0  1  0  0  0  0  0  0
  160.7870  204.3250  147.8160 C   0  0  0  0  0  2  0  0  0  0  0  0
  161.2420  200.7460  147.1590 O   0  0  0  0  0  1  0  0  0  0  0  0
  160.9560  201.9600  146.9710 C   0  0  0  0  0  0  0  0  0  0  0  0
  161.2090  202.9370  147.9950 N   0  0  0  0  0  0  0  0  0  0  0  0
  160.3860  202.3380  145.7650 O   0  0  0  0  0  0  0  0  0  0  0  0
  161.5820  202.5170  149.3400 C   0  0  0  0  0  2  0  0  0  0  0  0
  161.9550  202.7580  151.9850 O   0  0  0  0  0  1  0  0  0  0  0  0
  160.1230  203.6010  150.8990 O   0  0  0  0  0  0  0  0  0  0  0  0
  160.6060  202.5390  151.6870 C   0  0  1  0  0  3  0  0  0  0  0  0
  160.3460  202.3850  150.2240 C   0  0  2  0  0  3  0  0  0  0  0  0
  1 18  1  6  0  0  0
  1  7  1  0  0  0  0
  2  6  1  0  0  0  0
  3  5  1  0  0  0  0
  4  7  1  0  0  0  0
  4  3  2  0  0  0  0
  5  6  2  0  0  0  0
  6  8  1  0  0  0  0
  7  2  2  0  0  0  0
  8 13  2  0  0  0  0
  8 12  1  0  0  0  0
 10  9  2  0  0  0  0
 11  9  1  0  0  0  0
 12 11  2  0  0  0  0
 13 10  1  0  0  0  0
 14 15  1  6  0  0  0
 14  1  1  0  0  0  0
 16 14  1  0  0  0  0
 16 17  1  0  0  0  0
 18 21  1  0  0  0  0
 20 19  1  0  0  0  0
 20 21  1  0  0  0  0
 21 23  1  0  0  0  0
 22 20  2  0  0  0  0
 25 26  1  0  0  0  0
 26 24  1  6  0  0  0
 27 23  1  6  0  0  0
 27 25  1  0  0  0  0
 27 26  1  0  0  0  0
M  END
>  <MODEL>
9

>  <REMARK>
 VINA RESULT:      -6.8      1.180      2.845
  Name = 
  8 active torsions:
  status: ('A' for Active; 'I' for Inactive)
    1  A    between atoms: C_1  and  N_17
    2  A    between atoms: C_1  and  C_26
    3  A    between atoms: O_5  and  C_8
    4  A    between atoms: C_6  and  C_22
    5  A    between atoms: C_8  and  C_24
    6  A    between atoms: C_14  and  N_17
    7  A    between atoms: C_14  and  C_24
    8  A    between atoms: C_24  and  C_27
                            x       y       z     vdW  Elec       q    Type
                         _______ _______ _______ _____ _____    ______ ____

>  <TORSDO>
F 8

$$$$
