=
 OpenBabel11042420493D

 41 45  0  0  1  0  0  0  0  0999 V2000
  161.2000  207.1760  154.6210 C   0  0  1  0  0  3  0  0  0  0  0  0
  161.0980  206.6430  149.8560 C   0  0  0  0  0  3  0  0  0  0  0  0
  160.1040  206.9950  155.6270 C   0  0  0  0  0  3  0  0  0  0  0  0
  159.4560  208.0540  156.1200 C   0  0  0  0  0  3  0  0  0  0  0  0
  161.1190  206.7600  152.3430 C   0  0  0  0  0  0  0  0  0  0  0  0
  161.1640  204.6700  151.0980 N   0  0  0  0  0  0  0  0  0  0  0  0
  161.1220  206.0840  151.1970 C   0  0  0  0  0  0  0  0  0  0  0  0
  159.7200  209.4290  155.6310 C   0  0  0  0  0  0  0  0  0  0  0  0
  161.1580  206.1290  153.6160 N   0  0  0  0  0  2  0  0  0  0  0  0
  161.0370  208.4390  153.8960 N   0  0  0  0  0  0  0  0  0  0  0  0
  160.4730  209.6060  154.5210 C   0  0  0  0  0  0  0  0  0  0  0  0
  161.1490  204.4630  149.8210 C   0  0  0  0  0  0  0  0  0  0  0  0
  161.0590  208.2360  152.4560 C   0  0  0  0  0  2  0  0  0  0  0  0
  161.1200  205.6520  149.0270 N   0  0  0  0  0  0  0  0  0  0  0  0
  160.7210  210.9380  153.9100 C   0  0  0  0  0  0  0  0  0  0  0  0
  161.4020  211.8140  154.5100 O   0  0  0  0  0  0  0  0  0  0  0  0
  160.1700  211.2210  152.6600 O   0  0  0  0  0  0  0  0  0  0  0  0
  159.7880  212.5340  152.2790 C   0  0  0  0  0  2  0  0  0  0  0  0
  158.3370  212.5320  151.8340 C   0  0  0  0  0  2  0  0  0  0  0  0
  157.9760  213.8400  151.3150 N   0  0  0  0  0  0  0  0  0  0  0  0
  158.6320  213.9680  150.0070 C   0  0  0  0  0  2  0  0  0  0  0  0
  157.2230  213.6090  150.0750 C   0  0  0  0  0  2  0  0  0  0  0  0
  159.1320  210.5380  156.3170 N   0  0  0  0  0  2  0  0  0  0  0  0
  157.7620  210.8190  156.2130 N   0  0  0  0  0  2  0  0  0  0  0  0
  157.5580  211.3110  154.9680 O   0  0  0  0  0  0  0  0  0  0  0  0
  156.2740  211.7410  154.9810 N   0  0  0  0  0  2  0  0  0  0  0  0
  157.7980  214.1550  155.1440 C   0  0  0  0  0  1  0  0  0  0  0  0
  155.1180  214.1220  155.0600 O   0  0  0  0  0  0  0  0  0  0  0  0
  156.1880  213.3050  157.1120 O   0  0  0  0  0  0  0  0  0  0  0  0
  156.2830  213.3510  155.6140 S   0  0  0  0  0  0  0  0  0  0  0  0
  161.2280  203.1000  149.2320 C   0  0  0  0  0  2  0  0  0  0  0  0
  160.5330  203.0800  147.9570 N   0  0  0  0  0  2  0  0  0  0  0  0
  160.1100  201.5270  145.1550 C   0  0  0  0  0  2  0  0  0  0  0  0
  161.6120  203.0610  145.7450 C   0  0  2  0  0  3  0  0  0  0  0  0
  160.5350  202.8380  144.8810 O   0  0  0  0  0  0  0  0  0  0  0  0
  160.5540  201.1340  146.5540 C   0  0  0  0  0  2  0  0  0  0  0  0
  161.3540  202.3040  147.0400 C   0  0  2  0  0  3  0  0  0  0  0  0
  161.9390  204.5590  145.8640 C   0  0  1  0  0  3  0  0  0  0  0  0
  163.3180  204.7740  145.9140 O   0  0  0  0  0  1  0  0  0  0  0  0
  161.3250  205.3790  144.7380 C   0  0  0  0  0  2  0  0  0  0  0  0
  160.1920  206.2410  145.2640 C   0  0  0  0  0  1  0  0  0  0  0  0
  1  3  1  1  0  0  0
  2  7  1  0  0  0  0
  3  4  2  0  0  0  0
  5 13  1  0  0  0  0
  5  9  1  0  0  0  0
  6  7  1  0  0  0  0
  7  5  2  0  0  0  0
  8  4  1  0  0  0  0
  8 23  1  0  0  0  0
  9  1  1  0  0  0  0
 10 11  1  0  0  0  0
 10  1  1  0  0  0  0
 11  8  2  0  0  0  0
 12  6  2  0  0  0  0
 13 10  1  0  0  0  0
 14 12  1  0  0  0  0
 14  2  2  0  0  0  0
 15 16  2  0  0  0  0
 15 11  1  0  0  0  0
 17 15  1  0  0  0  0
 18 17  1  0  0  0  0
 19 18  1  0  0  0  0
 20 19  1  0  0  0  0
 21 22  1  0  0  0  0
 21 20  1  0  0  0  0
 22 20  1  0  0  0  0
 24 23  1  0  0  0  0
 25 26  1  0  0  0  0
 25 24  1  0  0  0  0
 26 30  1  0  0  0  0
 27 30  1  0  0  0  0
 28 30  2  0  0  0  0
 30 29  2  0  0  0  0
 31 12  1  0  0  0  0
 32 31  1  0  0  0  0
 33 36  1  0  0  0  0
 34 38  1  1  0  0  0
 34 37  1  0  0  0  0
 35 33  1  0  0  0  0
 35 34  1  0  0  0  0
 36 37  1  0  0  0  0
 37 32  1  1  0  0  0
 38 39  1  6  0  0  0
 40 41  1  0  0  0  0
 40 38  1  0  0  0  0
M  END
>  <MODEL>
1

>  <REMARK>
 VINA RESULT:      -6.5      0.000      0.000
  Name = 
  15 active torsions:
  status: ('A' for Active; 'I' for Inactive)
    1  A    between atoms: C_1  and  O_27
    2  A    between atoms: C_1  and  C_28
    3  A    between atoms: N_5  and  O_30
    4  A    between atoms: N_5  and  S_36
    5  A    between atoms: N_6  and  C_11
    6  A    between atoms: C_10  and  C_11
    7  A    between atoms: C_10  and  O_27
    8  A    between atoms: C_16  and  C_38
    9  A    between atoms: C_21  and  N_23
   10  A    between atoms: N_22  and  N_23
   11  A    between atoms: N_22  and  O_30
   12  A    between atoms: C_31  and  C_38
   13  A    between atoms: N_32  and  C_35
   14  A    between atoms: N_32  and  C_37
   15  A    between atoms: C_33  and  C_35
                            x       y       z     vdW  Elec       q    Type
                         _______ _______ _______ _____ _____    ______ ____

>  <TORSDO>
F 15

$$$$
=
 OpenBabel11042420493D

 41 45  0  0  1  0  0  0  0  0999 V2000
  162.2960  210.0470  151.7880 C   0  0  1  0  0  3  0  0  0  0  0  0
  159.4960  209.6880  155.6640 C   0  0  0  0  0  3  0  0  0  0  0  0
  161.9360  210.4000  150.3770 C   0  0  0  0  0  3  0  0  0  0  0  0
  161.7970  209.4450  149.4550 C   0  0  0  0  0  3  0  0  0  0  0  0
  160.9120  210.0340  153.6460 C   0  0  0  0  0  0  0  0  0  0  0  0
  160.0180  211.8570  154.9860 N   0  0  0  0  0  0  0  0  0  0  0  0
  160.1990  210.4860  154.6740 C   0  0  2  0  0  3  0  0  0  0  0  0
  161.8980  208.0060  149.7980 C   0  0  0  0  0  0  0  0  0  0  0  0
  161.5830  210.8890  152.7320 N   0  0  0  0  0  0  0  0  0  0  0  0
  161.9020  208.6710  152.0970 N   0  0  0  0  0  0  0  0  0  0  0  0
  161.9180  207.6340  151.0990 C   0  0  0  0  0  0  0  0  0  0  0  0
  159.2700  211.8240  156.0410 C   0  0  0  0  0  0  0  0  0  0  0  0
  161.0930  208.6040  153.3050 C   0  0  0  0  0  2  0  0  0  0  0  0
  158.9380  210.5080  156.4930 N   0  0  0  0  0  0  0  0  0  0  0  0
  161.9330  206.2140  151.5390 C   0  0  0  0  0  0  0  0  0  0  0  0
  162.6260  205.8440  152.5260 O   0  0  0  0  0  0  0  0  0  0  0  0
  161.1770  205.2800  150.8290 O   0  0  0  0  0  0  0  0  0  0  0  0
  161.2230  203.8910  151.1190 C   0  0  0  0  0  2  0  0  0  0  0  0
  161.2170  203.1010  149.8240 C   0  0  0  0  0  2  0  0  0  0  0  0
  161.1180  201.6800  150.1090 N   0  0  0  0  0  0  0  0  0  0  0  0
  159.8570  201.2190  149.5130 C   0  0  0  0  0  2  0  0  0  0  0  0
  161.1130  200.9890  148.8120 C   0  0  0  0  0  2  0  0  0  0  0  0
  161.9220  207.0370  148.7460 N   0  0  0  0  0  2  0  0  0  0  0  0
  161.2150  207.2350  147.5520 N   0  0  0  0  0  2  0  0  0  0  0  0
  160.7750  206.0190  147.1520 O   0  0  0  0  0  0  0  0  0  0  0  0
  160.3260  206.2190  145.8900 N   0  0  0  0  0  2  0  0  0  0  0  0
  162.7430  204.7140  145.6420 C   0  0  0  0  0  1  0  0  0  0  0  0
  160.4020  203.8950  144.6240 O   0  0  0  0  0  0  0  0  0  0  0  0
  161.4850  205.8180  143.5470 O   0  0  0  0  0  0  0  0  0  0  0  0
  161.2060  205.1430  144.8610 S   0  0  0  0  0  0  0  0  0  0  0  0
  158.8520  213.0550  156.7630 C   0  0  0  0  0  2  0  0  0  0  0  0
  157.9460  213.8250  155.9270 N   0  0  0  0  0  2  0  0  0  0  0  0
  154.7350  214.1240  156.1150 C   0  0  0  0  0  2  0  0  0  0  0  0
  156.0260  213.4360  154.4370 C   0  0  2  0  0  3  0  0  0  0  0  0
  155.1390  214.4520  154.8100 O   0  0  0  0  0  0  0  0  0  0  0  0
  155.7760  213.2240  156.7570 C   0  0  0  0  0  2  0  0  0  0  0  0
  156.7860  212.9830  155.6760 C   0  0  2  0  0  3  0  0  0  0  0  0
  156.8630  213.8400  153.2120 C   0  0  1  0  0  3  0  0  0  0  0  0
  157.5870  212.7540  152.7140 O   0  0  0  0  0  1  0  0  0  0  0  0
  156.0160  214.4530  152.1060 C   0  0  0  0  0  2  0  0  0  0  0  0
  156.6130  214.1430  150.7460 C   0  0  0  0  0  1  0  0  0  0  0  0
  1  3  1  6  0  0  0
  1 10  1  0  0  0  0
  1  9  1  0  0  0  0
  2 14  2  0  0  0  0
  4  8  1  0  0  0  0
  4  3  2  0  0  0  0
  6 12  2  0  0  0  0
  7  5  1  1  0  0  0
  7  6  1  0  0  0  0
  7  2  1  0  0  0  0
  8 11  2  0  0  0  0
  9  5  2  0  0  0  0
 10 13  1  0  0  0  0
 11 15  1  0  0  0  0
 11 10  1  0  0  0  0
 12 14  1  0  0  0  0
 12 31  1  0  0  0  0
 13  5  1  0  0  0  0
 15 16  2  0  0  0  0
 17 18  1  0  0  0  0
 17 15  1  0  0  0  0
 19 20  1  0  0  0  0
 19 18  1  0  0  0  0
 21 20  1  0  0  0  0
 22 21  1  0  0  0  0
 22 20  1  0  0  0  0
 23  8  1  0  0  0  0
 24 23  1  0  0  0  0
 25 24  1  0  0  0  0
 26 25  1  0  0  0  0
 28 30  2  0  0  0  0
 29 30  2  0  0  0  0
 30 27  1  0  0  0  0
 30 26  1  0  0  0  0
 32 31  1  0  0  0  0
 33 36  1  0  0  0  0
 34 38  1  6  0  0  0
 34 35  1  0  0  0  0
 34 37  1  0  0  0  0
 35 33  1  0  0  0  0
 37 32  1  1  0  0  0
 37 36  1  0  0  0  0
 38 39  1  6  0  0  0
 40 38  1  0  0  0  0
 41 40  1  0  0  0  0
M  END
>  <MODEL>
2

>  <REMARK>
 VINA RESULT:      -6.4      3.284     10.872
  Name = 
  15 active torsions:
  status: ('A' for Active; 'I' for Inactive)
    1  A    between atoms: C_1  and  O_27
    2  A    between atoms: C_1  and  C_28
    3  A    between atoms: N_5  and  O_30
    4  A    between atoms: N_5  and  S_36
    5  A    between atoms: N_6  and  C_11
    6  A    between atoms: C_10  and  C_11
    7  A    between atoms: C_10  and  O_27
    8  A    between atoms: C_16  and  C_38
    9  A    between atoms: C_21  and  N_23
   10  A    between atoms: N_22  and  N_23
   11  A    between atoms: N_22  and  O_30
   12  A    between atoms: C_31  and  C_38
   13  A    between atoms: N_32  and  C_35
   14  A    between atoms: N_32  and  C_37
   15  A    between atoms: C_33  and  C_35
                            x       y       z     vdW  Elec       q    Type
                         _______ _______ _______ _____ _____    ______ ____

>  <TORSDO>
F 15

$$$$
=
 OpenBabel11042420493D

 41 45  0  0  1  0  0  0  0  0999 V2000
  162.3990  207.3870  149.0680 C   0  0  1  0  0  3  0  0  0  0  0  0
  161.4510  211.9920  150.0110 C   0  0  0  0  0  3  0  0  0  0  0  0
  161.5210  206.3340  148.4620 C   0  0  0  0  0  3  0  0  0  0  0  0
  160.9130  205.4320  149.2370 C   0  0  0  0  0  3  0  0  0  0  0  0
  161.9230  209.6350  149.3620 C   0  0  0  0  0  0  0  0  0  0  0  0
  161.8630  211.4770  147.7740 N   0  0  0  0  0  0  0  0  0  0  0  0
  161.7550  210.9230  149.0750 C   0  0  2  0  0  3  0  0  0  0  0  0
  160.9990  205.4870  150.7160 C   0  0  0  0  0  0  0  0  0  0  0  0
  162.2350  208.6560  148.3810 N   0  0  0  0  0  0  0  0  0  0  0  0
  162.0300  207.6320  150.4640 N   0  0  0  0  0  0  0  0  0  0  0  0
  161.5210  206.5850  151.3100 C   0  0  0  0  0  0  0  0  0  0  0  0
  161.6240  212.7330  147.9680 C   0  0  0  0  0  0  0  0  0  0  0  0
  161.7970  209.0460  150.7160 C   0  0  0  0  0  2  0  0  0  0  0  0
  161.3780  213.0880  149.3310 N   0  0  0  0  0  0  0  0  0  0  0  0
  161.5720  206.7650  152.7850 C   0  0  0  0  0  0  0  0  0  0  0  0
  162.4260  206.1590  153.4870 O   0  0  0  0  0  0  0  0  0  0  0  0
  160.6420  207.6080  153.3940 O   0  0  0  0  0  0  0  0  0  0  0  0
  160.8830  208.2200  154.6520 C   0  0  0  0  0  2  0  0  0  0  0  0
  161.1590  209.6990  154.4540 C   0  0  0  0  0  2  0  0  0  0  0  0
  160.1290  210.2880  153.6160 N   0  0  0  0  0  0  0  0  0  0  0  0
  159.2290  211.0240  154.5140 C   0  0  0  0  0  2  0  0  0  0  0  0
  160.2470  211.7450  153.7640 C   0  0  0  0  0  2  0  0  0  0  0  0
  160.4820  204.3980  151.4860 N   0  0  0  0  0  2  0  0  0  0  0  0
  161.2250  203.2270  151.6890 N   0  0  0  0  0  2  0  0  0  0  0  0
  160.6320  202.2560  150.9540 O   0  0  0  0  0  0  0  0  0  0  0  0
  161.6180  201.7860  150.1540 N   0  0  0  0  0  2  0  0  0  0  0  0
  161.3160  202.6850  147.4570 C   0  0  0  0  0  1  0  0  0  0  0  0
  161.4140  200.0920  148.1300 O   0  0  0  0  0  0  0  0  0  0  0  0
  159.4040  201.3450  148.7750 O   0  0  0  0  0  0  0  0  0  0  0  0
  160.8980  201.4130  148.6260 S   0  0  0  0  0  0  0  0  0  0  0  0
  161.6750  213.7340  146.8690 C   0  0  0  0  0  2  0  0  0  0  0  0
  160.3300  214.1900  146.5640 N   0  0  0  0  0  2  0  0  0  0  0  0
  157.2520  213.4960  145.8660 C   0  0  0  0  0  2  0  0  0  0  0  0
  159.1090  213.1870  144.6760 C   0  0  2  0  0  3  0  0  0  0  0  0
  157.9010  213.8920  144.6850 O   0  0  0  0  0  0  0  0  0  0  0  0
  158.2800  212.9780  146.8580 C   0  0  0  0  0  2  0  0  0  0  0  0
  159.5810  213.0260  146.1150 C   0  0  2  0  0  3  0  0  0  0  0  0
  160.1080  213.7920  143.6770 C   0  0  1  0  0  3  0  0  0  0  0  0
  161.1690  212.9180  143.4310 O   0  0  0  0  0  1  0  0  0  0  0  0
  159.4480  214.1910  142.3640 C   0  0  0  0  0  2  0  0  0  0  0  0
  159.0890  212.9600  141.5530 C   0  0  0  0  0  1  0  0  0  0  0  0
  1  3  1  6  0  0  0
  1 10  1  0  0  0  0
  3  4  2  0  0  0  0
  4  8  1  0  0  0  0
  5 13  1  0  0  0  0
  6 12  2  0  0  0  0
  6  7  1  0  0  0  0
  7  5  1  1  0  0  0
  7  2  1  0  0  0  0
  8 11  2  0  0  0  0
  8 23  1  0  0  0  0
  9  1  1  0  0  0  0
  9  5  2  0  0  0  0
 10 13  1  0  0  0  0
 10 11  1  0  0  0  0
 11 15  1  0  0  0  0
 12 14  1  0  0  0  0
 14  2  2  0  0  0  0
 15 17  1  0  0  0  0
 15 16  2  0  0  0  0
 17 18  1  0  0  0  0
 19 18  1  0  0  0  0
 20 22  1  0  0  0  0
 20 19  1  0  0  0  0
 20 21  1  0  0  0  0
 22 21  1  0  0  0  0
 23 24  1  0  0  0  0
 25 24  1  0  0  0  0
 26 25  1  0  0  0  0
 27 30  1  0  0  0  0
 28 30  2  0  0  0  0
 30 29  2  0  0  0  0
 30 26  1  0  0  0  0
 31 12  1  0  0  0  0
 32 31  1  0  0  0  0
 33 36  1  0  0  0  0
 34 38  1  6  0  0  0
 34 35  1  0  0  0  0
 34 37  1  0  0  0  0
 35 33  1  0  0  0  0
 37 32  1  1  0  0  0
 37 36  1  0  0  0  0
 38 39  1  6  0  0  0
 40 38  1  0  0  0  0
 41 40  1  0  0  0  0
M  END
>  <MODEL>
3

>  <REMARK>
 VINA RESULT:      -6.1      4.733      8.921
  Name = 
  15 active torsions:
  status: ('A' for Active; 'I' for Inactive)
    1  A    between atoms: C_1  and  O_27
    2  A    between atoms: C_1  and  C_28
    3  A    between atoms: N_5  and  O_30
    4  A    between atoms: N_5  and  S_36
    5  A    between atoms: N_6  and  C_11
    6  A    between atoms: C_10  and  C_11
    7  A    between atoms: C_10  and  O_27
    8  A    between atoms: C_16  and  C_38
    9  A    between atoms: C_21  and  N_23
   10  A    between atoms: N_22  and  N_23
   11  A    between atoms: N_22  and  O_30
   12  A    between atoms: C_31  and  C_38
   13  A    between atoms: N_32  and  C_35
   14  A    between atoms: N_32  and  C_37
   15  A    between atoms: C_33  and  C_35
                            x       y       z     vdW  Elec       q    Type
                         _______ _______ _______ _____ _____    ______ ____

>  <TORSDO>
F 15

$$$$
=
 OpenBabel11042420493D

 41 45  0  0  1  0  0  0  0  0999 V2000
  160.9150  208.7350  152.2600 C   0  0  1  0  0  3  0  0  0  0  0  0
  160.8960  203.9530  152.6080 C   0  0  0  0  0  3  0  0  0  0  0  0
  162.0660  209.6760  152.0690 C   0  0  0  0  0  3  0  0  0  0  0  0
  162.5730  210.3450  153.1080 C   0  0  0  0  0  3  0  0  0  0  0  0
  160.9620  206.4190  152.2750 C   0  0  0  0  0  0  0  0  0  0  0  0
  161.1690  204.8140  150.4580 N   0  0  0  0  0  0  0  0  0  0  0  0
  161.0100  205.1690  151.8220 C   0  0  2  0  0  3  0  0  0  0  0  0
  162.0920  210.1200  154.4930 C   0  0  0  0  0  0  0  0  0  0  0  0
  161.0670  207.5550  151.4280 N   0  0  0  0  0  0  0  0  0  0  0  0
  160.8620  208.2520  153.6420 N   0  0  0  0  0  0  0  0  0  0  0  0
  161.2770  209.0710  154.7500 C   0  0  0  0  0  0  0  0  0  0  0  0
  161.1610  203.5210  150.4880 C   0  0  0  0  0  0  0  0  0  0  0  0
  160.8110  206.7990  153.6990 C   0  0  0  0  0  2  0  0  0  0  0  0
  160.9850  202.9570  151.7900 N   0  0  0  0  0  0  0  0  0  0  0  0
  160.8130  208.7180  156.1170 C   0  0  0  0  0  0  0  0  0  0  0  0
  161.5230  208.0140  156.8860 O   0  0  0  0  0  0  0  0  0  0  0  0
  159.5600  209.1630  156.5410 O   0  0  0  0  0  0  0  0  0  0  0  0
  159.2960  210.5290  156.8220 C   0  0  0  0  0  2  0  0  0  0  0  0
  158.6730  211.1870  155.6050 C   0  0  0  0  0  2  0  0  0  0  0  0
  159.0460  212.5900  155.5540 N   0  0  0  0  0  0  0  0  0  0  0  0
  158.4040  213.1510  154.3570 C   0  0  0  0  0  2  0  0  0  0  0  0
  157.8010  213.3630  155.6660 C   0  0  0  0  0  2  0  0  0  0  0  0
  162.5410  210.9880  155.5370 N   0  0  0  0  0  2  0  0  0  0  0  0
  163.6730  210.6840  156.3060 N   0  0  0  0  0  2  0  0  0  0  0  0
  164.2660  211.8630  156.6120 O   0  0  0  0  0  0  0  0  0  0  0  0
  165.4180  211.5120  157.2310 N   0  0  0  0  0  2  0  0  0  0  0  0
  166.7040  212.6230  154.9330 C   0  0  0  0  0  1  0  0  0  0  0  0
  166.2990  214.0080  157.1920 O   0  0  0  0  0  0  0  0  0  0  0  0
  167.9690  212.2100  157.2590 O   0  0  0  0  0  0  0  0  0  0  0  0
  166.6340  212.6250  156.7090 S   0  0  0  0  0  0  0  0  0  0  0  0
  161.2570  202.6930  149.2560 C   0  0  0  0  0  2  0  0  0  0  0  0
  160.9880  203.5210  148.0920 N   0  0  0  0  0  2  0  0  0  0  0  0
  160.2820  202.4760  145.1170 C   0  0  0  0  0  2  0  0  0  0  0  0
  161.8430  203.9030  145.8150 C   0  0  2  0  0  3  0  0  0  0  0  0
  160.6830  203.8200  145.0360 O   0  0  0  0  0  0  0  0  0  0  0  0
  160.8610  201.8510  146.3740 C   0  0  0  0  0  2  0  0  0  0  0  0
  161.7110  202.9280  146.9770 C   0  0  2  0  0  3  0  0  0  0  0  0
  162.1860  205.3610  146.1620 C   0  0  1  0  0  3  0  0  0  0  0  0
  162.8000  206.0060  145.0860 O   0  0  0  0  0  1  0  0  0  0  0  0
  160.9680  206.1530  146.6170 C   0  0  0  0  0  2  0  0  0  0  0  0
  161.3340  207.0820  147.7590 C   0  0  0  0  0  1  0  0  0  0  0  0
  1  3  1  1  0  0  0
  1 10  1  0  0  0  0
  3  4  2  0  0  0  0
  4  8  1  0  0  0  0
  5 13  1  0  0  0  0
  6 12  2  0  0  0  0
  6  7  1  0  0  0  0
  7  5  1  6  0  0  0
  7  2  1  0  0  0  0
  8 11  2  0  0  0  0
  8 23  1  0  0  0  0
  9  1  1  0  0  0  0
  9  5  2  0  0  0  0
 10 13  1  0  0  0  0
 10 11  1  0  0  0  0
 11 15  1  0  0  0  0
 12 14  1  0  0  0  0
 14  2  2  0  0  0  0
 15 17  1  0  0  0  0
 15 16  2  0  0  0  0
 17 18  1  0  0  0  0
 19 18  1  0  0  0  0
 20 19  1  0  0  0  0
 20 22  1  0  0  0  0
 21 20  1  0  0  0  0
 21 22  1  0  0  0  0
 23 24  1  0  0  0  0
 24 25  1  0  0  0  0
 25 26  1  0  0  0  0
 27 30  1  0  0  0  0
 30 28  2  0  0  0  0
 30 26  1  0  0  0  0
 30 29  2  0  0  0  0
 31 12  1  0  0  0  0
 32 31  1  0  0  0  0
 33 36  1  0  0  0  0
 34 38  1  1  0  0  0
 34 37  1  0  0  0  0
 35 33  1  0  0  0  0
 35 34  1  0  0  0  0
 36 37  1  0  0  0  0
 37 32  1  1  0  0  0
 38 39  1  6  0  0  0
 38 40  1  0  0  0  0
 40 41  1  0  0  0  0
M  END
>  <MODEL>
4

>  <REMARK>
 VINA RESULT:      -6.0      3.172      4.775
  Name = 
  15 active torsions:
  status: ('A' for Active; 'I' for Inactive)
    1  A    between atoms: C_1  and  O_27
    2  A    between atoms: C_1  and  C_28
    3  A    between atoms: N_5  and  O_30
    4  A    between atoms: N_5  and  S_36
    5  A    between atoms: N_6  and  C_11
    6  A    between atoms: C_10  and  C_11
    7  A    between atoms: C_10  and  O_27
    8  A    between atoms: C_16  and  C_38
    9  A    between atoms: C_21  and  N_23
   10  A    between atoms: N_22  and  N_23
   11  A    between atoms: N_22  and  O_30
   12  A    between atoms: C_31  and  C_38
   13  A    between atoms: N_32  and  C_35
   14  A    between atoms: N_32  and  C_37
   15  A    between atoms: C_33  and  C_35
                            x       y       z     vdW  Elec       q    Type
                         _______ _______ _______ _____ _____    ______ ____

>  <TORSDO>
F 15

$$$$
=
 OpenBabel11042420493D

 41 45  0  0  1  0  0  0  0  0999 V2000
  162.2070  205.9580  151.6980 C   0  0  1  0  0  3  0  0  0  0  0  0
  161.0780  206.9770  147.1500 C   0  0  0  0  0  3  0  0  0  0  0  0
  161.3510  205.3970  152.7930 C   0  0  0  0  0  3  0  0  0  0  0  0
  160.8340  206.1990  153.7270 C   0  0  0  0  0  3  0  0  0  0  0  0
  161.6340  206.2910  149.4780 C   0  0  0  0  0  0  0  0  0  0  0  0
  161.3900  204.7180  147.6380 N   0  0  0  0  0  0  0  0  0  0  0  0
  161.3840  206.0200  148.1990 C   0  0  0  0  0  0  0  0  0  0  0  0
  161.0000  207.6720  153.6710 C   0  0  0  0  0  0  0  0  0  0  0  0
  161.9400  205.2890  150.4370 N   0  0  0  0  0  2  0  0  0  0  0  0
  161.9040  207.3740  151.4760 N   0  0  0  0  0  0  0  0  0  0  0  0
  161.4980  208.2420  152.5490 C   0  0  0  0  0  0  0  0  0  0  0  0
  161.0990  204.9320  146.3950 C   0  0  0  0  0  0  0  0  0  0  0  0
  161.6140  207.6460  150.0760 C   0  0  0  0  0  2  0  0  0  0  0  0
  160.9110  206.3080  146.0570 N   0  0  0  0  0  0  0  0  0  0  0  0
  161.6220  209.7120  152.3700 C   0  0  0  0  0  0  0  0  0  0  0  0
  162.6120  210.3440  152.8310 O   0  0  0  0  0  0  0  0  0  0  0  0
  160.6120  210.3970  151.6950 O   0  0  0  0  0  0  0  0  0  0  0  0
  160.5490  211.8150  151.6610 C   0  0  0  0  0  2  0  0  0  0  0  0
  160.7950  212.3010  150.2450 C   0  0  0  0  0  2  0  0  0  0  0  0
  161.9120  211.5810  149.6600 N   0  0  0  0  0  0  0  0  0  0  0  0
  161.5090  211.2180  148.2950 C   0  0  0  0  0  2  0  0  0  0  0  0
  162.3690  212.3730  148.5090 C   0  0  0  0  0  2  0  0  0  0  0  0
  160.5840  208.4640  154.7870 N   0  0  0  0  0  2  0  0  0  0  0  0
  161.5140  209.0550  155.6530 N   0  0  0  0  0  2  0  0  0  0  0  0
  160.8240  209.9130  156.4410 O   0  0  0  0  0  0  0  0  0  0  0  0
  159.9610  210.5280  155.5970 N   0  0  0  0  0  2  0  0  0  0  0  0
  158.0580  212.1260  157.0100 C   0  0  0  0  0  1  0  0  0  0  0  0
  160.7070  212.4470  157.2610 O   0  0  0  0  0  0  0  0  0  0  0  0
  159.6900  213.1170  155.1290 O   0  0  0  0  0  0  0  0  0  0  0  0
  159.6590  212.1050  156.2400 S   0  0  0  0  0  0  0  0  0  0  0  0
  161.0370  203.8370  145.3900 C   0  0  0  0  0  2  0  0  0  0  0  0
  161.5880  202.6200  145.9610 N   0  0  0  0  0  2  0  0  0  0  0  0
  161.2300  199.4100  145.9920 C   0  0  0  0  0  2  0  0  0  0  0  0
  160.5220  200.9570  147.4290 C   0  0  2  0  0  3  0  0  0  0  0  0
  161.3790  199.8560  147.3160 O   0  0  0  0  0  0  0  0  0  0  0  0
  160.7110  200.5480  145.1300 C   0  0  0  0  0  2  0  0  0  0  0  0
  160.4870  201.6780  146.0890 C   0  0  2  0  0  3  0  0  0  0  0  0
  160.8510  201.8030  148.6690 C   0  0  1  0  0  3  0  0  0  0  0  0
  159.7240  202.4880  149.1290 O   0  0  0  0  0  1  0  0  0  0  0  0
  161.4520  200.9730  149.7960 C   0  0  0  0  0  2  0  0  0  0  0  0
  161.4530  201.7610  151.0930 C   0  0  0  0  0  1  0  0  0  0  0  0
  1  3  1  1  0  0  0
  2  7  1  0  0  0  0
  3  4  2  0  0  0  0
  5 13  1  0  0  0  0
  5  9  1  0  0  0  0
  6  7  1  0  0  0  0
  7  5  2  0  0  0  0
  8  4  1  0  0  0  0
  8 23  1  0  0  0  0
  9  1  1  0  0  0  0
 10  1  1  0  0  0  0
 10 11  1  0  0  0  0
 11  8  2  0  0  0  0
 12  6  2  0  0  0  0
 13 10  1  0  0  0  0
 14 12  1  0  0  0  0
 14  2  2  0  0  0  0
 15 11  1  0  0  0  0
 15 16  2  0  0  0  0
 17 15  1  0  0  0  0
 18 17  1  0  0  0  0
 19 18  1  0  0  0  0
 20 19  1  0  0  0  0
 21 22  1  0  0  0  0
 21 20  1  0  0  0  0
 22 20  1  0  0  0  0
 23 24  1  0  0  0  0
 24 25  1  0  0  0  0
 26 30  1  0  0  0  0
 26 25  1  0  0  0  0
 29 30  2  0  0  0  0
 30 27  1  0  0  0  0
 30 28  2  0  0  0  0
 31 32  1  0  0  0  0
 31 12  1  0  0  0  0
 33 35  1  0  0  0  0
 34 38  1  1  0  0  0
 35 34  1  0  0  0  0
 36 33  1  0  0  0  0
 36 37  1  0  0  0  0
 37 32  1  1  0  0  0
 37 34  1  0  0  0  0
 38 39  1  1  0  0  0
 38 40  1  0  0  0  0
 40 41  1  0  0  0  0
M  END
>  <MODEL>
5

>  <REMARK>
 VINA RESULT:      -5.6      2.531      3.706
  Name = 
  15 active torsions:
  status: ('A' for Active; 'I' for Inactive)
    1  A    between atoms: C_1  and  O_27
    2  A    between atoms: C_1  and  C_28
    3  A    between atoms: N_5  and  O_30
    4  A    between atoms: N_5  and  S_36
    5  A    between atoms: N_6  and  C_11
    6  A    between atoms: C_10  and  C_11
    7  A    between atoms: C_10  and  O_27
    8  A    between atoms: C_16  and  C_38
    9  A    between atoms: C_21  and  N_23
   10  A    between atoms: N_22  and  N_23
   11  A    between atoms: N_22  and  O_30
   12  A    between atoms: C_31  and  C_38
   13  A    between atoms: N_32  and  C_35
   14  A    between atoms: N_32  and  C_37
   15  A    between atoms: C_33  and  C_35
                            x       y       z     vdW  Elec       q    Type
                         _______ _______ _______ _____ _____    ______ ____

>  <TORSDO>
F 15

$$$$
=
 OpenBabel11042420493D

 41 45  0  0  1  0  0  0  0  0999 V2000
  160.7340  208.0000  151.3530 C   0  0  1  0  0  3  0  0  0  0  0  0
  161.0640  203.2610  152.0030 C   0  0  0  0  0  3  0  0  0  0  0  0
  161.8080  209.0010  151.0520 C   0  0  0  0  0  3  0  0  0  0  0  0
  162.3090  209.7700  152.0240 C   0  0  0  0  0  3  0  0  0  0  0  0
  160.9440  205.6990  151.5120 C   0  0  0  0  0  0  0  0  0  0  0  0
  161.1900  203.9940  149.7930 N   0  0  0  0  0  0  0  0  0  0  0  0
  161.0610  204.4270  151.1370 C   0  0  2  0  0  3  0  0  0  0  0  0
  161.9000  209.6050  153.4390 C   0  0  0  0  0  0  0  0  0  0  0  0
  160.9350  206.7800  150.5920 N   0  0  0  0  0  0  0  0  0  0  0  0
  160.7710  207.6070  152.7640 N   0  0  0  0  0  0  0  0  0  0  0  0
  161.1710  208.5230  153.7980 C   0  0  0  0  0  0  0  0  0  0  0  0
  161.2740  202.7080  149.9050 C   0  0  0  0  0  0  0  0  0  0  0  0
  160.8230  206.1600  152.9150 C   0  0  0  0  0  2  0  0  0  0  0  0
  161.1890  202.2210  151.2460 N   0  0  0  0  0  0  0  0  0  0  0  0
  160.7880  208.2310  155.2040 C   0  0  0  0  0  0  0  0  0  0  0  0
  161.5810  207.6390  155.9870 O   0  0  0  0  0  0  0  0  0  0  0  0
  159.5200  208.6050  155.6500 O   0  0  0  0  0  0  0  0  0  0  0  0
  159.3150  209.7230  156.5010 C   0  0  0  0  0  2  0  0  0  0  0  0
  158.3550  210.6950  155.8420 C   0  0  0  0  0  2  0  0  0  0  0  0
  157.3260  211.0940  156.7860 N   0  0  0  0  0  0  0  0  0  0  0  0
  157.1320  212.5400  156.6090 C   0  0  0  0  0  2  0  0  0  0  0  0
  156.2000  211.6060  155.9930 C   0  0  0  0  0  2  0  0  0  0  0  0
  162.3290  210.5680  154.4060 N   0  0  0  0  0  2  0  0  0  0  0  0
  161.5890  211.7330  154.6570 N   0  0  0  0  0  2  0  0  0  0  0  0
  160.5020  211.6860  153.8510 O   0  0  0  0  0  0  0  0  0  0  0  0
  159.8830  212.8750  154.0480 N   0  0  0  0  0  2  0  0  0  0  0  0
  159.3810  214.3330  151.6410 C   0  0  0  0  0  1  0  0  0  0  0  0
  158.6040  211.7920  151.9980 O   0  0  0  0  0  0  0  0  0  0  0  0
  157.4320  213.5180  153.2910 O   0  0  0  0  0  0  0  0  0  0  0  0
  158.7630  213.0860  152.7460 S   0  0  0  0  0  0  0  0  0  0  0  0
  161.3770  201.8100  148.7240 C   0  0  0  0  0  2  0  0  0  0  0  0
  160.5170  202.3000  147.6620 N   0  0  0  0  0  2  0  0  0  0  0  0
  159.7450  202.2930  144.5240 C   0  0  0  0  0  2  0  0  0  0  0  0
  161.4320  203.2750  145.5950 C   0  0  2  0  0  3  0  0  0  0  0  0
  160.2800  203.5510  144.8510 O   0  0  0  0  0  0  0  0  0  0  0  0
  160.2430  201.2580  145.5180 C   0  0  0  0  0  2  0  0  0  0  0  0
  161.1890  202.0090  146.4050 C   0  0  2  0  0  3  0  0  0  0  0  0
  161.9160  204.5150  146.3640 C   0  0  1  0  0  3  0  0  0  0  0  0
  163.3000  204.6680  146.2580 O   0  0  0  0  0  1  0  0  0  0  0  0
  161.2150  205.7890  145.9140 C   0  0  0  0  0  2  0  0  0  0  0  0
  161.1720  206.8000  147.0450 C   0  0  0  0  0  1  0  0  0  0  0  0
  1  3  1  1  0  0  0
  1 10  1  0  0  0  0
  3  4  2  0  0  0  0
  4  8  1  0  0  0  0
  5 13  1  0  0  0  0
  6 12  2  0  0  0  0
  6  7  1  0  0  0  0
  7  5  1  6  0  0  0
  7  2  1  0  0  0  0
  8 11  2  0  0  0  0
  8 23  1  0  0  0  0
  9  1  1  0  0  0  0
  9  5  2  0  0  0  0
 10 13  1  0  0  0  0
 10 11  1  0  0  0  0
 11 15  1  0  0  0  0
 12 14  1  0  0  0  0
 14  2  2  0  0  0  0
 15 17  1  0  0  0  0
 15 16  2  0  0  0  0
 17 18  1  0  0  0  0
 19 18  1  0  0  0  0
 19 20  1  0  0  0  0
 21 20  1  0  0  0  0
 22 21  1  0  0  0  0
 22 20  1  0  0  0  0
 23 24  1  0  0  0  0
 25 26  1  0  0  0  0
 25 24  1  0  0  0  0
 27 30  1  0  0  0  0
 28 30  2  0  0  0  0
 30 29  2  0  0  0  0
 30 26  1  0  0  0  0
 31 12  1  0  0  0  0
 32 31  1  0  0  0  0
 33 35  1  0  0  0  0
 33 36  1  0  0  0  0
 34 38  1  1  0  0  0
 34 37  1  0  0  0  0
 35 34  1  0  0  0  0
 36 37  1  0  0  0  0
 37 32  1  1  0  0  0
 38 39  1  6  0  0  0
 40 38  1  0  0  0  0
 40 41  1  0  0  0  0
M  END
>  <MODEL>
6

>  <REMARK>
 VINA RESULT:      -5.6      1.973      3.478
  Name = 
  15 active torsions:
  status: ('A' for Active; 'I' for Inactive)
    1  A    between atoms: C_1  and  O_27
    2  A    between atoms: C_1  and  C_28
    3  A    between atoms: N_5  and  O_30
    4  A    between atoms: N_5  and  S_36
    5  A    between atoms: N_6  and  C_11
    6  A    between atoms: C_10  and  C_11
    7  A    between atoms: C_10  and  O_27
    8  A    between atoms: C_16  and  C_38
    9  A    between atoms: C_21  and  N_23
   10  A    between atoms: N_22  and  N_23
   11  A    between atoms: N_22  and  O_30
   12  A    between atoms: C_31  and  C_38
   13  A    between atoms: N_32  and  C_35
   14  A    between atoms: N_32  and  C_37
   15  A    between atoms: C_33  and  C_35
                            x       y       z     vdW  Elec       q    Type
                         _______ _______ _______ _____ _____    ______ ____

>  <TORSDO>
F 15

$$$$
=
 OpenBabel11042420493D

 41 45  0  0  1  0  0  0  0  0999 V2000
  162.3450  207.2940  148.5970 C   0  0  1  0  0  3  0  0  0  0  0  0
  161.7380  211.8780  149.8670 C   0  0  0  0  0  3  0  0  0  0  0  0
  161.3710  206.3350  147.9820 C   0  0  0  0  0  3  0  0  0  0  0  0
  160.7500  205.4240  148.7360 C   0  0  0  0  0  3  0  0  0  0  0  0
  162.0260  209.5430  149.0530 C   0  0  0  0  0  0  0  0  0  0  0  0
  161.9950  211.4820  147.5830 N   0  0  0  0  0  0  0  0  0  0  0  0
  161.9230  210.8550  148.8530 C   0  0  2  0  0  3  0  0  0  0  0  0
  160.9200  205.3800  150.2080 C   0  0  0  0  0  0  0  0  0  0  0  0
  162.2230  208.6120  147.9990 N   0  0  0  0  0  0  0  0  0  0  0  0
  162.0680  207.4720  150.0250 N   0  0  0  0  0  0  0  0  0  0  0  0
  161.5420  206.4060  150.8350 C   0  0  0  0  0  0  0  0  0  0  0  0
  161.8460  212.7360  147.8660 C   0  0  0  0  0  0  0  0  0  0  0  0
  161.9380  208.8780  150.3740 C   0  0  0  0  0  2  0  0  0  0  0  0
  161.6970  213.0180  149.2600 N   0  0  0  0  0  0  0  0  0  0  0  0
  161.6830  206.4890  152.3120 C   0  0  0  0  0  0  0  0  0  0  0  0
  162.6490  205.9370  152.9080 O   0  0  0  0  0  0  0  0  0  0  0  0
  160.7160  207.1770  153.0460 O   0  0  0  0  0  0  0  0  0  0  0  0
  160.7190  207.2050  154.4650 C   0  0  0  0  0  2  0  0  0  0  0  0
  160.6050  208.6400  154.9450 C   0  0  0  0  0  2  0  0  0  0  0  0
  161.5770  209.4720  154.2550 N   0  0  0  0  0  0  0  0  0  0  0  0
  161.1110  210.8590  154.3880 C   0  0  0  0  0  2  0  0  0  0  0  0
  162.1610  210.3640  155.2660 C   0  0  0  0  0  2  0  0  0  0  0  0
  160.3790  204.2770  150.9400 N   0  0  0  0  0  2  0  0  0  0  0  0
  160.1100  203.0480  150.3210 N   0  0  0  0  0  2  0  0  0  0  0  0
  161.2630  202.3400  150.3410 O   0  0  0  0  0  0  0  0  0  0  0  0
  160.9450  201.1580  149.7630 N   0  0  0  0  0  2  0  0  0  0  0  0
  161.5810  200.0070  147.2240 C   0  0  0  0  0  1  0  0  0  0  0  0
  159.4790  201.6250  147.6090 O   0  0  0  0  0  0  0  0  0  0  0  0
  161.7120  202.6390  147.7100 O   0  0  0  0  0  0  0  0  0  0  0  0
  160.9000  201.4230  148.0540 S   0  0  0  0  0  0  0  0  0  0  0  0
  161.8990  213.8000  146.8280 C   0  0  0  0  0  2  0  0  0  0  0  0
  162.5300  213.2780  145.6280 N   0  0  0  0  0  2  0  0  0  0  0  0
  161.7490  212.6620  142.5540 C   0  0  0  0  0  2  0  0  0  0  0  0
  160.5550  213.5860  144.1910 C   0  0  2  0  0  3  0  0  0  0  0  0
  160.6100  212.4670  143.3530 O   0  0  0  0  0  0  0  0  0  0  0  0
  162.7040  213.6100  143.2580 C   0  0  0  0  0  2  0  0  0  0  0  0
  161.9800  214.0210  144.5040 C   0  0  2  0  0  3  0  0  0  0  0  0
  159.6180  213.3500  145.3860 C   0  0  1  0  0  3  0  0  0  0  0  0
  158.7890  214.4530  145.6040 O   0  0  0  0  0  1  0  0  0  0  0  0
  158.7770  212.0910  145.2260 C   0  0  0  0  0  2  0  0  0  0  0  0
  157.4540  212.2390  145.9540 C   0  0  0  0  0  1  0  0  0  0  0  0
  1  3  1  6  0  0  0
  1 10  1  0  0  0  0
  3  4  2  0  0  0  0
  4  8  1  0  0  0  0
  5 13  1  0  0  0  0
  6 12  2  0  0  0  0
  6  7  1  0  0  0  0
  7  5  1  1  0  0  0
  7  2  1  0  0  0  0
  8 11  2  0  0  0  0
  8 23  1  0  0  0  0
  9  1  1  0  0  0  0
  9  5  2  0  0  0  0
 10 13  1  0  0  0  0
 10 11  1  0  0  0  0
 11 15  1  0  0  0  0
 12 14  1  0  0  0  0
 14  2  2  0  0  0  0
 15 16  2  0  0  0  0
 15 17  1  0  0  0  0
 17 18  1  0  0  0  0
 18 19  1  0  0  0  0
 20 21  1  0  0  0  0
 20 19  1  0  0  0  0
 20 22  1  0  0  0  0
 21 22  1  0  0  0  0
 24 25  1  0  0  0  0
 24 23  1  0  0  0  0
 26 25  1  0  0  0  0
 27 30  1  0  0  0  0
 28 30  2  0  0  0  0
 29 30  2  0  0  0  0
 30 26  1  0  0  0  0
 31 12  1  0  0  0  0
 32 31  1  0  0  0  0
 33 36  1  0  0  0  0
 33 35  1  0  0  0  0
 34 37  1  0  0  0  0
 34 38  1  1  0  0  0
 35 34  1  0  0  0  0
 36 37  1  0  0  0  0
 37 32  1  1  0  0  0
 38 39  1  6  0  0  0
 40 38  1  0  0  0  0
 40 41  1  0  0  0  0
M  END
>  <MODEL>
7

>  <REMARK>
 VINA RESULT:      -5.1      4.829      9.148
  Name = 
  15 active torsions:
  status: ('A' for Active; 'I' for Inactive)
    1  A    between atoms: C_1  and  O_27
    2  A    between atoms: C_1  and  C_28
    3  A    between atoms: N_5  and  O_30
    4  A    between atoms: N_5  and  S_36
    5  A    between atoms: N_6  and  C_11
    6  A    between atoms: C_10  and  C_11
    7  A    between atoms: C_10  and  O_27
    8  A    between atoms: C_16  and  C_38
    9  A    between atoms: C_21  and  N_23
   10  A    between atoms: N_22  and  N_23
   11  A    between atoms: N_22  and  O_30
   12  A    between atoms: C_31  and  C_38
   13  A    between atoms: N_32  and  C_35
   14  A    between atoms: N_32  and  C_37
   15  A    between atoms: C_33  and  C_35
                            x       y       z     vdW  Elec       q    Type
                         _______ _______ _______ _____ _____    ______ ____

>  <TORSDO>
F 15

$$$$
=
 OpenBabel11042420493D

 41 45  0  0  1  0  0  0  0  0999 V2000
  162.3460  208.9380  151.1250 C   0  0  1  0  0  3  0  0  0  0  0  0
  159.8990  209.4810  155.2130 C   0  0  0  0  0  3  0  0  0  0  0  0
  161.8960  209.1320  149.7080 C   0  0  0  0  0  3  0  0  0  0  0  0
  161.5650  208.0810  148.9530 C   0  0  0  0  0  3  0  0  0  0  0  0
  161.1490  209.3590  153.0630 C   0  0  0  0  0  0  0  0  0  0  0  0
  160.5960  211.4510  154.1770 N   0  0  0  0  0  0  0  0  0  0  0  0
  160.5910  210.0370  154.0630 C   0  0  2  0  0  3  0  0  0  0  0  0
  161.5350  206.7030  149.5020 C   0  0  0  0  0  0  0  0  0  0  0  0
  161.8230  209.9870  151.9820 N   0  0  0  0  0  0  0  0  0  0  0  0
  161.8300  207.6790  151.6660 N   0  0  0  0  0  0  0  0  0  0  0  0
  161.6350  206.5190  150.8380 C   0  0  0  0  0  0  0  0  0  0  0  0
  159.9510  211.6590  155.2790 C   0  0  0  0  0  0  0  0  0  0  0  0
  161.1360  207.8840  152.9290 C   0  0  0  0  0  2  0  0  0  0  0  0
  159.5180  210.4720  155.9480 N   0  0  0  0  0  0  0  0  0  0  0  0
  161.5320  205.1840  151.4850 C   0  0  0  0  0  0  0  0  0  0  0  0
  162.2770  204.8680  152.4530 O   0  0  0  0  0  0  0  0  0  0  0  0
  160.6030  204.2660  150.9930 O   0  0  0  0  0  0  0  0  0  0  0  0
  160.8070  202.8640  151.0760 C   0  0  0  0  0  2  0  0  0  0  0  0
  160.1360  202.1820  149.8970 C   0  0  0  0  0  2  0  0  0  0  0  0
  160.9810  202.2830  148.7200 N   0  0  0  0  0  0  0  0  0  0  0  0
  161.7710  201.0460  148.6630 C   0  0  0  0  0  2  0  0  0  0  0  0
  160.5890  201.1860  147.8240 C   0  0  0  0  0  2  0  0  0  0  0  0
  161.3520  205.6010  148.6090 N   0  0  0  0  0  2  0  0  0  0  0  0
  162.1880  205.4090  147.5000 N   0  0  0  0  0  2  0  0  0  0  0  0
  161.8670  206.3680  146.5990 O   0  0  0  0  0  0  0  0  0  0  0  0
  160.7310  205.9170  146.0140 N   0  0  0  0  0  2  0  0  0  0  0  0
  159.9150  203.5320  144.6670 C   0  0  0  0  0  1  0  0  0  0  0  0
  161.4100  205.4270  143.5030 O   0  0  0  0  0  0  0  0  0  0  0  0
  162.4730  204.0760  145.2560 O   0  0  0  0  0  0  0  0  0  0  0  0
  161.2000  204.7490  144.8270 S   0  0  0  0  0  0  0  0  0  0  0  0
  159.7440  213.0220  155.8370 C   0  0  0  0  0  2  0  0  0  0  0  0
  158.4410  213.0940  156.4740 N   0  0  0  0  0  2  0  0  0  0  0  0
  156.8570  213.9940  153.8060 C   0  0  0  0  0  2  0  0  0  0  0  0
  156.2800  214.1510  155.9510 C   0  0  2  0  0  3  0  0  0  0  0  0
  155.9210  213.5330  154.7470 O   0  0  0  0  0  0  0  0  0  0  0  0
  158.1140  214.4530  154.5240 C   0  0  0  0  0  2  0  0  0  0  0  0
  157.7950  214.3010  155.9810 C   0  0  2  0  0  3  0  0  0  0  0  0
  155.6220  213.4610  157.1570 C   0  0  1  0  0  3  0  0  0  0  0  0
  154.2330  213.6050  157.1250 O   0  0  0  0  0  1  0  0  0  0  0  0
  155.9910  211.9880  157.2560 C   0  0  0  0  0  2  0  0  0  0  0  0
  154.8070  211.1160  156.8810 C   0  0  0  0  0  1  0  0  0  0  0  0
  1  3  1  6  0  0  0
  1 10  1  0  0  0  0
  1  9  1  0  0  0  0
  2 14  2  0  0  0  0
  4  8  1  0  0  0  0
  4  3  2  0  0  0  0
  6 12  2  0  0  0  0
  7  5  1  1  0  0  0
  7  6  1  0  0  0  0
  7  2  1  0  0  0  0
  8 11  2  0  0  0  0
  9  5  2  0  0  0  0
 10 13  1  0  0  0  0
 11 15  1  0  0  0  0
 11 10  1  0  0  0  0
 12 31  1  0  0  0  0
 12 14  1  0  0  0  0
 13  5  1  0  0  0  0
 15 16  2  0  0  0  0
 17 18  1  0  0  0  0
 17 15  1  0  0  0  0
 19 18  1  0  0  0  0
 20 19  1  0  0  0  0
 21 20  1  0  0  0  0
 22 21  1  0  0  0  0
 22 20  1  0  0  0  0
 23  8  1  0  0  0  0
 24 23  1  0  0  0  0
 25 24  1  0  0  0  0
 26 25  1  0  0  0  0
 27 30  1  0  0  0  0
 28 30  2  0  0  0  0
 30 29  2  0  0  0  0
 30 26  1  0  0  0  0
 31 32  1  0  0  0  0
 33 36  1  0  0  0  0
 33 35  1  0  0  0  0
 34 37  1  0  0  0  0
 34 38  1  1  0  0  0
 35 34  1  0  0  0  0
 36 37  1  0  0  0  0
 37 32  1  6  0  0  0
 38 39  1  6  0  0  0
 38 40  1  0  0  0  0
 41 40  1  0  0  0  0
M  END
>  <MODEL>
8

>  <REMARK>
 VINA RESULT:      -5.1      3.333     11.313
  Name = 
  15 active torsions:
  status: ('A' for Active; 'I' for Inactive)
    1  A    between atoms: C_1  and  O_27
    2  A    between atoms: C_1  and  C_28
    3  A    between atoms: N_5  and  O_30
    4  A    between atoms: N_5  and  S_36
    5  A    between atoms: N_6  and  C_11
    6  A    between atoms: C_10  and  C_11
    7  A    between atoms: C_10  and  O_27
    8  A    between atoms: C_16  and  C_38
    9  A    between atoms: C_21  and  N_23
   10  A    between atoms: N_22  and  N_23
   11  A    between atoms: N_22  and  O_30
   12  A    between atoms: C_31  and  C_38
   13  A    between atoms: N_32  and  C_35
   14  A    between atoms: N_32  and  C_37
   15  A    between atoms: C_33  and  C_35
                            x       y       z     vdW  Elec       q    Type
                         _______ _______ _______ _____ _____    ______ ____

>  <TORSDO>
F 15

$$$$
=
 OpenBabel11042420493D

 41 45  0  0  1  0  0  0  0  0999 V2000
  161.3280  207.1940  154.1210 C   0  0  1  0  0  3  0  0  0  0  0  0
  161.7900  209.0590  149.7280 C   0  0  0  0  0  3  0  0  0  0  0  0
  160.0870  206.8700  154.8970 C   0  0  0  0  0  3  0  0  0  0  0  0
  159.6500  207.6980  155.8500 C   0  0  0  0  0  3  0  0  0  0  0  0
  161.4780  207.9610  151.9400 C   0  0  0  0  0  0  0  0  0  0  0  0
  161.1970  206.8060  149.8170 N   0  0  0  0  0  0  0  0  0  0  0  0
  161.4830  207.9460  150.6090 C   0  0  0  0  0  0  0  0  0  0  0  0
  160.3060  209.0010  156.1150 C   0  0  0  0  0  0  0  0  0  0  0  0
  161.1800  206.8160  152.7270 N   0  0  0  0  0  2  0  0  0  0  0  0
  161.5810  208.6370  154.1240 N   0  0  0  0  0  0  0  0  0  0  0  0
  161.2310  209.4680  155.2450 C   0  0  0  0  0  0  0  0  0  0  0  0
  161.3170  207.2490  148.6080 C   0  0  0  0  0  0  0  0  0  0  0  0
  161.7610  209.1510  152.7750 C   0  0  0  0  0  2  0  0  0  0  0  0
  161.6910  208.6260  148.5140 N   0  0  0  0  0  0  0  0  0  0  0  0
  161.8790  210.7980  155.3840 C   0  0  0  0  0  0  0  0  0  0  0  0
  162.9560  210.9360  156.0250 O   0  0  0  0  0  0  0  0  0  0  0  0
  161.2660  211.9110  154.8060 O   0  0  0  0  0  0  0  0  0  0  0  0
  160.0410  211.8170  154.0940 C   0  0  0  0  0  2  0  0  0  0  0  0
  160.2420  212.3030  152.6710 C   0  0  0  0  0  2  0  0  0  0  0  0
  158.9680  212.3360  151.9730 N   0  0  0  0  0  0  0  0  0  0  0  0
  158.3300  213.6120  152.3250 C   0  0  0  0  0  2  0  0  0  0  0  0
  159.0210  213.4780  151.0510 C   0  0  0  0  0  2  0  0  0  0  0  0
  159.9100  209.7600  157.2610 N   0  0  0  0  0  2  0  0  0  0  0  0
  158.8200  210.6420  157.2140 N   0  0  0  0  0  2  0  0  0  0  0  0
  158.1860  210.4170  156.0390 O   0  0  0  0  0  0  0  0  0  0  0  0
  157.8130  211.6480  155.6150 N   0  0  0  0  0  2  0  0  0  0  0  0
  155.4140  212.1060  157.1000 C   0  0  0  0  0  1  0  0  0  0  0  0
  155.6350  212.6410  154.4830 O   0  0  0  0  0  0  0  0  0  0  0  0
  155.5980  210.2780  155.1480 O   0  0  0  0  0  0  0  0  0  0  0  0
  156.0850  211.6500  155.5190 S   0  0  0  0  0  0  0  0  0  0  0  0
  161.1490  206.3750  147.4170 C   0  0  0  0  0  2  0  0  0  0  0  0
  160.5230  205.1260  147.8140 N   0  0  0  0  0  2  0  0  0  0  0  0
  160.7680  202.1160  148.9630 C   0  0  0  0  0  2  0  0  0  0  0  0
  161.6710  203.0500  147.1550 C   0  0  2  0  0  3  0  0  0  0  0  0
  160.7680  202.0600  147.5600 O   0  0  0  0  0  0  0  0  0  0  0  0
  161.2370  203.4880  149.4150 C   0  0  0  0  0  2  0  0  0  0  0  0
  161.5960  204.2020  148.1480 C   0  0  2  0  0  3  0  0  0  0  0  0
  161.4980  203.3970  145.6680 C   0  0  1  0  0  3  0  0  0  0  0  0
  160.1470  203.4580  145.3160 O   0  0  0  0  0  1  0  0  0  0  0  0
  162.1930  204.6970  145.2890 C   0  0  0  0  0  2  0  0  0  0  0  0
  161.3910  205.4430  144.2380 C   0  0  0  0  0  1  0  0  0  0  0  0
  1 10  1  0  0  0  0
  1  3  1  1  0  0  0
  2  7  1  0  0  0  0
  3  4  2  0  0  0  0
  4  8  1  0  0  0  0
  5  9  1  0  0  0  0
  5 13  1  0  0  0  0
  6  7  1  0  0  0  0
  7  5  2  0  0  0  0
  8 23  1  0  0  0  0
  9  1  1  0  0  0  0
 10 11  1  0  0  0  0
 11 15  1  0  0  0  0
 11  8  2  0  0  0  0
 12  6  2  0  0  0  0
 13 10  1  0  0  0  0
 14 12  1  0  0  0  0
 14  2  2  0  0  0  0
 15 16  2  0  0  0  0
 17 15  1  0  0  0  0
 18 17  1  0  0  0  0
 19 18  1  0  0  0  0
 20 21  1  0  0  0  0
 20 19  1  0  0  0  0
 22 20  1  0  0  0  0
 22 21  1  0  0  0  0
 24 23  1  0  0  0  0
 25 24  1  0  0  0  0
 26 25  1  0  0  0  0
 28 30  2  0  0  0  0
 29 30  2  0  0  0  0
 30 26  1  0  0  0  0
 30 27  1  0  0  0  0
 31 32  1  0  0  0  0
 31 12  1  0  0  0  0
 33 36  1  0  0  0  0
 34 38  1  6  0  0  0
 34 35  1  0  0  0  0
 34 37  1  0  0  0  0
 35 33  1  0  0  0  0
 37 32  1  6  0  0  0
 37 36  1  0  0  0  0
 38 39  1  1  0  0  0
 40 38  1  0  0  0  0
 41 40  1  0  0  0  0
M  END
>  <MODEL>
9

>  <REMARK>
 VINA RESULT:      -4.9      1.583      2.225
  Name = 
  15 active torsions:
  status: ('A' for Active; 'I' for Inactive)
    1  A    between atoms: C_1  and  O_27
    2  A    between atoms: C_1  and  C_28
    3  A    between atoms: N_5  and  O_30
    4  A    between atoms: N_5  and  S_36
    5  A    between atoms: N_6  and  C_11
    6  A    between atoms: C_10  and  C_11
    7  A    between atoms: C_10  and  O_27
    8  A    between atoms: C_16  and  C_38
    9  A    between atoms: C_21  and  N_23
   10  A    between atoms: N_22  and  N_23
   11  A    between atoms: N_22  and  O_30
   12  A    between atoms: C_31  and  C_38
   13  A    between atoms: N_32  and  C_35
   14  A    between atoms: N_32  and  C_37
   15  A    between atoms: C_33  and  C_35
                            x       y       z     vdW  Elec       q    Type
                         _______ _______ _______ _____ _____    ______ ____

>  <TORSDO>
F 15

$$$$
