=
 OpenBabel11052411063D

 34 36  0  0  1  0  0  0  0  0999 V2000
  160.7610  210.3810  152.0830 N   0  0  0  0  0  0  0  0  0  0  0  0
  159.4900  212.0980  153.4250 C   0  0  0  0  0  0  0  0  0  0  0  0
  158.1970  212.8500  155.1170 C   0  0  1  0  0  3  0  0  0  0  0  0
  162.4030  210.4250  154.8260 C   0  0  0  0  0  1  0  0  0  0  0  0
  160.5360  212.0120  155.3380 N   0  0  0  0  0  0  0  0  0  0  0  0
  160.5440  211.2410  153.2250 C   0  0  0  0  0  0  0  0  0  0  0  0
  157.3700  212.5220  153.9440 N   0  0  0  0  0  0  0  0  0  0  0  0
  159.5440  212.5660  154.6620 N   0  0  0  0  0  0  0  0  0  0  0  0
  158.1190  212.0650  152.9770 C   0  0  0  0  0  3  0  0  0  0  0  0
  161.2120  211.2410  154.4540 C   0  0  0  0  0  0  0  0  0  0  0  0
  158.0630  214.3250  155.4450 C   0  0  0  0  0  1  0  0  0  0  0  0
  160.1050  209.1850  152.0130 O   0  0  0  0  0  0  0  0  0  0  0  0
  161.9440  205.6590  153.3730 C   0  0  0  0  0  3  0  0  0  0  0  0
  160.6390  207.7120  153.8230 C   0  0  0  0  0  2  0  0  0  0  0  0
  160.9550  207.0240  151.4720 C   0  0  1  0  0  3  0  0  0  0  0  0
  161.4240  206.5110  154.2530 C   0  0  0  0  0  3  0  0  0  0  0  0
  161.8870  205.8820  151.8860 C   0  0  0  0  0  2  0  0  0  0  0  0
  161.0240  208.2050  152.4310 C   0  0  1  0  0  3  0  0  0  0  0  0
  161.1130  207.4640  150.0070 C   0  0  1  0  0  3  0  0  0  0  0  0
  162.5520  207.6920  149.5360 C   0  0  0  0  0  2  0  0  0  0  0  0
  162.6530  207.6030  148.0230 C   0  0  0  0  0  1  0  0  0  0  0  0
  160.4040  206.4720  149.0990 C   0  0  0  0  0  2  0  0  0  0  0  0
  160.5550  205.1770  149.5990 O   0  0  0  0  0  0  0  0  0  0  0  0
  161.0750  204.4590  148.5260 C   0  0  0  0  0  2  0  0  0  0  0  0
  160.6330  202.7900  150.2810 C   0  0  0  0  0  1  0  0  0  0  0  0
  160.9800  202.9790  148.8260 C   0  0  0  0  0  2  0  0  0  0  0  0
  161.8460  210.7080  151.1460 C   0  0  0  0  0  2  0  0  0  0  0  0
  161.3600  211.3020  149.8240 C   0  0  1  0  0  3  0  0  0  0  0  0
  160.8080  212.5590  150.0700 O   0  0  0  0  0  1  0  0  0  0  0  0
  162.5040  211.4380  148.8210 C   0  0  0  0  0  2  0  0  0  0  0  0
  162.4920  212.8200  148.1670 C   0  0  0  0  0  2  0  0  0  0  0  0
  161.9060  212.7750  146.7950 C   0  0  0  0  0  0  0  0  0  0  0  0
  162.5780  213.1770  145.8090 O   0  0  0  0  0  0  0  0  0  0  0  0
  160.6110  212.3190  146.6070 O   0  0  0  0  0  1  0  0  0  0  0  0
  1  6  1  0  0  0  0
  2  8  1  0  0  0  0
  3 11  1  6  0  0  0
  6  2  2  0  0  0  0
  6 10  1  0  0  0  0
  7  3  1  0  0  0  0
  8  3  1  0  0  0  0
  8  5  1  0  0  0  0
  9  2  1  0  0  0  0
  9  7  2  0  0  0  0
 10  4  1  0  0  0  0
 10  5  2  0  0  0  0
 12  1  1  0  0  0  0
 13 16  2  0  0  0  0
 14 16  1  0  0  0  0
 15 19  1  6  0  0  0
 15 17  1  0  0  0  0
 15 18  1  0  0  0  0
 17 13  1  0  0  0  0
 18 12  1  6  0  0  0
 18 14  1  0  0  0  0
 19 22  1  6  0  0  0
 20 19  1  0  0  0  0
 21 20  1  0  0  0  0
 22 23  1  0  0  0  0
 24 26  1  0  0  0  0
 24 23  1  0  0  0  0
 26 25  1  0  0  0  0
 27  1  1  0  0  0  0
 28 29  1  1  0  0  0
 28 27  1  0  0  0  0
 30 28  1  0  0  0  0
 31 30  1  0  0  0  0
 32 31  1  0  0  0  0
 33 32  2  0  0  0  0
 34 32  1  0  0  0  0
M  END
>  <MODEL>
1

>  <REMARK>
 VINA RESULT:      -5.7      0.000      0.000
  Name = 
  14 active torsions:
  status: ('A' for Active; 'I' for Inactive)
    1  A    between atoms: C_3  and  C_14
    2  A    between atoms: C_3  and  C_31
    3  A    between atoms: C_5  and  C_9
    4  A    between atoms: C_5  and  C_19
    5  A    between atoms: C_5  and  C_34
    6  A    between atoms: N_7  and  O_13
    7  A    between atoms: N_7  and  C_14
    8  A    between atoms: N_7  and  C_21
    9  A    between atoms: O_10  and  C_16
   10  A    between atoms: O_10  and  C_34
   11  A    between atoms: O_13  and  C_29
   12  A    between atoms: C_15  and  C_18
   13  A    between atoms: C_16  and  C_24
   14  A    between atoms: C_18  and  C_31
                            x       y       z     vdW  Elec       q    Type
                         _______ _______ _______ _____ _____    ______ ____

>  <TORSDO>
F 14

$$$$
=
 OpenBabel11052411063D

 34 36  0  0  1  0  0  0  0  0999 V2000
  160.9850  210.2500  152.2340 N   0  0  0  0  0  0  0  0  0  0  0  0
  161.3860  211.9110  150.3770 C   0  0  0  0  0  0  0  0  0  0  0  0
  160.9340  213.0020  148.4530 C   0  0  1  0  0  3  0  0  0  0  0  0
  158.5570  212.2900  152.6350 C   0  0  0  0  0  1  0  0  0  0  0  0
  159.6450  213.2110  150.5780 N   0  0  0  0  0  0  0  0  0  0  0  0
  160.7290  211.4690  151.4990 C   0  0  0  0  0  0  0  0  0  0  0  0
  161.8130  211.8490  148.1960 N   0  0  0  0  0  0  0  0  0  0  0  0
  160.7460  212.9610  149.8900 N   0  0  0  0  0  0  0  0  0  0  0  0
  162.0520  211.2070  149.3070 C   0  0  0  0  0  3  0  0  0  0  0  0
  159.6470  212.3470  151.6190 C   0  0  0  0  0  0  0  0  0  0  0  0
  161.6410  214.2850  148.0600 C   0  0  0  0  0  1  0  0  0  0  0  0
  160.2780  209.1230  151.9250 O   0  0  0  0  0  0  0  0  0  0  0  0
  161.5760  205.4170  153.4220 C   0  0  0  0  0  3  0  0  0  0  0  0
  160.5640  207.6450  153.7860 C   0  0  0  0  0  2  0  0  0  0  0  0
  160.8260  206.8500  151.4630 C   0  0  1  0  0  3  0  0  0  0  0  0
  161.1640  206.3590  154.2670 C   0  0  0  0  0  3  0  0  0  0  0  0
  161.5800  205.6010  151.9290 C   0  0  0  0  0  2  0  0  0  0  0  0
  161.0410  208.0370  152.3910 C   0  0  1  0  0  3  0  0  0  0  0  0
  161.0730  207.2180  149.9900 C   0  0  1  0  0  3  0  0  0  0  0  0
  162.5280  207.5110  149.6160 C   0  0  0  0  0  2  0  0  0  0  0  0
  162.6480  207.9070  148.1550 C   0  0  0  0  0  1  0  0  0  0  0  0
  160.4960  206.1360  149.0910 C   0  0  0  0  0  2  0  0  0  0  0  0
  161.4660  205.1630  148.8360 O   0  0  0  0  0  0  0  0  0  0  0  0
  160.7820  203.9600  148.9820 C   0  0  0  0  0  2  0  0  0  0  0  0
  161.1280  201.5790  148.4580 C   0  0  0  0  0  1  0  0  0  0  0  0
  161.2630  202.9850  147.9290 C   0  0  0  0  0  2  0  0  0  0  0  0
  161.8280  210.3110  153.4360 C   0  0  0  0  0  2  0  0  0  0  0  0
  161.2140  211.1170  154.5810 C   0  0  1  0  0  3  0  0  0  0  0  0
  159.9140  210.6630  154.8040 O   0  0  0  0  0  1  0  0  0  0  0  0
  162.0290  210.9730  155.8650 C   0  0  0  0  0  2  0  0  0  0  0  0
  161.1700  210.4040  156.9940 C   0  0  0  0  0  2  0  0  0  0  0  0
  161.2600  208.9150  157.0570 C   0  0  0  0  0  0  0  0  0  0  0  0
  162.3710  208.3440  156.8970 O   0  0  0  0  0  0  0  0  0  0  0  0
  160.1170  208.1580  157.2610 O   0  0  0  0  0  1  0  0  0  0  0  0
  1 27  1  0  0  0  0
  2  6  2  0  0  0  0
  3 11  1  1  0  0  0
  3  8  1  0  0  0  0
  5 10  2  0  0  0  0
  6 10  1  0  0  0  0
  6  1  1  0  0  0  0
  7  3  1  0  0  0  0
  7  9  2  0  0  0  0
  8  2  1  0  0  0  0
  8  5  1  0  0  0  0
  9  2  1  0  0  0  0
 10  4  1  0  0  0  0
 12  1  1  0  0  0  0
 13 16  2  0  0  0  0
 14 16  1  0  0  0  0
 15 19  1  6  0  0  0
 15 17  1  0  0  0  0
 15 18  1  0  0  0  0
 17 13  1  0  0  0  0
 18 12  1  6  0  0  0
 18 14  1  0  0  0  0
 19 22  1  6  0  0  0
 20 19  1  0  0  0  0
 21 20  1  0  0  0  0
 23 24  1  0  0  0  0
 23 22  1  0  0  0  0
 26 25  1  0  0  0  0
 26 24  1  0  0  0  0
 27 28  1  0  0  0  0
 28 29  1  1  0  0  0
 28 30  1  0  0  0  0
 30 31  1  0  0  0  0
 31 32  1  0  0  0  0
 32 34  1  0  0  0  0
 33 32  2  0  0  0  0
M  END
>  <MODEL>
2

>  <REMARK>
 VINA RESULT:      -5.3      2.410      5.144
  Name = 
  14 active torsions:
  status: ('A' for Active; 'I' for Inactive)
    1  A    between atoms: C_3  and  C_14
    2  A    between atoms: C_3  and  C_31
    3  A    between atoms: C_5  and  C_9
    4  A    between atoms: C_5  and  C_19
    5  A    between atoms: C_5  and  C_34
    6  A    between atoms: N_7  and  O_13
    7  A    between atoms: N_7  and  C_14
    8  A    between atoms: N_7  and  C_21
    9  A    between atoms: O_10  and  C_16
   10  A    between atoms: O_10  and  C_34
   11  A    between atoms: O_13  and  C_29
   12  A    between atoms: C_15  and  C_18
   13  A    between atoms: C_16  and  C_24
   14  A    between atoms: C_18  and  C_31
                            x       y       z     vdW  Elec       q    Type
                         _______ _______ _______ _____ _____    ______ ____

>  <TORSDO>
F 14

$$$$
=
 OpenBabel11052411063D

 34 36  0  0  1  0  0  0  0  0999 V2000
  160.8060  208.9440  151.6420 N   0  0  0  0  0  0  0  0  0  0  0  0
  161.3930  207.5160  149.6460 C   0  0  0  0  0  0  0  0  0  0  0  0
  161.3200  206.8590  147.4870 C   0  0  1  0  0  3  0  0  0  0  0  0
  162.3570  211.0230  149.7750 C   0  0  0  0  0  1  0  0  0  0  0  0
  162.3240  208.9830  148.3260 N   0  0  0  0  0  0  0  0  0  0  0  0
  161.4530  208.6770  150.3770 C   0  0  0  0  0  0  0  0  0  0  0  0
  160.3480  206.0980  148.2900 N   0  0  0  0  0  0  0  0  0  0  0  0
  161.9540  207.7210  148.4660 N   0  0  0  0  0  0  0  0  0  0  0  0
  160.3760  206.4980  149.5320 C   0  0  0  0  0  3  0  0  0  0  0  0
  162.0890  209.5790  149.5180 C   0  0  0  0  0  0  0  0  0  0  0  0
  162.3450  205.9150  146.8890 C   0  0  0  0  0  1  0  0  0  0  0  0
  160.6380  210.2370  152.0480 O   0  0  0  0  0  0  0  0  0  0  0  0
  161.3680  211.1550  156.0830 C   0  0  0  0  0  3  0  0  0  0  0  0
  162.1730  210.3690  153.8800 C   0  0  0  0  0  2  0  0  0  0  0  0
  159.9380  211.4150  153.9990 C   0  0  1  0  0  3  0  0  0  0  0  0
  162.3280  210.5930  155.3530 C   0  0  0  0  0  3  0  0  0  0  0  0
  160.0170  211.5100  155.5250 C   0  0  0  0  0  2  0  0  0  0  0  0
  160.7150  210.2240  153.4520 C   0  0  1  0  0  3  0  0  0  0  0  0
  158.5070  211.4740  153.4390 C   0  0  1  0  0  3  0  0  0  0  0  0
  157.3880  211.2200  154.4520 C   0  0  0  0  0  2  0  0  0  0  0  0
  156.4560  212.4140  154.5470 C   0  0  0  0  0  1  0  0  0  0  0  0
  158.2940  212.8000  152.7270 C   0  0  0  0  0  2  0  0  0  0  0  0
  158.6650  212.6840  151.3840 O   0  0  0  0  0  0  0  0  0  0  0  0
  158.3740  213.9330  150.8450 C   0  0  0  0  0  2  0  0  0  0  0  0
  156.8850  213.1690  149.0390 C   0  0  0  0  0  1  0  0  0  0  0  0
  156.9480  213.9350  150.3360 C   0  0  0  0  0  2  0  0  0  0  0  0
  160.5510  207.8220  152.5570 C   0  0  0  0  0  2  0  0  0  0  0  0
  161.8210  207.1670  153.1000 C   0  0  1  0  0  3  0  0  0  0  0  0
  161.6610  206.9380  154.4670 O   0  0  0  0  0  1  0  0  0  0  0  0
  162.1120  205.8440  152.3950 C   0  0  0  0  0  2  0  0  0  0  0  0
  161.0970  204.7760  152.8020 C   0  0  0  0  0  2  0  0  0  0  0  0
  161.0570  203.6520  151.8200 C   0  0  0  0  0  0  0  0  0  0  0  0
  160.2210  203.6670  150.8790 O   0  0  0  0  0  0  0  0  0  0  0  0
  161.9180  202.5760  151.9610 O   0  0  0  0  0  1  0  0  0  0  0  0
  1 12  1  0  0  0  0
  1 27  1  0  0  0  0
  2  6  2  0  0  0  0
  3 11  1  1  0  0  0
  3  7  1  0  0  0  0
  3  8  1  0  0  0  0
  5  8  1  0  0  0  0
  5 10  2  0  0  0  0
  6  1  1  0  0  0  0
  7  9  2  0  0  0  0
  8  2  1  0  0  0  0
  9  2  1  0  0  0  0
 10  4  1  0  0  0  0
 10  6  1  0  0  0  0
 14 16  1  0  0  0  0
 15 19  1  1  0  0  0
 15 17  1  0  0  0  0
 16 13  2  0  0  0  0
 17 13  1  0  0  0  0
 18 12  1  6  0  0  0
 18 14  1  0  0  0  0
 18 15  1  0  0  0  0
 19 22  1  1  0  0  0
 19 20  1  0  0  0  0
 20 21  1  0  0  0  0
 23 22  1  0  0  0  0
 24 23  1  0  0  0  0
 25 26  1  0  0  0  0
 26 24  1  0  0  0  0
 27 28  1  0  0  0  0
 28 29  1  1  0  0  0
 30 31  1  0  0  0  0
 30 28  1  0  0  0  0
 32 34  1  0  0  0  0
 32 31  1  0  0  0  0
 33 32  2  0  0  0  0
M  END
>  <MODEL>
3

>  <REMARK>
 VINA RESULT:      -5.0      2.613      7.767
  Name = 
  14 active torsions:
  status: ('A' for Active; 'I' for Inactive)
    1  A    between atoms: C_3  and  C_14
    2  A    between atoms: C_3  and  C_31
    3  A    between atoms: C_5  and  C_9
    4  A    between atoms: C_5  and  C_19
    5  A    between atoms: C_5  and  C_34
    6  A    between atoms: N_7  and  O_13
    7  A    between atoms: N_7  and  C_14
    8  A    between atoms: N_7  and  C_21
    9  A    between atoms: O_10  and  C_16
   10  A    between atoms: O_10  and  C_34
   11  A    between atoms: O_13  and  C_29
   12  A    between atoms: C_15  and  C_18
   13  A    between atoms: C_16  and  C_24
   14  A    between atoms: C_18  and  C_31
                            x       y       z     vdW  Elec       q    Type
                         _______ _______ _______ _____ _____    ______ ____

>  <TORSDO>
F 14

$$$$
=
 OpenBabel11052411063D

 34 36  0  0  1  0  0  0  0  0999 V2000
  161.0400  208.6170  151.9840 N   0  0  0  0  0  0  0  0  0  0  0  0
  161.5340  207.3620  149.8510 C   0  0  0  0  0  0  0  0  0  0  0  0
  161.2790  206.8090  147.6770 C   0  0  1  0  0  3  0  0  0  0  0  0
  162.1490  210.9410  150.0900 C   0  0  0  0  0  1  0  0  0  0  0  0
  162.1540  208.9830  148.5300 N   0  0  0  0  0  0  0  0  0  0  0  0
  161.5610  208.4850  150.6410 C   0  0  0  0  0  0  0  0  0  0  0  0
  160.4880  205.9090  148.5330 N   0  0  0  0  0  0  0  0  0  0  0  0
  161.9320  207.6840  148.6310 N   0  0  0  0  0  0  0  0  0  0  0  0
  160.6190  206.2480  149.7870 C   0  0  0  0  0  3  0  0  0  0  0  0
  162.0000  209.4910  149.7750 C   0  0  0  0  0  0  0  0  0  0  0  0
  162.3180  206.0110  146.9130 C   0  0  0  0  0  1  0  0  0  0  0  0
  160.1780  209.6370  152.2680 O   0  0  0  0  0  0  0  0  0  0  0  0
  161.5030  211.6030  155.7380 C   0  0  0  0  0  3  0  0  0  0  0  0
  161.9530  210.1420  153.7940 C   0  0  0  0  0  2  0  0  0  0  0  0
  159.8210  211.3890  153.8450 C   0  0  1  0  0  3  0  0  0  0  0  0
  162.3190  210.7640  155.1060 C   0  0  0  0  0  3  0  0  0  0  0  0
  160.1120  211.9120  155.2550 C   0  0  0  0  0  2  0  0  0  0  0  0
  160.4440  210.0220  153.5950 C   0  0  1  0  0  3  0  0  0  0  0  0
  158.3330  211.4220  153.4580 C   0  0  1  0  0  3  0  0  0  0  0  0
  157.3440  211.3940  154.6250 C   0  0  0  0  0  2  0  0  0  0  0  0
  156.4000  212.5820  154.5710 C   0  0  0  0  0  1  0  0  0  0  0  0
  158.0690  212.6200  152.5600 C   0  0  0  0  0  2  0  0  0  0  0  0
  158.9800  212.6310  151.5010 O   0  0  0  0  0  0  0  0  0  0  0  0
  158.8100  213.8860  150.9230 C   0  0  0  0  0  2  0  0  0  0  0  0
  157.1790  213.1980  149.2120 C   0  0  0  0  0  1  0  0  0  0  0  0
  158.5760  213.7210  149.4370 C   0  0  0  0  0  2  0  0  0  0  0  0
  161.6230  207.7950  153.0540 C   0  0  0  0  0  2  0  0  0  0  0  0
  160.7700  206.5850  153.4360 C   0  0  1  0  0  3  0  0  0  0  0  0
  161.3170  205.4450  152.8470 O   0  0  0  0  0  1  0  0  0  0  0  0
  160.7170  206.3970  154.9510 C   0  0  0  0  0  2  0  0  0  0  0  0
  159.7340  207.3800  155.5870 C   0  0  0  0  0  2  0  0  0  0  0  0
  160.3790  208.1800  156.6700 C   0  0  0  0  0  0  0  0  0  0  0  0
  161.5370  207.8850  157.0670 O   0  0  0  0  0  0  0  0  0  0  0  0
  159.6930  209.2290  157.2610 O   0  0  0  0  0  1  0  0  0  0  0  0
  1 12  1  0  0  0  0
  1 27  1  0  0  0  0
  2  6  2  0  0  0  0
  3 11  1  1  0  0  0
  3  7  1  0  0  0  0
  3  8  1  0  0  0  0
  5  8  1  0  0  0  0
  5 10  2  0  0  0  0
  6  1  1  0  0  0  0
  7  9  2  0  0  0  0
  8  2  1  0  0  0  0
  9  2  1  0  0  0  0
 10  4  1  0  0  0  0
 10  6  1  0  0  0  0
 14 16  1  0  0  0  0
 15 19  1  1  0  0  0
 15 17  1  0  0  0  0
 16 13  2  0  0  0  0
 17 13  1  0  0  0  0
 18 12  1  6  0  0  0
 18 14  1  0  0  0  0
 18 15  1  0  0  0  0
 19 22  1  1  0  0  0
 19 20  1  0  0  0  0
 21 20  1  0  0  0  0
 23 22  1  0  0  0  0
 24 23  1  0  0  0  0
 25 26  1  0  0  0  0
 26 24  1  0  0  0  0
 27 28  1  0  0  0  0
 28 29  1  6  0  0  0
 28 30  1  0  0  0  0
 30 31  1  0  0  0  0
 31 32  1  0  0  0  0
 32 33  2  0  0  0  0
 32 34  1  0  0  0  0
M  END
>  <MODEL>
4

>  <REMARK>
 VINA RESULT:      -5.0      2.760      7.876
  Name = 
  14 active torsions:
  status: ('A' for Active; 'I' for Inactive)
    1  A    between atoms: C_3  and  C_14
    2  A    between atoms: C_3  and  C_31
    3  A    between atoms: C_5  and  C_9
    4  A    between atoms: C_5  and  C_19
    5  A    between atoms: C_5  and  C_34
    6  A    between atoms: N_7  and  O_13
    7  A    between atoms: N_7  and  C_14
    8  A    between atoms: N_7  and  C_21
    9  A    between atoms: O_10  and  C_16
   10  A    between atoms: O_10  and  C_34
   11  A    between atoms: O_13  and  C_29
   12  A    between atoms: C_15  and  C_18
   13  A    between atoms: C_16  and  C_24
   14  A    between atoms: C_18  and  C_31
                            x       y       z     vdW  Elec       q    Type
                         _______ _______ _______ _____ _____    ______ ____

>  <TORSDO>
F 14

$$$$
=
 OpenBabel11052411063D

 34 36  0  0  1  0  0  0  0  0999 V2000
  161.2320  209.7580  152.3130 N   0  0  0  0  0  0  0  0  0  0  0  0
  161.6080  207.9290  150.6160 C   0  0  0  0  0  0  0  0  0  0  0  0
  161.2010  206.7400  148.7410 C   0  0  1  0  0  3  0  0  0  0  0  0
  162.0600  211.4260  149.7150 C   0  0  0  0  0  1  0  0  0  0  0  0
  162.0330  209.0900  148.8180 N   0  0  0  0  0  0  0  0  0  0  0  0
  161.6450  209.2380  151.0280 C   0  0  0  0  0  0  0  0  0  0  0  0
  160.5300  206.1230  149.8980 N   0  0  0  0  0  0  0  0  0  0  0  0
  161.8860  207.8770  149.3240 N   0  0  0  0  0  0  0  0  0  0  0  0
  160.7490  206.8270  150.9750 C   0  0  0  0  0  3  0  0  0  0  0  0
  161.9570  209.9460  149.8630 C   0  0  0  0  0  0  0  0  0  0  0  0
  162.2110  205.7720  148.1550 C   0  0  0  0  0  1  0  0  0  0  0  0
  161.9490  209.4310  153.4280 O   0  0  0  0  0  0  0  0  0  0  0  0
  160.0430  207.2620  156.4810 C   0  0  0  0  0  3  0  0  0  0  0  0
  160.9280  207.3990  154.1760 C   0  0  0  0  0  2  0  0  0  0  0  0
  161.5290  209.1930  155.7630 C   0  0  1  0  0  3  0  0  0  0  0  0
  160.1430  206.7340  155.2640 C   0  0  0  0  0  3  0  0  0  0  0  0
  160.6080  208.6100  156.8380 C   0  0  0  0  0  2  0  0  0  0  0  0
  161.0260  208.9110  154.3530 C   0  0  1  0  0  3  0  0  0  0  0  0
  161.8690  210.6790  155.9650 C   0  0  1  0  0  3  0  0  0  0  0  0
  161.1870  211.3580  157.1560 C   0  0  0  0  0  2  0  0  0  0  0  0
  160.3120  212.5120  156.7010 C   0  0  0  0  0  1  0  0  0  0  0  0
  163.3770  210.8500  156.0440 C   0  0  0  0  0  2  0  0  0  0  0  0
  163.7120  211.6120  157.1670 O   0  0  0  0  0  0  0  0  0  0  0  0
  165.0950  211.4840  157.2610 C   0  0  0  0  0  2  0  0  0  0  0  0
  167.1540  212.7410  156.7740 C   0  0  0  0  0  1  0  0  0  0  0  0
  165.7230  212.8600  157.2340 C   0  0  0  0  0  2  0  0  0  0  0  0
  159.9320  210.4350  152.4180 C   0  0  0  0  0  2  0  0  0  0  0  0
  160.0370  211.9510  152.5890 C   0  0  1  0  0  3  0  0  0  0  0  0
  159.5180  212.5690  151.4520 O   0  0  0  0  0  1  0  0  0  0  0  0
  159.2690  212.4280  153.8200 C   0  0  0  0  0  2  0  0  0  0  0  0
  157.9130  211.7290  153.9200 C   0  0  0  0  0  2  0  0  0  0  0  0
  156.8110  212.7010  154.1870 C   0  0  0  0  0  0  0  0  0  0  0  0
  156.0950  212.5740  155.2150 O   0  0  0  0  0  1  0  0  0  0  0  0
  156.5560  213.7250  153.2900 O   0  0  0  0  0  0  0  0  0  0  0  0
  1 27  1  0  0  0  0
  1 12  1  0  0  0  0
  2  9  1  0  0  0  0
  2  6  2  0  0  0  0
  3 11  1  1  0  0  0
  3  8  1  0  0  0  0
  3  7  1  0  0  0  0
  4 10  1  0  0  0  0
  5  8  1  0  0  0  0
  5 10  2  0  0  0  0
  6  1  1  0  0  0  0
  7  9  2  0  0  0  0
  8  2  1  0  0  0  0
 10  6  1  0  0  0  0
 13 17  1  0  0  0  0
 14 18  1  0  0  0  0
 14 16  1  0  0  0  0
 15 19  1  1  0  0  0
 15 17  1  0  0  0  0
 16 13  2  0  0  0  0
 18 12  1  6  0  0  0
 18 15  1  0  0  0  0
 19 22  1  1  0  0  0
 19 20  1  0  0  0  0
 21 20  1  0  0  0  0
 22 23  1  0  0  0  0
 23 24  1  0  0  0  0
 25 26  1  0  0  0  0
 26 24  1  0  0  0  0
 27 28  1  0  0  0  0
 28 29  1  6  0  0  0
 28 30  1  0  0  0  0
 30 31  1  0  0  0  0
 31 32  1  0  0  0  0
 32 33  1  0  0  0  0
 34 32  2  0  0  0  0
M  END
>  <MODEL>
5

>  <REMARK>
 VINA RESULT:      -4.8      2.993      7.540
  Name = 
  14 active torsions:
  status: ('A' for Active; 'I' for Inactive)
    1  A    between atoms: C_3  and  C_14
    2  A    between atoms: C_3  and  C_31
    3  A    between atoms: C_5  and  C_9
    4  A    between atoms: C_5  and  C_19
    5  A    between atoms: C_5  and  C_34
    6  A    between atoms: N_7  and  O_13
    7  A    between atoms: N_7  and  C_14
    8  A    between atoms: N_7  and  C_21
    9  A    between atoms: O_10  and  C_16
   10  A    between atoms: O_10  and  C_34
   11  A    between atoms: O_13  and  C_29
   12  A    between atoms: C_15  and  C_18
   13  A    between atoms: C_16  and  C_24
   14  A    between atoms: C_18  and  C_31
                            x       y       z     vdW  Elec       q    Type
                         _______ _______ _______ _____ _____    ______ ____

>  <TORSDO>
F 14

$$$$
=
 OpenBabel11052411063D

 34 36  0  0  1  0  0  0  0  0999 V2000
  160.5530  211.1000  152.6470 N   0  0  0  0  0  0  0  0  0  0  0  0
  159.0140  211.7490  154.5390 C   0  0  0  0  0  0  0  0  0  0  0  0
  157.7800  211.4180  156.4000 C   0  0  1  0  0  3  0  0  0  0  0  0
  162.4380  210.7060  155.1980 C   0  0  0  0  0  1  0  0  0  0  0  0
  160.2700  211.3390  156.2760 N   0  0  0  0  0  0  0  0  0  0  0  0
  160.2380  211.3950  154.0280 C   0  0  0  0  0  0  0  0  0  0  0  0
  156.9450  211.2730  155.1960 N   0  0  0  0  0  0  0  0  0  0  0  0
  159.0830  211.7500  155.8600 N   0  0  0  0  0  0  0  0  0  0  0  0
  157.6670  211.4420  154.1230 C   0  0  0  0  0  3  0  0  0  0  0  0
  161.0250  211.1800  155.1640 C   0  0  0  0  0  0  0  0  0  0  0  0
  157.2640  212.5630  157.2500 C   0  0  0  0  0  1  0  0  0  0  0  0
  161.7020  210.4240  152.3530 O   0  0  0  0  0  0  0  0  0  0  0  0
  162.0800  208.5900  148.5910 C   0  0  0  0  0  3  0  0  0  0  0  0
  161.9550  210.6320  149.9820 C   0  0  0  0  0  2  0  0  0  0  0  0
  162.2700  208.4640  151.1220 C   0  0  1  0  0  3  0  0  0  0  0  0
  161.9560  209.9130  148.6680 C   0  0  0  0  0  3  0  0  0  0  0  0
  162.1180  207.7000  149.8030 C   0  0  0  0  0  2  0  0  0  0  0  0
  161.4700  209.7600  151.1360 C   0  0  1  0  0  3  0  0  0  0  0  0
  162.0060  207.6120  152.3750 C   0  0  1  0  0  3  0  0  0  0  0  0
  160.6090  207.7470  152.9860 C   0  0  0  0  0  2  0  0  0  0  0  0
  160.6330  207.4520  154.4750 C   0  0  0  0  0  1  0  0  0  0  0  0
  162.3200  206.1550  152.0740 C   0  0  0  0  0  2  0  0  0  0  0  0
  161.1380  205.4110  152.0370 O   0  0  0  0  0  0  0  0  0  0  0  0
  161.5510  204.1400  151.6490 C   0  0  0  0  0  2  0  0  0  0  0  0
  161.2110  204.1420  149.2110 C   0  0  0  0  0  1  0  0  0  0  0  0
  160.6620  203.6510  150.5270 C   0  0  0  0  0  2  0  0  0  0  0  0
  159.7490  211.7280  151.5890 C   0  0  0  0  0  2  0  0  0  0  0  0
  159.7170  213.2550  151.6620 C   0  0  1  0  0  3  0  0  0  0  0  0
  160.8260  213.7620  150.9860 O   0  0  0  0  0  1  0  0  0  0  0  0
  158.4420  213.8170  151.0360 C   0  0  0  0  0  2  0  0  0  0  0  0
  158.6830  214.2220  149.5820 C   0  0  0  0  0  2  0  0  0  0  0  0
  157.9040  213.3680  148.6360 C   0  0  0  0  0  0  0  0  0  0  0  0
  158.3230  213.1840  147.4640 O   0  0  0  0  0  0  0  0  0  0  0  0
  156.7050  212.8020  149.0380 O   0  0  0  0  0  1  0  0  0  0  0  0
  1  6  1  0  0  0  0
  2  8  1  0  0  0  0
  3 11  1  1  0  0  0
  6  2  2  0  0  0  0
  6 10  1  0  0  0  0
  7  3  1  0  0  0  0
  8  5  1  0  0  0  0
  8  3  1  0  0  0  0
  9  2  1  0  0  0  0
  9  7  2  0  0  0  0
 10  4  1  0  0  0  0
 10  5  2  0  0  0  0
 12  1  1  0  0  0  0
 13 16  2  0  0  0  0
 13 17  1  0  0  0  0
 14 18  1  0  0  0  0
 15 18  1  0  0  0  0
 15 19  1  1  0  0  0
 16 14  1  0  0  0  0
 17 15  1  0  0  0  0
 18 12  1  1  0  0  0
 19 22  1  6  0  0  0
 19 20  1  0  0  0  0
 20 21  1  0  0  0  0
 23 22  1  0  0  0  0
 24 23  1  0  0  0  0
 25 26  1  0  0  0  0
 26 24  1  0  0  0  0
 27 28  1  0  0  0  0
 27  1  1  0  0  0  0
 28 29  1  6  0  0  0
 30 28  1  0  0  0  0
 31 30  1  0  0  0  0
 32 34  1  0  0  0  0
 32 31  1  0  0  0  0
 33 32  2  0  0  0  0
M  END
>  <MODEL>
6

>  <REMARK>
 VINA RESULT:      -4.6      1.919      3.310
  Name = 
  14 active torsions:
  status: ('A' for Active; 'I' for Inactive)
    1  A    between atoms: C_3  and  C_14
    2  A    between atoms: C_3  and  C_31
    3  A    between atoms: C_5  and  C_9
    4  A    between atoms: C_5  and  C_19
    5  A    between atoms: C_5  and  C_34
    6  A    between atoms: N_7  and  O_13
    7  A    between atoms: N_7  and  C_14
    8  A    between atoms: N_7  and  C_21
    9  A    between atoms: O_10  and  C_16
   10  A    between atoms: O_10  and  C_34
   11  A    between atoms: O_13  and  C_29
   12  A    between atoms: C_15  and  C_18
   13  A    between atoms: C_16  and  C_24
   14  A    between atoms: C_18  and  C_31
                            x       y       z     vdW  Elec       q    Type
                         _______ _______ _______ _____ _____    ______ ____

>  <TORSDO>
F 14

$$$$
=
 OpenBabel11052411063D

 34 36  0  0  1  0  0  0  0  0999 V2000
  160.9710  209.2720  151.8360 N   0  0  0  0  0  0  0  0  0  0  0  0
  160.8660  207.1360  150.4950 C   0  0  0  0  0  0  0  0  0  0  0  0
  161.6580  205.2200  149.6030 C   0  0  1  0  0  3  0  0  0  0  0  0
  161.3640  207.0500  154.0990 C   0  0  0  0  0  1  0  0  0  0  0  0
  161.2760  205.6420  152.0310 N   0  0  0  0  0  0  0  0  0  0  0  0
  160.9250  207.8350  151.6760 C   0  0  0  0  0  0  0  0  0  0  0  0
  161.7850  206.3270  148.6400 N   0  0  0  0  0  0  0  0  0  0  0  0
  161.0300  205.8480  150.7480 N   0  0  0  0  0  0  0  0  0  0  0  0
  161.3490  207.4370  149.1680 C   0  0  0  0  0  3  0  0  0  0  0  0
  161.1480  206.8450  152.6380 C   0  0  0  0  0  0  0  0  0  0  0  0
  160.7480  204.1480  149.0370 C   0  0  0  0  0  1  0  0  0  0  0  0
  159.9380  209.9080  152.4620 O   0  0  0  0  0  0  0  0  0  0  0  0
  161.5560  211.3440  156.0650 C   0  0  0  0  0  3  0  0  0  0  0  0
  161.8490  210.2590  153.8620 C   0  0  0  0  0  2  0  0  0  0  0  0
  159.6850  211.3460  154.3470 C   0  0  1  0  0  3  0  0  0  0  0  0
  162.3320  210.6750  155.2170 C   0  0  0  0  0  3  0  0  0  0  0  0
  160.1080  211.6430  155.7880 C   0  0  0  0  0  2  0  0  0  0  0  0
  160.3340  210.0810  153.8010 C   0  0  1  0  0  3  0  0  0  0  0  0
  158.1630  211.3520  154.1250 C   0  0  1  0  0  3  0  0  0  0  0  0
  157.3090  211.2220  155.3900 C   0  0  0  0  0  2  0  0  0  0  0  0
  155.9350  211.8360  155.1870 C   0  0  0  0  0  1  0  0  0  0  0  0
  157.7690  212.5920  153.3380 C   0  0  0  0  0  2  0  0  0  0  0  0
  158.9140  213.2560  152.8910 O   0  0  0  0  0  0  0  0  0  0  0  0
  158.4390  214.1290  151.9170 C   0  0  0  0  0  2  0  0  0  0  0  0
  158.4010  213.8320  149.4730 C   0  0  0  0  0  1  0  0  0  0  0  0
  157.8430  213.3270  150.7800 C   0  0  0  0  0  2  0  0  0  0  0  0
  162.0110  210.0300  151.1250 C   0  0  0  0  0  2  0  0  0  0  0  0
  161.4640  210.9610  150.0420 C   0  0  1  0  0  3  0  0  0  0  0  0
  161.1900  212.2040  150.6130 O   0  0  0  0  0  1  0  0  0  0  0  0
  162.4640  211.1370  148.9010 C   0  0  0  0  0  2  0  0  0  0  0  0
  162.4220  212.5650  148.3560 C   0  0  0  0  0  2  0  0  0  0  0  0
  161.7380  212.6270  147.0300 C   0  0  0  0  0  0  0  0  0  0  0  0
  162.3320  213.1250  146.0380 O   0  0  0  0  0  0  0  0  0  0  0  0
  160.4380  212.1660  146.8970 O   0  0  0  0  0  1  0  0  0  0  0  0
  1 12  1  0  0  0  0
  2  8  1  0  0  0  0
  2  6  2  0  0  0  0
  3 11  1  6  0  0  0
  3  8  1  0  0  0  0
  5 10  2  0  0  0  0
  6  1  1  0  0  0  0
  6 10  1  0  0  0  0
  7  9  2  0  0  0  0
  7  3  1  0  0  0  0
  8  5  1  0  0  0  0
  9  2  1  0  0  0  0
 10  4  1  0  0  0  0
 14 16  1  0  0  0  0
 15 19  1  1  0  0  0
 15 17  1  0  0  0  0
 16 13  2  0  0  0  0
 17 13  1  0  0  0  0
 18 12  1  6  0  0  0
 18 14  1  0  0  0  0
 18 15  1  0  0  0  0
 19 22  1  1  0  0  0
 19 20  1  0  0  0  0
 21 20  1  0  0  0  0
 23 22  1  0  0  0  0
 24 23  1  0  0  0  0
 25 26  1  0  0  0  0
 26 24  1  0  0  0  0
 27  1  1  0  0  0  0
 28 29  1  1  0  0  0
 28 27  1  0  0  0  0
 30 28  1  0  0  0  0
 31 30  1  0  0  0  0
 32 31  1  0  0  0  0
 33 32  2  0  0  0  0
 34 32  1  0  0  0  0
M  END
>  <MODEL>
7

>  <REMARK>
 VINA RESULT:      -4.6      2.075      6.579
  Name = 
  14 active torsions:
  status: ('A' for Active; 'I' for Inactive)
    1  A    between atoms: C_3  and  C_14
    2  A    between atoms: C_3  and  C_31
    3  A    between atoms: C_5  and  C_9
    4  A    between atoms: C_5  and  C_19
    5  A    between atoms: C_5  and  C_34
    6  A    between atoms: N_7  and  O_13
    7  A    between atoms: N_7  and  C_14
    8  A    between atoms: N_7  and  C_21
    9  A    between atoms: O_10  and  C_16
   10  A    between atoms: O_10  and  C_34
   11  A    between atoms: O_13  and  C_29
   12  A    between atoms: C_15  and  C_18
   13  A    between atoms: C_16  and  C_24
   14  A    between atoms: C_18  and  C_31
                            x       y       z     vdW  Elec       q    Type
                         _______ _______ _______ _____ _____    ______ ____

>  <TORSDO>
F 14

$$$$
=
 OpenBabel11052411063D

 34 36  0  0  1  0  0  0  0  0999 V2000
  160.9420  209.8700  152.3840 N   0  0  0  0  0  0  0  0  0  0  0  0
  161.2310  211.7850  150.7660 C   0  0  0  0  0  0  0  0  0  0  0  0
  160.7160  213.0800  148.9900 C   0  0  1  0  0  3  0  0  0  0  0  0
  158.3560  211.6470  152.9940 C   0  0  0  0  0  1  0  0  0  0  0  0
  159.3910  212.9090  151.0960 N   0  0  0  0  0  0  0  0  0  0  0  0
  160.5990  211.1510  151.8080 C   0  0  0  0  0  0  0  0  0  0  0  0
  161.6860  212.0410  148.6050 N   0  0  0  0  0  0  0  0  0  0  0  0
  160.5160  212.8380  150.4050 N   0  0  0  0  0  0  0  0  0  0  0  0
  161.9620  211.2800  149.6290 C   0  0  0  0  0  3  0  0  0  0  0  0
  159.4500  211.9190  152.0170 C   0  0  0  0  0  0  0  0  0  0  0  0
  161.3230  214.4530  148.7810 C   0  0  0  0  0  1  0  0  0  0  0  0
  160.2200  208.7650  152.0340 O   0  0  0  0  0  0  0  0  0  0  0  0
  161.6380  204.9390  153.0380 C   0  0  0  0  0  3  0  0  0  0  0  0
  160.5570  207.0670  153.6870 C   0  0  0  0  0  2  0  0  0  0  0  0
  160.8380  206.5890  151.2800 C   0  0  1  0  0  3  0  0  0  0  0  0
  161.1990  205.7490  153.9970 C   0  0  0  0  0  3  0  0  0  0  0  0
  161.6320  205.3150  151.5810 C   0  0  0  0  0  2  0  0  0  0  0  0
  161.0180  207.6520  152.3560 C   0  0  1  0  0  3  0  0  0  0  0  0
  161.0690  207.1540  149.8690 C   0  0  1  0  0  3  0  0  0  0  0  0
  162.4880  207.6490  149.5770 C   0  0  0  0  0  2  0  0  0  0  0  0
  162.5460  208.4010  148.2600 C   0  0  0  0  0  1  0  0  0  0  0  0
  160.6360  206.1280  148.8330 C   0  0  0  0  0  2  0  0  0  0  0  0
  161.5080  205.0360  148.8530 O   0  0  0  0  0  0  0  0  0  0  0  0
  161.3810  204.4810  147.5830 C   0  0  0  0  0  2  0  0  0  0  0  0
  161.5480  205.3990  145.3050 C   0  0  0  0  0  1  0  0  0  0  0  0
  162.2690  205.2380  146.6190 C   0  0  0  0  0  2  0  0  0  0  0  0
  161.9040  209.8270  153.4940 C   0  0  0  0  0  2  0  0  0  0  0  0
  161.2580  209.9330  154.8760 C   0  0  1  0  0  3  0  0  0  0  0  0
  161.8900  209.0380  155.7390 O   0  0  0  0  0  1  0  0  0  0  0  0
  161.3740  211.3480  155.4390 C   0  0  0  0  0  2  0  0  0  0  0  0
  160.0830  211.7610  156.1440 C   0  0  0  0  0  2  0  0  0  0  0  0
  159.9680  213.2460  156.2570 C   0  0  0  0  0  0  0  0  0  0  0  0
  159.2740  213.8890  155.4260 O   0  0  0  0  0  0  0  0  0  0  0  0
  160.6500  213.9210  157.2560 O   0  0  0  0  0  1  0  0  0  0  0  0
  1 27  1  0  0  0  0
  2  6  2  0  0  0  0
  3 11  1  1  0  0  0
  3  8  1  0  0  0  0
  5 10  2  0  0  0  0
  6 10  1  0  0  0  0
  6  1  1  0  0  0  0
  7  3  1  0  0  0  0
  7  9  2  0  0  0  0
  8  2  1  0  0  0  0
  8  5  1  0  0  0  0
  9  2  1  0  0  0  0
 10  4  1  0  0  0  0
 12  1  1  0  0  0  0
 13 16  2  0  0  0  0
 14 16  1  0  0  0  0
 15 19  1  6  0  0  0
 15 17  1  0  0  0  0
 15 18  1  0  0  0  0
 17 13  1  0  0  0  0
 18 12  1  6  0  0  0
 18 14  1  0  0  0  0
 19 22  1  6  0  0  0
 20 19  1  0  0  0  0
 21 20  1  0  0  0  0
 22 23  1  0  0  0  0
 24 23  1  0  0  0  0
 25 26  1  0  0  0  0
 26 24  1  0  0  0  0
 27 28  1  0  0  0  0
 28 30  1  0  0  0  0
 28 29  1  1  0  0  0
 30 31  1  0  0  0  0
 31 32  1  0  0  0  0
 32 34  1  0  0  0  0
 33 32  2  0  0  0  0
M  END
>  <MODEL>
8

>  <REMARK>
 VINA RESULT:      -4.5      2.504      4.895
  Name = 
  14 active torsions:
  status: ('A' for Active; 'I' for Inactive)
    1  A    between atoms: C_3  and  C_14
    2  A    between atoms: C_3  and  C_31
    3  A    between atoms: C_5  and  C_9
    4  A    between atoms: C_5  and  C_19
    5  A    between atoms: C_5  and  C_34
    6  A    between atoms: N_7  and  O_13
    7  A    between atoms: N_7  and  C_14
    8  A    between atoms: N_7  and  C_21
    9  A    between atoms: O_10  and  C_16
   10  A    between atoms: O_10  and  C_34
   11  A    between atoms: O_13  and  C_29
   12  A    between atoms: C_15  and  C_18
   13  A    between atoms: C_16  and  C_24
   14  A    between atoms: C_18  and  C_31
                            x       y       z     vdW  Elec       q    Type
                         _______ _______ _______ _____ _____    ______ ____

>  <TORSDO>
F 14

$$$$
=
 OpenBabel11052411063D

 34 36  0  0  1  0  0  0  0  0999 V2000
  160.6270  210.7190  152.4230 N   0  0  0  0  0  0  0  0  0  0  0  0
  161.2390  212.1310  150.4230 C   0  0  0  0  0  0  0  0  0  0  0  0
  161.0330  212.9280  148.3210 C   0  0  1  0  0  3  0  0  0  0  0  0
  158.1080  212.6740  152.1970 C   0  0  0  0  0  1  0  0  0  0  0  0
  159.4500  213.3600  150.1990 N   0  0  0  0  0  0  0  0  0  0  0  0
  160.4430  211.8140  151.4960 C   0  0  0  0  0  0  0  0  0  0  0  0
  161.9730  211.7950  148.3520 N   0  0  0  0  0  0  0  0  0  0  0  0
  160.6450  213.0740  149.7100 N   0  0  0  0  0  0  0  0  0  0  0  0
  162.0700  211.3220  149.5640 C   0  0  0  0  0  3  0  0  0  0  0  0
  159.3290  212.6460  151.3420 C   0  0  0  0  0  0  0  0  0  0  0  0
  161.7510  214.1790  147.8510 C   0  0  0  0  0  1  0  0  0  0  0  0
  160.0590  209.5080  152.1490 O   0  0  0  0  0  0  0  0  0  0  0  0
  161.7230  206.0380  153.8360 C   0  0  0  0  0  3  0  0  0  0  0  0
  160.4590  208.1510  154.0790 C   0  0  0  0  0  2  0  0  0  0  0  0
  160.8680  207.2940  151.7990 C   0  0  1  0  0  3  0  0  0  0  0  0
  161.1860  206.9620  154.6290 C   0  0  0  0  0  3  0  0  0  0  0  0
  161.7440  206.1580  152.3370 C   0  0  0  0  0  2  0  0  0  0  0  0
  160.9260  208.5360  152.6780 C   0  0  1  0  0  3  0  0  0  0  0  0
  161.1110  207.6260  150.3170 C   0  0  1  0  0  3  0  0  0  0  0  0
  162.5740  207.8270  149.9140 C   0  0  0  0  0  2  0  0  0  0  0  0
  162.7060  208.0290  148.4160 C   0  0  0  0  0  1  0  0  0  0  0  0
  160.4550  206.5670  149.4450 C   0  0  0  0  0  2  0  0  0  0  0  0
  161.2170  205.3960  149.4650 O   0  0  0  0  0  0  0  0  0  0  0  0
  161.0110  204.8380  148.2070 C   0  0  0  0  0  2  0  0  0  0  0  0
  160.8280  202.8680  149.6730 C   0  0  0  0  0  1  0  0  0  0  0  0
  161.2060  203.3390  148.2910 C   0  0  0  0  0  2  0  0  0  0  0  0
  161.2240  210.9980  153.7370 C   0  0  0  0  0  2  0  0  0  0  0  0
  160.2180  211.4800  154.7830 C   0  0  1  0  0  3  0  0  0  0  0  0
  160.0820  212.8630  154.6720 O   0  0  0  0  0  1  0  0  0  0  0  0
  158.8550  210.8190  154.5910 C   0  0  0  0  0  2  0  0  0  0  0  0
  158.0780  210.7800  155.9070 C   0  0  0  0  0  2  0  0  0  0  0  0
  156.7250  211.3950  155.7660 C   0  0  0  0  0  0  0  0  0  0  0  0
  156.2590  212.1100  156.6910 O   0  0  0  0  0  1  0  0  0  0  0  0
  155.9680  211.1550  154.6300 O   0  0  0  0  0  0  0  0  0  0  0  0
  1 27  1  0  0  0  0
  2  6  2  0  0  0  0
  3 11  1  1  0  0  0
  3  7  1  0  0  0  0
  3  8  1  0  0  0  0
  5 10  2  0  0  0  0
  6  1  1  0  0  0  0
  7  9  2  0  0  0  0
  8  5  1  0  0  0  0
  8  2  1  0  0  0  0
  9  2  1  0  0  0  0
 10  6  1  0  0  0  0
 10  4  1  0  0  0  0
 12  1  1  0  0  0  0
 13 16  2  0  0  0  0
 14 16  1  0  0  0  0
 15 19  1  6  0  0  0
 15 17  1  0  0  0  0
 15 18  1  0  0  0  0
 17 13  1  0  0  0  0
 18 12  1  6  0  0  0
 18 14  1  0  0  0  0
 19 22  1  6  0  0  0
 20 19  1  0  0  0  0
 21 20  1  0  0  0  0
 22 23  1  0  0  0  0
 24 26  1  0  0  0  0
 24 23  1  0  0  0  0
 26 25  1  0  0  0  0
 27 28  1  0  0  0  0
 28 29  1  6  0  0  0
 30 28  1  0  0  0  0
 30 31  1  0  0  0  0
 32 31  1  0  0  0  0
 32 33  1  0  0  0  0
 34 32  2  0  0  0  0
M  END
>  <MODEL>
9

>  <REMARK>
 VINA RESULT:      -4.4      2.340      5.055
  Name = 
  14 active torsions:
  status: ('A' for Active; 'I' for Inactive)
    1  A    between atoms: C_3  and  C_14
    2  A    between atoms: C_3  and  C_31
    3  A    between atoms: C_5  and  C_9
    4  A    between atoms: C_5  and  C_19
    5  A    between atoms: C_5  and  C_34
    6  A    between atoms: N_7  and  O_13
    7  A    between atoms: N_7  and  C_14
    8  A    between atoms: N_7  and  C_21
    9  A    between atoms: O_10  and  C_16
   10  A    between atoms: O_10  and  C_34
   11  A    between atoms: O_13  and  C_29
   12  A    between atoms: C_15  and  C_18
   13  A    between atoms: C_16  and  C_24
   14  A    between atoms: C_18  and  C_31
                            x       y       z     vdW  Elec       q    Type
                         _______ _______ _______ _____ _____    ______ ____

>  <TORSDO>
F 14

$$$$
