=
 OpenBabel11052411593D

 70 75  0  0  1  0  0  0  0  0999 V2000
  161.5010  210.7990  147.9480 C   0  0  2  0  0  3  0  0  0  0  0  0
  161.4490  207.9390  147.3850 S   0  0  0  0  0  0  0  0  0  0  0  0
  161.8230  209.3820  148.3740 C   0  0  1  0  0  3  0  0  0  0  0  0
  162.8490  207.6980  149.6870 C   0  0  1  0  0  3  0  0  0  0  0  0
  162.7080  207.0220  148.3300 C   0  0  0  0  0  2  0  0  0  0  0  0
  162.5340  209.1420  149.4720 C   0  0  0  0  0  2  0  0  0  0  0  0
  162.2040  205.9580  151.4020 C   0  0  0  0  0  0  0  0  0  0  0  0
  161.9080  207.1040  150.6120 N   0  0  0  0  0  2  0  0  0  0  0  0
  163.3760  205.4880  151.4410 O   0  0  0  0  0  0  0  0  0  0  0  0
  160.7900  206.0390  153.4810 C   0  0  0  0  0  1  0  0  0  0  0  0
  161.0970  205.3170  152.1830 C   0  0  2  0  0  3  0  0  0  0  0  0
  161.2850  203.7990  152.3230 C   0  0  0  0  0  2  0  0  0  0  0  0
  160.5160  202.9110  151.3200 C   0  0  2  0  0  3  0  0  0  0  0  0
  159.5400  202.0450  151.8490 O   0  0  0  0  0  1  0  0  0  0  0  0
  161.3020  200.9110  149.9860 C   0  0  0  0  0  1  0  0  0  0  0  0
  161.2310  202.4240  150.0470 C   0  0  1  0  0  3  0  0  0  0  0  0
  160.7160  202.9600  148.6770 C   0  0  1  0  0  3  0  0  0  0  0  0
  160.7960  204.4910  148.5470 C   0  0  0  0  0  1  0  0  0  0  0  0
  161.4570  202.3500  147.6410 O   0  0  0  0  0  0  0  0  0  0  0  0
  160.5710  201.8850  145.5550 O   0  0  0  0  0  1  0  0  0  0  0  0
  160.9990  202.8960  146.4170 C   0  0  2  0  0  3  0  0  0  0  0  0
  162.1280  203.6960  145.7600 C   0  0  0  0  0  2  0  0  0  0  0  0
  162.5470  206.0180  144.9180 O   0  0  0  0  0  0  0  0  0  0  0  0
  160.4140  205.1790  145.0540 O   0  0  0  0  0  1  0  0  0  0  0  0
  161.6500  205.0120  145.2490 C   0  0  0  0  0  0  0  0  0  0  0  0
  161.2120  211.4430  150.3150 C   0  0  0  0  0  3  0  0  0  0  0  0
  161.0770  211.6840  149.0440 N   0  0  0  0  0  0  0  0  0  0  0  0
  159.1470  213.7580  156.1870 C   0  0  0  0  0  0  0  0  0  0  0  0
  159.4810  212.3240  156.1300 C   0  0  0  0  0  0  0  0  0  0  0  0
  158.7280  213.6820  153.7390 C   0  0  2  0  0  3  0  0  0  0  0  0
  159.6310  209.5510  155.7130 C   0  0  0  0  0  3  0  0  0  0  0  0
  159.9480  209.9740  152.9420 S   0  0  0  0  0  0  0  0  0  0  0  0
  160.5370  212.2170  151.3790 C   0  0  0  0  0  2  0  0  0  0  0  0
  159.8250  211.7980  154.8840 C   0  0  0  0  0  0  0  0  0  0  0  0
  159.3590  210.0640  156.9980 C   0  0  0  0  0  3  0  0  0  0  0  0
  159.2870  211.4520  157.2120 C   0  0  0  0  0  3  0  0  0  0  0  0
  159.8850  212.6690  153.6760 C   0  0  1  0  0  3  0  0  0  0  0  0
  159.2130  214.4020  157.2610 O   0  0  0  0  0  0  0  0  0  0  0  0
  159.9790  211.7390  152.5070 C   0  0  2  0  0  3  0  0  0  0  0  0
  158.8700  214.4310  154.9690 O   0  0  0  0  0  0  0  0  0  0  0  0
  159.8720  210.4350  154.6600 C   0  0  0  0  0  0  0  0  0  0  0  0
  157.4980  213.0000  153.7500 O   0  0  0  0  0  0  0  0  0  0  0  0
  156.5040  213.9660  153.5710 C   0  0  1  0  0  3  0  0  0  0  0  0
  156.4880  214.3600  152.0960 C   0  0  0  0  0  2  0  0  0  0  0  0
  156.9980  213.2100  151.2310 C   0  0  0  0  0  2  0  0  0  0  0  0
  156.9070  213.5970  149.7690 C   0  0  0  0  0  1  0  0  0  0  0  0
  155.2710  213.4310  153.9490 O   0  0  0  0  0  0  0  0  0  0  0  0
  155.4870  212.7550  155.1570 C   0  0  0  0  0  2  0  0  0  0  0  0
  154.4550  213.2780  157.2580 O   0  0  0  0  0  1  0  0  0  0  0  0
  155.3780  213.7340  156.3120 C   0  0  0  0  0  2  0  0  0  0  0  0
  160.4520  210.8030  146.9090 N   0  0  0  0  0  2  0  0  0  0  0  0
  160.9670  212.1800  145.0700 O   0  0  0  0  0  0  0  0  0  0  0  0
  161.4670  214.1820  146.2480 C   0  0  0  0  0  2  0  0  0  0  0  0
  160.3530  212.1470  146.3280 C   0  0  2  0  0  3  0  0  0  0  0  0
  161.7380  213.3540  145.0260 C   0  0  2  0  0  3  0  0  0  0  0  0
  161.0310  213.1560  147.2250 C   0  0  0  0  0  2  0  0  0  0  0  0
  161.4480  214.0810  143.7270 C   0  0  0  0  0  2  0  0  0  0  0  0
  161.3260  213.1790  142.6120 N   0  0  0  0  0  0  0  0  0  0  0  0
  160.6080  213.4610  141.5810 C   0  0  0  0  0  3  0  0  0  0  0  0
  162.2030  211.0350  138.4100 C   0  0  2  0  0  3  0  0  0  0  0  0
  161.5030  210.3740  139.5980 C   0  0  2  0  0  3  0  0  0  0  0  0
  160.5280  214.2920  138.8320 O   0  0  0  0  0  0  0  0  0  0  0  0
  161.4260  211.3180  140.7750 C   0  0  0  0  0  2  0  0  0  0  0  0
  160.5370  212.5060  140.4330 C   0  0  2  0  0  3  0  0  0  0  0  0
  161.8000  212.4390  138.2020 N   0  0  0  0  0  0  0  0  0  0  0  0
  162.4310  213.1960  137.1300 C   0  0  0  0  0  1  0  0  0  0  0  0
  160.9580  213.1450  139.1380 C   0  0  0  0  0  0  0  0  0  0  0  0
  162.1890  209.2110  139.9740 O   0  0  0  0  0  1  0  0  0  0  0  0
  161.0540  209.1570  137.4560 O   0  0  0  0  0  1  0  0  0  0  0  0
  161.9270  210.2110  137.1560 C   0  0  0  0  0  2  0  0  0  0  0  0
  1 51  1  6  0  0  0
  1 27  1  0  0  0  0
  2  5  1  0  0  0  0
  2  3  1  0  0  0  0
  3  1  1  6  0  0  0
  3  6  1  0  0  0  0
  4  8  1  1  0  0  0
  5  4  1  0  0  0  0
  6  4  1  0  0  0  0
  7  9  2  0  0  0  0
  7 11  1  0  0  0  0
  8  7  1  0  0  0  0
 11 12  1  0  0  0  0
 11 10  1  1  0  0  0
 13 14  1  1  0  0  0
 13 12  1  0  0  0  0
 16 15  1  6  0  0  0
 16 13  1  0  0  0  0
 17 18  1  1  0  0  0
 17 16  1  0  0  0  0
 19 17  1  0  0  0  0
 21 20  1  6  0  0  0
 21 19  1  0  0  0  0
 22 21  1  0  0  0  0
 23 25  2  0  0  0  0
 24 25  1  0  0  0  0
 25 22  1  0  0  0  0
 26 33  1  0  0  0  0
 27 26  2  0  0  0  0
 28 38  2  0  0  0  0
 29 28  1  0  0  0  0
 29 36  1  0  0  0  0
 30 42  1  1  0  0  0
 30 40  1  0  0  0  0
 31 35  1  0  0  0  0
 32 41  1  0  0  0  0
 34 29  2  0  0  0  0
 35 36  2  0  0  0  0
 37 30  1  0  0  0  0
 37 34  1  1  0  0  0
 39 33  1  1  0  0  0
 39 32  1  0  0  0  0
 39 37  1  0  0  0  0
 40 28  1  0  0  0  0
 41 34  1  0  0  0  0
 41 31  2  0  0  0  0
 43 44  1  6  0  0  0
 43 42  1  0  0  0  0
 43 47  1  0  0  0  0
 45 44  1  0  0  0  0
 46 45  1  0  0  0  0
 47 48  1  0  0  0  0
 48 50  1  0  0  0  0
 50 49  1  0  0  0  0
 52 54  1  0  0  0  0
 53 56  1  0  0  0  0
 54 51  1  1  0  0  0
 54 56  1  0  0  0  0
 55 57  1  6  0  0  0
 55 52  1  0  0  0  0
 55 53  1  0  0  0  0
 58 57  1  0  0  0  0
 59 58  2  0  0  0  0
 60 70  1  6  0  0  0
 60 61  1  0  0  0  0
 61 68  1  1  0  0  0
 61 63  1  0  0  0  0
 62 67  2  0  0  0  0
 64 63  1  0  0  0  0
 64 59  1  1  0  0  0
 65 60  1  0  0  0  0
 65 67  1  0  0  0  0
 66 65  1  0  0  0  0
 67 64  1  0  0  0  0
 70 69  1  0  0  0  0
M  END
>  <MODEL>
1

>  <REMARK>
 VINA RESULT:      -3.2      0.000      0.000
  Name = 
  26 active torsions:
  status: ('A' for Active; 'I' for Inactive)
    1  A    between atoms: C_1  and  C_28
    2  A    between atoms: C_1  and  C_69
    3  A    between atoms: C_2  and  O_10
    4  A    between atoms: C_2  and  C_39
    5  A    between atoms: C_2  and  O_59
    6  A    between atoms: N_4  and  C_18
    7  A    between atoms: C_6  and  C_39
    8  A    between atoms: O_10  and  C_29
    9  A    between atoms: C_11  and  C_29
   10  A    between atoms: C_12  and  O_24
   11  A    between atoms: C_12  and  C_28
   12  A    between atoms: C_13  and  C_67
   13  A    between atoms: C_15  and  C_35
   14  A    between atoms: N_16  and  C_44
   15  A    between atoms: N_16  and  C_54
   16  A    between atoms: C_17  and  C_26
   17  A    between atoms: C_18  and  C_47
   18  A    between atoms: C_20  and  O_59
   19  A    between atoms: O_24  and  C_65
   20  A    between atoms: C_26  and  C_69
   21  A    between atoms: N_30  and  C_54
   22  A    between atoms: C_31  and  C_54
   23  A    between atoms: C_37  and  N_55
   24  A    between atoms: C_38  and  C_49
   25  A    between atoms: C_38  and  C_65
   26  A    between atoms: C_48  and  C_64
                            x       y       z     vdW  Elec       q    Type
                         _______ _______ _______ _____ _____    ______ ____

>  <TORSDO>
F 26

$$$$
