=
 OpenBabel11052410363D

 40 44  0  0  1  0  0  0  0  0999 V2000
  156.9140  211.3380  154.1150 C   0  0  0  0  0  1  0  0  0  0  0  0
  159.8120  209.4900  154.0350 C   0  0  1  0  0  3  0  0  0  0  0  0
  162.0300  208.5630  154.7590 C   0  0  0  0  0  3  0  0  0  0  0  0
  159.2310  211.8910  153.3790 C   0  0  0  0  0  0  0  0  0  0  0  0
  158.7910  211.0480  155.6350 N   0  0  0  0  0  0  0  0  0  0  0  0
  160.8010  210.6040  152.1330 O   0  0  0  0  0  0  0  0  0  0  0  0
  161.3510  209.4840  156.9590 N   0  0  0  0  0  2  0  0  0  0  0  0
  159.9490  209.1810  156.6300 C   0  0  0  0  0  2  0  0  0  0  0  0
  160.9470  208.4750  153.9670 C   0  0  0  0  0  0  0  0  0  0  0  0
  159.4550  209.9540  155.4420 C   0  0  0  0  0  0  0  0  0  0  0  0
  158.2730  211.8680  154.5510 C   0  0  2  0  0  3  0  0  0  0  0  0
  162.2170  209.6510  155.7790 C   0  0  0  0  0  2  0  0  0  0  0  0
  159.3590  212.9620  152.5850 C   0  0  0  0  0  3  0  0  0  0  0  0
  160.0160  210.6710  153.1180 C   0  0  0  0  0  0  0  0  0  0  0  0
  161.4780  203.7860  152.8650 O   0  0  0  0  0  0  0  0  0  0  0  0
  160.5110  204.8390  147.8410 C   0  0  0  0  0  1  0  0  0  0  0  0
  161.0660  206.7880  149.2910 C   0  0  2  0  0  3  0  0  0  0  0  0
  161.1880  204.9520  152.4870 C   0  0  0  0  0  0  0  0  0  0  0  0
  161.0100  205.2540  151.1030 N   0  0  0  0  0  0  0  0  0  0  0  0
  161.0780  206.0110  153.4360 N   0  0  0  0  0  2  0  0  0  0  0  0
  161.6430  204.5170  150.0300 C   0  0  0  0  0  2  0  0  0  0  0  0
  160.6160  207.6180  151.7000 C   0  0  0  0  0  3  0  0  0  0  0  0
  160.8670  207.3630  152.9940 C   0  0  0  0  0  0  0  0  0  0  0  0
  160.4550  206.5220  150.6720 C   0  0  1  0  0  3  0  0  0  0  0  0
  161.5400  205.4140  148.7970 C   0  0  1  0  0  3  0  0  0  0  0  0
  162.2050  207.8310  149.2910 C   0  0  1  0  0  3  0  0  0  0  0  0
  163.3400  207.5250  148.3150 C   0  0  0  0  0  1  0  0  0  0  0  0
  161.7080  209.1800  149.1280 N   0  0  0  0  0  0  0  0  0  0  0  0
  162.3710  210.0900  148.5050 C   0  0  0  0  0  3  0  0  0  0  0  0
  162.8290  212.4090  148.5190 O   0  0  0  0  0  1  0  0  0  0  0  0
  161.8110  211.4660  148.3660 C   0  0  0  0  0  2  0  0  0  0  0  0
  158.5970  214.2390  152.7740 C   0  0  0  0  0  2  0  0  0  0  0  0
  157.5760  214.4530  151.6620 C   0  0  0  0  0  2  0  0  0  0  0  0
  158.8840  213.6340  148.2750 C   0  0  2  0  0  3  0  0  0  0  0  0
  156.4670  213.5870  149.3220 S   0  0  0  0  0  0  0  0  0  0  0  0
  159.7690  214.4530  147.3520 C   0  0  0  0  0  1  0  0  0  0  0  0
  157.8790  213.5760  150.4560 C   0  0  1  0  0  3  0  0  0  0  0  0
  157.1730  212.6590  147.0080 C   0  0  0  0  0  1  0  0  0  0  0  0
  157.4870  213.7760  147.8830 N   0  0  0  0  0  0  0  0  0  0  0  0
  159.0490  214.1280  149.6900 C   0  0  0  0  0  2  0  0  0  0  0  0
  2 14  1  6  0  0  0
  2 10  1  0  0  0  0
  3 12  1  0  0  0  0
  4 11  1  0  0  0  0
  6 14  2  0  0  0  0
  8  7  1  0  0  0  0
  9  2  1  0  0  0  0
  9  3  2  0  0  0  0
 10  5  2  0  0  0  0
 10  8  1  0  0  0  0
 11  1  1  6  0  0  0
 11  5  1  0  0  0  0
 12  7  1  0  0  0  0
 13 32  1  0  0  0  0
 13  4  2  0  0  0  0
 14  4  1  0  0  0  0
 17 26  1  1  0  0  0
 17 24  1  0  0  0  0
 18 15  2  0  0  0  0
 18 20  1  0  0  0  0
 19 18  1  0  0  0  0
 21 19  1  0  0  0  0
 22 23  2  0  0  0  0
 23 20  1  0  0  0  0
 23  9  1  0  0  0  0
 24 19  1  0  0  0  0
 24 22  1  1  0  0  0
 25 16  1  6  0  0  0
 25 17  1  0  0  0  0
 25 21  1  0  0  0  0
 26 27  1  6  0  0  0
 28 26  1  0  0  0  0
 29 28  2  0  0  0  0
 31 29  1  0  0  0  0
 31 30  1  0  0  0  0
 33 32  1  0  0  0  0
 34 36  1  6  0  0  0
 34 40  1  0  0  0  0
 35 37  1  0  0  0  0
 37 33  1  1  0  0  0
 38 39  1  0  0  0  0
 39 34  1  0  0  0  0
 39 35  1  0  0  0  0
 40 37  1  0  0  0  0
M  END
>  <MODEL>
1

>  <REMARK>
 VINA RESULT:      -4.9      0.000      0.000
  Name = 
  7 active torsions:
  status: ('A' for Active; 'I' for Inactive)
    1  A    between atoms: C_10  and  C_20
    2  A    between atoms: N_15  and  C_20
    3  A    between atoms: C_21  and  C_26
    4  A    between atoms: C_22  and  C_31
    5  A    between atoms: C_22  and  C_38
    6  A    between atoms: C_27  and  C_31
    7  A    between atoms: C_33  and  C_35
                            x       y       z     vdW  Elec       q    Type
                         _______ _______ _______ _____ _____    ______ ____

>  <TORSDO>
F 7

$$$$
=
 OpenBabel11052410363D

 40 44  0  0  1  0  0  0  0  0999 V2000
  157.0870  212.3540  148.8850 C   0  0  0  0  0  1  0  0  0  0  0  0
  158.7580  212.2180  151.8870 C   0  0  1  0  0  3  0  0  0  0  0  0
  159.5360  212.8900  154.1770 C   0  0  0  0  0  3  0  0  0  0  0  0
  159.2400  213.3520  149.6480 C   0  0  0  0  0  0  0  0  0  0  0  0
  157.1560  213.7710  150.8620 N   0  0  0  0  0  0  0  0  0  0  0  0
  160.9850  212.4220  150.9750 O   0  0  0  0  0  0  0  0  0  0  0  0
  157.6160  214.4530  154.0350 N   0  0  0  0  0  2  0  0  0  0  0  0
  156.8880  213.4540  153.2370 C   0  0  0  0  0  2  0  0  0  0  0  0
  159.3930  211.9340  153.2430 C   0  0  0  0  0  0  0  0  0  0  0  0
  157.5610  213.1600  151.9280 C   0  0  0  0  0  0  0  0  0  0  0  0
  157.7440  213.5560  149.5480 C   0  0  2  0  0  3  0  0  0  0  0  0
  159.0810  214.3090  153.9780 C   0  0  0  0  0  2  0  0  0  0  0  0
  160.0790  213.7530  148.6840 C   0  0  0  0  0  3  0  0  0  0  0  0
  159.7550  212.6650  150.8460 C   0  0  0  0  0  0  0  0  0  0  0  0
  161.7570  208.8360  156.1240 O   0  0  0  0  0  0  0  0  0  0  0  0
  161.3040  205.0970  152.5050 C   0  0  0  0  0  1  0  0  0  0  0  0
  160.8730  207.4300  151.7430 C   0  0  2  0  0  3  0  0  0  0  0  0
  161.1300  209.0400  155.0510 C   0  0  0  0  0  0  0  0  0  0  0  0
  161.0820  208.0460  154.0270 N   0  0  0  0  0  0  0  0  0  0  0  0
  160.4910  210.2930  154.8150 N   0  0  0  0  0  2  0  0  0  0  0  0
  162.1040  207.0390  153.8320 C   0  0  0  0  0  2  0  0  0  0  0  0
  159.7680  209.5970  152.6240 C   0  0  0  0  0  3  0  0  0  0  0  0
  159.8800  210.5690  153.5430 C   0  0  0  0  0  0  0  0  0  0  0  0
  160.1840  208.1700  152.8950 C   0  0  1  0  0  3  0  0  0  0  0  0
  161.8850  206.4960  152.4210 C   0  0  1  0  0  3  0  0  0  0  0  0
  161.5410  208.3560  150.7030 C   0  0  1  0  0  3  0  0  0  0  0  0
  162.5990  209.2940  151.2810 C   0  0  0  0  0  1  0  0  0  0  0  0
  162.0440  207.6200  149.5630 N   0  0  0  0  0  0  0  0  0  0  0  0
  161.2660  207.0190  148.7320 C   0  0  0  0  0  3  0  0  0  0  0  0
  161.7210  204.9000  147.7880 O   0  0  0  0  0  1  0  0  0  0  0  0
  161.8370  206.2740  147.5720 C   0  0  0  0  0  2  0  0  0  0  0  0
  159.6420  214.4520  147.4320 C   0  0  0  0  0  2  0  0  0  0  0  0
  159.3390  213.4620  146.3140 C   0  0  0  0  0  2  0  0  0  0  0  0
  160.0710  213.3480  142.6660 C   0  0  2  0  0  3  0  0  0  0  0  0
  161.5770  213.0460  144.8070 S   0  0  0  0  0  0  0  0  0  0  0  0
  159.3910  212.5560  141.5640 C   0  0  0  0  0  1  0  0  0  0  0  0
  159.9870  213.8900  145.0050 C   0  0  1  0  0  3  0  0  0  0  0  0
  162.3890  213.2370  142.3530 C   0  0  0  0  0  1  0  0  0  0  0  0
  161.2830  212.6630  143.1000 N   0  0  0  0  0  0  0  0  0  0  0  0
  159.1330  213.4760  143.8390 C   0  0  0  0  0  2  0  0  0  0  0  0
  2 14  1  6  0  0  0
  2 10  1  0  0  0  0
  2  9  1  0  0  0  0
  4 14  1  0  0  0  0
  5 10  2  0  0  0  0
  8  7  1  0  0  0  0
  9 23  1  0  0  0  0
  9  3  2  0  0  0  0
 10  8  1  0  0  0  0
 11  1  1  1  0  0  0
 11  4  1  0  0  0  0
 11  5  1  0  0  0  0
 12  7  1  0  0  0  0
 12  3  1  0  0  0  0
 13  4  2  0  0  0  0
 14  6  2  0  0  0  0
 17 26  1  6  0  0  0
 17 25  1  0  0  0  0
 17 24  1  0  0  0  0
 18 15  2  0  0  0  0
 19 18  1  0  0  0  0
 20 18  1  0  0  0  0
 21 19  1  0  0  0  0
 22 23  2  0  0  0  0
 23 20  1  0  0  0  0
 24 22  1  6  0  0  0
 24 19  1  0  0  0  0
 25 16  1  1  0  0  0
 25 21  1  0  0  0  0
 26 27  1  1  0  0  0
 28 26  1  0  0  0  0
 29 28  2  0  0  0  0
 31 30  1  0  0  0  0
 31 29  1  0  0  0  0
 32 13  1  0  0  0  0
 33 32  1  0  0  0  0
 34 36  1  6  0  0  0
 34 39  1  0  0  0  0
 34 40  1  0  0  0  0
 35 37  1  0  0  0  0
 37 33  1  1  0  0  0
 38 39  1  0  0  0  0
 39 35  1  0  0  0  0
 40 37  1  0  0  0  0
M  END
>  <MODEL>
2

>  <REMARK>
 VINA RESULT:      -4.6      2.856      4.930
  Name = 
  7 active torsions:
  status: ('A' for Active; 'I' for Inactive)
    1  A    between atoms: C_10  and  C_20
    2  A    between atoms: N_15  and  C_20
    3  A    between atoms: C_21  and  C_26
    4  A    between atoms: C_22  and  C_31
    5  A    between atoms: C_22  and  C_38
    6  A    between atoms: C_27  and  C_31
    7  A    between atoms: C_33  and  C_35
                            x       y       z     vdW  Elec       q    Type
                         _______ _______ _______ _____ _____    ______ ____

>  <TORSDO>
F 7

$$$$
=
 OpenBabel11052410363D

 40 44  0  0  1  0  0  0  0  0999 V2000
  158.1290  212.6030  150.1040 C   0  0  0  0  0  1  0  0  0  0  0  0
  160.0710  210.6510  152.1620 C   0  0  1  0  0  3  0  0  0  0  0  0
  161.3940  209.9520  154.1780 C   0  0  0  0  0  3  0  0  0  0  0  0
  160.5900  212.5080  150.4850 C   0  0  0  0  0  0  0  0  0  0  0  0
  159.0390  212.8710  152.3440 N   0  0  0  0  0  0  0  0  0  0  0  0
  162.0370  210.6350  150.7590 O   0  0  0  0  0  0  0  0  0  0  0  0
  160.2140  211.8620  155.2330 N   0  0  0  0  0  2  0  0  0  0  0  0
  159.0460  211.5830  154.3830 C   0  0  0  0  0  2  0  0  0  0  0  0
  160.7540  209.6130  153.0450 C   0  0  0  0  0  0  0  0  0  0  0  0
  159.3430  211.7540  152.9210 C   0  0  0  0  0  0  0  0  0  0  0  0
  159.2880  213.1340  150.9350 C   0  0  2  0  0  3  0  0  0  0  0  0
  161.4860  211.3670  154.6790 C   0  0  0  0  0  2  0  0  0  0  0  0
  161.3560  213.0620  149.5370 C   0  0  0  0  0  3  0  0  0  0  0  0
  160.9860  211.2360  151.1160 C   0  0  0  0  0  0  0  0  0  0  0  0
  161.5430  204.9350  154.0330 O   0  0  0  0  0  0  0  0  0  0  0  0
  160.4600  203.6880  149.0780 C   0  0  0  0  0  1  0  0  0  0  0  0
  160.9180  206.0940  149.5370 C   0  0  2  0  0  3  0  0  0  0  0  0
  161.1820  205.8120  153.2040 C   0  0  0  0  0  0  0  0  0  0  0  0
  160.9710  205.4830  151.8310 N   0  0  0  0  0  0  0  0  0  0  0  0
  161.0210  207.1690  153.6130 N   0  0  0  0  0  2  0  0  0  0  0  0
  161.6330  204.3880  151.1540 C   0  0  0  0  0  2  0  0  0  0  0  0
  160.4480  207.8530  151.3750 C   0  0  0  0  0  3  0  0  0  0  0  0
  160.7280  208.1890  152.6440 C   0  0  0  0  0  0  0  0  0  0  0  0
  160.3390  206.4160  150.9190 C   0  0  1  0  0  3  0  0  0  0  0  0
  161.4640  204.6650  149.6610 C   0  0  1  0  0  3  0  0  0  0  0  0
  161.9950  207.0890  149.0510 C   0  0  1  0  0  3  0  0  0  0  0  0
  163.1360  207.3160  150.0410 C   0  0  0  0  0  1  0  0  0  0  0  0
  162.4890  206.7550  147.7320 N   0  0  0  0  0  0  0  0  0  0  0  0
  161.7500  206.1940  146.8410 C   0  0  0  0  0  3  0  0  0  0  0  0
  161.2700  205.6850  144.5820 O   0  0  0  0  0  1  0  0  0  0  0  0
  162.3090  205.8720  145.4960 C   0  0  0  0  0  2  0  0  0  0  0  0
  161.0270  214.3480  148.8410 C   0  0  0  0  0  2  0  0  0  0  0  0
  161.7320  214.4530  147.4930 C   0  0  0  0  0  2  0  0  0  0  0  0
  158.6950  213.3460  145.6470 C   0  0  2  0  0  3  0  0  0  0  0  0
  161.2720  213.1770  145.1230 S   0  0  0  0  0  0  0  0  0  0  0  0
  157.5170  212.5150  146.1250 C   0  0  0  0  0  1  0  0  0  0  0  0
  160.7360  214.4040  146.3430 C   0  0  1  0  0  3  0  0  0  0  0  0
  159.3210  212.6080  143.5150 C   0  0  0  0  0  1  0  0  0  0  0  0
  159.6420  212.5030  144.9280 N   0  0  0  0  0  0  0  0  0  0  0  0
  159.3880  213.9580  146.8380 C   0  0  0  0  0  2  0  0  0  0  0  0
  2 14  1  1  0  0  0
  2 10  1  0  0  0  0
  2  9  1  0  0  0  0
  3 12  1  0  0  0  0
  4 11  1  0  0  0  0
  4 14  1  0  0  0  0
  5 10  2  0  0  0  0
  6 14  2  0  0  0  0
  8  7  1  0  0  0  0
  9  3  2  0  0  0  0
 10  8  1  0  0  0  0
 11  1  1  6  0  0  0
 11  5  1  0  0  0  0
 12  7  1  0  0  0  0
 13  4  2  0  0  0  0
 17 26  1  1  0  0  0
 17 25  1  0  0  0  0
 17 24  1  0  0  0  0
 18 20  1  0  0  0  0
 18 15  2  0  0  0  0
 19 18  1  0  0  0  0
 21 19  1  0  0  0  0
 22 23  2  0  0  0  0
 23  9  1  0  0  0  0
 23 20  1  0  0  0  0
 24 22  1  1  0  0  0
 24 19  1  0  0  0  0
 25 16  1  1  0  0  0
 25 21  1  0  0  0  0
 26 27  1  1  0  0  0
 28 26  1  0  0  0  0
 29 28  2  0  0  0  0
 30 31  1  0  0  0  0
 31 29  1  0  0  0  0
 32 13  1  0  0  0  0
 33 32  1  0  0  0  0
 34 36  1  1  0  0  0
 34 40  1  0  0  0  0
 35 37  1  0  0  0  0
 37 40  1  0  0  0  0
 37 33  1  1  0  0  0
 38 39  1  0  0  0  0
 39 35  1  0  0  0  0
 39 34  1  0  0  0  0
M  END
>  <MODEL>
3

>  <REMARK>
 VINA RESULT:      -4.6      2.440      3.368
  Name = 
  7 active torsions:
  status: ('A' for Active; 'I' for Inactive)
    1  A    between atoms: C_10  and  C_20
    2  A    between atoms: N_15  and  C_20
    3  A    between atoms: C_21  and  C_26
    4  A    between atoms: C_22  and  C_31
    5  A    between atoms: C_22  and  C_38
    6  A    between atoms: C_27  and  C_31
    7  A    between atoms: C_33  and  C_35
                            x       y       z     vdW  Elec       q    Type
                         _______ _______ _______ _____ _____    ______ ____

>  <TORSDO>
F 7

$$$$
=
 OpenBabel11052410363D

 40 44  0  0  1  0  0  0  0  0999 V2000
  161.2560  208.5830  151.4660 C   0  0  0  0  0  1  0  0  0  0  0  0
  160.4860  209.4720  154.6970 C   0  0  1  0  0  3  0  0  0  0  0  0
  160.8160  210.0940  157.1070 C   0  0  0  0  0  3  0  0  0  0  0  0
  160.9780  207.2420  153.5490 C   0  0  0  0  0  0  0  0  0  0  0  0
  162.5680  209.1010  153.4490 N   0  0  0  0  0  0  0  0  0  0  0  0
  159.3640  207.4170  155.2920 O   0  0  0  0  0  0  0  0  0  0  0  0
  163.1550  210.4680  156.3710 N   0  0  0  0  0  2  0  0  0  0  0  0
  162.6510  210.8970  155.0560 C   0  0  0  0  0  2  0  0  0  0  0  0
  160.0180  210.0530  156.0260 C   0  0  0  0  0  0  0  0  0  0  0  0
  161.9270  209.8010  154.3300 C   0  0  0  0  0  0  0  0  0  0  0  0
  161.9570  208.0180  152.6940 C   0  0  2  0  0  3  0  0  0  0  0  0
  162.2310  209.5850  157.1040 C   0  0  0  0  0  2  0  0  0  0  0  0
  160.7740  205.9290  153.3830 C   0  0  0  0  0  3  0  0  0  0  0  0
  160.2270  207.9910  154.5730 C   0  0  0  0  0  0  0  0  0  0  0  0
  155.2810  209.7320  155.0490 O   0  0  0  0  0  0  0  0  0  0  0  0
  154.5050  214.4370  157.1810 C   0  0  0  0  0  1  0  0  0  0  0  0
  156.8630  213.8490  156.6300 C   0  0  2  0  0  3  0  0  0  0  0  0
  156.2280  210.3720  155.5800 C   0  0  0  0  0  0  0  0  0  0  0  0
  156.0310  211.6920  156.0840 N   0  0  0  0  0  0  0  0  0  0  0  0
  157.5350  209.8040  155.6460 N   0  0  0  0  0  2  0  0  0  0  0  0
  155.0220  212.6030  155.5850 C   0  0  0  0  0  2  0  0  0  0  0  0
  158.4240  211.7860  156.6890 C   0  0  0  0  0  3  0  0  0  0  0  0
  158.6390  210.5800  156.1410 C   0  0  0  0  0  0  0  0  0  0  0  0
  157.0370  212.3490  156.8960 C   0  0  1  0  0  3  0  0  0  0  0  0
  155.4400  213.9890  156.0730 C   0  0  1  0  0  3  0  0  0  0  0  0
  157.9220  214.4530  155.6820 C   0  0  1  0  0  3  0  0  0  0  0  0
  159.3470  214.4340  156.2330 C   0  0  0  0  0  1  0  0  0  0  0  0
  157.8540  213.8800  154.3550 N   0  0  0  0  0  0  0  0  0  0  0  0
  158.9000  213.4870  153.7180 C   0  0  0  0  0  3  0  0  0  0  0  0
  160.0380  212.7520  151.7800 O   0  0  0  0  0  1  0  0  0  0  0  0
  158.7730  212.9040  152.3510 C   0  0  0  0  0  2  0  0  0  0  0  0
  161.4890  205.0930  152.3660 C   0  0  0  0  0  2  0  0  0  0  0  0
  160.7840  203.7600  152.1390 C   0  0  0  0  0  2  0  0  0  0  0  0
  160.6990  202.2630  148.7330 C   0  0  2  0  0  3  0  0  0  0  0  0
  161.3680  204.6500  149.6250 S   0  0  0  0  0  0  0  0  0  0  0  0
  161.3040  200.9650  148.2270 C   0  0  0  0  0  1  0  0  0  0  0  0
  160.3420  203.6070  150.6920 C   0  0  1  0  0  3  0  0  0  0  0  0
  161.0880  203.9430  147.1470 C   0  0  0  0  0  1  0  0  0  0  0  0
  161.5700  203.3840  148.3990 N   0  0  0  0  0  0  0  0  0  0  0  0
  160.5450  202.1900  150.2310 C   0  0  0  0  0  2  0  0  0  0  0  0
  2 10  1  1  0  0  0
  2  9  1  0  0  0  0
  4 14  1  0  0  0  0
  5 10  2  0  0  0  0
  7 12  1  0  0  0  0
  8  7  1  0  0  0  0
  9 23  1  0  0  0  0
  9  3  2  0  0  0  0
 10  8  1  0  0  0  0
 11  1  1  6  0  0  0
 11  5  1  0  0  0  0
 11  4  1  0  0  0  0
 12  3  1  0  0  0  0
 13  4  2  0  0  0  0
 14  2  1  0  0  0  0
 14  6  2  0  0  0  0
 15 18  2  0  0  0  0
 17 26  1  6  0  0  0
 17 24  1  0  0  0  0
 18 20  1  0  0  0  0
 18 19  1  0  0  0  0
 19 24  1  0  0  0  0
 20 23  1  0  0  0  0
 21 25  1  0  0  0  0
 21 19  1  0  0  0  0
 23 22  2  0  0  0  0
 24 22  1  6  0  0  0
 25 17  1  0  0  0  0
 25 16  1  1  0  0  0
 26 27  1  1  0  0  0
 28 26  1  0  0  0  0
 29 28  2  0  0  0  0
 30 31  1  0  0  0  0
 31 29  1  0  0  0  0
 32 13  1  0  0  0  0
 33 32  1  0  0  0  0
 34 36  1  1  0  0  0
 34 40  1  0  0  0  0
 35 37  1  0  0  0  0
 37 33  1  1  0  0  0
 38 39  1  0  0  0  0
 39 34  1  0  0  0  0
 39 35  1  0  0  0  0
 40 37  1  0  0  0  0
M  END
>  <MODEL>
4

>  <REMARK>
 VINA RESULT:      -4.6      3.309      8.365
  Name = 
  7 active torsions:
  status: ('A' for Active; 'I' for Inactive)
    1  A    between atoms: C_10  and  C_20
    2  A    between atoms: N_15  and  C_20
    3  A    between atoms: C_21  and  C_26
    4  A    between atoms: C_22  and  C_31
    5  A    between atoms: C_22  and  C_38
    6  A    between atoms: C_27  and  C_31
    7  A    between atoms: C_33  and  C_35
                            x       y       z     vdW  Elec       q    Type
                         _______ _______ _______ _____ _____    ______ ____

>  <TORSDO>
F 7

$$$$
=
 OpenBabel11052410363D

 40 44  0  0  1  0  0  0  0  0999 V2000
  157.4330  210.4020  154.4130 C   0  0  0  0  0  1  0  0  0  0  0  0
  160.0350  208.1720  154.1430 C   0  0  1  0  0  3  0  0  0  0  0  0
  161.9640  206.7150  154.8240 C   0  0  0  0  0  3  0  0  0  0  0  0
  159.8900  210.7230  154.1490 C   0  0  0  0  0  0  0  0  0  0  0  0
  158.9830  209.3950  155.9940 N   0  0  0  0  0  0  0  0  0  0  0  0
  161.4580  209.5670  152.7780 O   0  0  0  0  0  0  0  0  0  0  0  0
  161.0640  207.1150  157.1010 N   0  0  0  0  0  2  0  0  0  0  0  0
  159.7060  207.1580  156.5340 C   0  0  0  0  0  2  0  0  0  0  0  0
  161.0210  207.0320  153.9180 C   0  0  0  0  0  0  0  0  0  0  0  0
  159.5190  208.2950  155.5710 C   0  0  0  0  0  0  0  0  0  0  0  0
  158.7610  210.5520  155.1420 C   0  0  2  0  0  3  0  0  0  0  0  0
  162.1250  207.4400  156.1310 C   0  0  0  0  0  2  0  0  0  0  0  0
  160.2860  211.9290  153.7220 C   0  0  0  0  0  3  0  0  0  0  0  0
  160.5390  209.5020  153.6400 C   0  0  0  0  0  0  0  0  0  0  0  0
  161.7940  202.9350  151.4460 O   0  0  0  0  0  0  0  0  0  0  0  0
  160.4420  205.3380  147.0090 C   0  0  0  0  0  1  0  0  0  0  0  0
  160.9570  206.8120  148.9520 C   0  0  2  0  0  3  0  0  0  0  0  0
  161.4030  204.1330  151.4460 C   0  0  0  0  0  0  0  0  0  0  0  0
  161.1170  204.8130  150.2240 N   0  0  0  0  0  0  0  0  0  0  0  0
  161.2830  204.8530  152.6710 N   0  0  0  0  0  2  0  0  0  0  0  0
  161.7290  204.4800  148.9540 C   0  0  0  0  0  2  0  0  0  0  0  0
  160.6050  206.8560  151.5140 C   0  0  0  0  0  3  0  0  0  0  0  0
  160.9540  206.2530  152.6620 C   0  0  0  0  0  0  0  0  0  0  0  0
  160.4530  206.1020  150.2130 C   0  0  1  0  0  3  0  0  0  0  0  0
  161.4880  205.6880  148.0510 C   0  0  1  0  0  3  0  0  0  0  0  0
  162.0210  207.8990  149.2160 C   0  0  1  0  0  3  0  0  0  0  0  0
  163.4210  207.5470  148.7150 C   0  0  0  0  0  1  0  0  0  0  0  0
  161.5970  209.2010  148.7480 N   0  0  0  0  0  0  0  0  0  0  0  0
  162.3610  210.2360  148.8000 C   0  0  0  0  0  3  0  0  0  0  0  0
  161.3740  212.3070  149.3680 O   0  0  0  0  0  1  0  0  0  0  0  0
  161.8730  211.5550  148.3030 C   0  0  0  0  0  2  0  0  0  0  0  0
  159.6790  213.2200  154.1820 C   0  0  0  0  0  2  0  0  0  0  0  0
  158.6500  213.7430  153.1860 C   0  0  0  0  0  2  0  0  0  0  0  0
  156.1440  214.3250  155.8760 C   0  0  2  0  0  3  0  0  0  0  0  0
  155.9230  213.7670  153.3110 S   0  0  0  0  0  0  0  0  0  0  0  0
  156.0300  213.6890  157.2500 C   0  0  0  0  0  1  0  0  0  0  0  0
  157.4990  214.4410  153.8950 C   0  0  1  0  0  3  0  0  0  0  0  0
  154.0090  214.4460  154.9220 C   0  0  0  0  0  1  0  0  0  0  0  0
  155.2360  213.6680  154.9440 N   0  0  0  0  0  0  0  0  0  0  0  0
  157.5580  214.1730  155.3740 C   0  0  0  0  0  2  0  0  0  0  0  0
  2 14  1  1  0  0  0
  2 10  1  0  0  0  0
  3 12  1  0  0  0  0
  4 11  1  0  0  0  0
  6 14  2  0  0  0  0
  8  7  1  0  0  0  0
  9  2  1  0  0  0  0
  9  3  2  0  0  0  0
 10  5  2  0  0  0  0
 10  8  1  0  0  0  0
 11  1  1  6  0  0  0
 11  5  1  0  0  0  0
 12  7  1  0  0  0  0
 13  4  2  0  0  0  0
 13 32  1  0  0  0  0
 14  4  1  0  0  0  0
 15 18  2  0  0  0  0
 17 26  1  1  0  0  0
 17 24  1  0  0  0  0
 18 20  1  0  0  0  0
 19 18  1  0  0  0  0
 21 19  1  0  0  0  0
 22 23  2  0  0  0  0
 23 20  1  0  0  0  0
 23  9  1  0  0  0  0
 24 19  1  0  0  0  0
 24 22  1  1  0  0  0
 25 16  1  6  0  0  0
 25 17  1  0  0  0  0
 25 21  1  0  0  0  0
 26 27  1  6  0  0  0
 28 29  2  0  0  0  0
 28 26  1  0  0  0  0
 31 29  1  0  0  0  0
 31 30  1  0  0  0  0
 33 32  1  0  0  0  0
 34 36  1  1  0  0  0
 35 37  1  0  0  0  0
 35 39  1  0  0  0  0
 37 33  1  6  0  0  0
 37 40  1  0  0  0  0
 38 39  1  0  0  0  0
 39 34  1  0  0  0  0
 40 34  1  0  0  0  0
M  END
>  <MODEL>
5

>  <REMARK>
 VINA RESULT:      -3.5      2.111      3.308
  Name = 
  7 active torsions:
  status: ('A' for Active; 'I' for Inactive)
    1  A    between atoms: C_10  and  C_20
    2  A    between atoms: N_15  and  C_20
    3  A    between atoms: C_21  and  C_26
    4  A    between atoms: C_22  and  C_31
    5  A    between atoms: C_22  and  C_38
    6  A    between atoms: C_27  and  C_31
    7  A    between atoms: C_33  and  C_35
                            x       y       z     vdW  Elec       q    Type
                         _______ _______ _______ _____ _____    ______ ____

>  <TORSDO>
F 7

$$$$
=
 OpenBabel11052410363D

 40 44  0  0  1  0  0  0  0  0999 V2000
  158.8910  203.8500  150.3840 C   0  0  0  0  0  1  0  0  0  0  0  0
  160.9580  206.4670  151.2190 C   0  0  1  0  0  3  0  0  0  0  0  0
  162.6550  208.2990  150.9570 C   0  0  0  0  0  3  0  0  0  0  0  0
  161.3000  203.9420  151.0160 C   0  0  0  0  0  0  0  0  0  0  0  0
  160.4360  205.2620  149.1440 N   0  0  0  0  0  0  0  0  0  0  0  0
  162.4050  205.2190  152.6960 O   0  0  0  0  0  0  0  0  0  0  0  0
  162.1860  207.9680  148.5440 N   0  0  0  0  0  2  0  0  0  0  0  0
  160.7940  207.6320  148.8810 C   0  0  0  0  0  2  0  0  0  0  0  0
  161.6680  207.7350  151.6770 C   0  0  0  0  0  0  0  0  0  0  0  0
  160.6870  206.3930  149.7220 C   0  0  0  0  0  0  0  0  0  0  0  0
  160.3150  204.0070  149.8690 C   0  0  2  0  0  3  0  0  0  0  0  0
  163.1380  207.7430  149.6460 C   0  0  0  0  0  2  0  0  0  0  0  0
  161.8500  202.7890  151.4190 C   0  0  0  0  0  3  0  0  0  0  0  0
  161.6260  205.2040  151.7050 C   0  0  0  0  0  0  0  0  0  0  0  0
  159.7830  207.4220  156.1300 O   0  0  0  0  0  0  0  0  0  0  0  0
  159.9520  212.6230  156.5860 C   0  0  0  0  0  1  0  0  0  0  0  0
  160.1990  211.7070  154.2820 C   0  0  2  0  0  3  0  0  0  0  0  0
  160.2700  208.1410  155.2180 C   0  0  0  0  0  0  0  0  0  0  0  0
  160.2370  209.5660  155.3080 N   0  0  0  0  0  0  0  0  0  0  0  0
  160.8280  207.5440  154.0490 N   0  0  0  0  0  2  0  0  0  0  0  0
  159.2390  210.3030  156.0540 C   0  0  0  0  0  2  0  0  0  0  0  0
  161.3150  209.7010  153.0900 C   0  0  0  0  0  3  0  0  0  0  0  0
  161.2730  208.3660  152.9560 C   0  0  0  0  0  0  0  0  0  0  0  0
  160.9900  210.3990  154.3900 C   0  0  1  0  0  3  0  0  0  0  0  0
  159.3110  211.7380  155.5340 C   0  0  1  0  0  3  0  0  0  0  0  0
  159.3770  211.8480  152.9820 C   0  0  1  0  0  3  0  0  0  0  0  0
  157.9360  212.3100  153.1930 C   0  0  0  0  0  1  0  0  0  0  0  0
  160.0580  212.6550  151.9920 N   0  0  0  0  0  0  0  0  0  0  0  0
  159.4270  213.4150  151.1680 C   0  0  0  0  0  3  0  0  0  0  0  0
  160.9050  213.3840  149.3240 O   0  0  0  0  0  1  0  0  0  0  0  0
  160.1780  214.2260  150.1670 C   0  0  0  0  0  2  0  0  0  0  0  0
  161.5720  201.4620  150.7800 C   0  0  0  0  0  2  0  0  0  0  0  0
  162.1860  201.3690  149.3890 C   0  0  0  0  0  2  0  0  0  0  0  0
  160.8340  199.7920  146.3000 C   0  0  2  0  0  3  0  0  0  0  0  0
  161.1000  202.3000  147.0620 S   0  0  0  0  0  0  0  0  0  0  0  0
  161.4580  198.7490  145.3900 C   0  0  0  0  0  1  0  0  0  0  0  0
  161.1370  201.0190  148.3430 C   0  0  1  0  0  3  0  0  0  0  0  0
  159.8250  201.4390  144.9770 C   0  0  0  0  0  1  0  0  0  0  0  0
  161.0220  201.1230  145.7370 N   0  0  0  0  0  0  0  0  0  0  0  0
  161.4980  199.7330  147.6530 C   0  0  0  0  0  2  0  0  0  0  0  0
  2 10  1  6  0  0  0
  2  9  1  0  0  0  0
  2 14  1  0  0  0  0
  3  9  2  0  0  0  0
  4 13  2  0  0  0  0
  4 14  1  0  0  0  0
  5 10  2  0  0  0  0
  5 11  1  0  0  0  0
  7  8  1  0  0  0  0
  7 12  1  0  0  0  0
  8 10  1  0  0  0  0
  9 23  1  0  0  0  0
 11  1  1  1  0  0  0
 11  4  1  0  0  0  0
 12  3  1  0  0  0  0
 14  6  2  0  0  0  0
 17 26  1  6  0  0  0
 17 24  1  0  0  0  0
 17 25  1  0  0  0  0
 18 19  1  0  0  0  0
 18 15  2  0  0  0  0
 19 21  1  0  0  0  0
 20 18  1  0  0  0  0
 23 22  2  0  0  0  0
 23 20  1  0  0  0  0
 24 22  1  6  0  0  0
 24 19  1  0  0  0  0
 25 21  1  0  0  0  0
 25 16  1  1  0  0  0
 26 27  1  1  0  0  0
 28 26  1  0  0  0  0
 29 28  2  0  0  0  0
 30 31  1  0  0  0  0
 31 29  1  0  0  0  0
 32 13  1  0  0  0  0
 33 32  1  0  0  0  0
 34 36  1  6  0  0  0
 34 40  1  0  0  0  0
 35 37  1  0  0  0  0
 37 33  1  1  0  0  0
 38 39  1  0  0  0  0
 39 34  1  0  0  0  0
 39 35  1  0  0  0  0
 40 37  1  0  0  0  0
M  END
>  <MODEL>
6

>  <REMARK>
 VINA RESULT:      -3.4      3.431      8.801
  Name = 
  7 active torsions:
  status: ('A' for Active; 'I' for Inactive)
    1  A    between atoms: C_10  and  C_20
    2  A    between atoms: N_15  and  C_20
    3  A    between atoms: C_21  and  C_26
    4  A    between atoms: C_22  and  C_31
    5  A    between atoms: C_22  and  C_38
    6  A    between atoms: C_27  and  C_31
    7  A    between atoms: C_33  and  C_35
                            x       y       z     vdW  Elec       q    Type
                         _______ _______ _______ _____ _____    ______ ____

>  <TORSDO>
F 7

$$$$
=
 OpenBabel11052410363D

 40 44  0  0  1  0  0  0  0  0999 V2000
  160.0780  206.3180  149.2880 C   0  0  0  0  0  1  0  0  0  0  0  0
  160.7140  209.0600  151.2610 C   0  0  1  0  0  3  0  0  0  0  0  0
  161.9580  210.9960  152.2660 C   0  0  0  0  0  3  0  0  0  0  0  0
  161.2000  206.5620  151.5000 C   0  0  0  0  0  0  0  0  0  0  0  0
  161.9690  207.8260  149.5490 N   0  0  0  0  0  0  0  0  0  0  0  0
  160.6230  207.9060  153.3810 O   0  0  0  0  0  0  0  0  0  0  0  0
  163.4650  210.6370  150.3290 N   0  0  0  0  0  2  0  0  0  0  0  0
  162.3030  210.2140  149.5310 C   0  0  0  0  0  2  0  0  0  0  0  0
  160.7900  210.3710  152.0350 C   0  0  0  0  0  0  0  0  0  0  0  0
  161.6570  208.9700  150.0670 C   0  0  0  0  0  0  0  0  0  0  0  0
  161.4000  206.5650  150.0000 C   0  0  2  0  0  3  0  0  0  0  0  0
  163.2820  210.4720  151.7820 C   0  0  0  0  0  2  0  0  0  0  0  0
  161.3130  205.4460  152.2320 C   0  0  0  0  0  3  0  0  0  0  0  0
  160.8480  207.8420  152.1410 C   0  0  0  0  0  0  0  0  0  0  0  0
  157.1670  213.5700  151.6680 O   0  0  0  0  0  0  0  0  0  0  0  0
  155.4980  212.2520  156.4390 C   0  0  0  0  0  1  0  0  0  0  0  0
  157.8080  211.5340  155.8400 C   0  0  2  0  0  3  0  0  0  0  0  0
  157.7320  212.6570  152.3280 C   0  0  0  0  0  0  0  0  0  0  0  0
  157.3290  212.3580  153.6640 N   0  0  0  0  0  0  0  0  0  0  0  0
  158.8240  211.9310  151.7660 N   0  0  0  0  0  2  0  0  0  0  0  0
  156.7160  213.3210  154.5550 C   0  0  0  0  0  2  0  0  0  0  0  0
  159.1020  210.6430  153.7840 C   0  0  0  0  0  3  0  0  0  0  0  0
  159.5460  210.9740  152.5610 C   0  0  0  0  0  0  0  0  0  0  0  0
  157.8050  211.1730  154.3500 C   0  0  1  0  0  3  0  0  0  0  0  0
  156.8550  212.7320  155.9580 C   0  0  1  0  0  3  0  0  0  0  0  0
  159.2070  211.8460  156.4150 C   0  0  1  0  0  3  0  0  0  0  0  0
  159.2730  213.1160  157.2610 C   0  0  0  0  0  1  0  0  0  0  0  0
  159.7750  210.7100  157.1090 N   0  0  0  0  0  0  0  0  0  0  0  0
  160.3820  209.7570  156.4930 C   0  0  0  0  0  3  0  0  0  0  0  0
  162.3010  208.4540  156.9470 O   0  0  0  0  0  1  0  0  0  0  0  0
  160.9490  208.6090  157.2580 C   0  0  0  0  0  2  0  0  0  0  0  0
  161.6610  204.1050  151.6620 C   0  0  0  0  0  2  0  0  0  0  0  0
  160.6470  203.6600  150.6140 C   0  0  0  0  0  2  0  0  0  0  0  0
  161.5670  202.6800  147.1430 C   0  0  2  0  0  3  0  0  0  0  0  0
  160.2050  201.4690  149.0460 S   0  0  0  0  0  0  0  0  0  0  0  0
  161.3820  203.4360  145.8390 C   0  0  0  0  0  1  0  0  0  0  0  0
  161.3060  202.8240  149.5270 C   0  0  1  0  0  3  0  0  0  0  0  0
  160.9870  200.4370  146.8010 C   0  0  0  0  0  1  0  0  0  0  0  0
  160.4960  201.7050  147.3120 N   0  0  0  0  0  0  0  0  0  0  0  0
  161.5300  203.6540  148.2930 C   0  0  0  0  0  2  0  0  0  0  0  0
  2 10  1  6  0  0  0
  2  9  1  0  0  0  0
  2 14  1  0  0  0  0
  4 14  1  0  0  0  0
  4 13  2  0  0  0  0
  5 11  1  0  0  0  0
  5 10  2  0  0  0  0
  7 12  1  0  0  0  0
  8 10  1  0  0  0  0
  8  7  1  0  0  0  0
  9  3  2  0  0  0  0
  9 23  1  0  0  0  0
 11  1  1  6  0  0  0
 11  4  1  0  0  0  0
 12  3  1  0  0  0  0
 14  6  2  0  0  0  0
 15 18  2  0  0  0  0
 17 25  1  0  0  0  0
 17 26  1  6  0  0  0
 18 19  1  0  0  0  0
 19 24  1  0  0  0  0
 19 21  1  0  0  0  0
 20 18  1  0  0  0  0
 20 23  1  0  0  0  0
 21 25  1  0  0  0  0
 23 22  2  0  0  0  0
 24 22  1  6  0  0  0
 24 17  1  0  0  0  0
 25 16  1  6  0  0  0
 26 28  1  0  0  0  0
 26 27  1  1  0  0  0
 29 28  2  0  0  0  0
 29 31  1  0  0  0  0
 30 31  1  0  0  0  0
 32 13  1  0  0  0  0
 33 32  1  0  0  0  0
 34 36  1  6  0  0  0
 34 39  1  0  0  0  0
 34 40  1  0  0  0  0
 35 37  1  0  0  0  0
 37 33  1  1  0  0  0
 38 39  1  0  0  0  0
 39 35  1  0  0  0  0
 40 37  1  0  0  0  0
M  END
>  <MODEL>
7

>  <REMARK>
 VINA RESULT:      -3.3      3.315      8.756
  Name = 
  7 active torsions:
  status: ('A' for Active; 'I' for Inactive)
    1  A    between atoms: C_10  and  C_20
    2  A    between atoms: N_15  and  C_20
    3  A    between atoms: C_21  and  C_26
    4  A    between atoms: C_22  and  C_31
    5  A    between atoms: C_22  and  C_38
    6  A    between atoms: C_27  and  C_31
    7  A    between atoms: C_33  and  C_35
                            x       y       z     vdW  Elec       q    Type
                         _______ _______ _______ _____ _____    ______ ____

>  <TORSDO>
F 7

$$$$
=
 OpenBabel11052410363D

 40 44  0  0  1  0  0  0  0  0999 V2000
  160.2350  206.6210  149.9590 C   0  0  0  0  0  1  0  0  0  0  0  0
  160.7340  208.9830  152.4060 C   0  0  1  0  0  3  0  0  0  0  0  0
  161.9050  210.7100  153.8030 C   0  0  0  0  0  3  0  0  0  0  0  0
  161.2100  206.4770  152.2480 C   0  0  0  0  0  0  0  0  0  0  0  0
  162.1010  208.0460  150.5940 N   0  0  0  0  0  0  0  0  0  0  0  0
  160.5090  207.4870  154.2890 O   0  0  0  0  0  0  0  0  0  0  0  0
  163.5350  210.6730  151.9350 N   0  0  0  0  0  2  0  0  0  0  0  0
  162.4290  210.4000  151.0030 C   0  0  0  0  0  2  0  0  0  0  0  0
  160.7560  210.1430  153.3950 C   0  0  0  0  0  0  0  0  0  0  0  0
  161.7530  209.0890  151.2780 C   0  0  0  0  0  0  0  0  0  0  0  0
  161.5080  206.7320  150.7870 C   0  0  2  0  0  3  0  0  0  0  0  0
  163.2580  210.2650  153.3230 C   0  0  0  0  0  2  0  0  0  0  0  0
  161.2780  205.2520  152.7860 C   0  0  0  0  0  3  0  0  0  0  0  0
  160.8140  207.6330  153.0740 C   0  0  0  0  0  0  0  0  0  0  0  0
  156.4490  209.3930  155.4860 O   0  0  0  0  0  0  0  0  0  0  0  0
  155.2200  214.4230  154.7990 C   0  0  0  0  0  1  0  0  0  0  0  0
  157.1520  213.5680  153.4780 C   0  0  2  0  0  3  0  0  0  0  0  0
  157.2720  210.2020  154.9810 C   0  0  0  0  0  0  0  0  0  0  0  0
  156.9030  211.5560  154.7150 N   0  0  0  0  0  0  0  0  0  0  0  0
  158.5810  209.7680  154.6200 N   0  0  0  0  0  2  0  0  0  0  0  0
  155.5460  211.9840  154.4510 C   0  0  0  0  0  2  0  0  0  0  0  0
  159.1500  211.9500  153.7690 C   0  0  0  0  0  3  0  0  0  0  0  0
  159.4780  210.6590  153.9340 C   0  0  0  0  0  0  0  0  0  0  0  0
  157.8940  212.5520  154.3540 C   0  0  1  0  0  3  0  0  0  0  0  0
  155.6670  213.3650  153.8080 C   0  0  1  0  0  3  0  0  0  0  0  0
  157.4370  213.4310  151.9670 C   0  0  1  0  0  3  0  0  0  0  0  0
  156.3450  214.0030  151.0640 C   0  0  0  0  0  1  0  0  0  0  0  0
  158.7450  213.9370  151.6110 N   0  0  0  0  0  0  0  0  0  0  0  0
  159.3140  213.6540  150.4920 C   0  0  0  0  0  3  0  0  0  0  0  0
  161.1090  213.6930  148.9550 O   0  0  0  0  0  1  0  0  0  0  0  0
  160.6640  214.2030  150.1760 C   0  0  0  0  0  2  0  0  0  0  0  0
  161.6660  204.0240  152.0210 C   0  0  0  0  0  2  0  0  0  0  0  0
  160.6200  203.6610  150.9730 C   0  0  0  0  0  2  0  0  0  0  0  0
  161.5580  203.0860  147.4180 C   0  0  2  0  0  3  0  0  0  0  0  0
  160.0660  201.7360  149.1180 S   0  0  0  0  0  0  0  0  0  0  0  0
  161.4610  204.0200  146.2250 C   0  0  0  0  0  1  0  0  0  0  0  0
  161.2470  202.9310  149.7950 C   0  0  1  0  0  3  0  0  0  0  0  0
  160.8320  200.9560  146.7680 C   0  0  0  0  0  1  0  0  0  0  0  0
  160.4180  202.1780  147.4370 N   0  0  0  0  0  0  0  0  0  0  0  0
  161.5600  203.8990  148.6870 C   0  0  0  0  0  2  0  0  0  0  0  0
  2 10  1  6  0  0  0
  2 14  1  0  0  0  0
  2  9  1  0  0  0  0
  4 13  2  0  0  0  0
  4 14  1  0  0  0  0
  5 11  1  0  0  0  0
  5 10  2  0  0  0  0
  7 12  1  0  0  0  0
  8 10  1  0  0  0  0
  8  7  1  0  0  0  0
  9  3  2  0  0  0  0
  9 23  1  0  0  0  0
 11  1  1  6  0  0  0
 11  4  1  0  0  0  0
 12  3  1  0  0  0  0
 14  6  2  0  0  0  0
 17 26  1  6  0  0  0
 17 25  1  0  0  0  0
 17 24  1  0  0  0  0
 18 15  2  0  0  0  0
 19 18  1  0  0  0  0
 20 18  1  0  0  0  0
 21 19  1  0  0  0  0
 22 23  2  0  0  0  0
 23 20  1  0  0  0  0
 24 22  1  6  0  0  0
 24 19  1  0  0  0  0
 25 21  1  0  0  0  0
 25 16  1  1  0  0  0
 26 27  1  6  0  0  0
 28 26  1  0  0  0  0
 29 28  2  0  0  0  0
 30 31  1  0  0  0  0
 31 29  1  0  0  0  0
 32 13  1  0  0  0  0
 33 32  1  0  0  0  0
 34 36  1  6  0  0  0
 34 39  1  0  0  0  0
 34 40  1  0  0  0  0
 35 37  1  0  0  0  0
 37 33  1  1  0  0  0
 38 39  1  0  0  0  0
 39 35  1  0  0  0  0
 40 37  1  0  0  0  0
M  END
>  <MODEL>
8

>  <REMARK>
 VINA RESULT:      -3.0      3.015      8.003
  Name = 
  7 active torsions:
  status: ('A' for Active; 'I' for Inactive)
    1  A    between atoms: C_10  and  C_20
    2  A    between atoms: N_15  and  C_20
    3  A    between atoms: C_21  and  C_26
    4  A    between atoms: C_22  and  C_31
    5  A    between atoms: C_22  and  C_38
    6  A    between atoms: C_27  and  C_31
    7  A    between atoms: C_33  and  C_35
                            x       y       z     vdW  Elec       q    Type
                         _______ _______ _______ _____ _____    ______ ____

>  <TORSDO>
F 7

$$$$
=
 OpenBabel11052410363D

 40 44  0  0  1  0  0  0  0  0999 V2000
  158.7130  204.0340  150.4560 C   0  0  0  0  0  1  0  0  0  0  0  0
  160.9110  206.5130  151.3690 C   0  0  1  0  0  3  0  0  0  0  0  0
  162.7060  208.2570  151.1640 C   0  0  0  0  0  3  0  0  0  0  0  0
  161.1190  203.9800  151.1050 C   0  0  0  0  0  0  0  0  0  0  0  0
  160.3410  205.3910  149.2610 N   0  0  0  0  0  0  0  0  0  0  0  0
  162.2780  205.1530  152.8240 O   0  0  0  0  0  0  0  0  0  0  0  0
  162.2400  208.0120  148.7410 N   0  0  0  0  0  2  0  0  0  0  0  0
  160.8280  207.7440  149.0610 C   0  0  0  0  0  2  0  0  0  0  0  0
  161.6850  207.7300  151.8630 C   0  0  0  0  0  0  0  0  0  0  0  0
  160.6480  206.4910  149.8690 C   0  0  0  0  0  0  0  0  0  0  0  0
  160.1470  204.1260  149.9540 C   0  0  2  0  0  3  0  0  0  0  0  0
  163.1690  207.7090  149.8430 C   0  0  0  0  0  2  0  0  0  0  0  0
  161.6030  202.7890  151.4820 C   0  0  0  0  0  3  0  0  0  0  0  0
  161.5070  205.2050  151.8270 C   0  0  0  0  0  0  0  0  0  0  0  0
  159.6850  207.4280  156.2670 O   0  0  0  0  0  0  0  0  0  0  0  0
  160.2640  212.5810  156.9020 C   0  0  0  0  0  1  0  0  0  0  0  0
  160.4860  211.7230  154.5730 C   0  0  2  0  0  3  0  0  0  0  0  0
  160.2490  208.1340  155.3890 C   0  0  0  0  0  0  0  0  0  0  0  0
  160.3280  209.5530  155.5260 N   0  0  0  0  0  0  0  0  0  0  0  0
  160.7810  207.5320  154.2110 N   0  0  0  0  0  2  0  0  0  0  0  0
  159.3770  210.3440  156.2780 C   0  0  0  0  0  2  0  0  0  0  0  0
  161.4610  209.6710  153.3350 C   0  0  0  0  0  3  0  0  0  0  0  0
  161.3150  208.3490  153.1550 C   0  0  0  0  0  0  0  0  0  0  0  0
  161.1660  210.3510  154.6510 C   0  0  1  0  0  3  0  0  0  0  0  0
  159.5760  211.7840  155.8080 C   0  0  1  0  0  3  0  0  0  0  0  0
  159.7060  211.9710  153.2630 C   0  0  1  0  0  3  0  0  0  0  0  0
  158.9130  210.7650  152.7620 C   0  0  0  0  0  1  0  0  0  0  0  0
  158.8830  213.1600  153.3370 N   0  0  0  0  0  0  0  0  0  0  0  0
  157.6660  213.1840  152.9200 C   0  0  0  0  0  3  0  0  0  0  0  0
  155.8820  214.4510  152.0270 O   0  0  0  0  0  1  0  0  0  0  0  0
  156.8630  214.4370  153.0200 C   0  0  0  0  0  2  0  0  0  0  0  0
  161.2580  201.4960  150.8090 C   0  0  0  0  0  2  0  0  0  0  0  0
  161.9720  201.3520  149.4700 C   0  0  0  0  0  2  0  0  0  0  0  0
  160.7630  199.9740  146.2310 C   0  0  2  0  0  3  0  0  0  0  0  0
  161.1100  202.4320  147.1150 S   0  0  0  0  0  0  0  0  0  0  0  0
  161.3930  198.9320  145.3230 C   0  0  0  0  0  1  0  0  0  0  0  0
  160.9850  201.1030  148.3400 C   0  0  1  0  0  3  0  0  0  0  0  0
  159.9450  201.7260  144.9100 C   0  0  0  0  0  1  0  0  0  0  0  0
  161.0640  201.3130  145.7390 N   0  0  0  0  0  0  0  0  0  0  0  0
  161.3230  199.8250  147.6230 C   0  0  0  0  0  2  0  0  0  0  0  0
  2 10  1  6  0  0  0
  2 14  1  0  0  0  0
  2  9  1  0  0  0  0
  3  9  2  0  0  0  0
  4 13  2  0  0  0  0
  4 14  1  0  0  0  0
  5 10  2  0  0  0  0
  5 11  1  0  0  0  0
  7  8  1  0  0  0  0
  7 12  1  0  0  0  0
  8 10  1  0  0  0  0
  9 23  1  0  0  0  0
 11  1  1  1  0  0  0
 11  4  1  0  0  0  0
 12  3  1  0  0  0  0
 14  6  2  0  0  0  0
 17 26  1  6  0  0  0
 17 24  1  0  0  0  0
 17 25  1  0  0  0  0
 18 19  1  0  0  0  0
 18 15  2  0  0  0  0
 19 21  1  0  0  0  0
 20 18  1  0  0  0  0
 23 22  2  0  0  0  0
 23 20  1  0  0  0  0
 24 22  1  6  0  0  0
 24 19  1  0  0  0  0
 25 21  1  0  0  0  0
 25 16  1  1  0  0  0
 26 27  1  1  0  0  0
 26 28  1  0  0  0  0
 29 31  1  0  0  0  0
 29 28  2  0  0  0  0
 30 31  1  0  0  0  0
 32 13  1  0  0  0  0
 33 32  1  0  0  0  0
 34 36  1  6  0  0  0
 34 40  1  0  0  0  0
 35 37  1  0  0  0  0
 37 33  1  1  0  0  0
 38 39  1  0  0  0  0
 39 34  1  0  0  0  0
 39 35  1  0  0  0  0
 40 37  1  0  0  0  0
M  END
>  <MODEL>
9

>  <REMARK>
 VINA RESULT:      -2.1      3.509      8.909
  Name = 
  7 active torsions:
  status: ('A' for Active; 'I' for Inactive)
    1  A    between atoms: C_10  and  C_20
    2  A    between atoms: N_15  and  C_20
    3  A    between atoms: C_21  and  C_26
    4  A    between atoms: C_22  and  C_31
    5  A    between atoms: C_22  and  C_38
    6  A    between atoms: C_27  and  C_31
    7  A    between atoms: C_33  and  C_35
                            x       y       z     vdW  Elec       q    Type
                         _______ _______ _______ _____ _____    ______ ____

>  <TORSDO>
F 7

$$$$
