=
 OpenBabel11052410253D

 36 41  0  0  1  0  0  0  0  0999 V2000
  161.3700  208.6220  150.7920 C   0  0  0  0  0  0  0  0  0  0  0  0
  162.3020  211.8060  148.6280 C   0  0  0  0  0  0  0  0  0  0  0  0
  161.3290  207.4170  150.1610 N   0  0  0  0  0  0  0  0  0  0  0  0
  161.2180  206.4820  151.1300 C   0  0  0  0  0  0  0  0  0  0  0  0
  160.9520  210.7950  153.0520 C   0  0  0  0  0  0  0  0  0  0  0  0
  160.5320  211.4450  151.8390 N   0  0  0  0  0  0  0  0  0  0  0  0
  159.0810  212.9910  150.8230 O   0  0  0  0  0  0  0  0  0  0  0  0
  159.4610  212.4140  151.8770 C   0  0  0  0  0  0  0  0  0  0  0  0
  161.0120  211.4030  154.2520 N   0  0  0  0  0  0  0  0  0  0  0  0
  161.3620  210.4090  155.0990 C   0  0  0  0  0  3  0  0  0  0  0  0
  160.9670  206.2970  153.5900 C   0  0  0  0  0  3  0  0  0  0  0  0
  161.2450  211.1990  150.6080 C   0  0  0  0  0  0  0  0  0  0  0  0
  160.9620  205.0130  150.9540 C   0  0  0  0  0  2  0  0  0  0  0  0
  161.3880  204.2480  152.2240 C   0  0  0  0  0  2  0  0  0  0  0  0
  161.2530  209.4670  153.2040 C   0  0  0  0  0  0  0  0  0  0  0  0
  161.4990  209.2580  154.4720 O   0  0  0  0  0  0  0  0  0  0  0  0
  161.5920  209.9270  150.1270 C   0  0  0  0  0  0  0  0  0  0  0  0
  161.6170  212.2480  149.7460 C   0  0  0  0  0  3  0  0  0  0  0  0
  158.7790  212.7000  153.0960 N   0  0  0  0  0  1  0  0  0  0  0  0
  161.1780  207.0720  152.3620 C   0  0  0  0  0  0  0  0  0  0  0  0
  162.3600  210.1270  148.6400 S   0  0  0  0  0  0  0  0  0  0  0  0
  161.2650  208.4350  152.1660 C   0  0  0  0  0  0  0  0  0  0  0  0
  161.0160  204.9610  153.5120 C   0  0  0  0  0  3  0  0  0  0  0  0
  161.5420  214.4530  144.6110 C   0  0  0  0  0  3  0  0  0  0  0  0
  158.3990  212.6310  145.0770 C   0  0  0  0  0  1  0  0  0  0  0  0
  160.5050  212.5660  146.3350 C   0  0  0  0  0  0  0  0  0  0  0  0
  160.0200  211.6480  147.0510 O   0  0  0  0  0  0  0  0  0  0  0  0
  160.2740  213.9950  144.4770 N   0  0  0  0  0  0  0  0  0  0  0  0
  162.6130  212.6370  147.5030 N   0  0  0  0  0  2  0  0  0  0  0  0
  161.8240  213.0410  146.5450 C   0  0  0  0  0  0  0  0  0  0  0  0
  159.7630  213.0830  145.3070 N   0  0  0  0  0  0  0  0  0  0  0  0
  162.3350  213.9760  145.6480 C   0  0  0  0  0  3  0  0  0  0  0  0
  160.1200  206.3110  148.3320 C   0  0  0  0  0  1  0  0  0  0  0  0
  161.3000  207.1880  148.7150 C   0  0  2  0  0  3  0  0  0  0  0  0
  162.6100  206.5840  148.2330 C   0  0  0  0  0  2  0  0  0  0  0  0
  162.4950  206.1930  146.9120 F   0  0  0  0  0  0  0  0  0  0  0  0
  1 22  2  0  0  0  0
  2 21  1  0  0  0  0
  2 18  2  0  0  0  0
  3  1  1  0  0  0  0
  3  4  1  0  0  0  0
  4 20  2  0  0  0  0
  5 15  2  0  0  0  0
  5  9  1  0  0  0  0
  6  8  1  0  0  0  0
  6  5  1  0  0  0  0
  7  8  2  0  0  0  0
  8 19  1  0  0  0  0
  9 10  2  0  0  0  0
 12  6  1  0  0  0  0
 13  4  1  0  0  0  0
 13 14  1  0  0  0  0
 14 23  1  0  0  0  0
 15 16  1  0  0  0  0
 16 10  1  0  0  0  0
 17 12  2  0  0  0  0
 17  1  1  0  0  0  0
 18 12  1  0  0  0  0
 20 11  1  0  0  0  0
 21 17  1  0  0  0  0
 22 20  1  0  0  0  0
 22 15  1  0  0  0  0
 23 11  2  0  0  0  0
 24 32  1  0  0  0  0
 25 31  1  0  0  0  0
 26 30  1  0  0  0  0
 26 27  2  0  0  0  0
 28 24  2  0  0  0  0
 28 31  1  0  0  0  0
 29  2  1  0  0  0  0
 30 29  1  0  0  0  0
 31 26  1  0  0  0  0
 32 30  2  0  0  0  0
 34 33  1  1  0  0  0
 34  3  1  0  0  0  0
 35 34  1  0  0  0  0
 36 35  1  0  0  0  0
M  END
>  <MODEL>
1

>  <REMARK>
 VINA RESULT:      -7.7      0.000      0.000
  Name = 
  3 active torsions:
  status: ('A' for Active; 'I' for Inactive)
    1  A    between atoms: C_3  and  N_23
    2  A    between atoms: N_6  and  C_31
    3  A    between atoms: C_20  and  C_31
                            x       y       z     vdW  Elec       q    Type
                         _______ _______ _______ _____ _____    ______ ____

>  <TORSDO>
F 3

$$$$
