=
 OpenBabel11042422013D

 46 51  0  0  1  0  0  0  0  0999 V2000
  157.4050  211.2400  153.4390 O   0  0  0  0  0  1  0  0  0  0  0  0
  158.5660  211.5440  152.7390 C   0  0  0  0  0  0  0  0  0  0  0  0
  161.5030  208.6680  152.0090 C   0  0  0  0  0  2  0  0  0  0  0  0
  160.8320  212.1510  151.2810 N   0  0  0  0  0  0  0  0  0  0  0  0
  160.8270  211.0390  152.0630 C   0  0  0  0  0  0  0  0  0  0  0  0
  160.3460  209.8910  155.1390 C   0  0  1  0  0  3  0  0  0  0  0  0
  161.9990  210.1150  152.0550 C   0  0  1  0  0  3  0  0  0  0  0  0
  158.5990  212.6790  151.9310 C   0  0  0  0  0  3  0  0  0  0  0  0
  159.7520  212.9760  151.1870 C   0  0  0  0  0  0  0  0  0  0  0  0
  160.3780  208.7050  156.1190 C   0  0  0  0  0  2  0  0  0  0  0  0
  162.7910  210.3260  153.1860 O   0  0  0  0  0  1  0  0  0  0  0  0
  160.4840  208.3160  153.1150 C   0  0  1  0  0  3  0  0  0  0  0  0
  161.1440  207.3780  154.1330 C   0  0  1  0  0  3  0  0  0  0  0  0
  159.6970  210.7220  152.8320 C   0  0  0  0  0  0  0  0  0  0  0  0
  159.7390  209.5290  153.7610 C   0  0  2  0  0  3  0  0  0  0  0  0
  160.3510  207.3400  155.4320 C   0  0  0  0  0  2  0  0  0  0  0  0
  158.3330  211.1000  156.0720 C   0  0  0  0  0  3  0  0  0  0  0  0
  159.8850  213.3120  156.6800 C   0  0  0  0  0  0  0  0  0  0  0  0
  159.7050  211.0810  155.7880 C   0  0  0  0  0  0  0  0  0  0  0  0
  158.5510  213.3090  156.9440 N   0  0  0  0  0  0  0  0  0  0  0  0
  157.7630  212.2390  156.6540 C   0  0  0  0  0  0  0  0  0  0  0  0
  160.4850  212.1980  156.0910 C   0  0  0  0  0  3  0  0  0  0  0  0
  160.6710  214.4530  157.0010 N   0  0  0  0  0  1  0  0  0  0  0  0
  154.2260  213.6500  157.2610 C   0  0  0  0  0  1  0  0  0  0  0  0
  155.6810  211.2190  157.1470 O   0  0  0  0  0  0  0  0  0  0  0  0
  156.3230  212.2860  156.9430 C   0  0  0  0  0  0  0  0  0  0  0  0
  155.6480  213.5460  156.9810 N   0  0  0  0  0  2  0  0  0  0  0  0
  159.5250  214.2880  147.9550 N   0  0  0  0  0  0  0  0  0  0  0  0
  161.1480  214.2290  149.5730 C   0  0  0  0  0  3  0  0  0  0  0  0
  157.6230  214.3430  149.3440 O   0  0  0  0  0  0  0  0  0  0  0  0
  158.8740  214.2710  149.2100 C   0  0  0  0  0  0  0  0  0  0  0  0
  159.8520  214.2250  150.3440 C   0  0  1  0  0  3  0  0  0  0  0  0
  160.9130  214.2480  148.2650 C   0  0  0  0  0  0  0  0  0  0  0  0
  158.8910  214.0070  146.6770 C   0  0  0  0  0  1  0  0  0  0  0  0
  162.6350  213.0710  146.8100 C   0  0  0  0  0  1  0  0  0  0  0  0
  161.9710  214.2660  147.3010 N   0  0  0  0  0  2  0  0  0  0  0  0
  161.2460  206.0350  153.5760 N   0  0  0  0  0  2  0  0  0  0  0  0
  160.8290  204.5290  151.7020 C   0  0  0  0  0  3  0  0  0  0  0  0
  160.3950  203.0260  149.8690 O   0  0  0  0  0  1  0  0  0  0  0  0
  162.0300  207.5450  149.0000 C   0  0  0  0  0  1  0  0  0  0  0  0
  161.1890  205.0410  148.1940 O   0  0  0  0  0  0  0  0  0  0  0  0
  161.6390  206.7490  151.2450 C   0  0  0  0  0  3  0  0  0  0  0  0
  161.6130  206.4880  149.9100 N   0  0  0  0  0  0  0  0  0  0  0  0
  161.2470  205.7740  152.1700 C   0  0  0  0  0  0  0  0  0  0  0  0
  160.8090  204.2690  150.3310 C   0  0  0  0  0  0  0  0  0  0  0  0
  161.2060  205.2710  149.4350 C   0  0  0  0  0  0  0  0  0  0  0  0
  2 14  1  0  0  0  0
  2  1  1  0  0  0  0
  3  7  1  0  0  0  0
  4  5  1  0  0  0  0
  5 14  2  0  0  0  0
  6 19  1  1  0  0  0
  6 10  1  0  0  0  0
  7  5  1  0  0  0  0
  7 11  1  1  0  0  0
  8  2  2  0  0  0  0
  9  4  2  0  0  0  0
  9  8  1  0  0  0  0
 12  3  1  6  0  0  0
 12 15  1  0  0  0  0
 12 13  1  0  0  0  0
 13 37  1  6  0  0  0
 13 16  1  0  0  0  0
 15 14  1  6  0  0  0
 15  6  1  0  0  0  0
 16 10  1  0  0  0  0
 17 21  1  0  0  0  0
 18 20  1  0  0  0  0
 18 23  1  0  0  0  0
 19 17  2  0  0  0  0
 19 22  1  0  0  0  0
 21 26  1  0  0  0  0
 21 20  2  0  0  0  0
 22 18  2  0  0  0  0
 26 27  1  0  0  0  0
 26 25  2  0  0  0  0
 27 24  1  0  0  0  0
 28 33  1  0  0  0  0
 28 31  1  0  0  0  0
 29 32  1  0  0  0  0
 31 30  2  0  0  0  0
 31 32  1  0  0  0  0
 32  9  1  6  0  0  0
 33 29  2  0  0  0  0
 34 28  1  0  0  0  0
 35 36  1  0  0  0  0
 36 33  1  0  0  0  0
 38 44  1  0  0  0  0
 39 45  1  0  0  0  0
 40 43  1  0  0  0  0
 41 46  2  0  0  0  0
 42 44  2  0  0  0  0
 43 42  1  0  0  0  0
 44 37  1  0  0  0  0
 45 38  2  0  0  0  0
 46 43  1  0  0  0  0
 46 45  1  0  0  0  0
M  END
>  <MODEL>
1

>  <REMARK>
 VINA RESULT:      -8.0      0.000      0.000
  Name = 
  6 active torsions:
  status: ('A' for Active; 'I' for Inactive)
    1  A    between atoms: C_10  and  C_23
    2  A    between atoms: N_17  and  C_38
    3  A    between atoms: N_17  and  C_39
    4  A    between atoms: C_18  and  C_20
    5  A    between atoms: C_28  and  C_33
    6  A    between atoms: C_36  and  N_43
                            x       y       z     vdW  Elec       q    Type
                         _______ _______ _______ _____ _____    ______ ____

>  <TORSDO>
F 6

$$$$
=
 OpenBabel11042422013D

 46 51  0  0  1  0  0  0  0  0999 V2000
  158.3930  210.8160  153.9880 O   0  0  0  0  0  1  0  0  0  0  0  0
  159.2450  211.0830  152.9230 C   0  0  0  0  0  0  0  0  0  0  0  0
  161.0120  208.0180  150.7060 C   0  0  0  0  0  2  0  0  0  0  0  0
  160.8760  211.6360  150.7630 N   0  0  0  0  0  0  0  0  0  0  0  0
  160.9260  210.4020  151.3320 C   0  0  0  0  0  0  0  0  0  0  0  0
  161.3960  208.7400  154.1640 C   0  0  1  0  0  3  0  0  0  0  0  0
  161.7850  209.3390  150.7320 C   0  0  1  0  0  3  0  0  0  0  0  0
  159.2140  212.3410  152.3220 C   0  0  0  0  0  3  0  0  0  0  0  0
  160.0410  212.6110  151.2210 C   0  0  0  0  0  0  0  0  0  0  0  0
  161.5380  207.3890  154.8870 C   0  0  0  0  0  2  0  0  0  0  0  0
  162.9670  209.2000  151.4620 O   0  0  0  0  0  1  0  0  0  0  0  0
  160.4300  207.6020  152.0740 C   0  0  1  0  0  3  0  0  0  0  0  0
  161.2060  206.3920  152.6090 C   0  0  1  0  0  3  0  0  0  0  0  0
  160.1260  210.1040  152.4440 C   0  0  0  0  0  0  0  0  0  0  0  0
  160.2560  208.7550  153.1160 C   0  0  2  0  0  3  0  0  0  0  0  0
  160.9670  206.2090  154.1020 C   0  0  0  0  0  2  0  0  0  0  0  0
  160.0810  210.4180  155.5200 C   0  0  0  0  0  3  0  0  0  0  0  0
  162.4100  211.4040  156.6470 C   0  0  0  0  0  0  0  0  0  0  0  0
  161.3130  209.8550  155.1640 C   0  0  0  0  0  0  0  0  0  0  0  0
  161.2030  211.9370  156.9760 N   0  0  0  0  0  0  0  0  0  0  0  0
  160.0420  211.4750  156.4360 C   0  0  0  0  0  0  0  0  0  0  0  0
  162.4870  210.3550  155.7290 C   0  0  0  0  0  3  0  0  0  0  0  0
  163.5980  211.9180  157.2360 N   0  0  0  0  0  1  0  0  0  0  0  0
  156.2560  211.9090  157.0240 C   0  0  0  0  0  1  0  0  0  0  0  0
  158.7320  213.2700  157.2610 O   0  0  0  0  0  0  0  0  0  0  0  0
  158.7620  212.0920  156.8100 C   0  0  0  0  0  0  0  0  0  0  0  0
  157.5480  211.3480  156.6690 N   0  0  0  0  0  2  0  0  0  0  0  0
  159.4290  214.4310  148.3000 N   0  0  0  0  0  0  0  0  0  0  0  0
  161.2570  214.0710  149.6350 C   0  0  0  0  0  3  0  0  0  0  0  0
  157.7440  214.3100  149.9420 O   0  0  0  0  0  0  0  0  0  0  0  0
  158.9590  214.2290  149.6180 C   0  0  0  0  0  0  0  0  0  0  0  0
  160.0830  213.9770  150.5760 C   0  0  1  0  0  3  0  0  0  0  0  0
  160.8430  214.3060  148.3950 C   0  0  0  0  0  0  0  0  0  0  0  0
  158.6090  214.3750  147.0990 C   0  0  0  0  0  1  0  0  0  0  0  0
  162.3090  213.3330  146.5580 C   0  0  0  0  0  1  0  0  0  0  0  0
  161.7550  214.4520  147.3010 N   0  0  0  0  0  2  0  0  0  0  0  0
  160.8040  205.1900  151.8910 N   0  0  0  0  0  2  0  0  0  0  0  0
  161.6250  206.0020  149.7420 C   0  0  0  0  0  3  0  0  0  0  0  0
  162.4540  206.8270  147.6340 O   0  0  0  0  0  1  0  0  0  0  0  0
  161.1320  202.1470  148.0880 C   0  0  0  0  0  1  0  0  0  0  0  0
  162.1020  204.2960  146.6500 O   0  0  0  0  0  0  0  0  0  0  0  0
  160.9770  203.6920  149.9360 C   0  0  0  0  0  3  0  0  0  0  0  0
  161.3100  203.4850  148.6330 N   0  0  0  0  0  0  0  0  0  0  0  0
  161.1280  204.9570  150.5190 C   0  0  0  0  0  0  0  0  0  0  0  0
  161.9610  205.7810  148.4060 C   0  0  0  0  0  0  0  0  0  0  0  0
  161.7990  204.5010  147.8580 C   0  0  0  0  0  0  0  0  0  0  0  0
  2  1  1  0  0  0  0
  3  7  1  0  0  0  0
  4  9  2  0  0  0  0
  4  5  1  0  0  0  0
  5 14  2  0  0  0  0
  6 10  1  0  0  0  0
  6 19  1  1  0  0  0
  7  5  1  0  0  0  0
  7 11  1  1  0  0  0
  8  2  2  0  0  0  0
  9  8  1  0  0  0  0
 12  3  1  6  0  0  0
 12 13  1  0  0  0  0
 12 15  1  0  0  0  0
 13 37  1  6  0  0  0
 13 16  1  0  0  0  0
 14  2  1  0  0  0  0
 15 14  1  6  0  0  0
 15  6  1  0  0  0  0
 16 10  1  0  0  0  0
 17 21  1  0  0  0  0
 18 20  1  0  0  0  0
 18 23  1  0  0  0  0
 19 17  2  0  0  0  0
 19 22  1  0  0  0  0
 21 26  1  0  0  0  0
 21 20  2  0  0  0  0
 22 18  2  0  0  0  0
 26 25  2  0  0  0  0
 27 26  1  0  0  0  0
 27 24  1  0  0  0  0
 28 33  1  0  0  0  0
 28 31  1  0  0  0  0
 29 32  1  0  0  0  0
 31 30  2  0  0  0  0
 31 32  1  0  0  0  0
 32  9  1  6  0  0  0
 33 29  2  0  0  0  0
 34 28  1  0  0  0  0
 35 36  1  0  0  0  0
 36 33  1  0  0  0  0
 38 44  1  0  0  0  0
 39 45  1  0  0  0  0
 40 43  1  0  0  0  0
 41 46  2  0  0  0  0
 42 44  2  0  0  0  0
 43 42  1  0  0  0  0
 44 37  1  0  0  0  0
 45 38  2  0  0  0  0
 46 45  1  0  0  0  0
 46 43  1  0  0  0  0
M  END
>  <MODEL>
2

>  <REMARK>
 VINA RESULT:      -6.2      1.582      2.233
  Name = 
  6 active torsions:
  status: ('A' for Active; 'I' for Inactive)
    1  A    between atoms: C_10  and  C_23
    2  A    between atoms: N_17  and  C_38
    3  A    between atoms: N_17  and  C_39
    4  A    between atoms: C_18  and  C_20
    5  A    between atoms: C_28  and  C_33
    6  A    between atoms: C_36  and  N_43
                            x       y       z     vdW  Elec       q    Type
                         _______ _______ _______ _____ _____    ______ ____

>  <TORSDO>
F 6

$$$$
=
 OpenBabel11042422013D

 46 51  0  0  1  0  0  0  0  0999 V2000
  158.9740  210.5190  153.3030 O   0  0  0  0  0  1  0  0  0  0  0  0
  159.8460  210.6670  152.2310 C   0  0  0  0  0  0  0  0  0  0  0  0
  161.0970  207.3990  149.9550 C   0  0  0  0  0  2  0  0  0  0  0  0
  161.5200  210.9930  150.0580 N   0  0  0  0  0  0  0  0  0  0  0  0
  161.3860  209.7580  150.6110 C   0  0  0  0  0  0  0  0  0  0  0  0
  161.6240  208.0040  153.4170 C   0  0  1  0  0  3  0  0  0  0  0  0
  162.0650  208.5840  149.9880 C   0  0  1  0  0  3  0  0  0  0  0  0
  160.0030  211.9230  151.6470 C   0  0  0  0  0  3  0  0  0  0  0  0
  160.8500  212.0790  150.5380 C   0  0  0  0  0  0  0  0  0  0  0  0
  161.5640  206.6370  154.1210 C   0  0  0  0  0  2  0  0  0  0  0  0
  163.2190  208.2550  150.7010 O   0  0  0  0  0  1  0  0  0  0  0  0
  160.4720  207.0580  151.3260 C   0  0  1  0  0  3  0  0  0  0  0  0
  161.0590  205.7360  151.8360 C   0  0  1  0  0  3  0  0  0  0  0  0
  160.5610  209.5710  151.7300 C   0  0  0  0  0  0  0  0  0  0  0  0
  160.4890  208.2090  152.3840 C   0  0  2  0  0  3  0  0  0  0  0  0
  160.8090  205.5700  153.3290 C   0  0  0  0  0  2  0  0  0  0  0  0
  162.9310  209.7800  154.6520 C   0  0  0  0  0  3  0  0  0  0  0  0
  160.6950  210.4570  156.1390 C   0  0  0  0  0  0  0  0  0  0  0  0
  161.7240  209.1050  154.4310 C   0  0  0  0  0  0  0  0  0  0  0  0
  161.8780  211.0970  156.3390 N   0  0  0  0  0  0  0  0  0  0  0  0
  162.9940  210.7830  155.6260 C   0  0  0  0  0  0  0  0  0  0  0  0
  160.5980  209.4440  155.1840 C   0  0  0  0  0  3  0  0  0  0  0  0
  159.5530  210.8180  156.9070 N   0  0  0  0  0  1  0  0  0  0  0  0
  166.5180  212.2460  155.0690 C   0  0  0  0  0  1  0  0  0  0  0  0
  164.4540  212.0430  157.0030 O   0  0  0  0  0  0  0  0  0  0  0  0
  164.2560  211.4910  155.8860 C   0  0  0  0  0  0  0  0  0  0  0  0
  165.2540  211.5590  154.8650 N   0  0  0  0  0  2  0  0  0  0  0  0
  160.0940  214.1770  147.8470 N   0  0  0  0  0  0  0  0  0  0  0  0
  162.0180  213.2930  148.7260 C   0  0  0  0  0  3  0  0  0  0  0  0
  158.8370  214.3690  149.8300 O   0  0  0  0  0  0  0  0  0  0  0  0
  159.8900  214.0120  149.2370 C   0  0  0  0  0  0  0  0  0  0  0  0
  161.0950  213.4300  149.9100 C   0  0  1  0  0  3  0  0  0  0  0  0
  161.4140  213.7010  147.6140 C   0  0  0  0  0  0  0  0  0  0  0  0
  159.0440  214.4010  146.8660 C   0  0  0  0  0  1  0  0  0  0  0  0
  161.6140  214.4530  145.1930 C   0  0  0  0  0  1  0  0  0  0  0  0
  162.0700  213.6890  146.3420 N   0  0  0  0  0  2  0  0  0  0  0  0
  160.4690  204.6190  151.1090 N   0  0  0  0  0  2  0  0  0  0  0  0
  160.7280  202.9430  149.3540 C   0  0  0  0  0  3  0  0  0  0  0  0
  160.9610  201.2710  147.6340 O   0  0  0  0  0  1  0  0  0  0  0  0
  162.1800  205.9120  146.7240 C   0  0  0  0  0  1  0  0  0  0  0  0
  161.8900  203.2630  146.0000 O   0  0  0  0  0  0  0  0  0  0  0  0
  161.3410  205.2220  148.8790 C   0  0  0  0  0  3  0  0  0  0  0  0
  161.6840  204.8700  147.6100 N   0  0  0  0  0  0  0  0  0  0  0  0
  160.8550  204.2650  149.7790 C   0  0  0  0  0  0  0  0  0  0  0  0
  161.0860  202.5910  148.0520 C   0  0  0  0  0  0  0  0  0  0  0  0
  161.5660  203.5770  147.1790 C   0  0  0  0  0  0  0  0  0  0  0  0
  2  1  1  0  0  0  0
  3  7  1  0  0  0  0
  4  9  2  0  0  0  0
  4  5  1  0  0  0  0
  5 14  2  0  0  0  0
  6 10  1  0  0  0  0
  6 19  1  1  0  0  0
  7  5  1  0  0  0  0
  7 11  1  1  0  0  0
  8  2  2  0  0  0  0
  9  8  1  0  0  0  0
 12  3  1  6  0  0  0
 12 13  1  0  0  0  0
 12 15  1  0  0  0  0
 13 37  1  6  0  0  0
 13 16  1  0  0  0  0
 14  2  1  0  0  0  0
 15 14  1  6  0  0  0
 15  6  1  0  0  0  0
 16 10  1  0  0  0  0
 17 21  1  0  0  0  0
 18 20  1  0  0  0  0
 18 23  1  0  0  0  0
 19 17  2  0  0  0  0
 19 22  1  0  0  0  0
 21 26  1  0  0  0  0
 21 20  2  0  0  0  0
 22 18  2  0  0  0  0
 26 25  2  0  0  0  0
 27 24  1  0  0  0  0
 27 26  1  0  0  0  0
 28 31  1  0  0  0  0
 29 32  1  0  0  0  0
 31 30  2  0  0  0  0
 31 32  1  0  0  0  0
 32  9  1  6  0  0  0
 33 28  1  0  0  0  0
 33 29  2  0  0  0  0
 34 28  1  0  0  0  0
 35 36  1  0  0  0  0
 36 33  1  0  0  0  0
 38 44  1  0  0  0  0
 39 45  1  0  0  0  0
 40 43  1  0  0  0  0
 41 46  2  0  0  0  0
 42 44  2  0  0  0  0
 43 42  1  0  0  0  0
 44 37  1  0  0  0  0
 45 38  2  0  0  0  0
 46 43  1  0  0  0  0
 46 45  1  0  0  0  0
M  END
>  <MODEL>
3

>  <REMARK>
 VINA RESULT:      -5.4      2.392      3.899
  Name = 
  6 active torsions:
  status: ('A' for Active; 'I' for Inactive)
    1  A    between atoms: C_10  and  C_23
    2  A    between atoms: N_17  and  C_38
    3  A    between atoms: N_17  and  C_39
    4  A    between atoms: C_18  and  C_20
    5  A    between atoms: C_28  and  C_33
    6  A    between atoms: C_36  and  N_43
                            x       y       z     vdW  Elec       q    Type
                         _______ _______ _______ _____ _____    ______ ____

>  <TORSDO>
F 6

$$$$
