=
 OpenBabel11052411113D

 44 47  0  0  1  0  0  0  0  0999 V2000
  161.1730  207.7800  153.4390 C   0  0  0  0  0  0  0  0  0  0  0  0
  161.4450  206.7700  152.5140 O   0  0  0  0  0  0  0  0  0  0  0  0
  161.8940  209.3630  148.7930 N   0  0  0  0  0  0  0  0  0  0  0  0
  161.7630  207.0620  149.7080 C   0  0  0  0  0  0  0  0  0  0  0  0
  160.9570  208.4550  155.7610 C   0  0  0  0  0  3  0  0  0  0  0  0
  162.6450  206.6430  151.9150 O   0  0  0  0  0  0  0  0  0  0  0  0
  160.4070  210.0180  154.0000 C   0  0  0  0  0  3  0  0  0  0  0  0
  161.4110  208.0010  148.8000 C   0  0  0  0  0  0  0  0  0  0  0  0
  162.2030  210.2130  149.7380 C   0  0  0  0  0  0  0  0  0  0  0  0
  161.2780  207.4880  154.8020 C   0  0  0  0  0  3  0  0  0  0  0  0
  160.6770  209.4550  151.6010 C   0  0  0  0  0  2  0  0  0  0  0  0
  160.5130  209.7280  155.3670 C   0  0  0  0  0  0  0  0  0  0  0  0
  160.7300  209.0580  153.0360 C   0  0  0  0  0  0  0  0  0  0  0  0
  162.0660  209.9260  151.2030 C   0  0  0  0  0  2  0  0  0  0  0  0
  162.5820  207.3940  150.7950 O   0  0  0  0  0  0  0  0  0  0  0  0
  160.5980  207.6060  147.6060 C   0  0  0  0  0  1  0  0  0  0  0  0
  160.1430  210.7400  156.3790 C   0  0  0  0  0  0  0  0  0  0  0  0
  161.0060  211.1360  157.2610 N   0  0  0  0  0  2  0  0  0  0  0  0
  157.7920  211.8540  157.1430 N   0  0  0  0  0  0  0  0  0  0  0  0
  157.5620  211.4890  155.8350 N   0  0  0  0  0  2  0  0  0  0  0  0
  158.7750  211.2570  156.4480 C   0  0  0  0  0  0  0  0  0  0  0  0
  161.1490  204.9220  150.8520 C   0  0  0  0  0  1  0  0  0  0  0  0
  161.3010  205.6340  149.5180 C   0  0  2  0  0  3  0  0  0  0  0  0
  162.6560  205.7240  147.5340 O   0  0  0  0  0  1  0  0  0  0  0  0
  162.1930  204.8650  148.5340 C   0  0  2  0  0  3  0  0  0  0  0  0
  159.2610  201.0380  148.8900 O   0  0  0  0  0  0  0  0  0  0  0  0
  161.4660  203.5860  146.6420 O   0  0  0  0  0  0  0  0  0  0  0  0
  160.2940  201.4910  148.3200 C   0  0  0  0  0  0  0  0  0  0  0  0
  160.8020  202.7680  148.7310 N   0  0  0  0  0  2  0  0  0  0  0  0
  161.4760  203.7160  147.8970 C   0  0  0  0  0  0  0  0  0  0  0  0
  160.9740  200.6610  147.3020 C   0  0  0  0  0  0  0  0  0  0  0  0
  161.9520  199.9430  147.6370 O   0  0  0  0  0  0  0  0  0  0  0  0
  160.5810  200.7090  145.8670 C   0  0  0  0  0  1  0  0  0  0  0  0
  162.7240  211.4530  149.3420 O   0  0  0  0  0  0  0  0  0  0  0  0
  162.0810  212.3020  148.3930 C   0  0  1  0  0  3  0  0  0  0  0  0
  159.9450  213.4340  148.7940 C   0  0  0  0  0  2  0  0  0  0  0  0
  160.4570  212.9780  150.0270 O   0  0  0  0  0  0  0  0  0  0  0  0
  161.3970  213.4660  149.0920 C   0  0  1  0  0  3  0  0  0  0  0  0
  163.1030  212.8530  147.4090 C   0  0  0  0  0  2  0  0  0  0  0  0
  162.4420  213.6380  146.4300 O   0  0  0  0  0  0  0  0  0  0  0  0
  161.9420  213.0760  145.2600 C   0  0  0  0  0  0  0  0  0  0  0  0
  160.7580  212.6470  145.2430 O   0  0  0  0  0  0  0  0  0  0  0  0
  162.7420  212.9960  144.1160 O   0  0  0  0  0  0  0  0  0  0  0  0
  162.2320  212.5280  142.8830 C   0  0  0  0  0  1  0  0  0  0  0  0
  1 10  1  0  0  0  0
  2  1  1  0  0  0  0
  3  8  1  0  0  0  0
  3  9  2  0  0  0  0
  4 15  1  0  0  0  0
  6  2  1  0  0  0  0
  7 12  2  0  0  0  0
  8  4  2  0  0  0  0
  9 14  1  0  0  0  0
 10  5  2  0  0  0  0
 11 13  1  0  0  0  0
 12  5  1  0  0  0  0
 12 17  1  0  0  0  0
 13  1  2  0  0  0  0
 13  7  1  0  0  0  0
 14 11  1  0  0  0  0
 15  6  1  0  0  0  0
 16  8  1  0  0  0  0
 17 21  1  0  0  0  0
 17 18  2  0  0  0  0
 20 21  1  0  0  0  0
 20 19  1  0  0  0  0
 21 19  2  0  0  0  0
 23  4  1  0  0  0  0
 23 22  1  1  0  0  0
 25 24  1  6  0  0  0
 25 23  1  0  0  0  0
 27 30  2  0  0  0  0
 28 29  1  0  0  0  0
 28 26  2  0  0  0  0
 30 25  1  0  0  0  0
 30 29  1  0  0  0  0
 31 32  2  0  0  0  0
 31 28  1  0  0  0  0
 33 31  1  0  0  0  0
 34  9  1  0  0  0  0
 35 39  1  6  0  0  0
 35 34  1  0  0  0  0
 36 38  1  0  0  0  0
 36 37  1  0  0  0  0
 38 35  1  6  0  0  0
 38 37  1  0  0  0  0
 40 39  1  0  0  0  0
 41 40  1  0  0  0  0
 42 41  2  0  0  0  0
 43 41  1  0  0  0  0
 44 43  1  0  0  0  0
M  END
>  <MODEL>
1

>  <REMARK>
 VINA RESULT:      -6.5      0.000      0.000
  Name = 
  13 active torsions:
  status: ('A' for Active; 'I' for Inactive)
    1  A    between atoms: C_7  and  C_37
    2  A    between atoms: C_9  and  O_12
    3  A    between atoms: C_9  and  O_19
    4  A    between atoms: C_11  and  C_20
    5  A    between atoms: O_12  and  C_34
    6  A    between atoms: C_17  and  C_29
    7  A    between atoms: C_17  and  C_44
    8  A    between atoms: C_21  and  O_41
    9  A    between atoms: C_23  and  C_32
   10  A    between atoms: C_23  and  C_34
   11  A    between atoms: C_23  and  O_41
   12  A    between atoms: C_31  and  C_40
   13  A    between atoms: C_37  and  C_40
                            x       y       z     vdW  Elec       q    Type
                         _______ _______ _______ _____ _____    ______ ____

>  <TORSDO>
F 13

$$$$
=
 OpenBabel11052411113D

 44 47  0  0  1  0  0  0  0  0999 V2000
  161.5930  208.1880  148.5800 C   0  0  0  0  0  0  0  0  0  0  0  0
  161.6890  209.5460  148.2660 O   0  0  0  0  0  0  0  0  0  0  0  0
  161.1840  211.2460  152.4640 N   0  0  0  0  0  0  0  0  0  0  0  0
  161.3540  211.7380  150.0390 C   0  0  0  0  0  0  0  0  0  0  0  0
  161.8780  205.8800  147.8850 C   0  0  0  0  0  3  0  0  0  0  0  0
  162.7280  210.3070  148.6640 O   0  0  0  0  0  0  0  0  0  0  0  0
  160.8840  206.3730  150.0320 C   0  0  0  0  0  3  0  0  0  0  0  0
  160.7690  211.9070  151.2470 C   0  0  0  0  0  0  0  0  0  0  0  0
  161.6630  210.0580  152.7240 C   0  0  0  0  0  0  0  0  0  0  0  0
  162.0140  207.2490  147.6330 C   0  0  0  0  0  3  0  0  0  0  0  0
  160.6280  208.6930  150.8690 C   0  0  0  0  0  2  0  0  0  0  0  0
  161.3070  205.4300  149.0860 C   0  0  0  0  0  0  0  0  0  0  0  0
  161.0190  207.7430  149.7890 C   0  0  0  0  0  0  0  0  0  0  0  0
  161.8720  208.9930  151.6900 C   0  0  0  0  0  2  0  0  0  0  0  0
  162.3830  210.8010  149.8720 O   0  0  0  0  0  0  0  0  0  0  0  0
  159.7240  212.9670  151.4190 C   0  0  0  0  0  1  0  0  0  0  0  0
  161.1340  203.9840  149.3400 C   0  0  0  0  0  0  0  0  0  0  0  0
  161.0080  203.1520  148.3540 N   0  0  0  0  0  2  0  0  0  0  0  0
  161.0150  202.4430  151.5670 N   0  0  0  0  0  0  0  0  0  0  0  0
  160.8810  203.7230  152.0580 N   0  0  0  0  0  2  0  0  0  0  0  0
  161.0290  203.4770  150.7100 C   0  0  0  0  0  0  0  0  0  0  0  0
  159.5940  212.1250  148.3030 C   0  0  0  0  0  1  0  0  0  0  0  0
  160.9190  212.5990  148.8740 C   0  0  2  0  0  3  0  0  0  0  0  0
  163.0180  213.5900  148.2470 O   0  0  0  0  0  1  0  0  0  0  0  0
  162.0160  212.7220  147.8070 C   0  0  2  0  0  3  0  0  0  0  0  0
  159.7720  211.8810  143.6080 O   0  0  0  0  0  0  0  0  0  0  0  0
  161.4560  214.4530  146.2460 O   0  0  0  0  0  0  0  0  0  0  0  0
  160.6980  212.5360  144.1650 C   0  0  0  0  0  0  0  0  0  0  0  0
  160.9980  212.2690  145.5420 N   0  0  0  0  0  2  0  0  0  0  0  0
  161.4810  213.2170  146.4990 C   0  0  0  0  0  0  0  0  0  0  0  0
  161.4760  213.5030  143.3600 C   0  0  0  0  0  0  0  0  0  0  0  0
  160.8820  214.4500  142.7810 O   0  0  0  0  0  0  0  0  0  0  0  0
  162.9410  213.3440  143.1500 C   0  0  0  0  0  1  0  0  0  0  0  0
  162.0310  209.7900  154.0490 O   0  0  0  0  0  0  0  0  0  0  0  0
  161.0930  209.4340  155.0630 C   0  0  1  0  0  3  0  0  0  0  0  0
  160.1590  207.3310  155.9070 C   0  0  0  0  0  2  0  0  0  0  0  0
  160.9500  207.0550  154.7720 O   0  0  0  0  0  0  0  0  0  0  0  0
  161.4190  208.0660  155.6410 C   0  0  1  0  0  3  0  0  0  0  0  0
  161.1230  210.4610  156.1860 C   0  0  0  0  0  2  0  0  0  0  0  0
  159.8270  211.0120  156.3580 O   0  0  0  0  0  0  0  0  0  0  0  0
  159.2770  211.8870  155.4250 C   0  0  0  0  0  0  0  0  0  0  0  0
  159.7760  213.0370  155.2950 O   0  0  0  0  0  0  0  0  0  0  0  0
  158.1910  211.4920  154.6390 O   0  0  0  0  0  0  0  0  0  0  0  0
  157.1950  212.4090  154.2320 C   0  0  0  0  0  1  0  0  0  0  0  0
  1 13  1  0  0  0  0
  2  1  1  0  0  0  0
  2  6  1  0  0  0  0
  3  9  2  0  0  0  0
  4  8  2  0  0  0  0
  5 12  2  0  0  0  0
  6 15  1  0  0  0  0
  8 16  1  0  0  0  0
  8  3  1  0  0  0  0
  9 34  1  0  0  0  0
 10  5  1  0  0  0  0
 10  1  2  0  0  0  0
 11 14  1  0  0  0  0
 12 17  1  0  0  0  0
 12  7  1  0  0  0  0
 13  7  2  0  0  0  0
 13 11  1  0  0  0  0
 14  9  1  0  0  0  0
 15  4  1  0  0  0  0
 17 21  1  0  0  0  0
 18 17  2  0  0  0  0
 19 20  1  0  0  0  0
 21 19  2  0  0  0  0
 21 20  1  0  0  0  0
 23 22  1  6  0  0  0
 23  4  1  0  0  0  0
 25 24  1  1  0  0  0
 25 23  1  0  0  0  0
 26 28  2  0  0  0  0
 27 30  2  0  0  0  0
 28 29  1  0  0  0  0
 29 30  1  0  0  0  0
 30 25  1  0  0  0  0
 31 28  1  0  0  0  0
 32 31  2  0  0  0  0
 33 31  1  0  0  0  0
 34 35  1  0  0  0  0
 35 39  1  1  0  0  0
 37 38  1  0  0  0  0
 37 36  1  0  0  0  0
 38 35  1  6  0  0  0
 38 36  1  0  0  0  0
 39 40  1  0  0  0  0
 41 40  1  0  0  0  0
 42 41  2  0  0  0  0
 43 41  1  0  0  0  0
 44 43  1  0  0  0  0
M  END
>  <MODEL>
2

>  <REMARK>
 VINA RESULT:      -6.5      3.209      8.784
  Name = 
  13 active torsions:
  status: ('A' for Active; 'I' for Inactive)
    1  A    between atoms: C_7  and  C_37
    2  A    between atoms: C_9  and  O_12
    3  A    between atoms: C_9  and  O_19
    4  A    between atoms: C_11  and  C_20
    5  A    between atoms: O_12  and  C_34
    6  A    between atoms: C_17  and  C_29
    7  A    between atoms: C_17  and  C_44
    8  A    between atoms: C_21  and  O_41
    9  A    between atoms: C_23  and  C_32
   10  A    between atoms: C_23  and  C_34
   11  A    between atoms: C_23  and  O_41
   12  A    between atoms: C_31  and  C_40
   13  A    between atoms: C_37  and  C_40
                            x       y       z     vdW  Elec       q    Type
                         _______ _______ _______ _____ _____    ______ ____

>  <TORSDO>
F 13

$$$$
=
 OpenBabel11052411113D

 44 47  0  0  1  0  0  0  0  0999 V2000
  161.7380  209.2330  149.7210 C   0  0  0  0  0  0  0  0  0  0  0  0
  161.6130  207.9600  150.2800 O   0  0  0  0  0  0  0  0  0  0  0  0
  160.4260  209.1890  154.5050 N   0  0  0  0  0  0  0  0  0  0  0  0
  161.0670  207.3300  152.9940 C   0  0  0  0  0  0  0  0  0  0  0  0
  161.9630  210.6050  147.7310 C   0  0  0  0  0  3  0  0  0  0  0  0
  160.4250  207.4550  150.6700 O   0  0  0  0  0  0  0  0  0  0  0  0
  162.0810  211.6320  149.9170 C   0  0  0  0  0  3  0  0  0  0  0  0
  161.1680  207.9960  154.1670 C   0  0  0  0  0  0  0  0  0  0  0  0
  160.0160  210.2200  153.8130 C   0  0  0  0  0  0  0  0  0  0  0  0
  161.7790  209.3540  148.3280 C   0  0  0  0  0  3  0  0  0  0  0  0
  161.7760  210.3310  152.0060 C   0  0  0  0  0  2  0  0  0  0  0  0
  162.1210  211.7550  148.5220 C   0  0  0  0  0  0  0  0  0  0  0  0
  161.8940  210.3840  150.5210 C   0  0  0  0  0  0  0  0  0  0  0  0
  160.2990  210.4170  152.3530 C   0  0  0  0  0  2  0  0  0  0  0  0
  160.2690  207.8320  151.9570 O   0  0  0  0  0  0  0  0  0  0  0  0
  161.9660  207.4010  155.2870 C   0  0  0  0  0  1  0  0  0  0  0  0
  162.3470  213.0740  147.8920 C   0  0  0  0  0  0  0  0  0  0  0  0
  162.5260  214.1300  148.6210 N   0  0  0  0  0  2  0  0  0  0  0  0
  162.9320  213.2710  145.2520 N   0  0  0  0  0  0  0  0  0  0  0  0
  161.5610  213.3980  145.2850 N   0  0  0  0  0  2  0  0  0  0  0  0
  162.2990  213.2200  146.4360 C   0  0  0  0  0  0  0  0  0  0  0  0
  162.8610  206.1070  151.7500 C   0  0  0  0  0  1  0  0  0  0  0  0
  161.7880  206.0110  152.8220 C   0  0  2  0  0  3  0  0  0  0  0  0
  160.7130  204.0680  153.7410 O   0  0  0  0  0  1  0  0  0  0  0  0
  160.8150  204.8480  152.5870 C   0  0  2  0  0  3  0  0  0  0  0  0
  161.3490  204.1320  147.8350 O   0  0  0  0  0  0  0  0  0  0  0  0
  161.8460  202.8930  151.6600 O   0  0  0  0  0  0  0  0  0  0  0  0
  161.0400  203.5800  148.9290 C   0  0  0  0  0  0  0  0  0  0  0  0
  160.9440  204.3930  150.1070 N   0  0  0  0  0  2  0  0  0  0  0  0
  161.2380  203.9780  151.4450 C   0  0  0  0  0  0  0  0  0  0  0  0
  160.7260  202.1340  148.9390 C   0  0  0  0  0  0  0  0  0  0  0  0
  159.6660  201.7320  149.4840 O   0  0  0  0  0  0  0  0  0  0  0  0
  161.6720  201.1270  148.3860 C   0  0  0  0  0  1  0  0  0  0  0  0
  159.2370  211.1740  154.4800 O   0  0  0  0  0  0  0  0  0  0  0  0
  158.1330  211.8440  153.8740 C   0  0  1  0  0  3  0  0  0  0  0  0
  155.9120  211.1470  154.6420 C   0  0  0  0  0  2  0  0  0  0  0  0
  156.8410  210.9330  155.6810 O   0  0  0  0  0  0  0  0  0  0  0  0
  157.0290  212.0890  154.8910 C   0  0  1  0  0  3  0  0  0  0  0  0
  158.5820  213.1810  153.3050 C   0  0  0  0  0  2  0  0  0  0  0  0
  157.6700  213.5990  152.3010 O   0  0  0  0  0  0  0  0  0  0  0  0
  158.0100  213.5740  150.9520 C   0  0  0  0  0  0  0  0  0  0  0  0
  159.1970  213.3060  150.6240 O   0  0  0  0  0  0  0  0  0  0  0  0
  157.0460  213.8340  149.9750 O   0  0  0  0  0  0  0  0  0  0  0  0
  157.0170  213.1270  148.7500 C   0  0  0  0  0  1  0  0  0  0  0  0
  1  2  1  0  0  0  0
  1 13  1  0  0  0  0
  2  6  1  0  0  0  0
  4  8  2  0  0  0  0
  5 10  1  0  0  0  0
  5 12  2  0  0  0  0
  6 15  1  0  0  0  0
  7 13  2  0  0  0  0
  8  3  1  0  0  0  0
  8 16  1  0  0  0  0
  9 34  1  0  0  0  0
  9  3  2  0  0  0  0
 10  1  2  0  0  0  0
 11 14  1  0  0  0  0
 12  7  1  0  0  0  0
 13 11  1  0  0  0  0
 14  9  1  0  0  0  0
 15  4  1  0  0  0  0
 17 12  1  0  0  0  0
 17 18  2  0  0  0  0
 19 20  1  0  0  0  0
 19 21  2  0  0  0  0
 20 21  1  0  0  0  0
 21 17  1  0  0  0  0
 23 22  1  6  0  0  0
 23  4  1  0  0  0  0
 25 23  1  0  0  0  0
 25 24  1  1  0  0  0
 26 28  2  0  0  0  0
 28 31  1  0  0  0  0
 28 29  1  0  0  0  0
 29 30  1  0  0  0  0
 30 27  2  0  0  0  0
 30 25  1  0  0  0  0
 31 32  2  0  0  0  0
 33 31  1  0  0  0  0
 35 39  1  1  0  0  0
 35 34  1  0  0  0  0
 36 38  1  0  0  0  0
 36 37  1  0  0  0  0
 38 35  1  6  0  0  0
 38 37  1  0  0  0  0
 40 39  1  0  0  0  0
 41 40  1  0  0  0  0
 42 41  2  0  0  0  0
 43 41  1  0  0  0  0
 44 43  1  0  0  0  0
M  END
>  <MODEL>
3

>  <REMARK>
 VINA RESULT:      -6.4      2.712      6.254
  Name = 
  13 active torsions:
  status: ('A' for Active; 'I' for Inactive)
    1  A    between atoms: C_7  and  C_37
    2  A    between atoms: C_9  and  O_12
    3  A    between atoms: C_9  and  O_19
    4  A    between atoms: C_11  and  C_20
    5  A    between atoms: O_12  and  C_34
    6  A    between atoms: C_17  and  C_29
    7  A    between atoms: C_17  and  C_44
    8  A    between atoms: C_21  and  O_41
    9  A    between atoms: C_23  and  C_32
   10  A    between atoms: C_23  and  C_34
   11  A    between atoms: C_23  and  O_41
   12  A    between atoms: C_31  and  C_40
   13  A    between atoms: C_37  and  C_40
                            x       y       z     vdW  Elec       q    Type
                         _______ _______ _______ _____ _____    ______ ____

>  <TORSDO>
F 13

$$$$
=
 OpenBabel11052411113D

 44 47  0  0  1  0  0  0  0  0999 V2000
  161.2530  205.6840  149.9760 C   0  0  0  0  0  0  0  0  0  0  0  0
  161.0920  206.2660  151.2360 O   0  0  0  0  0  0  0  0  0  0  0  0
  162.1990  210.5500  150.1480 N   0  0  0  0  0  0  0  0  0  0  0  0
  161.6600  208.9500  151.9640 C   0  0  0  0  0  0  0  0  0  0  0  0
  160.8970  203.7750  148.5200 C   0  0  0  0  0  3  0  0  0  0  0  0
  160.1150  207.1550  151.5010 O   0  0  0  0  0  0  0  0  0  0  0  0
  162.1960  205.6580  147.7360 C   0  0  0  0  0  3  0  0  0  0  0  0
  162.4170  209.9410  151.4400 C   0  0  0  0  0  0  0  0  0  0  0  0
  161.7810  210.0930  148.9970 C   0  0  0  0  0  0  0  0  0  0  0  0
  160.7070  204.4170  149.7470 C   0  0  0  0  0  3  0  0  0  0  0  0
  162.5430  207.6890  149.1150 C   0  0  0  0  0  2  0  0  0  0  0  0
  161.6490  204.3890  147.5040 C   0  0  0  0  0  0  0  0  0  0  0  0
  162.0080  206.3070  148.9600 C   0  0  0  0  0  0  0  0  0  0  0  0
  161.4330  208.6570  148.7410 C   0  0  0  0  0  2  0  0  0  0  0  0
  160.6300  208.3690  151.2130 O   0  0  0  0  0  0  0  0  0  0  0  0
  163.4620  210.5990  152.2890 C   0  0  0  0  0  1  0  0  0  0  0  0
  161.8770  203.6980  146.2170 C   0  0  0  0  0  0  0  0  0  0  0  0
  162.7080  204.1810  145.3490 N   0  0  0  0  0  2  0  0  0  0  0  0
  160.7790  201.2210  146.1240 N   0  0  0  0  0  0  0  0  0  0  0  0
  160.2030  201.8650  145.0510 N   0  0  0  0  0  2  0  0  0  0  0  0
  161.1120  202.4980  145.8720 C   0  0  0  0  0  0  0  0  0  0  0  0
  161.1180  207.2410  153.7090 C   0  0  0  0  0  1  0  0  0  0  0  0
  161.9030  208.5010  153.3880 C   0  0  2  0  0  3  0  0  0  0  0  0
  161.9370  209.1830  155.6930 O   0  0  0  0  0  1  0  0  0  0  0  0
  161.6550  209.6290  154.3990 C   0  0  2  0  0  3  0  0  0  0  0  0
  158.2440  212.3460  152.3150 O   0  0  0  0  0  0  0  0  0  0  0  0
  159.3700  209.6490  155.1190 O   0  0  0  0  0  0  0  0  0  0  0  0
  158.6990  211.9390  153.4210 C   0  0  0  0  0  0  0  0  0  0  0  0
  159.9100  211.1700  153.4250 N   0  0  0  0  0  2  0  0  0  0  0  0
  160.2470  210.1330  154.3520 C   0  0  0  0  0  0  0  0  0  0  0  0
  158.0040  212.3260  154.6690 C   0  0  0  0  0  0  0  0  0  0  0  0
  156.8580  211.8670  154.9090 O   0  0  0  0  0  0  0  0  0  0  0  0
  158.5940  213.3100  155.6170 C   0  0  0  0  0  1  0  0  0  0  0  0
  161.6200  211.0190  147.9570 O   0  0  0  0  0  0  0  0  0  0  0  0
  161.3240  212.3970  148.1780 C   0  0  1  0  0  3  0  0  0  0  0  0
  162.7540  214.3870  148.1880 C   0  0  0  0  0  2  0  0  0  0  0  0
  163.5440  213.2600  147.8810 O   0  0  0  0  0  0  0  0  0  0  0  0
  162.2370  213.2830  147.3460 C   0  0  1  0  0  3  0  0  0  0  0  0
  159.8790  212.6880  147.7990 C   0  0  0  0  0  2  0  0  0  0  0  0
  159.8280  213.1700  146.4660 O   0  0  0  0  0  0  0  0  0  0  0  0
  159.1430  212.4830  145.4680 C   0  0  0  0  0  0  0  0  0  0  0  0
  157.8930  212.3530  145.5600 O   0  0  0  0  0  0  0  0  0  0  0  0
  159.8320  211.9510  144.3750 O   0  0  0  0  0  0  0  0  0  0  0  0
  160.8850  212.6540  143.7440 C   0  0  0  0  0  1  0  0  0  0  0  0
  1  2  1  0  0  0  0
  2  6  1  0  0  0  0
  3  8  1  0  0  0  0
  4 23  1  0  0  0  0
  5 10  2  0  0  0  0
  7 13  1  0  0  0  0
  8  4  2  0  0  0  0
  8 16  1  0  0  0  0
  9  3  2  0  0  0  0
 10  1  1  0  0  0  0
 12  7  2  0  0  0  0
 12  5  1  0  0  0  0
 13 11  1  0  0  0  0
 13  1  2  0  0  0  0
 14  9  1  0  0  0  0
 14 11  1  0  0  0  0
 15  6  1  0  0  0  0
 15  4  1  0  0  0  0
 17 12  1  0  0  0  0
 18 17  2  0  0  0  0
 20 21  1  0  0  0  0
 20 19  1  0  0  0  0
 21 19  2  0  0  0  0
 21 17  1  0  0  0  0
 23 22  1  1  0  0  0
 23 25  1  0  0  0  0
 25 24  1  1  0  0  0
 26 28  2  0  0  0  0
 28 29  1  0  0  0  0
 28 31  1  0  0  0  0
 29 30  1  0  0  0  0
 30 25  1  0  0  0  0
 30 27  2  0  0  0  0
 31 32  2  0  0  0  0
 31 33  1  0  0  0  0
 34 35  1  0  0  0  0
 34  9  1  0  0  0  0
 35 39  1  6  0  0  0
 37 36  1  0  0  0  0
 38 37  1  0  0  0  0
 38 35  1  1  0  0  0
 38 36  1  0  0  0  0
 40 39  1  0  0  0  0
 41 42  2  0  0  0  0
 41 40  1  0  0  0  0
 43 41  1  0  0  0  0
 44 43  1  0  0  0  0
M  END
>  <MODEL>
4

>  <REMARK>
 VINA RESULT:      -6.4      2.542      8.124
  Name = 
  13 active torsions:
  status: ('A' for Active; 'I' for Inactive)
    1  A    between atoms: C_7  and  C_37
    2  A    between atoms: C_9  and  O_12
    3  A    between atoms: C_9  and  O_19
    4  A    between atoms: C_11  and  C_20
    5  A    between atoms: O_12  and  C_34
    6  A    between atoms: C_17  and  C_29
    7  A    between atoms: C_17  and  C_44
    8  A    between atoms: C_21  and  O_41
    9  A    between atoms: C_23  and  C_32
   10  A    between atoms: C_23  and  C_34
   11  A    between atoms: C_23  and  O_41
   12  A    between atoms: C_31  and  C_40
   13  A    between atoms: C_37  and  C_40
                            x       y       z     vdW  Elec       q    Type
                         _______ _______ _______ _____ _____    ______ ____

>  <TORSDO>
F 13

$$$$
=
 OpenBabel11052411113D

 44 47  0  0  1  0  0  0  0  0999 V2000
  161.2810  205.8670  149.9250 C   0  0  0  0  0  0  0  0  0  0  0  0
  161.1110  206.4270  151.1930 O   0  0  0  0  0  0  0  0  0  0  0  0
  162.3710  210.6970  150.2200 N   0  0  0  0  0  0  0  0  0  0  0  0
  161.7450  209.0770  151.9900 C   0  0  0  0  0  0  0  0  0  0  0  0
  160.8980  204.0010  148.4210 C   0  0  0  0  0  3  0  0  0  0  0  0
  160.1560  207.3390  151.4580 O   0  0  0  0  0  0  0  0  0  0  0  0
  162.2690  205.8580  147.7040 C   0  0  0  0  0  3  0  0  0  0  0  0
  162.5430  210.0540  151.5030 C   0  0  0  0  0  0  0  0  0  0  0  0
  161.9620  210.2770  149.0510 C   0  0  0  0  0  0  0  0  0  0  0  0
  160.7020  204.6220  149.6580 C   0  0  0  0  0  3  0  0  0  0  0  0
  162.6490  207.8480  149.1330 C   0  0  0  0  0  2  0  0  0  0  0  0
  161.6890  204.6120  147.4340 C   0  0  0  0  0  0  0  0  0  0  0  0
  162.0750  206.4870  148.9380 C   0  0  0  0  0  0  0  0  0  0  0  0
  161.5770  208.8580  148.7570 C   0  0  0  0  0  2  0  0  0  0  0  0
  160.7140  208.5430  151.2060 O   0  0  0  0  0  0  0  0  0  0  0  0
  163.5890  210.6620  152.3870 C   0  0  0  0  0  1  0  0  0  0  0  0
  161.9220  203.9420  146.1370 C   0  0  0  0  0  0  0  0  0  0  0  0
  162.7730  204.4270  145.2880 N   0  0  0  0  0  2  0  0  0  0  0  0
  160.8290  201.4680  145.9500 N   0  0  0  0  0  0  0  0  0  0  0  0
  160.1940  202.1730  144.9520 N   0  0  0  0  0  2  0  0  0  0  0  0
  161.1440  202.7600  145.7600 C   0  0  0  0  0  0  0  0  0  0  0  0
  161.1740  207.3060  153.6640 C   0  0  0  0  0  1  0  0  0  0  0  0
  161.9450  208.5900  153.4090 C   0  0  2  0  0  3  0  0  0  0  0  0
  161.8980  209.2110  155.7310 O   0  0  0  0  0  1  0  0  0  0  0  0
  161.6370  209.6830  154.4420 C   0  0  2  0  0  3  0  0  0  0  0  0
  158.2070  212.3860  152.3670 O   0  0  0  0  0  0  0  0  0  0  0  0
  159.3300  209.6010  155.0860 O   0  0  0  0  0  0  0  0  0  0  0  0
  158.6410  211.9430  153.4690 C   0  0  0  0  0  0  0  0  0  0  0  0
  159.8740  211.2120  153.4790 N   0  0  0  0  0  2  0  0  0  0  0  0
  160.2150  210.1450  154.3710 C   0  0  0  0  0  0  0  0  0  0  0  0
  157.8950  212.2530  154.7090 C   0  0  0  0  0  0  0  0  0  0  0  0
  158.4450  212.9360  155.6110 O   0  0  0  0  0  0  0  0  0  0  0  0
  156.5310  211.7110  154.9540 C   0  0  0  0  0  1  0  0  0  0  0  0
  161.8510  211.2290  148.0290 O   0  0  0  0  0  0  0  0  0  0  0  0
  160.7280  212.0970  147.8900 C   0  0  1  0  0  3  0  0  0  0  0  0
  159.8450  214.1290  148.9390 C   0  0  0  0  0  2  0  0  0  0  0  0
  160.8350  213.5770  149.7780 O   0  0  0  0  0  0  0  0  0  0  0  0
  161.0650  213.4950  148.3860 C   0  0  1  0  0  3  0  0  0  0  0  0
  160.3120  212.1830  146.4290 C   0  0  0  0  0  2  0  0  0  0  0  0
  160.9500  213.2930  145.8190 O   0  0  0  0  0  0  0  0  0  0  0  0
  161.8370  213.1320  144.7590 C   0  0  0  0  0  0  0  0  0  0  0  0
  163.0640  212.9880  145.0030 O   0  0  0  0  0  0  0  0  0  0  0  0
  161.3700  213.1240  143.4410 O   0  0  0  0  0  0  0  0  0  0  0  0
  161.9250  212.2700  142.4610 C   0  0  0  0  0  1  0  0  0  0  0  0
  1  2  1  0  0  0  0
  2  6  1  0  0  0  0
  3  8  1  0  0  0  0
  4 23  1  0  0  0  0
  5 10  2  0  0  0  0
  7 13  1  0  0  0  0
  8  4  2  0  0  0  0
  8 16  1  0  0  0  0
  9  3  2  0  0  0  0
 10  1  1  0  0  0  0
 12  7  2  0  0  0  0
 12  5  1  0  0  0  0
 13 11  1  0  0  0  0
 13  1  2  0  0  0  0
 14  9  1  0  0  0  0
 14 11  1  0  0  0  0
 15  6  1  0  0  0  0
 15  4  1  0  0  0  0
 17 12  1  0  0  0  0
 18 17  2  0  0  0  0
 20 21  1  0  0  0  0
 20 19  1  0  0  0  0
 21 19  2  0  0  0  0
 21 17  1  0  0  0  0
 23 22  1  1  0  0  0
 23 25  1  0  0  0  0
 25 24  1  1  0  0  0
 26 28  2  0  0  0  0
 28 29  1  0  0  0  0
 28 31  1  0  0  0  0
 29 30  1  0  0  0  0
 30 25  1  0  0  0  0
 30 27  2  0  0  0  0
 31 33  1  0  0  0  0
 31 32  2  0  0  0  0
 34  9  1  0  0  0  0
 35 39  1  6  0  0  0
 35 34  1  0  0  0  0
 36 37  1  0  0  0  0
 38 35  1  6  0  0  0
 38 36  1  0  0  0  0
 38 37  1  0  0  0  0
 40 39  1  0  0  0  0
 41 42  2  0  0  0  0
 41 40  1  0  0  0  0
 43 41  1  0  0  0  0
 44 43  1  0  0  0  0
M  END
>  <MODEL>
5

>  <REMARK>
 VINA RESULT:      -6.1      2.475      8.024
  Name = 
  13 active torsions:
  status: ('A' for Active; 'I' for Inactive)
    1  A    between atoms: C_7  and  C_37
    2  A    between atoms: C_9  and  O_12
    3  A    between atoms: C_9  and  O_19
    4  A    between atoms: C_11  and  C_20
    5  A    between atoms: O_12  and  C_34
    6  A    between atoms: C_17  and  C_29
    7  A    between atoms: C_17  and  C_44
    8  A    between atoms: C_21  and  O_41
    9  A    between atoms: C_23  and  C_32
   10  A    between atoms: C_23  and  C_34
   11  A    between atoms: C_23  and  O_41
   12  A    between atoms: C_31  and  C_40
   13  A    between atoms: C_37  and  C_40
                            x       y       z     vdW  Elec       q    Type
                         _______ _______ _______ _____ _____    ______ ____

>  <TORSDO>
F 13

$$$$
=
 OpenBabel11052411113D

 44 47  0  0  1  0  0  0  0  0999 V2000
  160.8490  205.8430  152.9310 C   0  0  0  0  0  0  0  0  0  0  0  0
  160.7290  206.5540  154.1270 O   0  0  0  0  0  0  0  0  0  0  0  0
  162.2870  210.5820  152.6750 N   0  0  0  0  0  0  0  0  0  0  0  0
  161.5580  209.2250  154.6170 C   0  0  0  0  0  0  0  0  0  0  0  0
  160.3220  203.8500  151.6490 C   0  0  0  0  0  3  0  0  0  0  0  0
  159.8440  207.5580  154.2840 O   0  0  0  0  0  0  0  0  0  0  0  0
  161.8200  205.5090  150.7280 C   0  0  0  0  0  3  0  0  0  0  0  0
  162.4210  210.0800  154.0230 C   0  0  0  0  0  0  0  0  0  0  0  0
  161.8420  210.0630  151.5610 C   0  0  0  0  0  0  0  0  0  0  0  0
  160.1790  204.6210  152.8070 C   0  0  0  0  0  3  0  0  0  0  0  0
  162.3520  207.6160  151.9210 C   0  0  0  0  0  2  0  0  0  0  0  0
  161.1490  204.2850  150.6010 C   0  0  0  0  0  0  0  0  0  0  0  0
  161.6800  206.2870  151.8820 C   0  0  0  0  0  0  0  0  0  0  0  0
  161.3530  208.6510  151.4300 C   0  0  0  0  0  2  0  0  0  0  0  0
  160.4850  208.6810  153.8970 O   0  0  0  0  0  0  0  0  0  0  0  0
  163.5140  210.7070  154.8340 C   0  0  0  0  0  1  0  0  0  0  0  0
  161.3250  203.4560  149.3890 C   0  0  0  0  0  0  0  0  0  0  0  0
  161.8730  203.9530  148.3260 N   0  0  0  0  0  2  0  0  0  0  0  0
  161.0440  200.7640  149.2270 N   0  0  0  0  0  0  0  0  0  0  0  0
  159.7530  201.2090  149.4140 N   0  0  0  0  0  2  0  0  0  0  0  0
  160.8170  202.0830  149.3480 C   0  0  0  0  0  0  0  0  0  0  0  0
  161.9260  207.3970  156.2870 C   0  0  0  0  0  1  0  0  0  0  0  0
  161.7310  208.8900  156.0820 C   0  0  2  0  0  3  0  0  0  0  0  0
  159.6310  208.4830  157.1800 O   0  0  0  0  0  1  0  0  0  0  0  0
  160.5970  209.4640  156.9430 C   0  0  2  0  0  3  0  0  0  0  0  0
  156.6440  211.6460  155.2150 O   0  0  0  0  0  0  0  0  0  0  0  0
  160.5880  211.7200  156.1350 O   0  0  0  0  0  0  0  0  0  0  0  0
  157.8840  211.4750  155.0380 C   0  0  0  0  0  0  0  0  0  0  0  0
  158.5780  210.5490  155.8850 N   0  0  0  0  0  2  0  0  0  0  0  0
  159.9430  210.6490  156.3030 C   0  0  0  0  0  0  0  0  0  0  0  0
  158.5540  212.1850  153.9260 C   0  0  0  0  0  0  0  0  0  0  0  0
  158.8400  213.4050  154.0500 O   0  0  0  0  0  0  0  0  0  0  0  0
  158.8330  211.5140  152.6270 C   0  0  0  0  0  1  0  0  0  0  0  0
  161.7940  210.8970  150.4360 O   0  0  0  0  0  0  0  0  0  0  0  0
  161.4480  210.4320  149.1330 C   0  0  1  0  0  3  0  0  0  0  0  0
  160.6220  212.1320  147.5720 C   0  0  0  0  0  2  0  0  0  0  0  0
  161.4800  212.7500  148.5070 O   0  0  0  0  0  0  0  0  0  0  0  0
  161.8390  211.4530  148.0770 C   0  0  1  0  0  3  0  0  0  0  0  0
  162.1630  209.1220  148.8390 C   0  0  0  0  0  2  0  0  0  0  0  0
  161.2110  208.1320  148.4830 O   0  0  0  0  0  0  0  0  0  0  0  0
  161.5000  207.1470  147.5440 C   0  0  0  0  0  0  0  0  0  0  0  0
  162.6960  206.7830  147.3860 O   0  0  0  0  0  0  0  0  0  0  0  0
  160.4760  206.5640  146.7930 O   0  0  0  0  0  0  0  0  0  0  0  0
  160.7150  206.0080  145.5150 C   0  0  0  0  0  1  0  0  0  0  0  0
  1  2  1  0  0  0  0
  2  6  1  0  0  0  0
  3  8  1  0  0  0  0
  4 23  1  0  0  0  0
  5 10  2  0  0  0  0
  7 13  1  0  0  0  0
  8  4  2  0  0  0  0
  8 16  1  0  0  0  0
  9  3  2  0  0  0  0
 10  1  1  0  0  0  0
 12  7  2  0  0  0  0
 12  5  1  0  0  0  0
 13 11  1  0  0  0  0
 13  1  2  0  0  0  0
 14  9  1  0  0  0  0
 14 11  1  0  0  0  0
 15  6  1  0  0  0  0
 15  4  1  0  0  0  0
 17 12  1  0  0  0  0
 18 17  2  0  0  0  0
 19 21  2  0  0  0  0
 19 20  1  0  0  0  0
 21 17  1  0  0  0  0
 21 20  1  0  0  0  0
 23 22  1  6  0  0  0
 23 25  1  0  0  0  0
 25 24  1  6  0  0  0
 27 30  2  0  0  0  0
 28 26  2  0  0  0  0
 28 29  1  0  0  0  0
 29 30  1  0  0  0  0
 30 25  1  0  0  0  0
 31 32  2  0  0  0  0
 31 28  1  0  0  0  0
 33 31  1  0  0  0  0
 34  9  1  0  0  0  0
 35 39  1  6  0  0  0
 35 34  1  0  0  0  0
 36 38  1  0  0  0  0
 36 37  1  0  0  0  0
 38 37  1  0  0  0  0
 38 35  1  1  0  0  0
 40 39  1  0  0  0  0
 41 40  1  0  0  0  0
 42 41  2  0  0  0  0
 43 41  1  0  0  0  0
 44 43  1  0  0  0  0
M  END
>  <MODEL>
6

>  <REMARK>
 VINA RESULT:      -5.8      2.575      8.129
  Name = 
  13 active torsions:
  status: ('A' for Active; 'I' for Inactive)
    1  A    between atoms: C_7  and  C_37
    2  A    between atoms: C_9  and  O_12
    3  A    between atoms: C_9  and  O_19
    4  A    between atoms: C_11  and  C_20
    5  A    between atoms: O_12  and  C_34
    6  A    between atoms: C_17  and  C_29
    7  A    between atoms: C_17  and  C_44
    8  A    between atoms: C_21  and  O_41
    9  A    between atoms: C_23  and  C_32
   10  A    between atoms: C_23  and  C_34
   11  A    between atoms: C_23  and  O_41
   12  A    between atoms: C_31  and  C_40
   13  A    between atoms: C_37  and  C_40
                            x       y       z     vdW  Elec       q    Type
                         _______ _______ _______ _____ _____    ______ ____

>  <TORSDO>
F 13

$$$$
=
 OpenBabel11052411113D

 44 47  0  0  1  0  0  0  0  0999 V2000
  161.5230  207.3600  152.7980 C   0  0  0  0  0  0  0  0  0  0  0  0
  162.0030  206.5600  151.7600 O   0  0  0  0  0  0  0  0  0  0  0  0
  162.0140  209.6860  148.4450 N   0  0  0  0  0  0  0  0  0  0  0  0
  162.3120  207.2960  149.0360 C   0  0  0  0  0  0  0  0  0  0  0  0
  161.1350  207.6490  155.1770 C   0  0  0  0  0  3  0  0  0  0  0  0
  163.2160  206.7460  151.2050 O   0  0  0  0  0  0  0  0  0  0  0  0
  160.3280  209.3120  153.6190 C   0  0  0  0  0  3  0  0  0  0  0  0
  161.8030  208.2700  148.2470 C   0  0  0  0  0  0  0  0  0  0  0  0
  162.1340  210.4380  149.5070 C   0  0  0  0  0  0  0  0  0  0  0  0
  161.6560  206.9050  154.1140 C   0  0  0  0  0  3  0  0  0  0  0  0
  160.7480  209.1520  151.1810 C   0  0  0  0  0  2  0  0  0  0  0  0
  160.4620  208.8580  154.9380 C   0  0  0  0  0  0  0  0  0  0  0  0
  160.8490  208.5750  152.5510 C   0  0  0  0  0  0  0  0  0  0  0  0
  162.0280  209.9270  150.9130 C   0  0  0  0  0  2  0  0  0  0  0  0
  163.0300  207.6220  150.1940 O   0  0  0  0  0  0  0  0  0  0  0  0
  161.1050  207.9000  146.9740 C   0  0  0  0  0  1  0  0  0  0  0  0
  159.8840  209.6300  156.0580 C   0  0  0  0  0  0  0  0  0  0  0  0
  159.8860  209.1480  157.2610 N   0  0  0  0  0  2  0  0  0  0  0  0
  158.2950  211.6470  155.1870 N   0  0  0  0  0  0  0  0  0  0  0  0
  159.1430  212.2710  156.0760 N   0  0  0  0  0  2  0  0  0  0  0  0
  159.2340  210.9200  155.8150 C   0  0  0  0  0  0  0  0  0  0  0  0
  162.5820  205.6160  147.2010 C   0  0  0  0  0  1  0  0  0  0  0  0
  162.1390  205.8480  148.6350 C   0  0  2  0  0  3  0  0  0  0  0  0
  160.0800  206.1690  149.8330 O   0  0  0  0  0  1  0  0  0  0  0  0
  160.7160  205.3400  148.9060 C   0  0  2  0  0  3  0  0  0  0  0  0
  161.5070  200.6210  148.2160 O   0  0  0  0  0  0  0  0  0  0  0  0
  160.4670  203.7000  150.6350 O   0  0  0  0  0  0  0  0  0  0  0  0
  160.7410  201.4660  148.7610 C   0  0  0  0  0  0  0  0  0  0  0  0
  160.9640  202.8600  148.5080 N   0  0  0  0  0  2  0  0  0  0  0  0
  160.7030  203.9340  149.4180 C   0  0  0  0  0  0  0  0  0  0  0  0
  159.6090  200.9820  149.5810 C   0  0  0  0  0  0  0  0  0  0  0  0
  159.8290  200.5070  150.7260 O   0  0  0  0  0  0  0  0  0  0  0  0
  158.2150  200.9690  149.0590 C   0  0  0  0  0  1  0  0  0  0  0  0
  162.4130  211.7970  149.3060 O   0  0  0  0  0  0  0  0  0  0  0  0
  161.4120  212.7600  148.9830 C   0  0  1  0  0  3  0  0  0  0  0  0
  160.9370  213.6700  146.7580 C   0  0  0  0  0  2  0  0  0  0  0  0
  161.8050  212.5660  146.6230 O   0  0  0  0  0  0  0  0  0  0  0  0
  160.8070  212.4700  147.6190 C   0  0  1  0  0  3  0  0  0  0  0  0
  160.3050  212.7320  150.0270 C   0  0  0  0  0  2  0  0  0  0  0  0
  159.3540  213.7430  149.7350 O   0  0  0  0  0  0  0  0  0  0  0  0
  158.0170  213.6130  150.0980 C   0  0  0  0  0  0  0  0  0  0  0  0
  157.6370  214.0630  151.2110 O   0  0  0  0  0  0  0  0  0  0  0  0
  157.1060  212.9970  149.2340 O   0  0  0  0  0  0  0  0  0  0  0  0
  157.1820  213.1600  147.8320 C   0  0  0  0  0  1  0  0  0  0  0  0
  1 10  1  0  0  0  0
  2  1  1  0  0  0  0
  3  9  2  0  0  0  0
  4 15  1  0  0  0  0
  6  2  1  0  0  0  0
  7 12  2  0  0  0  0
  8  3  1  0  0  0  0
  8  4  2  0  0  0  0
  9 14  1  0  0  0  0
 10  5  2  0  0  0  0
 11 13  1  0  0  0  0
 12  5  1  0  0  0  0
 12 17  1  0  0  0  0
 13  1  2  0  0  0  0
 13  7  1  0  0  0  0
 14 11  1  0  0  0  0
 15  6  1  0  0  0  0
 16  8  1  0  0  0  0
 17 18  2  0  0  0  0
 19 21  2  0  0  0  0
 19 20  1  0  0  0  0
 21 17  1  0  0  0  0
 21 20  1  0  0  0  0
 23 22  1  6  0  0  0
 23 25  1  0  0  0  0
 23  4  1  0  0  0  0
 25 30  1  0  0  0  0
 25 24  1  1  0  0  0
 26 28  2  0  0  0  0
 28 31  1  0  0  0  0
 29 28  1  0  0  0  0
 29 30  1  0  0  0  0
 30 27  2  0  0  0  0
 31 32  2  0  0  0  0
 33 31  1  0  0  0  0
 34  9  1  0  0  0  0
 35 34  1  0  0  0  0
 35 39  1  1  0  0  0
 36 38  1  0  0  0  0
 37 36  1  0  0  0  0
 37 38  1  0  0  0  0
 38 35  1  1  0  0  0
 40 39  1  0  0  0  0
 40 41  1  0  0  0  0
 41 42  2  0  0  0  0
 43 41  1  0  0  0  0
 44 43  1  0  0  0  0
M  END
>  <MODEL>
7

>  <REMARK>
 VINA RESULT:      -5.8      1.595      2.914
  Name = 
  13 active torsions:
  status: ('A' for Active; 'I' for Inactive)
    1  A    between atoms: C_7  and  C_37
    2  A    between atoms: C_9  and  O_12
    3  A    between atoms: C_9  and  O_19
    4  A    between atoms: C_11  and  C_20
    5  A    between atoms: O_12  and  C_34
    6  A    between atoms: C_17  and  C_29
    7  A    between atoms: C_17  and  C_44
    8  A    between atoms: C_21  and  O_41
    9  A    between atoms: C_23  and  C_32
   10  A    between atoms: C_23  and  C_34
   11  A    between atoms: C_23  and  O_41
   12  A    between atoms: C_31  and  C_40
   13  A    between atoms: C_37  and  C_40
                            x       y       z     vdW  Elec       q    Type
                         _______ _______ _______ _____ _____    ______ ____

>  <TORSDO>
F 13

$$$$
=
 OpenBabel11052411113D

 44 47  0  0  1  0  0  0  0  0999 V2000
  161.1900  207.6340  153.5660 C   0  0  0  0  0  0  0  0  0  0  0  0
  161.1570  206.4330  152.8550 O   0  0  0  0  0  0  0  0  0  0  0  0
  161.4760  208.1350  148.6400 N   0  0  0  0  0  0  0  0  0  0  0  0
  161.1080  206.1170  150.0340 C   0  0  0  0  0  0  0  0  0  0  0  0
  161.4240  208.7690  155.7000 C   0  0  0  0  0  3  0  0  0  0  0  0
  162.2220  205.9700  152.1710 O   0  0  0  0  0  0  0  0  0  0  0  0
  160.8850  210.0410  153.7160 C   0  0  0  0  0  3  0  0  0  0  0  0
  160.7850  206.9150  148.9910 C   0  0  0  0  0  0  0  0  0  0  0  0
  162.0520  209.0760  149.3410 C   0  0  0  0  0  0  0  0  0  0  0  0
  161.4420  207.5940  154.9410 C   0  0  0  0  0  3  0  0  0  0  0  0
  160.7100  208.9890  151.4780 C   0  0  0  0  0  2  0  0  0  0  0  0
  161.1400  210.0040  155.0930 C   0  0  0  0  0  0  0  0  0  0  0  0
  160.9050  208.8710  152.9510 C   0  0  0  0  0  0  0  0  0  0  0  0
  162.0850  209.1050  150.8400 C   0  0  0  0  0  2  0  0  0  0  0  0
  162.1190  206.4920  150.9300 O   0  0  0  0  0  0  0  0  0  0  0  0
  159.7540  206.4580  148.0040 C   0  0  0  0  0  1  0  0  0  0  0  0
  161.0890  211.2420  155.8990 C   0  0  0  0  0  0  0  0  0  0  0  0
  161.8850  211.4030  156.9100 N   0  0  0  0  0  2  0  0  0  0  0  0
  159.5070  213.4430  155.9270 N   0  0  0  0  0  0  0  0  0  0  0  0
  159.0690  212.7500  154.8200 N   0  0  0  0  0  2  0  0  0  0  0  0
  160.0910  212.2740  155.6140 C   0  0  0  0  0  0  0  0  0  0  0  0
  159.7760  204.6760  151.5870 C   0  0  0  0  0  1  0  0  0  0  0  0
  160.3990  204.7920  150.2060 C   0  0  2  0  0  3  0  0  0  0  0  0
  162.5690  203.7830  150.4320 O   0  0  0  0  0  1  0  0  0  0  0  0
  161.3060  203.6030  149.8620 C   0  0  2  0  0  3  0  0  0  0  0  0
  163.5130  204.7030  145.7030 O   0  0  0  0  0  0  0  0  0  0  0  0
  160.8280  202.5000  147.7890 O   0  0  0  0  0  0  0  0  0  0  0  0
  162.4000  204.4190  146.2330 C   0  0  0  0  0  0  0  0  0  0  0  0
  162.3320  204.2880  147.6600 N   0  0  0  0  0  2  0  0  0  0  0  0
  161.4600  203.4160  148.3850 C   0  0  0  0  0  0  0  0  0  0  0  0
  161.2050  204.2990  145.3690 C   0  0  0  0  0  0  0  0  0  0  0  0
  160.8370  203.1630  144.9720 O   0  0  0  0  0  0  0  0  0  0  0  0
  160.4650  205.4980  144.8900 C   0  0  0  0  0  1  0  0  0  0  0  0
  162.7040  210.0960  148.6350 O   0  0  0  0  0  0  0  0  0  0  0  0
  162.2530  211.4490  148.6250 C   0  0  1  0  0  3  0  0  0  0  0  0
  163.1270  213.6790  148.1030 C   0  0  0  0  0  2  0  0  0  0  0  0
  164.2110  212.7900  148.2600 O   0  0  0  0  0  0  0  0  0  0  0  0
  163.0550  212.2750  147.6320 C   0  0  1  0  0  3  0  0  0  0  0  0
  160.7830  211.5080  148.2380 C   0  0  0  0  0  2  0  0  0  0  0  0
  160.6700  211.7870  146.8510 O   0  0  0  0  0  0  0  0  0  0  0  0
  159.8160  212.7770  146.3750 C   0  0  0  0  0  0  0  0  0  0  0  0
  160.2870  213.9130  146.0980 O   0  0  0  0  0  0  0  0  0  0  0  0
  158.4550  212.5130  146.1980 O   0  0  0  0  0  0  0  0  0  0  0  0
  157.5360  212.5870  147.2710 C   0  0  0  0  0  1  0  0  0  0  0  0
  1 10  1  0  0  0  0
  2  1  1  0  0  0  0
  3  8  1  0  0  0  0
  3  9  2  0  0  0  0
  4 23  1  0  0  0  0
  4 15  1  0  0  0  0
  6  2  1  0  0  0  0
  7 12  2  0  0  0  0
  8  4  2  0  0  0  0
  9 14  1  0  0  0  0
 10  5  2  0  0  0  0
 11 13  1  0  0  0  0
 12  5  1  0  0  0  0
 12 17  1  0  0  0  0
 13  1  2  0  0  0  0
 13  7  1  0  0  0  0
 14 11  1  0  0  0  0
 15  6  1  0  0  0  0
 16  8  1  0  0  0  0
 17 18  2  0  0  0  0
 20 21  1  0  0  0  0
 20 19  1  0  0  0  0
 21 17  1  0  0  0  0
 21 19  2  0  0  0  0
 23 22  1  1  0  0  0
 25 23  1  0  0  0  0
 25 24  1  1  0  0  0
 26 28  2  0  0  0  0
 27 30  2  0  0  0  0
 28 29  1  0  0  0  0
 29 30  1  0  0  0  0
 30 25  1  0  0  0  0
 31 28  1  0  0  0  0
 32 31  2  0  0  0  0
 33 31  1  0  0  0  0
 34  9  1  0  0  0  0
 35 39  1  6  0  0  0
 35 34  1  0  0  0  0
 36 37  1  0  0  0  0
 38 36  1  0  0  0  0
 38 37  1  0  0  0  0
 38 35  1  1  0  0  0
 40 39  1  0  0  0  0
 41 40  1  0  0  0  0
 42 41  2  0  0  0  0
 43 41  1  0  0  0  0
 43 44  1  0  0  0  0
M  END
>  <MODEL>
8

>  <REMARK>
 VINA RESULT:      -5.7      1.883      2.627
  Name = 
  13 active torsions:
  status: ('A' for Active; 'I' for Inactive)
    1  A    between atoms: C_7  and  C_37
    2  A    between atoms: C_9  and  O_12
    3  A    between atoms: C_9  and  O_19
    4  A    between atoms: C_11  and  C_20
    5  A    between atoms: O_12  and  C_34
    6  A    between atoms: C_17  and  C_29
    7  A    between atoms: C_17  and  C_44
    8  A    between atoms: C_21  and  O_41
    9  A    between atoms: C_23  and  C_32
   10  A    between atoms: C_23  and  C_34
   11  A    between atoms: C_23  and  O_41
   12  A    between atoms: C_31  and  C_40
   13  A    between atoms: C_37  and  C_40
                            x       y       z     vdW  Elec       q    Type
                         _______ _______ _______ _____ _____    ______ ____

>  <TORSDO>
F 13

$$$$
=
 OpenBabel11052411113D

 44 47  0  0  1  0  0  0  0  0999 V2000
  160.9940  205.8070  153.0390 C   0  0  0  0  0  0  0  0  0  0  0  0
  160.9630  206.4510  154.2780 O   0  0  0  0  0  0  0  0  0  0  0  0
  161.4590  210.7410  152.8250 N   0  0  0  0  0  0  0  0  0  0  0  0
  161.3590  209.2170  154.7780 C   0  0  0  0  0  0  0  0  0  0  0  0
  160.6210  203.7840  151.7500 C   0  0  0  0  0  3  0  0  0  0  0  0
  159.9520  207.2600  154.6470 O   0  0  0  0  0  0  0  0  0  0  0  0
  161.5930  205.7250  150.6850 C   0  0  0  0  0  3  0  0  0  0  0  0
  161.9260  210.2380  154.0960 C   0  0  0  0  0  0  0  0  0  0  0  0
  160.9220  210.1740  151.7750 C   0  0  0  0  0  0  0  0  0  0  0  0
  160.5510  204.4830  152.9590 C   0  0  0  0  0  3  0  0  0  0  0  0
  161.9330  207.8630  151.8930 C   0  0  0  0  0  2  0  0  0  0  0  0
  161.1480  204.3990  150.6020 C   0  0  0  0  0  0  0  0  0  0  0  0
  161.5230  206.4310  151.8900 C   0  0  0  0  0  0  0  0  0  0  0  0
  160.6880  208.6990  151.6460 C   0  0  0  0  0  2  0  0  0  0  0  0
  160.2930  208.4960  154.2240 O   0  0  0  0  0  0  0  0  0  0  0  0
  163.0130  211.0430  154.7410 C   0  0  0  0  0  1  0  0  0  0  0  0
  161.2520  203.6520  149.3310 C   0  0  0  0  0  0  0  0  0  0  0  0
  161.1460  202.3600  149.3160 N   0  0  0  0  0  2  0  0  0  0  0  0
  161.4190  205.4360  147.2960 N   0  0  0  0  0  0  0  0  0  0  0  0
  162.1730  204.3720  146.8500 N   0  0  0  0  0  2  0  0  0  0  0  0
  161.5480  204.3520  148.0790 C   0  0  0  0  0  0  0  0  0  0  0  0
  162.3200  207.4400  156.2550 C   0  0  0  0  0  1  0  0  0  0  0  0
  161.8540  208.8840  156.1680 C   0  0  2  0  0  3  0  0  0  0  0  0
  159.7790  208.3160  157.2400 O   0  0  0  0  0  1  0  0  0  0  0  0
  160.8250  209.2420  157.2490 C   0  0  2  0  0  3  0  0  0  0  0  0
  157.0500  212.1540  156.4490 O   0  0  0  0  0  0  0  0  0  0  0  0
  160.9850  211.6330  157.2560 O   0  0  0  0  0  0  0  0  0  0  0  0
  158.2750  211.9660  156.1980 C   0  0  0  0  0  0  0  0  0  0  0  0
  158.8960  210.7610  156.6660 N   0  0  0  0  0  2  0  0  0  0  0  0
  160.2630  210.6160  157.0630 C   0  0  0  0  0  0  0  0  0  0  0  0
  158.9990  212.9630  155.3800 C   0  0  0  0  0  0  0  0  0  0  0  0
  159.4250  212.6410  154.2400 O   0  0  0  0  0  0  0  0  0  0  0  0
  159.3090  214.3230  155.9000 C   0  0  0  0  0  1  0  0  0  0  0  0
  160.5160  211.0130  150.7290 O   0  0  0  0  0  0  0  0  0  0  0  0
  161.0550  212.3170  150.5200 C   0  0  1  0  0  3  0  0  0  0  0  0
  162.6500  212.2150  148.6620 C   0  0  0  0  0  2  0  0  0  0  0  0
  161.5590  211.3690  148.3720 O   0  0  0  0  0  0  0  0  0  0  0  0
  161.2640  212.5810  149.0370 C   0  0  1  0  0  3  0  0  0  0  0  0
  160.1080  213.3690  151.0770 C   0  0  0  0  0  2  0  0  0  0  0  0
  158.7770  212.8800  151.0310 O   0  0  0  0  0  0  0  0  0  0  0  0
  157.6830  213.7400  151.0130 C   0  0  0  0  0  0  0  0  0  0  0  0
  157.2810  214.2420  152.0970 O   0  0  0  0  0  0  0  0  0  0  0  0
  157.0450  214.0490  149.8090 O   0  0  0  0  0  0  0  0  0  0  0  0
  157.6350  213.7570  148.5580 C   0  0  0  0  0  1  0  0  0  0  0  0
  1  2  1  0  0  0  0
  2  6  1  0  0  0  0
  3  8  1  0  0  0  0
  4 23  1  0  0  0  0
  5 10  2  0  0  0  0
  7 13  1  0  0  0  0
  8 16  1  0  0  0  0
  8  4  2  0  0  0  0
  9  3  2  0  0  0  0
 10  1  1  0  0  0  0
 12  7  2  0  0  0  0
 12  5  1  0  0  0  0
 13 11  1  0  0  0  0
 13  1  2  0  0  0  0
 14  9  1  0  0  0  0
 14 11  1  0  0  0  0
 15  6  1  0  0  0  0
 15  4  1  0  0  0  0
 17 12  1  0  0  0  0
 18 17  2  0  0  0  0
 19 21  2  0  0  0  0
 20 19  1  0  0  0  0
 20 21  1  0  0  0  0
 21 17  1  0  0  0  0
 23 22  1  6  0  0  0
 23 25  1  0  0  0  0
 25 24  1  6  0  0  0
 28 26  2  0  0  0  0
 28 29  1  0  0  0  0
 29 30  1  0  0  0  0
 30 25  1  0  0  0  0
 30 27  2  0  0  0  0
 31 33  1  0  0  0  0
 31 28  1  0  0  0  0
 32 31  2  0  0  0  0
 34  9  1  0  0  0  0
 35 34  1  0  0  0  0
 35 39  1  6  0  0  0
 36 38  1  0  0  0  0
 37 36  1  0  0  0  0
 37 38  1  0  0  0  0
 38 35  1  1  0  0  0
 40 39  1  0  0  0  0
 41 40  1  0  0  0  0
 41 42  2  0  0  0  0
 43 41  1  0  0  0  0
 44 43  1  0  0  0  0
M  END
>  <MODEL>
9

>  <REMARK>
 VINA RESULT:      -5.5      3.344      8.473
  Name = 
  13 active torsions:
  status: ('A' for Active; 'I' for Inactive)
    1  A    between atoms: C_7  and  C_37
    2  A    between atoms: C_9  and  O_12
    3  A    between atoms: C_9  and  O_19
    4  A    between atoms: C_11  and  C_20
    5  A    between atoms: O_12  and  C_34
    6  A    between atoms: C_17  and  C_29
    7  A    between atoms: C_17  and  C_44
    8  A    between atoms: C_21  and  O_41
    9  A    between atoms: C_23  and  C_32
   10  A    between atoms: C_23  and  C_34
   11  A    between atoms: C_23  and  O_41
   12  A    between atoms: C_31  and  C_40
   13  A    between atoms: C_37  and  C_40
                            x       y       z     vdW  Elec       q    Type
                         _______ _______ _______ _____ _____    ______ ____

>  <TORSDO>
F 13

$$$$
