=
 OpenBabel11052411303D

 59 64  0  0  1  0  0  0  0  0999 V2000
  161.0800  204.7500  151.8950 C   0  0  0  0  0  3  0  0  0  0  0  0
  161.3530  206.0500  152.1040 C   0  0  0  0  0  0  0  0  0  0  0  0
  162.9460  206.7710  147.2550 Cl  0  0  0  0  0  0  0  0  0  0  0  0
  161.9710  206.7170  149.8020 C   0  0  0  0  0  3  0  0  0  0  0  0
  162.7990  209.3800  151.0760 C   0  0  0  0  0  3  0  0  0  0  0  0
  162.2140  209.8080  149.7840 C   0  0  0  0  0  0  0  0  0  0  0  0
  162.6600  207.5920  148.8140 C   0  0  2  0  0  3  0  0  0  0  0  0
  162.6980  208.1710  151.6500 C   0  0  0  0  0  3  0  0  0  0  0  0
  161.9910  206.9750  151.1170 C   0  0  0  0  0  0  0  0  0  0  0  0
  162.0210  208.9590  148.7550 C   0  0  0  0  0  0  0  0  0  0  0  0
  162.1220  212.1370  148.7550 C   0  0  0  0  0  0  0  0  0  0  0  0
  161.7350  211.1580  149.7260 N   0  0  0  0  0  2  0  0  0  0  0  0
  163.1260  211.9500  148.0180 O   0  0  0  0  0  0  0  0  0  0  0  0
  161.3480  213.4080  148.6410 C   0  0  0  0  0  2  0  0  0  0  0  0
  161.3560  213.1990  144.1760 N   0  0  0  0  0  0  0  0  0  0  0  0
  161.1980  212.6620  141.3830 C   0  0  0  0  0  2  0  0  0  0  0  0
  160.1610  213.2340  147.7440 C   0  0  0  0  0  0  0  0  0  0  0  0
  158.1060  212.8350  147.0510 C   0  0  0  0  0  3  0  0  0  0  0  0
  158.9360  213.0570  145.9660 C   0  0  0  0  0  3  0  0  0  0  0  0
  161.8420  213.9470  141.8940 C   0  0  0  0  0  2  0  0  0  0  0  0
  158.8870  212.9450  148.1900 C   0  0  0  0  0  3  0  0  0  0  0  0
  162.3990  213.7280  143.2990 C   0  0  0  0  0  2  0  0  0  0  0  0
  160.6260  212.0120  143.7300 C   0  0  0  0  0  2  0  0  0  0  0  0
  160.0760  212.2320  142.3230 C   0  0  0  0  0  2  0  0  0  0  0  0
  160.1900  213.2940  146.3960 N   0  0  0  0  0  0  0  0  0  0  0  0
  161.3190  213.6010  145.5570 C   0  0  0  0  0  0  0  0  0  0  0  0
  162.2870  214.2570  146.0360 O   0  0  0  0  0  0  0  0  0  0  0  0
  160.5390  208.4660  146.8140 C   0  0  0  0  0  1  0  0  0  0  0  0
  161.1970  209.3650  147.6930 O   0  0  0  0  0  0  0  0  0  0  0  0
  161.0290  202.2670  148.3960 C   0  0  0  0  0  0  0  0  0  0  0  0
  161.1560  201.4020  147.1910 C   0  0  0  0  0  1  0  0  0  0  0  0
  160.5870  204.5080  149.4880 C   0  0  0  0  0  2  0  0  0  0  0  0
  161.0260  202.5010  150.8850 C   0  0  0  0  0  2  0  0  0  0  0  0
  160.9760  203.7660  148.2100 C   0  0  0  0  0  2  0  0  0  0  0  0
  161.1350  201.7030  149.6120 C   0  0  0  0  0  3  0  0  0  0  0  0
  161.3940  203.9680  150.6640 C   0  0  2  0  0  3  0  0  0  0  0  0
  161.0000  206.5780  153.4630 C   0  0  0  0  0  2  0  0  0  0  0  0
  161.5250  208.3170  155.7750 C   0  0  0  0  0  1  0  0  0  0  0  0
  160.8850  208.8660  154.5890 N   0  0  0  0  0  0  0  0  0  0  0  0
  160.1270  208.5390  152.3990 O   0  0  0  0  0  0  0  0  0  0  0  0
  160.6590  208.0420  153.4310 C   0  0  0  0  0  0  0  0  0  0  0  0
  161.4480  211.0390  153.9210 O   0  0  0  0  0  1  0  0  0  0  0  0
  160.5040  210.2790  154.6170 C   0  0  2  0  0  3  0  0  0  0  0  0
  159.9910  213.2950  156.1680 C   0  0  0  0  0  0  0  0  0  0  0  0
  160.8500  212.1570  156.1730 N   0  0  0  0  0  2  0  0  0  0  0  0
  160.4820  214.4520  156.1250 O   0  0  0  0  0  0  0  0  0  0  0  0
  160.3490  210.7910  156.0540 C   0  0  1  0  0  3  0  0  0  0  0  0
  158.5550  209.6410  157.2600 C   0  0  0  0  0  2  0  0  0  0  0  0
  158.9200  210.6900  156.5300 C   0  0  0  0  0  0  0  0  0  0  0  0
  158.5750  213.1250  156.2320 N   0  0  0  0  0  2  0  0  0  0  0  0
  157.9350  211.8110  156.2980 C   0  0  1  0  0  3  0  0  0  0  0  0
  155.9960  212.7240  154.9610 C   0  0  0  0  0  2  0  0  0  0  0  0
  158.4400  212.2550  153.1230 C   0  0  0  0  0  2  0  0  0  0  0  0
  157.7000  211.1460  153.8100 C   0  0  0  0  0  2  0  0  0  0  0  0
  156.9930  211.5670  155.1120 C   0  0  1  0  0  3  0  0  0  0  0  0
  157.8830  213.3690  152.6400 C   0  0  0  0  0  0  0  0  0  0  0  0
  155.5120  212.9030  153.5280 C   0  0  0  0  0  2  0  0  0  0  0  0
  158.7660  214.3500  151.9610 C   0  0  0  0  0  1  0  0  0  0  0  0
  156.4880  213.6820  152.7750 N   0  0  0  0  0  0  0  0  0  0  0  0
  1  2  2  0  0  0  0
  2 37  1  0  0  0  0
  4  9  2  0  0  0  0
  5  8  2  0  0  0  0
  6  5  1  0  0  0  0
  7  3  1  6  0  0  0
  7  4  1  0  0  0  0
  9  8  1  0  0  0  0
  9  2  1  0  0  0  0
 10  7  1  0  0  0  0
 10  6  2  0  0  0  0
 11 12  1  0  0  0  0
 12  6  1  0  0  0  0
 13 11  2  0  0  0  0
 14 11  1  0  0  0  0
 15 26  1  0  0  0  0
 16 20  1  0  0  0  0
 16 24  1  0  0  0  0
 17 21  2  0  0  0  0
 17 14  1  0  0  0  0
 18 21  1  0  0  0  0
 19 25  1  0  0  0  0
 19 18  2  0  0  0  0
 20 22  1  0  0  0  0
 22 15  1  0  0  0  0
 23 15  1  0  0  0  0
 24 23  1  0  0  0  0
 25 17  1  0  0  0  0
 26 27  2  0  0  0  0
 26 25  1  0  0  0  0
 28 29  1  0  0  0  0
 29 10  1  0  0  0  0
 30 35  2  0  0  0  0
 31 30  1  0  0  0  0
 32 36  1  0  0  0  0
 34 30  1  0  0  0  0
 34 32  1  0  0  0  0
 35 33  1  0  0  0  0
 36 33  1  0  0  0  0
 36  1  1  1  0  0  0
 39 43  1  0  0  0  0
 39 38  1  0  0  0  0
 40 41  2  0  0  0  0
 41 37  1  0  0  0  0
 41 39  1  0  0  0  0
 43 42  1  1  0  0  0
 44 45  1  0  0  0  0
 44 50  1  0  0  0  0
 46 44  2  0  0  0  0
 47 43  1  6  0  0  0
 47 45  1  0  0  0  0
 47 49  1  0  0  0  0
 49 48  2  0  0  0  0
 51 50  1  6  0  0  0
 51 49  1  0  0  0  0
 52 55  1  0  0  0  0
 53 54  1  0  0  0  0
 55 54  1  6  0  0  0
 55 51  1  0  0  0  0
 56 59  2  0  0  0  0
 56 53  1  0  0  0  0
 57 52  1  0  0  0  0
 58 56  1  0  0  0  0
 59 57  1  0  0  0  0
M  END
>  <MODEL>
1

>  <REMARK>
 VINA RESULT:      -3.9      0.000      0.000
  Name = 
  11 active torsions:
  status: ('A' for Active; 'I' for Inactive)
    1  A    between atoms: O_6  and  C_55
    2  A    between atoms: C_12  and  C_40
    3  A    between atoms: N_18  and  C_48
    4  A    between atoms: N_19  and  C_28
    5  A    between atoms: C_20  and  C_40
    6  A    between atoms: C_24  and  C_48
    7  A    between atoms: C_30  and  C_59
    8  A    between atoms: C_32  and  C_57
    9  A    between atoms: C_34  and  C_43
   10  A    between atoms: C_43  and  C_58
   11  A    between atoms: C_51  and  C_58
                            x       y       z     vdW  Elec       q    Type
                         _______ _______ _______ _____ _____    ______ ____

>  <TORSDO>
F 11

$$$$
=
 OpenBabel11052411303D

 59 64  0  0  1  0  0  0  0  0999 V2000
  160.4410  204.2400  151.1070 C   0  0  0  0  0  3  0  0  0  0  0  0
  161.0760  205.3690  151.4660 C   0  0  0  0  0  0  0  0  0  0  0  0
  162.9520  206.1610  146.7300 Cl  0  0  0  0  0  0  0  0  0  0  0  0
  161.8330  206.0720  149.2160 C   0  0  0  0  0  3  0  0  0  0  0  0
  162.6260  208.6960  150.5890 C   0  0  0  0  0  3  0  0  0  0  0  0
  162.1230  209.1580  149.2750 C   0  0  0  0  0  0  0  0  0  0  0  0
  162.5890  206.9550  148.2870 C   0  0  2  0  0  3  0  0  0  0  0  0
  162.4750  207.4780  151.1310 C   0  0  0  0  0  3  0  0  0  0  0  0
  161.7820  206.3040  150.5350 C   0  0  0  0  0  0  0  0  0  0  0  0
  161.9760  208.3330  148.2200 C   0  0  0  0  0  0  0  0  0  0  0  0
  162.1250  211.5090  148.2930 C   0  0  0  0  0  0  0  0  0  0  0  0
  161.6680  210.5160  149.2180 N   0  0  0  0  0  2  0  0  0  0  0  0
  163.1690  211.3220  147.6120 O   0  0  0  0  0  0  0  0  0  0  0  0
  161.3780  212.7950  148.1600 C   0  0  0  0  0  2  0  0  0  0  0  0
  162.2370  213.3220  143.8060 N   0  0  0  0  0  0  0  0  0  0  0  0
  162.6410  213.2450  140.9870 C   0  0  0  0  0  2  0  0  0  0  0  0
  160.3950  212.7290  147.0330 C   0  0  0  0  0  0  0  0  0  0  0  0
  158.5370  212.3780  145.8990 C   0  0  0  0  0  3  0  0  0  0  0  0
  159.5390  212.8040  145.0440 C   0  0  0  0  0  3  0  0  0  0  0  0
  163.0920  214.4500  141.8060 C   0  0  0  0  0  2  0  0  0  0  0  0
  159.0820  212.3270  147.1720 C   0  0  0  0  0  3  0  0  0  0  0  0
  163.3890  214.0240  143.2420 C   0  0  0  0  0  2  0  0  0  0  0  0
  161.6830  212.1990  143.0480 C   0  0  0  0  0  2  0  0  0  0  0  0
  161.3930  212.6280  141.6120 C   0  0  0  0  0  2  0  0  0  0  0  0
  160.6720  213.0110  145.7420 N   0  0  0  0  0  0  0  0  0  0  0  0
  161.9160  213.4900  145.1980 C   0  0  0  0  0  0  0  0  0  0  0  0
  162.7310  214.0920  145.9530 O   0  0  0  0  0  0  0  0  0  0  0  0
  160.3170  207.9480  146.4010 C   0  0  0  0  0  1  0  0  0  0  0  0
  161.2190  208.7730  147.1210 O   0  0  0  0  0  0  0  0  0  0  0  0
  160.6520  201.8570  147.5450 C   0  0  0  0  0  0  0  0  0  0  0  0
  160.6930  201.1510  146.2360 C   0  0  0  0  0  1  0  0  0  0  0  0
  159.5240  202.3960  149.7470 C   0  0  0  0  0  2  0  0  0  0  0  0
  161.7540  203.3540  149.2180 C   0  0  0  0  0  2  0  0  0  0  0  0
  159.3550  201.8690  148.3220 C   0  0  0  0  0  2  0  0  0  0  0  0
  161.7100  202.6000  147.9140 C   0  0  0  0  0  3  0  0  0  0  0  0
  160.3500  203.6770  149.7290 C   0  0  2  0  0  3  0  0  0  0  0  0
  161.0810  205.6750  152.9340 C   0  0  0  0  0  2  0  0  0  0  0  0
  161.5110  206.8190  155.6080 C   0  0  0  0  0  1  0  0  0  0  0  0
  160.9940  207.6590  154.5380 N   0  0  0  0  0  0  0  0  0  0  0  0
  160.3950  207.8770  152.2860 O   0  0  0  0  0  0  0  0  0  0  0  0
  160.8180  207.1300  153.2120 C   0  0  0  0  0  0  0  0  0  0  0  0
  161.5650  209.9030  154.1850 O   0  0  0  0  0  1  0  0  0  0  0  0
  160.6840  209.0530  154.8600 C   0  0  2  0  0  3  0  0  0  0  0  0
  162.5740  210.9210  157.0300 C   0  0  0  0  0  0  0  0  0  0  0  0
  162.1020  209.5940  156.8000 N   0  0  0  0  0  2  0  0  0  0  0  0
  163.7940  211.1240  157.2540 O   0  0  0  0  0  0  0  0  0  0  0  0
  160.7370  209.3060  156.3710 C   0  0  1  0  0  3  0  0  0  0  0  0
  158.5920  210.0850  157.2570 C   0  0  0  0  0  2  0  0  0  0  0  0
  159.7920  210.4080  156.7850 C   0  0  0  0  0  0  0  0  0  0  0  0
  161.6590  212.0170  157.0270 N   0  0  0  0  0  2  0  0  0  0  0  0
  160.2240  211.8540  156.7870 C   0  0  1  0  0  3  0  0  0  0  0  0
  158.6540  211.8750  154.8100 C   0  0  0  0  0  2  0  0  0  0  0  0
  158.1670  214.3570  156.5910 C   0  0  0  0  0  2  0  0  0  0  0  0
  159.4380  214.1250  155.8300 C   0  0  0  0  0  2  0  0  0  0  0  0
  159.7520  212.6410  155.5580 C   0  0  1  0  0  3  0  0  0  0  0  0
  156.9450  214.0180  156.1720 C   0  0  0  0  0  0  0  0  0  0  0  0
  157.7120  212.7930  154.0400 C   0  0  0  0  0  2  0  0  0  0  0  0
  155.7920  214.3510  157.0450 C   0  0  0  0  0  1  0  0  0  0  0  0
  156.6930  213.3170  154.9430 N   0  0  0  0  0  0  0  0  0  0  0  0
  1  2  2  0  0  0  0
  2 37  1  0  0  0  0
  4  9  2  0  0  0  0
  5  8  2  0  0  0  0
  6  5  1  0  0  0  0
  7  3  1  6  0  0  0
  7  4  1  0  0  0  0
  9  8  1  0  0  0  0
  9  2  1  0  0  0  0
 10  7  1  0  0  0  0
 10  6  2  0  0  0  0
 11 12  1  0  0  0  0
 12  6  1  0  0  0  0
 13 11  2  0  0  0  0
 14 11  1  0  0  0  0
 15 26  1  0  0  0  0
 16 24  1  0  0  0  0
 16 20  1  0  0  0  0
 17 21  2  0  0  0  0
 17 14  1  0  0  0  0
 18 21  1  0  0  0  0
 19 25  1  0  0  0  0
 19 18  2  0  0  0  0
 20 22  1  0  0  0  0
 22 15  1  0  0  0  0
 23 15  1  0  0  0  0
 24 23  1  0  0  0  0
 25 17  1  0  0  0  0
 26 25  1  0  0  0  0
 26 27  2  0  0  0  0
 28 29  1  0  0  0  0
 29 10  1  0  0  0  0
 30 35  2  0  0  0  0
 30 34  1  0  0  0  0
 31 30  1  0  0  0  0
 33 36  1  0  0  0  0
 34 32  1  0  0  0  0
 35 33  1  0  0  0  0
 36 32  1  0  0  0  0
 36  1  1  1  0  0  0
 37 41  1  0  0  0  0
 39 43  1  0  0  0  0
 39 38  1  0  0  0  0
 40 41  2  0  0  0  0
 41 39  1  0  0  0  0
 43 42  1  6  0  0  0
 44 46  2  0  0  0  0
 45 44  1  0  0  0  0
 47 43  1  6  0  0  0
 47 49  1  0  0  0  0
 47 45  1  0  0  0  0
 49 48  2  0  0  0  0
 50 44  1  0  0  0  0
 51 49  1  6  0  0  0
 51 50  1  0  0  0  0
 54 53  1  0  0  0  0
 55 52  1  1  0  0  0
 55 54  1  0  0  0  0
 55 51  1  0  0  0  0
 56 53  1  0  0  0  0
 56 58  1  0  0  0  0
 57 52  1  0  0  0  0
 57 59  1  0  0  0  0
 59 56  2  0  0  0  0
M  END
>  <MODEL>
2

>  <REMARK>
 VINA RESULT:      -1.7      1.366      1.997
  Name = 
  11 active torsions:
  status: ('A' for Active; 'I' for Inactive)
    1  A    between atoms: O_6  and  C_55
    2  A    between atoms: C_12  and  C_40
    3  A    between atoms: N_18  and  C_48
    4  A    between atoms: N_19  and  C_28
    5  A    between atoms: C_20  and  C_40
    6  A    between atoms: C_24  and  C_48
    7  A    between atoms: C_30  and  C_59
    8  A    between atoms: C_32  and  C_57
    9  A    between atoms: C_34  and  C_43
   10  A    between atoms: C_43  and  C_58
   11  A    between atoms: C_51  and  C_58
                            x       y       z     vdW  Elec       q    Type
                         _______ _______ _______ _____ _____    ______ ____

>  <TORSDO>
F 11

$$$$
=
 OpenBabel11052411303D

 59 64  0  0  1  0  0  0  0  0999 V2000
  161.1380  205.0490  152.3950 C   0  0  0  0  0  3  0  0  0  0  0  0
  161.4480  206.3560  152.4280 C   0  0  0  0  0  0  0  0  0  0  0  0
  162.9230  206.3820  147.4880 Cl  0  0  0  0  0  0  0  0  0  0  0  0
  162.0000  206.6850  150.0370 C   0  0  0  0  0  3  0  0  0  0  0  0
  162.7680  209.5320  150.8760 C   0  0  0  0  0  3  0  0  0  0  0  0
  162.1450  209.7440  149.5480 C   0  0  0  0  0  0  0  0  0  0  0  0
  162.6410  207.4200  148.9120 C   0  0  2  0  0  3  0  0  0  0  0  0
  162.7160  208.4220  151.6270 C   0  0  0  0  0  3  0  0  0  0  0  0
  162.0380  207.1400  151.2970 C   0  0  0  0  0  0  0  0  0  0  0  0
  161.9590  208.7430  148.6630 C   0  0  0  0  0  0  0  0  0  0  0  0
  162.1710  212.0090  148.3820 C   0  0  0  0  0  0  0  0  0  0  0  0
  161.6230  211.0550  149.2990 N   0  0  0  0  0  2  0  0  0  0  0  0
  163.3260  211.8520  147.9060 O   0  0  0  0  0  0  0  0  0  0  0  0
  161.3790  213.2200  148.0170 C   0  0  0  0  0  2  0  0  0  0  0  0
  162.3100  213.4270  143.6500 N   0  0  0  0  0  0  0  0  0  0  0  0
  162.8120  213.1290  140.8620 C   0  0  0  0  0  2  0  0  0  0  0  0
  160.4470  212.9290  146.8810 C   0  0  0  0  0  0  0  0  0  0  0  0
  158.6820  212.2490  145.7490 C   0  0  0  0  0  3  0  0  0  0  0  0
  159.6540  212.7080  144.8780 C   0  0  0  0  0  3  0  0  0  0  0  0
  163.0910  214.4530  141.5670 C   0  0  0  0  0  2  0  0  0  0  0  0
  159.1880  212.3850  147.0320 C   0  0  0  0  0  3  0  0  0  0  0  0
  163.3890  214.2050  143.0440 C   0  0  0  0  0  2  0  0  0  0  0  0
  161.9190  212.1780  142.9960 C   0  0  0  0  0  2  0  0  0  0  0  0
  161.6270  212.4290  141.5190 C   0  0  0  0  0  2  0  0  0  0  0  0
  160.7310  213.1160  145.5750 N   0  0  0  0  0  0  0  0  0  0  0  0
  161.9260  213.6880  145.0120 C   0  0  0  0  0  0  0  0  0  0  0  0
  162.6400  214.4530  145.7200 O   0  0  0  0  0  0  0  0  0  0  0  0
  160.6610  207.9360  146.6970 C   0  0  0  0  0  1  0  0  0  0  0  0
  161.1020  208.9610  147.5730 O   0  0  0  0  0  0  0  0  0  0  0  0
  160.9160  201.9730  149.4120 C   0  0  0  0  0  0  0  0  0  0  0  0
  160.9800  200.9310  148.3500 C   0  0  0  0  0  1  0  0  0  0  0  0
  160.2170  204.2600  150.2450 C   0  0  0  0  0  2  0  0  0  0  0  0
  161.3840  202.6780  151.7650 C   0  0  0  0  0  2  0  0  0  0  0  0
  160.4870  203.3720  149.0310 C   0  0  0  0  0  2  0  0  0  0  0  0
  161.4010  201.6850  150.6320 C   0  0  0  0  0  3  0  0  0  0  0  0
  161.3540  204.1180  151.2510 C   0  0  2  0  0  3  0  0  0  0  0  0
  161.1960  207.0530  153.7320 C   0  0  0  0  0  2  0  0  0  0  0  0
  160.6720  208.8460  156.0030 C   0  0  0  0  0  1  0  0  0  0  0  0
  160.1640  209.1860  154.6820 N   0  0  0  0  0  0  0  0  0  0  0  0
  160.0220  208.6650  152.4050 O   0  0  0  0  0  0  0  0  0  0  0  0
  160.4460  208.3440  153.5500 C   0  0  0  0  0  0  0  0  0  0  0  0
  158.6260  210.3760  153.3770 O   0  0  0  0  0  1  0  0  0  0  0  0
  159.3790  210.4150  154.5540 C   0  0  2  0  0  3  0  0  0  0  0  0
  159.2580  213.6260  153.3540 C   0  0  0  0  0  0  0  0  0  0  0  0
  160.0840  212.4630  153.3800 N   0  0  0  0  0  2  0  0  0  0  0  0
  159.0110  214.1960  152.2620 O   0  0  0  0  0  0  0  0  0  0  0  0
  160.2750  211.6590  154.5830 C   0  0  1  0  0  3  0  0  0  0  0  0
  160.8650  212.3220  156.8650 C   0  0  0  0  0  2  0  0  0  0  0  0
  160.0460  212.4790  155.8300 C   0  0  0  0  0  0  0  0  0  0  0  0
  158.7300  214.1580  154.5700 N   0  0  0  0  0  2  0  0  0  0  0  0
  158.9880  213.5560  155.8790 C   0  0  1  0  0  3  0  0  0  0  0  0
  156.9350  214.3300  157.1280 C   0  0  0  0  0  2  0  0  0  0  0  0
  156.1170  212.7380  154.6050 C   0  0  0  0  0  3  0  0  0  0  0  0
  156.8370  212.1250  155.7700 C   0  0  0  0  0  2  0  0  0  0  0  0
  157.6950  213.1170  156.5770 C   0  0  1  0  0  3  0  0  0  0  0  0
  155.1960  213.7020  154.6890 C   0  0  0  0  0  0  0  0  0  0  0  0
  155.4330  214.0930  157.2230 C   0  0  0  0  0  2  0  0  0  0  0  0
  154.5640  214.1710  153.4310 C   0  0  0  0  0  1  0  0  0  0  0  0
  154.8170  214.3310  155.9230 N   0  0  0  0  0  2  0  0  0  0  0  0
  1  2  2  0  0  0  0
  2 37  1  0  0  0  0
  4  9  2  0  0  0  0
  5  8  2  0  0  0  0
  6  5  1  0  0  0  0
  7  3  1  6  0  0  0
  7  4  1  0  0  0  0
  9  8  1  0  0  0  0
  9  2  1  0  0  0  0
 10  7  1  0  0  0  0
 10  6  2  0  0  0  0
 11 12  1  0  0  0  0
 12  6  1  0  0  0  0
 13 11  2  0  0  0  0
 14 11  1  0  0  0  0
 15 26  1  0  0  0  0
 16 24  1  0  0  0  0
 16 20  1  0  0  0  0
 17 21  2  0  0  0  0
 17 14  1  0  0  0  0
 18 21  1  0  0  0  0
 19 25  1  0  0  0  0
 19 18  2  0  0  0  0
 20 22  1  0  0  0  0
 22 15  1  0  0  0  0
 23 15  1  0  0  0  0
 24 23  1  0  0  0  0
 25 17  1  0  0  0  0
 26 25  1  0  0  0  0
 26 27  2  0  0  0  0
 28 29  1  0  0  0  0
 29 10  1  0  0  0  0
 30 35  2  0  0  0  0
 31 30  1  0  0  0  0
 32 36  1  0  0  0  0
 34 30  1  0  0  0  0
 34 32  1  0  0  0  0
 35 33  1  0  0  0  0
 36 33  1  0  0  0  0
 36  1  1  1  0  0  0
 39 38  1  0  0  0  0
 40 41  2  0  0  0  0
 41 37  1  0  0  0  0
 41 39  1  0  0  0  0
 43 42  1  6  0  0  0
 43 39  1  0  0  0  0
 44 45  1  0  0  0  0
 44 50  1  0  0  0  0
 45 47  1  0  0  0  0
 46 44  2  0  0  0  0
 47 43  1  6  0  0  0
 47 49  1  0  0  0  0
 49 51  1  0  0  0  0
 49 48  2  0  0  0  0
 51 50  1  6  0  0  0
 51 55  1  0  0  0  0
 52 57  1  0  0  0  0
 53 56  2  0  0  0  0
 53 54  1  0  0  0  0
 55 54  1  6  0  0  0
 55 52  1  0  0  0  0
 56 59  1  0  0  0  0
 58 56  1  0  0  0  0
 59 57  1  0  0  0  0
M  END
>  <MODEL>
3

>  <REMARK>
 VINA RESULT:      -1.4      1.354      1.806
  Name = 
  11 active torsions:
  status: ('A' for Active; 'I' for Inactive)
    1  A    between atoms: O_6  and  C_55
    2  A    between atoms: C_12  and  C_40
    3  A    between atoms: N_18  and  C_48
    4  A    between atoms: N_19  and  C_28
    5  A    between atoms: C_20  and  C_40
    6  A    between atoms: C_24  and  C_48
    7  A    between atoms: C_30  and  C_59
    8  A    between atoms: C_32  and  C_57
    9  A    between atoms: C_34  and  C_43
   10  A    between atoms: C_43  and  C_58
   11  A    between atoms: C_51  and  C_58
                            x       y       z     vdW  Elec       q    Type
                         _______ _______ _______ _____ _____    ______ ____

>  <TORSDO>
F 11

$$$$
