=
 OpenBabel11052410033D

 68 74  0  0  1  0  0  0  0  0999 V2000
  161.5960  213.5480  146.8250 C   0  0  0  0  0  0  0  0  0  0  0  0
  163.1300  212.8400  142.8510 C   0  0  0  0  0  2  0  0  0  0  0  0
  161.4030  212.6220  140.2300 C   0  0  0  0  0  0  0  0  0  0  0  0
  158.9440  212.4670  143.6730 O   0  0  0  0  0  0  0  0  0  0  0  0
  163.4690  214.0400  143.7170 C   0  0  0  0  0  2  0  0  0  0  0  0
  158.0240  213.3270  143.6360 C   0  0  0  0  0  0  0  0  0  0  0  0
  160.6090  213.6830  140.0750 C   0  0  0  0  0  3  0  0  0  0  0  0
  159.7810  214.2830  141.1660 C   0  0  0  0  0  2  0  0  0  0  0  0
  158.3850  213.6610  141.1550 C   0  0  1  0  0  3  0  0  0  0  0  0
  159.2740  213.3170  146.2360 N   0  0  0  0  0  2  0  0  0  0  0  0
  157.2770  213.6820  144.8590 C   0  0  0  0  0  0  0  0  0  0  0  0
  157.1040  213.9990  147.2610 C   0  0  0  0  0  0  0  0  0  0  0  0
  157.6850  213.9530  142.3980 N   0  0  0  0  0  2  0  0  0  0  0  0
  155.2360  214.4530  145.8080 C   0  0  0  0  0  3  0  0  0  0  0  0
  161.6280  212.0140  141.5110 N   0  0  0  0  0  2  0  0  0  0  0  0
  160.1920  213.8810  147.2130 C   0  0  0  0  0  2  0  0  0  0  0  0
  162.0200  213.9440  145.6660 N   0  0  0  0  0  0  0  0  0  0  0  0
  163.3670  213.6800  145.1870 C   0  0  0  0  0  2  0  0  0  0  0  0
  157.8830  213.6490  146.1350 C   0  0  0  0  0  0  0  0  0  0  0  0
  157.6270  213.9130  148.6560 C   0  0  0  0  0  1  0  0  0  0  0  0
  155.7800  214.4000  147.0900 C   0  0  0  0  0  3  0  0  0  0  0  0
  155.9880  214.0990  144.7360 N   0  0  0  0  0  0  0  0  0  0  0  0
  161.7510  212.7420  142.6490 O   0  0  0  0  0  0  0  0  0  0  0  0
  162.4660  210.5630  139.1250 C   0  0  0  0  0  2  0  0  0  0  0  0
  161.3830  209.5440  139.5070 C   0  0  2  0  0  3  0  0  0  0  0  0
  159.9690  211.5430  137.5390 C   0  0  0  0  0  2  0  0  0  0  0  0
  161.8740  208.2550  139.3020 O   0  0  0  0  0  1  0  0  0  0  0  0
  160.0560  209.7070  138.7620 C   0  0  0  0  0  2  0  0  0  0  0  0
  160.2540  210.1760  137.4590 O   0  0  0  0  0  0  0  0  0  0  0  0
  161.2570  212.3420  137.6980 C   0  0  0  0  0  2  0  0  0  0  0  0
  162.0060  212.0210  138.9970 C   0  0  1  0  0  3  0  0  0  0  0  0
  158.2120  214.4530  138.7530 N   0  0  0  0  0  1  0  0  0  0  0  0
  157.5850  214.1730  140.0000 C   0  0  0  0  0  0  0  0  0  0  0  0
  156.3450  214.3450  140.1290 O   0  0  0  0  0  0  0  0  0  0  0  0
  162.4370  212.7970  147.6670 O   0  0  0  0  0  0  0  0  0  0  0  0
  162.0350  212.2500  148.8730 N   0  0  0  0  0  0  0  0  0  0  0  0
  160.9420  211.9570  150.6600 C   0  0  0  0  0  0  0  0  0  0  0  0
  161.0000  212.7180  149.5550 N   0  0  0  0  0  2  0  0  0  0  0  0
  162.6320  211.2290  149.4760 N   0  0  0  0  0  0  0  0  0  0  0  0
  161.9430  211.0090  150.6110 C   0  0  0  0  0  0  0  0  0  0  0  0
  160.1100  212.1260  151.5890 O   0  0  0  0  0  0  0  0  0  0  0  0
  162.7160  208.8000  151.0990 O   0  0  0  0  0  1  0  0  0  0  0  0
  162.3610  210.0250  151.6700 C   0  0  2  0  0  3  0  0  0  0  0  0
  161.3420  209.8340  152.7020 N   0  0  0  0  0  2  0  0  0  0  0  0
  160.6640  208.6250  152.4590 N   0  0  0  0  0  2  0  0  0  0  0  0
  161.4890  207.5530  153.0080 C   0  0  2  0  0  3  0  0  0  0  0  0
  161.1600  206.2150  152.3550 C   0  0  2  0  0  3  0  0  0  0  0  0
  162.3980  205.3430  152.3550 C   0  0  0  0  0  2  0  0  0  0  0  0
  161.9720  206.0430  151.0780 C   0  0  1  0  0  3  0  0  0  0  0  0
  159.9650  201.3830  147.2330 C   0  0  0  0  0  1  0  0  0  0  0  0
  160.9320  207.1740  148.5650 C   0  0  0  0  0  2  0  0  0  0  0  0
  160.8520  205.6730  148.8030 C   0  0  0  0  0  0  0  0  0  0  0  0
  160.3390  204.2440  150.6860 O   0  0  0  0  0  0  0  0  0  0  0  0
  160.9450  200.4970  149.6480 S   0  0  0  0  0  0  0  0  0  0  0  0
  162.1870  203.2130  146.7810 C   0  0  0  0  0  2  0  0  0  0  0  0
  159.6290  206.5440  149.0230 C   0  0  0  0  0  2  0  0  0  0  0  0
  161.9530  204.6840  147.0920 C   0  0  2  0  0  3  0  0  0  0  0  0
  160.8920  202.9680  150.8300 C   0  0  0  0  0  2  0  0  0  0  0  0
  161.2780  201.1510  147.9710 C   0  0  2  0  0  3  0  0  0  0  0  0
  159.9710  201.9350  150.2120 C   0  0  0  0  0  2  0  0  0  0  0  0
  161.3570  205.0170  150.1040 C   0  0  2  0  0  3  0  0  0  0  0  0
  162.1420  202.4080  148.0700 C   0  0  0  0  0  2  0  0  0  0  0  0
  160.6820  204.8620  147.6660 O   0  0  0  0  0  0  0  0  0  0  0  0
  162.0700  205.4800  145.8300 C   0  0  0  0  0  0  0  0  0  0  0  0
  160.9840  206.2200  145.3820 O   0  0  0  0  0  1  0  0  0  0  0  0
  163.1560  205.5120  145.1920 O   0  0  0  0  0  0  0  0  0  0  0  0
  160.1600  207.0450  154.6750 O   0  0  0  0  0  1  0  0  0  0  0  0
  161.3770  207.4830  154.4110 O   0  0  0  0  0  0  0  0  0  0  0  0
  1 16  1  0  0  0  0
  1 35  1  0  0  0  0
  2  5  1  0  0  0  0
  3 15  1  0  0  0  0
  5 18  1  0  0  0  0
  6  4  2  0  0  0  0
  6 11  1  0  0  0  0
  7  3  2  0  0  0  0
  7  8  1  0  0  0  0
  9 33  1  6  0  0  0
  9  8  1  0  0  0  0
  9 13  1  0  0  0  0
 10 16  1  0  0  0  0
 11 19  1  0  0  0  0
 12 20  1  0  0  0  0
 13  6  1  0  0  0  0
 14 21  2  0  0  0  0
 15 23  1  0  0  0  0
 17  1  2  0  0  0  0
 18 17  1  0  0  0  0
 19 10  1  0  0  0  0
 19 12  2  0  0  0  0
 21 12  1  0  0  0  0
 22 11  2  0  0  0  0
 22 14  1  0  0  0  0
 23  2  1  0  0  0  0
 24 25  1  0  0  0  0
 25 27  1  6  0  0  0
 26 30  1  0  0  0  0
 28 25  1  0  0  0  0
 29 26  1  0  0  0  0
 29 28  1  0  0  0  0
 30 31  1  0  0  0  0
 31 24  1  0  0  0  0
 31  3  1  1  0  0  0
 32 33  1  0  0  0  0
 33 34  2  0  0  0  0
 35 36  1  0  0  0  0
 36 39  1  0  0  0  0
 36 38  1  0  0  0  0
 37 41  2  0  0  0  0
 38 37  1  0  0  0  0
 39 40  2  0  0  0  0
 40 37  1  0  0  0  0
 40 43  1  0  0  0  0
 43 42  1  6  0  0  0
 43 44  1  0  0  0  0
 45 44  1  0  0  0  0
 46 45  1  6  0  0  0
 46 68  1  0  0  0  0
 47 46  1  1  0  0  0
 48 47  1  0  0  0  0
 49 48  1  1  0  0  0
 49 47  1  0  0  0  0
 51 52  1  0  0  0  0
 51 56  1  0  0  0  0
 52 56  1  0  0  0  0
 52 61  1  0  0  0  0
 53 58  1  0  0  0  0
 54 60  1  0  0  0  0
 55 57  1  0  0  0  0
 55 62  1  0  0  0  0
 57 64  1  6  0  0  0
 57 63  1  0  0  0  0
 59 50  1  1  0  0  0
 59 62  1  0  0  0  0
 59 54  1  0  0  0  0
 60 58  1  0  0  0  0
 61 53  1  1  0  0  0
 61 49  1  0  0  0  0
 63 52  1  0  0  0  0
 65 64  1  0  0  0  0
 66 64  2  0  0  0  0
 68 67  1  0  0  0  0
M  END
>  <MODEL>
1

>  <REMARK>
 VINA RESULT:      -4.1      0.000      0.000
  Name = 
  12 active torsions:
  status: ('A' for Active; 'I' for Inactive)
    1  A    between atoms: N_2  and  C_56
    2  A    between atoms: N_2  and  N_68
    3  A    between atoms: C_3  and  C_30
    4  A    between atoms: N_5  and  O_53
    5  A    between atoms: C_6  and  O_53
    6  A    between atoms: C_9  and  C_66
    7  A    between atoms: C_11  and  C_60
    8  A    between atoms: C_25  and  C_34
    9  A    between atoms: C_48  and  C_56
   10  A    between atoms: C_51  and  C_61
   11  A    between atoms: O_63  and  C_66
   12  A    between atoms: C_66  and  N_68
                            x       y       z     vdW  Elec       q    Type
                         _______ _______ _______ _____ _____    ______ ____

>  <TORSDO>
F 12

$$$$
