=
 OpenBabel11042422543D

 54 59  0  0  1  0  0  0  0  0999 V2000
  162.0500  211.1380  152.8010 C   0  0  0  0  0  2  0  0  0  0  0  0
  159.4530  212.3730  152.7750 C   0  0  0  0  0  2  0  0  0  0  0  0
  161.0510  210.5900  151.7740 C   0  0  2  0  0  3  0  0  0  0  0  0
  159.4000  212.1910  155.2340 C   0  0  2  0  0  3  0  0  0  0  0  0
  158.9780  209.8950  156.1930 N   0  0  0  0  0  2  0  0  0  0  0  0
  161.5280  208.3630  154.0210 C   0  0  0  0  0  0  0  0  0  0  0  0
  159.7280  208.9060  155.4820 C   0  0  0  0  0  0  0  0  0  0  0  0
  160.1100  212.3190  150.3640 C   0  0  0  0  0  2  0  0  0  0  0  0
  159.2410  207.6020  155.4040 C   0  0  0  0  0  3  0  0  0  0  0  0
  161.0760  207.0310  153.9300 C   0  0  0  0  0  0  0  0  0  0  0  0
  160.8560  209.2490  154.8080 N   0  0  0  0  0  0  0  0  0  0  0  0
  161.7100  210.4960  150.4030 C   0  0  0  0  0  2  0  0  0  0  0  0
  163.1150  210.1260  153.2310 C   0  0  0  0  0  2  0  0  0  0  0  0
  160.9010  211.3880  149.4710 C   0  0  2  0  0  3  0  0  0  0  0  0
  159.8190  211.4860  151.5880 C   0  0  2  0  0  3  0  0  0  0  0  0
  158.9240  211.5510  153.9350 C   0  0  0  0  0  2  0  0  0  0  0  0
  159.9280  206.6630  154.6380 C   0  0  0  0  0  3  0  0  0  0  0  0
  159.4560  211.2520  156.4470 C   0  0  2  0  0  3  0  0  0  0  0  0
  162.6320  208.7820  153.2700 O   0  0  0  0  0  0  0  0  0  0  0  0
  158.2900  212.2090  156.2650 C   0  0  1  0  0  3  0  0  0  0  0  0
  161.7700  212.1420  148.5100 C   0  0  0  0  0  0  0  0  0  0  0  0
  163.5270  212.7270  147.3700 N   0  0  0  0  0  0  0  0  0  0  0  0
  161.3480  213.0720  147.5830 C   0  0  0  0  0  0  0  0  0  0  0  0
  163.1010  211.9570  148.3640 N   0  0  0  0  0  2  0  0  0  0  0  0
  162.4730  213.4020  146.8680 C   0  0  0  0  0  0  0  0  0  0  0  0
  160.0150  213.5270  147.3440 N   0  0  0  0  0  2  0  0  0  0  0  0
  159.1450  212.8820  146.4080 C   0  0  0  0  0  0  0  0  0  0  0  0
  159.4810  211.7840  145.8810 O   0  0  0  0  0  0  0  0  0  0  0  0
  157.8160  213.4920  146.0960 C   0  0  0  0  0  3  0  0  0  0  0  0
  157.9290  214.4340  144.9120 C   0  0  0  0  0  1  0  0  0  0  0  0
  157.2750  214.2370  147.3040 C   0  0  0  0  0  1  0  0  0  0  0  0
  162.5600  214.3730  145.7420 C   0  0  0  0  0  2  0  0  0  0  0  0
  162.9350  213.6570  144.4570 C   0  0  0  0  0  2  0  0  0  0  0  0
  161.1680  213.5860  142.8550 O   0  0  0  0  0  1  0  0  0  0  0  0
  161.7470  212.8860  143.9140 C   0  0  0  0  0  2  0  0  0  0  0  0
  161.3880  204.6830  153.4880 O   0  0  0  0  0  1  0  0  0  0  0  0
  161.7930  205.9740  153.1350 C   0  0  1  0  0  3  0  0  0  0  0  0
  161.6830  206.1870  151.6240 C   0  0  0  0  0  2  0  0  0  0  0  0
  162.2670  205.0260  150.8330 C   0  0  0  0  0  2  0  0  0  0  0  0
  161.1600  204.5200  149.5310 S   0  0  0  0  0  0  0  0  0  0  0  0
  161.1480  203.0180  149.4430 O   0  0  0  0  0  0  0  0  0  0  0  0
  159.7790  204.9990  149.8820 O   0  0  0  0  0  0  0  0  0  0  0  0
  160.0690  205.5870  145.1400 C   0  0  0  0  0  2  0  0  0  0  0  0
  161.6480  205.2250  147.9600 C   0  0  2  0  0  3  0  0  0  0  0  0
  161.1630  203.5040  146.0780 C   0  0  0  0  0  2  0  0  0  0  0  0
  160.7870  206.4890  146.0300 N   0  0  0  0  0  2  0  0  0  0  0  0
  160.4920  206.0470  147.3840 C   0  0  0  0  0  2  0  0  0  0  0  0
  163.3100  204.5990  146.3230 O   0  0  0  0  0  1  0  0  0  0  0  0
  162.1960  204.1320  147.0250 C   0  0  1  0  0  3  0  0  0  0  0  0
  160.9080  204.3520  144.8310 C   0  0  0  0  0  2  0  0  0  0  0  0
  158.4580  213.3800  157.1120 N   0  0  0  0  0  2  0  0  0  0  0  0
  156.2560  213.5810  157.2510 O   0  0  0  0  0  1  0  0  0  0  0  0
  157.3780  214.2450  156.8760 N   0  0  0  0  0  0  0  0  0  0  0  0
  157.2750  214.4400  155.1470 Cl  0  0  0  0  0  0  0  0  0  0  0  0
  1 13  1  0  0  0  0
  2 16  1  0  0  0  0
  3 12  1  6  0  0  0
  3  1  1  0  0  0  0
  4 16  1  6  0  0  0
  4 20  1  0  0  0  0
  4 18  1  0  0  0  0
  6 11  2  0  0  0  0
  7  5  1  0  0  0  0
  9  7  2  0  0  0  0
 10  6  1  0  0  0  0
 10 17  2  0  0  0  0
 11  7  1  0  0  0  0
 13 19  1  0  0  0  0
 14 21  1  6  0  0  0
 14  8  1  0  0  0  0
 14 12  1  0  0  0  0
 15  8  1  6  0  0  0
 15  3  1  0  0  0  0
 15  2  1  0  0  0  0
 17  9  1  0  0  0  0
 18  5  1  6  0  0  0
 19  6  1  0  0  0  0
 20 18  1  0  0  0  0
 20 51  1  1  0  0  0
 22 24  1  0  0  0  0
 23 21  2  0  0  0  0
 24 21  1  0  0  0  0
 25 22  2  0  0  0  0
 25 23  1  0  0  0  0
 26 23  1  0  0  0  0
 27 26  1  0  0  0  0
 28 27  2  0  0  0  0
 29 27  1  0  0  0  0
 29 31  1  0  0  0  0
 30 29  1  0  0  0  0
 32 25  1  0  0  0  0
 33 32  1  0  0  0  0
 34 35  1  0  0  0  0
 35 33  1  0  0  0  0
 37 36  1  6  0  0  0
 37 10  1  0  0  0  0
 38 37  1  0  0  0  0
 39 38  1  0  0  0  0
 40 42  2  0  0  0  0
 40 39  1  0  0  0  0
 41 40  2  0  0  0  0
 43 46  1  0  0  0  0
 44 40  1  1  0  0  0
 45 49  1  0  0  0  0
 46 47  1  0  0  0  0
 47 44  1  0  0  0  0
 49 48  1  6  0  0  0
 49 44  1  0  0  0  0
 50 43  1  0  0  0  0
 50 45  1  0  0  0  0
 53 51  1  0  0  0  0
 53 52  1  0  0  0  0
 54 53  1  0  0  0  0
M  END
>  <MODEL>
1

>  <REMARK>
 VINA RESULT:      -3.0      0.000      0.000
  Name = 
  13 active torsions:
  status: ('A' for Active; 'I' for Inactive)
    1  A    between atoms: C_1  and  C_39
    2  A    between atoms: S_4  and  C_20
    3  A    between atoms: S_4  and  C_27
    4  A    between atoms: C_6  and  C_27
    5  A    between atoms: C_6  and  C_37
    6  A    between atoms: C_10  and  C_47
    7  A    between atoms: C_13  and  N_46
    8  A    between atoms: C_15  and  C_43
    9  A    between atoms: N_18  and  N_30
   10  A    between atoms: N_18  and  C_51
   11  A    between atoms: C_26  and  C_43
   12  A    between atoms: C_26  and  C_54
   13  A    between atoms: C_33  and  C_37
                            x       y       z     vdW  Elec       q    Type
                         _______ _______ _______ _____ _____    ______ ____

>  <TORSDO>
F 13

$$$$
=
 OpenBabel11042422543D

 54 59  0  0  1  0  0  0  0  0999 V2000
  162.2660  210.2280  150.8410 C   0  0  0  0  0  2  0  0  0  0  0  0
  161.8170  209.8110  148.0310 C   0  0  0  0  0  2  0  0  0  0  0  0
  160.9390  209.5610  150.4600 C   0  0  2  0  0  3  0  0  0  0  0  0
  162.5550  212.1290  147.6230 C   0  0  2  0  0  3  0  0  0  0  0  0
  160.9350  213.9620  148.2390 N   0  0  0  0  0  0  0  0  0  0  0  0
  160.3220  212.4990  151.5630 C   0  0  0  0  0  0  0  0  0  0  0  0
  160.3170  213.6870  149.4990 C   0  0  0  0  0  0  0  0  0  0  0  0
  161.2360  207.6090  149.0600 C   0  0  0  0  0  2  0  0  0  0  0  0
  159.0360  214.1710  149.7550 C   0  0  0  0  0  3  0  0  0  0  0  0
  159.0330  212.9830  151.8650 C   0  0  2  0  0  3  0  0  0  0  0  0
  160.9300  212.8830  150.4070 N   0  0  0  0  0  0  0  0  0  0  0  0
  160.7110  208.3210  151.3180 C   0  0  0  0  0  2  0  0  0  0  0  0
  162.2190  210.9880  152.1690 C   0  0  0  0  0  2  0  0  0  0  0  0
  160.6190  207.1420  150.3590 C   0  0  2  0  0  3  0  0  0  0  0  0
  160.8980  209.0770  149.0040 C   0  0  2  0  0  3  0  0  0  0  0  0
  161.3360  211.2290  147.7810 C   0  0  0  0  0  2  0  0  0  0  0  0
  158.4020  213.8280  150.9480 C   0  0  0  0  0  3  0  0  0  0  0  0
  162.3170  213.6170  147.9170 C   0  0  2  0  0  3  0  0  0  0  0  0
  160.9520  211.5960  152.4260 O   0  0  0  0  0  0  0  0  0  0  0  0
  162.3590  213.1100  146.4850 C   0  0  1  0  0  3  0  0  0  0  0  0
  161.3010  205.9190  150.8940 C   0  0  0  0  0  0  0  0  0  0  0  0
  162.3140  204.5870  152.2820 N   0  0  0  0  0  0  0  0  0  0  0  0
  161.3670  204.6850  150.2810 C   0  0  0  0  0  0  0  0  0  0  0  0
  161.8920  205.8330  152.1070 N   0  0  0  0  0  2  0  0  0  0  0  0
  161.9900  203.8660  151.1900 C   0  0  0  0  0  0  0  0  0  0  0  0
  160.8230  204.3070  149.0160 N   0  0  0  0  0  2  0  0  0  0  0  0
  161.4680  204.6300  147.7790 C   0  0  0  0  0  0  0  0  0  0  0  0
  162.6310  205.1240  147.7800 O   0  0  0  0  0  0  0  0  0  0  0  0
  160.7760  204.3350  146.4870 C   0  0  0  0  0  3  0  0  0  0  0  0
  161.3790  203.1070  145.8300 C   0  0  0  0  0  1  0  0  0  0  0  0
  160.8690  205.5260  145.5480 C   0  0  0  0  0  1  0  0  0  0  0  0
  162.3080  202.4210  151.0150 C   0  0  0  0  0  2  0  0  0  0  0  0
  161.0460  201.5860  151.1330 C   0  0  0  0  0  2  0  0  0  0  0  0
  159.6490  201.5030  149.2010 O   0  0  0  0  0  1  0  0  0  0  0  0
  160.7420  200.8950  149.8180 C   0  0  0  0  0  2  0  0  0  0  0  0
  157.0410  213.2340  153.1970 O   0  0  0  0  0  1  0  0  0  0  0  0
  158.3150  212.6600  153.1480 C   0  0  1  0  0  3  0  0  0  0  0  0
  158.2490  211.1590  153.4330 C   0  0  0  0  0  2  0  0  0  0  0  0
  157.5100  210.8480  154.7260 C   0  0  0  0  0  2  0  0  0  0  0  0
  158.3040  211.6280  156.1180 S   0  0  0  0  0  0  0  0  0  0  0  0
  158.6680  213.0430  155.7560 O   0  0  0  0  0  0  0  0  0  0  0  0
  157.3250  211.6530  157.2590 O   0  0  0  0  0  0  0  0  0  0  0  0
  162.5080  209.9630  155.0400 C   0  0  0  0  0  2  0  0  0  0  0  0
  159.7660  210.7240  156.6150 C   0  0  2  0  0  3  0  0  0  0  0  0
  160.2350  208.8590  154.8710 C   0  0  0  0  0  2  0  0  0  0  0  0
  162.2060  210.6250  156.3020 N   0  0  0  0  0  2  0  0  0  0  0  0
  161.0140  211.4230  156.0700 C   0  0  0  0  0  2  0  0  0  0  0  0
  160.1380  208.4240  157.2520 O   0  0  0  0  0  1  0  0  0  0  0  0
  159.6370  209.2380  156.2340 C   0  0  1  0  0  3  0  0  0  0  0  0
  161.7480  208.6460  154.9260 C   0  0  0  0  0  2  0  0  0  0  0  0
  163.6540  213.3930  145.8840 N   0  0  0  0  0  2  0  0  0  0  0  0
  164.1740  214.0870  143.8460 O   0  0  0  0  0  1  0  0  0  0  0  0
  163.5800  213.0710  144.5200 N   0  0  0  0  0  0  0  0  0  0  0  0
  161.8900  213.1260  144.0960 Cl  0  0  0  0  0  0  0  0  0  0  0  0
  1 13  1  0  0  0  0
  3  1  1  1  0  0  0
  3 12  1  0  0  0  0
  4 16  1  1  0  0  0
  4 18  1  0  0  0  0
  5  7  2  0  0  0  0
  6 10  1  0  0  0  0
  6 19  1  0  0  0  0
  7  9  1  0  0  0  0
  7 11  1  0  0  0  0
  8 14  1  0  0  0  0
  9 17  2  0  0  0  0
 10 37  1  1  0  0  0
 11  6  2  0  0  0  0
 13 19  1  0  0  0  0
 14 21  1  1  0  0  0
 14 12  1  0  0  0  0
 15  2  1  6  0  0  0
 15  8  1  0  0  0  0
 15  3  1  0  0  0  0
 16  2  1  0  0  0  0
 17 10  1  0  0  0  0
 18  5  1  1  0  0  0
 20 51  1  6  0  0  0
 20  4  1  0  0  0  0
 20 18  1  0  0  0  0
 21 24  1  0  0  0  0
 23 21  2  0  0  0  0
 23 25  1  0  0  0  0
 24 22  1  0  0  0  0
 25 22  2  0  0  0  0
 26 23  1  0  0  0  0
 27 28  2  0  0  0  0
 27 26  1  0  0  0  0
 29 27  1  0  0  0  0
 30 29  1  0  0  0  0
 31 29  1  0  0  0  0
 32 33  1  0  0  0  0
 32 25  1  0  0  0  0
 34 35  1  0  0  0  0
 35 33  1  0  0  0  0
 37 36  1  6  0  0  0
 37 38  1  0  0  0  0
 38 39  1  0  0  0  0
 39 40  1  0  0  0  0
 40 42  2  0  0  0  0
 41 40  2  0  0  0  0
 43 46  1  0  0  0  0
 44 40  1  6  0  0  0
 45 50  1  0  0  0  0
 45 49  1  0  0  0  0
 47 46  1  0  0  0  0
 47 44  1  0  0  0  0
 49 44  1  0  0  0  0
 49 48  1  1  0  0  0
 50 43  1  0  0  0  0
 52 53  1  0  0  0  0
 53 51  1  0  0  0  0
 54 53  1  0  0  0  0
M  END
>  <MODEL>
2

>  <REMARK>
 VINA RESULT:      -1.4      3.286      9.401
  Name = 
  13 active torsions:
  status: ('A' for Active; 'I' for Inactive)
    1  A    between atoms: C_1  and  C_39
    2  A    between atoms: S_4  and  C_20
    3  A    between atoms: S_4  and  C_27
    4  A    between atoms: C_6  and  C_27
    5  A    between atoms: C_6  and  C_37
    6  A    between atoms: C_10  and  C_47
    7  A    between atoms: C_13  and  N_46
    8  A    between atoms: C_15  and  C_43
    9  A    between atoms: N_18  and  N_30
   10  A    between atoms: N_18  and  C_51
   11  A    between atoms: C_26  and  C_43
   12  A    between atoms: C_26  and  C_54
   13  A    between atoms: C_33  and  C_37
                            x       y       z     vdW  Elec       q    Type
                         _______ _______ _______ _____ _____    ______ ____

>  <TORSDO>
F 13

$$$$
