=
 OpenBabel11042422493D

 38 42  0  0  1  0  0  0  0  0999 V2000
  161.5290  205.8600  153.2900 S   0  0  0  0  0  0  0  0  0  0  0  0
  162.2350  208.3170  150.3040 C   0  0  2  0  0  3  0  0  0  0  0  0
  160.7210  208.3890  153.3750 N   0  0  0  0  0  0  0  0  0  0  0  0
  162.8190  210.0820  151.9810 C   0  0  0  0  0  2  0  0  0  0  0  0
  161.2670  207.4860  151.1600 C   0  0  1  0  0  3  0  0  0  0  0  0
  160.7720  209.6840  153.5090 C   0  0  0  0  0  0  0  0  0  0  0  0
  162.1790  209.8060  150.6320 C   0  0  0  0  0  2  0  0  0  0  0  0
  160.7010  205.4150  151.7530 C   0  0  1  0  0  3  0  0  0  0  0  0
  161.7980  210.5040  152.9250 N   0  0  0  0  0  2  0  0  0  0  0  0
  161.2870  206.1530  150.7230 O   0  0  0  0  0  0  0  0  0  0  0  0
  161.6530  207.5400  152.6400 C   0  0  2  0  0  3  0  0  0  0  0  0
  161.5160  209.0860  148.1520 O   0  0  0  0  0  0  0  0  0  0  0  0
  162.2050  206.8570  148.2450 N   0  0  0  0  0  2  0  0  0  0  0  0
  161.9640  206.6140  146.8330 C   0  0  0  0  0  1  0  0  0  0  0  0
  161.9620  208.1290  148.8440 C   0  0  0  0  0  0  0  0  0  0  0  0
  159.5260  210.4780  154.5160 S   0  0  0  0  0  0  0  0  0  0  0  0
  158.7230  211.2930  153.0950 C   0  0  0  0  0  2  0  0  0  0  0  0
  158.6850  213.6840  153.9860 N   0  0  0  0  0  2  0  0  0  0  0  0
  159.1320  212.7290  153.0200 C   0  0  0  0  0  0  0  0  0  0  0  0
  159.9120  213.1030  152.1070 O   0  0  0  0  0  0  0  0  0  0  0  0
  156.4790  214.2930  154.9440 C   0  0  1  0  0  3  0  0  0  0  0  0
  156.3740  212.8060  154.5800 C   0  0  2  0  0  0  0  0  0  0  0  0
  157.6910  213.4080  155.0170 C   0  0  1  0  0  0  0  0  0  0  0  0
  158.1490  213.1800  156.3170 O   0  0  0  0  0  1  0  0  0  0  0  0
  155.5370  213.8390  153.8510 C   0  0  0  0  0  2  0  0  0  0  0  0
  155.3430  210.3790  155.3440 S   0  0  0  0  0  1  0  0  0  0  0  0
  155.6030  212.1400  155.7080 C   0  0  0  0  0  2  0  0  0  0  0  0
  160.8630  203.9270  151.4960 C   0  0  0  0  0  2  0  0  0  0  0  0
  160.9080  203.6360  150.0050 C   0  0  0  0  0  2  0  0  0  0  0  0
  160.3550  202.2440  149.7110 C   0  0  2  0  0  3  0  0  0  0  0  0
  161.1900  201.2510  150.5150 C   0  0  0  0  0  1  0  0  0  0  0  0
  161.1340  200.6760  148.0850 C   0  0  0  0  0  2  0  0  0  0  0  0
  160.6970  203.7730  145.4120 O   0  0  0  0  0  1  0  0  0  0  0  0
  161.3370  202.7440  146.0960 C   0  0  1  0  0  3  0  0  0  0  0  0
  161.2290  202.9850  147.6120 C   0  0  0  0  0  2  0  0  0  0  0  0
  160.7370  201.4000  145.6750 C   0  0  0  0  0  2  0  0  0  0  0  0
  160.4220  201.9480  148.2740 N   0  0  0  0  0  0  0  0  0  0  0  0
  161.1980  200.2760  146.6050 C   0  0  0  0  0  2  0  0  0  0  0  0
  2 15  1  6  0  0  0
  2  7  1  0  0  0  0
  2  5  1  0  0  0  0
  3  6  2  0  0  0  0
  4  9  1  0  0  0  0
  5 10  1  6  0  0  0
  5 11  1  0  0  0  0
  6 16  1  0  0  0  0
  7  4  1  0  0  0  0
  8 28  1  6  0  0  0
  8  1  1  0  0  0  0
  9  6  1  0  0  0  0
 10  8  1  0  0  0  0
 11  1  1  1  0  0  0
 11  3  1  0  0  0  0
 12 15  2  0  0  0  0
 13 15  1  0  0  0  0
 14 13  1  0  0  0  0
 17 16  1  0  0  0  0
 18 23  1  0  0  0  0
 19 17  1  0  0  0  0
 19 18  1  0  0  0  0
 20 19  2  0  0  0  0
 21 25  1  6  0  0  0
 21 23  1  0  0  0  0
 22 21  1  0  0  0  0
 22 23  1  0  0  0  0
 22 27  1  1  0  0  0
 23 24  1  1  0  0  0
 25 22  1  0  0  0  0
 26 27  1  0  0  0  0
 29 28  1  0  0  0  0
 30 29  1  0  0  0  0
 30 31  1  1  0  0  0
 32 37  1  0  0  0  0
 34 33  1  6  0  0  0
 34 35  1  0  0  0  0
 35 37  1  0  0  0  0
 36 34  1  0  0  0  0
 36 38  1  0  0  0  0
 37 30  1  0  0  0  0
 38 32  1  0  0  0  0
M  END
>  <MODEL>
1

>  <REMARK>
 VINA RESULT:      -7.5      0.000      0.000
  Name = 
  10 active torsions:
  status: ('A' for Active; 'I' for Inactive)
    1  A    between atoms: C_5  and  C_38
    2  A    between atoms: S_9  and  C_20
    3  A    between atoms: S_9  and  C_29
    4  A    between atoms: C_10  and  C_16
    5  A    between atoms: C_13  and  N_15
    6  A    between atoms: C_21  and  C_31
    7  A    between atoms: C_21  and  C_32
    8  A    between atoms: C_25  and  C_32
    9  A    between atoms: C_26  and  C_29
   10  A    between atoms: N_27  and  C_31
                            x       y       z     vdW  Elec       q    Type
                         _______ _______ _______ _____ _____    ______ ____

>  <TORSDO>
F 10

$$$$
=
 OpenBabel11042422493D

 38 42  0  0  1  0  0  0  0  0999 V2000
  160.0360  212.5700  151.9350 S   0  0  0  0  0  0  0  0  0  0  0  0
  158.2090  212.1120  155.3860 C   0  0  2  0  0  3  0  0  0  0  0  0
  160.2390  210.3030  153.3040 N   0  0  0  0  0  0  0  0  0  0  0  0
  160.2760  211.0000  156.2570 C   0  0  0  0  0  2  0  0  0  0  0  0
  158.3680  211.7760  153.8950 C   0  0  1  0  0  3  0  0  0  0  0  0
  160.6290  209.4560  154.2150 C   0  0  0  0  0  0  0  0  0  0  0  0
  158.7590  211.0190  156.2960 C   0  0  0  0  0  2  0  0  0  0  0  0
  158.2370  212.6050  151.8320 C   0  0  1  0  0  3  0  0  0  0  0  0
  160.7310  209.7810  155.6110 N   0  0  0  0  0  2  0  0  0  0  0  0
  157.7380  212.7660  153.1250 O   0  0  0  0  0  0  0  0  0  0  0  0
  159.8450  211.6940  153.5020 C   0  0  2  0  0  3  0  0  0  0  0  0
  155.9360  211.4170  155.6840 O   0  0  0  0  0  0  0  0  0  0  0  0
  156.3630  213.6720  156.1140 N   0  0  0  0  0  2  0  0  0  0  0  0
  154.9860  213.9740  156.4670 C   0  0  0  0  0  1  0  0  0  0  0  0
  156.7740  212.3600  155.7330 C   0  0  0  0  0  0  0  0  0  0  0  0
  161.1110  207.8160  153.6910 S   0  0  0  0  0  0  0  0  0  0  0  0
  160.6610  208.1090  151.9470 C   0  0  0  0  0  2  0  0  0  0  0  0
  162.2280  207.3680  150.0740 N   0  0  0  0  0  2  0  0  0  0  0  0
  161.8910  208.2880  151.1160 C   0  0  0  0  0  0  0  0  0  0  0  0
  162.6320  209.2850  151.3140 O   0  0  0  0  0  0  0  0  0  0  0  0
  160.3120  206.2680  148.9460 C   0  0  1  0  0  3  0  0  0  0  0  0
  161.5650  205.5580  148.4160 C   0  0  2  0  0  0  0  0  0  0  0  0
  161.5230  206.1160  149.8220 C   0  0  1  0  0  0  0  0  0  0  0  0
  161.3390  205.2450  150.8980 O   0  0  0  0  0  1  0  0  0  0  0  0
  160.7040  206.3940  147.4900 C   0  0  0  0  0  2  0  0  0  0  0  0
  161.5920  203.4310  146.6800 S   0  0  0  0  0  1  0  0  0  0  0  0
  161.2210  204.0790  148.3360 C   0  0  0  0  0  2  0  0  0  0  0  0
  157.7970  213.7600  150.9480 C   0  0  0  0  0  2  0  0  0  0  0  0
  158.8860  214.1270  149.9540 C   0  0  0  0  0  2  0  0  0  0  0  0
  158.3100  214.2480  148.5460 C   0  0  2  0  0  3  0  0  0  0  0  0
  157.0690  213.3630  148.4900 C   0  0  0  0  0  1  0  0  0  0  0  0
  158.7000  212.8000  146.6860 C   0  0  0  0  0  2  0  0  0  0  0  0
  162.6850  213.4950  147.4360 O   0  0  0  0  0  1  0  0  0  0  0  0
  161.5230  212.7560  147.2310 C   0  0  1  0  0  3  0  0  0  0  0  0
  160.4400  213.2090  148.2240 C   0  0  0  0  0  2  0  0  0  0  0  0
  161.0770  212.9020  145.7740 C   0  0  0  0  0  2  0  0  0  0  0  0
  159.2990  213.8350  147.5400 N   0  0  0  0  0  0  0  0  0  0  0  0
  159.6620  212.3540  145.5760 C   0  0  0  0  0  2  0  0  0  0  0  0
  2 15  1  1  0  0  0
  2  7  1  0  0  0  0
  3 11  1  0  0  0  0
  3  6  2  0  0  0  0
  4  7  1  0  0  0  0
  5 10  1  6  0  0  0
  5  2  1  0  0  0  0
  6  9  1  0  0  0  0
  8 28  1  6  0  0  0
  8  1  1  0  0  0  0
  8 10  1  0  0  0  0
  9  4  1  0  0  0  0
 11  1  1  6  0  0  0
 11  5  1  0  0  0  0
 12 15  2  0  0  0  0
 13 14  1  0  0  0  0
 15 13  1  0  0  0  0
 16  6  1  0  0  0  0
 17 16  1  0  0  0  0
 18 19  1  0  0  0  0
 19 20  2  0  0  0  0
 19 17  1  0  0  0  0
 21 25  1  6  0  0  0
 21 23  1  0  0  0  0
 22 27  1  6  0  0  0
 22 21  1  0  0  0  0
 22 23  1  0  0  0  0
 23 18  1  0  0  0  0
 23 24  1  1  0  0  0
 25 22  1  0  0  0  0
 26 27  1  0  0  0  0
 29 28  1  0  0  0  0
 30 31  1  1  0  0  0
 30 29  1  0  0  0  0
 32 37  1  0  0  0  0
 34 33  1  6  0  0  0
 34 35  1  0  0  0  0
 36 34  1  0  0  0  0
 37 35  1  0  0  0  0
 37 30  1  0  0  0  0
 38 36  1  0  0  0  0
 38 32  1  0  0  0  0
M  END
>  <MODEL>
2

>  <REMARK>
 VINA RESULT:      -7.0      3.403      9.360
  Name = 
  10 active torsions:
  status: ('A' for Active; 'I' for Inactive)
    1  A    between atoms: C_5  and  C_38
    2  A    between atoms: S_9  and  C_20
    3  A    between atoms: S_9  and  C_29
    4  A    between atoms: C_10  and  C_16
    5  A    between atoms: C_13  and  N_15
    6  A    between atoms: C_21  and  C_31
    7  A    between atoms: C_21  and  C_32
    8  A    between atoms: C_25  and  C_32
    9  A    between atoms: C_26  and  C_29
   10  A    between atoms: N_27  and  C_31
                            x       y       z     vdW  Elec       q    Type
                         _______ _______ _______ _____ _____    ______ ____

>  <TORSDO>
F 10

$$$$
=
 OpenBabel11042422493D

 38 42  0  0  1  0  0  0  0  0999 V2000
  162.2640  210.0130  150.5940 S   0  0  0  0  0  0  0  0  0  0  0  0
  161.4730  212.8350  147.9730 C   0  0  2  0  0  3  0  0  0  0  0  0
  160.3600  211.8090  151.0450 N   0  0  0  0  0  0  0  0  0  0  0  0
  161.2790  214.4530  149.8730 C   0  0  0  0  0  2  0  0  0  0  0  0
  161.0890  211.5460  148.7180 C   0  0  1  0  0  3  0  0  0  0  0  0
  159.7990  212.9420  151.3590 C   0  0  0  0  0  0  0  0  0  0  0  0
  160.7420  214.0620  148.5080 C   0  0  0  0  0  2  0  0  0  0  0  0
  161.6270  209.4060  149.0210 C   0  0  1  0  0  3  0  0  0  0  0  0
  160.2600  214.2170  150.8820 N   0  0  0  0  0  2  0  0  0  0  0  0
  161.7060  210.4490  148.0970 O   0  0  0  0  0  0  0  0  0  0  0  0
  161.5210  211.6070  150.1850 C   0  0  2  0  0  3  0  0  0  0  0  0
  162.1220  212.9440  145.6700 O   0  0  0  0  0  0  0  0  0  0  0  0
  159.9040  212.3270  146.0610 N   0  0  0  0  0  2  0  0  0  0  0  0
  159.5850  212.1840  144.6510 C   0  0  0  0  0  1  0  0  0  0  0  0
  161.2060  212.7090  146.5050 C   0  0  0  0  0  0  0  0  0  0  0  0
  158.4100  212.9130  152.4860 S   0  0  0  0  0  0  0  0  0  0  0  0
  158.8940  211.3210  153.2320 C   0  0  0  0  0  2  0  0  0  0  0  0
  158.9710  210.4990  155.6470 N   0  0  0  0  0  2  0  0  0  0  0  0
  158.2860  211.1770  154.5910 C   0  0  0  0  0  0  0  0  0  0  0  0
  157.1610  211.6900  154.8220 O   0  0  0  0  0  0  0  0  0  0  0  0
  160.4370  208.6960  156.5150 C   0  0  1  0  0  3  0  0  0  0  0  0
  160.1270  208.3110  155.0630 C   0  0  2  0  0  0  0  0  0  0  0  0
  160.2190  209.7630  155.4800 C   0  0  1  0  0  0  0  0  0  0  0  0
  161.3680  210.4920  155.1670 O   0  0  0  0  0  1  0  0  0  0  0  0
  159.6150  207.4630  156.2110 C   0  0  0  0  0  2  0  0  0  0  0  0
  161.1200  207.0680  152.8250 S   0  0  0  0  0  1  0  0  0  0  0  0
  161.4180  207.7620  154.4780 C   0  0  0  0  0  2  0  0  0  0  0  0
  162.4570  208.2220  148.5550 C   0  0  0  0  0  2  0  0  0  0  0  0
  161.8690  206.9150  149.0620 C   0  0  0  0  0  2  0  0  0  0  0  0
  161.7030  205.9210  147.9150 C   0  0  2  0  0  3  0  0  0  0  0  0
  160.8140  206.5860  146.8690 C   0  0  0  0  0  1  0  0  0  0  0  0
  161.3750  204.5360  149.8340 C   0  0  0  0  0  2  0  0  0  0  0  0
  160.5810  201.5590  147.1070 O   0  0  0  0  0  1  0  0  0  0  0  0
  161.1990  202.1850  148.1860 C   0  0  1  0  0  3  0  0  0  0  0  0
  161.7780  203.5380  147.7350 C   0  0  0  0  0  2  0  0  0  0  0  0
  160.1960  202.3330  149.3330 C   0  0  0  0  0  2  0  0  0  0  0  0
  161.1060  204.6670  148.3950 N   0  0  0  0  0  0  0  0  0  0  0  0
  160.7360  203.2680  150.4170 C   0  0  0  0  0  2  0  0  0  0  0  0
  2 15  1  6  0  0  0
  2  7  1  0  0  0  0
  2  5  1  0  0  0  0
  3  6  2  0  0  0  0
  4  9  1  0  0  0  0
  5 10  1  6  0  0  0
  5 11  1  0  0  0  0
  6 16  1  0  0  0  0
  7  4  1  0  0  0  0
  8 28  1  6  0  0  0
  8  1  1  0  0  0  0
  9  6  1  0  0  0  0
 10  8  1  0  0  0  0
 11  1  1  1  0  0  0
 11  3  1  0  0  0  0
 12 15  2  0  0  0  0
 13 15  1  0  0  0  0
 14 13  1  0  0  0  0
 16 17  1  0  0  0  0
 17 19  1  0  0  0  0
 19 20  2  0  0  0  0
 19 18  1  0  0  0  0
 21 25  1  1  0  0  0
 22 27  1  6  0  0  0
 22 23  1  0  0  0  0
 22 25  1  0  0  0  0
 22 21  1  0  0  0  0
 23 24  1  6  0  0  0
 23 18  1  0  0  0  0
 23 21  1  0  0  0  0
 26 27  1  0  0  0  0
 28 29  1  0  0  0  0
 30 31  1  6  0  0  0
 30 37  1  0  0  0  0
 30 29  1  0  0  0  0
 32 38  1  0  0  0  0
 34 33  1  6  0  0  0
 34 36  1  0  0  0  0
 35 34  1  0  0  0  0
 35 37  1  0  0  0  0
 36 38  1  0  0  0  0
 37 32  1  0  0  0  0
M  END
>  <MODEL>
3

>  <REMARK>
 VINA RESULT:      -6.8      3.069      4.862
  Name = 
  10 active torsions:
  status: ('A' for Active; 'I' for Inactive)
    1  A    between atoms: C_5  and  C_38
    2  A    between atoms: S_9  and  C_20
    3  A    between atoms: S_9  and  C_29
    4  A    between atoms: C_10  and  C_16
    5  A    between atoms: C_13  and  N_15
    6  A    between atoms: C_21  and  C_31
    7  A    between atoms: C_21  and  C_32
    8  A    between atoms: C_25  and  C_32
    9  A    between atoms: C_26  and  C_29
   10  A    between atoms: N_27  and  C_31
                            x       y       z     vdW  Elec       q    Type
                         _______ _______ _______ _____ _____    ______ ____

>  <TORSDO>
F 10

$$$$
=
 OpenBabel11042422493D

 38 42  0  0  1  0  0  0  0  0999 V2000
  162.4290  210.0770  151.1100 S   0  0  0  0  0  0  0  0  0  0  0  0
  160.4230  210.9400  154.3790 C   0  0  2  0  0  3  0  0  0  0  0  0
  161.3580  208.1620  152.6080 N   0  0  0  0  0  0  0  0  0  0  0  0
  161.5700  209.0230  155.5100 C   0  0  0  0  0  2  0  0  0  0  0  0
  160.4770  210.4290  152.9300 C   0  0  1  0  0  3  0  0  0  0  0  0
  161.2020  207.3260  153.5950 C   0  0  0  0  0  0  0  0  0  0  0  0
  160.2770  209.8120  155.3950 C   0  0  0  0  0  2  0  0  0  0  0  0
  160.9130  211.0080  150.8250 C   0  0  1  0  0  3  0  0  0  0  0  0
  161.3730  207.6860  154.9760 N   0  0  0  0  0  2  0  0  0  0  0  0
  160.4910  211.5220  152.0510 O   0  0  0  0  0  0  0  0  0  0  0  0
  161.7220  209.5720  152.6930 C   0  0  2  0  0  3  0  0  0  0  0  0
  159.5230  213.0560  155.0500 O   0  0  0  0  0  0  0  0  0  0  0  0
  157.9750  211.5300  154.1960 N   0  0  0  0  0  2  0  0  0  0  0  0
  156.8450  212.4310  154.3490 C   0  0  0  0  0  1  0  0  0  0  0  0
  159.3000  211.9120  154.5660 C   0  0  0  0  0  0  0  0  0  0  0  0
  160.8050  205.6260  153.2070 S   0  0  0  0  0  0  0  0  0  0  0  0
  161.2820  205.7870  151.4540 C   0  0  0  0  0  2  0  0  0  0  0  0
  161.2990  204.3010  149.3800 N   0  0  0  0  0  2  0  0  0  0  0  0
  161.3310  204.4430  150.8020 C   0  0  0  0  0  0  0  0  0  0  0  0
  161.4350  203.4130  151.5170 O   0  0  0  0  0  0  0  0  0  0  0  0
  162.3200  206.0330  147.9270 C   0  0  1  0  0  3  0  0  0  0  0  0
  161.4410  205.1840  147.0000 C   0  0  2  0  0  0  0  0  0  0  0  0
  161.0620  205.3980  148.4490 C   0  0  1  0  0  0  0  0  0  0  0  0
  160.0540  206.3130  148.7630 O   0  0  0  0  0  1  0  0  0  0  0  0
  162.9490  205.1870  146.8420 C   0  0  0  0  0  2  0  0  0  0  0  0
  160.8070  205.5000  144.3470 S   0  0  0  0  0  1  0  0  0  0  0  0
  160.7640  206.1510  146.0420 C   0  0  0  0  0  2  0  0  0  0  0  0
  161.1820  212.1350  149.8430 C   0  0  0  0  0  2  0  0  0  0  0  0
  162.0410  211.6530  148.6860 C   0  0  0  0  0  2  0  0  0  0  0  0
  162.4060  212.8160  147.7660 C   0  0  2  0  0  3  0  0  0  0  0  0
  161.9220  214.0940  148.4450 C   0  0  0  0  0  1  0  0  0  0  0  0
  162.5970  213.3630  145.4490 C   0  0  0  0  0  2  0  0  0  0  0  0
  158.6050  212.3840  145.2550 O   0  0  0  0  0  1  0  0  0  0  0  0
  159.7490  213.1630  145.1020 C   0  0  1  0  0  3  0  0  0  0  0  0
  160.4660  213.3010  146.4560 C   0  0  0  0  0  2  0  0  0  0  0  0
  160.6470  212.5450  144.0270 C   0  0  0  0  0  2  0  0  0  0  0  0
  161.7840  212.6510  146.4450 N   0  0  0  0  0  0  0  0  0  0  0  0
  162.0330  213.1930  144.0310 C   0  0  0  0  0  2  0  0  0  0  0  0
  2 15  1  6  0  0  0
  2  7  1  0  0  0  0
  3 11  1  0  0  0  0
  3  6  2  0  0  0  0
  5 10  1  6  0  0  0
  5  2  1  0  0  0  0
  6  9  1  0  0  0  0
  7  4  1  0  0  0  0
  8 28  1  6  0  0  0
  8  1  1  0  0  0  0
  8 10  1  0  0  0  0
  9  4  1  0  0  0  0
 11  1  1  6  0  0  0
 11  5  1  0  0  0  0
 13 14  1  0  0  0  0
 13 15  1  0  0  0  0
 15 12  2  0  0  0  0
 16  6  1  0  0  0  0
 17 16  1  0  0  0  0
 18 19  1  0  0  0  0
 19 17  1  0  0  0  0
 19 20  2  0  0  0  0
 21 25  1  1  0  0  0
 21 23  1  0  0  0  0
 22 27  1  6  0  0  0
 22 21  1  0  0  0  0
 22 23  1  0  0  0  0
 23 24  1  1  0  0  0
 23 18  1  0  0  0  0
 25 22  1  0  0  0  0
 26 27  1  0  0  0  0
 29 28  1  0  0  0  0
 30 31  1  1  0  0  0
 30 29  1  0  0  0  0
 32 37  1  0  0  0  0
 34 33  1  1  0  0  0
 34 35  1  0  0  0  0
 36 38  1  0  0  0  0
 36 34  1  0  0  0  0
 37 35  1  0  0  0  0
 37 30  1  0  0  0  0
 38 32  1  0  0  0  0
M  END
>  <MODEL>
4

>  <REMARK>
 VINA RESULT:      -6.7      3.644      9.187
  Name = 
  10 active torsions:
  status: ('A' for Active; 'I' for Inactive)
    1  A    between atoms: C_5  and  C_38
    2  A    between atoms: S_9  and  C_20
    3  A    between atoms: S_9  and  C_29
    4  A    between atoms: C_10  and  C_16
    5  A    between atoms: C_13  and  N_15
    6  A    between atoms: C_21  and  C_31
    7  A    between atoms: C_21  and  C_32
    8  A    between atoms: C_25  and  C_32
    9  A    between atoms: C_26  and  C_29
   10  A    between atoms: N_27  and  C_31
                            x       y       z     vdW  Elec       q    Type
                         _______ _______ _______ _____ _____    ______ ____

>  <TORSDO>
F 10

$$$$
=
 OpenBabel11042422493D

 38 42  0  0  1  0  0  0  0  0999 V2000
  161.9700  205.8040  152.5580 S   0  0  0  0  0  0  0  0  0  0  0  0
  162.1060  207.7430  149.1410 C   0  0  2  0  0  3  0  0  0  0  0  0
  160.8360  208.1910  152.2900 N   0  0  0  0  0  0  0  0  0  0  0  0
  162.5720  209.8410  150.4260 C   0  0  0  0  0  2  0  0  0  0  0  0
  161.3280  206.9720  150.2190 C   0  0  1  0  0  3  0  0  0  0  0  0
  160.7210  209.4860  152.1950 C   0  0  0  0  0  0  0  0  0  0  0  0
  161.8750  209.2490  149.2140 C   0  0  0  0  0  2  0  0  0  0  0  0
  161.0940  204.9910  151.2100 C   0  0  1  0  0  3  0  0  0  0  0  0
  161.5790  210.3020  151.3810 N   0  0  0  0  0  2  0  0  0  0  0  0
  161.4940  205.5930  150.0160 O   0  0  0  0  0  0  0  0  0  0  0  0
  161.8150  207.3400  151.6220 C   0  0  2  0  0  3  0  0  0  0  0  0
  160.6920  207.6600  147.2100 O   0  0  0  0  0  0  0  0  0  0  0  0
  162.6160  206.3420  147.1040 N   0  0  0  0  0  2  0  0  0  0  0  0
  162.3270  205.8420  145.7700 C   0  0  0  0  0  1  0  0  0  0  0  0
  161.7500  207.2610  147.7690 C   0  0  0  0  0  0  0  0  0  0  0  0
  159.4600  210.2950  153.1710 S   0  0  0  0  0  0  0  0  0  0  0  0
  160.1880  211.9540  152.9570 C   0  0  0  0  0  2  0  0  0  0  0  0
  158.3700  213.7180  153.2620 N   0  0  0  0  0  2  0  0  0  0  0  0
  159.1710  212.9010  152.4050 C   0  0  0  0  0  0  0  0  0  0  0  0
  159.0380  213.0070  151.1590 O   0  0  0  0  0  0  0  0  0  0  0  0
  156.9690  213.7440  155.3090 C   0  0  1  0  0  3  0  0  0  0  0  0
  157.6800  212.3850  155.3140 C   0  0  2  0  0  0  0  0  0  0  0  0
  158.3420  213.6070  154.7160 C   0  0  1  0  0  0  0  0  0  0  0  0
  159.3400  214.2650  155.4380 O   0  0  0  0  0  1  0  0  0  0  0  0
  156.1750  212.4660  155.1500 C   0  0  0  0  0  2  0  0  0  0  0  0
  159.4750  210.9480  156.8150 S   0  0  0  0  0  1  0  0  0  0  0  0
  158.0840  212.1150  156.7550 C   0  0  0  0  0  2  0  0  0  0  0  0
  161.4360  203.5110  151.1960 C   0  0  0  0  0  2  0  0  0  0  0  0
  161.5300  202.9900  149.7710 C   0  0  0  0  0  2  0  0  0  0  0  0
  160.3220  202.1190  149.4370 C   0  0  2  0  0  3  0  0  0  0  0  0
  160.3410  200.9360  150.3990 C   0  0  0  0  0  1  0  0  0  0  0  0
  161.2090  200.4550  147.9690 C   0  0  0  0  0  2  0  0  0  0  0  0
  160.3800  203.1590  144.9800 O   0  0  0  0  0  1  0  0  0  0  0  0
  161.1420  202.2850  145.7510 C   0  0  1  0  0  3  0  0  0  0  0  0
  161.0530  202.6900  147.2330 C   0  0  0  0  0  2  0  0  0  0  0  0
  160.6700  200.8490  145.5100 C   0  0  0  0  0  2  0  0  0  0  0  0
  160.3770  201.6640  148.0400 N   0  0  0  0  0  0  0  0  0  0  0  0
  161.2720  199.8930  146.5420 C   0  0  0  0  0  2  0  0  0  0  0  0
  2 15  1  6  0  0  0
  2  7  1  0  0  0  0
  2  5  1  0  0  0  0
  4  9  1  0  0  0  0
  5 10  1  6  0  0  0
  5 11  1  0  0  0  0
  6  3  2  0  0  0  0
  6 16  1  0  0  0  0
  7  4  1  0  0  0  0
  8 28  1  6  0  0  0
  8  1  1  0  0  0  0
  9  6  1  0  0  0  0
 10  8  1  0  0  0  0
 11  3  1  1  0  0  0
 11  1  1  0  0  0  0
 12 15  2  0  0  0  0
 13 15  1  0  0  0  0
 14 13  1  0  0  0  0
 17 16  1  0  0  0  0
 18 23  1  0  0  0  0
 19 17  1  0  0  0  0
 19 18  1  0  0  0  0
 20 19  2  0  0  0  0
 21 25  1  6  0  0  0
 21 22  1  0  0  0  0
 22 27  1  1  0  0  0
 23 21  1  0  0  0  0
 23 22  1  0  0  0  0
 23 24  1  1  0  0  0
 25 22  1  0  0  0  0
 27 26  1  0  0  0  0
 29 28  1  0  0  0  0
 30 29  1  0  0  0  0
 30 31  1  1  0  0  0
 32 37  1  0  0  0  0
 34 33  1  6  0  0  0
 34 35  1  0  0  0  0
 35 37  1  0  0  0  0
 36 34  1  0  0  0  0
 36 38  1  0  0  0  0
 37 30  1  0  0  0  0
 38 32  1  0  0  0  0
M  END
>  <MODEL>
5

>  <REMARK>
 VINA RESULT:      -6.7      1.273      1.406
  Name = 
  10 active torsions:
  status: ('A' for Active; 'I' for Inactive)
    1  A    between atoms: C_5  and  C_38
    2  A    between atoms: S_9  and  C_20
    3  A    between atoms: S_9  and  C_29
    4  A    between atoms: C_10  and  C_16
    5  A    between atoms: C_13  and  N_15
    6  A    between atoms: C_21  and  C_31
    7  A    between atoms: C_21  and  C_32
    8  A    between atoms: C_25  and  C_32
    9  A    between atoms: C_26  and  C_29
   10  A    between atoms: N_27  and  C_31
                            x       y       z     vdW  Elec       q    Type
                         _______ _______ _______ _____ _____    ______ ____

>  <TORSDO>
F 10

$$$$
=
 OpenBabel11042422493D

 38 42  0  0  1  0  0  0  0  0999 V2000
  161.6600  205.8390  153.9040 S   0  0  0  0  0  0  0  0  0  0  0  0
  162.1500  208.7740  151.3350 C   0  0  2  0  0  3  0  0  0  0  0  0
  160.5540  208.2190  154.3130 N   0  0  0  0  0  0  0  0  0  0  0  0
  162.4720  210.3280  153.2710 C   0  0  0  0  0  2  0  0  0  0  0  0
  161.2650  207.7200  152.0190 C   0  0  1  0  0  3  0  0  0  0  0  0
  160.4460  209.4780  154.6330 C   0  0  0  0  0  0  0  0  0  0  0  0
  161.9080  210.1820  151.8690 C   0  0  0  0  0  2  0  0  0  0  0  0
  160.9340  205.5340  152.2830 C   0  0  1  0  0  3  0  0  0  0  0  0
  161.3820  210.4870  154.2190 N   0  0  0  0  0  2  0  0  0  0  0  0
  161.4570  206.4770  151.3970 O   0  0  0  0  0  0  0  0  0  0  0  0
  161.6000  207.5990  153.5070 C   0  0  2  0  0  3  0  0  0  0  0  0
  161.9470  209.8580  149.2080 O   0  0  0  0  0  0  0  0  0  0  0  0
  161.7340  207.5330  149.1760 N   0  0  0  0  0  2  0  0  0  0  0  0
  161.5320  207.4670  147.7380 C   0  0  0  0  0  1  0  0  0  0  0  0
  161.9420  208.7730  149.8520 C   0  0  0  0  0  0  0  0  0  0  0  0
  159.0860  209.9670  155.6860 S   0  0  0  0  0  0  0  0  0  0  0  0
  158.1430  210.7260  154.3210 C   0  0  0  0  0  2  0  0  0  0  0  0
  156.1270  212.2900  154.3600 N   0  0  0  0  0  2  0  0  0  0  0  0
  156.7630  211.0780  154.7750 C   0  0  0  0  0  0  0  0  0  0  0  0
  156.1320  210.2780  155.5130 O   0  0  0  0  0  0  0  0  0  0  0  0
  157.3580  214.4400  154.4710 C   0  0  1  0  0  3  0  0  0  0  0  0
  158.2900  213.4690  153.7340 C   0  0  2  0  0  0  0  0  0  0  0  0
  156.7870  213.3500  153.6080 C   0  0  1  0  0  0  0  0  0  0  0  0
  156.1600  213.8140  152.4490 O   0  0  0  0  0  1  0  0  0  0  0  0
  158.6650  214.0090  155.1000 C   0  0  0  0  0  2  0  0  0  0  0  0
  159.5720  213.1400  151.3280 S   0  0  0  0  0  1  0  0  0  0  0  0
  158.9370  214.2610  152.6090 C   0  0  0  0  0  2  0  0  0  0  0  0
  161.2810  204.1280  151.8240 C   0  0  0  0  0  2  0  0  0  0  0  0
  161.2960  204.0420  150.3060 C   0  0  0  0  0  2  0  0  0  0  0  0
  160.4370  202.8760  149.8250 C   0  0  2  0  0  3  0  0  0  0  0  0
  160.9630  201.6180  150.5110 C   0  0  0  0  0  1  0  0  0  0  0  0
  160.9190  201.3770  148.0280 C   0  0  0  0  0  2  0  0  0  0  0  0
  161.3180  204.7890  145.7630 O   0  0  0  0  0  1  0  0  0  0  0  0
  161.6770  203.5660  146.3230 C   0  0  1  0  0  3  0  0  0  0  0  0
  161.5530  203.6420  147.8540 C   0  0  0  0  0  2  0  0  0  0  0  0
  160.8100  202.4570  145.7220 C   0  0  0  0  0  2  0  0  0  0  0  0
  160.5040  202.7470  148.3630 N   0  0  0  0  0  0  0  0  0  0  0  0
  160.9620  201.1540  146.5090 C   0  0  0  0  0  2  0  0  0  0  0  0
  2 15  1  6  0  0  0
  2  7  1  0  0  0  0
  2  5  1  0  0  0  0
  3  6  2  0  0  0  0
  4  9  1  0  0  0  0
  5 10  1  6  0  0  0
  5 11  1  0  0  0  0
  6 16  1  0  0  0  0
  7  4  1  0  0  0  0
  8 28  1  6  0  0  0
  8  1  1  0  0  0  0
  9  6  1  0  0  0  0
 10  8  1  0  0  0  0
 11  1  1  1  0  0  0
 11  3  1  0  0  0  0
 12 15  2  0  0  0  0
 13 15  1  0  0  0  0
 14 13  1  0  0  0  0
 17 19  1  0  0  0  0
 17 16  1  0  0  0  0
 18 19  1  0  0  0  0
 19 20  2  0  0  0  0
 21 25  1  1  0  0  0
 22 27  1  6  0  0  0
 22 21  1  0  0  0  0
 22 25  1  0  0  0  0
 23 24  1  6  0  0  0
 23 22  1  0  0  0  0
 23 18  1  0  0  0  0
 23 21  1  0  0  0  0
 26 27  1  0  0  0  0
 29 28  1  0  0  0  0
 30 29  1  0  0  0  0
 30 31  1  1  0  0  0
 32 37  1  0  0  0  0
 34 33  1  6  0  0  0
 34 35  1  0  0  0  0
 35 37  1  0  0  0  0
 36 34  1  0  0  0  0
 36 38  1  0  0  0  0
 37 30  1  0  0  0  0
 38 32  1  0  0  0  0
M  END
>  <MODEL>
6

>  <REMARK>
 VINA RESULT:      -6.3      1.558      2.237
  Name = 
  10 active torsions:
  status: ('A' for Active; 'I' for Inactive)
    1  A    between atoms: C_5  and  C_38
    2  A    between atoms: S_9  and  C_20
    3  A    between atoms: S_9  and  C_29
    4  A    between atoms: C_10  and  C_16
    5  A    between atoms: C_13  and  N_15
    6  A    between atoms: C_21  and  C_31
    7  A    between atoms: C_21  and  C_32
    8  A    between atoms: C_25  and  C_32
    9  A    between atoms: C_26  and  C_29
   10  A    between atoms: N_27  and  C_31
                            x       y       z     vdW  Elec       q    Type
                         _______ _______ _______ _____ _____    ______ ____

>  <TORSDO>
F 10

$$$$
=
 OpenBabel11042422493D

 38 42  0  0  1  0  0  0  0  0999 V2000
  163.0640  207.7040  149.6190 S   0  0  0  0  0  0  0  0  0  0  0  0
  161.2510  208.5890  152.9930 C   0  0  2  0  0  3  0  0  0  0  0  0
  161.5530  205.9160  150.8750 N   0  0  0  0  0  0  0  0  0  0  0  0
  161.9050  206.3330  153.8590 C   0  0  0  0  0  2  0  0  0  0  0  0
  161.2120  208.2660  151.4910 C   0  0  1  0  0  3  0  0  0  0  0  0
  161.1910  205.0210  151.7500 C   0  0  0  0  0  0  0  0  0  0  0  0
  160.8310  207.4070  153.8600 C   0  0  0  0  0  2  0  0  0  0  0  0
  161.8090  208.9880  149.4700 C   0  0  1  0  0  3  0  0  0  0  0  0
  161.4140  205.1560  153.1630 N   0  0  0  0  0  2  0  0  0  0  0  0
  161.4940  209.4280  150.7570 O   0  0  0  0  0  0  0  0  0  0  0  0
  162.2310  207.1810  151.1330 C   0  0  2  0  0  3  0  0  0  0  0  0
  159.6900  210.3100  152.4100 O   0  0  0  0  0  0  0  0  0  0  0  0
  160.3400  210.2600  154.6520 N   0  0  0  0  0  2  0  0  0  0  0  0
  159.5100  211.3920  155.0270 C   0  0  0  0  0  1  0  0  0  0  0  0
  160.3790  209.7630  153.3140 C   0  0  0  0  0  0  0  0  0  0  0  0
  160.4200  203.5210  151.1550 S   0  0  0  0  0  0  0  0  0  0  0  0
  160.8920  203.8240  149.4190 C   0  0  0  0  0  2  0  0  0  0  0  0
  161.2230  202.4980  147.2630 N   0  0  0  0  0  2  0  0  0  0  0  0
  160.7910  202.5610  148.6250 C   0  0  0  0  0  0  0  0  0  0  0  0
  160.3450  201.5200  149.1730 O   0  0  0  0  0  0  0  0  0  0  0  0
  161.5160  203.4600  144.9960 C   0  0  1  0  0  3  0  0  0  0  0  0
  160.5780  204.4240  145.7330 C   0  0  2  0  0  0  0  0  0  0  0  0
  161.6450  203.6540  146.4800 C   0  0  1  0  0  0  0  0  0  0  0  0
  162.8160  204.3100  146.8670 O   0  0  0  0  0  1  0  0  0  0  0  0
  160.0800  203.6220  144.5470 C   0  0  0  0  0  2  0  0  0  0  0  0
  160.8310  206.9640  146.7440 S   0  0  0  0  0  1  0  0  0  0  0  0
  161.0030  205.8280  145.3370 C   0  0  0  0  0  2  0  0  0  0  0  0
  162.3480  210.1370  148.6360 C   0  0  0  0  0  2  0  0  0  0  0  0
  161.6470  211.4390  148.9890 C   0  0  0  0  0  2  0  0  0  0  0  0
  161.4810  212.3130  147.7480 C   0  0  2  0  0  3  0  0  0  0  0  0
  161.9680  213.7110  148.1150 C   0  0  0  0  0  1  0  0  0  0  0  0
  160.0240  212.8100  145.9210 C   0  0  0  0  0  2  0  0  0  0  0  0
  157.0720  212.9720  148.7830 O   0  0  0  0  0  1  0  0  0  0  0  0
  157.8640  213.4070  147.7240 C   0  0  1  0  0  3  0  0  0  0  0  0
  159.3490  213.3280  148.1200 C   0  0  0  0  0  2  0  0  0  0  0  0
  157.5480  212.5770  146.4770 C   0  0  0  0  0  2  0  0  0  0  0  0
  160.0780  212.3400  147.3130 N   0  0  0  0  0  0  0  0  0  0  0  0
  158.5870  212.8170  145.3800 C   0  0  0  0  0  2  0  0  0  0  0  0
  2 15  1  6  0  0  0
  2  7  1  0  0  0  0
  3 11  1  0  0  0  0
  3  6  2  0  0  0  0
  4  7  1  0  0  0  0
  5 10  1  6  0  0  0
  5  2  1  0  0  0  0
  6  9  1  0  0  0  0
  8 28  1  6  0  0  0
  8  1  1  0  0  0  0
  8 10  1  0  0  0  0
  9  4  1  0  0  0  0
 11  1  1  6  0  0  0
 11  5  1  0  0  0  0
 12 15  2  0  0  0  0
 13 14  1  0  0  0  0
 15 13  1  0  0  0  0
 16  6  1  0  0  0  0
 17 16  1  0  0  0  0
 18 19  1  0  0  0  0
 19 20  2  0  0  0  0
 19 17  1  0  0  0  0
 21 25  1  1  0  0  0
 21 22  1  0  0  0  0
 21 23  1  0  0  0  0
 22 27  1  6  0  0  0
 22 23  1  0  0  0  0
 23 24  1  1  0  0  0
 23 18  1  0  0  0  0
 25 22  1  0  0  0  0
 27 26  1  0  0  0  0
 28 29  1  0  0  0  0
 30 31  1  1  0  0  0
 30 29  1  0  0  0  0
 32 37  1  0  0  0  0
 34 35  1  0  0  0  0
 34 33  1  1  0  0  0
 36 34  1  0  0  0  0
 37 30  1  0  0  0  0
 37 35  1  0  0  0  0
 38 32  1  0  0  0  0
 38 36  1  0  0  0  0
M  END
>  <MODEL>
7

>  <REMARK>
 VINA RESULT:      -6.2      3.455      9.626
  Name = 
  10 active torsions:
  status: ('A' for Active; 'I' for Inactive)
    1  A    between atoms: C_5  and  C_38
    2  A    between atoms: S_9  and  C_20
    3  A    between atoms: S_9  and  C_29
    4  A    between atoms: C_10  and  C_16
    5  A    between atoms: C_13  and  N_15
    6  A    between atoms: C_21  and  C_31
    7  A    between atoms: C_21  and  C_32
    8  A    between atoms: C_25  and  C_32
    9  A    between atoms: C_26  and  C_29
   10  A    between atoms: N_27  and  C_31
                            x       y       z     vdW  Elec       q    Type
                         _______ _______ _______ _____ _____    ______ ____

>  <TORSDO>
F 10

$$$$
=
 OpenBabel11042422493D

 38 42  0  0  1  0  0  0  0  0999 V2000
  160.8290  207.3130  150.9550 S   0  0  0  0  0  0  0  0  0  0  0  0
  160.5760  210.0230  153.7920 C   0  0  2  0  0  3  0  0  0  0  0  0
  161.6600  209.8040  150.5510 N   0  0  0  0  0  0  0  0  0  0  0  0
  159.8000  211.6620  152.0670 C   0  0  0  0  0  2  0  0  0  0  0  0
  161.4050  209.0980  152.8870 C   0  0  1  0  0  3  0  0  0  0  0  0
  161.6140  211.0850  150.3170 C   0  0  0  0  0  0  0  0  0  0  0  0
  160.6110  211.4780  153.3360 C   0  0  0  0  0  2  0  0  0  0  0  0
  161.8510  206.9720  152.3990 C   0  0  1  0  0  3  0  0  0  0  0  0
  160.6910  211.9780  150.9620 N   0  0  0  0  0  2  0  0  0  0  0  0
  161.4220  207.8060  153.4330 O   0  0  0  0  0  0  0  0  0  0  0  0
  160.8230  209.0430  151.4730 C   0  0  2  0  0  3  0  0  0  0  0  0
  160.2900  209.4620  156.1030 O   0  0  0  0  0  0  0  0  0  0  0  0
  162.3420  210.4300  155.5500 N   0  0  0  0  0  2  0  0  0  0  0  0
  162.8510  210.3780  156.9100 C   0  0  0  0  0  1  0  0  0  0  0  0
  161.0420  209.9460  155.2130 C   0  0  0  0  0  0  0  0  0  0  0  0
  162.7250  211.7600  149.0890 S   0  0  0  0  0  0  0  0  0  0  0  0
  161.3880  212.1190  147.9010 C   0  0  0  0  0  2  0  0  0  0  0  0
  160.9050  214.1350  146.4130 N   0  0  0  0  0  2  0  0  0  0  0  0
  161.2650  213.5930  147.6870 C   0  0  0  0  0  0  0  0  0  0  0  0
  161.4490  214.3760  148.6540 O   0  0  0  0  0  0  0  0  0  0  0  0
  159.7190  212.2890  145.2560 C   0  0  1  0  0  3  0  0  0  0  0  0
  159.5230  213.5240  144.3680 C   0  0  2  0  0  0  0  0  0  0  0  0
  160.7810  213.3500  145.1900 C   0  0  1  0  0  0  0  0  0  0  0  0
  161.9570  212.9370  144.5600 O   0  0  0  0  0  1  0  0  0  0  0  0
  158.3410  212.8830  145.0690 C   0  0  0  0  0  2  0  0  0  0  0  0
  158.5920  214.0250  141.8340 S   0  0  0  0  0  1  0  0  0  0  0  0
  159.6620  213.0490  142.9310 C   0  0  0  0  0  2  0  0  0  0  0  0
  161.7000  205.5140  152.8000 C   0  0  0  0  0  2  0  0  0  0  0  0
  162.2010  204.5950  151.6980 C   0  0  0  0  0  2  0  0  0  0  0  0
  161.0550  203.7590  151.1330 C   0  0  2  0  0  3  0  0  0  0  0  0
  160.9330  202.5150  152.0060 C   0  0  0  0  0  1  0  0  0  0  0  0
  160.9220  204.5250  148.8730 C   0  0  0  0  0  2  0  0  0  0  0  0
  161.2060  200.5420  147.8820 O   0  0  0  0  0  1  0  0  0  0  0  0
  160.6730  201.8270  147.9070 C   0  0  1  0  0  3  0  0  0  0  0  0
  160.4510  202.2670  149.3650 C   0  0  0  0  0  2  0  0  0  0  0  0
  161.6000  202.7790  147.1460 C   0  0  0  0  0  2  0  0  0  0  0  0
  161.3150  203.3990  149.7320 N   0  0  0  0  0  0  0  0  0  0  0  0
  161.2120  204.2380  147.3940 C   0  0  0  0  0  2  0  0  0  0  0  0
  1 11  1  0  0  0  0
  1  8  1  0  0  0  0
  2 15  1  1  0  0  0
  4  7  1  0  0  0  0
  5 10  1  1  0  0  0
  5  2  1  0  0  0  0
  6  3  2  0  0  0  0
  6  9  1  0  0  0  0
  7  2  1  0  0  0  0
  8 28  1  1  0  0  0
  8 10  1  0  0  0  0
  9  4  1  0  0  0  0
 11  3  1  6  0  0  0
 11  5  1  0  0  0  0
 13 14  1  0  0  0  0
 15 13  1  0  0  0  0
 15 12  2  0  0  0  0
 16  6  1  0  0  0  0
 17 16  1  0  0  0  0
 18 19  1  0  0  0  0
 19 17  1  0  0  0  0
 19 20  2  0  0  0  0
 21 25  1  1  0  0  0
 22 27  1  6  0  0  0
 22 25  1  0  0  0  0
 22 23  1  0  0  0  0
 22 21  1  0  0  0  0
 23 24  1  6  0  0  0
 23 21  1  0  0  0  0
 23 18  1  0  0  0  0
 26 27  1  0  0  0  0
 29 28  1  0  0  0  0
 30 29  1  0  0  0  0
 30 31  1  1  0  0  0
 32 37  1  0  0  0  0
 34 33  1  1  0  0  0
 34 35  1  0  0  0  0
 35 37  1  0  0  0  0
 36 38  1  0  0  0  0
 36 34  1  0  0  0  0
 37 30  1  0  0  0  0
 38 32  1  0  0  0  0
M  END
>  <MODEL>
8

>  <REMARK>
 VINA RESULT:      -6.1      4.355      6.543
  Name = 
  10 active torsions:
  status: ('A' for Active; 'I' for Inactive)
    1  A    between atoms: C_5  and  C_38
    2  A    between atoms: S_9  and  C_20
    3  A    between atoms: S_9  and  C_29
    4  A    between atoms: C_10  and  C_16
    5  A    between atoms: C_13  and  N_15
    6  A    between atoms: C_21  and  C_31
    7  A    between atoms: C_21  and  C_32
    8  A    between atoms: C_25  and  C_32
    9  A    between atoms: C_26  and  C_29
   10  A    between atoms: N_27  and  C_31
                            x       y       z     vdW  Elec       q    Type
                         _______ _______ _______ _____ _____    ______ ____

>  <TORSDO>
F 10

$$$$
=
 OpenBabel11042422493D

 38 42  0  0  1  0  0  0  0  0999 V2000
  160.5730  206.5780  150.4610 S   0  0  0  0  0  0  0  0  0  0  0  0
  160.4950  208.6820  153.7820 C   0  0  2  0  0  3  0  0  0  0  0  0
  161.6590  209.0010  150.5770 N   0  0  0  0  0  0  0  0  0  0  0  0
  159.9420  210.7020  152.4110 C   0  0  0  0  0  2  0  0  0  0  0  0
  161.2580  207.8750  152.7200 C   0  0  1  0  0  3  0  0  0  0  0  0
  161.7460  210.3000  150.6050 C   0  0  0  0  0  0  0  0  0  0  0  0
  160.6890  210.1870  153.6280 C   0  0  0  0  0  2  0  0  0  0  0  0
  161.5080  205.8530  151.8200 C   0  0  1  0  0  3  0  0  0  0  0  0
  160.8950  211.1380  151.4040 N   0  0  0  0  0  2  0  0  0  0  0  0
  161.1300  206.5050  152.9950 O   0  0  0  0  0  0  0  0  0  0  0  0
  160.7210  208.1620  151.3160 C   0  0  2  0  0  3  0  0  0  0  0  0
  161.9830  208.7030  155.6590 O   0  0  0  0  0  0  0  0  0  0  0  0
  160.0620  207.3990  155.9130 N   0  0  0  0  0  2  0  0  0  0  0  0
  160.4020  206.9740  157.2600 C   0  0  0  0  0  1  0  0  0  0  0  0
  160.9040  208.2760  155.1640 C   0  0  0  0  0  0  0  0  0  0  0  0
  162.9580  211.0870  149.5510 S   0  0  0  0  0  0  0  0  0  0  0  0
  161.7030  211.9230  148.5260 C   0  0  0  0  0  2  0  0  0  0  0  0
  161.6250  213.7360  146.7320 N   0  0  0  0  0  2  0  0  0  0  0  0
  162.3080  213.0850  147.8060 C   0  0  0  0  0  0  0  0  0  0  0  0
  163.4290  213.5220  148.1720 O   0  0  0  0  0  0  0  0  0  0  0  0
  159.2570  213.1110  147.1210 C   0  0  1  0  0  3  0  0  0  0  0  0
  159.2200  214.2240  146.0660 C   0  0  2  0  0  0  0  0  0  0  0  0
  160.3830  213.2580  146.1370 C   0  0  1  0  0  0  0  0  0  0  0  0
  160.4640  212.2170  145.2080 O   0  0  0  0  0  1  0  0  0  0  0  0
  158.6370  214.4520  147.4470 C   0  0  0  0  0  2  0  0  0  0  0  0
  158.5850  214.4530  143.4040 S   0  0  0  0  0  1  0  0  0  0  0  0
  158.1570  213.8260  145.0550 C   0  0  0  0  0  2  0  0  0  0  0  0
  161.2010  204.3680  151.9180 C   0  0  0  0  0  2  0  0  0  0  0  0
  161.7010  203.6300  150.6870 C   0  0  0  0  0  2  0  0  0  0  0  0
  160.5740  202.8200  150.0510 C   0  0  2  0  0  3  0  0  0  0  0  0
  160.7680  201.3680  150.4750 C   0  0  0  0  0  1  0  0  0  0  0  0
  160.9210  201.6420  148.0020 C   0  0  0  0  0  2  0  0  0  0  0  0
  161.4800  205.3750  146.3640 O   0  0  0  0  0  1  0  0  0  0  0  0
  161.7750  204.0530  146.6870 C   0  0  1  0  0  3  0  0  0  0  0  0
  161.6910  203.8610  148.2110 C   0  0  0  0  0  2  0  0  0  0  0  0
  160.8280  203.1190  145.9280 C   0  0  0  0  0  2  0  0  0  0  0  0
  160.5990  202.9510  148.5880 N   0  0  0  0  0  0  0  0  0  0  0  0
  160.9170  201.6900  146.4680 C   0  0  0  0  0  2  0  0  0  0  0  0
  1  8  1  0  0  0  0
  2 15  1  1  0  0  0
  3  6  2  0  0  0  0
  3 11  1  0  0  0  0
  4  7  1  0  0  0  0
  5 10  1  1  0  0  0
  5  2  1  0  0  0  0
  6  9  1  0  0  0  0
  7  2  1  0  0  0  0
  8 28  1  1  0  0  0
  8 10  1  0  0  0  0
  9  4  1  0  0  0  0
 11  1  1  6  0  0  0
 11  5  1  0  0  0  0
 13 14  1  0  0  0  0
 15 12  2  0  0  0  0
 15 13  1  0  0  0  0
 16  6  1  0  0  0  0
 17 16  1  0  0  0  0
 18 19  1  0  0  0  0
 19 20  2  0  0  0  0
 19 17  1  0  0  0  0
 21 25  1  1  0  0  0
 22 27  1  6  0  0  0
 22 23  1  0  0  0  0
 22 21  1  0  0  0  0
 22 25  1  0  0  0  0
 23 24  1  6  0  0  0
 23 18  1  0  0  0  0
 23 21  1  0  0  0  0
 26 27  1  0  0  0  0
 29 28  1  0  0  0  0
 30 31  1  6  0  0  0
 30 29  1  0  0  0  0
 32 37  1  0  0  0  0
 34 33  1  1  0  0  0
 34 35  1  0  0  0  0
 35 37  1  0  0  0  0
 36 38  1  0  0  0  0
 36 34  1  0  0  0  0
 37 30  1  0  0  0  0
 38 32  1  0  0  0  0
M  END
>  <MODEL>
9

>  <REMARK>
 VINA RESULT:      -6.1      4.037      5.792
  Name = 
  10 active torsions:
  status: ('A' for Active; 'I' for Inactive)
    1  A    between atoms: C_5  and  C_38
    2  A    between atoms: S_9  and  C_20
    3  A    between atoms: S_9  and  C_29
    4  A    between atoms: C_10  and  C_16
    5  A    between atoms: C_13  and  N_15
    6  A    between atoms: C_21  and  C_31
    7  A    between atoms: C_21  and  C_32
    8  A    between atoms: C_25  and  C_32
    9  A    between atoms: C_26  and  C_29
   10  A    between atoms: N_27  and  C_31
                            x       y       z     vdW  Elec       q    Type
                         _______ _______ _______ _____ _____    ______ ____

>  <TORSDO>
F 10

$$$$
