=
 OpenBabel11042421213D

 39 43  0  0  1  0  0  0  0  0999 V2000
  161.1090  203.8600  151.2740 C   0  0  0  0  0  3  0  0  0  0  0  0
  161.2180  205.9540  152.5260 C   0  0  0  0  0  0  0  0  0  0  0  0
  161.2730  208.7460  152.6030 C   0  0  0  0  0  3  0  0  0  0  0  0
  161.2960  206.6570  153.7320 O   0  0  0  0  0  0  0  0  0  0  0  0
  161.0520  204.4570  150.0730 C   0  0  0  0  0  0  0  0  0  0  0  0
  161.1650  206.7040  151.2550 C   0  0  0  0  0  0  0  0  0  0  0  0
  161.3210  208.0590  153.7520 C   0  0  0  0  0  0  0  0  0  0  0  0
  161.1930  204.6230  152.5300 C   0  0  0  0  0  3  0  0  0  0  0  0
  161.1960  208.0490  151.2970 C   0  0  0  0  0  0  0  0  0  0  0  0
  161.0740  205.9630  149.9420 C   0  0  0  0  0  2  0  0  0  0  0  0
  161.4080  210.3040  156.5810 N   0  0  0  0  0  0  0  0  0  0  0  0
  161.3960  208.7620  155.0410 C   0  0  0  0  0  0  0  0  0  0  0  0
  161.6040  208.1730  156.2750 C   0  0  0  0  0  3  0  0  0  0  0  0
  161.2730  210.1230  155.2570 C   0  0  0  0  0  3  0  0  0  0  0  0
  161.6060  209.1520  157.2010 N   0  0  0  0  0  0  0  0  0  0  0  0
  161.3480  211.5850  157.2590 C   0  0  0  0  0  1  0  0  0  0  0  0
  162.4070  209.6520  148.2020 C   0  0  0  0  0  2  0  0  0  0  0  0
  162.1420  208.3990  149.0060 C   0  0  0  0  0  2  0  0  0  0  0  0
  162.1230  210.8060  149.0610 N   0  0  0  0  0  0  0  0  0  0  0  0
  161.4390  210.3140  150.2550 C   0  0  0  0  0  2  0  0  0  0  0  0
  161.1370  208.8500  150.0300 C   0  0  2  0  0  3  0  0  0  0  0  0
  161.2870  211.8060  148.3700 C   0  0  2  0  0  3  0  0  0  0  0  0
  162.8160  213.3870  147.0760 C   0  0  0  0  0  2  0  0  0  0  0  0
  163.3700  213.3450  143.9590 O   0  0  0  0  0  1  0  0  0  0  0  0
  162.6100  214.4210  145.9630 C   0  0  0  0  0  2  0  0  0  0  0  0
  162.2240  213.7730  144.6280 C   0  0  2  0  0  3  0  0  0  0  0  0
  161.8090  212.2230  146.9760 C   0  0  2  0  0  3  0  0  0  0  0  0
  161.2740  212.5820  144.8260 C   0  0  0  0  0  2  0  0  0  0  0  0
  160.7420  212.5680  146.1260 O   0  0  0  0  0  0  0  0  0  0  0  0
  161.1200  212.9730  149.2280 N   0  0  0  0  0  2  0  0  0  0  0  0
  159.5160  213.5930  150.5570 C   0  0  0  0  0  1  0  0  0  0  0  0
  159.8010  213.2780  149.2290 O   0  0  0  0  0  0  0  0  0  0  0  0
  160.9660  203.6310  148.8510 C   0  0  0  0  0  0  0  0  0  0  0  0
  160.6460  202.4110  148.9310 O   0  0  0  0  0  0  0  0  0  0  0  0
  162.4720  204.2630  147.0210 C   0  0  0  0  0  3  0  0  0  0  0  0
  161.2500  204.2290  147.5370 C   0  0  0  0  0  3  0  0  0  0  0  0
  162.6910  204.8840  145.6900 C   0  0  0  0  0  2  0  0  0  0  0  0
  161.6190  204.5000  144.7910 N   0  0  0  0  0  2  0  0  0  0  0  0
  160.8730  205.7070  144.4950 C   0  0  0  0  0  1  0  0  0  0  0  0
  1  8  1  0  0  0  0
  2  8  2  0  0  0  0
  2  4  1  0  0  0  0
  3  7  2  0  0  0  0
  4  7  1  0  0  0  0
  5  1  2  0  0  0  0
  6  9  2  0  0  0  0
  6  2  1  0  0  0  0
  7 12  1  0  0  0  0
  9  3  1  0  0  0  0
 10  5  1  0  0  0  0
 10  6  1  0  0  0  0
 11 15  1  0  0  0  0
 11 16  1  0  0  0  0
 12 14  2  0  0  0  0
 12 13  1  0  0  0  0
 13 15  2  0  0  0  0
 14 11  1  0  0  0  0
 17 18  1  0  0  0  0
 17 19  1  0  0  0  0
 18 21  1  0  0  0  0
 19 20  1  0  0  0  0
 21 20  1  0  0  0  0
 21  9  1  1  0  0  0
 22 19  1  0  0  0  0
 22 30  1  1  0  0  0
 25 23  1  0  0  0  0
 26 24  1  1  0  0  0
 26 28  1  0  0  0  0
 26 25  1  0  0  0  0
 27 23  1  0  0  0  0
 27 22  1  1  0  0  0
 28 29  1  0  0  0  0
 29 27  1  0  0  0  0
 30 32  1  0  0  0  0
 32 31  1  0  0  0  0
 33 34  2  0  0  0  0
 33  5  1  0  0  0  0
 35 36  2  0  0  0  0
 36 33  1  0  0  0  0
 37 35  1  0  0  0  0
 38 37  1  0  0  0  0
 39 38  1  0  0  0  0
M  END
>  <MODEL>
1

>  <REMARK>
 VINA RESULT:      -7.7      0.000      0.000
  Name = 
  10 active torsions:
  status: ('A' for Active; 'I' for Inactive)
    1  A    between atoms: N_7  and  C_10
    2  A    between atoms: C_8  and  C_17
    3  A    between atoms: C_8  and  C_28
    4  A    between atoms: C_9  and  C_10
    5  A    between atoms: N_12  and  O_20
    6  A    between atoms: N_12  and  C_24
    7  A    between atoms: C_18  and  C_24
    8  A    between atoms: N_21  and  C_24
    9  A    between atoms: C_22  and  C_27
   10  A    between atoms: C_33  and  C_36
                            x       y       z     vdW  Elec       q    Type
                         _______ _______ _______ _____ _____    ______ ____

>  <TORSDO>
F 10

$$$$
=
 OpenBabel11042421213D

 39 43  0  0  1  0  0  0  0  0999 V2000
  162.2690  209.8560  148.0210 C   0  0  0  0  0  3  0  0  0  0  0  0
  161.8040  207.9720  149.5030 C   0  0  2  0  0  3  0  0  0  0  0  0
  161.1820  206.9560  152.0310 C   0  0  0  0  0  3  0  0  0  0  0  0
  161.6440  206.6020  149.7280 O   0  0  0  0  0  0  0  0  0  0  0  0
  162.1370  210.7830  148.9820 C   0  0  0  0  0  0  0  0  0  0  0  0
  161.6410  208.9130  150.6300 C   0  0  0  0  0  0  0  0  0  0  0  0
  161.3300  206.1090  151.0040 C   0  0  0  0  0  0  0  0  0  0  0  0
  162.0990  208.4180  148.2850 C   0  0  0  0  0  3  0  0  0  0  0  0
  161.3460  208.4180  151.8470 C   0  0  0  0  0  0  0  0  0  0  0  0
  161.8030  210.3980  150.4060 C   0  0  0  0  0  3  0  0  0  0  0  0
  160.9460  202.5210  150.8600 N   0  0  0  0  0  0  0  0  0  0  0  0
  161.1630  204.6620  151.1990 C   0  0  0  0  0  0  0  0  0  0  0  0
  161.0370  204.0170  152.4170 C   0  0  0  0  0  3  0  0  0  0  0  0
  161.1020  203.6890  150.2180 C   0  0  0  0  0  3  0  0  0  0  0  0
  160.9060  202.6990  152.1710 N   0  0  0  0  0  0  0  0  0  0  0  0
  160.8350  201.2240  150.2200 C   0  0  0  0  0  1  0  0  0  0  0  0
  160.2190  209.5410  155.1760 C   0  0  0  0  0  2  0  0  0  0  0  0
  161.0480  208.6060  154.3250 C   0  0  0  0  0  2  0  0  0  0  0  0
  159.4050  210.3650  154.2770 N   0  0  0  0  0  0  0  0  0  0  0  0
  159.9020  210.1630  152.9170 C   0  0  0  0  0  2  0  0  0  0  0  0
  161.1660  209.3390  153.0170 C   0  0  2  0  0  3  0  0  0  0  0  0
  159.4730  211.7930  154.6370 C   0  0  2  0  0  3  0  0  0  0  0  0
  158.1150  212.3740  156.7180 C   0  0  0  0  0  2  0  0  0  0  0  0
  155.3070  213.8360  156.7920 O   0  0  0  0  0  1  0  0  0  0  0  0
  156.7390  211.9700  157.2610 C   0  0  0  0  0  2  0  0  0  0  0  0
  155.5910  212.5250  156.4100 C   0  0  2  0  0  3  0  0  0  0  0  0
  158.1490  212.3810  155.1770 C   0  0  2  0  0  3  0  0  0  0  0  0
  155.9230  212.4910  154.9100 C   0  0  0  0  0  2  0  0  0  0  0  0
  157.0430  211.6830  154.6570 O   0  0  0  0  0  0  0  0  0  0  0  0
  159.9470  212.5600  153.4910 N   0  0  0  0  0  2  0  0  0  0  0  0
  159.2870  213.8990  151.9110 C   0  0  0  0  0  1  0  0  0  0  0  0
  158.9950  213.4810  153.2090 O   0  0  0  0  0  0  0  0  0  0  0  0
  162.3180  212.2110  148.6490 C   0  0  0  0  0  0  0  0  0  0  0  0
  163.4290  212.6240  148.2110 O   0  0  0  0  0  0  0  0  0  0  0  0
  160.2870  213.3540  147.8860 C   0  0  0  0  0  3  0  0  0  0  0  0
  161.2030  213.1550  148.8240 C   0  0  0  0  0  3  0  0  0  0  0  0
  159.1870  214.3240  148.1250 C   0  0  0  0  0  2  0  0  0  0  0  0
  157.9140  213.6290  148.1120 N   0  0  0  0  0  2  0  0  0  0  0  0
  157.9400  212.7350  146.9710 C   0  0  0  0  0  1  0  0  0  0  0  0
  1  8  2  0  0  0  0
  1  5  1  0  0  0  0
  2  8  1  6  0  0  0
  2  4  1  0  0  0  0
  2  6  1  0  0  0  0
  4  7  1  0  0  0  0
  5 10  2  0  0  0  0
  6  9  2  0  0  0  0
  7 12  1  0  0  0  0
  7  3  2  0  0  0  0
  9  3  1  0  0  0  0
 10  6  1  0  0  0  0
 11 15  1  0  0  0  0
 12 13  1  0  0  0  0
 14 11  1  0  0  0  0
 14 12  2  0  0  0  0
 15 13  2  0  0  0  0
 16 11  1  0  0  0  0
 18 17  1  0  0  0  0
 19 22  1  0  0  0  0
 19 17  1  0  0  0  0
 20 21  1  0  0  0  0
 20 19  1  0  0  0  0
 21  9  1  6  0  0  0
 21 18  1  0  0  0  0
 22 30  1  6  0  0  0
 23 25  1  0  0  0  0
 26 24  1  1  0  0  0
 26 25  1  0  0  0  0
 27 22  1  1  0  0  0
 27 23  1  0  0  0  0
 28 26  1  0  0  0  0
 29 28  1  0  0  0  0
 29 27  1  0  0  0  0
 31 32  1  0  0  0  0
 32 30  1  0  0  0  0
 33 36  1  0  0  0  0
 33  5  1  0  0  0  0
 34 33  2  0  0  0  0
 35 37  1  0  0  0  0
 35 36  2  0  0  0  0
 38 37  1  0  0  0  0
 39 38  1  0  0  0  0
M  END
>  <MODEL>
2

>  <REMARK>
 VINA RESULT:      -7.2      3.479      7.998
  Name = 
  10 active torsions:
  status: ('A' for Active; 'I' for Inactive)
    1  A    between atoms: N_7  and  C_10
    2  A    between atoms: C_8  and  C_17
    3  A    between atoms: C_8  and  C_28
    4  A    between atoms: C_9  and  C_10
    5  A    between atoms: N_12  and  O_20
    6  A    between atoms: N_12  and  C_24
    7  A    between atoms: C_18  and  C_24
    8  A    between atoms: N_21  and  C_24
    9  A    between atoms: C_22  and  C_27
   10  A    between atoms: C_33  and  C_36
                            x       y       z     vdW  Elec       q    Type
                         _______ _______ _______ _____ _____    ______ ____

>  <TORSDO>
F 10

$$$$
=
 OpenBabel11042421213D

 39 43  0  0  1  0  0  0  0  0999 V2000
  161.7860  209.4040  148.1650 C   0  0  0  0  0  3  0  0  0  0  0  0
  161.5560  207.1750  149.1340 C   0  0  1  0  0  3  0  0  0  0  0  0
  161.3510  205.4940  151.3570 C   0  0  0  0  0  3  0  0  0  0  0  0
  161.4250  205.7900  149.0010 O   0  0  0  0  0  0  0  0  0  0  0  0
  161.8210  210.0330  149.3500 C   0  0  0  0  0  0  0  0  0  0  0  0
  161.5890  207.7710  150.4850 C   0  0  0  0  0  0  0  0  0  0  0  0
  161.3210  204.9600  150.1280 C   0  0  0  0  0  0  0  0  0  0  0  0
  161.6500  207.9430  148.0520 C   0  0  0  0  0  3  0  0  0  0  0  0
  161.4930  206.9570  151.5530 C   0  0  0  0  0  0  0  0  0  0  0  0
  161.7230  209.2660  150.6500 C   0  0  0  0  0  3  0  0  0  0  0  0
  161.0830  201.5120  149.0810 N   0  0  0  0  0  0  0  0  0  0  0  0
  161.1770  203.5090  149.9470 C   0  0  0  0  0  0  0  0  0  0  0  0
  160.9020  202.5910  150.9450 C   0  0  0  0  0  3  0  0  0  0  0  0
  161.2890  202.8010  148.7650 C   0  0  0  0  0  3  0  0  0  0  0  0
  160.8510  201.3710  150.3760 N   0  0  0  0  0  0  0  0  0  0  0  0
  161.1080  200.4070  148.1420 C   0  0  0  0  0  1  0  0  0  0  0  0
  160.4830  207.4340  155.0690 C   0  0  0  0  0  2  0  0  0  0  0  0
  161.0330  206.5440  153.9780 C   0  0  0  0  0  2  0  0  0  0  0  0
  160.0820  208.7030  154.4540 N   0  0  0  0  0  0  0  0  0  0  0  0
  160.6150  208.7260  153.0930 C   0  0  0  0  0  2  0  0  0  0  0  0
  161.5160  207.5210  152.9430 C   0  0  2  0  0  3  0  0  0  0  0  0
  160.5860  209.8610  155.2170 C   0  0  2  0  0  3  0  0  0  0  0  0
  158.1840  210.6740  155.5030 C   0  0  0  0  0  2  0  0  0  0  0  0
  157.1950  213.6820  155.4830 O   0  0  0  0  0  1  0  0  0  0  0  0
  157.1890  211.4420  154.6250 C   0  0  0  0  0  2  0  0  0  0  0  0
  157.6100  212.9000  154.4050 C   0  0  2  0  0  3  0  0  0  0  0  0
  159.6420  211.0860  155.2200 C   0  0  2  0  0  3  0  0  0  0  0  0
  159.1300  213.0360  154.2330 C   0  0  0  0  0  2  0  0  0  0  0  0
  159.7280  211.7850  154.0020 O   0  0  0  0  0  0  0  0  0  0  0  0
  161.9060  210.2310  154.7210 N   0  0  0  0  0  2  0  0  0  0  0  0
  162.7590  209.9740  156.7040 C   0  0  0  0  0  1  0  0  0  0  0  0
  162.5210  210.9230  155.7100 O   0  0  0  0  0  0  0  0  0  0  0  0
  161.9560  211.5040  149.3920 C   0  0  0  0  0  0  0  0  0  0  0  0
  161.5770  212.1460  150.4120 O   0  0  0  0  0  0  0  0  0  0  0  0
  161.8860  213.1900  147.6130 C   0  0  0  0  0  3  0  0  0  0  0  0
  162.5360  212.2230  148.2470 C   0  0  0  0  0  3  0  0  0  0  0  0
  162.5270  213.8750  146.4620 C   0  0  0  0  0  2  0  0  0  0  0  0
  162.1010  213.2500  145.2240 N   0  0  0  0  0  2  0  0  0  0  0  0
  163.2300  213.3140  144.3160 C   0  0  0  0  0  1  0  0  0  0  0  0
  1  5  1  0  0  0  0
  2  8  1  1  0  0  0
  2  6  1  0  0  0  0
  3  9  1  0  0  0  0
  4  2  1  0  0  0  0
  4  7  1  0  0  0  0
  5 33  1  0  0  0  0
  5 10  2  0  0  0  0
  6 10  1  0  0  0  0
  6  9  2  0  0  0  0
  7  3  2  0  0  0  0
  8  1  2  0  0  0  0
 11 15  1  0  0  0  0
 12  7  1  0  0  0  0
 12 13  1  0  0  0  0
 14 11  1  0  0  0  0
 14 12  2  0  0  0  0
 15 13  2  0  0  0  0
 16 11  1  0  0  0  0
 18 17  1  0  0  0  0
 19 17  1  0  0  0  0
 19 22  1  0  0  0  0
 20 19  1  0  0  0  0
 21  9  1  6  0  0  0
 21 20  1  0  0  0  0
 21 18  1  0  0  0  0
 22 30  1  6  0  0  0
 25 23  1  0  0  0  0
 26 25  1  0  0  0  0
 26 24  1  1  0  0  0
 27 22  1  6  0  0  0
 27 23  1  0  0  0  0
 28 26  1  0  0  0  0
 29 28  1  0  0  0  0
 29 27  1  0  0  0  0
 30 32  1  0  0  0  0
 32 31  1  0  0  0  0
 33 34  2  0  0  0  0
 35 36  2  0  0  0  0
 36 33  1  0  0  0  0
 37 35  1  0  0  0  0
 38 37  1  0  0  0  0
 39 38  1  0  0  0  0
M  END
>  <MODEL>
3

>  <REMARK>
 VINA RESULT:      -7.2      2.854      7.945
  Name = 
  10 active torsions:
  status: ('A' for Active; 'I' for Inactive)
    1  A    between atoms: N_7  and  C_10
    2  A    between atoms: C_8  and  C_17
    3  A    between atoms: C_8  and  C_28
    4  A    between atoms: C_9  and  C_10
    5  A    between atoms: N_12  and  O_20
    6  A    between atoms: N_12  and  C_24
    7  A    between atoms: C_18  and  C_24
    8  A    between atoms: N_21  and  C_24
    9  A    between atoms: C_22  and  C_27
   10  A    between atoms: C_33  and  C_36
                            x       y       z     vdW  Elec       q    Type
                         _______ _______ _______ _____ _____    ______ ____

>  <TORSDO>
F 10

$$$$
=
 OpenBabel11042421213D

 39 43  0  0  1  0  0  0  0  0999 V2000
  161.1310  209.0100  153.2250 C   0  0  0  0  0  3  0  0  0  0  0  0
  161.5050  209.9170  150.9880 C   0  0  1  0  0  3  0  0  0  0  0  0
  162.0240  209.5510  148.2670 C   0  0  0  0  0  3  0  0  0  0  0  0
  161.6160  210.9960  150.1070 O   0  0  0  0  0  0  0  0  0  0  0  0
  161.2600  207.7300  152.8440 C   0  0  0  0  0  0  0  0  0  0  0  0
  161.6670  208.5420  150.4710 C   0  0  0  0  0  0  0  0  0  0  0  0
  161.8750  210.7940  148.7430 C   0  0  0  0  0  0  0  0  0  0  0  0
  161.2560  210.1300  152.2780 C   0  0  0  0  0  3  0  0  0  0  0  0
  161.9210  208.3720  149.1600 C   0  0  0  0  0  0  0  0  0  0  0  0
  161.5440  207.3620  151.4050 C   0  0  0  0  0  3  0  0  0  0  0  0
  161.6840  213.3590  146.2080 N   0  0  0  0  0  0  0  0  0  0  0  0
  161.9770  211.9550  147.8470 C   0  0  0  0  0  0  0  0  0  0  0  0
  162.8240  213.0360  148.0150 C   0  0  0  0  0  3  0  0  0  0  0  0
  161.2580  212.1800  146.6880 C   0  0  0  0  0  3  0  0  0  0  0  0
  162.6170  213.8820  146.9870 N   0  0  0  0  0  0  0  0  0  0  0  0
  161.1970  213.9930  144.9970 C   0  0  0  0  0  1  0  0  0  0  0  0
  162.5810  205.7700  146.6280 C   0  0  0  0  0  2  0  0  0  0  0  0
  163.0630  206.9450  147.4500 C   0  0  0  0  0  2  0  0  0  0  0  0
  161.1480  205.6000  146.8840 N   0  0  0  0  0  0  0  0  0  0  0  0
  160.7970  206.4410  148.0260 C   0  0  0  0  0  2  0  0  0  0  0  0
  162.0860  206.9930  148.5920 C   0  0  2  0  0  3  0  0  0  0  0  0
  160.8080  204.1930  147.1650 C   0  0  2  0  0  3  0  0  0  0  0  0
  161.3860  202.1970  148.6470 C   0  0  0  0  0  2  0  0  0  0  0  0
  162.1730  202.2890  151.7120 O   0  0  0  0  0  1  0  0  0  0  0  0
  160.7720  201.5680  149.9040 C   0  0  0  0  0  2  0  0  0  0  0  0
  160.9160  202.4700  151.1350 C   0  0  2  0  0  3  0  0  0  0  0  0
  161.1600  203.7210  148.5940 C   0  0  2  0  0  3  0  0  0  0  0  0
  160.7240  203.9520  150.7840 C   0  0  0  0  0  2  0  0  0  0  0  0
  160.1590  204.1020  149.5070 O   0  0  0  0  0  0  0  0  0  0  0  0
  161.4410  203.3340  146.1700 N   0  0  0  0  0  2  0  0  0  0  0  0
  160.2920  201.6890  145.3340 C   0  0  0  0  0  1  0  0  0  0  0  0
  160.5060  203.0630  145.2280 O   0  0  0  0  0  0  0  0  0  0  0  0
  161.1200  206.6530  153.8460 C   0  0  0  0  0  0  0  0  0  0  0  0
  161.4030  205.4610  153.5390 O   0  0  0  0  0  0  0  0  0  0  0  0
  160.9850  208.0940  155.8270 C   0  0  0  0  0  3  0  0  0  0  0  0
  160.6550  206.9690  155.2070 C   0  0  0  0  0  3  0  0  0  0  0  0
  160.4830  208.3500  157.2010 C   0  0  0  0  0  2  0  0  0  0  0  0
  159.8710  209.6640  157.2590 N   0  0  0  0  0  2  0  0  0  0  0  0
  160.0430  210.2600  155.9480 C   0  0  0  0  0  1  0  0  0  0  0  0
  2  8  1  1  0  0  0
  3  7  2  0  0  0  0
  3  9  1  0  0  0  0
  4  2  1  0  0  0  0
  5  1  1  0  0  0  0
  5 33  1  0  0  0  0
  6  2  1  0  0  0  0
  6 10  1  0  0  0  0
  7  4  1  0  0  0  0
  8  1  2  0  0  0  0
  9  6  2  0  0  0  0
 10  5  2  0  0  0  0
 11 14  1  0  0  0  0
 11 15  1  0  0  0  0
 12 13  1  0  0  0  0
 12  7  1  0  0  0  0
 14 12  2  0  0  0  0
 15 13  2  0  0  0  0
 16 11  1  0  0  0  0
 17 19  1  0  0  0  0
 17 18  1  0  0  0  0
 18 21  1  0  0  0  0
 19 22  1  0  0  0  0
 19 20  1  0  0  0  0
 20 21  1  0  0  0  0
 21  9  1  6  0  0  0
 22 30  1  6  0  0  0
 23 25  1  0  0  0  0
 25 26  1  0  0  0  0
 26 24  1  6  0  0  0
 27 22  1  6  0  0  0
 27 23  1  0  0  0  0
 27 29  1  0  0  0  0
 28 26  1  0  0  0  0
 29 28  1  0  0  0  0
 32 31  1  0  0  0  0
 32 30  1  0  0  0  0
 33 36  1  0  0  0  0
 34 33  2  0  0  0  0
 35 37  1  0  0  0  0
 36 35  2  0  0  0  0
 37 38  1  0  0  0  0
 39 38  1  0  0  0  0
M  END
>  <MODEL>
4

>  <REMARK>
 VINA RESULT:      -7.1      2.103      8.796
  Name = 
  10 active torsions:
  status: ('A' for Active; 'I' for Inactive)
    1  A    between atoms: N_7  and  C_10
    2  A    between atoms: C_8  and  C_17
    3  A    between atoms: C_8  and  C_28
    4  A    between atoms: C_9  and  C_10
    5  A    between atoms: N_12  and  O_20
    6  A    between atoms: N_12  and  C_24
    7  A    between atoms: C_18  and  C_24
    8  A    between atoms: N_21  and  C_24
    9  A    between atoms: C_22  and  C_27
   10  A    between atoms: C_33  and  C_36
                            x       y       z     vdW  Elec       q    Type
                         _______ _______ _______ _____ _____    ______ ____

>  <TORSDO>
F 10

$$$$
=
 OpenBabel11042421213D

 39 43  0  0  1  0  0  0  0  0999 V2000
  161.9060  209.5520  147.9750 C   0  0  0  0  0  3  0  0  0  0  0  0
  161.6190  207.3490  148.9880 C   0  0  1  0  0  3  0  0  0  0  0  0
  161.3700  205.7180  151.2440 C   0  0  0  0  0  3  0  0  0  0  0  0
  161.4540  205.9650  148.8830 O   0  0  0  0  0  0  0  0  0  0  0  0
  161.9550  210.2030  149.1470 C   0  0  0  0  0  0  0  0  0  0  0  0
  161.6660  207.9710  150.3270 C   0  0  0  0  0  0  0  0  0  0  0  0
  161.3280  205.1610  150.0260 C   0  0  0  0  0  0  0  0  0  0  0  0
  161.7340  208.0930  147.8910 C   0  0  0  0  0  3  0  0  0  0  0  0
  161.5490  207.1810  151.4110 C   0  0  0  0  0  0  0  0  0  0  0  0
  161.8370  209.4660  150.4630 C   0  0  0  0  0  3  0  0  0  0  0  0
  161.0010  201.7010  149.0470 N   0  0  0  0  0  0  0  0  0  0  0  0
  161.1490  203.7110  149.8740 C   0  0  0  0  0  0  0  0  0  0  0  0
  160.8600  202.8190  150.8910 C   0  0  0  0  0  3  0  0  0  0  0  0
  161.2340  202.9780  148.7050 C   0  0  0  0  0  3  0  0  0  0  0  0
  160.7760  201.5900  150.3460 N   0  0  0  0  0  0  0  0  0  0  0  0
  160.9920  200.5780  148.1290 C   0  0  0  0  0  1  0  0  0  0  0  0
  161.0750  207.3740  155.0650 C   0  0  0  0  0  2  0  0  0  0  0  0
  161.7390  206.7350  153.8670 C   0  0  0  0  0  2  0  0  0  0  0  0
  160.0850  208.3360  154.5700 N   0  0  0  0  0  0  0  0  0  0  0  0
  160.3100  208.5080  153.1370 C   0  0  0  0  0  2  0  0  0  0  0  0
  161.5840  207.7720  152.7900 C   0  0  2  0  0  3  0  0  0  0  0  0
  160.1950  209.6340  155.2620 C   0  0  2  0  0  3  0  0  0  0  0  0
  159.7530  211.7980  153.9820 C   0  0  0  0  0  2  0  0  0  0  0  0
  156.9420  213.1800  153.5270 O   0  0  0  0  0  1  0  0  0  0  0  0
  159.1940  213.1780  154.3490 C   0  0  0  0  0  2  0  0  0  0  0  0
  157.7020  213.1290  154.6950 C   0  0  2  0  0  3  0  0  0  0  0  0
  159.1330  210.6770  154.8410 C   0  0  2  0  0  3  0  0  0  0  0  0
  157.3390  211.8620  155.4840 C   0  0  0  0  0  2  0  0  0  0  0  0
  158.4910  211.2190  155.9690 O   0  0  0  0  0  0  0  0  0  0  0  0
  161.5400  210.1680  155.0810 N   0  0  0  0  0  2  0  0  0  0  0  0
  163.3480  210.7070  156.1590 C   0  0  0  0  0  1  0  0  0  0  0  0
  161.9660  210.5900  156.2950 O   0  0  0  0  0  0  0  0  0  0  0  0
  162.1270  211.6710  149.1610 C   0  0  0  0  0  0  0  0  0  0  0  0
  163.1440  212.1950  148.6250 O   0  0  0  0  0  0  0  0  0  0  0  0
  160.5090  213.5130  149.1500 C   0  0  0  0  0  3  0  0  0  0  0  0
  161.1120  212.5250  149.7970 C   0  0  0  0  0  3  0  0  0  0  0  0
  159.4940  214.3410  149.8510 C   0  0  0  0  0  2  0  0  0  0  0  0
  158.5770  213.4780  150.5720 N   0  0  0  0  0  2  0  0  0  0  0  0
  157.3240  213.5020  149.8410 C   0  0  0  0  0  1  0  0  0  0  0  0
  1  5  1  0  0  0  0
  2  8  1  1  0  0  0
  2  6  1  0  0  0  0
  3  9  1  0  0  0  0
  4  2  1  0  0  0  0
  4  7  1  0  0  0  0
  5 33  1  0  0  0  0
  5 10  2  0  0  0  0
  6 10  1  0  0  0  0
  6  9  2  0  0  0  0
  7  3  2  0  0  0  0
  8  1  2  0  0  0  0
 11 15  1  0  0  0  0
 12  7  1  0  0  0  0
 12 13  1  0  0  0  0
 14 11  1  0  0  0  0
 14 12  2  0  0  0  0
 15 13  2  0  0  0  0
 16 11  1  0  0  0  0
 18 17  1  0  0  0  0
 19 17  1  0  0  0  0
 19 22  1  0  0  0  0
 20 19  1  0  0  0  0
 21  9  1  6  0  0  0
 21 20  1  0  0  0  0
 21 18  1  0  0  0  0
 22 30  1  6  0  0  0
 23 25  1  0  0  0  0
 23 27  1  0  0  0  0
 25 26  1  0  0  0  0
 26 24  1  6  0  0  0
 26 28  1  0  0  0  0
 27 22  1  1  0  0  0
 27 29  1  0  0  0  0
 28 29  1  0  0  0  0
 30 32  1  0  0  0  0
 31 32  1  0  0  0  0
 33 36  1  0  0  0  0
 34 33  2  0  0  0  0
 35 36  2  0  0  0  0
 35 37  1  0  0  0  0
 37 38  1  0  0  0  0
 39 38  1  0  0  0  0
M  END
>  <MODEL>
5

>  <REMARK>
 VINA RESULT:      -6.9      2.810      8.137
  Name = 
  10 active torsions:
  status: ('A' for Active; 'I' for Inactive)
    1  A    between atoms: N_7  and  C_10
    2  A    between atoms: C_8  and  C_17
    3  A    between atoms: C_8  and  C_28
    4  A    between atoms: C_9  and  C_10
    5  A    between atoms: N_12  and  O_20
    6  A    between atoms: N_12  and  C_24
    7  A    between atoms: C_18  and  C_24
    8  A    between atoms: N_21  and  C_24
    9  A    between atoms: C_22  and  C_27
   10  A    between atoms: C_33  and  C_36
                            x       y       z     vdW  Elec       q    Type
                         _______ _______ _______ _____ _____    ______ ____

>  <TORSDO>
F 10

$$$$
=
 OpenBabel11042421213D

 39 43  0  0  1  0  0  0  0  0999 V2000
  161.2110  204.5410  151.5490 C   0  0  0  0  0  3  0  0  0  0  0  0
  161.2150  206.6850  152.7190 C   0  0  0  0  0  0  0  0  0  0  0  0
  161.2080  209.4790  152.6840 C   0  0  0  0  0  3  0  0  0  0  0  0
  161.2200  207.4370  153.8960 O   0  0  0  0  0  0  0  0  0  0  0  0
  161.2000  205.0880  150.3240 C   0  0  0  0  0  0  0  0  0  0  0  0
  161.2080  207.3820  151.4160 C   0  0  0  0  0  0  0  0  0  0  0  0
  161.2140  208.8400  153.8610 C   0  0  0  0  0  0  0  0  0  0  0  0
  161.2180  205.3560  152.7750 C   0  0  0  0  0  3  0  0  0  0  0  0
  161.2080  208.7290  151.4050 C   0  0  0  0  0  0  0  0  0  0  0  0
  161.1960  206.5880  150.1320 C   0  0  0  0  0  2  0  0  0  0  0  0
  161.0330  211.1810  156.6050 N   0  0  0  0  0  0  0  0  0  0  0  0
  161.2110  209.5950  155.1210 C   0  0  0  0  0  0  0  0  0  0  0  0
  161.5230  209.0890  156.3700 C   0  0  0  0  0  3  0  0  0  0  0  0
  160.9020  210.9320  155.2920 C   0  0  0  0  0  3  0  0  0  0  0  0
  161.4030  210.0930  157.2610 N   0  0  0  0  0  0  0  0  0  0  0  0
  160.8040  212.4650  157.2390 C   0  0  0  0  0  1  0  0  0  0  0  0
  162.4890  210.0770  148.2180 C   0  0  0  0  0  2  0  0  0  0  0  0
  162.1280  208.8900  149.0830 C   0  0  0  0  0  2  0  0  0  0  0  0
  162.3350  211.2880  149.0300 N   0  0  0  0  0  0  0  0  0  0  0  0
  161.6360  210.9140  150.2580 C   0  0  0  0  0  2  0  0  0  0  0  0
  161.1940  209.4770  150.1040 C   0  0  2  0  0  3  0  0  0  0  0  0
  161.5790  212.3320  148.3120 C   0  0  2  0  0  3  0  0  0  0  0  0
  159.0790  212.7970  148.1010 C   0  0  0  0  0  2  0  0  0  0  0  0
  157.1240  213.6950  150.4240 O   0  0  0  0  0  1  0  0  0  0  0  0
  158.1870  214.0280  148.3000 C   0  0  0  0  0  2  0  0  0  0  0  0
  158.0970  214.4510  149.7710 C   0  0  2  0  0  3  0  0  0  0  0  0
  160.3020  212.8130  149.0390 C   0  0  2  0  0  3  0  0  0  0  0  0
  159.4410  214.2880  150.4950 C   0  0  0  0  0  2  0  0  0  0  0  0
  160.4910  214.0980  149.5800 O   0  0  0  0  0  0  0  0  0  0  0  0
  161.2600  211.8610  146.9690 N   0  0  0  0  0  2  0  0  0  0  0  0
  160.8140  212.8700  145.0960 C   0  0  0  0  0  1  0  0  0  0  0  0
  161.7760  212.7620  146.1000 O   0  0  0  0  0  0  0  0  0  0  0  0
  161.1900  204.2120  149.1340 C   0  0  0  0  0  0  0  0  0  0  0  0
  160.4510  203.1880  149.1060 O   0  0  0  0  0  0  0  0  0  0  0  0
  161.5940  204.4670  146.7280 C   0  0  0  0  0  3  0  0  0  0  0  0
  162.0400  204.5340  147.9760 C   0  0  0  0  0  3  0  0  0  0  0  0
  162.5050  204.8030  145.6030 C   0  0  0  0  0  2  0  0  0  0  0  0
  161.8500  205.7400  144.7100 N   0  0  0  0  0  2  0  0  0  0  0  0
  160.4230  205.5270  144.8580 C   0  0  0  0  0  1  0  0  0  0  0  0
  1  8  1  0  0  0  0
  2  8  2  0  0  0  0
  2  4  1  0  0  0  0
  3  7  2  0  0  0  0
  5  1  2  0  0  0  0
  6  2  1  0  0  0  0
  7  4  1  0  0  0  0
  7 12  1  0  0  0  0
  9  6  2  0  0  0  0
  9  3  1  0  0  0  0
 10  5  1  0  0  0  0
 10  6  1  0  0  0  0
 11 16  1  0  0  0  0
 11 15  1  0  0  0  0
 12 14  2  0  0  0  0
 12 13  1  0  0  0  0
 13 15  2  0  0  0  0
 14 11  1  0  0  0  0
 17 19  1  0  0  0  0
 17 18  1  0  0  0  0
 18 21  1  0  0  0  0
 19 20  1  0  0  0  0
 21 20  1  0  0  0  0
 21  9  1  1  0  0  0
 22 30  1  6  0  0  0
 22 19  1  0  0  0  0
 23 25  1  0  0  0  0
 23 27  1  0  0  0  0
 25 26  1  0  0  0  0
 26 24  1  1  0  0  0
 26 28  1  0  0  0  0
 27 22  1  6  0  0  0
 27 29  1  0  0  0  0
 29 28  1  0  0  0  0
 31 32  1  0  0  0  0
 32 30  1  0  0  0  0
 33  5  1  0  0  0  0
 34 33  2  0  0  0  0
 35 36  2  0  0  0  0
 36 33  1  0  0  0  0
 37 35  1  0  0  0  0
 38 39  1  0  0  0  0
 38 37  1  0  0  0  0
M  END
>  <MODEL>
6

>  <REMARK>
 VINA RESULT:      -6.8      1.171      2.750
  Name = 
  10 active torsions:
  status: ('A' for Active; 'I' for Inactive)
    1  A    between atoms: N_7  and  C_10
    2  A    between atoms: C_8  and  C_17
    3  A    between atoms: C_8  and  C_28
    4  A    between atoms: C_9  and  C_10
    5  A    between atoms: N_12  and  O_20
    6  A    between atoms: N_12  and  C_24
    7  A    between atoms: C_18  and  C_24
    8  A    between atoms: N_21  and  C_24
    9  A    between atoms: C_22  and  C_27
   10  A    between atoms: C_33  and  C_36
                            x       y       z     vdW  Elec       q    Type
                         _______ _______ _______ _____ _____    ______ ____

>  <TORSDO>
F 10

$$$$
=
 OpenBabel11042421213D

 39 43  0  0  1  0  0  0  0  0999 V2000
  161.3750  205.7330  149.5270 C   0  0  0  0  0  3  0  0  0  0  0  0
  161.3610  207.7290  150.9330 C   0  0  0  0  0  0  0  0  0  0  0  0
  161.5900  210.4980  151.2340 C   0  0  0  0  0  3  0  0  0  0  0  0
  161.2300  208.3490  152.1790 O   0  0  0  0  0  0  0  0  0  0  0  0
  161.6150  206.4040  148.3900 C   0  0  0  0  0  0  0  0  0  0  0  0
  161.6290  208.5580  149.7390 C   0  0  0  0  0  0  0  0  0  0  0  0
  161.3460  209.7410  152.3120 C   0  0  0  0  0  0  0  0  0  0  0  0
  161.2440  206.4080  150.8280 C   0  0  0  0  0  3  0  0  0  0  0  0
  161.7420  209.8910  149.8900 C   0  0  0  0  0  0  0  0  0  0  0  0
  161.7670  207.9090  148.3820 C   0  0  0  0  0  2  0  0  0  0  0  0
  160.6300  211.6780  155.2750 N   0  0  0  0  0  0  0  0  0  0  0  0
  161.1950  210.3550  153.6380 C   0  0  0  0  0  0  0  0  0  0  0  0
  161.7420  209.8830  154.8180 C   0  0  0  0  0  3  0  0  0  0  0  0
  160.4890  211.5020  153.9510 C   0  0  0  0  0  3  0  0  0  0  0  0
  161.3740  210.7210  155.8050 N   0  0  0  0  0  0  0  0  0  0  0  0
  160.0500  212.7660  156.0390 C   0  0  0  0  0  1  0  0  0  0  0  0
  163.2980  212.5860  147.9070 C   0  0  0  0  0  2  0  0  0  0  0  0
  163.4210  211.2790  148.6580 C   0  0  0  0  0  2  0  0  0  0  0  0
  161.9320  213.0850  148.0970 N   0  0  0  0  0  0  0  0  0  0  0  0
  161.1450  212.0110  148.6980 C   0  0  0  0  0  2  0  0  0  0  0  0
  162.0080  210.7700  148.7030 C   0  0  2  0  0  3  0  0  0  0  0  0
  161.3260  213.5080  146.8200 C   0  0  2  0  0  3  0  0  0  0  0  0
  159.3510  214.4340  148.1450 C   0  0  0  0  0  2  0  0  0  0  0  0
  156.3160  214.4510  147.2420 O   0  0  0  0  0  1  0  0  0  0  0  0
  158.0760  213.8330  148.7490 C   0  0  0  0  0  2  0  0  0  0  0  0
  157.0840  213.3710  147.6760 C   0  0  2  0  0  3  0  0  0  0  0  0
  159.7910  213.6890  146.8690 C   0  0  2  0  0  3  0  0  0  0  0  0
  157.7980  212.7370  146.4730 C   0  0  0  0  0  2  0  0  0  0  0  0
  159.1390  212.4460  146.7750 O   0  0  0  0  0  0  0  0  0  0  0  0
  161.7000  212.5670  145.7710 N   0  0  0  0  0  2  0  0  0  0  0  0
  163.0600  213.3800  144.2830 C   0  0  0  0  0  1  0  0  0  0  0  0
  161.7090  213.2560  144.6050 O   0  0  0  0  0  0  0  0  0  0  0  0
  161.7320  205.6650  147.1160 C   0  0  0  0  0  0  0  0  0  0  0  0
  162.2850  206.2050  146.1170 O   0  0  0  0  0  0  0  0  0  0  0  0
  161.5090  203.3470  147.8870 C   0  0  0  0  0  3  0  0  0  0  0  0
  161.2060  204.2940  147.0090 C   0  0  0  0  0  3  0  0  0  0  0  0
  160.9460  201.9820  147.7210 C   0  0  0  0  0  2  0  0  0  0  0  0
  160.0570  201.6840  148.8270 N   0  0  0  0  0  2  0  0  0  0  0  0
  160.8660  201.7150  150.0300 C   0  0  0  0  0  1  0  0  0  0  0  0
  1  8  1  0  0  0  0
  2  4  1  0  0  0  0
  3  7  2  0  0  0  0
  4  7  1  0  0  0  0
  5  1  2  0  0  0  0
  6  9  2  0  0  0  0
  6  2  1  0  0  0  0
  7 12  1  0  0  0  0
  8  2  2  0  0  0  0
  9  3  1  0  0  0  0
 10  5  1  0  0  0  0
 10  6  1  0  0  0  0
 11 15  1  0  0  0  0
 11 16  1  0  0  0  0
 12 14  2  0  0  0  0
 12 13  1  0  0  0  0
 13 15  2  0  0  0  0
 14 11  1  0  0  0  0
 17 19  1  0  0  0  0
 17 18  1  0  0  0  0
 18 21  1  0  0  0  0
 19 20  1  0  0  0  0
 20 21  1  0  0  0  0
 21  9  1  1  0  0  0
 22 30  1  6  0  0  0
 22 19  1  0  0  0  0
 23 25  1  0  0  0  0
 26 24  1  6  0  0  0
 26 25  1  0  0  0  0
 27 22  1  1  0  0  0
 27 23  1  0  0  0  0
 28 29  1  0  0  0  0
 28 26  1  0  0  0  0
 29 27  1  0  0  0  0
 31 32  1  0  0  0  0
 32 30  1  0  0  0  0
 33  5  1  0  0  0  0
 34 33  2  0  0  0  0
 36 33  1  0  0  0  0
 36 35  2  0  0  0  0
 37 35  1  0  0  0  0
 37 38  1  0  0  0  0
 38 39  1  0  0  0  0
M  END
>  <MODEL>
7

>  <REMARK>
 VINA RESULT:      -6.7      2.205      3.605
  Name = 
  10 active torsions:
  status: ('A' for Active; 'I' for Inactive)
    1  A    between atoms: N_7  and  C_10
    2  A    between atoms: C_8  and  C_17
    3  A    between atoms: C_8  and  C_28
    4  A    between atoms: C_9  and  C_10
    5  A    between atoms: N_12  and  O_20
    6  A    between atoms: N_12  and  C_24
    7  A    between atoms: C_18  and  C_24
    8  A    between atoms: N_21  and  C_24
    9  A    between atoms: C_22  and  C_27
   10  A    between atoms: C_33  and  C_36
                            x       y       z     vdW  Elec       q    Type
                         _______ _______ _______ _____ _____    ______ ____

>  <TORSDO>
F 10

$$$$
=
 OpenBabel11042421213D

 39 43  0  0  1  0  0  0  0  0999 V2000
  161.1720  206.8000  154.5170 C   0  0  0  0  0  3  0  0  0  0  0  0
  161.1300  205.4720  152.4680 C   0  0  0  0  0  0  0  0  0  0  0  0
  161.1290  205.2950  149.6790 C   0  0  0  0  0  3  0  0  0  0  0  0
  161.0930  204.2410  151.8080 O   0  0  0  0  0  0  0  0  0  0  0  0
  161.2120  207.9800  153.8800 C   0  0  0  0  0  0  0  0  0  0  0  0
  161.1690  206.7170  151.6740 C   0  0  0  0  0  0  0  0  0  0  0  0
  161.0950  204.1700  150.4060 C   0  0  0  0  0  0  0  0  0  0  0  0
  161.1310  205.5160  153.7980 C   0  0  0  0  0  3  0  0  0  0  0  0
  161.1640  206.6270  150.3310 C   0  0  0  0  0  0  0  0  0  0  0  0
  161.2150  208.0570  152.3690 C   0  0  0  0  0  2  0  0  0  0  0  0
  161.1090  201.2640  148.2620 N   0  0  0  0  0  0  0  0  0  0  0  0
  161.0630  202.8570  149.7480 C   0  0  0  0  0  0  0  0  0  0  0  0
  160.8800  201.6390  150.3780 C   0  0  0  0  0  3  0  0  0  0  0  0
  161.2070  202.5960  148.3980 C   0  0  0  0  0  3  0  0  0  0  0  0
  160.9140  200.6790  149.4330 N   0  0  0  0  0  0  0  0  0  0  0  0
  161.2030  200.5430  147.0070 C   0  0  0  0  0  1  0  0  0  0  0  0
  162.6300  209.3050  148.2600 C   0  0  0  0  0  2  0  0  0  0  0  0
  162.3180  207.8410  148.4710 C   0  0  0  0  0  2  0  0  0  0  0  0
  162.2400  210.0280  149.4750 N   0  0  0  0  0  0  0  0  0  0  0  0
  161.4550  209.1150  150.3030 C   0  0  0  0  0  2  0  0  0  0  0  0
  161.2090  207.8660  149.4860 C   0  0  2  0  0  3  0  0  0  0  0  0
  161.4520  211.2340  149.1600 C   0  0  2  0  0  3  0  0  0  0  0  0
  162.8310  212.9660  147.8900 C   0  0  0  0  0  2  0  0  0  0  0  0
  162.8700  213.4180  144.7570 O   0  0  0  0  0  1  0  0  0  0  0  0
  162.5020  214.1730  147.0040 C   0  0  0  0  0  2  0  0  0  0  0  0
  161.8720  213.7610  145.6690 C   0  0  2  0  0  3  0  0  0  0  0  0
  161.7620  211.8610  147.7810 C   0  0  2  0  0  3  0  0  0  0  0  0
  160.9050  212.5780  145.8350 C   0  0  0  0  0  2  0  0  0  0  0  0
  160.5910  212.3660  147.1870 O   0  0  0  0  0  0  0  0  0  0  0  0
  161.6270  212.2180  150.2230 N   0  0  0  0  0  2  0  0  0  0  0  0
  159.9240  213.5480  150.4580 C   0  0  0  0  0  1  0  0  0  0  0  0
  160.4410  212.3200  150.8680 O   0  0  0  0  0  0  0  0  0  0  0  0
  161.2560  209.2320  154.6620 C   0  0  0  0  0  0  0  0  0  0  0  0
  161.8250  209.2560  155.7900 O   0  0  0  0  0  0  0  0  0  0  0  0
  159.8250  211.2150  154.8530 C   0  0  0  0  0  3  0  0  0  0  0  0
  160.6370  210.4560  154.1280 C   0  0  0  0  0  3  0  0  0  0  0  0
  159.2310  212.4370  154.2520 C   0  0  0  0  0  2  0  0  0  0  0  0
  157.7890  212.3000  154.1950 N   0  0  0  0  0  2  0  0  0  0  0  0
  157.3290  213.1840  153.1410 C   0  0  0  0  0  1  0  0  0  0  0  0
  2  8  2  0  0  0  0
  3  9  1  0  0  0  0
  3  7  2  0  0  0  0
  4  2  1  0  0  0  0
  5  1  2  0  0  0  0
  5 33  1  0  0  0  0
  6 10  1  0  0  0  0
  6  2  1  0  0  0  0
  7  4  1  0  0  0  0
  8  1  1  0  0  0  0
  9  6  2  0  0  0  0
 10  5  1  0  0  0  0
 11 14  1  0  0  0  0
 11 15  1  0  0  0  0
 12 13  1  0  0  0  0
 12  7  1  0  0  0  0
 14 12  2  0  0  0  0
 15 13  2  0  0  0  0
 16 11  1  0  0  0  0
 17 18  1  0  0  0  0
 17 19  1  0  0  0  0
 18 21  1  0  0  0  0
 19 20  1  0  0  0  0
 21 20  1  0  0  0  0
 21  9  1  1  0  0  0
 22 19  1  0  0  0  0
 22 30  1  1  0  0  0
 25 23  1  0  0  0  0
 26 24  1  6  0  0  0
 26 28  1  0  0  0  0
 26 25  1  0  0  0  0
 27 23  1  0  0  0  0
 27 22  1  1  0  0  0
 28 29  1  0  0  0  0
 29 27  1  0  0  0  0
 30 32  1  0  0  0  0
 31 32  1  0  0  0  0
 33 34  2  0  0  0  0
 36 33  1  0  0  0  0
 36 35  2  0  0  0  0
 37 35  1  0  0  0  0
 38 37  1  0  0  0  0
 39 38  1  0  0  0  0
M  END
>  <MODEL>
8

>  <REMARK>
 VINA RESULT:      -6.7      2.170      6.606
  Name = 
  10 active torsions:
  status: ('A' for Active; 'I' for Inactive)
    1  A    between atoms: N_7  and  C_10
    2  A    between atoms: C_8  and  C_17
    3  A    between atoms: C_8  and  C_28
    4  A    between atoms: C_9  and  C_10
    5  A    between atoms: N_12  and  O_20
    6  A    between atoms: N_12  and  C_24
    7  A    between atoms: C_18  and  C_24
    8  A    between atoms: N_21  and  C_24
    9  A    between atoms: C_22  and  C_27
   10  A    between atoms: C_33  and  C_36
                            x       y       z     vdW  Elec       q    Type
                         _______ _______ _______ _____ _____    ______ ____

>  <TORSDO>
F 10

$$$$
=
 OpenBabel11042421213D

 39 43  0  0  1  0  0  0  0  0999 V2000
  161.1910  207.2450  155.1410 C   0  0  0  0  0  3  0  0  0  0  0  0
  161.1580  205.9180  153.0910 C   0  0  0  0  0  0  0  0  0  0  0  0
  161.1180  205.7450  150.3020 C   0  0  0  0  0  3  0  0  0  0  0  0
  161.1490  204.6880  152.4290 O   0  0  0  0  0  0  0  0  0  0  0  0
  161.1850  208.4260  154.5040 C   0  0  0  0  0  0  0  0  0  0  0  0
  161.1450  207.1650  152.2980 C   0  0  0  0  0  0  0  0  0  0  0  0
  161.1310  204.6190  151.0270 C   0  0  0  0  0  0  0  0  0  0  0  0
  161.1790  205.9610  154.4200 C   0  0  0  0  0  3  0  0  0  0  0  0
  161.1220  207.0760  150.9550 C   0  0  0  0  0  0  0  0  0  0  0  0
  161.1610  208.5050  152.9940 C   0  0  0  0  0  2  0  0  0  0  0  0
  161.0870  201.7180  148.8760 N   0  0  0  0  0  0  0  0  0  0  0  0
  161.1290  203.3050  150.3680 C   0  0  0  0  0  0  0  0  0  0  0  0
  161.2020  202.0790  151.0040 C   0  0  0  0  0  3  0  0  0  0  0  0
  161.0560  203.0540  149.0100 C   0  0  0  0  0  3  0  0  0  0  0  0
  161.1740  201.1230  150.0550 N   0  0  0  0  0  0  0  0  0  0  0  0
  161.0330  201.0040  147.6150 C   0  0  0  0  0  1  0  0  0  0  0  0
  162.1240  209.3890  148.2610 C   0  0  0  0  0  2  0  0  0  0  0  0
  161.5420  208.0620  148.6930 C   0  0  0  0  0  2  0  0  0  0  0  0
  162.5890  210.0890  149.4620 N   0  0  0  0  0  0  0  0  0  0  0  0
  162.0690  209.3710  150.6240 C   0  0  0  0  0  2  0  0  0  0  0  0
  161.1140  208.3170  150.1120 C   0  0  2  0  0  3  0  0  0  0  0  0
  162.1340  211.4920  149.4850 C   0  0  2  0  0  3  0  0  0  0  0  0
  160.1430  213.0290  149.9140 C   0  0  0  0  0  2  0  0  0  0  0  0
  157.8080  212.5560  152.0000 O   0  0  0  0  0  1  0  0  0  0  0  0
  159.6360  213.8340  151.1180 C   0  0  0  0  0  2  0  0  0  0  0  0
  159.1280  212.9320  152.2480 C   0  0  2  0  0  3  0  0  0  0  0  0
  160.8750  211.7430  150.3460 C   0  0  2  0  0  3  0  0  0  0  0  0
  159.9950  211.6740  152.4100 C   0  0  0  0  0  2  0  0  0  0  0  0
  161.2080  211.8010  151.7120 O   0  0  0  0  0  0  0  0  0  0  0  0
  161.9220  211.9540  148.1180 N   0  0  0  0  0  2  0  0  0  0  0  0
  162.6910  213.2960  146.5900 C   0  0  0  0  0  1  0  0  0  0  0  0
  163.0570  212.5860  147.7340 O   0  0  0  0  0  0  0  0  0  0  0  0
  161.2010  209.6780  155.2880 C   0  0  0  0  0  0  0  0  0  0  0  0
  162.2150  210.4310  155.2590 O   0  0  0  0  0  0  0  0  0  0  0  0
  159.3800  211.1920  155.9260 C   0  0  0  0  0  3  0  0  0  0  0  0
  160.0340  210.0520  156.1040 C   0  0  0  0  0  3  0  0  0  0  0  0
  158.2100  211.5100  156.7850 C   0  0  0  0  0  2  0  0  0  0  0  0
  157.1760  212.1390  155.9860 N   0  0  0  0  0  2  0  0  0  0  0  0
  156.5200  211.0780  155.2450 C   0  0  0  0  0  1  0  0  0  0  0  0
  2  8  2  0  0  0  0
  3  9  1  0  0  0  0
  3  7  2  0  0  0  0
  4  2  1  0  0  0  0
  5  1  2  0  0  0  0
  5 33  1  0  0  0  0
  6 10  1  0  0  0  0
  6  2  1  0  0  0  0
  7  4  1  0  0  0  0
  8  1  1  0  0  0  0
  9  6  2  0  0  0  0
 10  5  1  0  0  0  0
 11 14  1  0  0  0  0
 11 15  1  0  0  0  0
 12 13  1  0  0  0  0
 12  7  1  0  0  0  0
 14 12  2  0  0  0  0
 15 13  2  0  0  0  0
 16 11  1  0  0  0  0
 17 18  1  0  0  0  0
 17 19  1  0  0  0  0
 18 21  1  0  0  0  0
 19 22  1  0  0  0  0
 19 20  1  0  0  0  0
 21 20  1  0  0  0  0
 21  9  1  1  0  0  0
 22 30  1  6  0  0  0
 23 27  1  0  0  0  0
 23 25  1  0  0  0  0
 25 26  1  0  0  0  0
 26 24  1  6  0  0  0
 26 28  1  0  0  0  0
 27 22  1  6  0  0  0
 27 29  1  0  0  0  0
 29 28  1  0  0  0  0
 31 32  1  0  0  0  0
 32 30  1  0  0  0  0
 33 36  1  0  0  0  0
 34 33  2  0  0  0  0
 35 36  2  0  0  0  0
 35 37  1  0  0  0  0
 38 37  1  0  0  0  0
 39 38  1  0  0  0  0
M  END
>  <MODEL>
9

>  <REMARK>
 VINA RESULT:      -6.2      2.404      7.402
  Name = 
  10 active torsions:
  status: ('A' for Active; 'I' for Inactive)
    1  A    between atoms: N_7  and  C_10
    2  A    between atoms: C_8  and  C_17
    3  A    between atoms: C_8  and  C_28
    4  A    between atoms: C_9  and  C_10
    5  A    between atoms: N_12  and  O_20
    6  A    between atoms: N_12  and  C_24
    7  A    between atoms: C_18  and  C_24
    8  A    between atoms: N_21  and  C_24
    9  A    between atoms: C_22  and  C_27
   10  A    between atoms: C_33  and  C_36
                            x       y       z     vdW  Elec       q    Type
                         _______ _______ _______ _____ _____    ______ ____

>  <TORSDO>
F 10

$$$$
