=
 OpenBabel11042420193D

 51 58  0  0  1  0  0  0  0  0999 V2000
  159.2920  212.0130  142.2540 C   0  0  0  0  0  1  0  0  0  0  0  0
  161.3360  214.0960  140.2440 C   0  0  0  0  0  2  0  0  0  0  0  0
  160.8690  213.7610  141.5770 N   0  0  0  0  0  0  0  0  0  0  0  0
  159.4640  213.3650  141.5890 C   0  0  0  0  0  0  0  0  0  0  0  0
  159.0840  213.2380  140.1100 C   0  0  2  0  0  3  0  0  0  0  0  0
  158.6350  214.4130  142.3240 C   0  0  0  0  0  1  0  0  0  0  0  0
  160.1130  214.0530  139.3430 C   0  0  2  0  0  3  0  0  0  0  0  0
  163.4390  213.8970  144.9590 C   0  0  0  0  0  3  0  0  0  0  0  0
  161.2900  213.3720  143.9840 C   0  0  0  0  0  3  0  0  0  0  0  0
  162.1310  213.4150  145.1050 C   0  0  0  0  0  0  0  0  0  0  0  0
  163.8940  214.3420  143.7150 C   0  0  0  0  0  3  0  0  0  0  0  0
  163.0440  214.3030  142.6060 C   0  0  0  0  0  3  0  0  0  0  0  0
  161.7360  213.8100  142.7280 C   0  0  0  0  0  0  0  0  0  0  0  0
  162.3150  211.1980  149.5060 C   0  0  2  0  0  3  0  0  0  0  0  0
  162.5380  209.0110  148.2740 S   0  0  0  0  0  0  0  0  0  0  0  0
  161.6520  212.9860  146.3890 N   0  0  0  0  0  0  0  0  0  0  0  0
  162.3270  209.3920  151.1520 C   0  0  1  0  0  3  0  0  0  0  0  0
  161.6180  211.8160  148.3250 C   0  0  1  0  0  0  0  0  0  0  0  0
  161.6920  208.8730  152.4500 C   0  0  0  0  0  2  0  0  0  0  0  0
  162.4150  212.0900  147.1580 N   0  0  0  0  0  2  0  0  0  0  0  0
  161.3940  210.3580  148.6020 C   0  0  2  0  0  3  0  0  0  0  0  0
  160.2030  212.8930  148.5380 S   0  0  0  0  0  0  0  0  0  0  0  0
  160.4100  213.4540  146.8710 N   0  0  0  0  0  2  0  0  0  0  0  0
  160.8130  206.7730  151.3650 C   0  0  0  0  0  2  0  0  0  0  0  0
  161.6730  207.3480  152.5010 C   0  0  0  0  0  2  0  0  0  0  0  0
  160.9420  207.5400  150.0410 C   0  0  0  0  0  2  0  0  0  0  0  0
  162.2410  208.3470  149.9790 C   0  0  1  0  0  3  0  0  0  0  0  0
  161.7250  210.7760  150.8260 C   0  0  0  0  0  2  0  0  0  0  0  0
  156.6910  212.7770  139.4520 C   0  0  0  0  0  0  0  0  0  0  0  0
  157.7300  213.6910  139.8130 N   0  0  0  0  0  2  0  0  0  0  0  0
  156.9490  211.5560  139.2660 O   0  0  0  0  0  0  0  0  0  0  0  0
  152.7810  212.2310  138.0430 O   0  0  0  0  0  0  0  0  0  0  0  0
  153.9120  212.4230  137.2350 C   0  0  0  0  0  2  0  0  0  0  0  0
  154.8120  213.4300  137.8950 C   0  0  0  0  0  0  0  0  0  0  0  0
  153.0210  211.0800  138.8250 C   0  0  0  0  0  2  0  0  0  0  0  0
  154.2100  211.2520  139.7830 C   0  0  0  0  0  2  0  0  0  0  0  0
  155.2740  213.2510  139.3230 C   0  0  1  0  0  3  0  0  0  0  0  0
  154.3500  212.6000  140.1820 O   0  0  0  0  0  0  0  0  0  0  0  0
  155.2090  214.3880  137.2530 O   0  0  0  0  0  0  0  0  0  0  0  0
  160.4220  213.3660  138.0170 C   0  0  0  0  0  2  0  0  0  0  0  0
  162.3120  207.6800  137.2520 O   0  0  0  0  0  0  0  0  0  0  0  0
  159.5240  210.6600  137.6660 N   0  0  0  0  0  0  0  0  0  0  0  0
  159.1120  209.3510  137.2790 C   0  0  0  0  0  0  0  0  0  0  0  0
  157.9020  209.1240  137.0110 O   0  0  0  0  0  0  0  0  0  0  0  0
  161.8390  209.7850  138.2840 C   0  0  2  0  0  3  0  0  0  0  0  0
  160.0800  208.3110  137.1610 N   0  0  0  0  0  2  0  0  0  0  0  0
  160.8820  210.9220  138.0350 C   0  0  0  0  0  0  0  0  0  0  0  0
  161.4420  208.5440  137.5300 C   0  0  0  0  0  0  0  0  0  0  0  0
  161.3090  212.1740  138.2100 C   0  0  0  0  0  2  0  0  0  0  0  0
  161.9040  209.4930  139.7790 C   0  0  0  0  0  2  0  0  0  0  0  0
  163.0170  210.1190  140.3430 O   0  0  0  0  0  1  0  0  0  0  0  0
  2  3  1  0  0  0  0
  3  4  1  0  0  0  0
  3 13  1  0  0  0  0
  4  1  1  0  0  0  0
  4  6  1  0  0  0  0
  5 30  1  1  0  0  0
  5  4  1  0  0  0  0
  7 40  1  6  0  0  0
  7  5  1  0  0  0  0
  7  2  1  0  0  0  0
  8 10  1  0  0  0  0
  9 10  2  0  0  0  0
 10 16  1  0  0  0  0
 11  8  2  0  0  0  0
 12 13  2  0  0  0  0
 12 11  1  0  0  0  0
 13  9  1  0  0  0  0
 14 28  1  1  0  0  0
 15 27  1  0  0  0  0
 16 23  1  0  0  0  0
 16 20  1  0  0  0  0
 17 28  1  6  0  0  0
 17 19  1  0  0  0  0
 18 20  1  6  0  0  0
 18 22  1  0  0  0  0
 18 21  1  0  0  0  0
 18 14  1  0  0  0  0
 19 25  1  0  0  0  0
 21 15  1  6  0  0  0
 21 14  1  0  0  0  0
 23 22  1  0  0  0  0
 24 25  1  0  0  0  0
 26 24  1  0  0  0  0
 27 26  1  6  0  0  0
 27 17  1  0  0  0  0
 29 30  1  0  0  0  0
 31 29  2  0  0  0  0
 32 35  1  0  0  0  0
 33 34  1  0  0  0  0
 33 32  1  0  0  0  0
 34 37  1  0  0  0  0
 35 36  1  0  0  0  0
 36 38  1  0  0  0  0
 37 29  1  6  0  0  0
 37 38  1  0  0  0  0
 39 34  2  0  0  0  0
 40 49  1  0  0  0  0
 41 48  2  0  0  0  0
 42 47  2  0  0  0  0
 43 42  1  0  0  0  0
 44 43  2  0  0  0  0
 45 50  1  1  0  0  0
 46 43  1  0  0  0  0
 46 48  1  0  0  0  0
 47 49  1  0  0  0  0
 47 45  1  0  0  0  0
 48 45  1  0  0  0  0
 50 51  1  0  0  0  0
M  END
>  <MODEL>
1

>  <REMARK>
 VINA RESULT:      -5.4      0.000      0.000
  Name = 
  7 active torsions:
  status: ('A' for Active; 'I' for Inactive)
    1  A    between atoms: C_1  and  C_35
    2  A    between atoms: N_9  and  C_20
    3  A    between atoms: N_12  and  C_51
    4  A    between atoms: N_19  and  C_27
    5  A    between atoms: C_31  and  C_33
    6  A    between atoms: C_42  and  C_45
    7  A    between atoms: C_42  and  C_49
                            x       y       z     vdW  Elec       q    Type
                         _______ _______ _______ _____ _____    ______ ____

>  <TORSDO>
F 7

$$$$
=
 OpenBabel11042420193D

 51 58  0  0  1  0  0  0  0  0999 V2000
  160.7270  208.5110  147.7250 C   0  0  0  0  0  1  0  0  0  0  0  0
  161.8650  209.9210  150.7710 C   0  0  0  0  0  2  0  0  0  0  0  0
  161.9790  209.8820  149.3230 N   0  0  0  0  0  0  0  0  0  0  0  0
  161.8070  208.5340  148.7910 C   0  0  0  0  0  0  0  0  0  0  0  0
  161.3350  207.7020  149.9870 C   0  0  2  0  0  3  0  0  0  0  0  0
  163.1230  208.0350  148.2060 C   0  0  0  0  0  1  0  0  0  0  0  0
  161.7520  208.4760  151.2270 C   0  0  2  0  0  3  0  0  0  0  0  0
  162.6830  213.3900  147.0320 C   0  0  0  0  0  3  0  0  0  0  0  0
  161.3660  211.4140  147.4800 C   0  0  0  0  0  3  0  0  0  0  0  0
  161.5910  212.5680  146.7170 C   0  0  0  0  0  0  0  0  0  0  0  0
  163.5420  213.0560  148.0820 C   0  0  0  0  0  3  0  0  0  0  0  0
  163.3120  211.8980  148.8290 C   0  0  0  0  0  3  0  0  0  0  0  0
  162.2170  211.0690  148.5410 C   0  0  0  0  0  0  0  0  0  0  0  0
  159.6390  212.1710  142.2070 C   0  0  2  0  0  3  0  0  0  0  0  0
  161.9030  212.7910  141.2910 S   0  0  0  0  0  0  0  0  0  0  0  0
  160.7260  212.8950  145.6200 N   0  0  0  0  0  0  0  0  0  0  0  0
  159.4580  212.3440  139.7770 C   0  0  1  0  0  3  0  0  0  0  0  0
  159.9440  212.8830  143.4970 C   0  0  1  0  0  0  0  0  0  0  0  0
  158.5840  212.8390  138.6150 C   0  0  0  0  0  2  0  0  0  0  0  0
  160.9130  212.2750  144.3720 N   0  0  0  0  0  2  0  0  0  0  0  0
  160.5110  213.4400  142.2250 C   0  0  2  0  0  3  0  0  0  0  0  0
  158.7080  213.8810  144.3230 S   0  0  0  0  0  0  0  0  0  0  0  0
  159.6970  213.8480  145.7920 N   0  0  0  0  0  2  0  0  0  0  0  0
  160.3360  214.4480  137.7770 C   0  0  0  0  0  2  0  0  0  0  0  0
  159.4250  213.2650  137.4150 C   0  0  0  0  0  2  0  0  0  0  0  0
  160.9250  214.3660  139.1940 C   0  0  0  0  0  2  0  0  0  0  0  0
  160.9160  212.9310  139.7270 C   0  0  1  0  0  3  0  0  0  0  0  0
  158.7070  212.5940  141.1020 C   0  0  0  0  0  2  0  0  0  0  0  0
  161.0710  205.2070  149.7030 C   0  0  0  0  0  0  0  0  0  0  0  0
  161.8770  206.3480  150.0090 N   0  0  0  0  0  2  0  0  0  0  0  0
  159.8290  205.3320  149.5190 O   0  0  0  0  0  0  0  0  0  0  0  0
  160.9290  201.2550  148.3110 O   0  0  0  0  0  0  0  0  0  0  0  0
  160.0780  201.8010  149.2840 C   0  0  0  0  0  2  0  0  0  0  0  0
  160.8750  202.7290  150.1570 C   0  0  0  0  0  0  0  0  0  0  0  0
  160.7700  202.0300  147.1410 C   0  0  0  0  0  2  0  0  0  0  0  0
  161.2140  203.4890  147.3330 C   0  0  0  0  0  2  0  0  0  0  0  0
  161.6960  203.8510  149.5630 C   0  0  1  0  0  3  0  0  0  0  0  0
  162.2520  203.5830  148.2850 O   0  0  0  0  0  0  0  0  0  0  0  0
  160.8250  202.6010  151.3690 O   0  0  0  0  0  0  0  0  0  0  0  0
  160.6910  208.3160  152.3100 C   0  0  0  0  0  2  0  0  0  0  0  0
  161.0780  212.0110  157.0730 O   0  0  0  0  0  0  0  0  0  0  0  0
  160.5810  208.4070  155.1790 N   0  0  0  0  0  2  0  0  0  0  0  0
  160.7450  208.4480  156.5940 C   0  0  0  0  0  0  0  0  0  0  0  0
  160.7920  207.3770  157.2560 O   0  0  0  0  0  0  0  0  0  0  0  0
  160.2360  210.9330  155.1120 C   0  0  2  0  0  3  0  0  0  0  0  0
  160.8920  209.7040  157.2530 N   0  0  0  0  0  2  0  0  0  0  0  0
  160.4620  209.6140  154.4190 C   0  0  0  0  0  0  0  0  0  0  0  0
  160.7700  210.9250  156.5190 C   0  0  0  0  0  0  0  0  0  0  0  0
  160.5020  209.5830  153.0850 C   0  0  0  0  0  3  0  0  0  0  0  0
  158.7460  211.2550  155.1160 C   0  0  0  0  0  2  0  0  0  0  0  0
  158.4090  211.9880  153.9770 O   0  0  0  0  0  1  0  0  0  0  0  0
  1  4  1  0  0  0  0
  2  7  1  0  0  0  0
  3  2  1  0  0  0  0
  4  3  1  0  0  0  0
  4  5  1  0  0  0  0
  5 30  1  1  0  0  0
  5  7  1  0  0  0  0
  6  4  1  0  0  0  0
  7 40  1  1  0  0  0
  8 11  1  0  0  0  0
  9 13  2  0  0  0  0
 10  8  2  0  0  0  0
 10  9  1  0  0  0  0
 11 12  2  0  0  0  0
 13 12  1  0  0  0  0
 13  3  1  0  0  0  0
 14 28  1  6  0  0  0
 14 21  1  0  0  0  0
 14 18  1  0  0  0  0
 16 23  1  0  0  0  0
 16 10  1  0  0  0  0
 17 19  1  6  0  0  0
 17 28  1  0  0  0  0
 18 22  1  1  0  0  0
 18 20  1  0  0  0  0
 20 16  1  0  0  0  0
 21 15  1  1  0  0  0
 21 18  1  0  0  0  0
 22 23  1  0  0  0  0
 24 26  1  0  0  0  0
 25 24  1  0  0  0  0
 25 19  1  0  0  0  0
 27 26  1  1  0  0  0
 27 17  1  0  0  0  0
 27 15  1  0  0  0  0
 29 30  1  0  0  0  0
 31 29  2  0  0  0  0
 32 33  1  0  0  0  0
 33 34  1  0  0  0  0
 34 39  2  0  0  0  0
 35 36  1  0  0  0  0
 35 32  1  0  0  0  0
 36 38  1  0  0  0  0
 37 29  1  6  0  0  0
 37 34  1  0  0  0  0
 38 37  1  0  0  0  0
 40 49  1  0  0  0  0
 42 43  1  0  0  0  0
 43 46  1  0  0  0  0
 43 44  2  0  0  0  0
 45 50  1  1  0  0  0
 45 48  1  0  0  0  0
 47 45  1  0  0  0  0
 47 42  1  0  0  0  0
 48 41  2  0  0  0  0
 48 46  1  0  0  0  0
 49 47  2  0  0  0  0
 51 50  1  0  0  0  0
M  END
>  <MODEL>
2

>  <REMARK>
 VINA RESULT:      -5.3      6.149     13.089
  Name = 
  7 active torsions:
  status: ('A' for Active; 'I' for Inactive)
    1  A    between atoms: C_1  and  C_35
    2  A    between atoms: N_9  and  C_20
    3  A    between atoms: N_12  and  C_51
    4  A    between atoms: N_19  and  C_27
    5  A    between atoms: C_31  and  C_33
    6  A    between atoms: C_42  and  C_45
    7  A    between atoms: C_42  and  C_49
                            x       y       z     vdW  Elec       q    Type
                         _______ _______ _______ _____ _____    ______ ____

>  <TORSDO>
F 7

$$$$
=
 OpenBabel11042420193D

 51 58  0  0  1  0  0  0  0  0999 V2000
  160.3940  214.4210  151.2330 C   0  0  0  0  0  1  0  0  0  0  0  0
  160.9090  211.2300  149.7800 C   0  0  0  0  0  2  0  0  0  0  0  0
  160.1840  212.4880  149.7440 N   0  0  0  0  0  0  0  0  0  0  0  0
  159.8920  212.9980  151.0800 C   0  0  0  0  0  0  0  0  0  0  0  0
  160.6880  212.0900  152.0240 C   0  0  2  0  0  3  0  0  0  0  0  0
  158.3900  212.9470  151.3380 C   0  0  0  0  0  1  0  0  0  0  0  0
  160.9700  210.8180  151.2420 C   0  0  2  0  0  3  0  0  0  0  0  0
  159.1240  214.3820  146.0910 C   0  0  0  0  0  3  0  0  0  0  0  0
  160.6850  213.0740  147.3930 C   0  0  0  0  0  3  0  0  0  0  0  0
  160.3440  213.6980  146.1850 C   0  0  0  0  0  0  0  0  0  0  0  0
  158.2660  214.4530  147.1910 C   0  0  0  0  0  3  0  0  0  0  0  0
  158.6200  213.8360  148.3930 C   0  0  0  0  0  3  0  0  0  0  0  0
  159.8300  213.1330  148.5040 C   0  0  0  0  0  0  0  0  0  0  0  0
  161.7040  213.9250  141.4510 C   0  0  2  0  0  3  0  0  0  0  0  0
  160.2590  211.9000  141.0510 S   0  0  0  0  0  0  0  0  0  0  0  0
  161.2410  213.6500  145.0650 N   0  0  0  0  0  0  0  0  0  0  0  0
  161.9670  213.2480  139.1180 C   0  0  1  0  0  3  0  0  0  0  0  0
  161.8750  213.5440  142.8950 C   0  0  1  0  0  0  0  0  0  0  0  0
  162.9710  213.0570  137.9720 C   0  0  0  0  0  2  0  0  0  0  0  0
  160.7290  213.6900  143.7560 N   0  0  0  0  0  2  0  0  0  0  0  0
  161.7590  212.4470  141.8780 C   0  0  2  0  0  3  0  0  0  0  0  0
  163.4570  213.7010  143.7190 S   0  0  0  0  0  0  0  0  0  0  0  0
  162.6330  213.5510  145.2790 N   0  0  0  0  0  2  0  0  0  0  0  0
  162.5250  210.5820  137.7840 C   0  0  0  0  0  2  0  0  0  0  0  0
  162.5560  211.9240  137.0370 C   0  0  0  0  0  2  0  0  0  0  0  0
  161.9950  210.6850  139.2220 C   0  0  0  0  0  2  0  0  0  0  0  0
  161.1450  211.9410  139.4230 C   0  0  1  0  0  3  0  0  0  0  0  0
  162.7110  213.8400  140.3340 C   0  0  0  0  0  2  0  0  0  0  0  0
  160.7000  211.3800  154.4460 C   0  0  0  0  0  0  0  0  0  0  0  0
  159.9950  211.7940  153.2730 N   0  0  0  0  0  2  0  0  0  0  0  0
  161.9390  211.1450  154.3990 O   0  0  0  0  0  0  0  0  0  0  0  0
  157.3350  212.0930  156.8420 O   0  0  0  0  0  0  0  0  0  0  0  0
  158.1890  213.0830  156.3320 C   0  0  0  0  0  2  0  0  0  0  0  0
  159.6020  212.5740  156.3830 C   0  0  0  0  0  0  0  0  0  0  0  0
  156.8170  211.3840  155.7360 C   0  0  0  0  0  2  0  0  0  0  0  0
  157.9070  210.6460  154.9430 C   0  0  0  0  0  2  0  0  0  0  0  0
  159.9830  211.2520  155.7570 C   0  0  1  0  0  3  0  0  0  0  0  0
  158.9710  210.2560  155.7850 O   0  0  0  0  0  0  0  0  0  0  0  0
  160.4660  213.2600  156.9040 O   0  0  0  0  0  0  0  0  0  0  0  0
  162.3510  210.2870  151.6120 C   0  0  0  0  0  2  0  0  0  0  0  0
  162.0700  204.2660  151.9920 O   0  0  0  0  0  0  0  0  0  0  0  0
  161.2840  207.9400  150.3470 N   0  0  0  0  0  0  0  0  0  0  0  0
  160.9520  206.7540  149.6280 C   0  0  0  0  0  0  0  0  0  0  0  0
  160.4690  206.8340  148.4670 O   0  0  0  0  0  0  0  0  0  0  0  0
  161.6960  206.5800  152.4650 C   0  0  2  0  0  3  0  0  0  0  0  0
  161.2030  205.4790  150.2130 N   0  0  0  0  0  2  0  0  0  0  0  0
  161.7740  207.8700  151.6900 C   0  0  0  0  0  0  0  0  0  0  0  0
  161.6860  205.3800  151.5560 C   0  0  0  0  0  0  0  0  0  0  0  0
  162.2640  208.9560  152.2920 C   0  0  0  0  0  2  0  0  0  0  0  0
  160.4480  206.5870  153.3400 C   0  0  0  0  0  2  0  0  0  0  0  0
  160.8070  206.6100  154.6890 O   0  0  0  0  0  1  0  0  0  0  0  0
  2  7  1  0  0  0  0
  3  2  1  0  0  0  0
  3  4  1  0  0  0  0
  4  1  1  0  0  0  0
  4  6  1  0  0  0  0
  4  5  1  0  0  0  0
  5 30  1  1  0  0  0
  7 40  1  1  0  0  0
  7  5  1  0  0  0  0
  8 10  2  0  0  0  0
  8 11  1  0  0  0  0
  9 13  2  0  0  0  0
 10  9  1  0  0  0  0
 11 12  2  0  0  0  0
 12 13  1  0  0  0  0
 13  3  1  0  0  0  0
 14 28  1  6  0  0  0
 14 21  1  0  0  0  0
 14 18  1  0  0  0  0
 16 23  1  0  0  0  0
 16 10  1  0  0  0  0
 17 19  1  6  0  0  0
 17 27  1  0  0  0  0
 17 28  1  0  0  0  0
 18 22  1  1  0  0  0
 18 20  1  0  0  0  0
 20 16  1  0  0  0  0
 21 15  1  1  0  0  0
 21 18  1  0  0  0  0
 22 23  1  0  0  0  0
 24 26  1  0  0  0  0
 25 24  1  0  0  0  0
 25 19  1  0  0  0  0
 27 26  1  1  0  0  0
 27 15  1  0  0  0  0
 30 29  1  0  0  0  0
 31 29  2  0  0  0  0
 33 34  1  0  0  0  0
 33 32  1  0  0  0  0
 34 39  2  0  0  0  0
 35 32  1  0  0  0  0
 36 35  1  0  0  0  0
 36 38  1  0  0  0  0
 37 29  1  6  0  0  0
 37 38  1  0  0  0  0
 37 34  1  0  0  0  0
 40 49  1  0  0  0  0
 42 47  2  0  0  0  0
 43 46  1  0  0  0  0
 43 42  1  0  0  0  0
 44 43  2  0  0  0  0
 45 50  1  6  0  0  0
 46 48  1  0  0  0  0
 47 49  1  0  0  0  0
 47 45  1  0  0  0  0
 48 41  2  0  0  0  0
 48 45  1  0  0  0  0
 50 51  1  0  0  0  0
M  END
>  <MODEL>
3

>  <REMARK>
 VINA RESULT:      -4.8      6.342     12.578
  Name = 
  7 active torsions:
  status: ('A' for Active; 'I' for Inactive)
    1  A    between atoms: C_1  and  C_35
    2  A    between atoms: N_9  and  C_20
    3  A    between atoms: N_12  and  C_51
    4  A    between atoms: N_19  and  C_27
    5  A    between atoms: C_31  and  C_33
    6  A    between atoms: C_42  and  C_45
    7  A    between atoms: C_42  and  C_49
                            x       y       z     vdW  Elec       q    Type
                         _______ _______ _______ _____ _____    ______ ____

>  <TORSDO>
F 7

$$$$
=
 OpenBabel11042420193D

 51 58  0  0  1  0  0  0  0  0999 V2000
  160.9530  214.0460  151.1750 C   0  0  0  0  0  1  0  0  0  0  0  0
  161.0670  210.9330  149.4860 C   0  0  0  0  0  2  0  0  0  0  0  0
  160.4460  212.2400  149.6000 N   0  0  0  0  0  0  0  0  0  0  0  0
  160.3250  212.6780  150.9870 C   0  0  0  0  0  0  0  0  0  0  0  0
  161.1320  211.6510  151.7880 C   0  0  2  0  0  3  0  0  0  0  0  0
  158.8560  212.7210  151.3920 C   0  0  0  0  0  1  0  0  0  0  0  0
  161.2350  210.4180  150.9060 C   0  0  2  0  0  3  0  0  0  0  0  0
  159.1980  214.4530  146.1930 C   0  0  0  0  0  3  0  0  0  0  0  0
  160.8230  213.0380  147.2880 C   0  0  0  0  0  3  0  0  0  0  0  0
  160.4210  213.7680  146.1610 C   0  0  0  0  0  0  0  0  0  0  0  0
  158.3990  214.4220  147.3380 C   0  0  0  0  0  3  0  0  0  0  0  0
  158.8150  213.7000  148.4600 C   0  0  0  0  0  3  0  0  0  0  0  0
  160.0280  212.9940  148.4430 C   0  0  0  0  0  0  0  0  0  0  0  0
  161.4910  213.9370  141.3510 C   0  0  2  0  0  3  0  0  0  0  0  0
  160.4740  211.6400  141.1540 S   0  0  0  0  0  0  0  0  0  0  0  0
  161.2570  213.8240  144.9950 N   0  0  0  0  0  0  0  0  0  0  0  0
  161.7820  213.1680  139.0500 C   0  0  1  0  0  3  0  0  0  0  0  0
  161.8010  213.6980  142.8030 C   0  0  1  0  0  0  0  0  0  0  0  0
  162.7520  213.1050  137.8610 C   0  0  0  0  0  2  0  0  0  0  0  0
  160.6900  213.6700  143.7180 N   0  0  0  0  0  2  0  0  0  0  0  0
  161.8660  212.5330  141.8600 C   0  0  2  0  0  3  0  0  0  0  0  0
  163.3530  214.2270  143.5220 S   0  0  0  0  0  0  0  0  0  0  0  0
  162.6480  214.0210  145.1340 N   0  0  0  0  0  2  0  0  0  0  0  0
  162.8130  210.5840  137.8440 C   0  0  0  0  0  2  0  0  0  0  0  0
  162.5360  211.8500  137.0190 C   0  0  0  0  0  2  0  0  0  0  0  0
  162.3390  210.6760  139.3010 C   0  0  0  0  0  2  0  0  0  0  0  0
  161.2590  211.7470  139.4770 C   0  0  1  0  0  3  0  0  0  0  0  0
  162.4440  213.9790  140.1850 C   0  0  0  0  0  2  0  0  0  0  0  0
  161.3420  210.9420  154.2020 C   0  0  0  0  0  0  0  0  0  0  0  0
  160.5410  211.3220  153.0800 N   0  0  0  0  0  2  0  0  0  0  0  0
  162.5850  210.7660  154.0710 O   0  0  0  0  0  0  0  0  0  0  0  0
  159.8610  208.4880  157.2610 O   0  0  0  0  0  0  0  0  0  0  0  0
  159.3000  208.6120  155.9810 C   0  0  0  0  0  2  0  0  0  0  0  0
  159.4000  210.0480  155.5470 C   0  0  0  0  0  0  0  0  0  0  0  0
  161.1910  208.0450  157.0880 C   0  0  0  0  0  2  0  0  0  0  0  0
  162.0610  209.0640  156.3340 C   0  0  0  0  0  2  0  0  0  0  0  0
  160.7220  210.7800  155.5580 C   0  0  1  0  0  3  0  0  0  0  0  0
  161.6250  210.3840  156.5800 O   0  0  0  0  0  0  0  0  0  0  0  0
  158.4020  210.6200  155.1410 O   0  0  0  0  0  0  0  0  0  0  0  0
  162.5970  209.7620  151.1020 C   0  0  0  0  0  2  0  0  0  0  0  0
  161.9280  203.7890  151.6980 O   0  0  0  0  0  0  0  0  0  0  0  0
  161.2540  207.4680  150.0150 N   0  0  0  0  0  0  0  0  0  0  0  0
  160.7740  206.2920  149.3670 C   0  0  0  0  0  0  0  0  0  0  0  0
  160.1920  206.3780  148.2520 O   0  0  0  0  0  0  0  0  0  0  0  0
  161.7650  206.1350  152.1290 C   0  0  2  0  0  3  0  0  0  0  0  0
  160.9870  205.0170  149.9670 N   0  0  0  0  0  2  0  0  0  0  0  0
  161.8610  207.3960  151.3090 C   0  0  0  0  0  0  0  0  0  0  0  0
  161.5850  204.9170  151.2630 C   0  0  0  0  0  0  0  0  0  0  0  0
  162.4800  208.4580  151.8290 C   0  0  0  0  0  2  0  0  0  0  0  0
  160.6070  206.2570  153.1130 C   0  0  0  0  0  2  0  0  0  0  0  0
  161.0030  205.8170  154.3770 O   0  0  0  0  0  1  0  0  0  0  0  0
  2  3  1  0  0  0  0
  2  7  1  0  0  0  0
  3  4  1  0  0  0  0
  4  1  1  0  0  0  0
  4  6  1  0  0  0  0
  4  5  1  0  0  0  0
  5 30  1  1  0  0  0
  7 40  1  6  0  0  0
  7  5  1  0  0  0  0
  8 11  1  0  0  0  0
  9 13  2  0  0  0  0
 10  8  2  0  0  0  0
 10  9  1  0  0  0  0
 11 12  2  0  0  0  0
 13 12  1  0  0  0  0
 13  3  1  0  0  0  0
 14 28  1  6  0  0  0
 14 21  1  0  0  0  0
 14 18  1  0  0  0  0
 16 23  1  0  0  0  0
 16 10  1  0  0  0  0
 17 19  1  6  0  0  0
 17 27  1  0  0  0  0
 17 28  1  0  0  0  0
 18 22  1  1  0  0  0
 18 20  1  0  0  0  0
 20 16  1  0  0  0  0
 21 15  1  1  0  0  0
 21 18  1  0  0  0  0
 22 23  1  0  0  0  0
 24 26  1  0  0  0  0
 25 24  1  0  0  0  0
 25 19  1  0  0  0  0
 27 26  1  1  0  0  0
 27 15  1  0  0  0  0
 30 29  1  0  0  0  0
 31 29  2  0  0  0  0
 33 32  1  0  0  0  0
 34 37  1  0  0  0  0
 34 33  1  0  0  0  0
 35 32  1  0  0  0  0
 36 38  1  0  0  0  0
 36 35  1  0  0  0  0
 37 29  1  6  0  0  0
 37 38  1  0  0  0  0
 39 34  2  0  0  0  0
 40 49  1  0  0  0  0
 42 47  2  0  0  0  0
 43 46  1  0  0  0  0
 43 42  1  0  0  0  0
 44 43  2  0  0  0  0
 45 50  1  1  0  0  0
 46 48  1  0  0  0  0
 47 49  1  0  0  0  0
 47 45  1  0  0  0  0
 48 41  2  0  0  0  0
 48 45  1  0  0  0  0
 50 51  1  0  0  0  0
M  END
>  <MODEL>
4

>  <REMARK>
 VINA RESULT:      -4.1      6.136     12.705
  Name = 
  7 active torsions:
  status: ('A' for Active; 'I' for Inactive)
    1  A    between atoms: C_1  and  C_35
    2  A    between atoms: N_9  and  C_20
    3  A    between atoms: N_12  and  C_51
    4  A    between atoms: N_19  and  C_27
    5  A    between atoms: C_31  and  C_33
    6  A    between atoms: C_42  and  C_45
    7  A    between atoms: C_42  and  C_49
                            x       y       z     vdW  Elec       q    Type
                         _______ _______ _______ _____ _____    ______ ____

>  <TORSDO>
F 7

$$$$
=
 OpenBabel11042420193D

 51 58  0  0  1  0  0  0  0  0999 V2000
  159.0700  212.0780  143.9380 C   0  0  0  0  0  1  0  0  0  0  0  0
  160.6180  213.9670  146.5060 C   0  0  0  0  0  2  0  0  0  0  0  0
  159.4560  213.7820  145.6550 N   0  0  0  0  0  0  0  0  0  0  0  0
  159.8180  213.3440  144.3100 C   0  0  0  0  0  0  0  0  0  0  0  0
  161.3140  213.0250  144.3960 C   0  0  2  0  0  3  0  0  0  0  0  0
  159.5040  214.4460  143.3040 C   0  0  0  0  0  1  0  0  0  0  0  0
  161.8320  213.7750  145.6130 C   0  0  2  0  0  3  0  0  0  0  0  0
  155.4970  214.4370  147.0540 C   0  0  0  0  0  3  0  0  0  0  0  0
  157.8350  214.0230  147.5080 C   0  0  0  0  0  3  0  0  0  0  0  0
  156.5310  214.2360  147.9780 C   0  0  0  0  0  0  0  0  0  0  0  0
  155.7590  214.4100  145.6810 C   0  0  0  0  0  3  0  0  0  0  0  0
  157.0610  214.1870  145.2240 C   0  0  0  0  0  3  0  0  0  0  0  0
  158.1130  213.9990  146.1330 C   0  0  0  0  0  0  0  0  0  0  0  0
  157.5510  214.4530  152.7970 C   0  0  2  0  0  3  0  0  0  0  0  0
  158.8410  212.3080  152.5100 S   0  0  0  0  0  0  0  0  0  0  0  0
  156.2570  214.2330  149.3870 N   0  0  0  0  0  0  0  0  0  0  0  0
  158.3460  213.7410  154.9950 C   0  0  1  0  0  3  0  0  0  0  0  0
  156.6970  214.1230  151.6040 C   0  0  1  0  0  0  0  0  0  0  0  0
  157.9780  213.6030  156.4800 C   0  0  0  0  0  2  0  0  0  0  0  0
  157.3190  214.1980  150.3080 N   0  0  0  0  0  2  0  0  0  0  0  0
  157.1810  212.9950  152.4670 C   0  0  2  0  0  3  0  0  0  0  0  0
  154.9330  214.4290  151.6090 S   0  0  0  0  0  0  0  0  0  0  0  0
  154.9220  214.2520  149.8470 N   0  0  0  0  0  2  0  0  0  0  0  0
  158.2510  211.0960  156.4760 C   0  0  0  0  0  2  0  0  0  0  0  0
  158.6830  212.4170  157.1310 C   0  0  0  0  0  2  0  0  0  0  0  0
  158.0590  211.1920  154.9560 C   0  0  0  0  0  2  0  0  0  0  0  0
  158.8200  212.3800  154.3630 C   0  0  1  0  0  3  0  0  0  0  0  0
  157.1750  214.4210  154.2550 C   0  0  0  0  0  2  0  0  0  0  0  0
  162.0890  212.5540  142.0400 C   0  0  0  0  0  0  0  0  0  0  0  0
  162.0600  213.3930  143.1980 N   0  0  0  0  0  2  0  0  0  0  0  0
  161.5620  211.4080  142.0670 O   0  0  0  0  0  0  0  0  0  0  0  0
  161.9890  213.0230  137.8750 O   0  0  0  0  0  0  0  0  0  0  0  0
  162.0600  211.7950  138.5490 C   0  0  0  0  0  2  0  0  0  0  0  0
  162.9570  211.9510  139.7450 C   0  0  0  0  0  0  0  0  0  0  0  0
  160.8130  213.6700  138.3160 C   0  0  0  0  0  2  0  0  0  0  0  0
  160.8460  214.0020  139.8160 C   0  0  0  0  0  2  0  0  0  0  0  0
  162.7180  213.0380  140.7680 C   0  0  1  0  0  3  0  0  0  0  0  0
  162.1670  214.2420  140.2540 O   0  0  0  0  0  0  0  0  0  0  0  0
  163.8690  211.1590  139.9150 O   0  0  0  0  0  0  0  0  0  0  0  0
  162.9050  212.9420  146.3050 C   0  0  0  0  0  2  0  0  0  0  0  0
  162.4450  210.3360  151.7350 O   0  0  0  0  0  0  0  0  0  0  0  0
  162.0130  210.5730  147.6630 N   0  0  0  0  0  0  0  0  0  0  0  0
  161.7790  209.3350  148.3310 C   0  0  0  0  0  0  0  0  0  0  0  0
  161.4940  208.3030  147.6660 O   0  0  0  0  0  0  0  0  0  0  0  0
  162.0450  211.8090  149.8940 C   0  0  2  0  0  3  0  0  0  0  0  0
  161.9050  209.2620  149.7490 N   0  0  0  0  0  2  0  0  0  0  0  0
  162.2750  211.7680  148.4060 C   0  0  0  0  0  0  0  0  0  0  0  0
  162.1590  210.4420  150.5160 C   0  0  0  0  0  0  0  0  0  0  0  0
  162.6810  212.8780  147.7850 C   0  0  0  0  0  2  0  0  0  0  0  0
  160.6710  212.4030  150.1800 C   0  0  0  0  0  2  0  0  0  0  0  0
  160.7370  213.7980  150.1590 O   0  0  0  0  0  1  0  0  0  0  0  0
  1  4  1  0  0  0  0
  3 13  1  0  0  0  0
  3  2  1  0  0  0  0
  4  5  1  0  0  0  0
  4  3  1  0  0  0  0
  5 30  1  6  0  0  0
  5  7  1  0  0  0  0
  6  4  1  0  0  0  0
  7 40  1  1  0  0  0
  7  2  1  0  0  0  0
  8 10  1  0  0  0  0
  9 10  2  0  0  0  0
 10 16  1  0  0  0  0
 11  8  2  0  0  0  0
 12 11  1  0  0  0  0
 12 13  2  0  0  0  0
 13  9  1  0  0  0  0
 14 28  1  1  0  0  0
 15 27  1  0  0  0  0
 16 23  1  0  0  0  0
 16 20  1  0  0  0  0
 17 28  1  6  0  0  0
 17 19  1  0  0  0  0
 18 20  1  6  0  0  0
 18 22  1  0  0  0  0
 18 21  1  0  0  0  0
 18 14  1  0  0  0  0
 19 25  1  0  0  0  0
 21 15  1  6  0  0  0
 21 14  1  0  0  0  0
 23 22  1  0  0  0  0
 24 25  1  0  0  0  0
 26 24  1  0  0  0  0
 27 26  1  1  0  0  0
 27 17  1  0  0  0  0
 29 31  2  0  0  0  0
 29 30  1  0  0  0  0
 32 35  1  0  0  0  0
 32 33  1  0  0  0  0
 33 34  1  0  0  0  0
 34 39  2  0  0  0  0
 34 37  1  0  0  0  0
 35 36  1  0  0  0  0
 36 38  1  0  0  0  0
 37 29  1  1  0  0  0
 38 37  1  0  0  0  0
 40 49  1  0  0  0  0
 42 43  1  0  0  0  0
 42 47  2  0  0  0  0
 43 46  1  0  0  0  0
 44 43  2  0  0  0  0
 45 50  1  6  0  0  0
 45 48  1  0  0  0  0
 46 48  1  0  0  0  0
 47 45  1  0  0  0  0
 48 41  2  0  0  0  0
 49 47  1  0  0  0  0
 51 50  1  0  0  0  0
M  END
>  <MODEL>
5

>  <REMARK>
 VINA RESULT:      -3.9      4.517      8.045
  Name = 
  7 active torsions:
  status: ('A' for Active; 'I' for Inactive)
    1  A    between atoms: C_1  and  C_35
    2  A    between atoms: N_9  and  C_20
    3  A    between atoms: N_12  and  C_51
    4  A    between atoms: N_19  and  C_27
    5  A    between atoms: C_31  and  C_33
    6  A    between atoms: C_42  and  C_45
    7  A    between atoms: C_42  and  C_49
                            x       y       z     vdW  Elec       q    Type
                         _______ _______ _______ _____ _____    ______ ____

>  <TORSDO>
F 7

$$$$
