=
 OpenBabel11042420093D

 30 33  0  0  1  0  0  0  0  0999 V2000
  160.8590  207.4510  153.2920 C   0  0  1  0  0  3  0  0  0  0  0  0
  161.0450  205.1060  150.2860 C   0  0  0  0  0  0  0  0  0  0  0  0
  161.8870  207.2870  148.1750 C   0  0  0  0  0  2  0  0  0  0  0  0
  161.0450  205.1690  148.7810 C   0  0  2  0  0  3  0  0  0  0  0  0
  161.9220  207.9990  149.5240 C   0  0  0  0  0  2  0  0  0  0  0  0
  161.0100  203.8380  148.1950 N   0  0  0  0  0  1  0  0  0  0  0  0
  161.2430  203.9170  150.9210 N   0  0  0  0  0  0  0  0  0  0  0  0
  161.3000  203.8230  152.2740 C   0  0  0  0  0  3  0  0  0  0  0  0
  161.1650  204.9650  153.0600 C   0  0  0  0  0  3  0  0  0  0  0  0
  160.9080  206.2880  151.0450 C   0  0  0  0  0  0  0  0  0  0  0  0
  160.9650  206.2070  152.4490 C   0  0  0  0  0  0  0  0  0  0  0  0
  162.2300  205.8770  148.3180 N   0  0  0  0  0  2  0  0  0  0  0  0
  160.7120  207.6200  150.3700 C   0  0  0  0  0  2  0  0  0  0  0  0
  160.2790  209.5910  156.1290 C   0  0  0  0  0  0  0  0  0  0  0  0
  159.6980  207.1980  155.5440 C   0  0  0  0  0  2  0  0  0  0  0  0
  162.5520  210.3670  156.2480 N   0  0  0  0  0  1  0  0  0  0  0  0
  161.5910  209.3560  155.9540 C   0  0  0  0  0  0  0  0  0  0  0  0
  161.0250  207.1590  154.7920 C   0  0  2  0  0  3  0  0  0  0  0  0
  162.0920  208.0070  155.5050 C   0  0  0  0  0  2  0  0  0  0  0  0
  159.3120  208.5750  155.8340 N   0  0  0  0  0  2  0  0  0  0  0  0
  159.7910  210.9240  156.5930 C   0  0  0  0  0  2  0  0  0  0  0  0
  158.4220  211.0310  156.3590 O   0  0  0  0  0  1  0  0  0  0  0  0
  161.7400  208.5850  152.7630 C   0  0  0  0  0  2  0  0  0  0  0  0
  159.3820  212.1010  152.0280 C   0  0  0  0  0  3  0  0  0  0  0  0
  161.4290  210.8490  151.6790 C   0  0  0  0  0  0  0  0  0  0  0  0
  159.6510  209.9210  153.0450 C   0  0  0  0  0  3  0  0  0  0  0  0
  160.6540  211.9920  151.4590 C   0  0  0  0  0  3  0  0  0  0  0  0
  160.9240  209.8040  152.4750 C   0  0  0  0  0  0  0  0  0  0  0  0
  158.8800  211.0650  152.8210 C   0  0  0  0  0  3  0  0  0  0  0  0
  162.7260  210.7610  151.0960 N   0  0  0  0  0  1  0  0  0  0  0  0
  1 23  1  6  0  0  0
  2  7  2  0  0  0  0
  2 10  1  0  0  0  0
  3 12  1  0  0  0  0
  3  5  1  0  0  0  0
  4  6  1  6  0  0  0
  4  2  1  0  0  0  0
  5 13  1  0  0  0  0
  7  8  1  0  0  0  0
  8  9  2  0  0  0  0
 10 11  2  0  0  0  0
 11  9  1  0  0  0  0
 11  1  1  0  0  0  0
 12  4  1  0  0  0  0
 13 10  1  0  0  0  0
 14 21  1  0  0  0  0
 15 20  1  0  0  0  0
 17 14  2  0  0  0  0
 17 16  1  0  0  0  0
 18  1  1  6  0  0  0
 18 19  1  0  0  0  0
 18 15  1  0  0  0  0
 19 17  1  0  0  0  0
 20 14  1  0  0  0  0
 22 21  1  0  0  0  0
 24 29  1  0  0  0  0
 25 28  2  0  0  0  0
 27 25  1  0  0  0  0
 27 24  2  0  0  0  0
 28 23  1  0  0  0  0
 28 26  1  0  0  0  0
 29 26  2  0  0  0  0
 30 25  1  0  0  0  0
M  END
>  <MODEL>
1

>  <REMARK>
 VINA RESULT:      -5.6      0.000      0.000
  Name = 
  5 active torsions:
  status: ('A' for Active; 'I' for Inactive)
    1  A    between atoms: CA_1  and  C_2
    2  A    between atoms: C_10  and  C_20
    3  A    between atoms: C_10  and  C_24
    4  A    between atoms: C_13  and  C_24
    5  A    between atoms: C_24  and  C_26
                            x       y       z     vdW  Elec       q    Type
                         _______ _______ _______ _____ _____    ______ ____

>  <TORSDO>
F 5

$$$$
=
 OpenBabel11042420093D

 30 33  0  0  1  0  0  0  0  0999 V2000
  161.1790  209.3000  153.1510 C   0  0  1  0  0  3  0  0  0  0  0  0
  160.1100  212.3640  151.1400 C   0  0  0  0  0  0  0  0  0  0  0  0
  162.0290  211.8790  148.6900 C   0  0  0  0  0  2  0  0  0  0  0  0
  160.6080  213.2230  150.0080 C   0  0  2  0  0  3  0  0  0  0  0  0
  162.1750  210.6390  149.5670 C   0  0  0  0  0  2  0  0  0  0  0  0
  159.7420  214.3720  149.7930 N   0  0  0  0  0  1  0  0  0  0  0  0
  158.8710  212.5760  151.6650 N   0  0  0  0  0  0  0  0  0  0  0  0
  158.3630  211.7940  152.6530 C   0  0  0  0  0  3  0  0  0  0  0  0
  159.1090  210.7300  153.1540 C   0  0  0  0  0  3  0  0  0  0  0  0
  160.8970  211.2940  151.6170 C   0  0  0  0  0  0  0  0  0  0  0  0
  160.3840  210.4740  152.6410 C   0  0  0  0  0  0  0  0  0  0  0  0
  160.6830  212.4330  148.7870 N   0  0  0  0  0  2  0  0  0  0  0  0
  162.2600  211.0220  151.0400 C   0  0  0  0  0  2  0  0  0  0  0  0
  159.8520  210.5180  156.2680 C   0  0  0  0  0  0  0  0  0  0  0  0
  161.4690  208.6870  155.6050 C   0  0  0  0  0  2  0  0  0  0  0  0
  160.2540  212.8320  155.7530 N   0  0  0  0  0  1  0  0  0  0  0  0
  160.6000  211.4520  155.6570 C   0  0  0  0  0  0  0  0  0  0  0  0
  161.9030  209.6110  154.4710 C   0  0  2  0  0  3  0  0  0  0  0  0
  161.8540  211.0850  154.9070 C   0  0  0  0  0  2  0  0  0  0  0  0
  160.2000  209.1310  156.1720 N   0  0  0  0  0  2  0  0  0  0  0  0
  158.6210  210.8920  157.0260 C   0  0  0  0  0  2  0  0  0  0  0  0
  157.5630  211.0820  156.1390 O   0  0  0  0  0  1  0  0  0  0  0  0
  160.3600  208.0080  153.1630 C   0  0  0  0  0  2  0  0  0  0  0  0
  161.6680  205.4400  149.9760 C   0  0  0  0  0  3  0  0  0  0  0  0
  161.1950  205.7700  152.3310 C   0  0  0  0  0  0  0  0  0  0  0  0
  160.8380  207.5770  150.7510 C   0  0  0  0  0  3  0  0  0  0  0  0
  161.6290  204.9510  151.2850 C   0  0  0  0  0  3  0  0  0  0  0  0
  160.7930  207.0920  152.0640 C   0  0  0  0  0  0  0  0  0  0  0  0
  161.2720  206.7540  149.7090 C   0  0  0  0  0  3  0  0  0  0  0  0
  161.1690  205.2550  153.6590 N   0  0  0  0  0  1  0  0  0  0  0  0
  1 23  1  1  0  0  0
  2 10  2  0  0  0  0
  2  7  1  0  0  0  0
  3 12  1  0  0  0  0
  3  5  1  0  0  0  0
  4  6  1  6  0  0  0
  4  2  1  0  0  0  0
  5 13  1  0  0  0  0
  7  8  2  0  0  0  0
  8  9  1  0  0  0  0
 10 11  1  0  0  0  0
 11  1  1  0  0  0  0
 11  9  2  0  0  0  0
 12  4  1  0  0  0  0
 13 10  1  0  0  0  0
 14 21  1  0  0  0  0
 15 20  1  0  0  0  0
 17 16  1  0  0  0  0
 17 14  2  0  0  0  0
 18  1  1  6  0  0  0
 18 19  1  0  0  0  0
 18 15  1  0  0  0  0
 19 17  1  0  0  0  0
 20 14  1  0  0  0  0
 22 21  1  0  0  0  0
 24 27  1  0  0  0  0
 25 30  1  0  0  0  0
 26 28  2  0  0  0  0
 27 25  2  0  0  0  0
 28 25  1  0  0  0  0
 28 23  1  0  0  0  0
 29 24  2  0  0  0  0
 29 26  1  0  0  0  0
M  END
>  <MODEL>
2

>  <REMARK>
 VINA RESULT:      -5.2      2.025      5.268
  Name = 
  5 active torsions:
  status: ('A' for Active; 'I' for Inactive)
    1  A    between atoms: CA_1  and  C_2
    2  A    between atoms: C_10  and  C_20
    3  A    between atoms: C_10  and  C_24
    4  A    between atoms: C_13  and  C_24
    5  A    between atoms: C_24  and  C_26
                            x       y       z     vdW  Elec       q    Type
                         _______ _______ _______ _____ _____    ______ ____

>  <TORSDO>
F 5

$$$$
=
 OpenBabel11042420093D

 30 33  0  0  1  0  0  0  0  0999 V2000
  161.4140  209.7470  151.9300 C   0  0  1  0  0  3  0  0  0  0  0  0
  159.0690  212.7240  151.4730 C   0  0  0  0  0  0  0  0  0  0  0  0
  157.8590  212.6840  154.3800 C   0  0  0  0  0  2  0  0  0  0  0  0
  157.8470  213.3300  152.1120 C   0  0  2  0  0  3  0  0  0  0  0  0
  158.9780  211.6480  154.3970 C   0  0  0  0  0  2  0  0  0  0  0  0
  157.3440  214.4520  151.3350 N   0  0  0  0  0  1  0  0  0  0  0  0
  159.6930  213.3650  150.4450 N   0  0  0  0  0  0  0  0  0  0  0  0
  160.8240  212.8800  149.8730 C   0  0  0  0  0  3  0  0  0  0  0  0
  161.3900  211.6960  150.3390 C   0  0  0  0  0  3  0  0  0  0  0  0
  159.6110  211.5230  151.9770 C   0  0  0  0  0  0  0  0  0  0  0  0
  160.7840  211.0060  151.3940 C   0  0  0  0  0  0  0  0  0  0  0  0
  158.1680  213.7740  153.4610 N   0  0  0  0  0  2  0  0  0  0  0  0
  158.9570  210.8040  153.1270 C   0  0  0  0  0  2  0  0  0  0  0  0
  161.1260  206.4470  150.5180 C   0  0  0  0  0  0  0  0  0  0  0  0
  161.5540  208.7610  149.5860 C   0  0  0  0  0  2  0  0  0  0  0  0
  162.5870  205.4240  152.1310 N   0  0  0  0  0  1  0  0  0  0  0  0
  162.1890  206.5380  151.3350 C   0  0  0  0  0  0  0  0  0  0  0  0
  162.2990  209.0440  150.8870 C   0  0  2  0  0  3  0  0  0  0  0  0
  163.0280  207.7890  151.3940 C   0  0  0  0  0  2  0  0  0  0  0  0
  160.7270  207.5670  149.7180 N   0  0  0  0  0  2  0  0  0  0  0  0
  160.3120  205.1980  150.4510 C   0  0  0  0  0  2  0  0  0  0  0  0
  160.7090  204.4360  149.3530 O   0  0  0  0  0  1  0  0  0  0  0  0
  162.0820  209.9660  153.2890 C   0  0  0  0  0  2  0  0  0  0  0  0
  160.3080  207.4330  156.2710 C   0  0  0  0  0  3  0  0  0  0  0  0
  161.5510  209.4360  155.7040 C   0  0  0  0  0  0  0  0  0  0  0  0
  160.7800  207.9440  153.9530 C   0  0  0  0  0  3  0  0  0  0  0  0
  160.9780  208.5960  156.6640 C   0  0  0  0  0  3  0  0  0  0  0  0
  161.4490  209.1110  154.3390 C   0  0  0  0  0  0  0  0  0  0  0  0
  160.2090  207.1070  154.9160 C   0  0  0  0  0  3  0  0  0  0  0  0
  162.2360  210.6120  156.1250 N   0  0  0  0  0  1  0  0  0  0  0  0
  1 23  1  1  0  0  0
  2 10  1  0  0  0  0
  2  4  1  0  0  0  0
  3  5  1  0  0  0  0
  4  6  1  6  0  0  0
  4 12  1  0  0  0  0
  7  2  2  0  0  0  0
  8  9  2  0  0  0  0
  8  7  1  0  0  0  0
  9 11  1  0  0  0  0
 10 13  1  0  0  0  0
 11  1  1  0  0  0  0
 11 10  2  0  0  0  0
 12  3  1  0  0  0  0
 13  5  1  0  0  0  0
 14 17  2  0  0  0  0
 15 20  1  0  0  0  0
 15 18  1  0  0  0  0
 17 19  1  0  0  0  0
 17 16  1  0  0  0  0
 18 19  1  0  0  0  0
 18  1  1  1  0  0  0
 20 14  1  0  0  0  0
 21 14  1  0  0  0  0
 22 21  1  0  0  0  0
 23 28  1  0  0  0  0
 24 27  1  0  0  0  0
 25 30  1  0  0  0  0
 25 27  2  0  0  0  0
 26 28  2  0  0  0  0
 26 29  1  0  0  0  0
 28 25  1  0  0  0  0
 29 24  2  0  0  0  0
M  END
>  <MODEL>
3

>  <REMARK>
 VINA RESULT:      -5.0      2.848      6.822
  Name = 
  5 active torsions:
  status: ('A' for Active; 'I' for Inactive)
    1  A    between atoms: CA_1  and  C_2
    2  A    between atoms: C_10  and  C_20
    3  A    between atoms: C_10  and  C_24
    4  A    between atoms: C_13  and  C_24
    5  A    between atoms: C_24  and  C_26
                            x       y       z     vdW  Elec       q    Type
                         _______ _______ _______ _____ _____    ______ ____

>  <TORSDO>
F 5

$$$$
=
 OpenBabel11042420093D

 30 33  0  0  1  0  0  0  0  0999 V2000
  160.9030  209.1540  153.4590 C   0  0  1  0  0  3  0  0  0  0  0  0
  161.1840  206.2510  150.9960 C   0  0  0  0  0  0  0  0  0  0  0  0
  162.1410  207.9580  148.5290 C   0  0  0  0  0  2  0  0  0  0  0  0
  161.2470  206.0090  149.5110 C   0  0  2  0  0  3  0  0  0  0  0  0
  162.1290  208.9270  149.7080 C   0  0  0  0  0  2  0  0  0  0  0  0
  161.2190  204.5880  149.2040 N   0  0  0  0  0  1  0  0  0  0  0  0
  161.3390  205.2120  151.8650 N   0  0  0  0  0  0  0  0  0  0  0  0
  161.3380  205.3920  153.2110 C   0  0  0  0  0  3  0  0  0  0  0  0
  161.1860  206.6700  153.7450 C   0  0  0  0  0  3  0  0  0  0  0  0
  161.0300  207.5610  151.4960 C   0  0  0  0  0  0  0  0  0  0  0  0
  161.0270  207.7650  152.8890 C   0  0  0  0  0  0  0  0  0  0  0  0
  162.4600  206.6040  148.9680 N   0  0  0  0  0  2  0  0  0  0  0  0
  160.8800  208.7310  150.5600 C   0  0  0  0  0  2  0  0  0  0  0  0
  159.7370  210.6020  156.5420 C   0  0  0  0  0  0  0  0  0  0  0  0
  160.9640  208.4790  155.9140 C   0  0  0  0  0  2  0  0  0  0  0  0
  160.6300  212.7850  156.0740 N   0  0  0  0  0  1  0  0  0  0  0  0
  160.6860  211.3640  155.9720 C   0  0  0  0  0  0  0  0  0  0  0  0
  161.6240  209.3000  154.8100 C   0  0  2  0  0  3  0  0  0  0  0  0
  161.8650  210.7480  155.2640 C   0  0  0  0  0  2  0  0  0  0  0  0
  159.7940  209.1740  156.4400 N   0  0  0  0  0  2  0  0  0  0  0  0
  158.5820  211.2190  157.2590 C   0  0  0  0  0  2  0  0  0  0  0  0
  157.5260  211.4120  156.3700 O   0  0  0  0  0  1  0  0  0  0  0  0
  161.2500  210.2340  152.4320 C   0  0  0  0  0  2  0  0  0  0  0  0
  158.0350  213.0660  152.1130 C   0  0  0  0  0  3  0  0  0  0  0  0
  160.1810  212.2470  151.3370 C   0  0  0  0  0  0  0  0  0  0  0  0
  159.0300  211.1190  153.1500 C   0  0  0  0  0  3  0  0  0  0  0  0
  159.1330  213.1680  151.2530 C   0  0  0  0  0  3  0  0  0  0  0  0
  160.1300  211.2130  152.2890 C   0  0  0  0  0  0  0  0  0  0  0  0
  157.9840  212.0410  153.0620 C   0  0  0  0  0  3  0  0  0  0  0  0
  161.2940  212.3720  150.4560 N   0  0  0  0  0  1  0  0  0  0  0  0
  1 23  1  6  0  0  0
  2 10  2  0  0  0  0
  2  7  1  0  0  0  0
  3 12  1  0  0  0  0
  3  5  1  0  0  0  0
  4  6  1  1  0  0  0
  4  2  1  0  0  0  0
  5 13  1  0  0  0  0
  7  8  2  0  0  0  0
  8  9  1  0  0  0  0
 10 11  1  0  0  0  0
 11  1  1  0  0  0  0
 11  9  2  0  0  0  0
 12  4  1  0  0  0  0
 13 10  1  0  0  0  0
 14 21  1  0  0  0  0
 15 20  1  0  0  0  0
 17 16  1  0  0  0  0
 17 14  2  0  0  0  0
 18  1  1  6  0  0  0
 18 19  1  0  0  0  0
 18 15  1  0  0  0  0
 19 17  1  0  0  0  0
 20 14  1  0  0  0  0
 22 21  1  0  0  0  0
 24 29  1  0  0  0  0
 25 28  2  0  0  0  0
 27 25  1  0  0  0  0
 27 24  2  0  0  0  0
 28 23  1  0  0  0  0
 28 26  1  0  0  0  0
 29 26  2  0  0  0  0
 30 25  1  0  0  0  0
M  END
>  <MODEL>
4

>  <REMARK>
 VINA RESULT:      -4.9      1.255      1.689
  Name = 
  5 active torsions:
  status: ('A' for Active; 'I' for Inactive)
    1  A    between atoms: CA_1  and  C_2
    2  A    between atoms: C_10  and  C_20
    3  A    between atoms: C_10  and  C_24
    4  A    between atoms: C_13  and  C_24
    5  A    between atoms: C_24  and  C_26
                            x       y       z     vdW  Elec       q    Type
                         _______ _______ _______ _____ _____    ______ ____

>  <TORSDO>
F 5

$$$$
=
 OpenBabel11042420093D

 30 33  0  0  1  0  0  0  0  0999 V2000
  161.2890  213.2060  141.2500 C   0  0  1  0  0  3  0  0  0  0  0  0
  161.8090  213.9540  144.9570 C   0  0  0  0  0  0  0  0  0  0  0  0
  159.5130  212.0840  146.0310 C   0  0  0  0  0  2  0  0  0  0  0  0
  161.0690  213.8410  146.2640 C   0  0  2  0  0  3  0  0  0  0  0  0
  159.5950  211.8010  144.5340 C   0  0  0  0  0  2  0  0  0  0  0  0
  161.8180  214.4520  147.3520 N   0  0  0  0  0  1  0  0  0  0  0  0
  163.1090  214.3630  144.9400 N   0  0  0  0  0  0  0  0  0  0  0  0
  163.8280  214.4320  143.7900 C   0  0  0  0  0  3  0  0  0  0  0  0
  163.2440  214.0690  142.5790 C   0  0  0  0  0  3  0  0  0  0  0  0
  161.1810  213.5730  143.7520 C   0  0  0  0  0  0  0  0  0  0  0  0
  161.9130  213.6390  142.5510 C   0  0  0  0  0  0  0  0  0  0  0  0
  160.8220  212.4380  146.5690 N   0  0  0  0  0  2  0  0  0  0  0  0
  159.7540  213.0950  143.7440 C   0  0  0  0  0  2  0  0  0  0  0  0
  158.5300  212.7840  138.9760 C   0  0  0  0  0  0  0  0  0  0  0  0
  158.8740  214.0070  141.1650 C   0  0  0  0  0  2  0  0  0  0  0  0
  159.8270  213.2790  137.0130 N   0  0  0  0  0  1  0  0  0  0  0  0
  159.5410  213.4540  138.3990 C   0  0  0  0  0  0  0  0  0  0  0  0
  160.3050  214.2490  140.6960 C   0  0  2  0  0  3  0  0  0  0  0  0
  160.3630  214.4520  139.1730 C   0  0  0  0  0  2  0  0  0  0  0  0
  158.2430  212.9600  140.3690 N   0  0  0  0  0  2  0  0  0  0  0  0
  157.7070  211.8110  138.1980 C   0  0  0  0  0  2  0  0  0  0  0  0
  158.1670  210.5160  138.4300 O   0  0  0  0  0  1  0  0  0  0  0  0
  162.3310  212.7150  140.2430 C   0  0  0  0  0  2  0  0  0  0  0  0
  161.2550  208.8030  138.8310 C   0  0  0  0  0  3  0  0  0  0  0  0
  162.3340  210.9390  138.4430 C   0  0  0  0  0  0  0  0  0  0  0  0
  161.2720  210.4800  140.5750 C   0  0  0  0  0  3  0  0  0  0  0  0
  161.9660  209.6670  137.9930 C   0  0  0  0  0  3  0  0  0  0  0  0
  161.9880  211.3490  139.7430 C   0  0  0  0  0  0  0  0  0  0  0  0
  160.9070  209.2100  140.1220 C   0  0  0  0  0  3  0  0  0  0  0  0
  163.0530  211.8070  137.5710 N   0  0  0  0  0  1  0  0  0  0  0  0
  1 23  1  6  0  0  0
  1 11  1  0  0  0  0
  2  4  1  0  0  0  0
  3 12  1  0  0  0  0
  4 12  1  0  0  0  0
  4  6  1  1  0  0  0
  5  3  1  0  0  0  0
  7  2  1  0  0  0  0
  8  7  2  0  0  0  0
  9  8  1  0  0  0  0
 10  2  2  0  0  0  0
 11  9  2  0  0  0  0
 11 10  1  0  0  0  0
 13 10  1  0  0  0  0
 13  5  1  0  0  0  0
 14 20  1  0  0  0  0
 16 17  1  0  0  0  0
 17 14  2  0  0  0  0
 17 19  1  0  0  0  0
 18 15  1  0  0  0  0
 18  1  1  6  0  0  0
 19 18  1  0  0  0  0
 20 15  1  0  0  0  0
 21 22  1  0  0  0  0
 21 14  1  0  0  0  0
 24 29  1  0  0  0  0
 25 28  2  0  0  0  0
 27 25  1  0  0  0  0
 27 24  2  0  0  0  0
 28 23  1  0  0  0  0
 28 26  1  0  0  0  0
 29 26  2  0  0  0  0
 30 25  1  0  0  0  0
M  END
>  <MODEL>
5

>  <REMARK>
 VINA RESULT:      -4.8      9.737     13.717
  Name = 
  5 active torsions:
  status: ('A' for Active; 'I' for Inactive)
    1  A    between atoms: CA_1  and  C_2
    2  A    between atoms: C_10  and  C_20
    3  A    between atoms: C_10  and  C_24
    4  A    between atoms: C_13  and  C_24
    5  A    between atoms: C_24  and  C_26
                            x       y       z     vdW  Elec       q    Type
                         _______ _______ _______ _____ _____    ______ ____

>  <TORSDO>
F 5

$$$$
=
 OpenBabel11042420093D

 30 33  0  0  1  0  0  0  0  0999 V2000
  161.2760  204.6310  150.4550 C   0  0  1  0  0  3  0  0  0  0  0  0
  161.9080  208.0820  151.9580 C   0  0  0  0  0  0  0  0  0  0  0  0
  162.1040  209.6380  149.2270 C   0  0  0  0  0  2  0  0  0  0  0  0
  162.4450  209.4290  151.5510 C   0  0  2  0  0  3  0  0  0  0  0  0
  161.6740  208.2230  148.8530 C   0  0  0  0  0  2  0  0  0  0  0  0
  162.5390  210.3290  152.6910 N   0  0  0  0  0  1  0  0  0  0  0  0
  161.3720  207.9060  153.1980 N   0  0  0  0  0  0  0  0  0  0  0  0
  160.8320  206.7220  153.5890 C   0  0  0  0  0  3  0  0  0  0  0  0
  160.8040  205.6430  152.7090 C   0  0  0  0  0  3  0  0  0  0  0  0
  161.8960  207.0150  151.0350 C   0  0  0  0  0  0  0  0  0  0  0  0
  161.3400  205.7810  151.4250 C   0  0  0  0  0  0  0  0  0  0  0  0
  161.5820  210.0160  150.5350 N   0  0  0  0  0  2  0  0  0  0  0  0
  162.4600  207.1880  149.6500 C   0  0  0  0  0  2  0  0  0  0  0  0
  161.2060  201.2950  149.1030 C   0  0  0  0  0  0  0  0  0  0  0  0
  162.1530  202.3580  151.1950 C   0  0  0  0  0  2  0  0  0  0  0  0
  158.8580  201.3500  148.5860 N   0  0  0  0  0  1  0  0  0  0  0  0
  159.9680  201.7300  149.3960 C   0  0  0  0  0  0  0  0  0  0  0  0
  160.9510  203.2970  151.1480 C   0  0  2  0  0  3  0  0  0  0  0  0
  159.7030  202.5750  150.6150 C   0  0  0  0  0  2  0  0  0  0  0  0
  162.3220  201.6760  149.9160 N   0  0  0  0  0  2  0  0  0  0  0  0
  161.4580  200.4410  147.9030 C   0  0  0  0  0  2  0  0  0  0  0  0
  161.2030  201.1720  146.7450 O   0  0  0  0  0  1  0  0  0  0  0  0
  160.4010  204.9460  149.2390 C   0  0  0  0  0  2  0  0  0  0  0  0
  162.7230  204.8340  145.6260 C   0  0  0  0  0  3  0  0  0  0  0  0
  160.8450  205.7250  146.8740 C   0  0  0  0  0  0  0  0  0  0  0  0
  162.3310  204.1040  147.9000 C   0  0  0  0  0  3  0  0  0  0  0  0
  161.6040  205.6690  145.7010 C   0  0  0  0  0  3  0  0  0  0  0  0
  161.2110  204.9400  147.9830 C   0  0  0  0  0  0  0  0  0  0  0  0
  163.0870  204.0520  146.7250 C   0  0  0  0  0  3  0  0  0  0  0  0
  159.7040  206.5760  146.9280 N   0  0  0  0  0  1  0  0  0  0  0  0
  1 23  1  6  0  0  0
  1 11  1  0  0  0  0
  2  7  1  0  0  0  0
  3 12  1  0  0  0  0
  4  2  1  0  0  0  0
  4  6  1  1  0  0  0
  5  3  1  0  0  0  0
  5 13  1  0  0  0  0
  7  8  2  0  0  0  0
  9  8  1  0  0  0  0
 10 11  1  0  0  0  0
 10  2  2  0  0  0  0
 11  9  2  0  0  0  0
 12  4  1  0  0  0  0
 13 10  1  0  0  0  0
 14 17  2  0  0  0  0
 14 20  1  0  0  0  0
 16 17  1  0  0  0  0
 17 19  1  0  0  0  0
 18  1  1  6  0  0  0
 18 15  1  0  0  0  0
 19 18  1  0  0  0  0
 20 15  1  0  0  0  0
 21 14  1  0  0  0  0
 22 21  1  0  0  0  0
 24 27  2  0  0  0  0
 24 29  1  0  0  0  0
 25 30  1  0  0  0  0
 25 28  2  0  0  0  0
 26 28  1  0  0  0  0
 27 25  1  0  0  0  0
 28 23  1  0  0  0  0
 29 26  2  0  0  0  0
M  END
>  <MODEL>
6

>  <REMARK>
 VINA RESULT:      -4.8      3.599      7.516
  Name = 
  5 active torsions:
  status: ('A' for Active; 'I' for Inactive)
    1  A    between atoms: CA_1  and  C_2
    2  A    between atoms: C_10  and  C_20
    3  A    between atoms: C_10  and  C_24
    4  A    between atoms: C_13  and  C_24
    5  A    between atoms: C_24  and  C_26
                            x       y       z     vdW  Elec       q    Type
                         _______ _______ _______ _____ _____    ______ ____

>  <TORSDO>
F 5

$$$$
=
 OpenBabel11042420093D

 30 33  0  0  1  0  0  0  0  0999 V2000
  160.8880  208.4620  152.1090 C   0  0  1  0  0  3  0  0  0  0  0  0
  159.6340  210.3930  155.1540 C   0  0  0  0  0  0  0  0  0  0  0  0
  161.5330  209.0240  157.2610 C   0  0  0  0  0  2  0  0  0  0  0  0
  159.6390  210.2940  156.6560 C   0  0  2  0  0  3  0  0  0  0  0  0
  161.9970  208.5040  155.9040 C   0  0  0  0  0  2  0  0  0  0  0  0
  158.8350  211.3450  157.2610 N   0  0  0  0  0  1  0  0  0  0  0  0
  159.1250  211.5000  154.5440 N   0  0  0  0  0  0  0  0  0  0  0  0
  159.1440  211.6530  153.1940 C   0  0  0  0  0  3  0  0  0  0  0  0
  159.7050  210.6660  152.3880 C   0  0  0  0  0  3  0  0  0  0  0  0
  160.2150  209.3710  154.3740 C   0  0  0  0  0  0  0  0  0  0  0  0
  160.2430  209.5140  152.9730 C   0  0  0  0  0  0  0  0  0  0  0  0
  161.0060  210.3800  157.1500 N   0  0  0  0  0  2  0  0  0  0  0  0
  160.8060  208.1480  155.0220 C   0  0  0  0  0  2  0  0  0  0  0  0
  161.9650  210.2690  149.1870 C   0  0  0  0  0  0  0  0  0  0  0  0
  162.5140  210.3680  151.6550 C   0  0  0  0  0  2  0  0  0  0  0  0
  162.3360  208.2910  147.8690 N   0  0  0  0  0  1  0  0  0  0  0  0
  162.3220  208.9740  149.1210 C   0  0  0  0  0  0  0  0  0  0  0  0
  162.3070  208.8570  151.6660 C   0  0  2  0  0  3  0  0  0  0  0  0
  162.7750  208.2230  150.3460 C   0  0  0  0  0  2  0  0  0  0  0  0
  161.9510  210.9560  150.4450 N   0  0  0  0  0  2  0  0  0  0  0  0
  161.5360  211.0120  147.9650 C   0  0  0  0  0  2  0  0  0  0  0  0
  162.2020  212.2350  147.9010 O   0  0  0  0  0  1  0  0  0  0  0  0
  160.7780  207.0640  152.7210 C   0  0  0  0  0  2  0  0  0  0  0  0
  160.8220  204.1000  149.6100 C   0  0  0  0  0  3  0  0  0  0  0  0
  160.9990  204.6610  151.9620 C   0  0  0  0  0  0  0  0  0  0  0  0
  160.5760  206.4000  150.3230 C   0  0  0  0  0  3  0  0  0  0  0  0
  161.0220  203.7100  150.9380 C   0  0  0  0  0  3  0  0  0  0  0  0
  160.7710  206.0150  151.6550 C   0  0  0  0  0  0  0  0  0  0  0  0
  160.5990  205.4450  149.3030 C   0  0  0  0  0  3  0  0  0  0  0  0
  161.2120  204.2440  153.3080 N   0  0  0  0  0  1  0  0  0  0  0  0
  1 23  1  1  0  0  0
  1 11  1  0  0  0  0
  2  4  1  0  0  0  0
  4 12  1  0  0  0  0
  4  6  1  1  0  0  0
  5  3  1  0  0  0  0
  7  2  1  0  0  0  0
  8  7  2  0  0  0  0
  9 11  2  0  0  0  0
  9  8  1  0  0  0  0
 10 13  1  0  0  0  0
 10  2  2  0  0  0  0
 11 10  1  0  0  0  0
 12  3  1  0  0  0  0
 13  5  1  0  0  0  0
 14 20  1  0  0  0  0
 15 18  1  0  0  0  0
 16 17  1  0  0  0  0
 17 14  2  0  0  0  0
 17 19  1  0  0  0  0
 18  1  1  6  0  0  0
 19 18  1  0  0  0  0
 20 15  1  0  0  0  0
 21 14  1  0  0  0  0
 22 21  1  0  0  0  0
 24 27  1  0  0  0  0
 25 30  1  0  0  0  0
 26 28  2  0  0  0  0
 27 25  2  0  0  0  0
 28 25  1  0  0  0  0
 28 23  1  0  0  0  0
 29 24  2  0  0  0  0
 29 26  1  0  0  0  0
M  END
>  <MODEL>
7

>  <REMARK>
 VINA RESULT:      -4.8      2.338      7.111
  Name = 
  5 active torsions:
  status: ('A' for Active; 'I' for Inactive)
    1  A    between atoms: CA_1  and  C_2
    2  A    between atoms: C_10  and  C_20
    3  A    between atoms: C_10  and  C_24
    4  A    between atoms: C_13  and  C_24
    5  A    between atoms: C_24  and  C_26
                            x       y       z     vdW  Elec       q    Type
                         _______ _______ _______ _____ _____    ______ ____

>  <TORSDO>
F 5

$$$$
=
 OpenBabel11042420093D

 30 33  0  0  1  0  0  0  0  0999 V2000
  161.3160  205.7330  149.0830 C   0  0  1  0  0  3  0  0  0  0  0  0
  161.8450  208.4600  151.7010 C   0  0  0  0  0  0  0  0  0  0  0  0
  161.9680  210.8790  149.6880 C   0  0  0  0  0  2  0  0  0  0  0  0
  162.3340  209.8820  151.7940 C   0  0  2  0  0  3  0  0  0  0  0  0
  161.5820  209.6700  148.8410 C   0  0  0  0  0  2  0  0  0  0  0  0
  162.4070  210.3290  153.1760 N   0  0  0  0  0  1  0  0  0  0  0  0
  161.3250  207.8430  152.7990 N   0  0  0  0  0  0  0  0  0  0  0  0
  160.8280  206.5800  152.7490 C   0  0  0  0  0  3  0  0  0  0  0  0
  160.8290  205.8770  151.5470 C   0  0  0  0  0  3  0  0  0  0  0  0
  161.8610  207.7840  150.4630 C   0  0  0  0  0  0  0  0  0  0  0  0
  161.3490  206.4740  150.3940 C   0  0  0  0  0  0  0  0  0  0  0  0
  161.4440  210.7570  151.0440 N   0  0  0  0  0  2  0  0  0  0  0  0
  162.4080  208.4490  149.2280 C   0  0  0  0  0  2  0  0  0  0  0  0
  161.1230  205.0400  145.5550 C   0  0  0  0  0  0  0  0  0  0  0  0
  160.3640  206.9360  147.0500 C   0  0  0  0  0  2  0  0  0  0  0  0
  163.4350  204.4060  145.3620 N   0  0  0  0  0  1  0  0  0  0  0  0
  162.3980  205.1830  145.9570 C   0  0  0  0  0  0  0  0  0  0  0  0
  161.6100  206.6510  147.8850 C   0  0  2  0  0  3  0  0  0  0  0  0
  162.7820  206.2040  146.9970 C   0  0  0  0  0  2  0  0  0  0  0  0
  160.0810  205.8210  146.1530 N   0  0  0  0  0  2  0  0  0  0  0  0
  160.7530  204.0390  144.5100 C   0  0  0  0  0  2  0  0  0  0  0  0
  160.5940  202.7850  145.0970 O   0  0  0  0  0  1  0  0  0  0  0  0
  162.1480  204.4500  149.1210 C   0  0  0  0  0  2  0  0  0  0  0  0
  159.6670  200.9640  149.5100 C   0  0  0  0  0  3  0  0  0  0  0  0
  161.2070  202.5520  150.5030 C   0  0  0  0  0  0  0  0  0  0  0  0
  160.5340  202.7930  148.1840 C   0  0  0  0  0  3  0  0  0  0  0  0
  160.4030  201.4130  150.6100 C   0  0  0  0  0  3  0  0  0  0  0  0
  161.2710  203.2500  149.2830 C   0  0  0  0  0  0  0  0  0  0  0  0
  159.7320  201.6540  148.2970 C   0  0  0  0  0  3  0  0  0  0  0  0
  161.9550  202.9890  151.6330 N   0  0  0  0  0  1  0  0  0  0  0  0
  1 23  1  1  0  0  0
  1 11  1  0  0  0  0
  2  4  1  0  0  0  0
  2  7  1  0  0  0  0
  3 12  1  0  0  0  0
  4  6  1  1  0  0  0
  5 13  1  0  0  0  0
  5  3  1  0  0  0  0
  8  7  2  0  0  0  0
  9  8  1  0  0  0  0
 10  2  2  0  0  0  0
 11 10  1  0  0  0  0
 11  9  2  0  0  0  0
 12  4  1  0  0  0  0
 13 10  1  0  0  0  0
 14 17  2  0  0  0  0
 14 20  1  0  0  0  0
 15 18  1  0  0  0  0
 16 17  1  0  0  0  0
 17 19  1  0  0  0  0
 18  1  1  1  0  0  0
 19 18  1  0  0  0  0
 20 15  1  0  0  0  0
 21 22  1  0  0  0  0
 21 14  1  0  0  0  0
 23 28  1  0  0  0  0
 24 27  1  0  0  0  0
 25 27  2  0  0  0  0
 25 30  1  0  0  0  0
 26 29  1  0  0  0  0
 26 28  2  0  0  0  0
 28 25  1  0  0  0  0
 29 24  2  0  0  0  0
M  END
>  <MODEL>
8

>  <REMARK>
 VINA RESULT:      -4.8      3.660      8.109
  Name = 
  5 active torsions:
  status: ('A' for Active; 'I' for Inactive)
    1  A    between atoms: CA_1  and  C_2
    2  A    between atoms: C_10  and  C_20
    3  A    between atoms: C_10  and  C_24
    4  A    between atoms: C_13  and  C_24
    5  A    between atoms: C_24  and  C_26
                            x       y       z     vdW  Elec       q    Type
                         _______ _______ _______ _____ _____    ______ ____

>  <TORSDO>
F 5

$$$$
=
 OpenBabel11042420093D

 30 33  0  0  1  0  0  0  0  0999 V2000
  161.6300  207.9150  151.4150 C   0  0  1  0  0  3  0  0  0  0  0  0
  161.2000  204.7550  149.3160 C   0  0  0  0  0  0  0  0  0  0  0  0
  160.9970  202.7410  151.7290 C   0  0  0  0  0  2  0  0  0  0  0  0
  161.3330  203.2610  149.4530 C   0  0  2  0  0  3  0  0  0  0  0  0
  161.0050  204.1280  152.3640 C   0  0  0  0  0  2  0  0  0  0  0  0
  161.1360  202.5920  148.1760 N   0  0  0  0  0  1  0  0  0  0  0  0
  160.7110  205.2960  148.1650 N   0  0  0  0  0  0  0  0  0  0  0  0
  160.5300  206.6340  148.0170 C   0  0  0  0  0  3  0  0  0  0  0  0
  160.8360  207.5000  149.0640 C   0  0  0  0  0  3  0  0  0  0  0  0
  161.5190  205.5970  150.4030 C   0  0  0  0  0  0  0  0  0  0  0  0
  161.3370  206.9870  150.2650 C   0  0  0  0  0  0  0  0  0  0  0  0
  160.3590  202.7680  150.4180 N   0  0  0  0  0  2  0  0  0  0  0  0
  162.0390  205.0260  151.6950 C   0  0  0  0  0  2  0  0  0  0  0  0
  161.3410  211.3690  150.4430 C   0  0  0  0  0  0  0  0  0  0  0  0
  162.7830  210.0860  152.0800 C   0  0  0  0  0  2  0  0  0  0  0  0
  161.3520  210.9020  148.0840 N   0  0  0  0  0  1  0  0  0  0  0  0
  161.7580  210.6060  149.4180 C   0  0  0  0  0  0  0  0  0  0  0  0
  162.7300  208.9350  151.0790 C   0  0  2  0  0  3  0  0  0  0  0  0
  162.7110  209.4580  149.6330 C   0  0  0  0  0  2  0  0  0  0  0  0
  161.7490  211.0720  151.7840 N   0  0  0  0  0  2  0  0  0  0  0  0
  160.4130  212.5170  150.2200 C   0  0  0  0  0  2  0  0  0  0  0  0
  160.0460  213.0700  151.4450 O   0  0  0  0  0  1  0  0  0  0  0  0
  160.3580  208.5220  152.0090 C   0  0  0  0  0  2  0  0  0  0  0  0
  160.4080  208.0920  156.2830 C   0  0  0  0  0  3  0  0  0  0  0  0
  159.9090  209.4330  154.3250 C   0  0  0  0  0  0  0  0  0  0  0  0
  160.8120  207.1950  154.0730 C   0  0  0  0  0  3  0  0  0  0  0  0
  159.9420  209.2820  155.7150 C   0  0  0  0  0  3  0  0  0  0  0  0
  160.3430  208.3820  153.4970 C   0  0  0  0  0  0  0  0  0  0  0  0
  160.8420  207.0490  155.4620 C   0  0  0  0  0  3  0  0  0  0  0  0
  159.4380  210.6550  153.7660 N   0  0  0  0  0  1  0  0  0  0  0  0
  1 23  1  6  0  0  0
  2  4  1  0  0  0  0
  2 10  1  0  0  0  0
  3  5  1  0  0  0  0
  4  6  1  6  0  0  0
  4 12  1  0  0  0  0
  7  2  2  0  0  0  0
  8  7  1  0  0  0  0
  8  9  2  0  0  0  0
  9 11  1  0  0  0  0
 10 13  1  0  0  0  0
 11 10  2  0  0  0  0
 11  1  1  0  0  0  0
 12  3  1  0  0  0  0
 13  5  1  0  0  0  0
 14 20  1  0  0  0  0
 16 17  1  0  0  0  0
 17 19  1  0  0  0  0
 17 14  2  0  0  0  0
 18  1  1  1  0  0  0
 18 15  1  0  0  0  0
 19 18  1  0  0  0  0
 20 15  1  0  0  0  0
 21 14  1  0  0  0  0
 21 22  1  0  0  0  0
 23 28  1  0  0  0  0
 25 27  2  0  0  0  0
 26 29  1  0  0  0  0
 27 24  1  0  0  0  0
 28 26  2  0  0  0  0
 28 25  1  0  0  0  0
 29 24  2  0  0  0  0
 30 25  1  0  0  0  0
M  END
>  <MODEL>
9

>  <REMARK>
 VINA RESULT:      -4.8      1.888      4.600
  Name = 
  5 active torsions:
  status: ('A' for Active; 'I' for Inactive)
    1  A    between atoms: CA_1  and  C_2
    2  A    between atoms: C_10  and  C_20
    3  A    between atoms: C_10  and  C_24
    4  A    between atoms: C_13  and  C_24
    5  A    between atoms: C_24  and  C_26
                            x       y       z     vdW  Elec       q    Type
                         _______ _______ _______ _____ _____    ______ ____

>  <TORSDO>
F 5

$$$$
