=
 OpenBabel11052410513D

 28 30  0  0  1  0  0  0  0  0999 V2000
  161.3230  206.8360  150.8410 C   0  0  0  0  0  0  0  0  0  0  0  0
  161.3450  207.7420  151.9370 C   0  0  0  0  0  0  0  0  0  0  0  0
  161.2660  205.8790  153.4920 C   0  0  0  0  0  3  0  0  0  0  0  0
  161.2060  204.9830  152.4220 C   0  0  0  0  0  3  0  0  0  0  0  0
  161.3260  207.2460  153.2480 C   0  0  0  0  0  3  0  0  0  0  0  0
  161.2140  205.4420  151.0960 C   0  0  0  0  0  0  0  0  0  0  0  0
  161.1420  206.1560  147.5940 C   0  0  0  0  0  0  0  0  0  0  0  0
  161.2750  207.3850  149.4310 C   0  0  2  0  0  3  0  0  0  0  0  0
  160.4120  206.5650  148.5830 N   0  0  0  0  0  0  0  0  0  0  0  0
  162.4890  206.6290  147.6300 N   0  0  0  0  0  0  0  0  0  0  0  0
  162.5930  207.3470  148.7050 C   0  0  0  0  0  3  0  0  0  0  0  0
  160.3620  206.1440  145.2300 C   0  0  0  0  0  1  0  0  0  0  0  0
  160.6060  205.3010  146.4800 C   0  0  1  0  0  3  0  0  0  0  0  0
  161.5910  204.1680  146.1890 C   0  0  0  0  0  2  0  0  0  0  0  0
  160.6140  201.8840  145.7920 C   0  0  0  0  0  0  0  0  0  0  0  0
  160.9830  203.1780  145.3110 N   0  0  0  0  0  2  0  0  0  0  0  0
  160.2430  200.9970  144.9730 O   0  0  0  0  0  0  0  0  0  0  0  0
  160.6690  201.5940  147.1560 O   0  0  0  0  0  1  0  0  0  0  0  0
  161.9920  209.6990  150.7460 O   0  0  0  0  0  0  0  0  0  0  0  0
  161.3980  209.2160  151.7520 C   0  0  0  0  0  0  0  0  0  0  0  0
  159.3380  211.3670  153.6970 N   0  0  0  0  0  0  0  0  0  0  0  0
  160.7760  210.1320  152.7250 C   0  0  0  0  0  0  0  0  0  0  0  0
  159.4950  210.5330  152.6860 N   0  0  0  0  0  0  0  0  0  0  0  0
  160.4700  211.5180  154.3740 N   0  0  0  0  0  2  0  0  0  0  0  0
  161.4070  210.7530  153.7840 C   0  0  0  0  0  3  0  0  0  0  0  0
  161.0940  204.5200  150.0300 O   0  0  0  0  0  0  0  0  0  0  0  0
  161.0680  202.3020  150.4080 N   0  0  0  0  0  1  0  0  0  0  0  0
  160.2630  203.4200  150.0970 N   0  0  0  0  0  2  0  0  0  0  0  0
  1  6  2  0  0  0  0
  1  2  1  0  0  0  0
  2  5  2  0  0  0  0
  4  3  2  0  0  0  0
  5  3  1  0  0  0  0
  6  4  1  0  0  0  0
  7 10  1  0  0  0  0
  7  9  2  0  0  0  0
  8  1  1  1  0  0  0
  9  8  1  0  0  0  0
 10 11  2  0  0  0  0
 11  8  1  0  0  0  0
 13 12  1  6  0  0  0
 13  7  1  0  0  0  0
 14 13  1  0  0  0  0
 15 18  1  0  0  0  0
 16 15  1  0  0  0  0
 16 14  1  0  0  0  0
 17 15  2  0  0  0  0
 19 20  2  0  0  0  0
 20  2  1  0  0  0  0
 20 22  1  0  0  0  0
 21 24  1  0  0  0  0
 22 25  2  0  0  0  0
 23 22  1  0  0  0  0
 23 21  2  0  0  0  0
 25 24  1  0  0  0  0
 26 28  1  0  0  0  0
 26  6  1  0  0  0  0
 28 27  1  0  0  0  0
M  END
>  <MODEL>
1

>  <REMARK>
 VINA RESULT:      -8.2      0.000      0.000
  Name = 
  8 active torsions:
  status: ('A' for Active; 'I' for Inactive)
    1  A    between atoms: C_4  and  C_8
    2  A    between atoms: C_4  and  C_12
    3  A    between atoms: C_6  and  C_10
    4  A    between atoms: C_7  and  C_9
    5  A    between atoms: C_9  and  C_27
    6  A    between atoms: N_14  and  O_26
    7  A    between atoms: N_17  and  C_27
    8  A    between atoms: O_26  and  C_28
                            x       y       z     vdW  Elec       q    Type
                         _______ _______ _______ _____ _____    ______ ____

>  <TORSDO>
F 8

$$$$
=
 OpenBabel11052410513D

 28 30  0  0  1  0  0  0  0  0999 V2000
  161.2870  207.2470  151.2460 C   0  0  0  0  0  0  0  0  0  0  0  0
  161.2490  208.2080  152.2930 C   0  0  0  0  0  0  0  0  0  0  0  0
  161.2400  206.4260  153.9420 C   0  0  0  0  0  3  0  0  0  0  0  0
  161.2390  205.4740  152.9200 C   0  0  0  0  0  3  0  0  0  0  0  0
  161.2360  207.7800  153.6280 C   0  0  0  0  0  3  0  0  0  0  0  0
  161.2430  205.8650  151.5720 C   0  0  0  0  0  0  0  0  0  0  0  0
  161.2440  206.3940  148.0350 C   0  0  0  0  0  0  0  0  0  0  0  0
  161.2320  207.7190  149.8080 C   0  0  2  0  0  3  0  0  0  0  0  0
  160.4600  206.7910  148.9850 N   0  0  0  0  0  0  0  0  0  0  0  0
  162.5490  206.9750  148.0760 N   0  0  0  0  0  0  0  0  0  0  0  0
  162.5680  207.7520  149.1150 C   0  0  0  0  0  3  0  0  0  0  0  0
  160.4650  206.2090  145.6780 C   0  0  0  0  0  1  0  0  0  0  0  0
  160.8080  205.4440  146.9560 C   0  0  1  0  0  3  0  0  0  0  0  0
  161.9150  204.4220  146.6980 C   0  0  0  0  0  2  0  0  0  0  0  0
  161.0690  202.0920  147.1320 C   0  0  0  0  0  0  0  0  0  0  0  0
  161.7550  203.2660  147.5710 N   0  0  0  0  0  2  0  0  0  0  0  0
  160.8070  201.1770  147.9620 O   0  0  0  0  0  1  0  0  0  0  0  0
  160.6830  201.9550  145.7980 O   0  0  0  0  0  0  0  0  0  0  0  0
  161.9360  210.1480  151.0970 O   0  0  0  0  0  0  0  0  0  0  0  0
  161.2330  209.6710  152.0320 C   0  0  0  0  0  0  0  0  0  0  0  0
  158.7770  211.7720  153.5190 N   0  0  0  0  0  0  0  0  0  0  0  0
  160.4150  210.5860  152.8490 C   0  0  0  0  0  0  0  0  0  0  0  0
  159.1390  210.9120  152.5850 N   0  0  0  0  0  0  0  0  0  0  0  0
  159.7730  212.0090  154.3640 N   0  0  0  0  0  2  0  0  0  0  0  0
  160.8310  211.2780  153.9690 C   0  0  0  0  0  3  0  0  0  0  0  0
  161.1840  204.8840  150.5540 O   0  0  0  0  0  0  0  0  0  0  0  0
  161.2200  202.6760  150.9850 N   0  0  0  0  0  1  0  0  0  0  0  0
  160.3830  203.7650  150.6560 N   0  0  0  0  0  2  0  0  0  0  0  0
  1  6  2  0  0  0  0
  1  2  1  0  0  0  0
  2  5  2  0  0  0  0
  4  3  2  0  0  0  0
  5  3  1  0  0  0  0
  6  4  1  0  0  0  0
  7 10  1  0  0  0  0
  7  9  2  0  0  0  0
  8  1  1  1  0  0  0
  9  8  1  0  0  0  0
 10 11  2  0  0  0  0
 11  8  1  0  0  0  0
 13 12  1  6  0  0  0
 13  7  1  0  0  0  0
 14 13  1  0  0  0  0
 14 16  1  0  0  0  0
 15 16  1  0  0  0  0
 15 17  1  0  0  0  0
 18 15  2  0  0  0  0
 19 20  2  0  0  0  0
 20  2  1  0  0  0  0
 20 22  1  0  0  0  0
 21 24  1  0  0  0  0
 22 25  2  0  0  0  0
 23 22  1  0  0  0  0
 23 21  2  0  0  0  0
 25 24  1  0  0  0  0
 26 28  1  0  0  0  0
 26  6  1  0  0  0  0
 28 27  1  0  0  0  0
M  END
>  <MODEL>
2

>  <REMARK>
 VINA RESULT:      -8.1      0.840      1.006
  Name = 
  8 active torsions:
  status: ('A' for Active; 'I' for Inactive)
    1  A    between atoms: C_4  and  C_8
    2  A    between atoms: C_4  and  C_12
    3  A    between atoms: C_6  and  C_10
    4  A    between atoms: C_7  and  C_9
    5  A    between atoms: C_9  and  C_27
    6  A    between atoms: N_14  and  O_26
    7  A    between atoms: N_17  and  C_27
    8  A    between atoms: O_26  and  C_28
                            x       y       z     vdW  Elec       q    Type
                         _______ _______ _______ _____ _____    ______ ____

>  <TORSDO>
F 8

$$$$
=
 OpenBabel11052410513D

 28 30  0  0  1  0  0  0  0  0999 V2000
  161.2210  207.7010  151.7590 C   0  0  0  0  0  0  0  0  0  0  0  0
  160.9780  208.7190  152.7220 C   0  0  0  0  0  0  0  0  0  0  0  0
  161.0060  207.0640  154.4960 C   0  0  0  0  0  3  0  0  0  0  0  0
  161.2070  206.0520  153.5550 C   0  0  0  0  0  3  0  0  0  0  0  0
  160.8840  208.3830  154.0790 C   0  0  0  0  0  3  0  0  0  0  0  0
  161.2970  206.3480  152.1870 C   0  0  0  0  0  0  0  0  0  0  0  0
  161.6330  206.6440  148.6360 C   0  0  0  0  0  0  0  0  0  0  0  0
  161.2530  208.0660  150.2900 C   0  0  2  0  0  3  0  0  0  0  0  0
  160.7060  206.9840  149.4730 N   0  0  0  0  0  0  0  0  0  0  0  0
  162.8340  207.4090  148.7550 N   0  0  0  0  0  0  0  0  0  0  0  0
  162.6360  208.2470  149.7260 C   0  0  0  0  0  3  0  0  0  0  0  0
  161.2950  204.2060  148.2650 C   0  0  0  0  0  1  0  0  0  0  0  0
  161.4470  205.5730  147.5990 C   0  0  1  0  0  3  0  0  0  0  0  0
  160.2240  205.9000  146.7430 C   0  0  0  0  0  2  0  0  0  0  0  0
  160.9800  205.2370  144.4370 C   0  0  0  0  0  0  0  0  0  0  0  0
  160.6280  206.2450  145.3860 N   0  0  0  0  0  2  0  0  0  0  0  0
  161.4810  205.5740  143.3270 O   0  0  0  0  0  0  0  0  0  0  0  0
  160.7820  203.8870  144.7300 O   0  0  0  0  0  1  0  0  0  0  0  0
  161.4580  210.6060  151.3520 O   0  0  0  0  0  0  0  0  0  0  0  0
  160.8270  210.1500  152.3470 C   0  0  0  0  0  0  0  0  0  0  0  0
  159.2970  212.4550  154.5840 N   0  0  0  0  0  0  0  0  0  0  0  0
  159.9570  211.0560  153.1190 C   0  0  0  0  0  0  0  0  0  0  0  0
  160.3690  211.8260  154.1390 N   0  0  0  0  0  2  0  0  0  0  0  0
  158.2190  212.1120  153.8900 N   0  0  0  0  0  0  0  0  0  0  0  0
  158.5970  211.2220  152.9540 C   0  0  0  0  0  3  0  0  0  0  0  0
  161.4430  205.3000  151.2470 O   0  0  0  0  0  0  0  0  0  0  0  0
  160.7200  203.2010  151.6050 N   0  0  0  0  0  1  0  0  0  0  0  0
  161.8590  204.0360  151.6120 N   0  0  0  0  0  2  0  0  0  0  0  0
  1  6  2  0  0  0  0
  1  2  1  0  0  0  0
  2  5  2  0  0  0  0
  4  3  2  0  0  0  0
  5  3  1  0  0  0  0
  6  4  1  0  0  0  0
  7 10  1  0  0  0  0
  7  9  2  0  0  0  0
  8  1  1  1  0  0  0
  9  8  1  0  0  0  0
 10 11  2  0  0  0  0
 11  8  1  0  0  0  0
 13 12  1  1  0  0  0
 13  7  1  0  0  0  0
 14 13  1  0  0  0  0
 15 18  1  0  0  0  0
 15 16  1  0  0  0  0
 16 14  1  0  0  0  0
 17 15  2  0  0  0  0
 19 20  2  0  0  0  0
 20  2  1  0  0  0  0
 20 22  1  0  0  0  0
 22 23  1  0  0  0  0
 23 21  1  0  0  0  0
 24 21  2  0  0  0  0
 25 22  2  0  0  0  0
 25 24  1  0  0  0  0
 26 28  1  0  0  0  0
 26  6  1  0  0  0  0
 27 28  1  0  0  0  0
M  END
>  <MODEL>
3

>  <REMARK>
 VINA RESULT:      -7.2      1.765      2.201
  Name = 
  8 active torsions:
  status: ('A' for Active; 'I' for Inactive)
    1  A    between atoms: C_4  and  C_8
    2  A    between atoms: C_4  and  C_12
    3  A    between atoms: C_6  and  C_10
    4  A    between atoms: C_7  and  C_9
    5  A    between atoms: C_9  and  C_27
    6  A    between atoms: N_14  and  O_26
    7  A    between atoms: N_17  and  C_27
    8  A    between atoms: O_26  and  C_28
                            x       y       z     vdW  Elec       q    Type
                         _______ _______ _______ _____ _____    ______ ____

>  <TORSDO>
F 8

$$$$
=
 OpenBabel11052410513D

 28 30  0  0  1  0  0  0  0  0999 V2000
  161.6660  205.3910  149.4470 C   0  0  0  0  0  0  0  0  0  0  0  0
  161.6070  204.3130  148.5210 C   0  0  0  0  0  0  0  0  0  0  0  0
  160.4650  202.9450  150.1680 C   0  0  0  0  0  3  0  0  0  0  0  0
  160.5510  203.9840  151.0980 C   0  0  0  0  0  3  0  0  0  0  0  0
  160.9970  203.1090  148.8960 C   0  0  0  0  0  3  0  0  0  0  0  0
  161.1620  205.2010  150.7630 C   0  0  0  0  0  0  0  0  0  0  0  0
  162.0520  208.6480  149.9770 C   0  0  0  0  0  0  0  0  0  0  0  0
  162.3870  206.6630  149.0550 C   0  0  2  0  0  3  0  0  0  0  0  0
  162.6190  207.5100  150.2240 N   0  0  0  0  0  0  0  0  0  0  0  0
  161.4250  208.7210  148.6950 N   0  0  0  0  0  0  0  0  0  0  0  0
  161.6030  207.5630  148.1380 C   0  0  0  0  0  3  0  0  0  0  0  0
  161.9350  211.1260  150.1800 C   0  0  0  0  0  1  0  0  0  0  0  0
  162.0900  209.8060  150.9330 C   0  0  1  0  0  3  0  0  0  0  0  0
  160.9850  209.6420  151.9770 C   0  0  0  0  0  2  0  0  0  0  0  0
  161.3330  210.8420  154.1610 C   0  0  0  0  0  0  0  0  0  0  0  0
  161.5410  209.7040  153.3220 N   0  0  0  0  0  2  0  0  0  0  0  0
  161.9610  210.9340  155.2530 O   0  0  0  0  0  1  0  0  0  0  0  0
  160.4500  211.8520  153.7780 O   0  0  0  0  0  0  0  0  0  0  0  0
  163.3940  204.6610  146.9870 O   0  0  0  0  0  0  0  0  0  0  0  0
  162.1650  204.4130  147.1470 C   0  0  0  0  0  0  0  0  0  0  0  0
  160.1860  203.3080  144.4050 N   0  0  0  0  0  0  0  0  0  0  0  0
  161.3110  204.2340  145.9590 C   0  0  0  0  0  0  0  0  0  0  0  0
  160.8920  203.0480  145.4900 N   0  0  0  0  0  2  0  0  0  0  0  0
  160.1440  204.6120  144.1620 N   0  0  0  0  0  0  0  0  0  0  0  0
  160.8500  205.2330  145.1240 C   0  0  0  0  0  3  0  0  0  0  0  0
  161.2890  206.2190  151.7380 O   0  0  0  0  0  0  0  0  0  0  0  0
  160.8240  206.3670  153.9340 N   0  0  0  0  0  1  0  0  0  0  0  0
  161.8030  205.9740  152.9950 N   0  0  0  0  0  2  0  0  0  0  0  0
  1  6  1  0  0  0  0
  2  5  1  0  0  0  0
  2  1  2  0  0  0  0
  3  4  1  0  0  0  0
  5  3  2  0  0  0  0
  6  4  2  0  0  0  0
  6 26  1  0  0  0  0
  7  9  2  0  0  0  0
  7 13  1  0  0  0  0
  8  1  1  1  0  0  0
  8  9  1  0  0  0  0
 10  7  1  0  0  0  0
 11 10  2  0  0  0  0
 11  8  1  0  0  0  0
 13 12  1  6  0  0  0
 13 14  1  0  0  0  0
 14 16  1  0  0  0  0
 15 17  1  0  0  0  0
 16 15  1  0  0  0  0
 18 15  2  0  0  0  0
 19 20  2  0  0  0  0
 20  2  1  0  0  0  0
 21 23  1  0  0  0  0
 22 20  1  0  0  0  0
 23 22  1  0  0  0  0
 24 21  2  0  0  0  0
 24 25  1  0  0  0  0
 25 22  2  0  0  0  0
 26 28  1  0  0  0  0
 28 27  1  0  0  0  0
M  END
>  <MODEL>
4

>  <REMARK>
 VINA RESULT:      -7.1      2.485      7.629
  Name = 
  8 active torsions:
  status: ('A' for Active; 'I' for Inactive)
    1  A    between atoms: C_4  and  C_8
    2  A    between atoms: C_4  and  C_12
    3  A    between atoms: C_6  and  C_10
    4  A    between atoms: C_7  and  C_9
    5  A    between atoms: C_9  and  C_27
    6  A    between atoms: N_14  and  O_26
    7  A    between atoms: N_17  and  C_27
    8  A    between atoms: O_26  and  C_28
                            x       y       z     vdW  Elec       q    Type
                         _______ _______ _______ _____ _____    ______ ____

>  <TORSDO>
F 8

$$$$
=
 OpenBabel11052410513D

 28 30  0  0  1  0  0  0  0  0999 V2000
  161.4530  205.3630  149.0790 C   0  0  0  0  0  0  0  0  0  0  0  0
  161.3260  204.2710  148.1780 C   0  0  0  0  0  0  0  0  0  0  0  0
  162.2330  205.6320  146.3850 C   0  0  0  0  0  3  0  0  0  0  0  0
  162.3260  206.7220  147.2530 C   0  0  0  0  0  3  0  0  0  0  0  0
  161.7290  204.4210  146.8440 C   0  0  0  0  0  3  0  0  0  0  0  0
  161.9240  206.6120  148.5920 C   0  0  0  0  0  0  0  0  0  0  0  0
  161.3820  206.6150  152.1570 C   0  0  0  0  0  0  0  0  0  0  0  0
  160.9520  205.2100  150.5000 C   0  0  2  0  0  3  0  0  0  0  0  0
  160.6540  206.5140  151.0900 N   0  0  0  0  0  0  0  0  0  0  0  0
  162.1920  205.4680  152.4200 N   0  0  0  0  0  0  0  0  0  0  0  0
  161.9610  204.6320  151.4550 C   0  0  0  0  0  3  0  0  0  0  0  0
  160.4570  208.9040  152.4670 C   0  0  0  0  0  1  0  0  0  0  0  0
  161.3410  207.8110  153.0640 C   0  0  1  0  0  3  0  0  0  0  0  0
  160.8300  207.3890  154.4420 C   0  0  0  0  0  2  0  0  0  0  0  0
  160.8370  209.2420  156.1440 C   0  0  0  0  0  0  0  0  0  0  0  0
  161.4930  208.1550  155.4890 N   0  0  0  0  0  2  0  0  0  0  0  0
  161.4930  209.9840  156.9270 O   0  0  0  0  0  1  0  0  0  0  0  0
  159.4830  209.4910  155.9180 O   0  0  0  0  0  0  0  0  0  0  0  0
  160.1050  202.8610  149.6570 O   0  0  0  0  0  0  0  0  0  0  0  0
  160.7860  202.9500  148.5970 C   0  0  0  0  0  0  0  0  0  0  0  0
  161.0660  200.3630  146.1720 N   0  0  0  0  0  0  0  0  0  0  0  0
  161.0350  201.7340  147.8010 C   0  0  0  0  0  0  0  0  0  0  0  0
  160.7200  201.5930  146.5040 N   0  0  0  0  0  0  0  0  0  0  0  0
  161.5840  199.7150  147.2090 N   0  0  0  0  0  2  0  0  0  0  0  0
  161.5770  200.5510  148.2620 C   0  0  0  0  0  3  0  0  0  0  0  0
  161.9740  207.7450  149.4380 O   0  0  0  0  0  0  0  0  0  0  0  0
  162.3270  209.8940  150.0030 N   0  0  0  0  0  1  0  0  0  0  0  0
  161.9600  209.0340  148.9440 N   0  0  0  0  0  2  0  0  0  0  0  0
  2 20  1  0  0  0  0
  2  1  2  0  0  0  0
  3  5  2  0  0  0  0
  3  4  1  0  0  0  0
  4  6  2  0  0  0  0
  5  2  1  0  0  0  0
  6  1  1  0  0  0  0
  6 26  1  0  0  0  0
  7 10  1  0  0  0  0
  7 13  1  0  0  0  0
  8  1  1  6  0  0  0
  8  9  1  0  0  0  0
  8 11  1  0  0  0  0
  9  7  2  0  0  0  0
 11 10  2  0  0  0  0
 13 12  1  6  0  0  0
 13 14  1  0  0  0  0
 14 16  1  0  0  0  0
 15 17  1  0  0  0  0
 16 15  1  0  0  0  0
 18 15  2  0  0  0  0
 20 19  2  0  0  0  0
 21 23  2  0  0  0  0
 21 24  1  0  0  0  0
 22 25  2  0  0  0  0
 22 20  1  0  0  0  0
 23 22  1  0  0  0  0
 24 25  1  0  0  0  0
 28 26  1  0  0  0  0
 28 27  1  0  0  0  0
M  END
>  <MODEL>
5

>  <REMARK>
 VINA RESULT:      -6.9      2.771      8.491
  Name = 
  8 active torsions:
  status: ('A' for Active; 'I' for Inactive)
    1  A    between atoms: C_4  and  C_8
    2  A    between atoms: C_4  and  C_12
    3  A    between atoms: C_6  and  C_10
    4  A    between atoms: C_7  and  C_9
    5  A    between atoms: C_9  and  C_27
    6  A    between atoms: N_14  and  O_26
    7  A    between atoms: N_17  and  C_27
    8  A    between atoms: O_26  and  C_28
                            x       y       z     vdW  Elec       q    Type
                         _______ _______ _______ _____ _____    ______ ____

>  <TORSDO>
F 8

$$$$
=
 OpenBabel11052410513D

 28 30  0  0  1  0  0  0  0  0999 V2000
  160.8300  208.3450  153.6060 C   0  0  0  0  0  0  0  0  0  0  0  0
  160.4230  209.2420  154.6320 C   0  0  0  0  0  0  0  0  0  0  0  0
  160.6270  207.4700  156.2770 C   0  0  0  0  0  3  0  0  0  0  0  0
  160.9910  206.5710  155.2720 C   0  0  0  0  0  3  0  0  0  0  0  0
  160.3370  208.7900  155.9550 C   0  0  0  0  0  3  0  0  0  0  0  0
  161.0790  206.9850  153.9340 C   0  0  0  0  0  0  0  0  0  0  0  0
  161.4580  207.5990  150.4290 C   0  0  0  0  0  0  0  0  0  0  0  0
  160.8540  208.8260  152.1700 C   0  0  2  0  0  3  0  0  0  0  0  0
  160.4720  207.7520  151.2560 N   0  0  0  0  0  0  0  0  0  0  0  0
  162.5460  208.4980  150.6490 N   0  0  0  0  0  0  0  0  0  0  0  0
  162.2170  209.2250  151.6720 C   0  0  0  0  0  3  0  0  0  0  0  0
  160.1150  205.8370  149.2960 C   0  0  0  0  0  1  0  0  0  0  0  0
  161.4390  206.5990  149.3090 C   0  0  1  0  0  3  0  0  0  0  0  0
  161.6650  207.3180  147.9790 C   0  0  0  0  0  2  0  0  0  0  0  0
  161.6090  205.8300  145.9510 C   0  0  0  0  0  0  0  0  0  0  0  0
  162.3270  206.4350  147.0280 N   0  0  0  0  0  2  0  0  0  0  0  0
  162.1710  204.9470  145.2460 O   0  0  0  0  0  0  0  0  0  0  0  0
  160.2910  206.2030  145.6810 O   0  0  0  0  0  1  0  0  0  0  0  0
  161.0020  211.4690  154.0220 O   0  0  0  0  0  0  0  0  0  0  0  0
  160.0870  210.6640  154.3590 C   0  0  0  0  0  0  0  0  0  0  0  0
  156.8470  212.0880  154.0070 N   0  0  0  0  0  0  0  0  0  0  0  0
  158.7060  211.1620  154.4820 C   0  0  0  0  0  0  0  0  0  0  0  0
  158.0200  211.7630  153.4960 N   0  0  0  0  0  0  0  0  0  0  0  0
  156.7610  211.7220  155.2800 N   0  0  0  0  0  2  0  0  0  0  0  0
  157.9230  211.1350  155.6190 C   0  0  0  0  0  3  0  0  0  0  0  0
  161.3940  206.0440  152.9250 O   0  0  0  0  0  0  0  0  0  0  0  0
  161.5760  204.0420  151.9140 N   0  0  0  0  0  1  0  0  0  0  0  0
  160.9410  204.7410  152.9650 N   0  0  0  0  0  2  0  0  0  0  0  0
  1  6  2  0  0  0  0
  1  2  1  0  0  0  0
  2  5  2  0  0  0  0
  4  3  2  0  0  0  0
  5  3  1  0  0  0  0
  6  4  1  0  0  0  0
  7 10  1  0  0  0  0
  7  9  2  0  0  0  0
  8  1  1  1  0  0  0
  9  8  1  0  0  0  0
 10 11  2  0  0  0  0
 11  8  1  0  0  0  0
 13 12  1  6  0  0  0
 13  7  1  0  0  0  0
 14 13  1  0  0  0  0
 15 16  1  0  0  0  0
 16 14  1  0  0  0  0
 17 15  2  0  0  0  0
 18 15  1  0  0  0  0
 19 20  2  0  0  0  0
 20 22  1  0  0  0  0
 20  2  1  0  0  0  0
 21 24  1  0  0  0  0
 22 25  2  0  0  0  0
 23 21  2  0  0  0  0
 23 22  1  0  0  0  0
 24 25  1  0  0  0  0
 26 28  1  0  0  0  0
 26  6  1  0  0  0  0
 27 28  1  0  0  0  0
M  END
>  <MODEL>
6

>  <REMARK>
 VINA RESULT:      -6.8      2.571      3.453
  Name = 
  8 active torsions:
  status: ('A' for Active; 'I' for Inactive)
    1  A    between atoms: C_4  and  C_8
    2  A    between atoms: C_4  and  C_12
    3  A    between atoms: C_6  and  C_10
    4  A    between atoms: C_7  and  C_9
    5  A    between atoms: C_9  and  C_27
    6  A    between atoms: N_14  and  O_26
    7  A    between atoms: N_17  and  C_27
    8  A    between atoms: O_26  and  C_28
                            x       y       z     vdW  Elec       q    Type
                         _______ _______ _______ _____ _____    ______ ____

>  <TORSDO>
F 8

$$$$
=
 OpenBabel11052410513D

 28 30  0  0  1  0  0  0  0  0999 V2000
  161.9910  208.6380  150.8320 C   0  0  0  0  0  0  0  0  0  0  0  0
  161.9580  209.9870  151.2800 C   0  0  0  0  0  0  0  0  0  0  0  0
  161.9160  210.7620  148.9810 C   0  0  0  0  0  3  0  0  0  0  0  0
  161.9870  209.4410  148.5300 C   0  0  0  0  0  3  0  0  0  0  0  0
  161.9120  211.0290  150.3440 C   0  0  0  0  0  3  0  0  0  0  0  0
  162.0440  208.3730  149.4370 C   0  0  0  0  0  0  0  0  0  0  0  0
  161.4880  205.4260  151.5170 C   0  0  0  0  0  0  0  0  0  0  0  0
  162.1100  207.5240  151.8510 C   0  0  2  0  0  3  0  0  0  0  0  0
  162.4300  206.2560  151.2000 N   0  0  0  0  0  0  0  0  0  0  0  0
  160.4910  205.9780  152.3780 N   0  0  0  0  0  0  0  0  0  0  0  0
  160.8320  207.2140  152.5820 C   0  0  0  0  0  3  0  0  0  0  0  0
  160.8320  203.1030  152.1230 C   0  0  0  0  0  1  0  0  0  0  0  0
  161.4700  203.9950  151.0600 C   0  0  1  0  0  3  0  0  0  0  0  0
  160.7120  203.8920  149.7370 C   0  0  0  0  0  2  0  0  0  0  0  0
  160.6560  201.5510  148.8170 C   0  0  0  0  0  0  0  0  0  0  0  0
  161.2750  202.8350  148.9070 N   0  0  0  0  0  2  0  0  0  0  0  0
  161.2540  200.6110  148.2220 O   0  0  0  0  0  0  0  0  0  0  0  0
  159.4010  201.3280  149.3860 O   0  0  0  0  0  1  0  0  0  0  0  0
  163.0470  210.3280  153.3700 O   0  0  0  0  0  0  0  0  0  0  0  0
  161.9610  210.3490  152.7230 C   0  0  0  0  0  0  0  0  0  0  0  0
  158.6680  211.1680  153.7870 N   0  0  0  0  0  0  0  0  0  0  0  0
  160.7190  210.7260  153.4200 C   0  0  0  0  0  0  0  0  0  0  0  0
  159.5010  210.7480  152.8540 N   0  0  0  0  0  0  0  0  0  0  0  0
  159.3070  211.4170  154.9240 N   0  0  0  0  0  2  0  0  0  0  0  0
  160.6120  211.1530  154.7280 C   0  0  0  0  0  3  0  0  0  0  0  0
  162.1730  207.0480  148.9580 O   0  0  0  0  0  0  0  0  0  0  0  0
  161.1060  206.2320  147.1530 N   0  0  0  0  0  1  0  0  0  0  0  0
  162.3310  206.7610  147.6180 N   0  0  0  0  0  2  0  0  0  0  0  0
  1  2  1  0  0  0  0
  2 20  1  0  0  0  0
  3  5  1  0  0  0  0
  4  3  2  0  0  0  0
  4  6  1  0  0  0  0
  5  2  2  0  0  0  0
  6  1  2  0  0  0  0
  7 10  1  0  0  0  0
  8  1  1  6  0  0  0
  8 11  1  0  0  0  0
  9  7  2  0  0  0  0
  9  8  1  0  0  0  0
 10 11  2  0  0  0  0
 13  7  1  0  0  0  0
 13 12  1  1  0  0  0
 14 13  1  0  0  0  0
 15 16  1  0  0  0  0
 15 18  1  0  0  0  0
 16 14  1  0  0  0  0
 17 15  2  0  0  0  0
 20 19  2  0  0  0  0
 20 22  1  0  0  0  0
 21 24  1  0  0  0  0
 22 25  2  0  0  0  0
 23 22  1  0  0  0  0
 23 21  2  0  0  0  0
 25 24  1  0  0  0  0
 26  6  1  0  0  0  0
 27 28  1  0  0  0  0
 28 26  1  0  0  0  0
M  END
>  <MODEL>
7

>  <REMARK>
 VINA RESULT:      -6.7      2.210      3.828
  Name = 
  8 active torsions:
  status: ('A' for Active; 'I' for Inactive)
    1  A    between atoms: C_4  and  C_8
    2  A    between atoms: C_4  and  C_12
    3  A    between atoms: C_6  and  C_10
    4  A    between atoms: C_7  and  C_9
    5  A    between atoms: C_9  and  C_27
    6  A    between atoms: N_14  and  O_26
    7  A    between atoms: N_17  and  C_27
    8  A    between atoms: O_26  and  C_28
                            x       y       z     vdW  Elec       q    Type
                         _______ _______ _______ _____ _____    ______ ____

>  <TORSDO>
F 8

$$$$
=
 OpenBabel11052410513D

 28 30  0  0  1  0  0  0  0  0999 V2000
  161.0900  203.8020  148.7190 C   0  0  0  0  0  0  0  0  0  0  0  0
  161.0770  202.5940  147.9690 C   0  0  0  0  0  0  0  0  0  0  0  0
  160.9270  201.3090  150.0230 C   0  0  0  0  0  3  0  0  0  0  0  0
  160.9780  202.4880  150.7700 C   0  0  0  0  0  3  0  0  0  0  0  0
  160.9860  201.3640  148.6360 C   0  0  0  0  0  3  0  0  0  0  0  0
  161.0780  203.7360  150.1390 C   0  0  0  0  0  0  0  0  0  0  0  0
  161.8280  207.0340  148.9490 C   0  0  0  0  0  0  0  0  0  0  0  0
  161.2580  205.1200  147.9930 C   0  0  2  0  0  3  0  0  0  0  0  0
  162.3420  205.9040  148.5810 N   0  0  0  0  0  0  0  0  0  0  0  0
  160.4350  207.1610  148.6610 N   0  0  0  0  0  0  0  0  0  0  0  0
  160.0760  206.0450  148.1050 C   0  0  0  0  0  3  0  0  0  0  0  0
  162.3310  209.4710  148.9070 C   0  0  0  0  0  1  0  0  0  0  0  0
  162.6350  208.1330  149.5790 C   0  0  1  0  0  3  0  0  0  0  0  0
  162.3300  208.1950  151.0760 C   0  0  0  0  0  2  0  0  0  0  0  0
  161.3020  209.8200  152.6990 C   0  0  0  0  0  0  0  0  0  0  0  0
  161.9780  209.5530  151.4690 N   0  0  0  0  0  2  0  0  0  0  0  0
  160.8690  210.9830  152.9330 O   0  0  0  0  0  0  0  0  0  0  0  0
  161.1120  208.8040  153.6370 O   0  0  0  0  0  1  0  0  0  0  0  0
  160.8320  201.5260  145.8560 O   0  0  0  0  0  0  0  0  0  0  0  0
  161.1470  202.5760  146.4840 C   0  0  0  0  0  0  0  0  0  0  0  0
  162.7980  205.3500  144.9910 N   0  0  0  0  0  0  0  0  0  0  0  0
  161.5840  203.7610  145.7240 C   0  0  0  0  0  0  0  0  0  0  0  0
  162.8170  204.2910  145.7780 N   0  0  0  0  0  2  0  0  0  0  0  0
  161.6010  205.5180  144.4420 N   0  0  0  0  0  0  0  0  0  0  0  0
  160.8020  204.5310  144.8870 C   0  0  0  0  0  3  0  0  0  0  0  0
  161.1860  204.9130  150.9170 O   0  0  0  0  0  0  0  0  0  0  0  0
  161.2060  205.3120  153.1310 N   0  0  0  0  0  1  0  0  0  0  0  0
  162.0150  204.9950  152.0170 N   0  0  0  0  0  2  0  0  0  0  0  0
  1  6  1  0  0  0  0
  2  5  1  0  0  0  0
  2  1  2  0  0  0  0
  3  4  1  0  0  0  0
  5  3  2  0  0  0  0
  6  4  2  0  0  0  0
  6 26  1  0  0  0  0
  7 13  1  0  0  0  0
  8 11  1  0  0  0  0
  8  9  1  0  0  0  0
  8  1  1  1  0  0  0
  9  7  2  0  0  0  0
 10  7  1  0  0  0  0
 11 10  2  0  0  0  0
 13 12  1  6  0  0  0
 13 14  1  0  0  0  0
 14 16  1  0  0  0  0
 15 17  2  0  0  0  0
 15 18  1  0  0  0  0
 16 15  1  0  0  0  0
 19 20  2  0  0  0  0
 20  2  1  0  0  0  0
 21 23  1  0  0  0  0
 22 23  1  0  0  0  0
 22 20  1  0  0  0  0
 24 25  1  0  0  0  0
 24 21  2  0  0  0  0
 25 22  2  0  0  0  0
 26 28  1  0  0  0  0
 28 27  1  0  0  0  0
M  END
>  <MODEL>
8

>  <REMARK>
 VINA RESULT:      -6.7      2.239      7.276
  Name = 
  8 active torsions:
  status: ('A' for Active; 'I' for Inactive)
    1  A    between atoms: C_4  and  C_8
    2  A    between atoms: C_4  and  C_12
    3  A    between atoms: C_6  and  C_10
    4  A    between atoms: C_7  and  C_9
    5  A    between atoms: C_9  and  C_27
    6  A    between atoms: N_14  and  O_26
    7  A    between atoms: N_17  and  C_27
    8  A    between atoms: O_26  and  C_28
                            x       y       z     vdW  Elec       q    Type
                         _______ _______ _______ _____ _____    ______ ____

>  <TORSDO>
F 8

$$$$
=
 OpenBabel11052410513D

 28 30  0  0  1  0  0  0  0  0999 V2000
  161.4760  205.4900  149.0640 C   0  0  0  0  0  0  0  0  0  0  0  0
  161.3390  204.3600  148.2120 C   0  0  0  0  0  0  0  0  0  0  0  0
  161.9410  205.7180  146.2940 C   0  0  0  0  0  3  0  0  0  0  0  0
  162.0420  206.8430  147.1160 C   0  0  0  0  0  3  0  0  0  0  0  0
  161.5840  204.4920  146.8390 C   0  0  0  0  0  3  0  0  0  0  0  0
  161.7950  206.7520  148.4940 C   0  0  0  0  0  0  0  0  0  0  0  0
  161.1880  207.0030  152.0080 C   0  0  0  0  0  0  0  0  0  0  0  0
  161.1430  205.3520  150.5350 C   0  0  2  0  0  3  0  0  0  0  0  0
  160.4700  206.5500  151.0310 N   0  0  0  0  0  0  0  0  0  0  0  0
  162.3460  206.2160  152.2940 N   0  0  0  0  0  0  0  0  0  0  0  0
  162.3430  205.2430  151.4350 C   0  0  0  0  0  3  0  0  0  0  0  0
  160.8550  207.9150  154.3000 C   0  0  0  0  0  1  0  0  0  0  0  0
  160.8130  208.2210  152.8040 C   0  0  1  0  0  3  0  0  0  0  0  0
  161.7610  209.3690  152.4570 C   0  0  0  0  0  2  0  0  0  0  0  0
  160.4890  211.4870  152.9320 C   0  0  0  0  0  0  0  0  0  0  0  0
  161.0100  210.5320  152.0050 N   0  0  0  0  0  2  0  0  0  0  0  0
  159.7080  212.3900  152.5220 O   0  0  0  0  0  0  0  0  0  0  0  0
  160.8330  211.4220  154.2830 O   0  0  0  0  0  1  0  0  0  0  0  0
  160.4630  202.9100  149.8850 O   0  0  0  0  0  0  0  0  0  0  0  0
  160.9490  203.0190  148.7240 C   0  0  0  0  0  0  0  0  0  0  0  0
  161.0880  200.4720  146.2450 N   0  0  0  0  0  0  0  0  0  0  0  0
  161.1250  201.8060  147.9050 C   0  0  0  0  0  0  0  0  0  0  0  0
  160.8230  201.7160  146.5990 N   0  0  0  0  0  0  0  0  0  0  0  0
  161.5420  199.7670  147.2740 N   0  0  0  0  0  2  0  0  0  0  0  0
  161.5750  200.5780  148.3460 C   0  0  0  0  0  3  0  0  0  0  0  0
  161.8470  207.9160  149.2980 O   0  0  0  0  0  0  0  0  0  0  0  0
  162.6990  209.9510  148.8630 N   0  0  0  0  0  1  0  0  0  0  0  0
  161.5280  209.1650  148.8060 N   0  0  0  0  0  2  0  0  0  0  0  0
  2 20  1  0  0  0  0
  2  1  2  0  0  0  0
  3  5  2  0  0  0  0
  3  4  1  0  0  0  0
  4  6  2  0  0  0  0
  5  2  1  0  0  0  0
  6  1  1  0  0  0  0
  6 26  1  0  0  0  0
  7 10  1  0  0  0  0
  7 13  1  0  0  0  0
  8  1  1  6  0  0  0
  8  9  1  0  0  0  0
  8 11  1  0  0  0  0
  9  7  2  0  0  0  0
 11 10  2  0  0  0  0
 13 12  1  1  0  0  0
 14 13  1  0  0  0  0
 15 18  1  0  0  0  0
 16 14  1  0  0  0  0
 16 15  1  0  0  0  0
 17 15  2  0  0  0  0
 20 19  2  0  0  0  0
 21 23  2  0  0  0  0
 21 24  1  0  0  0  0
 22 25  2  0  0  0  0
 22 20  1  0  0  0  0
 23 22  1  0  0  0  0
 24 25  1  0  0  0  0
 28 27  1  0  0  0  0
 28 26  1  0  0  0  0
M  END
>  <MODEL>
9

>  <REMARK>
 VINA RESULT:      -6.6      2.364      8.310
  Name = 
  8 active torsions:
  status: ('A' for Active; 'I' for Inactive)
    1  A    between atoms: C_4  and  C_8
    2  A    between atoms: C_4  and  C_12
    3  A    between atoms: C_6  and  C_10
    4  A    between atoms: C_7  and  C_9
    5  A    between atoms: C_9  and  C_27
    6  A    between atoms: N_14  and  O_26
    7  A    between atoms: N_17  and  C_27
    8  A    between atoms: O_26  and  C_28
                            x       y       z     vdW  Elec       q    Type
                         _______ _______ _______ _____ _____    ______ ____

>  <TORSDO>
F 8

$$$$
