=
 OpenBabel11042422183D

 52 55  0  0  1  0  0  0  0  0999 V2000
  161.3900  204.4330  150.6770 C   0  0  1  0  0  3  0  0  0  0  0  0
  161.3180  203.6720  146.1570 C   0  0  0  0  0  0  0  0  0  0  0  0
  161.3990  201.5280  146.6580 N   0  0  0  0  0  0  0  0  0  0  0  0
  160.5930  203.1920  151.1100 C   0  0  2  0  0  3  0  0  0  0  0  0
  161.2570  206.3490  149.0560 C   0  0  2  0  0  3  0  0  0  0  0  0
  160.2780  207.0290  148.1040 C   0  0  0  0  0  2  0  0  0  0  0  0
  160.0280  202.4270  149.9190 C   0  0  0  0  0  2  0  0  0  0  0  0
  161.3130  204.9330  145.3980 C   0  0  0  0  0  0  0  0  0  0  0  0
  161.1790  203.6100  147.4900 N   0  0  0  0  0  0  0  0  0  0  0  0
  161.2190  202.2910  147.7530 C   0  0  0  0  0  0  0  0  0  0  0  0
  161.4570  202.4030  145.6330 C   0  0  0  0  0  2  0  0  0  0  0  0
  159.5510  203.5450  151.9720 O   0  0  0  0  0  1  0  0  0  0  0  0
  160.8600  207.1370  146.7300 C   0  0  0  0  0  3  0  0  0  0  0  0
  160.5090  205.5560  150.1230 C   0  0  0  0  0  2  0  0  0  0  0  0
  161.1360  201.7360  149.1350 C   0  0  0  0  0  2  0  0  0  0  0  0
  161.0960  206.0560  146.0370 C   0  0  0  0  0  0  0  0  0  0  0  0
  162.2040  207.3500  149.6580 C   0  0  0  0  0  0  0  0  0  0  0  0
  163.4090  207.3750  149.2890 O   0  0  0  0  0  0  0  0  0  0  0  0
  161.8850  209.6690  150.4380 C   0  0  0  0  0  1  0  0  0  0  0  0
  161.7690  208.2650  150.6190 O   0  0  0  0  0  0  0  0  0  0  0  0
  162.3200  204.9290  151.7880 C   0  0  0  0  0  2  0  0  0  0  0  0
  161.6040  205.3010  152.9320 O   0  0  0  0  0  0  0  0  0  0  0  0
  162.2120  206.4740  153.3820 C   0  0  0  0  0  2  0  0  0  0  0  0
  161.1170  207.3480  154.4840 S   0  0  0  0  0  0  0  0  0  0  0  0
  161.8740  207.7410  155.7220 O   0  0  0  0  0  0  0  0  0  0  0  0
  159.9650  206.4610  154.8610 O   0  0  0  0  0  0  0  0  0  0  0  0
  160.5270  208.7630  153.6770 N   0  0  0  0  0  2  0  0  0  0  0  0
  160.7700  209.9060  154.5430 C   0  0  1  0  0  3  0  0  0  0  0  0
  158.7370  211.4190  154.4940 C   0  0  0  0  0  0  0  0  0  0  0  0
  160.9580  211.1620  153.6930 C   0  0  0  0  0  2  0  0  0  0  0  0
  157.3220  211.9000  154.5270 C   0  0  0  0  0  1  0  0  0  0  0  0
  159.3200  210.1630  155.6200 S   0  0  0  0  0  0  0  0  0  0  0  0
  159.3560  212.8910  152.5870 C   0  0  0  0  0  1  0  0  0  0  0  0
  159.6310  211.8300  153.6050 C   0  0  0  0  0  0  0  0  0  0  0  0
  161.4720  204.9160  143.9760 N   0  0  0  0  0  2  0  0  0  0  0  0
  161.7980  206.2070  141.9080 C   0  0  0  0  0  0  0  0  0  0  0  0
  161.1890  206.0390  143.1850 N   0  0  0  0  0  2  0  0  0  0  0  0
  161.5750  207.4150  141.1820 N   0  0  0  0  0  2  0  0  0  0  0  0
  162.5140  205.2870  141.4200 O   0  0  0  0  0  0  0  0  0  0  0  0
  162.0640  207.6020  139.8260 C   0  0  0  0  0  2  0  0  0  0  0  0
  161.0670  208.4300  139.0330 C   0  0  0  0  0  2  0  0  0  0  0  0
  161.2630  209.9360  139.2170 C   0  0  1  0  0  3  0  0  0  0  0  0
  159.3790  211.2920  138.5420 O   0  0  0  0  0  1  0  0  0  0  0  0
  159.9860  210.6670  139.6330 C   0  0  0  0  0  2  0  0  0  0  0  0
  162.4460  210.2720  140.1220 C   0  0  0  0  0  2  0  0  0  0  0  0
  162.0810  212.5410  142.6910 C   0  0  0  0  0  2  0  0  0  0  0  0
  162.4600  213.7420  142.0200 C   0  0  0  0  0  2  0  0  0  0  0  0
  162.7190  211.7430  140.1150 C   0  0  0  0  0  0  0  0  0  0  0  0
  162.4970  212.4400  141.2260 C   0  0  0  0  0  0  0  0  0  0  0  0
  163.1770  212.4180  138.8880 C   0  0  0  0  0  0  0  0  0  0  0  0
  164.4050  212.6170  138.6900 O   0  0  0  0  0  1  0  0  0  0  0  0
  162.2620  212.8390  137.9370 O   0  0  0  0  0  0  0  0  0  0  0  0
  1  4  1  0  0  0  0
  1 21  1  1  0  0  0
  2  9  2  0  0  0  0
  3 10  2  0  0  0  0
  4 12  1  1  0  0  0
  5 17  1  1  0  0  0
  5 14  1  0  0  0  0
  6  5  1  0  0  0  0
  7  4  1  0  0  0  0
  8 16  2  0  0  0  0
  8  2  1  0  0  0  0
  9 10  1  0  0  0  0
 10 15  1  0  0  0  0
 11  2  1  0  0  0  0
 11  3  1  0  0  0  0
 13  6  1  0  0  0  0
 14  1  1  0  0  0  0
 15  7  1  0  0  0  0
 16 13  2  0  0  0  0
 17 20  1  0  0  0  0
 18 17  2  0  0  0  0
 19 20  1  0  0  0  0
 21 22  1  0  0  0  0
 22 23  1  0  0  0  0
 23 24  1  0  0  0  0
 24 26  2  0  0  0  0
 24 25  2  0  0  0  0
 27 24  1  0  0  0  0
 28 27  1  6  0  0  0
 28 32  1  0  0  0  0
 29 31  1  0  0  0  0
 29 32  1  0  0  0  0
 30 28  1  0  0  0  0
 33 34  1  0  0  0  0
 34 30  1  0  0  0  0
 34 29  2  0  0  0  0
 35  8  1  0  0  0  0
 36 37  1  0  0  0  0
 37 35  1  0  0  0  0
 38 36  1  0  0  0  0
 39 36  2  0  0  0  0
 40 38  1  0  0  0  0
 41 40  1  0  0  0  0
 42 41  1  1  0  0  0
 42 44  1  0  0  0  0
 42 45  1  0  0  0  0
 43 44  1  0  0  0  0
 47 46  1  0  0  0  0
 48 45  1  0  0  0  0
 48 49  2  0  0  0  0
 49 47  1  0  0  0  0
 49 46  1  0  0  0  0
 50 48  1  0  0  0  0
 51 50  1  0  0  0  0
 52 50  2  0  0  0  0
M  END
>  <MODEL>
1

>  <REMARK>
 VINA RESULT:      -3.9      0.000      0.000
  Name = 
  17 active torsions:
  status: ('A' for Active; 'I' for Inactive)
    1  A    between atoms: C_1  and  N_22
    2  A    between atoms: C_1  and  C_49
    3  A    between atoms: C_2  and  N_14
    4  A    between atoms: O_4  and  C_11
    5  A    between atoms: O_4  and  C_35
    6  A    between atoms: N_5  and  N_18
    7  A    between atoms: N_5  and  C_36
    8  A    between atoms: S_6  and  N_14
    9  A    between atoms: S_6  and  C_35
   10  A    between atoms: C_8  and  C_28
   11  A    between atoms: C_8  and  C_31
   12  A    between atoms: C_10  and  C_28
   13  A    between atoms: C_11  and  C_12
   14  A    between atoms: C_26  and  C_30
   15  A    between atoms: C_26  and  O_45
   16  A    between atoms: C_31  and  C_44
   17  A    between atoms: C_31  and  C_49
                            x       y       z     vdW  Elec       q    Type
                         _______ _______ _______ _____ _____    ______ ____

>  <TORSDO>
F 17

$$$$
=
 OpenBabel11042422183D

 52 55  0  0  1  0  0  0  0  0999 V2000
  161.3320  204.3780  150.7400 C   0  0  1  0  0  3  0  0  0  0  0  0
  161.2860  203.6530  146.2140 C   0  0  0  0  0  0  0  0  0  0  0  0
  161.3530  201.5040  146.6990 N   0  0  0  0  0  0  0  0  0  0  0  0
  160.5260  203.1390  151.1580 C   0  0  2  0  0  3  0  0  0  0  0  0
  161.2190  206.3080  149.1330 C   0  0  2  0  0  3  0  0  0  0  0  0
  160.2490  207.0000  148.1800 C   0  0  0  0  0  2  0  0  0  0  0  0
  159.9660  202.3850  149.9580 C   0  0  0  0  0  2  0  0  0  0  0  0
  161.2910  204.9190  145.4640 C   0  0  0  0  0  0  0  0  0  0  0  0
  161.1380  203.5810  147.5460 N   0  0  0  0  0  0  0  0  0  0  0  0
  161.1700  202.2600  147.7990 C   0  0  0  0  0  0  0  0  0  0  0  0
  161.4220  202.3870  145.6810 C   0  0  0  0  0  2  0  0  0  0  0  0
  159.4800  203.4890  152.0170 O   0  0  0  0  0  1  0  0  0  0  0  0
  160.8410  207.1150  146.8110 C   0  0  0  0  0  3  0  0  0  0  0  0
  160.4600  205.5100  150.1890 C   0  0  0  0  0  2  0  0  0  0  0  0
  161.0750  201.6950  149.1760 C   0  0  0  0  0  2  0  0  0  0  0  0
  161.0760  206.0380  146.1110 C   0  0  0  0  0  0  0  0  0  0  0  0
  162.1670  207.2990  149.7490 C   0  0  0  0  0  0  0  0  0  0  0  0
  163.3980  207.2360  149.4880 O   0  0  0  0  0  0  0  0  0  0  0  0
  162.0990  209.6590  150.4650 C   0  0  0  0  0  1  0  0  0  0  0  0
  161.7040  208.3020  150.6030 O   0  0  0  0  0  0  0  0  0  0  0  0
  162.2570  204.8620  151.8610 C   0  0  0  0  0  2  0  0  0  0  0  0
  161.5320  205.3070  152.9720 O   0  0  0  0  0  0  0  0  0  0  0  0
  162.1670  206.4800  153.3820 C   0  0  0  0  0  2  0  0  0  0  0  0
  161.1060  207.4040  154.4760 S   0  0  0  0  0  0  0  0  0  0  0  0
  161.8900  207.8210  155.6880 O   0  0  0  0  0  0  0  0  0  0  0  0
  159.9470  206.5460  154.8990 O   0  0  0  0  0  0  0  0  0  0  0  0
  160.5230  208.8030  153.6380 N   0  0  0  0  0  2  0  0  0  0  0  0
  160.7090  209.9550  154.5070 C   0  0  1  0  0  3  0  0  0  0  0  0
  158.6130  211.3790  154.4420 C   0  0  0  0  0  0  0  0  0  0  0  0
  160.8500  211.2180  153.6600 C   0  0  0  0  0  2  0  0  0  0  0  0
  157.1780  211.7980  154.4630 C   0  0  0  0  0  1  0  0  0  0  0  0
  159.2400  210.1480  155.5720 S   0  0  0  0  0  0  0  0  0  0  0  0
  159.1840  212.8780  152.5410 C   0  0  0  0  0  1  0  0  0  0  0  0
  159.4960  211.8280  153.5610 C   0  0  0  0  0  0  0  0  0  0  0  0
  161.4600  204.9120  144.0430 N   0  0  0  0  0  2  0  0  0  0  0  0
  161.8090  206.2390  142.0020 C   0  0  0  0  0  0  0  0  0  0  0  0
  161.1660  206.0350  143.2570 N   0  0  0  0  0  2  0  0  0  0  0  0
  161.5710  207.4480  141.2840 N   0  0  0  0  0  2  0  0  0  0  0  0
  162.5700  205.3490  141.5270 O   0  0  0  0  0  0  0  0  0  0  0  0
  162.0970  207.6680  139.9470 C   0  0  0  0  0  2  0  0  0  0  0  0
  160.9730  208.1030  139.0200 C   0  0  0  0  0  2  0  0  0  0  0  0
  161.0340  209.5900  138.6670 C   0  0  1  0  0  3  0  0  0  0  0  0
  162.6570  210.9770  137.5350 O   0  0  0  0  0  1  0  0  0  0  0  0
  161.8090  209.8780  137.3820 C   0  0  0  0  0  2  0  0  0  0  0  0
  159.6590  210.2560  138.6780 C   0  0  0  0  0  2  0  0  0  0  0  0
  157.0490  212.3820  139.4190 C   0  0  0  0  0  2  0  0  0  0  0  0
  157.6920  213.2540  140.3470 C   0  0  0  0  0  2  0  0  0  0  0  0
  159.6350  211.4070  139.6330 C   0  0  0  0  0  0  0  0  0  0  0  0
  158.5120  212.1090  139.7590 C   0  0  0  0  0  0  0  0  0  0  0  0
  160.8430  211.7880  140.3840 C   0  0  0  0  0  0  0  0  0  0  0  0
  161.3900  212.9070  140.1900 O   0  0  0  0  0  0  0  0  0  0  0  0
  161.3910  210.9220  141.3160 O   0  0  0  0  0  1  0  0  0  0  0  0
  1  4  1  0  0  0  0
  1 21  1  1  0  0  0
  2  9  2  0  0  0  0
  3 10  2  0  0  0  0
  4 12  1  1  0  0  0
  5 17  1  1  0  0  0
  5 14  1  0  0  0  0
  6  5  1  0  0  0  0
  7  4  1  0  0  0  0
  8 16  2  0  0  0  0
  8  2  1  0  0  0  0
  9 10  1  0  0  0  0
 10 15  1  0  0  0  0
 11  2  1  0  0  0  0
 11  3  1  0  0  0  0
 13  6  1  0  0  0  0
 14  1  1  0  0  0  0
 15  7  1  0  0  0  0
 16 13  2  0  0  0  0
 17 20  1  0  0  0  0
 18 17  2  0  0  0  0
 19 20  1  0  0  0  0
 21 22  1  0  0  0  0
 22 23  1  0  0  0  0
 23 24  1  0  0  0  0
 24 26  2  0  0  0  0
 24 25  2  0  0  0  0
 27 24  1  0  0  0  0
 28 27  1  6  0  0  0
 28 32  1  0  0  0  0
 29 31  1  0  0  0  0
 29 32  1  0  0  0  0
 30 28  1  0  0  0  0
 33 34  1  0  0  0  0
 34 30  1  0  0  0  0
 34 29  2  0  0  0  0
 35  8  1  0  0  0  0
 36 37  1  0  0  0  0
 37 35  1  0  0  0  0
 38 36  1  0  0  0  0
 39 36  2  0  0  0  0
 40 38  1  0  0  0  0
 41 40  1  0  0  0  0
 42 44  1  6  0  0  0
 42 45  1  0  0  0  0
 42 41  1  0  0  0  0
 44 43  1  0  0  0  0
 45 48  1  0  0  0  0
 46 49  1  0  0  0  0
 46 47  1  0  0  0  0
 48 49  2  0  0  0  0
 48 50  1  0  0  0  0
 49 47  1  0  0  0  0
 50 52  1  0  0  0  0
 51 50  2  0  0  0  0
M  END
>  <MODEL>
2

>  <REMARK>
 VINA RESULT:      -3.8      1.065      1.738
  Name = 
  17 active torsions:
  status: ('A' for Active; 'I' for Inactive)
    1  A    between atoms: C_1  and  N_22
    2  A    between atoms: C_1  and  C_49
    3  A    between atoms: C_2  and  N_14
    4  A    between atoms: O_4  and  C_11
    5  A    between atoms: O_4  and  C_35
    6  A    between atoms: N_5  and  N_18
    7  A    between atoms: N_5  and  C_36
    8  A    between atoms: S_6  and  N_14
    9  A    between atoms: S_6  and  C_35
   10  A    between atoms: C_8  and  C_28
   11  A    between atoms: C_8  and  C_31
   12  A    between atoms: C_10  and  C_28
   13  A    between atoms: C_11  and  C_12
   14  A    between atoms: C_26  and  C_30
   15  A    between atoms: C_26  and  O_45
   16  A    between atoms: C_31  and  C_44
   17  A    between atoms: C_31  and  C_49
                            x       y       z     vdW  Elec       q    Type
                         _______ _______ _______ _____ _____    ______ ____

>  <TORSDO>
F 17

$$$$
=
 OpenBabel11042422183D

 52 55  0  0  1  0  0  0  0  0999 V2000
  161.6110  205.2900  151.7560 C   0  0  1  0  0  3  0  0  0  0  0  0
  161.2680  202.9820  147.8110 C   0  0  0  0  0  0  0  0  0  0  0  0
  161.4160  201.1520  149.0310 N   0  0  0  0  0  0  0  0  0  0  0  0
  160.8630  204.2890  152.6500 C   0  0  2  0  0  3  0  0  0  0  0  0
  161.3450  206.5110  149.5750 C   0  0  2  0  0  3  0  0  0  0  0  0
  160.2970  206.8170  148.5100 C   0  0  0  0  0  2  0  0  0  0  0  0
  160.2380  203.1560  151.8450 C   0  0  0  0  0  2  0  0  0  0  0  0
  161.1940  203.8920  146.6570 C   0  0  0  0  0  0  0  0  0  0  0  0
  161.2140  203.3950  149.0870 N   0  0  0  0  0  0  0  0  0  0  0  0
  161.2930  202.2550  149.7950 C   0  0  0  0  0  0  0  0  0  0  0  0
  161.3950  201.6080  147.7620 C   0  0  0  0  0  2  0  0  0  0  0  0
  159.8710  204.9300  153.3980 O   0  0  0  0  0  1  0  0  0  0  0  0
  160.7890  206.4280  147.1520 C   0  0  0  0  0  3  0  0  0  0  0  0
  160.6780  206.1510  150.8990 C   0  0  0  0  0  2  0  0  0  0  0  0
  161.3050  202.2250  151.2860 C   0  0  0  0  0  2  0  0  0  0  0  0
  160.9990  205.1700  146.8710 C   0  0  0  0  0  0  0  0  0  0  0  0
  162.3110  207.6530  149.7230 C   0  0  0  0  0  0  0  0  0  0  0  0
  163.2960  207.7470  148.9430 O   0  0  0  0  0  0  0  0  0  0  0  0
  161.9460  209.9990  150.3960 C   0  0  0  0  0  1  0  0  0  0  0  0
  162.1300  208.6260  150.7080 O   0  0  0  0  0  0  0  0  0  0  0  0
  162.6000  206.1420  152.5580 C   0  0  0  0  0  2  0  0  0  0  0  0
  162.1390  206.3830  153.8570 O   0  0  0  0  0  0  0  0  0  0  0  0
  161.6260  207.6800  153.8320 C   0  0  0  0  0  2  0  0  0  0  0  0
  160.9500  208.1040  155.4260 S   0  0  0  0  0  0  0  0  0  0  0  0
  162.0760  208.3940  156.3780 O   0  0  0  0  0  0  0  0  0  0  0  0
  160.1330  206.9570  155.9490 O   0  0  0  0  0  0  0  0  0  0  0  0
  159.9470  209.5060  155.2510 N   0  0  0  0  0  2  0  0  0  0  0  0
  160.8130  210.6730  155.2040 C   0  0  1  0  0  3  0  0  0  0  0  0
  159.4200  212.7040  154.6020 C   0  0  0  0  0  0  0  0  0  0  0  0
  160.9820  211.1270  153.7560 C   0  0  0  0  0  2  0  0  0  0  0  0
  158.3220  213.7180  154.5790 C   0  0  0  0  0  1  0  0  0  0  0  0
  160.0370  212.0350  156.1380 S   0  0  0  0  0  0  0  0  0  0  0  0
  159.6070  212.6210  152.1240 C   0  0  0  0  0  1  0  0  0  0  0  0
  159.9640  212.1850  153.5100 C   0  0  0  0  0  0  0  0  0  0  0  0
  161.2640  203.3730  145.3260 N   0  0  0  0  0  2  0  0  0  0  0  0
  161.6600  205.1410  143.6630 C   0  0  0  0  0  0  0  0  0  0  0  0
  160.8380  204.1170  144.2170 N   0  0  0  0  0  2  0  0  0  0  0  0
  161.1480  205.9530  142.6080 N   0  0  0  0  0  2  0  0  0  0  0  0
  162.8360  205.3130  144.0940 O   0  0  0  0  0  0  0  0  0  0  0  0
  161.9720  206.9310  141.9170 C   0  0  0  0  0  2  0  0  0  0  0  0
  162.2670  206.4470  140.5080 C   0  0  0  0  0  2  0  0  0  0  0  0
  162.0740  207.5360  139.4510 C   0  0  1  0  0  3  0  0  0  0  0  0
  161.2260  207.4530  137.1890 O   0  0  0  0  0  1  0  0  0  0  0  0
  162.2670  207.0330  138.0200 C   0  0  0  0  0  2  0  0  0  0  0  0
  160.7650  208.3040  139.6260 C   0  0  0  0  0  2  0  0  0  0  0  0
  159.2240  210.5860  137.5530 C   0  0  0  0  0  2  0  0  0  0  0  0
  159.9230  211.7730  137.9240 C   0  0  0  0  0  2  0  0  0  0  0  0
  160.9980  209.7780  139.5230 C   0  0  0  0  0  0  0  0  0  0  0  0
  160.2920  210.4760  138.6380 C   0  0  0  0  0  0  0  0  0  0  0  0
  162.0220  210.4380  140.3500 C   0  0  0  0  0  0  0  0  0  0  0  0
  163.2380  210.1300  140.2290 O   0  0  0  0  0  0  0  0  0  0  0  0
  161.6600  211.4100  141.2710 O   0  0  0  0  0  1  0  0  0  0  0  0
  1 21  1  1  0  0  0
  1  4  1  0  0  0  0
  2  9  2  0  0  0  0
  3 10  2  0  0  0  0
  4 12  1  6  0  0  0
  5 17  1  1  0  0  0
  5 14  1  0  0  0  0
  6  5  1  0  0  0  0
  7  4  1  0  0  0  0
  8 16  2  0  0  0  0
  8  2  1  0  0  0  0
  9 10  1  0  0  0  0
 10 15  1  0  0  0  0
 11  2  1  0  0  0  0
 11  3  1  0  0  0  0
 13  6  1  0  0  0  0
 14  1  1  0  0  0  0
 15  7  1  0  0  0  0
 16 13  2  0  0  0  0
 17 20  1  0  0  0  0
 18 17  2  0  0  0  0
 19 20  1  0  0  0  0
 21 22  1  0  0  0  0
 23 22  1  0  0  0  0
 23 24  1  0  0  0  0
 24 26  2  0  0  0  0
 24 25  2  0  0  0  0
 27 24  1  0  0  0  0
 28 27  1  6  0  0  0
 28 32  1  0  0  0  0
 29 32  1  0  0  0  0
 30 28  1  0  0  0  0
 31 29  1  0  0  0  0
 33 34  1  0  0  0  0
 34 30  1  0  0  0  0
 34 29  2  0  0  0  0
 35  8  1  0  0  0  0
 36 39  2  0  0  0  0
 36 37  1  0  0  0  0
 37 35  1  0  0  0  0
 38 36  1  0  0  0  0
 40 38  1  0  0  0  0
 41 40  1  0  0  0  0
 42 44  1  6  0  0  0
 42 45  1  0  0  0  0
 42 41  1  0  0  0  0
 43 44  1  0  0  0  0
 46 47  1  0  0  0  0
 46 49  1  0  0  0  0
 47 49  1  0  0  0  0
 48 45  1  0  0  0  0
 48 50  1  0  0  0  0
 49 48  2  0  0  0  0
 50 52  1  0  0  0  0
 51 50  2  0  0  0  0
M  END
>  <MODEL>
3

>  <REMARK>
 VINA RESULT:      -3.7      1.649      2.335
  Name = 
  17 active torsions:
  status: ('A' for Active; 'I' for Inactive)
    1  A    between atoms: C_1  and  N_22
    2  A    between atoms: C_1  and  C_49
    3  A    between atoms: C_2  and  N_14
    4  A    between atoms: O_4  and  C_11
    5  A    between atoms: O_4  and  C_35
    6  A    between atoms: N_5  and  N_18
    7  A    between atoms: N_5  and  C_36
    8  A    between atoms: S_6  and  N_14
    9  A    between atoms: S_6  and  C_35
   10  A    between atoms: C_8  and  C_28
   11  A    between atoms: C_8  and  C_31
   12  A    between atoms: C_10  and  C_28
   13  A    between atoms: C_11  and  C_12
   14  A    between atoms: C_26  and  C_30
   15  A    between atoms: C_26  and  O_45
   16  A    between atoms: C_31  and  C_44
   17  A    between atoms: C_31  and  C_49
                            x       y       z     vdW  Elec       q    Type
                         _______ _______ _______ _____ _____    ______ ____

>  <TORSDO>
F 17

$$$$
=
 OpenBabel11042422183D

 52 55  0  0  1  0  0  0  0  0999 V2000
  161.5230  205.1670  151.3890 C   0  0  1  0  0  3  0  0  0  0  0  0
  161.2070  203.2060  147.2570 C   0  0  0  0  0  0  0  0  0  0  0  0
  161.3540  201.2790  148.3150 N   0  0  0  0  0  0  0  0  0  0  0  0
  160.7740  204.0900  152.1890 C   0  0  2  0  0  3  0  0  0  0  0  0
  161.2640  206.5700  149.3200 C   0  0  2  0  0  3  0  0  0  0  0  0
  160.2200  206.9650  148.2790 C   0  0  0  0  0  2  0  0  0  0  0  0
  160.1570  203.0290  151.2860 C   0  0  0  0  0  2  0  0  0  0  0  0
  161.1360  204.2130  146.1860 C   0  0  0  0  0  0  0  0  0  0  0  0
  161.1460  203.5080  148.5640 N   0  0  0  0  0  0  0  0  0  0  0  0
  161.2240  202.3110  149.1710 C   0  0  0  0  0  0  0  0  0  0  0  0
  161.3380  201.8430  147.0900 C   0  0  0  0  0  2  0  0  0  0  0  0
  159.7770  204.6610  152.9840 O   0  0  0  0  0  1  0  0  0  0  0  0
  160.7210  206.6960  146.8960 C   0  0  0  0  0  3  0  0  0  0  0  0
  160.5920  206.0960  150.6050 C   0  0  0  0  0  2  0  0  0  0  0  0
  161.2300  202.1530  150.6540 C   0  0  0  0  0  2  0  0  0  0  0  0
  160.9360  205.4670  146.5090 C   0  0  0  0  0  0  0  0  0  0  0  0
  162.2260  207.6990  149.5710 C   0  0  0  0  0  0  0  0  0  0  0  0
  163.4670  207.4820  149.5460 O   0  0  0  0  0  0  0  0  0  0  0  0
  162.3590  209.8320  150.8030 C   0  0  0  0  0  1  0  0  0  0  0  0
  161.7670  208.9930  149.8220 O   0  0  0  0  0  0  0  0  0  0  0  0
  162.5060  205.9480  152.2660 C   0  0  0  0  0  2  0  0  0  0  0  0
  161.9590  206.2380  153.5210 O   0  0  0  0  0  0  0  0  0  0  0  0
  161.5010  207.5530  153.4300 C   0  0  0  0  0  2  0  0  0  0  0  0
  160.8680  208.0940  155.0060 S   0  0  0  0  0  0  0  0  0  0  0  0
  162.0120  208.5640  155.8610 O   0  0  0  0  0  0  0  0  0  0  0  0
  160.1670  206.9530  155.6870 O   0  0  0  0  0  0  0  0  0  0  0  0
  159.7540  209.3940  154.7430 N   0  0  0  0  0  2  0  0  0  0  0  0
  160.4160  210.6340  155.1150 C   0  0  1  0  0  3  0  0  0  0  0  0
  158.7400  212.5310  154.9820 C   0  0  0  0  0  0  0  0  0  0  0  0
  160.5830  211.5170  153.8800 C   0  0  0  0  0  2  0  0  0  0  0  0
  157.4920  213.3390  155.1400 C   0  0  0  0  0  1  0  0  0  0  0  0
  159.3780  211.5320  156.3170 S   0  0  0  0  0  0  0  0  0  0  0  0
  159.0680  213.2140  152.6130 C   0  0  0  0  0  1  0  0  0  0  0  0
  159.4190  212.4430  153.8460 C   0  0  0  0  0  0  0  0  0  0  0  0
  161.2140  203.8110  144.8150 N   0  0  0  0  0  2  0  0  0  0  0  0
  161.7750  205.5020  143.1210 C   0  0  0  0  0  0  0  0  0  0  0  0
  160.8260  204.6610  143.7710 N   0  0  0  0  0  2  0  0  0  0  0  0
  161.3250  206.4360  142.1400 N   0  0  0  0  0  2  0  0  0  0  0  0
  163.0040  205.4070  143.4010 O   0  0  0  0  0  0  0  0  0  0  0  0
  162.2500  207.2360  141.3550 C   0  0  0  0  0  2  0  0  0  0  0  0
  161.6090  207.6010  140.0260 C   0  0  0  0  0  2  0  0  0  0  0  0
  161.3390  209.1010  139.8870 C   0  0  1  0  0  3  0  0  0  0  0  0
  163.2710  210.5510  139.8360 O   0  0  0  0  0  1  0  0  0  0  0  0
  162.3190  209.9690  140.6760 C   0  0  0  0  0  2  0  0  0  0  0  0
  161.2090  209.5460  138.4320 C   0  0  0  0  0  2  0  0  0  0  0  0
  160.7890  212.8370  139.3640 C   0  0  0  0  0  2  0  0  0  0  0  0
  159.4400  213.0450  138.9480 C   0  0  0  0  0  2  0  0  0  0  0  0
  160.0100  210.4210  138.2500 C   0  0  0  0  0  0  0  0  0  0  0  0
  160.0590  211.6720  138.6990 C   0  0  0  0  0  0  0  0  0  0  0  0
  158.7810  209.8970  137.6300 C   0  0  0  0  0  0  0  0  0  0  0  0
  157.9990  210.6680  137.0110 O   0  0  0  0  0  0  0  0  0  0  0  0
  158.4720  208.5490  137.7180 O   0  0  0  0  0  1  0  0  0  0  0  0
  1  4  1  0  0  0  0
  1 21  1  1  0  0  0
  2  9  2  0  0  0  0
  3 10  2  0  0  0  0
  4 12  1  6  0  0  0
  5 17  1  1  0  0  0
  5 14  1  0  0  0  0
  6  5  1  0  0  0  0
  7  4  1  0  0  0  0
  8 16  2  0  0  0  0
  8  2  1  0  0  0  0
  9 10  1  0  0  0  0
 10 15  1  0  0  0  0
 11  2  1  0  0  0  0
 11  3  1  0  0  0  0
 13  6  1  0  0  0  0
 14  1  1  0  0  0  0
 15  7  1  0  0  0  0
 16 13  2  0  0  0  0
 17 20  1  0  0  0  0
 18 17  2  0  0  0  0
 20 19  1  0  0  0  0
 21 22  1  0  0  0  0
 23 22  1  0  0  0  0
 23 24  1  0  0  0  0
 24 26  2  0  0  0  0
 24 25  2  0  0  0  0
 27 24  1  0  0  0  0
 28 27  1  6  0  0  0
 28 32  1  0  0  0  0
 29 31  1  0  0  0  0
 29 32  1  0  0  0  0
 30 28  1  0  0  0  0
 33 34  1  0  0  0  0
 34 30  1  0  0  0  0
 34 29  2  0  0  0  0
 35  8  1  0  0  0  0
 36 39  2  0  0  0  0
 36 37  1  0  0  0  0
 37 35  1  0  0  0  0
 38 36  1  0  0  0  0
 40 38  1  0  0  0  0
 41 40  1  0  0  0  0
 42 45  1  6  0  0  0
 42 41  1  0  0  0  0
 42 44  1  0  0  0  0
 43 44  1  0  0  0  0
 47 46  1  0  0  0  0
 48 45  1  0  0  0  0
 48 49  2  0  0  0  0
 49 47  1  0  0  0  0
 49 46  1  0  0  0  0
 50 52  1  0  0  0  0
 50 48  1  0  0  0  0
 51 50  2  0  0  0  0
M  END
>  <MODEL>
4

>  <REMARK>
 VINA RESULT:      -2.2      1.439      2.211
  Name = 
  17 active torsions:
  status: ('A' for Active; 'I' for Inactive)
    1  A    between atoms: C_1  and  N_22
    2  A    between atoms: C_1  and  C_49
    3  A    between atoms: C_2  and  N_14
    4  A    between atoms: O_4  and  C_11
    5  A    between atoms: O_4  and  C_35
    6  A    between atoms: N_5  and  N_18
    7  A    between atoms: N_5  and  C_36
    8  A    between atoms: S_6  and  N_14
    9  A    between atoms: S_6  and  C_35
   10  A    between atoms: C_8  and  C_28
   11  A    between atoms: C_8  and  C_31
   12  A    between atoms: C_10  and  C_28
   13  A    between atoms: C_11  and  C_12
   14  A    between atoms: C_26  and  C_30
   15  A    between atoms: C_26  and  O_45
   16  A    between atoms: C_31  and  C_44
   17  A    between atoms: C_31  and  C_49
                            x       y       z     vdW  Elec       q    Type
                         _______ _______ _______ _____ _____    ______ ____

>  <TORSDO>
F 17

$$$$
=
 OpenBabel11042422183D

 52 55  0  0  1  0  0  0  0  0999 V2000
  161.9770  206.3550  148.9600 C   0  0  1  0  0  3  0  0  0  0  0  0
  161.7410  208.7630  152.8540 C   0  0  0  0  0  0  0  0  0  0  0  0
  162.4810  210.4730  151.6770 N   0  0  0  0  0  0  0  0  0  0  0  0
  161.6130  207.4900  147.9900 C   0  0  2  0  0  3  0  0  0  0  0  0
  161.1570  205.2860  151.0820 C   0  0  2  0  0  3  0  0  0  0  0  0
  159.9450  205.2700  152.0090 C   0  0  0  0  0  2  0  0  0  0  0  0
  161.1940  208.7590  148.7220 C   0  0  0  0  0  2  0  0  0  0  0  0
  161.3060  207.9240  153.9820 C   0  0  0  0  0  0  0  0  0  0  0  0
  161.7410  208.3470  151.5780 N   0  0  0  0  0  0  0  0  0  0  0  0
  162.1830  209.4180  150.8940 C   0  0  0  0  0  0  0  0  0  0  0  0
  162.1950  210.0640  152.9300 C   0  0  0  0  0  2  0  0  0  0  0  0
  160.5920  207.0960  147.1220 O   0  0  0  0  0  1  0  0  0  0  0  0
  160.3510  205.5550  153.4200 C   0  0  0  0  0  3  0  0  0  0  0  0
  160.7650  205.7690  149.6890 C   0  0  0  0  0  2  0  0  0  0  0  0
  162.3830  209.4110  149.4160 C   0  0  0  0  0  2  0  0  0  0  0  0
  160.8290  206.7290  153.7350 C   0  0  0  0  0  0  0  0  0  0  0  0
  161.8220  203.9370  151.0440 C   0  0  0  0  0  0  0  0  0  0  0  0
  162.8910  203.7470  151.6830 O   0  0  0  0  0  0  0  0  0  0  0  0
  161.1120  201.5810  150.8640 C   0  0  0  0  0  1  0  0  0  0  0  0
  161.2680  202.8820  150.3160 O   0  0  0  0  0  0  0  0  0  0  0  0
  162.8150  205.2690  148.2790 C   0  0  0  0  0  2  0  0  0  0  0  0
  162.0360  204.4720  147.4320 O   0  0  0  0  0  0  0  0  0  0  0  0
  162.5070  204.7330  146.1440 C   0  0  0  0  0  2  0  0  0  0  0  0
  161.2070  204.4750  144.9520 S   0  0  0  0  0  0  0  0  0  0  0  0
  161.4630  205.3380  143.7480 O   0  0  0  0  0  0  0  0  0  0  0  0
  159.8830  204.8430  145.5600 O   0  0  0  0  0  0  0  0  0  0  0  0
  161.1950  202.8060  144.4910 N   0  0  0  0  0  2  0  0  0  0  0  0
  160.0930  202.1570  145.1830 C   0  0  1  0  0  3  0  0  0  0  0  0
  161.0340  200.4610  146.8150 C   0  0  0  0  0  0  0  0  0  0  0  0
  159.9680  200.7110  144.7070 C   0  0  0  0  0  2  0  0  0  0  0  0
  161.8660  199.8240  147.8810 C   0  0  0  0  0  1  0  0  0  0  0  0
  160.4390  202.1370  146.9750 S   0  0  0  0  0  0  0  0  0  0  0  0
  161.1170  198.4610  145.3390 C   0  0  0  0  0  1  0  0  0  0  0  0
  160.7350  199.8700  145.6670 C   0  0  0  0  0  0  0  0  0  0  0  0
  161.3410  208.4400  155.3160 N   0  0  0  0  0  2  0  0  0  0  0  0
  160.3580  210.5890  155.9980 C   0  0  0  0  0  0  0  0  0  0  0  0
  160.2740  209.1730  155.8540 N   0  0  0  0  0  2  0  0  0  0  0  0
  159.3010  211.2880  156.6530 N   0  0  0  0  0  2  0  0  0  0  0  0
  161.3530  211.2160  155.5350 O   0  0  0  0  0  0  0  0  0  0  0  0
  159.2650  212.7390  156.7270 C   0  0  0  0  0  2  0  0  0  0  0  0
  159.4320  213.3260  155.3360 C   0  0  0  0  0  2  0  0  0  0  0  0
  158.0980  213.6340  154.6540 C   0  0  1  0  0  3  0  0  0  0  0  0
  158.0350  213.6390  152.2380 O   0  0  0  0  0  1  0  0  0  0  0  0
  158.2470  214.4390  153.3630 C   0  0  0  0  0  2  0  0  0  0  0  0
  157.2280  212.3920  154.4680 C   0  0  0  0  0  2  0  0  0  0  0  0
  155.3440  209.7480  155.6220 C   0  0  0  0  0  2  0  0  0  0  0  0
  154.3920  210.4490  156.4220 C   0  0  0  0  0  2  0  0  0  0  0  0
  156.0620  212.4160  155.4040 C   0  0  0  0  0  0  0  0  0  0  0  0
  155.4680  211.2670  155.7130 C   0  0  0  0  0  0  0  0  0  0  0  0
  155.5500  213.6890  155.9370 C   0  0  0  0  0  0  0  0  0  0  0  0
  155.9160  214.1010  157.0710 O   0  0  0  0  0  1  0  0  0  0  0  0
  154.6600  214.4520  155.1970 O   0  0  0  0  0  0  0  0  0  0  0  0
  1 21  1  6  0  0  0
  1 14  1  0  0  0  0
  2 11  1  0  0  0  0
  2  8  1  0  0  0  0
  3 11  1  0  0  0  0
  4 12  1  6  0  0  0
  4  7  1  0  0  0  0
  4  1  1  0  0  0  0
  5 17  1  6  0  0  0
  5  6  1  0  0  0  0
  6 13  1  0  0  0  0
  7 15  1  0  0  0  0
  8 35  1  0  0  0  0
  9  2  2  0  0  0  0
 10  9  1  0  0  0  0
 10  3  2  0  0  0  0
 13 16  2  0  0  0  0
 14  5  1  0  0  0  0
 15 10  1  0  0  0  0
 16  8  2  0  0  0  0
 17 18  2  0  0  0  0
 20 19  1  0  0  0  0
 20 17  1  0  0  0  0
 22 21  1  0  0  0  0
 23 22  1  0  0  0  0
 24 26  2  0  0  0  0
 24 23  1  0  0  0  0
 25 24  2  0  0  0  0
 27 24  1  0  0  0  0
 28 27  1  6  0  0  0
 28 32  1  0  0  0  0
 29 32  1  0  0  0  0
 29 31  1  0  0  0  0
 30 28  1  0  0  0  0
 30 34  1  0  0  0  0
 33 34  1  0  0  0  0
 34 29  2  0  0  0  0
 35 37  1  0  0  0  0
 36 38  1  0  0  0  0
 37 36  1  0  0  0  0
 38 40  1  0  0  0  0
 39 36  2  0  0  0  0
 41 40  1  0  0  0  0
 42 44  1  6  0  0  0
 42 41  1  0  0  0  0
 43 44  1  0  0  0  0
 45 42  1  0  0  0  0
 45 48  1  0  0  0  0
 46 49  1  0  0  0  0
 46 47  1  0  0  0  0
 48 49  2  0  0  0  0
 48 50  1  0  0  0  0
 49 47  1  0  0  0  0
 50 51  1  0  0  0  0
 52 50  2  0  0  0  0
M  END
>  <MODEL>
5

>  <REMARK>
 VINA RESULT:      -1.0      5.227     12.023
  Name = 
  17 active torsions:
  status: ('A' for Active; 'I' for Inactive)
    1  A    between atoms: C_1  and  N_22
    2  A    between atoms: C_1  and  C_49
    3  A    between atoms: C_2  and  N_14
    4  A    between atoms: O_4  and  C_11
    5  A    between atoms: O_4  and  C_35
    6  A    between atoms: N_5  and  N_18
    7  A    between atoms: N_5  and  C_36
    8  A    between atoms: S_6  and  N_14
    9  A    between atoms: S_6  and  C_35
   10  A    between atoms: C_8  and  C_28
   11  A    between atoms: C_8  and  C_31
   12  A    between atoms: C_10  and  C_28
   13  A    between atoms: C_11  and  C_12
   14  A    between atoms: C_26  and  C_30
   15  A    between atoms: C_26  and  O_45
   16  A    between atoms: C_31  and  C_44
   17  A    between atoms: C_31  and  C_49
                            x       y       z     vdW  Elec       q    Type
                         _______ _______ _______ _____ _____    ______ ____

>  <TORSDO>
F 17

$$$$
