=
 OpenBabel11042422443D

 38 42  0  0  1  0  0  0  0  0999 V2000
  160.7690  205.9620  150.9090 C   0  0  0  0  0  0  0  0  0  0  0  0
  160.9590  203.2740  148.9860 N   0  0  0  0  0  0  0  0  0  0  0  0
  161.2240  203.6880  152.5160 C   0  0  0  0  0  3  0  0  0  0  0  0
  160.4590  204.7060  150.5100 C   0  0  0  0  0  0  0  0  0  0  0  0
  161.0220  206.6390  149.6990 C   0  0  0  0  0  0  0  0  0  0  0  0
  161.0660  202.6490  150.2020 C   0  0  0  0  0  3  0  0  0  0  0  0
  160.7720  203.5890  151.1960 C   0  0  0  0  0  0  0  0  0  0  0  0
  160.5680  204.5180  149.2280 N   0  0  0  0  0  0  0  0  0  0  0  0
  161.3840  204.9960  153.0530 C   0  0  0  0  0  3  0  0  0  0  0  0
  160.9680  205.6750  148.6640 C   0  0  0  0  0  3  0  0  0  0  0  0
  161.1990  206.1550  152.2420 C   0  0  0  0  0  0  0  0  0  0  0  0
  161.4720  208.0300  149.5090 C   0  0  0  0  0  0  0  0  0  0  0  0
  161.7520  208.5060  148.2210 C   0  0  0  0  0  3  0  0  0  0  0  0
  161.5500  208.9110  150.5940 C   0  0  0  0  0  3  0  0  0  0  0  0
  161.9360  210.2400  150.4010 C   0  0  0  0  0  3  0  0  0  0  0  0
  162.1380  209.8340  148.0280 C   0  0  0  0  0  3  0  0  0  0  0  0
  162.2390  210.7120  149.1180 C   0  0  0  0  0  0  0  0  0  0  0  0
  160.4290  213.0210  148.0310 C   0  0  0  0  0  1  0  0  0  0  0  0
  162.6270  212.0850  148.9650 N   0  0  0  0  0  2  0  0  0  0  0  0
  161.8410  213.1840  148.4800 C   0  0  0  0  0  0  0  0  0  0  0  0
  162.3600  214.3280  148.4240 O   0  0  0  0  0  0  0  0  0  0  0  0
  161.5580  207.5000  152.7850 C   0  0  0  0  0  2  0  0  0  0  0  0
  160.9490  207.7260  154.1360 C   0  0  0  0  0  0  0  0  0  0  0  0
  160.9310  209.0060  154.7440 C   0  0  0  0  0  0  0  0  0  0  0  0
  159.7930  206.8020  156.0650 C   0  0  0  0  0  3  0  0  0  0  0  0
  160.3660  206.6380  154.8030 C   0  0  0  0  0  3  0  0  0  0  0  0
  159.7970  208.0570  156.6730 C   0  0  0  0  0  3  0  0  0  0  0  0
  160.3590  209.1530  156.0120 C   0  0  0  0  0  3  0  0  0  0  0  0
  162.7050  210.7690  154.8360 C   0  0  0  0  0  1  0  0  0  0  0  0
  161.4880  210.2410  154.0930 C   0  0  2  0  0  3  0  0  0  0  0  0
  160.4200  211.3120  153.9250 C   0  0  0  0  0  2  0  0  0  0  0  0
  159.5210  210.9570  152.8410 N   0  0  0  0  0  2  0  0  0  0  0  0
  158.5990  212.0690  152.6680 C   0  0  0  0  0  2  0  0  0  0  0  0
  158.4340  212.9830  154.2310 S   0  0  0  0  0  0  0  0  0  0  0  0
  156.6590  212.6100  154.3630 C   0  0  0  0  0  2  0  0  0  0  0  0
  156.3950  211.7580  155.5890 C   0  0  1  0  0  3  0  0  0  0  0  0
  155.6010  210.5360  155.1800 C   0  0  0  0  0  1  0  0  0  0  0  0
  157.6060  211.3520  156.1490 O   0  0  0  0  0  1  0  0  0  0  0  0
  1 11  1  0  0  0  0
  2  8  1  0  0  0  0
  2  6  2  0  0  0  0
  3  9  1  0  0  0  0
  4  1  2  0  0  0  0
  4  7  1  0  0  0  0
  5  1  1  0  0  0  0
  6  7  1  0  0  0  0
  7  3  2  0  0  0  0
  8  4  1  0  0  0  0
 10  8  1  0  0  0  0
 10  5  2  0  0  0  0
 11 22  1  0  0  0  0
 11  9  2  0  0  0  0
 12  5  1  0  0  0  0
 12 14  1  0  0  0  0
 13 12  2  0  0  0  0
 15 14  2  0  0  0  0
 16 13  1  0  0  0  0
 16 17  2  0  0  0  0
 17 15  1  0  0  0  0
 18 20  1  0  0  0  0
 19 17  1  0  0  0  0
 20 19  1  0  0  0  0
 21 20  2  0  0  0  0
 22 23  1  0  0  0  0
 23 24  2  0  0  0  0
 23 26  1  0  0  0  0
 24 28  1  0  0  0  0
 25 27  1  0  0  0  0
 26 25  2  0  0  0  0
 28 27  2  0  0  0  0
 30 24  1  0  0  0  0
 30 29  1  1  0  0  0
 31 30  1  0  0  0  0
 32 31  1  0  0  0  0
 33 32  1  0  0  0  0
 33 34  1  0  0  0  0
 34 35  1  0  0  0  0
 35 36  1  0  0  0  0
 36 37  1  6  0  0  0
 36 38  1  0  0  0  0
M  END
>  <MODEL>
1

>  <REMARK>
 VINA RESULT:      -7.9      0.000      0.000
  Name = 
  11 active torsions:
  status: ('A' for Active; 'I' for Inactive)
    1  A    between atoms: N_3  and  C_38
    2  A    between atoms: C_4  and  C_12
    3  A    between atoms: C_5  and  C_31
    4  A    between atoms: C_6  and  C_23
    5  A    between atoms: C_7  and  C_14
    6  A    between atoms: C_12  and  S_28
    7  A    between atoms: C_14  and  C_22
    8  A    between atoms: C_22  and  N_34
    9  A    between atoms: C_27  and  S_28
   10  A    between atoms: C_27  and  N_34
   11  A    between atoms: C_31  and  C_37
                            x       y       z     vdW  Elec       q    Type
                         _______ _______ _______ _____ _____    ______ ____

>  <TORSDO>
F 11

$$$$
=
 OpenBabel11042422443D

 38 42  0  0  1  0  0  0  0  0999 V2000
  160.8330  208.7230  152.7940 C   0  0  0  0  0  0  0  0  0  0  0  0
  161.3860  206.9830  155.5540 N   0  0  0  0  0  0  0  0  0  0  0  0
  161.6370  210.4700  154.8580 C   0  0  0  0  0  3  0  0  0  0  0  0
  160.7030  208.4180  154.1060 C   0  0  0  0  0  0  0  0  0  0  0  0
  160.9680  207.4640  152.1740 C   0  0  0  0  0  0  0  0  0  0  0  0
  161.6000  208.2360  156.0700 C   0  0  0  0  0  3  0  0  0  0  0  0
  161.1860  209.1710  155.1150 C   0  0  0  0  0  0  0  0  0  0  0  0
  160.8210  207.1500  154.3660 N   0  0  0  0  0  0  0  0  0  0  0  0
  161.6120  210.9130  153.5060 C   0  0  0  0  0  3  0  0  0  0  0  0
  161.0400  206.4990  153.2070 C   0  0  0  0  0  3  0  0  0  0  0  0
  161.2490  210.0290  152.4460 C   0  0  0  0  0  0  0  0  0  0  0  0
  161.2080  207.1690  150.7490 C   0  0  0  0  0  0  0  0  0  0  0  0
  160.2750  206.4170  150.0230 C   0  0  0  0  0  3  0  0  0  0  0  0
  162.3210  207.6990  150.0870 C   0  0  0  0  0  3  0  0  0  0  0  0
  162.5200  207.4510  148.7270 C   0  0  0  0  0  3  0  0  0  0  0  0
  160.4740  206.1690  148.6630 C   0  0  0  0  0  3  0  0  0  0  0  0
  161.6020  206.6800  148.0040 C   0  0  0  0  0  0  0  0  0  0  0  0
  161.7200  203.8910  146.5900 C   0  0  0  0  0  1  0  0  0  0  0  0
  161.8430  206.4540  146.6070 N   0  0  0  0  0  2  0  0  0  0  0  0
  161.9010  205.2020  145.9050 C   0  0  0  0  0  0  0  0  0  0  0  0
  162.1190  205.2080  144.6670 O   0  0  0  0  0  0  0  0  0  0  0  0
  161.4150  210.4710  151.0290 C   0  0  0  0  0  2  0  0  0  0  0  0
  160.7950  211.8170  150.7970 C   0  0  0  0  0  0  0  0  0  0  0  0
  160.9210  212.4950  149.5590 C   0  0  0  0  0  0  0  0  0  0  0  0
  159.4660  213.6580  151.6630 C   0  0  0  0  0  3  0  0  0  0  0  0
  160.0550  212.4040  151.8330 C   0  0  0  0  0  3  0  0  0  0  0  0
  159.6110  214.3360  150.4540 C   0  0  0  0  0  3  0  0  0  0  0  0
  160.3310  213.7540  149.4070 C   0  0  0  0  0  3  0  0  0  0  0  0
  163.0540  212.5100  148.2490 C   0  0  0  0  0  1  0  0  0  0  0  0
  161.6540  211.9300  148.3740 C   0  0  2  0  0  3  0  0  0  0  0  0
  160.8540  212.1020  147.0920 C   0  0  0  0  0  2  0  0  0  0  0  0
  161.5870  212.9320  146.1510 N   0  0  0  0  0  2  0  0  0  0  0  0
  160.6030  213.6610  145.3670 C   0  0  0  0  0  2  0  0  0  0  0  0
  159.3190  212.5200  144.7710 S   0  0  0  0  0  0  0  0  0  0  0  0
  159.7070  212.8540  143.0270 C   0  0  0  0  0  2  0  0  0  0  0  0
  160.5650  211.7410  142.4590 C   0  0  1  0  0  3  0  0  0  0  0  0
  160.1820  211.5100  141.0130 C   0  0  0  0  0  1  0  0  0  0  0  0
  161.9100  212.1060  142.5250 O   0  0  0  0  0  1  0  0  0  0  0  0
  1  4  1  0  0  0  0
  2  6  2  0  0  0  0
  3  7  1  0  0  0  0
  4  8  1  0  0  0  0
  4  7  2  0  0  0  0
  5  1  1  0  0  0  0
  5 10  2  0  0  0  0
  7  6  1  0  0  0  0
  8  2  1  0  0  0  0
  9  3  2  0  0  0  0
 10  8  1  0  0  0  0
 11  1  2  0  0  0  0
 11  9  1  0  0  0  0
 12  5  1  0  0  0  0
 13 12  2  0  0  0  0
 14 12  1  0  0  0  0
 15 14  2  0  0  0  0
 16 13  1  0  0  0  0
 17 16  2  0  0  0  0
 17 15  1  0  0  0  0
 19 17  1  0  0  0  0
 20 18  1  0  0  0  0
 20 19  1  0  0  0  0
 21 20  2  0  0  0  0
 22 11  1  0  0  0  0
 23 22  1  0  0  0  0
 23 26  1  0  0  0  0
 24 23  2  0  0  0  0
 25 26  2  0  0  0  0
 27 25  1  0  0  0  0
 28 24  1  0  0  0  0
 28 27  2  0  0  0  0
 30 29  1  6  0  0  0
 30 24  1  0  0  0  0
 31 30  1  0  0  0  0
 32 31  1  0  0  0  0
 33 32  1  0  0  0  0
 34 33  1  0  0  0  0
 35 34  1  0  0  0  0
 36 37  1  6  0  0  0
 36 38  1  0  0  0  0
 36 35  1  0  0  0  0
M  END
>  <MODEL>
2

>  <REMARK>
 VINA RESULT:      -7.9      3.747      7.508
  Name = 
  11 active torsions:
  status: ('A' for Active; 'I' for Inactive)
    1  A    between atoms: N_3  and  C_38
    2  A    between atoms: C_4  and  C_12
    3  A    between atoms: C_5  and  C_31
    4  A    between atoms: C_6  and  C_23
    5  A    between atoms: C_7  and  C_14
    6  A    between atoms: C_12  and  S_28
    7  A    between atoms: C_14  and  C_22
    8  A    between atoms: C_22  and  N_34
    9  A    between atoms: C_27  and  S_28
   10  A    between atoms: C_27  and  N_34
   11  A    between atoms: C_31  and  C_37
                            x       y       z     vdW  Elec       q    Type
                         _______ _______ _______ _____ _____    ______ ____

>  <TORSDO>
F 11

$$$$
=
 OpenBabel11042422443D

 38 42  0  0  1  0  0  0  0  0999 V2000
  160.7910  205.9620  150.9230 C   0  0  0  0  0  0  0  0  0  0  0  0
  160.9300  203.2450  149.0380 N   0  0  0  0  0  0  0  0  0  0  0  0
  161.2060  203.7030  152.5610 C   0  0  0  0  0  3  0  0  0  0  0  0
  160.4580  204.7070  150.5420 C   0  0  0  0  0  0  0  0  0  0  0  0
  161.0550  206.6180  149.7030 C   0  0  0  0  0  0  0  0  0  0  0  0
  161.0270  202.6350  150.2620 C   0  0  0  0  0  3  0  0  0  0  0  0
  160.7520  203.5940  151.2430 C   0  0  0  0  0  0  0  0  0  0  0  0
  160.5620  204.4990  149.2630 N   0  0  0  0  0  0  0  0  0  0  0  0
  161.3910  205.0160  153.0800 C   0  0  0  0  0  3  0  0  0  0  0  0
  160.9830  205.6400  148.6820 C   0  0  0  0  0  3  0  0  0  0  0  0
  161.2260  206.1670  152.2520 C   0  0  0  0  0  0  0  0  0  0  0  0
  161.5300  207.9980  149.4940 C   0  0  0  0  0  0  0  0  0  0  0  0
  161.9210  208.4170  148.2150 C   0  0  0  0  0  3  0  0  0  0  0  0
  161.5230  208.9240  150.5430 C   0  0  0  0  0  3  0  0  0  0  0  0
  161.9340  210.2410  150.3270 C   0  0  0  0  0  3  0  0  0  0  0  0
  162.3320  209.7340  148.0000 C   0  0  0  0  0  3  0  0  0  0  0  0
  162.3470  210.6570  149.0570 C   0  0  0  0  0  0  0  0  0  0  0  0
  160.6090  212.9530  147.8310 C   0  0  0  0  0  1  0  0  0  0  0  0
  162.7580  212.0210  148.8790 N   0  0  0  0  0  2  0  0  0  0  0  0
  162.0040  213.1140  148.3310 C   0  0  0  0  0  0  0  0  0  0  0  0
  162.5390  214.2500  148.2630 O   0  0  0  0  0  0  0  0  0  0  0  0
  161.6100  207.5120  152.7770 C   0  0  0  0  0  2  0  0  0  0  0  0
  160.9520  207.7950  154.0940 C   0  0  0  0  0  0  0  0  0  0  0  0
  160.8770  209.1070  154.6250 C   0  0  0  0  0  0  0  0  0  0  0  0
  159.7660  206.9470  156.0380 C   0  0  0  0  0  3  0  0  0  0  0  0
  160.3820  206.7290  154.8060 C   0  0  0  0  0  3  0  0  0  0  0  0
  159.7130  208.2340  156.5720 C   0  0  0  0  0  3  0  0  0  0  0  0
  160.2620  209.3070  155.8660 C   0  0  0  0  0  3  0  0  0  0  0  0
  162.7950  210.7030  154.4350 C   0  0  0  0  0  1  0  0  0  0  0  0
  161.4160  210.3200  153.9210 C   0  0  2  0  0  3  0  0  0  0  0  0
  160.4420  211.4860  153.9940 C   0  0  0  0  0  2  0  0  0  0  0  0
  159.5950  211.5060  152.8130 N   0  0  0  0  0  2  0  0  0  0  0  0
  158.7660  212.6970  152.9020 C   0  0  0  0  0  2  0  0  0  0  0  0
  158.9130  213.6690  151.3730 S   0  0  0  0  0  0  0  0  0  0  0  0
  157.1110  213.8040  151.1800 C   0  0  0  0  0  2  0  0  0  0  0  0
  156.7620  214.1450  149.7450 C   0  0  1  0  0  3  0  0  0  0  0  0
  157.0800  212.9570  148.8630 C   0  0  0  0  0  1  0  0  0  0  0  0
  155.4010  214.4370  149.6490 O   0  0  0  0  0  1  0  0  0  0  0  0
  1 11  1  0  0  0  0
  2  8  1  0  0  0  0
  2  6  2  0  0  0  0
  3  9  1  0  0  0  0
  4  1  2  0  0  0  0
  4  7  1  0  0  0  0
  5  1  1  0  0  0  0
  6  7  1  0  0  0  0
  7  3  2  0  0  0  0
  8  4  1  0  0  0  0
 10  8  1  0  0  0  0
 10  5  2  0  0  0  0
 11 22  1  0  0  0  0
 11  9  2  0  0  0  0
 12  5  1  0  0  0  0
 12 14  1  0  0  0  0
 13 12  2  0  0  0  0
 15 14  2  0  0  0  0
 16 13  1  0  0  0  0
 16 17  2  0  0  0  0
 17 15  1  0  0  0  0
 18 20  1  0  0  0  0
 19 17  1  0  0  0  0
 20 19  1  0  0  0  0
 21 20  2  0  0  0  0
 22 23  1  0  0  0  0
 23 24  2  0  0  0  0
 23 26  1  0  0  0  0
 24 28  1  0  0  0  0
 25 27  1  0  0  0  0
 26 25  2  0  0  0  0
 28 27  2  0  0  0  0
 30 31  1  0  0  0  0
 30 29  1  1  0  0  0
 30 24  1  0  0  0  0
 32 33  1  0  0  0  0
 32 31  1  0  0  0  0
 34 33  1  0  0  0  0
 35 34  1  0  0  0  0
 36 37  1  6  0  0  0
 36 35  1  0  0  0  0
 38 36  1  0  0  0  0
M  END
>  <MODEL>
3

>  <REMARK>
 VINA RESULT:      -7.6      1.680      2.095
  Name = 
  11 active torsions:
  status: ('A' for Active; 'I' for Inactive)
    1  A    between atoms: N_3  and  C_38
    2  A    between atoms: C_4  and  C_12
    3  A    between atoms: C_5  and  C_31
    4  A    between atoms: C_6  and  C_23
    5  A    between atoms: C_7  and  C_14
    6  A    between atoms: C_12  and  S_28
    7  A    between atoms: C_14  and  C_22
    8  A    between atoms: C_22  and  N_34
    9  A    between atoms: C_27  and  S_28
   10  A    between atoms: C_27  and  N_34
   11  A    between atoms: C_31  and  C_37
                            x       y       z     vdW  Elec       q    Type
                         _______ _______ _______ _____ _____    ______ ____

>  <TORSDO>
F 11

$$$$
=
 OpenBabel11042422443D

 38 42  0  0  1  0  0  0  0  0999 V2000
  159.7540  212.1400  154.0120 C   0  0  0  0  0  0  0  0  0  0  0  0
  157.9890  213.5710  156.4180 N   0  0  0  0  0  0  0  0  0  0  0  0
  159.4480  210.3310  156.1540 C   0  0  0  0  0  3  0  0  0  0  0  0
  159.4910  212.5390  155.2780 C   0  0  0  0  0  0  0  0  0  0  0  0
  159.1890  213.1610  153.2200 C   0  0  0  0  0  0  0  0  0  0  0  0
  158.2650  212.3900  157.0570 C   0  0  0  0  0  3  0  0  0  0  0  0
  159.2180  211.7020  156.2990 C   0  0  0  0  0  0  0  0  0  0  0  0
  158.7760  213.6220  155.3520 N   0  0  0  0  0  0  0  0  0  0  0  0
  159.9150  209.8790  154.8880 C   0  0  0  0  0  3  0  0  0  0  0  0
  158.5060  214.0370  154.0980 C   0  0  0  0  0  3  0  0  0  0  0  0
  160.0350  210.7740  153.7830 C   0  0  0  0  0  0  0  0  0  0  0  0
  159.1090  213.2370  151.7500 C   0  0  0  0  0  0  0  0  0  0  0  0
  157.9020  212.9530  151.0990 C   0  0  0  0  0  3  0  0  0  0  0  0
  160.2070  213.6680  150.9950 C   0  0  0  0  0  3  0  0  0  0  0  0
  160.1100  213.7800  149.6060 C   0  0  0  0  0  3  0  0  0  0  0  0
  157.8060  213.0640  149.7100 C   0  0  0  0  0  3  0  0  0  0  0  0
  158.9130  213.4730  148.9510 C   0  0  0  0  0  0  0  0  0  0  0  0
  160.8190  212.0730  146.9020 C   0  0  0  0  0  1  0  0  0  0  0  0
  158.8570  213.6050  147.5230 N   0  0  0  0  0  2  0  0  0  0  0  0
  159.6970  212.9840  146.5380 C   0  0  0  0  0  0  0  0  0  0  0  0
  159.4860  213.2190  145.3200 O   0  0  0  0  0  0  0  0  0  0  0  0
  160.3450  210.2310  152.4260 C   0  0  0  0  0  2  0  0  0  0  0  0
  160.8460  208.8190  152.5010 C   0  0  0  0  0  0  0  0  0  0  0  0
  161.7100  208.2800  151.5160 C   0  0  0  0  0  0  0  0  0  0  0  0
  160.8950  206.7030  153.6950 C   0  0  0  0  0  3  0  0  0  0  0  0
  160.4580  208.0240  153.5890 C   0  0  0  0  0  3  0  0  0  0  0  0
  161.7260  206.1650  152.7130 C   0  0  0  0  0  3  0  0  0  0  0  0
  162.1330  206.9510  151.6330 C   0  0  0  0  0  3  0  0  0  0  0  0
  161.9560  210.5520  150.4970 C   0  0  0  0  0  1  0  0  0  0  0  0
  162.2180  209.0630  150.3380 C   0  0  2  0  0  3  0  0  0  0  0  0
  161.6580  208.5270  149.0290 C   0  0  0  0  0  2  0  0  0  0  0  0
  162.6680  207.7520  148.3310 N   0  0  0  0  0  2  0  0  0  0  0  0
  161.9710  206.8790  147.4010 C   0  0  0  0  0  2  0  0  0  0  0  0
  160.8310  205.7920  148.3090 S   0  0  0  0  0  0  0  0  0  0  0  0
  161.5560  204.2860  147.5940 C   0  0  0  0  0  2  0  0  0  0  0  0
  161.4250  203.1300  148.5650 C   0  0  1  0  0  3  0  0  0  0  0  0
  160.8310  203.6370  149.8610 C   0  0  0  0  0  1  0  0  0  0  0  0
  160.5840  202.1570  148.0260 O   0  0  0  0  0  1  0  0  0  0  0  0
  1  4  1  0  0  0  0
  2  6  2  0  0  0  0
  3  7  1  0  0  0  0
  4  8  1  0  0  0  0
  4  7  2  0  0  0  0
  5  1  1  0  0  0  0
  5 10  2  0  0  0  0
  7  6  1  0  0  0  0
  8  2  1  0  0  0  0
  9  3  2  0  0  0  0
 10  8  1  0  0  0  0
 11  1  2  0  0  0  0
 11  9  1  0  0  0  0
 12  5  1  0  0  0  0
 13 12  1  0  0  0  0
 14 12  2  0  0  0  0
 15 14  1  0  0  0  0
 16 13  2  0  0  0  0
 17 15  2  0  0  0  0
 17 16  1  0  0  0  0
 19 17  1  0  0  0  0
 20 18  1  0  0  0  0
 20 19  1  0  0  0  0
 21 20  2  0  0  0  0
 22 23  1  0  0  0  0
 22 11  1  0  0  0  0
 23 26  1  0  0  0  0
 24 28  1  0  0  0  0
 24 23  2  0  0  0  0
 26 25  2  0  0  0  0
 27 25  1  0  0  0  0
 28 27  2  0  0  0  0
 30 29  1  1  0  0  0
 30 24  1  0  0  0  0
 31 30  1  0  0  0  0
 32 31  1  0  0  0  0
 33 34  1  0  0  0  0
 33 32  1  0  0  0  0
 35 34  1  0  0  0  0
 35 36  1  0  0  0  0
 36 37  1  1  0  0  0
 38 36  1  0  0  0  0
M  END
>  <MODEL>
4

>  <REMARK>
 VINA RESULT:      -7.1      3.335      7.389
  Name = 
  11 active torsions:
  status: ('A' for Active; 'I' for Inactive)
    1  A    between atoms: N_3  and  C_38
    2  A    between atoms: C_4  and  C_12
    3  A    between atoms: C_5  and  C_31
    4  A    between atoms: C_6  and  C_23
    5  A    between atoms: C_7  and  C_14
    6  A    between atoms: C_12  and  S_28
    7  A    between atoms: C_14  and  C_22
    8  A    between atoms: C_22  and  N_34
    9  A    between atoms: C_27  and  S_28
   10  A    between atoms: C_27  and  N_34
   11  A    between atoms: C_31  and  C_37
                            x       y       z     vdW  Elec       q    Type
                         _______ _______ _______ _____ _____    ______ ____

>  <TORSDO>
F 11

$$$$
=
 OpenBabel11042422443D

 38 42  0  0  1  0  0  0  0  0999 V2000
  157.8650  213.2180  152.5730 C   0  0  0  0  0  0  0  0  0  0  0  0
  154.7490  214.3300  152.5520 N   0  0  0  0  0  0  0  0  0  0  0  0
  156.3970  211.9340  154.6120 C   0  0  0  0  0  3  0  0  0  0  0  0
  156.7400  213.7440  153.1100 C   0  0  0  0  0  0  0  0  0  0  0  0
  157.8850  213.7450  151.2660 C   0  0  0  0  0  0  0  0  0  0  0  0
  154.6550  213.5140  153.6500 C   0  0  0  0  0  3  0  0  0  0  0  0
  155.9470  213.1060  153.9950 C   0  0  0  0  0  0  0  0  0  0  0  0
  156.0390  214.4530  152.2760 N   0  0  0  0  0  0  0  0  0  0  0  0
  157.6720  211.4390  154.2190 C   0  0  0  0  0  3  0  0  0  0  0  0
  156.6720  214.4530  151.0860 C   0  0  0  0  0  3  0  0  0  0  0  0
  158.4080  212.0520  153.1610 C   0  0  0  0  0  0  0  0  0  0  0  0
  158.8480  213.4680  150.1840 C   0  0  0  0  0  0  0  0  0  0  0  0
  158.4190  213.4560  148.8510 C   0  0  0  0  0  3  0  0  0  0  0  0
  160.2080  213.2930  150.4650 C   0  0  0  0  0  3  0  0  0  0  0  0
  161.1220  213.0740  149.4320 C   0  0  0  0  0  3  0  0  0  0  0  0
  159.3320  213.2370  147.8170 C   0  0  0  0  0  3  0  0  0  0  0  0
  160.6920  213.0380  148.1000 C   0  0  0  0  0  0  0  0  0  0  0  0
  160.5370  214.1100  145.1640 C   0  0  0  0  0  1  0  0  0  0  0  0
  161.6650  212.8140  147.0690 N   0  0  0  0  0  2  0  0  0  0  0  0
  161.6500  213.2850  145.7130 C   0  0  0  0  0  0  0  0  0  0  0  0
  162.6070  212.9870  144.9530 O   0  0  0  0  0  0  0  0  0  0  0  0
  159.6500  211.3960  152.6510 C   0  0  0  0  0  2  0  0  0  0  0  0
  160.4140  210.7340  153.7580 C   0  0  0  0  0  0  0  0  0  0  0  0
  160.8970  209.4060  153.6430 C   0  0  0  0  0  0  0  0  0  0  0  0
  161.3720  210.8810  155.9870 C   0  0  0  0  0  3  0  0  0  0  0  0
  160.6700  211.4610  154.9290 C   0  0  0  0  0  3  0  0  0  0  0  0
  161.8260  209.5670  155.8830 C   0  0  0  0  0  3  0  0  0  0  0  0
  161.5930  208.8370  154.7150 C   0  0  0  0  0  3  0  0  0  0  0  0
  160.9850  207.0910  152.6960 C   0  0  0  0  0  1  0  0  0  0  0  0
  160.7150  208.5610  152.4140 C   0  0  2  0  0  3  0  0  0  0  0  0
  161.5540  209.0760  151.2540 C   0  0  0  0  0  2  0  0  0  0  0  0
  162.0960  207.9630  150.4930 N   0  0  0  0  0  2  0  0  0  0  0  0
  161.3120  207.8550  149.2740 C   0  0  0  0  0  2  0  0  0  0  0  0
  162.3470  207.2100  147.9270 S   0  0  0  0  0  0  0  0  0  0  0  0
  161.5240  205.5890  147.9520 C   0  0  0  0  0  2  0  0  0  0  0  0
  161.2230  205.1340  146.5380 C   0  0  1  0  0  3  0  0  0  0  0  0
  160.4590  206.2250  145.8190 C   0  0  0  0  0  1  0  0  0  0  0  0
  162.4170  204.8870  145.8600 O   0  0  0  0  0  1  0  0  0  0  0  0
  1  4  2  0  0  0  0
  1 11  1  0  0  0  0
  2  6  2  0  0  0  0
  4  7  1  0  0  0  0
  5  1  1  0  0  0  0
  6  7  1  0  0  0  0
  7  3  2  0  0  0  0
  8  2  1  0  0  0  0
  8  4  1  0  0  0  0
  9  3  1  0  0  0  0
 10  5  2  0  0  0  0
 10  8  1  0  0  0  0
 11  9  2  0  0  0  0
 12 14  1  0  0  0  0
 12  5  1  0  0  0  0
 13 12  2  0  0  0  0
 15 14  2  0  0  0  0
 16 17  2  0  0  0  0
 16 13  1  0  0  0  0
 17 15  1  0  0  0  0
 18 20  1  0  0  0  0
 19 17  1  0  0  0  0
 20 19  1  0  0  0  0
 21 20  2  0  0  0  0
 22 11  1  0  0  0  0
 22 23  1  0  0  0  0
 23 26  1  0  0  0  0
 24 23  2  0  0  0  0
 24 28  1  0  0  0  0
 26 25  2  0  0  0  0
 27 25  1  0  0  0  0
 28 27  2  0  0  0  0
 30 29  1  1  0  0  0
 30 24  1  0  0  0  0
 31 30  1  0  0  0  0
 32 31  1  0  0  0  0
 33 32  1  0  0  0  0
 34 35  1  0  0  0  0
 34 33  1  0  0  0  0
 36 37  1  6  0  0  0
 36 35  1  0  0  0  0
 38 36  1  0  0  0  0
M  END
>  <MODEL>
5

>  <REMARK>
 VINA RESULT:      -7.0      3.401      7.473
  Name = 
  11 active torsions:
  status: ('A' for Active; 'I' for Inactive)
    1  A    between atoms: N_3  and  C_38
    2  A    between atoms: C_4  and  C_12
    3  A    between atoms: C_5  and  C_31
    4  A    between atoms: C_6  and  C_23
    5  A    between atoms: C_7  and  C_14
    6  A    between atoms: C_12  and  S_28
    7  A    between atoms: C_14  and  C_22
    8  A    between atoms: C_22  and  N_34
    9  A    between atoms: C_27  and  S_28
   10  A    between atoms: C_27  and  N_34
   11  A    between atoms: C_31  and  C_37
                            x       y       z     vdW  Elec       q    Type
                         _______ _______ _______ _____ _____    ______ ____

>  <TORSDO>
F 11

$$$$
=
 OpenBabel11042422443D

 38 42  0  0  1  0  0  0  0  0999 V2000
  161.7630  209.1390  150.9850 C   0  0  0  0  0  0  0  0  0  0  0  0
  161.0960  205.9080  150.7280 N   0  0  0  0  0  0  0  0  0  0  0  0
  162.0000  208.3440  148.2890 C   0  0  0  0  0  3  0  0  0  0  0  0
  161.9940  207.8580  150.6150 C   0  0  0  0  0  0  0  0  0  0  0  0
  161.0830  209.0110  152.2130 C   0  0  0  0  0  0  0  0  0  0  0  0
  161.4360  206.1390  149.4200 C   0  0  0  0  0  3  0  0  0  0  0  0
  161.9910  207.4210  149.3400 C   0  0  0  0  0  0  0  0  0  0  0  0
  161.4740  206.9770  151.4170 N   0  0  0  0  0  0  0  0  0  0  0  0
  161.9540  209.7240  148.6340 C   0  0  0  0  0  3  0  0  0  0  0  0
  160.8440  207.6300  152.4130 C   0  0  0  0  0  3  0  0  0  0  0  0
  161.7920  210.1420  149.9890 C   0  0  0  0  0  0  0  0  0  0  0  0
  160.5170  210.0780  153.0590 C   0  0  0  0  0  0  0  0  0  0  0  0
  161.2740  210.6150  154.1090 C   0  0  0  0  0  3  0  0  0  0  0  0
  159.2570  210.6200  152.7790 C   0  0  0  0  0  3  0  0  0  0  0  0
  158.7460  211.6600  153.5580 C   0  0  0  0  0  3  0  0  0  0  0  0
  160.7620  211.6550  154.8880 C   0  0  0  0  0  3  0  0  0  0  0  0
  159.4900  212.1830  154.6220 C   0  0  0  0  0  0  0  0  0  0  0  0
  157.1490  211.9280  156.6830 C   0  0  0  0  0  1  0  0  0  0  0  0
  158.9270  213.2540  155.3940 N   0  0  0  0  0  2  0  0  0  0  0  0
  157.8620  213.1950  156.3560 C   0  0  0  0  0  0  0  0  0  0  0  0
  157.5100  214.2500  156.9410 O   0  0  0  0  0  0  0  0  0  0  0  0
  161.5600  211.5860  150.2910 C   0  0  0  0  0  2  0  0  0  0  0  0
  161.7990  212.4450  149.0850 C   0  0  0  0  0  0  0  0  0  0  0  0
  160.9710  213.5540  148.7810 C   0  0  0  0  0  0  0  0  0  0  0  0
  163.1420  212.9150  147.1150 C   0  0  0  0  0  3  0  0  0  0  0  0
  162.8860  212.1460  148.2510 C   0  0  0  0  0  3  0  0  0  0  0  0
  162.3130  213.9910  146.8020 C   0  0  0  0  0  3  0  0  0  0  0  0
  161.2370  214.3100  147.6340 C   0  0  0  0  0  3  0  0  0  0  0  0
  160.0800  213.7410  151.1120 C   0  0  0  0  0  1  0  0  0  0  0  0
  159.8110  213.9820  149.6350 C   0  0  2  0  0  3  0  0  0  0  0  0
  158.5140  213.3280  149.1820 C   0  0  0  0  0  2  0  0  0  0  0  0
  157.5170  214.3430  148.8890 N   0  0  0  0  0  2  0  0  0  0  0  0
  157.4290  214.4500  147.4420 C   0  0  0  0  0  2  0  0  0  0  0  0
  157.4600  212.7930  146.6960 S   0  0  0  0  0  0  0  0  0  0  0  0
  158.2470  213.3960  145.1720 C   0  0  0  0  0  2  0  0  0  0  0  0
  159.2730  212.3940  144.6810 C   0  0  1  0  0  3  0  0  0  0  0  0
  160.2780  213.1050  143.8020 C   0  0  0  0  0  1  0  0  0  0  0  0
  159.9360  211.8290  145.7710 O   0  0  0  0  0  1  0  0  0  0  0  0
  1  5  1  0  0  0  0
  2  8  1  0  0  0  0
  3  9  2  0  0  0  0
  3  7  1  0  0  0  0
  4  1  1  0  0  0  0
  4  8  1  0  0  0  0
  5 10  2  0  0  0  0
  5 12  1  0  0  0  0
  6  2  2  0  0  0  0
  7  6  1  0  0  0  0
  7  4  2  0  0  0  0
  8 10  1  0  0  0  0
  9 11  1  0  0  0  0
 11 22  1  0  0  0  0
 11  1  2  0  0  0  0
 12 13  1  0  0  0  0
 13 16  2  0  0  0  0
 14 12  2  0  0  0  0
 14 15  1  0  0  0  0
 15 17  2  0  0  0  0
 17 16  1  0  0  0  0
 17 19  1  0  0  0  0
 19 20  1  0  0  0  0
 20 18  1  0  0  0  0
 20 21  2  0  0  0  0
 23 22  1  0  0  0  0
 24 23  1  0  0  0  0
 24 30  1  0  0  0  0
 25 26  1  0  0  0  0
 26 23  2  0  0  0  0
 27 25  2  0  0  0  0
 27 28  1  0  0  0  0
 28 24  2  0  0  0  0
 30 29  1  1  0  0  0
 31 30  1  0  0  0  0
 32 31  1  0  0  0  0
 33 32  1  0  0  0  0
 34 33  1  0  0  0  0
 35 34  1  0  0  0  0
 36 37  1  6  0  0  0
 36 35  1  0  0  0  0
 36 38  1  0  0  0  0
M  END
>  <MODEL>
6

>  <REMARK>
 VINA RESULT:      -6.7      2.693      7.239
  Name = 
  11 active torsions:
  status: ('A' for Active; 'I' for Inactive)
    1  A    between atoms: N_3  and  C_38
    2  A    between atoms: C_4  and  C_12
    3  A    between atoms: C_5  and  C_31
    4  A    between atoms: C_6  and  C_23
    5  A    between atoms: C_7  and  C_14
    6  A    between atoms: C_12  and  S_28
    7  A    between atoms: C_14  and  C_22
    8  A    between atoms: C_22  and  N_34
    9  A    between atoms: C_27  and  S_28
   10  A    between atoms: C_27  and  N_34
   11  A    between atoms: C_31  and  C_37
                            x       y       z     vdW  Elec       q    Type
                         _______ _______ _______ _____ _____    ______ ____

>  <TORSDO>
F 11

$$$$
=
 OpenBabel11042422443D

 38 42  0  0  1  0  0  0  0  0999 V2000
  158.7780  212.8500  153.1200 C   0  0  0  0  0  0  0  0  0  0  0  0
  155.8570  214.0250  154.1400 N   0  0  0  0  0  0  0  0  0  0  0  0
  157.7200  211.1420  155.1000 C   0  0  0  0  0  3  0  0  0  0  0  0
  157.8630  213.2590  154.0290 C   0  0  0  0  0  0  0  0  0  0  0  0
  158.5380  213.6870  152.0110 C   0  0  0  0  0  0  0  0  0  0  0  0
  155.9500  212.9630  155.0030 C   0  0  0  0  0  3  0  0  0  0  0  0
  157.2460  212.4440  154.9080 C   0  0  0  0  0  0  0  0  0  0  0  0
  157.0530  214.1740  153.5870 N   0  0  0  0  0  0  0  0  0  0  0  0
  158.8180  210.7240  154.2960 C   0  0  0  0  0  3  0  0  0  0  0  0
  157.3860  214.4530  152.3110 C   0  0  0  0  0  3  0  0  0  0  0  0
  159.3370  211.5600  153.2630 C   0  0  0  0  0  0  0  0  0  0  0  0
  159.1910  213.6610  150.6900 C   0  0  0  0  0  0  0  0  0  0  0  0
  158.5100  213.1400  149.5810 C   0  0  0  0  0  3  0  0  0  0  0  0
  160.4610  214.2230  150.5080 C   0  0  0  0  0  3  0  0  0  0  0  0
  161.0560  214.2330  149.2450 C   0  0  0  0  0  3  0  0  0  0  0  0
  159.1060  213.1510  148.3180 C   0  0  0  0  0  3  0  0  0  0  0  0
  160.3870  213.6930  148.1400 C   0  0  0  0  0  0  0  0  0  0  0  0
  163.2230  212.5450  147.4840 C   0  0  0  0  0  1  0  0  0  0  0  0
  161.0340  213.7280  146.8590 N   0  0  0  0  0  2  0  0  0  0  0  0
  162.3260  213.2130  146.5000 C   0  0  0  0  0  0  0  0  0  0  0  0
  162.7210  213.3340  145.3120 O   0  0  0  0  0  0  0  0  0  0  0  0
  160.3600  211.0150  152.3200 C   0  0  0  0  0  2  0  0  0  0  0  0
  160.7920  209.6350  152.7160 C   0  0  0  0  0  0  0  0  0  0  0  0
  161.5420  208.8070  151.8440 C   0  0  0  0  0  0  0  0  0  0  0  0
  160.8300  207.8830  154.4000 C   0  0  0  0  0  3  0  0  0  0  0  0
  160.4550  209.1640  153.9930 C   0  0  0  0  0  3  0  0  0  0  0  0
  161.5480  207.0600  153.5330 C   0  0  0  0  0  3  0  0  0  0  0  0
  161.9050  207.5230  152.2640 C   0  0  0  0  0  3  0  0  0  0  0  0
  161.6990  210.7060  150.2210 C   0  0  0  0  0  1  0  0  0  0  0  0
  161.9910  209.2360  150.4750 C   0  0  2  0  0  3  0  0  0  0  0  0
  161.3980  208.3470  149.3910 C   0  0  0  0  0  2  0  0  0  0  0  0
  162.4570  207.7710  148.5800 N   0  0  0  0  0  2  0  0  0  0  0  0
  161.9140  206.5780  147.9520 C   0  0  0  0  0  2  0  0  0  0  0  0
  160.6750  205.8150  149.0410 S   0  0  0  0  0  0  0  0  0  0  0  0
  161.2040  204.1300  148.6100 C   0  0  0  0  0  2  0  0  0  0  0  0
  161.0890  203.2210  149.8170 C   0  0  1  0  0  3  0  0  0  0  0  0
  160.6690  204.0420  151.0170 C   0  0  0  0  0  1  0  0  0  0  0  0
  160.1280  202.2390  149.5750 O   0  0  0  0  0  1  0  0  0  0  0  0
  1 11  2  0  0  0  0
  1  4  1  0  0  0  0
  2  6  2  0  0  0  0
  4  7  2  0  0  0  0
  5 10  2  0  0  0  0
  5  1  1  0  0  0  0
  7  6  1  0  0  0  0
  7  3  1  0  0  0  0
  8  4  1  0  0  0  0
  8  2  1  0  0  0  0
  9  3  2  0  0  0  0
 10  8  1  0  0  0  0
 11  9  1  0  0  0  0
 12  5  1  0  0  0  0
 13 12  2  0  0  0  0
 14 12  1  0  0  0  0
 15 14  2  0  0  0  0
 16 13  1  0  0  0  0
 17 16  2  0  0  0  0
 17 15  1  0  0  0  0
 19 17  1  0  0  0  0
 20 19  1  0  0  0  0
 20 18  1  0  0  0  0
 21 20  2  0  0  0  0
 22 23  1  0  0  0  0
 22 11  1  0  0  0  0
 23 26  1  0  0  0  0
 24 28  1  0  0  0  0
 24 23  2  0  0  0  0
 26 25  2  0  0  0  0
 27 25  1  0  0  0  0
 28 27  2  0  0  0  0
 30 29  1  6  0  0  0
 30 24  1  0  0  0  0
 31 30  1  0  0  0  0
 32 31  1  0  0  0  0
 33 32  1  0  0  0  0
 33 34  1  0  0  0  0
 35 34  1  0  0  0  0
 35 36  1  0  0  0  0
 36 37  1  1  0  0  0
 38 36  1  0  0  0  0
M  END
>  <MODEL>
7

>  <REMARK>
 VINA RESULT:      -6.6      3.083      7.249
  Name = 
  11 active torsions:
  status: ('A' for Active; 'I' for Inactive)
    1  A    between atoms: N_3  and  C_38
    2  A    between atoms: C_4  and  C_12
    3  A    between atoms: C_5  and  C_31
    4  A    between atoms: C_6  and  C_23
    5  A    between atoms: C_7  and  C_14
    6  A    between atoms: C_12  and  S_28
    7  A    between atoms: C_14  and  C_22
    8  A    between atoms: C_22  and  N_34
    9  A    between atoms: C_27  and  S_28
   10  A    between atoms: C_27  and  N_34
   11  A    between atoms: C_31  and  C_37
                            x       y       z     vdW  Elec       q    Type
                         _______ _______ _______ _____ _____    ______ ____

>  <TORSDO>
F 11

$$$$
=
 OpenBabel11042422443D

 38 42  0  0  1  0  0  0  0  0999 V2000
  161.5520  210.8780  150.6180 C   0  0  0  0  0  0  0  0  0  0  0  0
  161.7680  212.3860  147.6800 N   0  0  0  0  0  0  0  0  0  0  0  0
  160.1180  213.3060  150.7020 C   0  0  0  0  0  3  0  0  0  0  0  0
  161.8010  211.9070  149.7760 C   0  0  0  0  0  0  0  0  0  0  0  0
  161.9370  209.7430  149.8760 C   0  0  0  0  0  0  0  0  0  0  0  0
  161.0650  213.3580  148.3450 C   0  0  0  0  0  3  0  0  0  0  0  0
  161.0590  213.0310  149.7050 C   0  0  0  0  0  0  0  0  0  0  0  0
  162.2100  211.5380  148.5990 N   0  0  0  0  0  0  0  0  0  0  0  0
  159.9530  212.3340  151.7290 C   0  0  0  0  0  3  0  0  0  0  0  0
  162.2680  210.1910  148.5740 C   0  0  0  0  0  3  0  0  0  0  0  0
  160.6390  211.0840  151.6790 C   0  0  0  0  0  0  0  0  0  0  0  0
  161.8310  208.3230  150.2580 C   0  0  0  0  0  0  0  0  0  0  0  0
  162.3160  207.8940  151.5000 C   0  0  0  0  0  3  0  0  0  0  0  0
  161.1780  207.4050  149.4260 C   0  0  0  0  0  3  0  0  0  0  0  0
  161.0430  206.0710  149.8140 C   0  0  0  0  0  3  0  0  0  0  0  0
  162.1800  206.5590  151.8880 C   0  0  0  0  0  3  0  0  0  0  0  0
  161.5470  205.6340  151.0440 C   0  0  0  0  0  0  0  0  0  0  0  0
  160.7890  203.3050  149.0950 C   0  0  0  0  0  1  0  0  0  0  0  0
  161.3830  204.2540  151.4040 N   0  0  0  0  0  2  0  0  0  0  0  0
  161.0450  203.1460  150.5550 C   0  0  0  0  0  0  0  0  0  0  0  0
  160.9530  201.9980  151.0590 O   0  0  0  0  0  0  0  0  0  0  0  0
  160.3000  210.0170  152.6690 C   0  0  0  0  0  2  0  0  0  0  0  0
  160.8130  210.3560  154.0370 C   0  0  0  0  0  0  0  0  0  0  0  0
  159.9360  210.6210  155.1180 C   0  0  0  0  0  0  0  0  0  0  0  0
  162.7190  210.7080  155.5020 C   0  0  0  0  0  3  0  0  0  0  0  0
  162.1990  210.3910  154.2470 C   0  0  0  0  0  3  0  0  0  0  0  0
  161.8570  210.9920  156.5610 C   0  0  0  0  0  3  0  0  0  0  0  0
  160.4740  210.9440  156.3690 C   0  0  0  0  0  3  0  0  0  0  0  0
  157.9130  211.5480  153.9740 C   0  0  0  0  0  1  0  0  0  0  0  0
  158.4390  210.5640  155.0070 C   0  0  2  0  0  3  0  0  0  0  0  0
  157.7710  210.7550  156.3600 C   0  0  0  0  0  2  0  0  0  0  0  0
  156.8040  211.8370  156.2940 N   0  0  0  0  0  2  0  0  0  0  0  0
  157.4290  213.0060  156.8930 C   0  0  0  0  0  2  0  0  0  0  0  0
  156.3460  214.4530  156.7000 S   0  0  0  0  0  0  0  0  0  0  0  0
  155.2890  213.6110  155.4850 C   0  0  0  0  0  2  0  0  0  0  0  0
  155.2770  214.3800  154.1790 C   0  0  1  0  0  3  0  0  0  0  0  0
  156.6870  214.4500  153.6340 C   0  0  0  0  0  1  0  0  0  0  0  0
  154.4610  213.7260  153.2560 O   0  0  0  0  0  1  0  0  0  0  0  0
  1 11  1  0  0  0  0
  2  6  2  0  0  0  0
  2  8  1  0  0  0  0
  3  9  1  0  0  0  0
  4  1  2  0  0  0  0
  5 12  1  0  0  0  0
  5  1  1  0  0  0  0
  6  7  1  0  0  0  0
  7  4  1  0  0  0  0
  7  3  2  0  0  0  0
  8  4  1  0  0  0  0
 10  8  1  0  0  0  0
 10  5  2  0  0  0  0
 11  9  2  0  0  0  0
 11 22  1  0  0  0  0
 12 13  1  0  0  0  0
 13 16  2  0  0  0  0
 14 15  1  0  0  0  0
 14 12  2  0  0  0  0
 15 17  2  0  0  0  0
 17 19  1  0  0  0  0
 17 16  1  0  0  0  0
 18 20  1  0  0  0  0
 20 21  2  0  0  0  0
 20 19  1  0  0  0  0
 22 23  1  0  0  0  0
 23 26  2  0  0  0  0
 23 24  1  0  0  0  0
 24 28  2  0  0  0  0
 25 27  2  0  0  0  0
 26 25  1  0  0  0  0
 28 27  1  0  0  0  0
 30 29  1  6  0  0  0
 30 24  1  0  0  0  0
 30 31  1  0  0  0  0
 32 31  1  0  0  0  0
 32 33  1  0  0  0  0
 34 33  1  0  0  0  0
 35 34  1  0  0  0  0
 36 37  1  6  0  0  0
 36 35  1  0  0  0  0
 38 36  1  0  0  0  0
M  END
>  <MODEL>
8

>  <REMARK>
 VINA RESULT:      -6.6      2.621      6.057
  Name = 
  11 active torsions:
  status: ('A' for Active; 'I' for Inactive)
    1  A    between atoms: N_3  and  C_38
    2  A    between atoms: C_4  and  C_12
    3  A    between atoms: C_5  and  C_31
    4  A    between atoms: C_6  and  C_23
    5  A    between atoms: C_7  and  C_14
    6  A    between atoms: C_12  and  S_28
    7  A    between atoms: C_14  and  C_22
    8  A    between atoms: C_22  and  N_34
    9  A    between atoms: C_27  and  S_28
   10  A    between atoms: C_27  and  N_34
   11  A    between atoms: C_31  and  C_37
                            x       y       z     vdW  Elec       q    Type
                         _______ _______ _______ _____ _____    ______ ____

>  <TORSDO>
F 11

$$$$
=
 OpenBabel11042422443D

 38 42  0  0  1  0  0  0  0  0999 V2000
  161.4410  211.1450  150.5690 C   0  0  0  0  0  0  0  0  0  0  0  0
  161.3210  212.6030  147.6010 N   0  0  0  0  0  0  0  0  0  0  0  0
  159.9290  213.5200  150.7510 C   0  0  0  0  0  3  0  0  0  0  0  0
  161.5700  212.1660  149.6910 C   0  0  0  0  0  0  0  0  0  0  0  0
  161.7980  210.0110  149.8120 C   0  0  0  0  0  0  0  0  0  0  0  0
  160.6470  213.5620  148.3140 C   0  0  0  0  0  3  0  0  0  0  0  0
  160.7820  213.2600  149.6730 C   0  0  0  0  0  0  0  0  0  0  0  0
  161.8800  211.7900  148.4860 N   0  0  0  0  0  0  0  0  0  0  0  0
  159.9000  212.5630  151.8030 C   0  0  0  0  0  3  0  0  0  0  0  0
  161.9880  210.4460  148.4770 C   0  0  0  0  0  3  0  0  0  0  0  0
  160.6260  211.3380  151.7080 C   0  0  0  0  0  0  0  0  0  0  0  0
  161.7830  208.5960  150.2240 C   0  0  0  0  0  0  0  0  0  0  0  0
  162.1620  208.2420  151.5260 C   0  0  0  0  0  3  0  0  0  0  0  0
  161.3190  207.6020  149.3550 C   0  0  0  0  0  3  0  0  0  0  0  0
  161.2670  206.2690  149.7670 C   0  0  0  0  0  3  0  0  0  0  0  0
  162.1100  206.9080  151.9380 C   0  0  0  0  0  3  0  0  0  0  0  0
  161.6670  205.9090  151.0590 C   0  0  0  0  0  0  0  0  0  0  0  0
  160.8380  203.5300  149.2020 C   0  0  0  0  0  1  0  0  0  0  0  0
  161.5930  204.5280  151.4420 N   0  0  0  0  0  2  0  0  0  0  0  0
  161.2280  203.3980  150.6340 C   0  0  0  0  0  0  0  0  0  0  0  0
  161.2300  202.2520  151.1530 O   0  0  0  0  0  0  0  0  0  0  0  0
  160.4230  210.2790  152.7430 C   0  0  0  0  0  2  0  0  0  0  0  0
  159.4740  210.7310  153.8120 C   0  0  0  0  0  0  0  0  0  0  0  0
  159.7600  210.5550  155.1880 C   0  0  0  0  0  0  0  0  0  0  0  0
  157.3660  211.7910  154.3920 C   0  0  0  0  0  3  0  0  0  0  0  0
  158.2800  211.3600  153.4300 C   0  0  0  0  0  3  0  0  0  0  0  0
  157.6360  211.5970  155.7460 C   0  0  0  0  0  3  0  0  0  0  0  0
  158.8290  210.9870  156.1400 C   0  0  0  0  0  3  0  0  0  0  0  0
  160.9970  208.4180  155.5950 C   0  0  0  0  0  1  0  0  0  0  0  0
  161.0300  209.9350  155.6990 C   0  0  2  0  0  3  0  0  0  0  0  0
  161.3460  210.3970  157.1140 C   0  0  0  0  0  2  0  0  0  0  0  0
  162.2500  211.5340  157.0790 N   0  0  0  0  0  2  0  0  0  0  0  0
  163.4780  211.0850  156.4430 C   0  0  0  0  0  2  0  0  0  0  0  0
  164.9110  211.8690  157.2410 S   0  0  0  0  0  0  0  0  0  0  0  0
  165.7150  212.2240  155.6490 C   0  0  0  0  0  2  0  0  0  0  0  0
  166.9670  213.0490  155.8680 C   0  0  1  0  0  3  0  0  0  0  0  0
  168.1680  212.2600  155.3940 C   0  0  0  0  0  1  0  0  0  0  0  0
  166.8810  214.2360  155.1400 O   0  0  0  0  0  1  0  0  0  0  0  0
  1 11  1  0  0  0  0
  2  6  2  0  0  0  0
  2  8  1  0  0  0  0
  3  9  1  0  0  0  0
  4  1  2  0  0  0  0
  5 12  1  0  0  0  0
  5  1  1  0  0  0  0
  6  7  1  0  0  0  0
  7  4  1  0  0  0  0
  7  3  2  0  0  0  0
  8  4  1  0  0  0  0
 10  8  1  0  0  0  0
 10  5  2  0  0  0  0
 11  9  2  0  0  0  0
 11 22  1  0  0  0  0
 12 13  1  0  0  0  0
 13 16  2  0  0  0  0
 14 15  1  0  0  0  0
 14 12  2  0  0  0  0
 15 17  2  0  0  0  0
 17 19  1  0  0  0  0
 17 16  1  0  0  0  0
 18 20  1  0  0  0  0
 20 21  2  0  0  0  0
 20 19  1  0  0  0  0
 22 23  1  0  0  0  0
 23 24  1  0  0  0  0
 24 30  1  0  0  0  0
 24 28  2  0  0  0  0
 25 27  2  0  0  0  0
 26 23  2  0  0  0  0
 26 25  1  0  0  0  0
 27 28  1  0  0  0  0
 30 29  1  1  0  0  0
 30 31  1  0  0  0  0
 32 31  1  0  0  0  0
 33 32  1  0  0  0  0
 33 34  1  0  0  0  0
 35 36  1  0  0  0  0
 35 34  1  0  0  0  0
 36 37  1  6  0  0  0
 38 36  1  0  0  0  0
M  END
>  <MODEL>
9

>  <REMARK>
 VINA RESULT:      -6.4      3.238      7.020
  Name = 
  11 active torsions:
  status: ('A' for Active; 'I' for Inactive)
    1  A    between atoms: N_3  and  C_38
    2  A    between atoms: C_4  and  C_12
    3  A    between atoms: C_5  and  C_31
    4  A    between atoms: C_6  and  C_23
    5  A    between atoms: C_7  and  C_14
    6  A    between atoms: C_12  and  S_28
    7  A    between atoms: C_14  and  C_22
    8  A    between atoms: C_22  and  N_34
    9  A    between atoms: C_27  and  S_28
   10  A    between atoms: C_27  and  N_34
   11  A    between atoms: C_31  and  C_37
                            x       y       z     vdW  Elec       q    Type
                         _______ _______ _______ _____ _____    ______ ____

>  <TORSDO>
F 11

$$$$
