=
 OpenBabel11052410003D

 39 45  0  0  1  0  0  0  0  0999 V2000
  160.5850  211.7560  154.3200 C   0  0  1  0  0  3  0  0  0  0  0  0
  161.5070  210.6410  154.0590 N   0  0  0  0  0  0  0  0  0  0  0  0
  159.5880  211.7360  153.1930 C   0  0  2  0  0  0  0  0  0  0  0  0
  159.4440  213.0740  152.4800 C   0  0  2  0  0  3  0  0  0  0  0  0
  158.2730  212.4800  153.2580 C   0  0  0  0  0  2  0  0  0  0  0  0
  161.4530  209.7460  155.2210 C   0  0  0  0  0  3  0  0  0  0  0  0
  161.0090  209.8700  152.9050 C   0  0  1  0  0  3  0  0  0  0  0  0
  159.9500  211.4990  155.5970 N   0  0  0  0  0  0  0  0  0  0  0  0
  160.4240  210.2780  156.1960 C   0  0  0  0  0  3  0  0  0  0  0  0
  159.7450  210.5100  152.3520 C   0  0  0  0  0  2  0  0  0  0  0  0
  156.5630  211.5710  156.3700 C   0  0  0  0  0  2  0  0  0  0  0  0
  157.8720  212.3420  156.4920 C   0  0  0  0  0  0  0  0  0  0  0  0
  156.5350  212.8310  157.0380 C   0  0  0  0  0  2  0  0  0  0  0  0
  159.1750  212.4880  156.2850 C   0  0  0  0  0  3  0  0  0  0  0  0
  159.2030  212.9080  151.0530 N   0  0  0  0  0  2  0  0  0  0  0  0
  159.6440  213.4390  148.6870 N   0  0  0  0  0  2  0  0  0  0  0  0
  159.9410  213.6340  150.0700 C   0  0  0  0  0  0  0  0  0  0  0  0
  160.8450  214.4420  150.4210 O   0  0  0  0  0  0  0  0  0  0  0  0
  160.3200  214.1720  147.6250 C   0  0  0  0  0  2  0  0  0  0  0  0
  161.9950  213.8980  145.8600 C   0  0  2  0  0  3  0  0  0  0  0  0
  162.3230  213.0720  146.9500 O   0  0  0  0  0  0  0  0  0  0  0  0
  160.9570  213.2020  146.6480 C   0  0  1  0  0  3  0  0  0  0  0  0
  162.5640  214.0970  143.4860 C   0  0  0  0  0  2  0  0  0  0  0  0
  162.2510  213.1430  144.5720 C   0  0  1  0  0  3  0  0  0  0  0  0
  163.5730  213.3850  144.1580 O   0  0  0  0  0  0  0  0  0  0  0  0
  162.0690  209.8180  151.8140 C   0  0  0  0  0  2  0  0  0  0  0  0
  162.2900  208.3900  151.3320 C   0  0  0  0  0  2  0  0  0  0  0  0
  161.9890  208.6500  148.8720 C   0  0  0  0  0  1  0  0  0  0  0  0
  161.3990  208.0670  150.1420 C   0  0  1  0  0  3  0  0  0  0  0  0
  161.2840  206.6140  150.0030 C   0  0  0  0  0  0  0  0  0  0  0  0
  161.1910  205.4180  149.8800 C   0  0  0  0  0  0  0  0  0  0  0  0
  161.0390  203.1690  150.8530 C   0  0  0  0  0  3  0  0  0  0  0  0
  160.9310  201.7830  150.6990 C   0  0  0  0  0  3  0  0  0  0  0  0
  161.0800  203.9960  149.7260 C   0  0  0  0  0  0  0  0  0  0  0  0
  160.9060  202.0520  148.2910 C   0  0  0  0  0  0  0  0  0  0  0  0
  161.0140  203.4370  148.4460 C   0  0  0  0  0  3  0  0  0  0  0  0
  160.8650  201.2240  149.4190 C   0  0  0  0  0  3  0  0  0  0  0  0
  160.7840  201.0190  145.9170 N   0  0  0  0  0  0  0  0  0  0  0  0
  160.8390  201.4790  146.9770 C   0  0  0  0  0  0  0  0  0  0  0  0
  1  2  1  6  0  0  0
  1  8  1  0  0  0  0
  2  6  1  0  0  0  0
  3 10  1  6  0  0  0
  3  5  1  0  0  0  0
  3  1  1  0  0  0  0
  4 15  1  6  0  0  0
  4  3  1  0  0  0  0
  4  5  1  0  0  0  0
  6  9  2  0  0  0  0
  7 26  1  6  0  0  0
  7  2  1  0  0  0  0
  8  9  1  0  0  0  0
  8 14  1  0  0  0  0
 10  7  1  0  0  0  0
 11 12  1  0  0  0  0
 11 13  1  0  0  0  0
 12 13  1  0  0  0  0
 14 12  2  0  0  0  0
 16 17  1  0  0  0  0
 17 18  2  0  0  0  0
 17 15  1  0  0  0  0
 19 16  1  0  0  0  0
 20 22  1  0  0  0  0
 20 21  1  1  0  0  0
 22 21  1  0  0  0  0
 22 19  1  1  0  0  0
 23 25  1  0  0  0  0
 24 23  1  6  0  0  0
 24 20  1  0  0  0  0
 25 24  1  0  0  0  0
 27 26  1  0  0  0  0
 29 28  1  6  0  0  0
 29 27  1  0  0  0  0
 30 29  1  0  0  0  0
 31 30  3  0  0  0  0
 33 32  1  0  0  0  0
 34 31  1  0  0  0  0
 34 32  2  0  0  0  0
 35 36  2  0  0  0  0
 35 37  1  0  0  0  0
 36 34  1  0  0  0  0
 37 33  2  0  0  0  0
 38 39  3  0  0  0  0
 39 35  1  0  0  0  0
M  END
>  <MODEL>
1

>  <REMARK>
 VINA RESULT:      -8.2      0.000      0.000
  Name = 
  11 active torsions:
  status: ('A' for Active; 'I' for Inactive)
    1  A    between atoms: C_1  and  C_23
    2  A    between atoms: C_9  and  C_18
    3  A    between atoms: C_11  and  N_12
    4  A    between atoms: C_13  and  C_14
    5  A    between atoms: C_13  and  C_23
    6  A    between atoms: C_14  and  C_30
    7  A    between atoms: N_15  and  C_32
    8  A    between atoms: C_16  and  C_31
    9  A    between atoms: C_19  and  C_28
   10  A    between atoms: C_32  and  C_35
   11  A    between atoms: N_33  and  C_38
                            x       y       z     vdW  Elec       q    Type
                         _______ _______ _______ _____ _____    ______ ____

>  <TORSDO>
F 11

$$$$
=
 OpenBabel11052410003D

 39 45  0  0  1  0  0  0  0  0999 V2000
  161.9270  204.7730  148.2860 C   0  0  1  0  0  3  0  0  0  0  0  0
  162.0080  206.2060  147.9670 N   0  0  0  0  0  0  0  0  0  0  0  0
  160.9110  204.6560  149.3900 C   0  0  2  0  0  0  0  0  0  0  0  0
  161.4170  203.8940  150.6080 C   0  0  2  0  0  3  0  0  0  0  0  0
  160.2690  203.3390  149.7680 C   0  0  0  0  0  2  0  0  0  0  0  0
  161.6660  206.3600  146.5490 C   0  0  0  0  0  3  0  0  0  0  0  0
  160.9740  206.9250  148.7330 C   0  0  1  0  0  3  0  0  0  0  0  0
  161.4890  204.0900  147.0860 N   0  0  0  0  0  0  0  0  0  0  0  0
  161.2970  205.0030  145.9870 C   0  0  0  0  0  3  0  0  0  0  0  0
  160.2090  205.9550  149.6210 C   0  0  0  0  0  2  0  0  0  0  0  0
  159.8000  201.9830  144.9000 C   0  0  0  0  0  2  0  0  0  0  0  0
  160.8050  202.0210  146.0450 C   0  0  0  0  0  0  0  0  0  0  0  0
  160.3390  200.7430  145.3560 C   0  0  0  0  0  2  0  0  0  0  0  0
  161.5310  202.6650  146.9510 C   0  0  0  0  0  3  0  0  0  0  0  0
  160.8810  204.4350  151.8510 N   0  0  0  0  0  2  0  0  0  0  0  0
  161.0180  205.8800  153.8420 N   0  0  0  0  0  2  0  0  0  0  0  0
  161.5900  205.4030  152.6240 C   0  0  0  0  0  0  0  0  0  0  0  0
  162.7130  205.8290  152.2360 O   0  0  0  0  0  0  0  0  0  0  0  0
  161.6960  206.8330  154.7100 C   0  0  0  0  0  2  0  0  0  0  0  0
  160.9590  208.8850  155.8250 C   0  0  2  0  0  3  0  0  0  0  0  0
  159.9140  208.3840  155.0270 O   0  0  0  0  0  0  0  0  0  0  0  0
  160.7090  207.4350  155.6930 C   0  0  1  0  0  3  0  0  0  0  0  0
  160.6150  210.8400  157.2600 C   0  0  0  0  0  2  0  0  0  0  0  0
  160.3850  209.3850  157.1350 C   0  0  1  0  0  3  0  0  0  0  0  0
  159.3710  210.3210  156.8600 O   0  0  0  0  0  0  0  0  0  0  0  0
  161.6160  208.0020  149.5970 C   0  0  0  0  0  2  0  0  0  0  0  0
  160.8920  208.1420  150.9280 C   0  0  0  0  0  2  0  0  0  0  0  0
  162.5420  210.0090  150.9770 C   0  0  0  0  0  1  0  0  0  0  0  0
  161.5180  209.2330  151.7840 C   0  0  1  0  0  3  0  0  0  0  0  0
  160.4730  210.1440  152.2510 C   0  0  0  0  0  0  0  0  0  0  0  0
  159.6040  210.8900  152.6310 C   0  0  0  0  0  0  0  0  0  0  0  0
  158.2690  212.9310  152.3470 C   0  0  0  0  0  3  0  0  0  0  0  0
  157.2580  213.7930  152.7850 C   0  0  0  0  0  3  0  0  0  0  0  0
  158.5680  211.7760  153.0770 C   0  0  0  0  0  0  0  0  0  0  0  0
  156.8470  212.3460  154.6840 C   0  0  0  0  0  0  0  0  0  0  0  0
  157.8570  211.4850  154.2450 C   0  0  0  0  0  3  0  0  0  0  0  0
  156.5480  213.5020  153.9540 C   0  0  0  0  0  3  0  0  0  0  0  0
  155.5330  211.8040  156.8520 N   0  0  0  0  0  0  0  0  0  0  0  0
  156.1190  212.0460  155.8840 C   0  0  0  0  0  0  0  0  0  0  0  0
  1  8  1  6  0  0  0
  1  3  1  0  0  0  0
  2  1  1  0  0  0  0
  2  7  1  0  0  0  0
  3 10  1  1  0  0  0
  3  5  1  0  0  0  0
  3  4  1  0  0  0  0
  4 15  1  1  0  0  0
  5  4  1  0  0  0  0
  6  2  1  0  0  0  0
  7 26  1  1  0  0  0
  7 10  1  0  0  0  0
  9  6  2  0  0  0  0
  9  8  1  0  0  0  0
 11 13  1  0  0  0  0
 11 12  1  0  0  0  0
 12 14  2  0  0  0  0
 13 12  1  0  0  0  0
 14  8  1  0  0  0  0
 15 17  1  0  0  0  0
 16 19  1  0  0  0  0
 17 16  1  0  0  0  0
 18 17  2  0  0  0  0
 20 21  1  6  0  0  0
 20 24  1  0  0  0  0
 21 22  1  0  0  0  0
 22 19  1  6  0  0  0
 22 20  1  0  0  0  0
 24 23  1  1  0  0  0
 25 24  1  0  0  0  0
 25 23  1  0  0  0  0
 26 27  1  0  0  0  0
 27 29  1  0  0  0  0
 29 28  1  6  0  0  0
 29 30  1  0  0  0  0
 30 31  3  0  0  0  0
 31 34  1  0  0  0  0
 32 33  2  0  0  0  0
 32 34  1  0  0  0  0
 33 37  1  0  0  0  0
 34 36  2  0  0  0  0
 35 39  1  0  0  0  0
 36 35  1  0  0  0  0
 37 35  2  0  0  0  0
 39 38  3  0  0  0  0
M  END
>  <MODEL>
2

>  <REMARK>
 VINA RESULT:      -7.6      4.237     10.669
  Name = 
  11 active torsions:
  status: ('A' for Active; 'I' for Inactive)
    1  A    between atoms: C_1  and  C_23
    2  A    between atoms: C_9  and  C_18
    3  A    between atoms: C_11  and  N_12
    4  A    between atoms: C_13  and  C_14
    5  A    between atoms: C_13  and  C_23
    6  A    between atoms: C_14  and  C_30
    7  A    between atoms: N_15  and  C_32
    8  A    between atoms: C_16  and  C_31
    9  A    between atoms: C_19  and  C_28
   10  A    between atoms: C_32  and  C_35
   11  A    between atoms: N_33  and  C_38
                            x       y       z     vdW  Elec       q    Type
                         _______ _______ _______ _____ _____    ______ ____

>  <TORSDO>
F 11

$$$$
=
 OpenBabel11052410003D

 39 45  0  0  1  0  0  0  0  0999 V2000
  160.9210  205.9560  150.1460 C   0  0  1  0  0  3  0  0  0  0  0  0
  160.7950  205.8800  151.6090 N   0  0  0  0  0  0  0  0  0  0  0  0
  161.9890  206.9840  149.8810 C   0  0  2  0  0  0  0  0  0  0  0  0
  161.5550  208.0800  148.9170 C   0  0  2  0  0  3  0  0  0  0  0  0
  162.6760  207.1140  148.5390 C   0  0  0  0  0  2  0  0  0  0  0  0
  161.0690  204.4930  152.0010 C   0  0  0  0  0  3  0  0  0  0  0  0
  161.8470  206.7110  152.2230 C   0  0  1  0  0  3  0  0  0  0  0  0
  161.3190  204.6440  149.6800 N   0  0  0  0  0  0  0  0  0  0  0  0
  161.4420  203.7030  150.7650 C   0  0  0  0  0  3  0  0  0  0  0  0
  162.6730  207.3950  151.1450 C   0  0  0  0  0  2  0  0  0  0  0  0
  160.8920  201.5440  148.1700 C   0  0  0  0  0  2  0  0  0  0  0  0
  161.1230  203.0250  147.8990 C   0  0  0  0  0  0  0  0  0  0  0  0
  160.9940  201.9640  146.8110 C   0  0  0  0  0  2  0  0  0  0  0  0
  161.3020  204.2800  148.2950 C   0  0  0  0  0  3  0  0  0  0  0  0
  162.1350  209.3720  149.2640 N   0  0  0  0  0  2  0  0  0  0  0  0
  162.3770  211.8070  148.9700 N   0  0  0  0  0  2  0  0  0  0  0  0
  161.7590  210.5750  148.5950 C   0  0  0  0  0  0  0  0  0  0  0  0
  160.8910  210.5500  147.6790 O   0  0  0  0  0  0  0  0  0  0  0  0
  162.0820  213.0700  148.3080 C   0  0  0  0  0  2  0  0  0  0  0  0
  161.8340  213.5570  145.9220 C   0  0  2  0  0  3  0  0  0  0  0  0
  162.7590  214.4520  146.4900 O   0  0  0  0  0  0  0  0  0  0  0  0
  162.7870  213.1310  146.9660 C   0  0  1  0  0  3  0  0  0  0  0  0
  161.2130  213.0720  143.6030 C   0  0  0  0  0  2  0  0  0  0  0  0
  162.3380  213.1220  144.5610 C   0  0  1  0  0  3  0  0  0  0  0  0
  162.1050  214.1570  143.6370 O   0  0  0  0  0  0  0  0  0  0  0  0
  161.2220  207.7640  153.1270 C   0  0  0  0  0  2  0  0  0  0  0  0
  160.5910  207.1270  154.3580 C   0  0  0  0  0  2  0  0  0  0  0  0
  161.7800  208.2730  156.2240 C   0  0  0  0  0  1  0  0  0  0  0  0
  160.4590  208.1320  155.4920 C   0  0  1  0  0  3  0  0  0  0  0  0
  160.0640  209.4310  154.9450 C   0  0  0  0  0  0  0  0  0  0  0  0
  159.7420  210.5060  154.5020 C   0  0  0  0  0  0  0  0  0  0  0  0
  159.0340  212.8300  154.8550 C   0  0  0  0  0  3  0  0  0  0  0  0
  158.6570  214.0770  154.3450 C   0  0  0  0  0  3  0  0  0  0  0  0
  159.3560  211.7860  153.9820 C   0  0  0  0  0  0  0  0  0  0  0  0
  158.9240  213.2350  152.0890 C   0  0  0  0  0  0  0  0  0  0  0  0
  159.3000  211.9890  152.6000 C   0  0  0  0  0  3  0  0  0  0  0  0
  158.6010  214.2790  152.9620 C   0  0  0  0  0  3  0  0  0  0  0  0
  158.8190  213.6060  149.5260 N   0  0  0  0  0  0  0  0  0  0  0  0
  158.8660  213.4410  150.6700 C   0  0  0  0  0  0  0  0  0  0  0  0
  1  8  1  1  0  0  0
  1  2  1  0  0  0  0
  2  6  1  0  0  0  0
  2  7  1  0  0  0  0
  3  5  1  6  0  0  0
  3  1  1  0  0  0  0
  3 10  1  0  0  0  0
  4 15  1  1  0  0  0
  4  3  1  0  0  0  0
  5  4  1  0  0  0  0
  7 26  1  1  0  0  0
  8  9  1  0  0  0  0
  9  6  2  0  0  0  0
 10  7  1  0  0  0  0
 12 11  1  0  0  0  0
 12 14  2  0  0  0  0
 13 12  1  0  0  0  0
 13 11  1  0  0  0  0
 14  8  1  0  0  0  0
 17 16  1  0  0  0  0
 17 15  1  0  0  0  0
 18 17  2  0  0  0  0
 19 16  1  0  0  0  0
 20 21  1  6  0  0  0
 20 22  1  0  0  0  0
 21 22  1  0  0  0  0
 22 19  1  1  0  0  0
 23 25  1  0  0  0  0
 24 23  1  6  0  0  0
 24 20  1  0  0  0  0
 25 24  1  0  0  0  0
 26 27  1  0  0  0  0
 27 29  1  0  0  0  0
 29 28  1  6  0  0  0
 30 29  1  0  0  0  0
 31 30  3  0  0  0  0
 33 32  1  0  0  0  0
 34 31  1  0  0  0  0
 34 32  2  0  0  0  0
 35 36  2  0  0  0  0
 35 37  1  0  0  0  0
 36 34  1  0  0  0  0
 37 33  2  0  0  0  0
 38 39  3  0  0  0  0
 39 35  1  0  0  0  0
M  END
>  <MODEL>
3

>  <REMARK>
 VINA RESULT:      -7.5      2.245      8.159
  Name = 
  11 active torsions:
  status: ('A' for Active; 'I' for Inactive)
    1  A    between atoms: C_1  and  C_23
    2  A    between atoms: C_9  and  C_18
    3  A    between atoms: C_11  and  N_12
    4  A    between atoms: C_13  and  C_14
    5  A    between atoms: C_13  and  C_23
    6  A    between atoms: C_14  and  C_30
    7  A    between atoms: N_15  and  C_32
    8  A    between atoms: C_16  and  C_31
    9  A    between atoms: C_19  and  C_28
   10  A    between atoms: C_32  and  C_35
   11  A    between atoms: N_33  and  C_38
                            x       y       z     vdW  Elec       q    Type
                         _______ _______ _______ _____ _____    ______ ____

>  <TORSDO>
F 11

$$$$
=
 OpenBabel11052410003D

 39 45  0  0  1  0  0  0  0  0999 V2000
  160.8420  205.7300  150.5600 C   0  0  1  0  0  3  0  0  0  0  0  0
  160.7590  205.6640  152.0260 N   0  0  0  0  0  0  0  0  0  0  0  0
  161.8730  206.7840  150.2550 C   0  0  2  0  0  0  0  0  0  0  0  0
  161.3820  207.8590  149.2940 C   0  0  2  0  0  3  0  0  0  0  0  0
  162.5180  206.9210  148.8940 C   0  0  0  0  0  2  0  0  0  0  0  0
  161.0820  204.2890  152.4220 C   0  0  0  0  0  3  0  0  0  0  0  0
  161.8030  206.5300  152.6030 C   0  0  1  0  0  3  0  0  0  0  0  0
  161.2630  204.4250  150.0940 N   0  0  0  0  0  0  0  0  0  0  0  0
  161.4420  203.4980  151.1830 C   0  0  0  0  0  3  0  0  0  0  0  0
  162.5800  207.2260  151.4960 C   0  0  0  0  0  2  0  0  0  0  0  0
  160.8070  201.3100  148.6240 C   0  0  0  0  0  2  0  0  0  0  0  0
  161.0320  202.7890  148.3330 C   0  0  0  0  0  0  0  0  0  0  0  0
  160.8810  201.7170  147.2590 C   0  0  0  0  0  2  0  0  0  0  0  0
  161.2180  204.0470  148.7130 C   0  0  0  0  0  3  0  0  0  0  0  0
  161.9340  209.1690  149.6130 N   0  0  0  0  0  2  0  0  0  0  0  0
  162.4570  211.5130  149.0590 N   0  0  0  0  0  2  0  0  0  0  0  0
  161.8810  210.2590  148.6920 C   0  0  0  0  0  0  0  0  0  0  0  0
  161.3340  210.1130  147.5640 O   0  0  0  0  0  0  0  0  0  0  0  0
  162.4830  212.6600  148.1610 C   0  0  0  0  0  2  0  0  0  0  0  0
  160.1190  213.2540  147.9300 C   0  0  2  0  0  3  0  0  0  0  0  0
  160.4040  212.9800  149.2800 O   0  0  0  0  0  0  0  0  0  0  0  0
  161.4000  213.6490  148.5500 C   0  0  1  0  0  3  0  0  0  0  0  0
  158.2720  214.3010  146.7080 C   0  0  0  0  0  2  0  0  0  0  0  0
  159.1970  214.4530  147.8510 C   0  0  1  0  0  3  0  0  0  0  0  0
  157.8700  214.0190  148.0250 O   0  0  0  0  0  0  0  0  0  0  0  0
  161.1750  207.5740  153.5150 C   0  0  0  0  0  2  0  0  0  0  0  0
  160.4720  206.9200  154.6970 C   0  0  0  0  0  2  0  0  0  0  0  0
  161.8980  208.2590  156.2390 C   0  0  0  0  0  1  0  0  0  0  0  0
  160.4800  207.8300  155.9150 C   0  0  1  0  0  3  0  0  0  0  0  0
  159.6630  209.0130  155.6420 C   0  0  0  0  0  0  0  0  0  0  0  0
  158.9890  209.9900  155.4260 C   0  0  0  0  0  0  0  0  0  0  0  0
  157.2850  211.6040  156.1460 C   0  0  0  0  0  3  0  0  0  0  0  0
  156.4990  212.7340  155.8970 C   0  0  0  0  0  3  0  0  0  0  0  0
  158.1820  211.1490  155.1750 C   0  0  0  0  0  0  0  0  0  0  0  0
  157.5090  212.9540  153.7060 C   0  0  0  0  0  0  0  0  0  0  0  0
  158.2940  211.8240  153.9550 C   0  0  0  0  0  3  0  0  0  0  0  0
  156.6100  213.4090  154.6780 C   0  0  0  0  0  3  0  0  0  0  0  0
  157.7170  214.2040  151.4450 N   0  0  0  0  0  0  0  0  0  0  0  0
  157.6240  213.6460  152.4540 C   0  0  0  0  0  0  0  0  0  0  0  0
  1  8  1  1  0  0  0
  1  2  1  0  0  0  0
  2  6  1  0  0  0  0
  2  7  1  0  0  0  0
  3  5  1  6  0  0  0
  3  1  1  0  0  0  0
  3 10  1  0  0  0  0
  4 15  1  1  0  0  0
  4  3  1  0  0  0  0
  5  4  1  0  0  0  0
  7 26  1  1  0  0  0
  8  9  1  0  0  0  0
  9  6  2  0  0  0  0
 10  7  1  0  0  0  0
 12 11  1  0  0  0  0
 12 14  2  0  0  0  0
 13 12  1  0  0  0  0
 13 11  1  0  0  0  0
 14  8  1  0  0  0  0
 17 16  1  0  0  0  0
 17 15  1  0  0  0  0
 18 17  2  0  0  0  0
 19 16  1  0  0  0  0
 20 22  1  0  0  0  0
 20 21  1  1  0  0  0
 22 19  1  6  0  0  0
 22 21  1  0  0  0  0
 23 25  1  0  0  0  0
 24 23  1  6  0  0  0
 24 20  1  0  0  0  0
 24 25  1  0  0  0  0
 26 27  1  0  0  0  0
 27 29  1  0  0  0  0
 29 28  1  6  0  0  0
 30 29  1  0  0  0  0
 31 30  3  0  0  0  0
 33 32  1  0  0  0  0
 34 31  1  0  0  0  0
 34 32  2  0  0  0  0
 35 36  2  0  0  0  0
 35 37  1  0  0  0  0
 36 34  1  0  0  0  0
 37 33  2  0  0  0  0
 38 39  3  0  0  0  0
 39 35  1  0  0  0  0
M  END
>  <MODEL>
4

>  <REMARK>
 VINA RESULT:      -7.0      2.502      8.509
  Name = 
  11 active torsions:
  status: ('A' for Active; 'I' for Inactive)
    1  A    between atoms: C_1  and  C_23
    2  A    between atoms: C_9  and  C_18
    3  A    between atoms: C_11  and  N_12
    4  A    between atoms: C_13  and  C_14
    5  A    between atoms: C_13  and  C_23
    6  A    between atoms: C_14  and  C_30
    7  A    between atoms: N_15  and  C_32
    8  A    between atoms: C_16  and  C_31
    9  A    between atoms: C_19  and  C_28
   10  A    between atoms: C_32  and  C_35
   11  A    between atoms: N_33  and  C_38
                            x       y       z     vdW  Elec       q    Type
                         _______ _______ _______ _____ _____    ______ ____

>  <TORSDO>
F 11

$$$$
=
 OpenBabel11052410003D

 39 45  0  0  1  0  0  0  0  0999 V2000
  160.8760  205.8250  149.4740 C   0  0  1  0  0  3  0  0  0  0  0  0
  160.6920  205.5550  150.9070 N   0  0  0  0  0  0  0  0  0  0  0  0
  161.9510  206.8760  149.3900 C   0  0  2  0  0  0  0  0  0  0  0  0
  161.5520  208.0930  148.5650 C   0  0  2  0  0  3  0  0  0  0  0  0
  162.6890  207.1830  148.1060 C   0  0  0  0  0  2  0  0  0  0  0  0
  160.9540  204.1280  151.1210 C   0  0  0  0  0  3  0  0  0  0  0  0
  161.7160  206.2930  151.6670 C   0  0  1  0  0  3  0  0  0  0  0  0
  161.2950  204.5860  148.8530 N   0  0  0  0  0  0  0  0  0  0  0  0
  161.3770  203.5080  149.8060 C   0  0  0  0  0  3  0  0  0  0  0  0
  162.5830  207.1130  150.7240 C   0  0  0  0  0  2  0  0  0  0  0  0
  160.7960  201.7420  146.9200 C   0  0  0  0  0  2  0  0  0  0  0  0
  161.1140  203.2310  146.8620 C   0  0  0  0  0  0  0  0  0  0  0  0
  160.9910  202.3320  145.6360 C   0  0  0  0  0  2  0  0  0  0  0  0
  161.3340  204.4100  147.4320 C   0  0  0  0  0  3  0  0  0  0  0  0
  162.1150  209.3250  149.1030 N   0  0  0  0  0  2  0  0  0  0  0  0
  162.4420  211.7680  149.0840 N   0  0  0  0  0  2  0  0  0  0  0  0
  161.8460  210.5990  148.5190 C   0  0  0  0  0  0  0  0  0  0  0  0
  161.0920  210.6910  147.5110 O   0  0  0  0  0  0  0  0  0  0  0  0
  162.2530  213.0980  148.5220 C   0  0  0  0  0  2  0  0  0  0  0  0
  161.6620  213.8130  146.2560 C   0  0  2  0  0  3  0  0  0  0  0  0
  162.8580  214.4420  146.6500 O   0  0  0  0  0  0  0  0  0  0  0  0
  162.6790  213.1120  147.0660 C   0  0  1  0  0  3  0  0  0  0  0  0
  160.5430  212.6970  144.3850 C   0  0  0  0  0  2  0  0  0  0  0  0
  161.7800  213.3890  144.8070 C   0  0  1  0  0  3  0  0  0  0  0  0
  160.7850  214.0430  144.0590 O   0  0  0  0  0  0  0  0  0  0  0  0
  161.0530  207.2190  152.6790 C   0  0  0  0  0  2  0  0  0  0  0  0
  160.8390  208.6080  152.0930 C   0  0  0  0  0  2  0  0  0  0  0  0
  162.5140  210.3570  152.6800 C   0  0  0  0  0  1  0  0  0  0  0  0
  161.2150  209.6910  153.0930 C   0  0  1  0  0  3  0  0  0  0  0  0
  160.1490  210.6930  153.1460 C   0  0  0  0  0  0  0  0  0  0  0  0
  159.2650  211.5120  153.1870 C   0  0  0  0  0  0  0  0  0  0  0  0
  157.9900  213.3280  152.1360 C   0  0  0  0  0  3  0  0  0  0  0  0
  156.9610  214.2760  152.1810 C   0  0  0  0  0  3  0  0  0  0  0  0
  158.2100  212.4840  153.2280 C   0  0  0  0  0  0  0  0  0  0  0  0
  156.3750  213.5330  154.4110 C   0  0  0  0  0  0  0  0  0  0  0  0
  157.4030  212.5870  154.3660 C   0  0  0  0  0  3  0  0  0  0  0  0
  156.1540  214.3790  153.3180 C   0  0  0  0  0  3  0  0  0  0  0  0
  154.8790  213.7230  156.5200 N   0  0  0  0  0  0  0  0  0  0  0  0
  155.5470  213.6380  155.5790 C   0  0  0  0  0  0  0  0  0  0  0  0
  1  8  1  6  0  0  0
  1  2  1  0  0  0  0
  2  6  1  0  0  0  0
  2  7  1  0  0  0  0
  3  5  1  6  0  0  0
  3  1  1  0  0  0  0
  3 10  1  0  0  0  0
  4 15  1  1  0  0  0
  4  3  1  0  0  0  0
  5  4  1  0  0  0  0
  7 26  1  1  0  0  0
  8  9  1  0  0  0  0
  9  6  2  0  0  0  0
 10  7  1  0  0  0  0
 12 11  1  0  0  0  0
 12 14  2  0  0  0  0
 13 12  1  0  0  0  0
 13 11  1  0  0  0  0
 14  8  1  0  0  0  0
 17 16  1  0  0  0  0
 17 15  1  0  0  0  0
 18 17  2  0  0  0  0
 19 16  1  0  0  0  0
 20 21  1  6  0  0  0
 20 22  1  0  0  0  0
 21 22  1  0  0  0  0
 22 19  1  1  0  0  0
 24 23  1  1  0  0  0
 24 20  1  0  0  0  0
 25 23  1  0  0  0  0
 25 24  1  0  0  0  0
 27 26  1  0  0  0  0
 27 29  1  0  0  0  0
 29 28  1  6  0  0  0
 29 30  1  0  0  0  0
 30 31  3  0  0  0  0
 31 34  1  0  0  0  0
 32 33  2  0  0  0  0
 32 34  1  0  0  0  0
 33 37  1  0  0  0  0
 34 36  2  0  0  0  0
 35 39  1  0  0  0  0
 36 35  1  0  0  0  0
 37 35  2  0  0  0  0
 39 38  3  0  0  0  0
M  END
>  <MODEL>
5

>  <REMARK>
 VINA RESULT:      -6.9      2.347      8.794
  Name = 
  11 active torsions:
  status: ('A' for Active; 'I' for Inactive)
    1  A    between atoms: C_1  and  C_23
    2  A    between atoms: C_9  and  C_18
    3  A    between atoms: C_11  and  N_12
    4  A    between atoms: C_13  and  C_14
    5  A    between atoms: C_13  and  C_23
    6  A    between atoms: C_14  and  C_30
    7  A    between atoms: N_15  and  C_32
    8  A    between atoms: C_16  and  C_31
    9  A    between atoms: C_19  and  C_28
   10  A    between atoms: C_32  and  C_35
   11  A    between atoms: N_33  and  C_38
                            x       y       z     vdW  Elec       q    Type
                         _______ _______ _______ _____ _____    ______ ____

>  <TORSDO>
F 11

$$$$
=
 OpenBabel11052410003D

 39 45  0  0  1  0  0  0  0  0999 V2000
  161.0360  210.4610  155.0870 C   0  0  1  0  0  3  0  0  0  0  0  0
  161.2660  209.1960  155.8000 N   0  0  0  0  0  0  0  0  0  0  0  0
  160.2170  210.1040  153.8750 C   0  0  2  0  0  0  0  0  0  0  0  0
  160.8100  210.6100  152.5670 C   0  0  2  0  0  3  0  0  0  0  0  0
  159.4680  211.1390  153.0670 C   0  0  0  0  0  2  0  0  0  0  0  0
  160.7130  209.3480  157.1510 C   0  0  0  0  0  3  0  0  0  0  0  0
  160.4930  208.1280  155.1420 C   0  0  1  0  0  3  0  0  0  0  0  0
  160.3070  211.3340  155.9830 N   0  0  0  0  0  0  0  0  0  0  0  0
  160.0620  210.7100  157.2590 C   0  0  0  0  0  3  0  0  0  0  0  0
  159.7590  208.6820  153.9300 C   0  0  0  0  0  2  0  0  0  0  0  0
  157.3910  213.1760  155.5610 C   0  0  0  0  0  2  0  0  0  0  0  0
  158.9120  213.2650  155.5860 C   0  0  0  0  0  0  0  0  0  0  0  0
  157.9880  214.4520  155.3380 C   0  0  0  0  0  2  0  0  0  0  0  0
  160.1200  212.7290  155.7180 C   0  0  0  0  0  3  0  0  0  0  0  0
  160.5770  209.6820  151.4670 N   0  0  0  0  0  2  0  0  0  0  0  0
  161.3410  208.3180  149.5620 N   0  0  0  0  0  2  0  0  0  0  0  0
  161.6370  209.2130  150.6340 C   0  0  0  0  0  0  0  0  0  0  0  0
  162.8240  209.5890  150.8420 O   0  0  0  0  0  0  0  0  0  0  0  0
  162.3570  207.8280  148.6420 C   0  0  0  0  0  2  0  0  0  0  0  0
  162.1400  206.5280  146.5780 C   0  0  2  0  0  3  0  0  0  0  0  0
  163.0300  205.8760  147.4520 O   0  0  0  0  0  0  0  0  0  0  0  0
  161.9190  206.5070  148.0380 C   0  0  1  0  0  3  0  0  0  0  0  0
  160.1300  206.1670  145.2260 C   0  0  0  0  0  2  0  0  0  0  0  0
  161.2550  205.4950  145.9120 C   0  0  1  0  0  3  0  0  0  0  0  0
  161.2620  205.7180  144.5230 O   0  0  0  0  0  0  0  0  0  0  0  0
  161.4200  207.0040  154.7020 C   0  0  0  0  0  2  0  0  0  0  0  0
  160.7660  206.1390  153.6320 C   0  0  0  0  0  2  0  0  0  0  0  0
  162.8980  206.6580  152.4510 C   0  0  0  0  0  1  0  0  0  0  0  0
  161.4220  206.3500  152.2760 C   0  0  1  0  0  3  0  0  0  0  0  0
  161.2690  205.1380  151.4700 C   0  0  0  0  0  0  0  0  0  0  0  0
  161.1520  204.1390  150.8040 C   0  0  0  0  0  0  0  0  0  0  0  0
  160.9740  201.6970  150.6220 C   0  0  0  0  0  3  0  0  0  0  0  0
  160.8460  200.5430  149.8420 C   0  0  0  0  0  3  0  0  0  0  0  0
  161.0190  202.9530  150.0080 C   0  0  0  0  0  0  0  0  0  0  0  0
  160.8080  201.9010  147.8360 C   0  0  0  0  0  0  0  0  0  0  0  0
  160.9370  203.0550  148.6160 C   0  0  0  0  0  3  0  0  0  0  0  0
  160.7630  200.6440  148.4500 C   0  0  0  0  0  3  0  0  0  0  0  0
  160.6570  202.0920  145.2560 N   0  0  0  0  0  0  0  0  0  0  0  0
  160.7240  202.0060  146.4070 C   0  0  0  0  0  0  0  0  0  0  0  0
  1  2  1  1  0  0  0
  1  8  1  0  0  0  0
  2  6  1  0  0  0  0
  3  5  1  1  0  0  0
  3 10  1  0  0  0  0
  3  1  1  0  0  0  0
  4 15  1  6  0  0  0
  4  5  1  0  0  0  0
  4  3  1  0  0  0  0
  6  9  2  0  0  0  0
  7 26  1  6  0  0  0
  7  2  1  0  0  0  0
  8  9  1  0  0  0  0
 10  7  1  0  0  0  0
 11 12  1  0  0  0  0
 12 14  2  0  0  0  0
 13 11  1  0  0  0  0
 13 12  1  0  0  0  0
 14  8  1  0  0  0  0
 16 17  1  0  0  0  0
 17 18  2  0  0  0  0
 17 15  1  0  0  0  0
 19 16  1  0  0  0  0
 20 21  1  1  0  0  0
 20 22  1  0  0  0  0
 21 22  1  0  0  0  0
 22 19  1  1  0  0  0
 24 23  1  1  0  0  0
 24 20  1  0  0  0  0
 25 23  1  0  0  0  0
 25 24  1  0  0  0  0
 27 26  1  0  0  0  0
 29 28  1  1  0  0  0
 29 27  1  0  0  0  0
 30 29  1  0  0  0  0
 31 30  3  0  0  0  0
 33 32  2  0  0  0  0
 34 32  1  0  0  0  0
 34 31  1  0  0  0  0
 35 37  2  0  0  0  0
 35 36  1  0  0  0  0
 36 34  2  0  0  0  0
 37 33  1  0  0  0  0
 38 39  3  0  0  0  0
 39 35  1  0  0  0  0
M  END
>  <MODEL>
6

>  <REMARK>
 VINA RESULT:      -6.8      3.343      3.986
  Name = 
  11 active torsions:
  status: ('A' for Active; 'I' for Inactive)
    1  A    between atoms: C_1  and  C_23
    2  A    between atoms: C_9  and  C_18
    3  A    between atoms: C_11  and  N_12
    4  A    between atoms: C_13  and  C_14
    5  A    between atoms: C_13  and  C_23
    6  A    between atoms: C_14  and  C_30
    7  A    between atoms: N_15  and  C_32
    8  A    between atoms: C_16  and  C_31
    9  A    between atoms: C_19  and  C_28
   10  A    between atoms: C_32  and  C_35
   11  A    between atoms: N_33  and  C_38
                            x       y       z     vdW  Elec       q    Type
                         _______ _______ _______ _____ _____    ______ ____

>  <TORSDO>
F 11

$$$$
=
 OpenBabel11052410003D

 39 45  0  0  1  0  0  0  0  0999 V2000
  162.3050  208.7900  150.9890 C   0  0  1  0  0  3  0  0  0  0  0  0
  161.9770  208.7620  152.4220 N   0  0  0  0  0  0  0  0  0  0  0  0
  161.4330  207.7420  150.3490 C   0  0  2  0  0  0  0  0  0  0  0  0
  162.2050  206.7390  149.5030 C   0  0  2  0  0  3  0  0  0  0  0  0
  161.1950  207.6840  148.8570 C   0  0  0  0  0  2  0  0  0  0  0  0
  161.5130  210.1040  152.7920 C   0  0  0  0  0  3  0  0  0  0  0  0
  160.8430  207.8460  152.6350 C   0  0  1  0  0  3  0  0  0  0  0  0
  161.9870  210.1160  150.5010 N   0  0  0  0  0  0  0  0  0  0  0  0
  161.4840  210.9680  151.5490 C   0  0  0  0  0  3  0  0  0  0  0  0
  160.4260  207.2100  151.3180 C   0  0  0  0  0  2  0  0  0  0  0  0
  161.1160  212.9950  148.7610 C   0  0  0  0  0  2  0  0  0  0  0  0
  161.9560  211.7240  148.7000 C   0  0  0  0  0  0  0  0  0  0  0  0
  161.9000  212.7700  147.5920 C   0  0  0  0  0  2  0  0  0  0  0  0
  162.4000  210.5820  149.2110 C   0  0  0  0  0  3  0  0  0  0  0  0
  161.6290  205.4030  149.5790 N   0  0  0  0  0  2  0  0  0  0  0  0
  161.1560  203.1710  148.6460 N   0  0  0  0  0  2  0  0  0  0  0  0
  161.7600  204.4590  148.5160 C   0  0  0  0  0  0  0  0  0  0  0  0
  162.3990  204.7620  147.4710 O   0  0  0  0  0  0  0  0  0  0  0  0
  161.2060  202.1680  147.5910 C   0  0  0  0  0  2  0  0  0  0  0  0
  161.2100  203.2550  145.3970 C   0  0  2  0  0  3  0  0  0  0  0  0
  160.7730  201.9240  145.2610 O   0  0  0  0  0  0  0  0  0  0  0  0
  160.3560  202.6090  146.4140 C   0  0  1  0  0  3  0  0  0  0  0  0
  160.4860  205.5520  144.9530 C   0  0  0  0  0  2  0  0  0  0  0  0
  160.3650  204.1460  144.5110 C   0  0  1  0  0  3  0  0  0  0  0  0
  161.2060  205.0610  143.8500 O   0  0  0  0  0  0  0  0  0  0  0  0
  161.2290  206.7540  153.6240 C   0  0  0  0  0  2  0  0  0  0  0  0
  161.4160  207.3230  155.0240 C   0  0  0  0  0  2  0  0  0  0  0  0
  160.2060  207.0370  157.1830 C   0  0  0  0  0  1  0  0  0  0  0  0
  160.0820  207.4800  155.7370 C   0  0  1  0  0  3  0  0  0  0  0  0
  159.6690  208.8840  155.6910 C   0  0  0  0  0  0  0  0  0  0  0  0
  159.3200  210.0380  155.6530 C   0  0  0  0  0  0  0  0  0  0  0  0
  159.6800  212.4050  156.1960 C   0  0  0  0  0  3  0  0  0  0  0  0
  159.2660  213.7400  156.1460 C   0  0  0  0  0  3  0  0  0  0  0  0
  158.9000  211.4080  155.6010 C   0  0  0  0  0  0  0  0  0  0  0  0
  157.2920  213.0810  154.9060 C   0  0  0  0  0  0  0  0  0  0  0  0
  157.7060  211.7470  154.9570 C   0  0  0  0  0  3  0  0  0  0  0  0
  158.0720  214.0790  155.5010 C   0  0  0  0  0  3  0  0  0  0  0  0
  155.0770  213.7050  153.7120 N   0  0  0  0  0  0  0  0  0  0  0  0
  156.0660  213.4270  154.2450 C   0  0  0  0  0  0  0  0  0  0  0  0
  1  8  1  6  0  0  0
  1  2  1  0  0  0  0
  2  7  1  0  0  0  0
  2  6  1  0  0  0  0
  3  5  1  6  0  0  0
  3  1  1  0  0  0  0
  3 10  1  0  0  0  0
  4 15  1  1  0  0  0
  4  3  1  0  0  0  0
  5  4  1  0  0  0  0
  7 26  1  1  0  0  0
  8  9  1  0  0  0  0
  9  6  2  0  0  0  0
 10  7  1  0  0  0  0
 12 11  1  0  0  0  0
 12 14  2  0  0  0  0
 13 12  1  0  0  0  0
 13 11  1  0  0  0  0
 14  8  1  0  0  0  0
 17 16  1  0  0  0  0
 17 15  1  0  0  0  0
 18 17  2  0  0  0  0
 19 16  1  0  0  0  0
 20 21  1  6  0  0  0
 20 22  1  0  0  0  0
 21 22  1  0  0  0  0
 22 19  1  1  0  0  0
 24 23  1  1  0  0  0
 24 20  1  0  0  0  0
 25 24  1  0  0  0  0
 25 23  1  0  0  0  0
 26 27  1  0  0  0  0
 27 29  1  0  0  0  0
 29 28  1  1  0  0  0
 30 29  1  0  0  0  0
 31 30  3  0  0  0  0
 33 32  1  0  0  0  0
 34 31  1  0  0  0  0
 34 32  2  0  0  0  0
 35 36  2  0  0  0  0
 35 37  1  0  0  0  0
 36 34  1  0  0  0  0
 37 33  2  0  0  0  0
 38 39  3  0  0  0  0
 39 35  1  0  0  0  0
M  END
>  <MODEL>
7

>  <REMARK>
 VINA RESULT:      -6.0      3.549      9.190
  Name = 
  11 active torsions:
  status: ('A' for Active; 'I' for Inactive)
    1  A    between atoms: C_1  and  C_23
    2  A    between atoms: C_9  and  C_18
    3  A    between atoms: C_11  and  N_12
    4  A    between atoms: C_13  and  C_14
    5  A    between atoms: C_13  and  C_23
    6  A    between atoms: C_14  and  C_30
    7  A    between atoms: N_15  and  C_32
    8  A    between atoms: C_16  and  C_31
    9  A    between atoms: C_19  and  C_28
   10  A    between atoms: C_32  and  C_35
   11  A    between atoms: N_33  and  C_38
                            x       y       z     vdW  Elec       q    Type
                         _______ _______ _______ _____ _____    ______ ____

>  <TORSDO>
F 11

$$$$
=
 OpenBabel11052410003D

 39 45  0  0  1  0  0  0  0  0999 V2000
  161.7010  204.5900  149.4020 C   0  0  1  0  0  3  0  0  0  0  0  0
  162.0480  203.8640  148.1720 N   0  0  0  0  0  0  0  0  0  0  0  0
  161.1230  205.9050  148.9520 C   0  0  2  0  0  0  0  0  0  0  0  0
  161.7870  207.1160  149.5930 C   0  0  2  0  0  3  0  0  0  0  0  0
  160.3200  206.7970  149.8720 C   0  0  0  0  0  2  0  0  0  0  0  0
  161.3040  202.5990  148.1840 C   0  0  0  0  0  3  0  0  0  0  0  0
  161.5640  204.6310  147.0110 C   0  0  1  0  0  3  0  0  0  0  0  0
  160.7210  203.7930  150.1100 N   0  0  0  0  0  0  0  0  0  0  0  0
  160.4210  202.5670  149.4130 C   0  0  0  0  0  3  0  0  0  0  0  0
  160.9120  205.9260  147.4720 C   0  0  0  0  0  2  0  0  0  0  0  0
  162.3100  205.6580  152.5750 C   0  0  0  0  0  2  0  0  0  0  0  0
  161.0790  204.8120  152.2700 C   0  0  0  0  0  0  0  0  0  0  0  0
  161.3520  205.4750  153.6150 C   0  0  0  0  0  2  0  0  0  0  0  0
  160.3340  204.0670  151.4610 C   0  0  0  0  0  3  0  0  0  0  0  0
  161.8650  208.2450  148.6760 N   0  0  0  0  0  2  0  0  0  0  0  0
  162.0110  210.6570  148.1870 N   0  0  0  0  0  2  0  0  0  0  0  0
  161.9550  209.5930  149.1380 C   0  0  0  0  0  0  0  0  0  0  0  0
  161.9810  209.8410  150.3760 O   0  0  0  0  0  0  0  0  0  0  0  0
  162.0590  212.0590  148.5760 C   0  0  0  0  0  2  0  0  0  0  0  0
  161.8840  213.1220  146.3780 C   0  0  2  0  0  3  0  0  0  0  0  0
  162.1380  214.1030  147.3540 O   0  0  0  0  0  0  0  0  0  0  0  0
  162.7870  212.8670  147.5190 C   0  0  1  0  0  3  0  0  0  0  0  0
  161.9790  212.9710  143.9340 C   0  0  0  0  0  2  0  0  0  0  0  0
  162.7000  213.4330  145.1390 C   0  0  1  0  0  3  0  0  0  0  0  0
  161.9730  214.3210  144.3260 O   0  0  0  0  0  0  0  0  0  0  0  0
  162.7200  204.9520  146.0740 C   0  0  0  0  0  2  0  0  0  0  0  0
  162.2730  205.8700  144.9450 C   0  0  0  0  0  2  0  0  0  0  0  0
  160.1980  204.7750  144.1080 C   0  0  0  0  0  1  0  0  0  0  0  0
  161.6530  205.0770  143.8040 C   0  0  1  0  0  3  0  0  0  0  0  0
  161.7410  205.8560  142.5680 C   0  0  0  0  0  0  0  0  0  0  0  0
  161.8070  206.4930  141.5460 C   0  0  0  0  0  0  0  0  0  0  0  0
  161.9570  206.5820  139.0970 C   0  0  0  0  0  3  0  0  0  0  0  0
  162.0330  207.3180  137.9100 C   0  0  0  0  0  3  0  0  0  0  0  0
  161.8820  207.2450  140.3260 C   0  0  0  0  0  0  0  0  0  0  0  0
  161.9580  209.3780  139.1820 C   0  0  0  0  0  0  0  0  0  0  0  0
  161.8830  208.6420  140.3680 C   0  0  0  0  0  3  0  0  0  0  0  0
  162.0340  208.7160  137.9520 C   0  0  0  0  0  3  0  0  0  0  0  0
  161.9620  211.9700  139.2640 N   0  0  0  0  0  0  0  0  0  0  0  0
  161.9600  210.8130  139.2260 C   0  0  0  0  0  0  0  0  0  0  0  0
  1  2  1  6  0  0  0
  1  8  1  0  0  0  0
  2  6  1  0  0  0  0
  3 10  1  6  0  0  0
  3  1  1  0  0  0  0
  3  4  1  0  0  0  0
  3  5  1  0  0  0  0
  4 15  1  6  0  0  0
  4  5  1  0  0  0  0
  6  9  2  0  0  0  0
  7 26  1  6  0  0  0
  7 10  1  0  0  0  0
  7  2  1  0  0  0  0
  8 14  1  0  0  0  0
  9  8  1  0  0  0  0
 11 13  1  0  0  0  0
 12 11  1  0  0  0  0
 12 13  1  0  0  0  0
 14 12  2  0  0  0  0
 15 17  1  0  0  0  0
 16 19  1  0  0  0  0
 16 17  1  0  0  0  0
 17 18  2  0  0  0  0
 20 21  1  1  0  0  0
 20 22  1  0  0  0  0
 21 22  1  0  0  0  0
 22 19  1  1  0  0  0
 23 25  1  0  0  0  0
 24 23  1  6  0  0  0
 24 20  1  0  0  0  0
 25 24  1  0  0  0  0
 27 26  1  0  0  0  0
 29 28  1  1  0  0  0
 29 27  1  0  0  0  0
 30 29  1  0  0  0  0
 31 30  3  0  0  0  0
 32 34  1  0  0  0  0
 33 37  1  0  0  0  0
 33 32  2  0  0  0  0
 34 36  2  0  0  0  0
 34 31  1  0  0  0  0
 35 39  1  0  0  0  0
 35 36  1  0  0  0  0
 37 35  2  0  0  0  0
 39 38  3  0  0  0  0
M  END
>  <MODEL>
8

>  <REMARK>
 VINA RESULT:      -5.9      4.542      8.288
  Name = 
  11 active torsions:
  status: ('A' for Active; 'I' for Inactive)
    1  A    between atoms: C_1  and  C_23
    2  A    between atoms: C_9  and  C_18
    3  A    between atoms: C_11  and  N_12
    4  A    between atoms: C_13  and  C_14
    5  A    between atoms: C_13  and  C_23
    6  A    between atoms: C_14  and  C_30
    7  A    between atoms: N_15  and  C_32
    8  A    between atoms: C_16  and  C_31
    9  A    between atoms: C_19  and  C_28
   10  A    between atoms: C_32  and  C_35
   11  A    between atoms: N_33  and  C_38
                            x       y       z     vdW  Elec       q    Type
                         _______ _______ _______ _____ _____    ______ ____

>  <TORSDO>
F 11

$$$$
=
 OpenBabel11052410003D

 39 45  0  0  1  0  0  0  0  0999 V2000
  161.1470  208.9080  150.1670 C   0  0  1  0  0  3  0  0  0  0  0  0
  161.5980  207.5400  150.4610 N   0  0  0  0  0  0  0  0  0  0  0  0
  161.5640  209.7390  151.3500 C   0  0  2  0  0  0  0  0  0  0  0  0
  160.4260  210.5460  151.9610 C   0  0  2  0  0  3  0  0  0  0  0  0
  161.6110  211.2500  151.3060 C   0  0  0  0  0  2  0  0  0  0  0  0
  162.5050  207.1360  149.3800 C   0  0  0  0  0  3  0  0  0  0  0  0
  162.3950  207.5560  151.7000 C   0  0  1  0  0  3  0  0  0  0  0  0
  161.8190  209.3320  148.9560 N   0  0  0  0  0  0  0  0  0  0  0  0
  162.6770  208.3000  148.4290 C   0  0  0  0  0  3  0  0  0  0  0  0
  162.4440  208.9630  152.2760 C   0  0  0  0  0  2  0  0  0  0  0  0
  163.6290  212.2140  148.2540 C   0  0  0  0  0  2  0  0  0  0  0  0
  162.2800  211.5290  148.0670 C   0  0  0  0  0  0  0  0  0  0  0  0
  162.6210  212.9140  147.5280 C   0  0  0  0  0  2  0  0  0  0  0  0
  161.4430  210.5130  148.2380 C   0  0  0  0  0  3  0  0  0  0  0  0
  160.5480  210.6530  153.4090 N   0  0  0  0  0  2  0  0  0  0  0  0
  160.2090  211.8270  155.5500 N   0  0  0  0  0  2  0  0  0  0  0  0
  160.0410  211.7740  154.1320 C   0  0  0  0  0  0  0  0  0  0  0  0
  159.4550  212.7120  153.5240 O   0  0  0  0  0  0  0  0  0  0  0  0
  159.7600  212.9540  156.3540 C   0  0  0  0  0  2  0  0  0  0  0  0
  157.3160  212.8030  156.3480 C   0  0  2  0  0  3  0  0  0  0  0  0
  157.8660  211.5160  156.4990 O   0  0  0  0  0  0  0  0  0  0  0  0
  158.5310  212.5660  157.1540 C   0  0  1  0  0  3  0  0  0  0  0  0
  155.2440  214.0340  156.7830 C   0  0  0  0  0  2  0  0  0  0  0  0
  156.1150  212.9380  157.2610 C   0  0  1  0  0  3  0  0  0  0  0  0
  154.9480  212.6860  156.5170 O   0  0  0  0  0  0  0  0  0  0  0  0
  161.7870  206.6100  152.7270 C   0  0  0  0  0  2  0  0  0  0  0  0
  160.7930  205.6580  152.0750 C   0  0  0  0  0  2  0  0  0  0  0  0
  160.6740  203.2660  152.7630 C   0  0  0  0  0  1  0  0  0  0  0  0
  161.3960  204.2740  151.8890 C   0  0  1  0  0  3  0  0  0  0  0  0
  161.2760  203.8770  150.4860 C   0  0  0  0  0  0  0  0  0  0  0  0
  161.1860  203.5490  149.3280 C   0  0  0  0  0  0  0  0  0  0  0  0
  160.8310  201.8290  147.6120 C   0  0  0  0  0  3  0  0  0  0  0  0
  160.7350  201.4550  146.2680 C   0  0  0  0  0  3  0  0  0  0  0  0
  161.0850  203.1620  147.9510 C   0  0  0  0  0  0  0  0  0  0  0  0
  161.1480  203.7470  145.6010 C   0  0  0  0  0  0  0  0  0  0  0  0
  161.2440  204.1200  146.9450 C   0  0  0  0  0  3  0  0  0  0  0  0
  160.8940  202.4140  145.2620 C   0  0  0  0  0  3  0  0  0  0  0  0
  161.4460  205.5260  143.7380 N   0  0  0  0  0  0  0  0  0  0  0  0
  161.3120  204.7320  144.5690 C   0  0  0  0  0  0  0  0  0  0  0  0
  1  8  1  6  0  0  0
  1  2  1  0  0  0  0
  1  3  1  0  0  0  0
  2  7  1  0  0  0  0
  3  5  1  6  0  0  0
  3  4  1  0  0  0  0
  3 10  1  0  0  0  0
  4 15  1  1  0  0  0
  5  4  1  0  0  0  0
  6  2  1  0  0  0  0
  7 10  1  0  0  0  0
  7 26  1  1  0  0  0
  9  8  1  0  0  0  0
  9  6  2  0  0  0  0
 12 14  2  0  0  0  0
 12 11  1  0  0  0  0
 13 12  1  0  0  0  0
 13 11  1  0  0  0  0
 14  8  1  0  0  0  0
 15 17  1  0  0  0  0
 16 19  1  0  0  0  0
 17 16  1  0  0  0  0
 18 17  2  0  0  0  0
 20 21  1  6  0  0  0
 20 22  1  0  0  0  0
 20 24  1  0  0  0  0
 21 22  1  0  0  0  0
 22 19  1  6  0  0  0
 24 23  1  6  0  0  0
 25 23  1  0  0  0  0
 25 24  1  0  0  0  0
 27 26  1  0  0  0  0
 29 27  1  0  0  0  0
 29 28  1  1  0  0  0
 30 29  1  0  0  0  0
 31 30  3  0  0  0  0
 32 34  1  0  0  0  0
 33 32  2  0  0  0  0
 34 31  1  0  0  0  0
 35 36  1  0  0  0  0
 36 34  2  0  0  0  0
 37 35  2  0  0  0  0
 37 33  1  0  0  0  0
 38 39  3  0  0  0  0
 39 35  1  0  0  0  0
M  END
>  <MODEL>
9

>  <REMARK>
 VINA RESULT:      -5.8      2.919      7.295
  Name = 
  11 active torsions:
  status: ('A' for Active; 'I' for Inactive)
    1  A    between atoms: C_1  and  C_23
    2  A    between atoms: C_9  and  C_18
    3  A    between atoms: C_11  and  N_12
    4  A    between atoms: C_13  and  C_14
    5  A    between atoms: C_13  and  C_23
    6  A    between atoms: C_14  and  C_30
    7  A    between atoms: N_15  and  C_32
    8  A    between atoms: C_16  and  C_31
    9  A    between atoms: C_19  and  C_28
   10  A    between atoms: C_32  and  C_35
   11  A    between atoms: N_33  and  C_38
                            x       y       z     vdW  Elec       q    Type
                         _______ _______ _______ _____ _____    ______ ____

>  <TORSDO>
F 11

$$$$
