=
 OpenBabel11042420453D

 27 28  0  0  1  0  0  0  0  0999 V2000
  160.8850  205.2350  143.8250 O   0  0  0  0  0  0  0  0  0  0  0  0
  162.3690  205.2620  147.9230 C   0  0  2  0  0  3  0  0  0  0  0  0
  162.0270  206.7020  147.6490 C   0  0  0  0  0  0  0  0  0  0  0  0
  162.2520  209.3040  150.2380 O   0  0  0  0  0  1  0  0  0  0  0  0
  162.3930  204.5390  145.4900 C   0  0  0  0  0  3  0  0  0  0  0  0
  162.6660  207.7440  148.5060 C   0  0  0  0  0  2  0  0  0  0  0  0
  161.1950  205.2750  145.0440 C   0  0  0  0  0  0  0  0  0  0  0  0
  162.9120  204.5360  146.7240 C   0  0  0  0  0  3  0  0  0  0  0  0
  161.2700  204.5910  148.4730 O   0  0  0  0  0  0  0  0  0  0  0  0
  161.4500  204.6620  149.8620 C   0  0  1  0  0  3  0  0  0  0  0  0
  161.0810  207.0550  146.7670 C   0  0  0  0  0  3  0  0  0  0  0  0
  161.7760  206.9840  150.7580 C   0  0  1  0  0  3  0  0  0  0  0  0
  160.7530  205.8980  150.4170 C   0  0  0  0  0  2  0  0  0  0  0  0
  161.7790  208.1050  149.6970 C   0  0  1  0  0  3  0  0  0  0  0  0
  160.3110  206.0410  145.9780 C   0  0  0  0  0  2  0  0  0  0  0  0
  161.5400  207.5160  152.1800 C   0  0  1  0  0  3  0  0  0  0  0  0
  160.4270  208.3590  152.2190 O   0  0  0  0  0  1  0  0  0  0  0  0
  161.3670  206.3850  153.1860 C   0  0  0  0  0  2  0  0  0  0  0  0
  161.5530  207.6470  155.2080 O   0  0  0  0  0  1  0  0  0  0  0  0
  160.6730  206.8740  154.4480 C   0  0  0  0  0  2  0  0  0  0  0  0
  160.8620  203.4270  150.5240 C   0  0  0  0  0  2  0  0  0  0  0  0
  160.4500  202.3970  149.4840 C   0  0  0  0  0  2  0  0  0  0  0  0
  161.1290  201.1980  149.7020 O   0  0  0  0  0  0  0  0  0  0  0  0
  161.3480  200.6800  148.4270 C   0  0  0  0  0  2  0  0  0  0  0  0
  160.7590  201.6170  147.3950 C   0  0  0  0  0  2  0  0  0  0  0  0
  160.8640  200.9920  146.0210 C   0  0  0  0  0  2  0  0  0  0  0  0
  159.9350  201.7160  145.0680 C   0  0  0  0  0  1  0  0  0  0  0  0
  1  7  2  0  0  0  0
  2  8  1  6  0  0  0
  2  9  1  0  0  0  0
  3  2  1  0  0  0  0
  3  6  1  0  0  0  0
  5  8  2  0  0  0  0
  6 14  1  0  0  0  0
  7  5  1  0  0  0  0
  7 15  1  0  0  0  0
  9 10  1  0  0  0  0
 10 13  1  0  0  0  0
 10 21  1  1  0  0  0
 11  3  2  0  0  0  0
 12 16  1  1  0  0  0
 13 12  1  0  0  0  0
 14  4  1  1  0  0  0
 14 12  1  0  0  0  0
 15 11  1  0  0  0  0
 16 17  1  6  0  0  0
 16 18  1  0  0  0  0
 18 20  1  0  0  0  0
 20 19  1  0  0  0  0
 22 23  1  0  0  0  0
 22 21  1  0  0  0  0
 24 23  1  0  0  0  0
 25 24  1  0  0  0  0
 26 25  1  0  0  0  0
 27 26  1  0  0  0  0
M  END
>  <MODEL>
1

>  <REMARK>
 VINA RESULT:      -7.9      0.000      0.000
  Name = 
  9 active torsions:
  status: ('A' for Active; 'I' for Inactive)
    1  A    between atoms: C_3  and  C_27
    2  A    between atoms: O_4  and  C_7
    3  A    between atoms: O_4  and  C_21
    4  A    between atoms: C_7  and  C_27
    5  A    between atoms: C_15  and  C_22
    6  A    between atoms: C_15  and  C_24
    7  A    between atoms: C_16  and  C_17
    8  A    between atoms: C_16  and  C_21
    9  A    between atoms: C_20  and  C_24
                            x       y       z     vdW  Elec       q    Type
                         _______ _______ _______ _____ _____    ______ ____

>  <TORSDO>
F 9

$$$$
=
 OpenBabel11042420453D

 27 28  0  0  1  0  0  0  0  0999 V2000
  162.1590  204.8190  144.4630 O   0  0  0  0  0  0  0  0  0  0  0  0
  160.6500  206.2270  148.3010 C   0  0  2  0  0  3  0  0  0  0  0  0
  161.0270  204.7930  148.5610 C   0  0  0  0  0  0  0  0  0  0  0  0
  160.8450  203.2860  151.9100 O   0  0  0  0  0  1  0  0  0  0  0  0
  160.6240  206.0290  145.7720 C   0  0  0  0  0  3  0  0  0  0  0  0
  160.4070  204.1120  149.7350 C   0  0  0  0  0  2  0  0  0  0  0  0
  161.8420  205.2120  145.6150 C   0  0  0  0  0  0  0  0  0  0  0  0
  160.0990  206.4620  146.9230 C   0  0  0  0  0  3  0  0  0  0  0  0
  161.7300  207.0760  148.5720 O   0  0  0  0  0  0  0  0  0  0  0  0
  161.5430  207.5030  149.8950 C   0  0  1  0  0  3  0  0  0  0  0  0
  161.9860  204.1700  147.8620 C   0  0  0  0  0  3  0  0  0  0  0  0
  161.2640  205.6480  151.5640 C   0  0  1  0  0  3  0  0  0  0  0  0
  162.2640  206.5640  150.8540 C   0  0  0  0  0  2  0  0  0  0  0  0
  161.2940  204.2220  150.9750 C   0  0  1  0  0  3  0  0  0  0  0  0
  162.7370  204.8520  146.7600 C   0  0  0  0  0  2  0  0  0  0  0  0
  161.5030  205.6670  153.0810 C   0  0  1  0  0  3  0  0  0  0  0  0
  162.7960  206.1080  153.3770 O   0  0  0  0  0  1  0  0  0  0  0  0
  160.4820  206.5360  153.8060 C   0  0  0  0  0  2  0  0  0  0  0  0
  160.2510  207.1990  156.0900 O   0  0  0  0  0  1  0  0  0  0  0  0
  161.1120  207.2490  154.9930 C   0  0  0  0  0  2  0  0  0  0  0  0
  162.0980  208.9070  150.0690 C   0  0  0  0  0  2  0  0  0  0  0  0
  161.8940  209.4000  151.4920 C   0  0  0  0  0  2  0  0  0  0  0  0
  160.5480  209.3000  151.8450 O   0  0  0  0  0  0  0  0  0  0  0  0
  160.3340  210.3620  152.7220 C   0  0  0  0  0  2  0  0  0  0  0  0
  161.5800  210.5910  153.5490 C   0  0  0  0  0  2  0  0  0  0  0  0
  161.1910  210.9870  154.9570 C   0  0  0  0  0  2  0  0  0  0  0  0
  162.3140  210.6240  155.9080 C   0  0  0  0  0  1  0  0  0  0  0  0
  1  7  2  0  0  0  0
  2  8  1  6  0  0  0
  2  3  1  0  0  0  0
  2  9  1  0  0  0  0
  3  6  1  0  0  0  0
  5  8  2  0  0  0  0
  6 14  1  0  0  0  0
  7  5  1  0  0  0  0
  7 15  1  0  0  0  0
  9 10  1  0  0  0  0
 10 21  1  6  0  0  0
 10 13  1  0  0  0  0
 11  3  2  0  0  0  0
 12 16  1  1  0  0  0
 13 12  1  0  0  0  0
 14 12  1  0  0  0  0
 14  4  1  1  0  0  0
 15 11  1  0  0  0  0
 16 17  1  6  0  0  0
 16 18  1  0  0  0  0
 18 20  1  0  0  0  0
 20 19  1  0  0  0  0
 21 22  1  0  0  0  0
 22 23  1  0  0  0  0
 23 24  1  0  0  0  0
 24 25  1  0  0  0  0
 25 26  1  0  0  0  0
 26 27  1  0  0  0  0
M  END
>  <MODEL>
2

>  <REMARK>
 VINA RESULT:      -6.8      1.981      5.896
  Name = 
  9 active torsions:
  status: ('A' for Active; 'I' for Inactive)
    1  A    between atoms: C_3  and  C_27
    2  A    between atoms: O_4  and  C_7
    3  A    between atoms: O_4  and  C_21
    4  A    between atoms: C_7  and  C_27
    5  A    between atoms: C_15  and  C_22
    6  A    between atoms: C_15  and  C_24
    7  A    between atoms: C_16  and  C_17
    8  A    between atoms: C_16  and  C_21
    9  A    between atoms: C_20  and  C_24
                            x       y       z     vdW  Elec       q    Type
                         _______ _______ _______ _____ _____    ______ ____

>  <TORSDO>
F 9

$$$$
=
 OpenBabel11042420453D

 27 28  0  0  1  0  0  0  0  0999 V2000
  162.2140  204.8980  144.4990 O   0  0  0  0  0  0  0  0  0  0  0  0
  160.6470  206.2800  148.3230 C   0  0  2  0  0  3  0  0  0  0  0  0
  161.0400  204.8510  148.5850 C   0  0  0  0  0  0  0  0  0  0  0  0
  160.8430  203.3360  151.9300 O   0  0  0  0  0  1  0  0  0  0  0  0
  160.6510  206.0860  145.7930 C   0  0  0  0  0  3  0  0  0  0  0  0
  160.4170  204.1600  149.7520 C   0  0  0  0  0  2  0  0  0  0  0  0
  161.8810  205.2850  145.6490 C   0  0  0  0  0  0  0  0  0  0  0  0
  160.1070  206.5110  146.9390 C   0  0  0  0  0  3  0  0  0  0  0  0
  161.7130  207.1430  148.6070 O   0  0  0  0  0  0  0  0  0  0  0  0
  161.5070  207.5650  149.9280 C   0  0  1  0  0  3  0  0  0  0  0  0
  162.0150  204.2410  147.8950 C   0  0  0  0  0  3  0  0  0  0  0  0
  161.2350  205.7050  151.5910 C   0  0  1  0  0  3  0  0  0  0  0  0
  162.2300  206.6350  150.8930 C   0  0  0  0  0  2  0  0  0  0  0  0
  161.2890  204.2800  151.0010 C   0  0  1  0  0  3  0  0  0  0  0  0
  162.7680  204.9350  146.8020 C   0  0  0  0  0  2  0  0  0  0  0  0
  161.4580  205.7240  153.1110 C   0  0  1  0  0  3  0  0  0  0  0  0
  162.7720  206.0860  153.4180 O   0  0  0  0  0  1  0  0  0  0  0  0
  160.4860  206.6630  153.8150 C   0  0  0  0  0  2  0  0  0  0  0  0
  160.9770  208.9790  153.4860 O   0  0  0  0  0  1  0  0  0  0  0  0
  161.2000  207.8990  154.3410 C   0  0  0  0  0  2  0  0  0  0  0  0
  162.0420  208.9760  150.1100 C   0  0  0  0  0  2  0  0  0  0  0  0
  162.0020  209.7460  148.7990 C   0  0  0  0  0  2  0  0  0  0  0  0
  162.3070  211.0890  149.0230 O   0  0  0  0  0  0  0  0  0  0  0  0
  161.6430  211.7750  148.0070 C   0  0  0  0  0  2  0  0  0  0  0  0
  162.5990  212.7430  147.3460 C   0  0  0  0  0  2  0  0  0  0  0  0
  161.9010  213.4450  146.2010 C   0  0  0  0  0  2  0  0  0  0  0  0
  162.7710  213.3700  144.9630 C   0  0  0  0  0  1  0  0  0  0  0  0
  1  7  2  0  0  0  0
  2  8  1  6  0  0  0
  2  3  1  0  0  0  0
  2  9  1  0  0  0  0
  3  6  1  0  0  0  0
  5  8  2  0  0  0  0
  6 14  1  0  0  0  0
  7  5  1  0  0  0  0
  7 15  1  0  0  0  0
  9 10  1  0  0  0  0
 10 21  1  6  0  0  0
 10 13  1  0  0  0  0
 11  3  2  0  0  0  0
 12 16  1  1  0  0  0
 13 12  1  0  0  0  0
 14 12  1  0  0  0  0
 14  4  1  1  0  0  0
 15 11  1  0  0  0  0
 16 17  1  6  0  0  0
 16 18  1  0  0  0  0
 18 20  1  0  0  0  0
 19 20  1  0  0  0  0
 22 23  1  0  0  0  0
 22 21  1  0  0  0  0
 24 23  1  0  0  0  0
 25 24  1  0  0  0  0
 26 25  1  0  0  0  0
 27 26  1  0  0  0  0
M  END
>  <MODEL>
3

>  <REMARK>
 VINA RESULT:      -6.7      2.565      5.801
  Name = 
  9 active torsions:
  status: ('A' for Active; 'I' for Inactive)
    1  A    between atoms: C_3  and  C_27
    2  A    between atoms: O_4  and  C_7
    3  A    between atoms: O_4  and  C_21
    4  A    between atoms: C_7  and  C_27
    5  A    between atoms: C_15  and  C_22
    6  A    between atoms: C_15  and  C_24
    7  A    between atoms: C_16  and  C_17
    8  A    between atoms: C_16  and  C_21
    9  A    between atoms: C_20  and  C_24
                            x       y       z     vdW  Elec       q    Type
                         _______ _______ _______ _____ _____    ______ ____

>  <TORSDO>
F 9

$$$$
=
 OpenBabel11042420453D

 27 28  0  0  1  0  0  0  0  0999 V2000
  162.1770  211.2790  157.2160 O   0  0  0  0  0  0  0  0  0  0  0  0
  160.5000  209.0380  153.8770 C   0  0  2  0  0  3  0  0  0  0  0  0
  161.2900  210.1360  153.2180 C   0  0  0  0  0  0  0  0  0  0  0  0
  161.7090  210.3450  149.5710 O   0  0  0  0  0  1  0  0  0  0  0  0
  160.4180  210.1220  156.1690 C   0  0  0  0  0  3  0  0  0  0  0  0
  160.9500  210.4890  151.8090 C   0  0  0  0  0  2  0  0  0  0  0  0
  161.8130  210.5980  156.2230 C   0  0  0  0  0  0  0  0  0  0  0  0
  159.8410  209.4580  155.1610 C   0  0  0  0  0  3  0  0  0  0  0  0
  161.2960  207.9000  154.0590 O   0  0  0  0  0  0  0  0  0  0  0  0
  161.0530  207.0940  152.9370 C   0  0  1  0  0  3  0  0  0  0  0  0
  162.3570  210.6980  153.8050 C   0  0  0  0  0  3  0  0  0  0  0  0
  161.4040  208.2380  150.7300 C   0  0  1  0  0  3  0  0  0  0  0  0
  162.0590  207.4100  151.8390 C   0  0  0  0  0  2  0  0  0  0  0  0
  161.8210  209.7210  150.8160 C   0  0  1  0  0  3  0  0  0  0  0  0
  162.8250  210.2840  155.1660 C   0  0  0  0  0  2  0  0  0  0  0  0
  161.6960  207.6190  149.3550 C   0  0  1  0  0  3  0  0  0  0  0  0
  162.9730  207.0520  149.3240 O   0  0  0  0  0  1  0  0  0  0  0  0
  160.6570  206.5730  148.9710 C   0  0  0  0  0  2  0  0  0  0  0  0
  160.7100  206.5700  146.5810 O   0  0  0  0  0  1  0  0  0  0  0  0
  161.0670  205.8290  147.7090 C   0  0  0  0  0  2  0  0  0  0  0  0
  161.1820  205.6280  153.3160 C   0  0  0  0  0  2  0  0  0  0  0  0
  161.1240  204.7400  152.0840 C   0  0  0  0  0  2  0  0  0  0  0  0
  160.7630  203.4410  152.4450 O   0  0  0  0  0  0  0  0  0  0  0  0
  161.3290  202.6320  151.4610 C   0  0  0  0  0  2  0  0  0  0  0  0
  160.7610  203.0100  150.1110 C   0  0  0  0  0  2  0  0  0  0  0  0
  160.2660  201.7670  149.4020 C   0  0  0  0  0  2  0  0  0  0  0  0
  160.9550  201.6490  148.0580 C   0  0  0  0  0  1  0  0  0  0  0  0
  2  9  1  0  0  0  0
  2  8  1  1  0  0  0
  3 11  2  0  0  0  0
  3  2  1  0  0  0  0
  5  7  1  0  0  0  0
  6  3  1  0  0  0  0
  7  1  2  0  0  0  0
  8  5  2  0  0  0  0
 10 21  1  1  0  0  0
 10  9  1  0  0  0  0
 11 15  1  0  0  0  0
 12 16  1  6  0  0  0
 12 14  1  0  0  0  0
 12 13  1  0  0  0  0
 13 10  1  0  0  0  0
 14  4  1  6  0  0  0
 14  6  1  0  0  0  0
 15  7  1  0  0  0  0
 16 17  1  1  0  0  0
 18 16  1  0  0  0  0
 19 20  1  0  0  0  0
 20 18  1  0  0  0  0
 22 23  1  0  0  0  0
 22 21  1  0  0  0  0
 24 23  1  0  0  0  0
 25 24  1  0  0  0  0
 26 25  1  0  0  0  0
 27 26  1  0  0  0  0
M  END
>  <MODEL>
4

>  <REMARK>
 VINA RESULT:      -6.2      2.423      6.766
  Name = 
  9 active torsions:
  status: ('A' for Active; 'I' for Inactive)
    1  A    between atoms: C_3  and  C_27
    2  A    between atoms: O_4  and  C_7
    3  A    between atoms: O_4  and  C_21
    4  A    between atoms: C_7  and  C_27
    5  A    between atoms: C_15  and  C_22
    6  A    between atoms: C_15  and  C_24
    7  A    between atoms: C_16  and  C_17
    8  A    between atoms: C_16  and  C_21
    9  A    between atoms: C_20  and  C_24
                            x       y       z     vdW  Elec       q    Type
                         _______ _______ _______ _____ _____    ______ ____

>  <TORSDO>
F 9

$$$$
=
 OpenBabel11042420453D

 27 28  0  0  1  0  0  0  0  0999 V2000
  160.7530  211.1970  153.3200 O   0  0  0  0  0  0  0  0  0  0  0  0
  162.1490  207.7880  150.9920 C   0  0  2  0  0  3  0  0  0  0  0  0
  161.6530  207.1750  152.2740 C   0  0  0  0  0  0  0  0  0  0  0  0
  161.5360  203.5380  152.8000 O   0  0  0  0  0  1  0  0  0  0  0  0
  162.2990  210.1590  151.8840 C   0  0  0  0  0  3  0  0  0  0  0  0
  162.1540  205.8170  152.6360 C   0  0  0  0  0  2  0  0  0  0  0  0
  161.0340  210.1750  152.6420 C   0  0  0  0  0  0  0  0  0  0  0  0
  162.7920  209.1340  151.1790 C   0  0  0  0  0  3  0  0  0  0  0  0
  161.1230  207.8390  150.0410 O   0  0  0  0  0  0  0  0  0  0  0  0
  161.2680  206.6730  149.2750 C   0  0  1  0  0  3  0  0  0  0  0  0
  160.6890  207.7460  153.0100 C   0  0  0  0  0  3  0  0  0  0  0  0
  161.3150  204.5460  150.6070 C   0  0  1  0  0  3  0  0  0  0  0  0
  160.4270  205.5500  149.8680 C   0  0  0  0  0  2  0  0  0  0  0  0
  161.2110  204.7230  152.1360 C   0  0  1  0  0  3  0  0  0  0  0  0
  160.0530  209.0450  152.6190 C   0  0  0  0  0  2  0  0  0  0  0  0
  160.9940  203.1130  150.1540 C   0  0  1  0  0  3  0  0  0  0  0  0
  159.6930  202.7550  150.5160 O   0  0  0  0  0  1  0  0  0  0  0  0
  161.1800  202.9380  148.6520 C   0  0  0  0  0  2  0  0  0  0  0  0
  161.5190  200.5760  148.5140 O   0  0  0  0  0  1  0  0  0  0  0  0
  160.6300  201.6000  148.1830 C   0  0  0  0  0  2  0  0  0  0  0  0
  160.8110  206.9310  147.8480 C   0  0  0  0  0  2  0  0  0  0  0  0
  161.7430  206.2650  146.8500 C   0  0  0  0  0  2  0  0  0  0  0  0
  161.0930  206.0950  145.6270 O   0  0  0  0  0  0  0  0  0  0  0  0
  161.9270  205.2470  144.8990 C   0  0  0  0  0  2  0  0  0  0  0  0
  161.6240  203.8100  145.2630 C   0  0  0  0  0  2  0  0  0  0  0  0
  160.2080  203.4690  144.8500 C   0  0  0  0  0  2  0  0  0  0  0  0
  160.0450  201.9630  144.8180 C   0  0  0  0  0  1  0  0  0  0  0  0
  2  8  1  1  0  0  0
  2  3  1  0  0  0  0
  3  6  1  0  0  0  0
  3 11  2  0  0  0  0
  5  7  1  0  0  0  0
  7  1  2  0  0  0  0
  8  5  2  0  0  0  0
  9  2  1  0  0  0  0
 10 21  1  6  0  0  0
 10 13  1  0  0  0  0
 10  9  1  0  0  0  0
 12 16  1  1  0  0  0
 12 14  1  0  0  0  0
 13 12  1  0  0  0  0
 14  6  1  0  0  0  0
 14  4  1  1  0  0  0
 15  7  1  0  0  0  0
 15 11  1  0  0  0  0
 16 17  1  6  0  0  0
 18 16  1  0  0  0  0
 20 19  1  0  0  0  0
 20 18  1  0  0  0  0
 22 21  1  0  0  0  0
 23 22  1  0  0  0  0
 24 25  1  0  0  0  0
 24 23  1  0  0  0  0
 26 25  1  0  0  0  0
 27 26  1  0  0  0  0
M  END
>  <MODEL>
5

>  <REMARK>
 VINA RESULT:      -6.1      1.763      5.910
  Name = 
  9 active torsions:
  status: ('A' for Active; 'I' for Inactive)
    1  A    between atoms: C_3  and  C_27
    2  A    between atoms: O_4  and  C_7
    3  A    between atoms: O_4  and  C_21
    4  A    between atoms: C_7  and  C_27
    5  A    between atoms: C_15  and  C_22
    6  A    between atoms: C_15  and  C_24
    7  A    between atoms: C_16  and  C_17
    8  A    between atoms: C_16  and  C_21
    9  A    between atoms: C_20  and  C_24
                            x       y       z     vdW  Elec       q    Type
                         _______ _______ _______ _____ _____    ______ ____

>  <TORSDO>
F 9

$$$$
=
 OpenBabel11042420453D

 27 28  0  0  1  0  0  0  0  0999 V2000
  162.0330  203.6980  144.8850 O   0  0  0  0  0  0  0  0  0  0  0  0
  160.7310  206.5780  147.8860 C   0  0  2  0  0  3  0  0  0  0  0  0
  161.0550  205.3430  148.6820 C   0  0  0  0  0  0  0  0  0  0  0  0
  160.9350  205.2830  152.3570 O   0  0  0  0  0  1  0  0  0  0  0  0
  160.6020  205.4060  145.6390 C   0  0  0  0  0  3  0  0  0  0  0  0
  160.4510  205.2130  150.0400 C   0  0  0  0  0  2  0  0  0  0  0  0
  161.7780  204.5280  145.7960 C   0  0  0  0  0  0  0  0  0  0  0  0
  160.1390  206.2840  146.5360 C   0  0  0  0  0  3  0  0  0  0  0  0
  161.8560  207.4050  147.7810 O   0  0  0  0  0  0  0  0  0  0  0  0
  161.7370  208.3270  148.8320 C   0  0  1  0  0  3  0  0  0  0  0  0
  161.9600  204.4450  148.2680 C   0  0  0  0  0  3  0  0  0  0  0  0
  161.4410  207.2940  151.1010 C   0  0  1  0  0  3  0  0  0  0  0  0
  162.4530  207.8020  150.0700 C   0  0  0  0  0  2  0  0  0  0  0  0
  161.3880  205.7520  151.1210 C   0  0  1  0  0  3  0  0  0  0  0  0
  162.6980  204.5980  146.9740 C   0  0  0  0  0  2  0  0  0  0  0  0
  161.7380  207.8940  152.4840 C   0  0  1  0  0  3  0  0  0  0  0  0
  162.3300  209.1540  152.3650 O   0  0  0  0  0  1  0  0  0  0  0  0
  160.4820  207.9910  153.3410 C   0  0  0  0  0  2  0  0  0  0  0  0
  160.1880  207.0240  155.5070 O   0  0  0  0  0  1  0  0  0  0  0  0
  160.8310  208.0560  154.8200 C   0  0  0  0  0  2  0  0  0  0  0  0
  162.3580  209.6540  148.4290 C   0  0  0  0  0  2  0  0  0  0  0  0
  161.6270  210.8170  149.0800 C   0  0  0  0  0  2  0  0  0  0  0  0
  161.4470  211.8470  148.1570 O   0  0  0  0  0  0  0  0  0  0  0  0
  161.0760  212.9490  148.9260 C   0  0  0  0  0  2  0  0  0  0  0  0
  159.7280  213.4550  148.4630 C   0  0  0  0  0  2  0  0  0  0  0  0
  158.8480  213.7280  149.6640 C   0  0  0  0  0  2  0  0  0  0  0  0
  157.4220  213.3310  149.3410 C   0  0  0  0  0  1  0  0  0  0  0  0
  1  7  2  0  0  0  0
  2  8  1  6  0  0  0
  2  3  1  0  0  0  0
  3  6  1  0  0  0  0
  5  7  1  0  0  0  0
  5  8  2  0  0  0  0
  6 14  1  0  0  0  0
  7 15  1  0  0  0  0
  9  2  1  0  0  0  0
  9 10  1  0  0  0  0
 10 21  1  6  0  0  0
 10 13  1  0  0  0  0
 11  3  2  0  0  0  0
 12 14  1  0  0  0  0
 12 16  1  1  0  0  0
 13 12  1  0  0  0  0
 14  4  1  1  0  0  0
 15 11  1  0  0  0  0
 16 17  1  6  0  0  0
 16 18  1  0  0  0  0
 18 20  1  0  0  0  0
 20 19  1  0  0  0  0
 21 22  1  0  0  0  0
 23 24  1  0  0  0  0
 23 22  1  0  0  0  0
 25 24  1  0  0  0  0
 25 26  1  0  0  0  0
 27 26  1  0  0  0  0
M  END
>  <MODEL>
6

>  <REMARK>
 VINA RESULT:      -5.4      2.804      6.085
  Name = 
  9 active torsions:
  status: ('A' for Active; 'I' for Inactive)
    1  A    between atoms: C_3  and  C_27
    2  A    between atoms: O_4  and  C_7
    3  A    between atoms: O_4  and  C_21
    4  A    between atoms: C_7  and  C_27
    5  A    between atoms: C_15  and  C_22
    6  A    between atoms: C_15  and  C_24
    7  A    between atoms: C_16  and  C_17
    8  A    between atoms: C_16  and  C_21
    9  A    between atoms: C_20  and  C_24
                            x       y       z     vdW  Elec       q    Type
                         _______ _______ _______ _____ _____    ______ ____

>  <TORSDO>
F 9

$$$$
=
 OpenBabel11042420453D

 27 28  0  0  1  0  0  0  0  0999 V2000
  161.4550  200.9460  150.6420 O   0  0  0  0  0  0  0  0  0  0  0  0
  160.4980  205.1930  150.4430 C   0  0  2  0  0  3  0  0  0  0  0  0
  160.8270  204.9600  151.8930 C   0  0  0  0  0  0  0  0  0  0  0  0
  160.9740  207.7010  154.3410 O   0  0  0  0  0  1  0  0  0  0  0  0
  160.1560  202.7460  149.8640 C   0  0  0  0  0  3  0  0  0  0  0  0
  160.3190  205.9490  152.8890 C   0  0  0  0  0  2  0  0  0  0  0  0
  161.3020  202.1940  150.6130 C   0  0  0  0  0  0  0  0  0  0  0  0
  159.7970  204.0330  149.7930 C   0  0  0  0  0  3  0  0  0  0  0  0
  161.6460  205.5610  149.7310 O   0  0  0  0  0  0  0  0  0  0  0  0
  161.6430  206.9640  149.7210 C   0  0  1  0  0  3  0  0  0  0  0  0
  161.6610  203.9880  152.2880 C   0  0  0  0  0  3  0  0  0  0  0  0
  161.4710  208.0240  151.9900 C   0  0  1  0  0  3  0  0  0  0  0  0
  162.4240  207.4950  150.9160 C   0  0  0  0  0  2  0  0  0  0  0  0
  161.3540  207.0380  153.1710 C   0  0  1  0  0  3  0  0  0  0  0  0
  162.3080  203.0510  151.3140 C   0  0  0  0  0  2  0  0  0  0  0  0
  161.8930  209.4330  152.4350 C   0  0  1  0  0  3  0  0  0  0  0  0
  162.8870  209.9440  151.5970 O   0  0  0  0  0  1  0  0  0  0  0  0
  160.7100  210.3910  152.4790 C   0  0  0  0  0  2  0  0  0  0  0  0
  161.7690  210.8260  154.5780 O   0  0  0  0  0  1  0  0  0  0  0  0
  160.7600  211.2680  153.7210 C   0  0  0  0  0  2  0  0  0  0  0  0
  162.2880  207.4740  148.4440 C   0  0  0  0  0  2  0  0  0  0  0  0
  162.3260  206.3870  147.3820 C   0  0  0  0  0  2  0  0  0  0  0  0
  161.2830  206.5700  146.4720 O   0  0  0  0  0  0  0  0  0  0  0  0
  161.4040  205.5060  145.5800 C   0  0  0  0  0  2  0  0  0  0  0  0
  161.5030  204.2090  146.3540 C   0  0  0  0  0  2  0  0  0  0  0  0
  161.0920  203.0540  145.4660 C   0  0  0  0  0  2  0  0  0  0  0  0
  160.8330  201.8310  146.3230 C   0  0  0  0  0  1  0  0  0  0  0  0
  2  8  1  6  0  0  0
  2  3  1  0  0  0  0
  3 11  2  0  0  0  0
  3  6  1  0  0  0  0
  5  7  1  0  0  0  0
  6 14  1  0  0  0  0
  7  1  2  0  0  0  0
  7 15  1  0  0  0  0
  8  5  2  0  0  0  0
  9  2  1  0  0  0  0
 10 21  1  6  0  0  0
 10  9  1  0  0  0  0
 10 13  1  0  0  0  0
 12 16  1  1  0  0  0
 12 14  1  0  0  0  0
 13 12  1  0  0  0  0
 14  4  1  1  0  0  0
 15 11  1  0  0  0  0
 16 17  1  6  0  0  0
 16 18  1  0  0  0  0
 18 20  1  0  0  0  0
 20 19  1  0  0  0  0
 22 21  1  0  0  0  0
 23 22  1  0  0  0  0
 24 25  1  0  0  0  0
 24 23  1  0  0  0  0
 26 27  1  0  0  0  0
 26 25  1  0  0  0  0
M  END
>  <MODEL>
7

>  <REMARK>
 VINA RESULT:      -5.4      1.733      4.464
  Name = 
  9 active torsions:
  status: ('A' for Active; 'I' for Inactive)
    1  A    between atoms: C_3  and  C_27
    2  A    between atoms: O_4  and  C_7
    3  A    between atoms: O_4  and  C_21
    4  A    between atoms: C_7  and  C_27
    5  A    between atoms: C_15  and  C_22
    6  A    between atoms: C_15  and  C_24
    7  A    between atoms: C_16  and  C_17
    8  A    between atoms: C_16  and  C_21
    9  A    between atoms: C_20  and  C_24
                            x       y       z     vdW  Elec       q    Type
                         _______ _______ _______ _____ _____    ______ ____

>  <TORSDO>
F 9

$$$$
=
 OpenBabel11042420453D

 27 28  0  0  1  0  0  0  0  0999 V2000
  161.7350  202.6680  152.3720 O   0  0  0  0  0  0  0  0  0  0  0  0
  160.7020  206.0870  149.8770 C   0  0  2  0  0  3  0  0  0  0  0  0
  161.2120  206.7060  151.1500 C   0  0  0  0  0  0  0  0  0  0  0  0
  161.6240  210.3390  151.5460 O   0  0  0  0  0  1  0  0  0  0  0  0
  160.3250  203.7750  150.8500 C   0  0  0  0  0  3  0  0  0  0  0  0
  160.8180  208.1150  151.4460 C   0  0  0  0  0  2  0  0  0  0  0  0
  161.5620  203.6820  151.6480 C   0  0  0  0  0  0  0  0  0  0  0  0
  159.9420  204.8090  150.0930 C   0  0  0  0  0  3  0  0  0  0  0  0
  161.7470  205.9130  148.9610 O   0  0  0  0  0  0  0  0  0  0  0  0
  161.7230  207.0560  148.1480 C   0  0  1  0  0  3  0  0  0  0  0  0
  162.1020  206.0860  151.9380 C   0  0  0  0  0  3  0  0  0  0  0  0
  161.8200  209.2300  149.3990 C   0  0  1  0  0  3  0  0  0  0  0  0
  162.6400  208.1260  148.7270 C   0  0  0  0  0  2  0  0  0  0  0  0
  161.8650  209.1050  150.9360 C   0  0  1  0  0  3  0  0  0  0  0  0
  162.6360  204.7240  151.6140 C   0  0  0  0  0  2  0  0  0  0  0  0
  162.2750  210.6120  148.9040 C   0  0  1  0  0  3  0  0  0  0  0  0
  163.3090  210.4930  147.9720 O   0  0  0  0  0  1  0  0  0  0  0  0
  161.1220  211.4050  148.3000 C   0  0  0  0  0  2  0  0  0  0  0  0
  162.1740  213.5510  148.3760 O   0  0  0  0  0  1  0  0  0  0  0  0
  161.0820  212.8220  148.8520 C   0  0  0  0  0  2  0  0  0  0  0  0
  162.1980  206.7050  146.7480 C   0  0  0  0  0  2  0  0  0  0  0  0
  162.4930  205.2180  146.6310 C   0  0  0  0  0  2  0  0  0  0  0  0
  162.1020  204.7500  145.3760 O   0  0  0  0  0  0  0  0  0  0  0  0
  161.2050  203.7180  145.6490 C   0  0  0  0  0  2  0  0  0  0  0  0
  161.5530  203.0880  146.9800 C   0  0  0  0  0  2  0  0  0  0  0  0
  160.8500  201.7540  147.1100 C   0  0  0  0  0  2  0  0  0  0  0  0
  161.1620  201.1530  148.4650 C   0  0  0  0  0  1  0  0  0  0  0  0
  2  8  1  1  0  0  0
  2  3  1  0  0  0  0
  3  6  1  0  0  0  0
  3 11  2  0  0  0  0
  5  7  1  0  0  0  0
  7  1  2  0  0  0  0
  8  5  2  0  0  0  0
  9  2  1  0  0  0  0
 10 21  1  6  0  0  0
 10 13  1  0  0  0  0
 10  9  1  0  0  0  0
 12 16  1  1  0  0  0
 12 14  1  0  0  0  0
 13 12  1  0  0  0  0
 14  6  1  0  0  0  0
 14  4  1  1  0  0  0
 15  7  1  0  0  0  0
 15 11  1  0  0  0  0
 16 17  1  6  0  0  0
 18 20  1  0  0  0  0
 18 16  1  0  0  0  0
 19 20  1  0  0  0  0
 22 21  1  0  0  0  0
 23 24  1  0  0  0  0
 23 22  1  0  0  0  0
 24 25  1  0  0  0  0
 25 26  1  0  0  0  0
 26 27  1  0  0  0  0
M  END
>  <MODEL>
8

>  <REMARK>
 VINA RESULT:      -5.2      2.081      5.017
  Name = 
  9 active torsions:
  status: ('A' for Active; 'I' for Inactive)
    1  A    between atoms: C_3  and  C_27
    2  A    between atoms: O_4  and  C_7
    3  A    between atoms: O_4  and  C_21
    4  A    between atoms: C_7  and  C_27
    5  A    between atoms: C_15  and  C_22
    6  A    between atoms: C_15  and  C_24
    7  A    between atoms: C_16  and  C_17
    8  A    between atoms: C_16  and  C_21
    9  A    between atoms: C_20  and  C_24
                            x       y       z     vdW  Elec       q    Type
                         _______ _______ _______ _____ _____    ______ ____

>  <TORSDO>
F 9

$$$$
=
 OpenBabel11042420453D

 27 28  0  0  1  0  0  0  0  0999 V2000
  162.6830  209.5400  151.3420 O   0  0  0  0  0  0  0  0  0  0  0  0
  160.6130  206.2620  149.3520 C   0  0  2  0  0  3  0  0  0  0  0  0
  161.1850  207.0730  148.2200 C   0  0  0  0  0  0  0  0  0  0  0  0
  160.9260  206.0090  144.7090 O   0  0  0  0  0  1  0  0  0  0  0  0
  160.8600  208.0720  151.1130 C   0  0  0  0  0  3  0  0  0  0  0  0
  160.5710  206.9120  146.8690 C   0  0  0  0  0  2  0  0  0  0  0  0
  162.2010  208.5530  150.7290 C   0  0  0  0  0  0  0  0  0  0  0  0
  160.1650  207.0950  150.5200 C   0  0  0  0  0  3  0  0  0  0  0  0
  161.5140  205.2670  149.7480 O   0  0  0  0  0  0  0  0  0  0  0  0
  161.1370  204.1190  149.0350 C   0  0  1  0  0  3  0  0  0  0  0  0
  162.2930  207.8140  148.3630 C   0  0  0  0  0  3  0  0  0  0  0  0
  160.9970  204.4310  146.5480 C   0  0  1  0  0  3  0  0  0  0  0  0
  161.9030  204.0460  147.7210 C   0  0  0  0  0  2  0  0  0  0  0  0
  161.3080  205.8570  146.0450 C   0  0  1  0  0  3  0  0  0  0  0  0
  163.0280  207.9020  149.6650 C   0  0  0  0  0  2  0  0  0  0  0  0
  161.0850  203.3780  145.4340 C   0  0  1  0  0  3  0  0  0  0  0  0
  162.3290  203.4250  144.7990 O   0  0  0  0  0  1  0  0  0  0  0  0
  160.8280  201.9720  145.9610 C   0  0  0  0  0  2  0  0  0  0  0  0
  160.4030  199.8110  145.0320 O   0  0  0  0  0  1  0  0  0  0  0  0
  160.0200  201.1520  144.9670 C   0  0  0  0  0  2  0  0  0  0  0  0
  161.4450  202.8760  149.8550 C   0  0  0  0  0  2  0  0  0  0  0  0
  160.8900  203.0040  151.2640 C   0  0  0  0  0  2  0  0  0  0  0  0
  161.7470  203.7770  152.0480 O   0  0  0  0  0  0  0  0  0  0  0  0
  160.9050  204.4460  152.9350 C   0  0  0  0  0  2  0  0  0  0  0  0
  161.6060  205.6810  153.4600 C   0  0  0  0  0  2  0  0  0  0  0  0
  160.6850  206.4260  154.4010 C   0  0  0  0  0  2  0  0  0  0  0  0
  161.2240  207.8240  154.6270 C   0  0  0  0  0  1  0  0  0  0  0  0
  2  9  1  0  0  0  0
  2  8  1  1  0  0  0
  3 11  2  0  0  0  0
  3  2  1  0  0  0  0
  6  3  1  0  0  0  0
  7  5  1  0  0  0  0
  7  1  2  0  0  0  0
  8  5  2  0  0  0  0
 10  9  1  0  0  0  0
 10 21  1  1  0  0  0
 11 15  1  0  0  0  0
 12 16  1  6  0  0  0
 12 13  1  0  0  0  0
 13 10  1  0  0  0  0
 14  4  1  6  0  0  0
 14 12  1  0  0  0  0
 14  6  1  0  0  0  0
 15  7  1  0  0  0  0
 16 17  1  1  0  0  0
 16 18  1  0  0  0  0
 20 19  1  0  0  0  0
 20 18  1  0  0  0  0
 21 22  1  0  0  0  0
 22 23  1  0  0  0  0
 23 24  1  0  0  0  0
 24 25  1  0  0  0  0
 25 26  1  0  0  0  0
 26 27  1  0  0  0  0
M  END
>  <MODEL>
9

>  <REMARK>
 VINA RESULT:      -4.9      1.687      6.629
  Name = 
  9 active torsions:
  status: ('A' for Active; 'I' for Inactive)
    1  A    between atoms: C_3  and  C_27
    2  A    between atoms: O_4  and  C_7
    3  A    between atoms: O_4  and  C_21
    4  A    between atoms: C_7  and  C_27
    5  A    between atoms: C_15  and  C_22
    6  A    between atoms: C_15  and  C_24
    7  A    between atoms: C_16  and  C_17
    8  A    between atoms: C_16  and  C_21
    9  A    between atoms: C_20  and  C_24
                            x       y       z     vdW  Elec       q    Type
                         _______ _______ _______ _____ _____    ______ ____

>  <TORSDO>
F 9

$$$$
