=
 OpenBabel11052409313D

 38 43  0  0  1  0  0  0  0  0999 V2000
  160.8960  208.9210  152.8370 C   0  0  0  0  0  0  0  0  0  0  0  0
  161.3410  206.7390  154.6000 C   0  0  0  0  0  3  0  0  0  0  0  0
  160.6090  211.4870  155.5570 C   0  0  0  0  0  2  0  0  0  0  0  0
  161.1900  208.0150  155.1490 C   0  0  0  0  0  0  0  0  0  0  0  0
  160.9290  209.1070  154.2270 C   0  0  0  0  0  0  0  0  0  0  0  0
  161.2260  206.5240  153.2250 C   0  0  0  0  0  0  0  0  0  0  0  0
  160.7770  210.2600  154.9260 C   0  0  0  0  0  0  0  0  0  0  0  0
  161.1750  209.4340  157.2600 N   0  0  0  0  0  0  0  0  0  0  0  0
  161.0510  207.6210  152.3450 C   0  0  0  0  0  3  0  0  0  0  0  0
  161.3230  208.2070  156.6070 C   0  0  0  0  0  3  0  0  0  0  0  0
  160.8910  210.3830  156.3540 C   0  0  0  0  0  0  0  0  0  0  0  0
  161.0970  204.2720  150.3030 C   0  0  0  0  0  0  0  0  0  0  0  0
  161.6090  204.9790  149.1230 C   0  0  0  0  0  3  0  0  0  0  0  0
  161.0890  202.3670  146.5300 O   0  0  0  0  0  1  0  0  0  0  0  0
  160.3190  203.0020  150.1530 C   0  0  2  0  0  3  0  0  0  0  0  0
  161.4520  205.1640  152.7380 C   0  0  0  0  0  3  0  0  0  0  0  0
  161.2770  204.7690  151.5020 C   0  0  0  0  0  0  0  0  0  0  0  0
  160.6880  202.0770  151.1120 F   0  0  0  0  0  0  0  0  0  0  0  0
  161.0260  203.0240  147.7520 C   0  0  0  0  0  0  0  0  0  0  0  0
  161.5740  204.4130  147.9100 C   0  0  0  0  0  0  0  0  0  0  0  0
  160.4780  202.3780  148.7880 C   0  0  0  0  0  3  0  0  0  0  0  0
  162.0920  205.1520  146.8330 O   0  0  0  0  0  0  0  0  0  0  0  0
  161.2970  205.9030  145.9250 C   0  0  0  0  0  1  0  0  0  0  0  0
  159.9980  211.0870  151.8500 C   0  0  0  0  0  0  0  0  0  0  0  0
  160.1260  212.1160  150.9080 C   0  0  0  0  0  3  0  0  0  0  0  0
  160.9780  210.0770  151.9120 C   0  0  0  0  0  0  0  0  0  0  0  0
  162.1780  211.1470  150.0840 C   0  0  0  0  0  3  0  0  0  0  0  0
  162.0650  210.1270  151.0310 C   0  0  0  0  0  3  0  0  0  0  0  0
  161.2180  212.1520  150.0210 C   0  0  0  0  0  0  0  0  0  0  0  0
  158.8370  211.0950  152.7890 C   0  0  0  0  0  1  0  0  0  0  0  0
  161.2960  213.1030  148.9530 N   0  0  0  0  0  2  0  0  0  0  0  0
  160.3700  211.8590  147.1840 O   0  0  0  0  0  0  0  0  0  0  0  0
  161.0210  212.8720  147.5590 C   0  0  0  0  0  0  0  0  0  0  0  0
  160.9240  214.3010  144.1710 C   0  0  0  0  0  2  0  0  0  0  0  0
  162.4220  214.1430  144.3850 C   0  0  0  0  0  2  0  0  0  0  0  0
  160.2780  214.1850  145.5400 C   0  0  0  0  0  2  0  0  0  0  0  0
  161.4040  213.8970  146.5320 C   0  0  0  0  0  3  0  0  0  0  0  0
  162.5630  213.4060  145.7020 C   0  0  0  0  0  2  0  0  0  0  0  0
  1  5  1  0  0  0  0
  2  4  1  0  0  0  0
  3 11  1  0  0  0  0
  4 10  1  0  0  0  0
  5  7  1  0  0  0  0
  5  4  2  0  0  0  0
  6  2  2  0  0  0  0
  7  3  1  0  0  0  0
  7 11  2  0  0  0  0
  9  1  2  0  0  0  0
  9  6  1  0  0  0  0
 10  8  2  0  0  0  0
 11  8  1  0  0  0  0
 12 17  2  0  0  0  0
 13 12  1  0  0  0  0
 14 19  1  0  0  0  0
 15 12  1  0  0  0  0
 15 18  1  1  0  0  0
 16  6  1  0  0  0  0
 17 16  2  0  0  0  0
 19 20  1  0  0  0  0
 19 21  2  0  0  0  0
 20 13  2  0  0  0  0
 21 15  1  0  0  0  0
 22 20  1  0  0  0  0
 23 22  1  0  0  0  0
 24 26  1  0  0  0  0
 24 30  1  0  0  0  0
 25 24  2  0  0  0  0
 26  1  1  0  0  0  0
 27 28  1  0  0  0  0
 28 26  2  0  0  0  0
 29 27  2  0  0  0  0
 29 25  1  0  0  0  0
 31 29  1  0  0  0  0
 32 33  2  0  0  0  0
 33 31  1  0  0  0  0
 34 35  1  0  0  0  0
 34 36  1  0  0  0  0
 35 38  1  0  0  0  0
 36 37  1  0  0  0  0
 37 33  1  0  0  0  0
 38 37  1  0  0  0  0
M  END
>  <MODEL>
1

>  <REMARK>
 VINA RESULT:      -9.5      0.000      0.000
  Name = 
  5 active torsions:
  status: ('A' for Active; 'I' for Inactive)
    1  A    between atoms: N_2  and  C_35
    2  A    between atoms: C_3  and  C_14
    3  A    between atoms: O_12  and  C_30
    4  A    between atoms: C_17  and  C_23
    5  A    between atoms: C_19  and  C_25
                            x       y       z     vdW  Elec       q    Type
                         _______ _______ _______ _____ _____    ______ ____

>  <TORSDO>
F 5

$$$$
=
 OpenBabel11052409313D

 38 43  0  0  1  0  0  0  0  0999 V2000
  161.6160  208.4480  150.8810 C   0  0  0  0  0  0  0  0  0  0  0  0
  161.5190  211.2470  151.3570 C   0  0  0  0  0  3  0  0  0  0  0  0
  160.5580  207.4890  154.3480 C   0  0  0  0  0  2  0  0  0  0  0  0
  161.1600  210.3840  152.3950 C   0  0  0  0  0  0  0  0  0  0  0  0
  161.2530  208.9580  152.1360 C   0  0  0  0  0  0  0  0  0  0  0  0
  161.9650  210.7540  150.1290 C   0  0  0  0  0  0  0  0  0  0  0  0
  160.9020  208.2730  153.2530 C   0  0  0  0  0  0  0  0  0  0  0  0
  160.3200  210.1690  154.7880 N   0  0  0  0  0  0  0  0  0  0  0  0
  161.9670  209.3600  149.8790 C   0  0  0  0  0  3  0  0  0  0  0  0
  160.6880  210.9400  153.6810 C   0  0  0  0  0  3  0  0  0  0  0  0
  160.4750  208.8680  154.4900 C   0  0  0  0  0  0  0  0  0  0  0  0
  160.6930  212.5200  147.1470 C   0  0  0  0  0  0  0  0  0  0  0  0
  159.3000  212.9190  147.3780 C   0  0  0  0  0  3  0  0  0  0  0  0
  158.5130  214.4460  144.0820 O   0  0  0  0  0  1  0  0  0  0  0  0
  161.2710  212.5290  145.7660 C   0  0  2  0  0  3  0  0  0  0  0  0
  162.2670  211.7320  149.0850 C   0  0  0  0  0  3  0  0  0  0  0  0
  161.4370  212.1090  148.1440 C   0  0  0  0  0  0  0  0  0  0  0  0
  162.5600  213.0290  145.7700 F   0  0  0  0  0  0  0  0  0  0  0  0
  159.2000  213.7490  145.0670 C   0  0  0  0  0  0  0  0  0  0  0  0
  158.5750  213.4890  146.4060 C   0  0  0  0  0  0  0  0  0  0  0  0
  160.4410  213.3290  144.7920 C   0  0  0  0  0  3  0  0  0  0  0  0
  157.2510  213.8490  146.7090 O   0  0  0  0  0  0  0  0  0  0  0  0
  156.7480  214.0040  148.0300 C   0  0  0  0  0  1  0  0  0  0  0  0
  161.9900  205.9520  151.2020 C   0  0  0  0  0  0  0  0  0  0  0  0
  161.7440  204.6410  150.7750 C   0  0  0  0  0  3  0  0  0  0  0  0
  161.3700  207.0270  150.5350 C   0  0  0  0  0  0  0  0  0  0  0  0
  160.2830  205.4510  149.0320 C   0  0  0  0  0  3  0  0  0  0  0  0
  160.5130  206.7600  149.4610 C   0  0  0  0  0  3  0  0  0  0  0  0
  160.8870  204.3840  149.6890 C   0  0  0  0  0  0  0  0  0  0  0  0
  162.8880  206.1850  152.3720 C   0  0  0  0  0  1  0  0  0  0  0  0
  160.7350  203.0710  149.1380 N   0  0  0  0  0  2  0  0  0  0  0  0
  161.8120  203.3320  147.0630 O   0  0  0  0  0  0  0  0  0  0  0  0
  161.0570  202.6440  147.8020 C   0  0  0  0  0  0  0  0  0  0  0  0
  161.6290  199.3370  146.2940 C   0  0  0  0  0  2  0  0  0  0  0  0
  160.5690  199.9100  145.3640 C   0  0  0  0  0  2  0  0  0  0  0  0
  161.6190  200.2000  147.5430 C   0  0  0  0  0  2  0  0  0  0  0  0
  160.5930  201.3070  147.3010 C   0  0  0  0  0  3  0  0  0  0  0  0
  160.3780  201.3460  145.8100 C   0  0  0  0  0  2  0  0  0  0  0  0
  1  5  1  0  0  0  0
  2  4  1  0  0  0  0
  3 11  1  0  0  0  0
  4 10  1  0  0  0  0
  5  4  2  0  0  0  0
  5  7  1  0  0  0  0
  6  2  2  0  0  0  0
  7  3  1  0  0  0  0
  7 11  2  0  0  0  0
  9  6  1  0  0  0  0
  9  1  2  0  0  0  0
 10  8  2  0  0  0  0
 11  8  1  0  0  0  0
 12 13  1  0  0  0  0
 12 17  2  0  0  0  0
 14 19  1  0  0  0  0
 15 18  1  1  0  0  0
 15 12  1  0  0  0  0
 16  6  1  0  0  0  0
 17 16  2  0  0  0  0
 19 20  1  0  0  0  0
 20 22  1  0  0  0  0
 20 13  2  0  0  0  0
 21 19  2  0  0  0  0
 21 15  1  0  0  0  0
 22 23  1  0  0  0  0
 24 30  1  0  0  0  0
 25 24  1  0  0  0  0
 26  1  1  0  0  0  0
 26 24  2  0  0  0  0
 27 28  2  0  0  0  0
 27 29  1  0  0  0  0
 28 26  1  0  0  0  0
 29 25  2  0  0  0  0
 31 29  1  0  0  0  0
 32 33  2  0  0  0  0
 33 31  1  0  0  0  0
 34 36  1  0  0  0  0
 35 38  1  0  0  0  0
 35 34  1  0  0  0  0
 37 36  1  0  0  0  0
 37 33  1  0  0  0  0
 38 37  1  0  0  0  0
M  END
>  <MODEL>
2

>  <REMARK>
 VINA RESULT:      -8.3      3.278      8.685
  Name = 
  5 active torsions:
  status: ('A' for Active; 'I' for Inactive)
    1  A    between atoms: N_2  and  C_35
    2  A    between atoms: C_3  and  C_14
    3  A    between atoms: O_12  and  C_30
    4  A    between atoms: C_17  and  C_23
    5  A    between atoms: C_19  and  C_25
                            x       y       z     vdW  Elec       q    Type
                         _______ _______ _______ _____ _____    ______ ____

>  <TORSDO>
F 5

$$$$
=
 OpenBabel11052409313D

 38 43  0  0  1  0  0  0  0  0999 V2000
  161.6970  205.7560  147.9800 C   0  0  0  0  0  0  0  0  0  0  0  0
  161.2850  206.1160  150.7670 C   0  0  0  0  0  3  0  0  0  0  0  0
  161.0260  202.0670  148.0220 C   0  0  0  0  0  2  0  0  0  0  0  0
  161.1140  204.8370  150.2310 C   0  0  0  0  0  0  0  0  0  0  0  0
  161.3660  204.6750  148.8090 C   0  0  0  0  0  0  0  0  0  0  0  0
  161.6980  207.1850  149.9700 C   0  0  0  0  0  0  0  0  0  0  0  0
  161.1870  203.3740  148.4660 C   0  0  0  0  0  0  0  0  0  0  0  0
  160.4870  202.4110  150.6720 N   0  0  0  0  0  0  0  0  0  0  0  0
  161.8560  207.0130  148.5730 C   0  0  0  0  0  3  0  0  0  0  0  0
  160.6720  203.7290  151.1020 C   0  0  0  0  0  3  0  0  0  0  0  0
  160.7810  202.3290  149.3640 C   0  0  0  0  0  0  0  0  0  0  0  0
  160.8610  209.1940  152.9520 C   0  0  0  0  0  0  0  0  0  0  0  0
  161.0720  208.3840  154.1570 C   0  0  0  0  0  3  0  0  0  0  0  0
  159.9350  210.7850  156.7560 O   0  0  0  0  0  1  0  0  0  0  0  0
  160.0680  210.4630  153.0150 C   0  0  2  0  0  3  0  0  0  0  0  0
  161.7970  208.4970  150.6090 C   0  0  0  0  0  3  0  0  0  0  0  0
  161.3270  208.7930  151.7950 C   0  0  0  0  0  0  0  0  0  0  0  0
  160.6580  211.4550  152.2540 F   0  0  0  0  0  0  0  0  0  0  0  0
  160.1720  210.2310  155.5050 C   0  0  0  0  0  0  0  0  0  0  0  0
  160.7430  208.8490  155.3690 C   0  0  0  0  0  0  0  0  0  0  0  0
  159.8910  210.9690  154.4250 C   0  0  0  0  0  3  0  0  0  0  0  0
  160.9850  208.0150  156.4730 O   0  0  0  0  0  0  0  0  0  0  0  0
  160.0540  207.0650  156.9750 C   0  0  0  0  0  1  0  0  0  0  0  0
  162.6340  205.0960  145.7080 C   0  0  0  0  0  0  0  0  0  0  0  0
  162.4900  205.0740  144.3150 C   0  0  0  0  0  3  0  0  0  0  0  0
  161.6060  205.6410  146.5040 C   0  0  0  0  0  0  0  0  0  0  0  0
  160.3270  206.1340  144.4930 C   0  0  0  0  0  3  0  0  0  0  0  0
  160.4580  206.1450  145.8830 C   0  0  0  0  0  3  0  0  0  0  0  0
  161.3340  205.5920  143.7000 C   0  0  0  0  0  0  0  0  0  0  0  0
  163.8650  204.5180  146.3260 C   0  0  0  0  0  1  0  0  0  0  0  0
  161.2260  205.7190  142.2780 N   0  0  0  0  0  2  0  0  0  0  0  0
  163.0690  207.1060  141.8150 O   0  0  0  0  0  0  0  0  0  0  0  0
  161.9890  206.5870  141.4210 C   0  0  0  0  0  0  0  0  0  0  0  0
  162.7040  207.1570  137.8570 C   0  0  0  0  0  2  0  0  0  0  0  0
  161.7730  208.3220  138.1650 C   0  0  0  0  0  2  0  0  0  0  0  0
  162.5490  206.1680  138.9980 C   0  0  0  0  0  2  0  0  0  0  0  0
  161.5750  206.7980  139.9930 C   0  0  0  0  0  3  0  0  0  0  0  0
  161.5460  208.2680  139.6620 C   0  0  0  0  0  2  0  0  0  0  0  0
  1  9  2  0  0  0  0
  1  5  1  0  0  0  0
  3  7  1  0  0  0  0
  3 11  1  0  0  0  0
  4  2  1  0  0  0  0
  4 10  1  0  0  0  0
  5  4  2  0  0  0  0
  6 16  1  0  0  0  0
  6  2  2  0  0  0  0
  7  5  1  0  0  0  0
  7 11  2  0  0  0  0
  8 10  2  0  0  0  0
  9  6  1  0  0  0  0
 11  8  1  0  0  0  0
 12 15  1  0  0  0  0
 12 13  1  0  0  0  0
 13 20  2  0  0  0  0
 15 18  1  6  0  0  0
 15 21  1  0  0  0  0
 16 17  2  0  0  0  0
 17 12  2  0  0  0  0
 19 14  1  0  0  0  0
 20 19  1  0  0  0  0
 20 22  1  0  0  0  0
 21 19  2  0  0  0  0
 22 23  1  0  0  0  0
 24 30  1  0  0  0  0
 24 26  1  0  0  0  0
 25 24  2  0  0  0  0
 26  1  1  0  0  0  0
 27 28  1  0  0  0  0
 28 26  2  0  0  0  0
 29 25  1  0  0  0  0
 29 27  2  0  0  0  0
 31 29  1  0  0  0  0
 33 32  2  0  0  0  0
 33 31  1  0  0  0  0
 34 35  1  0  0  0  0
 34 36  1  0  0  0  0
 35 38  1  0  0  0  0
 36 37  1  0  0  0  0
 37 33  1  0  0  0  0
 38 37  1  0  0  0  0
M  END
>  <MODEL>
3

>  <REMARK>
 VINA RESULT:      -8.3      4.723      8.589
  Name = 
  5 active torsions:
  status: ('A' for Active; 'I' for Inactive)
    1  A    between atoms: N_2  and  C_35
    2  A    between atoms: C_3  and  C_14
    3  A    between atoms: O_12  and  C_30
    4  A    between atoms: C_17  and  C_23
    5  A    between atoms: C_19  and  C_25
                            x       y       z     vdW  Elec       q    Type
                         _______ _______ _______ _____ _____    ______ ____

>  <TORSDO>
F 5

$$$$
=
 OpenBabel11052409313D

 38 43  0  0  1  0  0  0  0  0999 V2000
  161.3220  208.5260  152.3570 C   0  0  0  0  0  0  0  0  0  0  0  0
  162.1340  207.1550  150.0050 C   0  0  0  0  0  3  0  0  0  0  0  0
  161.4840  211.9420  150.8180 C   0  0  0  0  0  2  0  0  0  0  0  0
  161.9980  208.5440  149.9500 C   0  0  0  0  0  0  0  0  0  0  0  0
  161.6170  209.2230  151.1770 C   0  0  0  0  0  0  0  0  0  0  0  0
  161.9280  206.4550  151.1960 C   0  0  0  0  0  0  0  0  0  0  0  0
  161.5640  210.5600  150.9530 C   0  0  0  0  0  0  0  0  0  0  0  0
  162.1270  210.6390  148.5110 N   0  0  0  0  0  0  0  0  0  0  0  0
  161.4770  207.1350  152.3530 C   0  0  0  0  0  3  0  0  0  0  0  0
  162.2200  209.2530  148.6730 C   0  0  0  0  0  3  0  0  0  0  0  0
  161.8160  211.2000  149.6910 C   0  0  0  0  0  0  0  0  0  0  0  0
  161.2320  203.4140  149.2230 C   0  0  0  0  0  0  0  0  0  0  0  0
  161.5310  203.6740  147.8090 C   0  0  0  0  0  3  0  0  0  0  0  0
  160.5050  200.4240  146.3250 O   0  0  0  0  0  1  0  0  0  0  0  0
  160.4210  202.2210  149.6240 C   0  0  2  0  0  3  0  0  0  0  0  0
  162.0410  204.9970  151.1430 C   0  0  0  0  0  3  0  0  0  0  0  0
  161.6370  204.2480  150.1490 C   0  0  0  0  0  0  0  0  0  0  0  0
  160.9460  201.6200  150.7540 F   0  0  0  0  0  0  0  0  0  0  0  0
  160.6780  201.4350  147.2620 C   0  0  0  0  0  0  0  0  0  0  0  0
  161.2660  202.7590  146.8680 C   0  0  0  0  0  0  0  0  0  0  0  0
  160.3190  201.1900  148.5270 C   0  0  0  0  0  3  0  0  0  0  0  0
  161.5890  203.0820  145.5390 O   0  0  0  0  0  0  0  0  0  0  0  0
  161.2240  204.2990  144.9020 C   0  0  0  0  0  1  0  0  0  0  0  0
  160.3380  208.5500  154.7030 C   0  0  0  0  0  0  0  0  0  0  0  0
  159.6090  209.2300  155.6870 C   0  0  0  0  0  3  0  0  0  0  0  0
  160.6080  209.1880  153.4760 C   0  0  0  0  0  0  0  0  0  0  0  0
  159.4070  211.1580  154.2480 C   0  0  0  0  0  3  0  0  0  0  0  0
  160.1460  210.4920  153.2680 C   0  0  0  0  0  3  0  0  0  0  0  0
  159.1410  210.5390  155.4660 C   0  0  0  0  0  0  0  0  0  0  0  0
  160.8360  207.1710  154.9830 C   0  0  0  0  0  1  0  0  0  0  0  0
  158.2700  211.1990  156.3900 N   0  0  0  0  0  2  0  0  0  0  0  0
  156.1710  210.7150  155.4430 O   0  0  0  0  0  0  0  0  0  0  0  0
  156.8500  211.3950  156.2600 C   0  0  0  0  0  0  0  0  0  0  0  0
  153.9300  213.3980  157.2590 C   0  0  0  0  0  2  0  0  0  0  0  0
  155.0270  214.4530  157.2510 C   0  0  0  0  0  2  0  0  0  0  0  0
  154.6280  212.0500  157.2550 C   0  0  0  0  0  2  0  0  0  0  0  0
  156.1280  212.3350  157.1820 C   0  0  0  0  0  3  0  0  0  0  0  0
  156.2500  213.7550  156.6920 C   0  0  0  0  0  2  0  0  0  0  0  0
  1 26  1  0  0  0  0
  2  6  1  0  0  0  0
  3  7  1  0  0  0  0
  4  2  2  0  0  0  0
  4  5  1  0  0  0  0
  5  1  2  0  0  0  0
  6  9  2  0  0  0  0
  7  5  1  0  0  0  0
  8 10  2  0  0  0  0
  8 11  1  0  0  0  0
  9  1  1  0  0  0  0
 10  4  1  0  0  0  0
 11  3  1  0  0  0  0
 11  7  2  0  0  0  0
 12 15  1  0  0  0  0
 12 17  2  0  0  0  0
 13 12  1  0  0  0  0
 14 19  1  0  0  0  0
 15 18  1  1  0  0  0
 16  6  1  0  0  0  0
 17 16  2  0  0  0  0
 19 21  2  0  0  0  0
 20 19  1  0  0  0  0
 20 13  2  0  0  0  0
 21 15  1  0  0  0  0
 22 20  1  0  0  0  0
 23 22  1  0  0  0  0
 24 30  1  0  0  0  0
 24 25  1  0  0  0  0
 26 24  2  0  0  0  0
 27 29  1  0  0  0  0
 28 26  1  0  0  0  0
 28 27  2  0  0  0  0
 29 25  2  0  0  0  0
 29 31  1  0  0  0  0
 32 33  2  0  0  0  0
 33 31  1  0  0  0  0
 33 37  1  0  0  0  0
 35 34  1  0  0  0  0
 36 34  1  0  0  0  0
 37 36  1  0  0  0  0
 38 37  1  0  0  0  0
 38 35  1  0  0  0  0
M  END
>  <MODEL>
4

>  <REMARK>
 VINA RESULT:      -7.8      3.056      6.576
  Name = 
  5 active torsions:
  status: ('A' for Active; 'I' for Inactive)
    1  A    between atoms: N_2  and  C_35
    2  A    between atoms: C_3  and  C_14
    3  A    between atoms: O_12  and  C_30
    4  A    between atoms: C_17  and  C_23
    5  A    between atoms: C_19  and  C_25
                            x       y       z     vdW  Elec       q    Type
                         _______ _______ _______ _____ _____    ______ ____

>  <TORSDO>
F 5

$$$$
