=
 OpenBabel11042423003D

 32 34  0  0  1  0  0  0  0  0999 V2000
  159.1420  213.3950  152.4420 C   0  0  0  0  0  3  0  0  0  0  0  0
  159.1600  211.3480  153.7500 C   0  0  0  0  0  0  0  0  0  0  0  0
  161.3450  210.1260  155.2620 N   0  0  0  0  0  0  0  0  0  0  0  0
  161.1800  207.3510  151.6410 C   0  0  0  0  0  3  0  0  0  0  0  0
  160.0880  210.9670  157.0470 O   0  0  0  0  0  0  0  0  0  0  0  0
  160.0140  210.7490  152.8030 C   0  0  0  0  0  0  0  0  0  0  0  0
  160.1060  210.5610  155.8530 C   0  0  0  0  0  0  0  0  0  0  0  0
  160.4250  211.4900  151.6830 C   0  0  0  0  0  3  0  0  0  0  0  0
  159.9880  212.8080  151.4990 C   0  0  0  0  0  0  0  0  0  0  0  0
  158.8520  210.6090  155.0230 C   0  0  1  0  0  3  0  0  0  0  0  0
  160.8760  206.3710  152.7400 C   0  0  2  0  0  3  0  0  0  0  0  0
  158.7400  212.6740  153.5680 C   0  0  0  0  0  3  0  0  0  0  0  0
  161.4250  209.1000  154.2140 C   0  0  2  0  0  3  0  0  0  0  0  0
  160.9950  208.6710  151.7640 C   0  0  0  0  0  3  0  0  0  0  0  0
  160.4670  209.3190  153.0170 C   0  0  2  0  0  3  0  0  0  0  0  0
  162.5980  210.6600  155.7670 C   0  0  0  0  0  1  0  0  0  0  0  0
  161.1960  207.7250  154.8340 C   0  0  0  0  0  2  0  0  0  0  0  0
  161.7560  206.6080  153.9640 C   0  0  0  0  0  2  0  0  0  0  0  0
  160.9700  212.7550  149.3390 O   0  0  0  0  0  1  0  0  0  0  0  0
  160.4050  213.5970  150.2990 C   0  0  1  0  0  3  0  0  0  0  0  0
  159.2190  214.3420  149.7110 C   0  0  0  0  0  2  0  0  0  0  0  0
  158.7450  213.6580  148.5210 N   0  0  0  0  0  1  0  0  0  0  0  0
  161.0240  204.9380  152.2360 C   0  0  0  0  0  2  0  0  0  0  0  0
  161.1470  204.9000  150.8010 N   0  0  0  0  0  0  0  0  0  0  0  0
  161.0380  203.7860  150.1780 C   0  0  0  0  0  3  0  0  0  0  0  0
  161.1650  203.7460  148.6960 C   0  0  0  0  0  1  0  0  0  0  0  0
  157.7690  211.2090  155.7240 O   0  0  0  0  0  0  0  0  0  0  0  0
  155.4990  211.7770  155.3760 C   0  0  0  0  0  3  0  0  0  0  0  0
  156.4530  210.8580  155.4350 C   0  0  0  0  0  3  0  0  0  0  0  0
  155.7890  213.1520  155.6100 N   0  0  0  0  0  2  0  0  0  0  0  0
  155.3890  214.1360  154.6650 C   0  0  0  0  0  3  0  0  0  0  0  0
  155.1300  213.7870  153.4150 C   0  0  0  0  0  2  0  0  0  0  0  0
  1 12  1  0  0  0  0
  2 10  1  0  0  0  0
  3 16  1  0  0  0  0
  3  7  1  0  0  0  0
  4 14  2  0  0  0  0
  4 11  1  0  0  0  0
  6 15  1  0  0  0  0
  6  2  1  0  0  0  0
  7  5  2  0  0  0  0
  8  6  2  0  0  0  0
  9  8  1  0  0  0  0
  9  1  2  0  0  0  0
 10 27  1  1  0  0  0
 10  7  1  0  0  0  0
 11 23  1  6  0  0  0
 11 18  1  0  0  0  0
 12  2  2  0  0  0  0
 13 17  1  1  0  0  0
 13  3  1  0  0  0  0
 15 14  1  6  0  0  0
 15 13  1  0  0  0  0
 18 17  1  0  0  0  0
 20 19  1  6  0  0  0
 20  9  1  0  0  0  0
 21 20  1  0  0  0  0
 22 21  1  0  0  0  0
 24 23  1  0  0  0  0
 25 24  2  0  0  0  0
 26 25  1  0  0  0  0
 28 29  2  0  0  0  0
 28 30  1  0  0  0  0
 29 27  1  0  0  0  0
 31 30  1  0  0  0  0
 32 31  2  0  0  0  0
M  END
>  <MODEL>
1

>  <REMARK>
 VINA RESULT:      -6.2      0.000      0.000
  Name = 
  8 active torsions:
  status: ('A' for Active; 'I' for Inactive)
    1  A    between atoms: C_1  and  N_16
    2  A    between atoms: N_3  and  C_12
    3  A    between atoms: C_5  and  N_16
    4  A    between atoms: C_10  and  C_15
    5  A    between atoms: C_10  and  C_20
    6  A    between atoms: C_12  and  C_24
    7  A    between atoms: C_13  and  O_22
    8  A    between atoms: O_22  and  C_23
                            x       y       z     vdW  Elec       q    Type
                         _______ _______ _______ _____ _____    ______ ____

>  <TORSDO>
F 8

$$$$
=
 OpenBabel11042423003D

 32 34  0  0  1  0  0  0  0  0999 V2000
  161.3620  206.9080  152.8870 C   0  0  0  0  0  3  0  0  0  0  0  0
  161.6830  209.3150  152.8100 C   0  0  0  0  0  0  0  0  0  0  0  0
  159.7310  211.4370  152.3250 N   0  0  0  0  0  0  0  0  0  0  0  0
  161.9400  211.4050  148.3300 C   0  0  0  0  0  3  0  0  0  0  0  0
  160.0150  211.7180  154.6300 O   0  0  0  0  0  0  0  0  0  0  0  0
  161.4220  209.3060  151.4260 C   0  0  0  0  0  0  0  0  0  0  0  0
  160.4980  211.3160  153.5370 C   0  0  0  0  0  0  0  0  0  0  0  0
  161.1280  208.0890  150.7890 C   0  0  0  0  0  3  0  0  0  0  0  0
  161.1020  206.8910  151.5150 C   0  0  0  0  0  0  0  0  0  0  0  0
  161.8400  210.6340  153.5130 C   0  0  1  0  0  3  0  0  0  0  0  0
  162.2290  212.8100  148.7820 C   0  0  2  0  0  3  0  0  0  0  0  0
  161.6390  208.1140  153.5340 C   0  0  0  0  0  3  0  0  0  0  0  0
  160.3360  211.6170  150.9990 C   0  0  2  0  0  3  0  0  0  0  0  0
  161.5980  210.4210  149.1700 C   0  0  0  0  0  3  0  0  0  0  0  0
  161.4630  210.6120  150.6590 C   0  0  2  0  0  3  0  0  0  0  0  0
  158.2800  211.4620  152.4030 C   0  0  0  0  0  1  0  0  0  0  0  0
  160.8420  213.0500  150.8650 C   0  0  0  0  0  2  0  0  0  0  0  0
  161.0010  213.4630  149.4080 C   0  0  0  0  0  2  0  0  0  0  0  0
  160.8160  205.7500  149.4550 O   0  0  0  0  0  1  0  0  0  0  0  0
  160.8100  205.5890  150.8420 C   0  0  1  0  0  3  0  0  0  0  0  0
  161.8250  204.5360  151.2530 C   0  0  0  0  0  2  0  0  0  0  0  0
  161.1470  203.4070  151.8660 N   0  0  0  0  0  1  0  0  0  0  0  0
  162.7570  213.6480  147.6210 C   0  0  0  0  0  2  0  0  0  0  0  0
  162.5300  212.9920  146.3590 N   0  0  0  0  0  0  0  0  0  0  0  0
  162.6520  213.6480  145.2650 C   0  0  0  0  0  3  0  0  0  0  0  0
  162.4170  212.9710  143.9610 C   0  0  0  0  0  1  0  0  0  0  0  0
  162.3770  210.4680  154.8200 O   0  0  0  0  0  0  0  0  0  0  0  0
  161.5200  210.1310  157.0000 C   0  0  0  0  0  3  0  0  0  0  0  0
  161.6770  210.9110  155.9390 C   0  0  0  0  0  3  0  0  0  0  0  0
  162.0610  208.8140  157.0290 N   0  0  0  0  0  2  0  0  0  0  0  0
  161.2110  207.6980  157.2600 C   0  0  0  0  0  3  0  0  0  0  0  0
  160.0860  207.5700  156.5750 C   0  0  0  0  0  2  0  0  0  0  0  0
  1 12  1  0  0  0  0
  2 10  1  0  0  0  0
  2 12  2  0  0  0  0
  3 16  1  0  0  0  0
  3  7  1  0  0  0  0
  4 11  1  0  0  0  0
  4 14  2  0  0  0  0
  6  2  1  0  0  0  0
  7  5  2  0  0  0  0
  8  6  2  0  0  0  0
  8  9  1  0  0  0  0
  9  1  2  0  0  0  0
 10  7  1  0  0  0  0
 10 27  1  1  0  0  0
 11 23  1  6  0  0  0
 11 18  1  0  0  0  0
 13 17  1  1  0  0  0
 13  3  1  0  0  0  0
 15 14  1  6  0  0  0
 15 13  1  0  0  0  0
 15  6  1  0  0  0  0
 18 17  1  0  0  0  0
 20 19  1  6  0  0  0
 20 21  1  0  0  0  0
 20  9  1  0  0  0  0
 21 22  1  0  0  0  0
 24 23  1  0  0  0  0
 25 24  2  0  0  0  0
 26 25  1  0  0  0  0
 27 29  1  0  0  0  0
 28 30  1  0  0  0  0
 29 28  2  0  0  0  0
 30 31  1  0  0  0  0
 32 31  2  0  0  0  0
M  END
>  <MODEL>
2

>  <REMARK>
 VINA RESULT:      -3.8      2.834      6.879
  Name = 
  8 active torsions:
  status: ('A' for Active; 'I' for Inactive)
    1  A    between atoms: C_1  and  N_16
    2  A    between atoms: N_3  and  C_12
    3  A    between atoms: C_5  and  N_16
    4  A    between atoms: C_10  and  C_15
    5  A    between atoms: C_10  and  C_20
    6  A    between atoms: C_12  and  C_24
    7  A    between atoms: C_13  and  O_22
    8  A    between atoms: O_22  and  C_23
                            x       y       z     vdW  Elec       q    Type
                         _______ _______ _______ _____ _____    ______ ____

>  <TORSDO>
F 8

$$$$
=
 OpenBabel11042423003D

 32 34  0  0  1  0  0  0  0  0999 V2000
  160.9720  206.7650  154.4810 C   0  0  0  0  0  3  0  0  0  0  0  0
  160.6700  207.9740  152.3960 C   0  0  0  0  0  0  0  0  0  0  0  0
  162.2810  210.1250  151.2430 N   0  0  0  0  0  0  0  0  0  0  0  0
  158.6480  212.4830  152.6860 C   0  0  0  0  0  3  0  0  0  0  0  0
  162.9530  208.3730  149.8460 O   0  0  0  0  0  0  0  0  0  0  0  0
  160.3510  209.1410  153.1180 C   0  0  0  0  0  0  0  0  0  0  0  0
  162.0660  208.8530  150.6030 C   0  0  0  0  0  0  0  0  0  0  0  0
  160.3510  209.1020  154.5220 C   0  0  0  0  0  3  0  0  0  0  0  0
  160.6570  207.9170  155.2040 C   0  0  0  0  0  0  0  0  0  0  0  0
  160.8230  208.0600  150.9030 C   0  0  1  0  0  3  0  0  0  0  0  0
  158.5790  212.7650  151.2110 C   0  0  2  0  0  3  0  0  0  0  0  0
  160.9910  206.7940  153.0850 C   0  0  0  0  0  3  0  0  0  0  0  0
  161.1940  211.0510  151.5880 C   0  0  2  0  0  3  0  0  0  0  0  0
  159.2900  211.4280  153.2010 C   0  0  0  0  0  3  0  0  0  0  0  0
  160.0160  210.4090  152.3600 C   0  0  2  0  0  3  0  0  0  0  0  0
  163.6400  210.5690  151.5010 C   0  0  0  0  0  1  0  0  0  0  0  0
  160.6910  211.7330  150.3190 C   0  0  0  0  0  2  0  0  0  0  0  0
  159.9620  213.0350  150.6250 C   0  0  0  0  0  2  0  0  0  0  0  0
  160.2540  206.5920  157.1310 O   0  0  0  0  0  1  0  0  0  0  0  0
  160.6400  207.8620  156.6970 C   0  0  1  0  0  3  0  0  0  0  0  0
  162.0070  208.2160  157.2610 C   0  0  0  0  0  2  0  0  0  0  0  0
  162.2630  209.6340  157.0840 N   0  0  0  0  0  1  0  0  0  0  0  0
  157.6360  213.9330  150.9330 C   0  0  0  0  0  2  0  0  0  0  0  0
  156.9900  213.7880  149.6520 N   0  0  0  0  0  0  0  0  0  0  0  0
  157.5560  214.2390  148.5950 C   0  0  0  0  0  3  0  0  0  0  0  0
  156.8890  214.0900  147.2730 C   0  0  0  0  0  1  0  0  0  0  0  0
  160.8560  206.7690  150.3070 O   0  0  0  0  0  0  0  0  0  0  0  0
  160.7200  205.4500  148.3460 C   0  0  0  0  0  3  0  0  0  0  0  0
  160.4700  206.5870  148.9810 C   0  0  0  0  0  3  0  0  0  0  0  0
  161.3930  204.3780  149.0000 N   0  0  0  0  0  2  0  0  0  0  0  0
  160.9360  203.0420  148.8330 C   0  0  0  0  0  3  0  0  0  0  0  0
  160.5670  202.3320  149.8870 C   0  0  0  0  0  2  0  0  0  0  0  0
  1  9  1  0  0  0  0
  2 12  1  0  0  0  0
  2  6  2  0  0  0  0
  3 16  1  0  0  0  0
  3 13  1  0  0  0  0
  4 14  2  0  0  0  0
  5  7  2  0  0  0  0
  6  8  1  0  0  0  0
  7 10  1  0  0  0  0
  7  3  1  0  0  0  0
  8  9  2  0  0  0  0
  9 20  1  0  0  0  0
 10 27  1  1  0  0  0
 10  2  1  0  0  0  0
 11 23  1  1  0  0  0
 11  4  1  0  0  0  0
 12  1  2  0  0  0  0
 13 17  1  6  0  0  0
 13 15  1  0  0  0  0
 15  6  1  0  0  0  0
 15 14  1  1  0  0  0
 17 18  1  0  0  0  0
 18 11  1  0  0  0  0
 20 19  1  6  0  0  0
 20 21  1  0  0  0  0
 22 21  1  0  0  0  0
 24 23  1  0  0  0  0
 25 24  2  0  0  0  0
 26 25  1  0  0  0  0
 28 29  2  0  0  0  0
 28 30  1  0  0  0  0
 29 27  1  0  0  0  0
 31 30  1  0  0  0  0
 31 32  2  0  0  0  0
M  END
>  <MODEL>
3

>  <REMARK>
 VINA RESULT:      -3.6      2.618      8.122
  Name = 
  8 active torsions:
  status: ('A' for Active; 'I' for Inactive)
    1  A    between atoms: C_1  and  N_16
    2  A    between atoms: N_3  and  C_12
    3  A    between atoms: C_5  and  N_16
    4  A    between atoms: C_10  and  C_15
    5  A    between atoms: C_10  and  C_20
    6  A    between atoms: C_12  and  C_24
    7  A    between atoms: C_13  and  O_22
    8  A    between atoms: O_22  and  C_23
                            x       y       z     vdW  Elec       q    Type
                         _______ _______ _______ _____ _____    ______ ____

>  <TORSDO>
F 8

$$$$
=
 OpenBabel11042423003D

 32 34  0  0  1  0  0  0  0  0999 V2000
  160.2380  213.0450  150.5450 C   0  0  0  0  0  3  0  0  0  0  0  0
  159.9570  211.3830  152.2940 C   0  0  0  0  0  0  0  0  0  0  0  0
  161.9420  210.2430  154.1130 N   0  0  0  0  0  0  0  0  0  0  0  0
  161.3410  206.7500  151.2370 C   0  0  0  0  0  3  0  0  0  0  0  0
  160.8360  211.6560  155.6150 O   0  0  0  0  0  0  0  0  0  0  0  0
  160.7050  210.4590  151.5390 C   0  0  0  0  0  0  0  0  0  0  0  0
  160.7860  210.9820  154.5500 C   0  0  0  0  0  0  0  0  0  0  0  0
  161.2150  210.8470  150.2890 C   0  0  0  0  0  3  0  0  0  0  0  0
  160.9800  212.1350  149.7900 C   0  0  0  0  0  0  0  0  0  0  0  0
  159.5490  211.0180  153.6950 C   0  0  1  0  0  3  0  0  0  0  0  0
  160.9010  206.1120  152.5250 C   0  0  2  0  0  3  0  0  0  0  0  0
  159.7380  212.6760  151.7950 C   0  0  0  0  0  3  0  0  0  0  0  0
  161.8610  209.0000  153.3360 C   0  0  2  0  0  3  0  0  0  0  0  0
  161.3580  208.0740  151.0430 C   0  0  0  0  0  3  0  0  0  0  0  0
  160.9400  209.0700  152.0940 C   0  0  2  0  0  3  0  0  0  0  0  0
  163.2640  210.6910  154.5160 C   0  0  0  0  0  1  0  0  0  0  0  0
  161.4330  207.8580  154.2530 C   0  0  0  0  0  2  0  0  0  0  0  0
  161.8140  206.4980  153.6850 C   0  0  0  0  0  2  0  0  0  0  0  0
  160.7640  213.6240  147.9550 O   0  0  0  0  0  1  0  0  0  0  0  0
  161.5030  212.5490  148.4520 C   0  0  1  0  0  3  0  0  0  0  0  0
  162.9740  212.9210  148.5450 C   0  0  0  0  0  2  0  0  0  0  0  0
  163.2580  214.0380  147.6620 N   0  0  0  0  0  1  0  0  0  0  0  0
  160.8300  204.5950  152.3740 C   0  0  0  0  0  2  0  0  0  0  0  0
  160.5140  204.2190  151.0190 N   0  0  0  0  0  0  0  0  0  0  0  0
  161.0250  203.1600  150.5130 C   0  0  0  0  0  3  0  0  0  0  0  0
  160.6990  202.7720  149.1130 C   0  0  0  0  0  1  0  0  0  0  0  0
  158.5720  211.9180  154.2050 O   0  0  0  0  0  0  0  0  0  0  0  0
  157.0390  211.7310  155.9980 C   0  0  0  0  0  3  0  0  0  0  0  0
  158.2740  211.9480  155.5640 C   0  0  0  0  0  3  0  0  0  0  0  0
  155.9780  211.4630  155.0860 N   0  0  0  0  0  2  0  0  0  0  0  0
  155.3010  210.2130  155.1270 C   0  0  0  0  0  3  0  0  0  0  0  0
  154.3950  209.9830  156.0630 C   0  0  0  0  0  2  0  0  0  0  0  0
  1 12  1  0  0  0  0
  2 10  1  0  0  0  0
  3 16  1  0  0  0  0
  3  7  1  0  0  0  0
  4 11  1  0  0  0  0
  6 15  1  0  0  0  0
  6  2  1  0  0  0  0
  7  5  2  0  0  0  0
  8  6  2  0  0  0  0
  9  8  1  0  0  0  0
  9  1  2  0  0  0  0
 10 27  1  1  0  0  0
 10  7  1  0  0  0  0
 11 23  1  6  0  0  0
 11 18  1  0  0  0  0
 12  2  2  0  0  0  0
 13  3  1  0  0  0  0
 13 17  1  1  0  0  0
 14  4  2  0  0  0  0
 15 14  1  6  0  0  0
 15 13  1  0  0  0  0
 18 17  1  0  0  0  0
 20 19  1  1  0  0  0
 20 21  1  0  0  0  0
 20  9  1  0  0  0  0
 22 21  1  0  0  0  0
 24 23  1  0  0  0  0
 25 24  2  0  0  0  0
 26 25  1  0  0  0  0
 27 29  1  0  0  0  0
 29 28  2  0  0  0  0
 30 31  1  0  0  0  0
 30 28  1  0  0  0  0
 31 32  2  0  0  0  0
M  END
>  <MODEL>
4

>  <REMARK>
 VINA RESULT:      -3.4      1.655      2.082
  Name = 
  8 active torsions:
  status: ('A' for Active; 'I' for Inactive)
    1  A    between atoms: C_1  and  N_16
    2  A    between atoms: N_3  and  C_12
    3  A    between atoms: C_5  and  N_16
    4  A    between atoms: C_10  and  C_15
    5  A    between atoms: C_10  and  C_20
    6  A    between atoms: C_12  and  C_24
    7  A    between atoms: C_13  and  O_22
    8  A    between atoms: O_22  and  C_23
                            x       y       z     vdW  Elec       q    Type
                         _______ _______ _______ _____ _____    ______ ____

>  <TORSDO>
F 8

$$$$
