=
 OpenBabel11052411373D

 43 49  0  0  1  0  0  0  0  0999 V2000
  158.7360  214.1000  148.6000 C   0  0  0  0  0  2  0  0  0  0  0  0
  159.5310  213.7870  151.0140 C   0  0  1  0  0  3  0  0  0  0  0  0
  162.2860  208.2190  150.2180 C   0  0  0  0  0  0  0  0  0  0  0  0
  163.6080  206.4500  151.3020 C   0  0  0  0  0  2  0  0  0  0  0  0
  158.1830  212.3610  152.7670 C   0  0  0  0  0  2  0  0  0  0  0  0
  163.2690  207.3590  150.2050 N   0  0  0  0  0  0  0  0  0  0  0  0
  160.0600  204.8200  151.5290 C   0  0  0  0  0  1  0  0  0  0  0  0
  160.9060  207.2060  152.0170 C   0  0  0  0  0  0  0  0  0  0  0  0
  160.2310  207.2630  153.3840 C   0  0  1  0  0  3  0  0  0  0  0  0
  161.7330  211.5170  149.3550 C   0  0  2  0  0  0  0  0  0  0  0  0
  158.6930  213.2980  149.8460 C   0  0  2  0  0  0  0  0  0  0  0  0
  163.0310  211.5930  149.8680 O   0  0  0  0  0  1  0  0  0  0  0  0
  159.2170  213.3440  154.7420 C   0  0  1  0  0  3  0  0  0  0  0  0
  160.1600  209.7220  153.9440 C   0  0  1  0  0  3  0  0  0  0  0  0
  160.3520  206.0350  154.0470 O   0  0  0  0  0  1  0  0  0  0  0  0
  160.9930  210.8360  154.3870 N   0  0  0  0  0  2  0  0  0  0  0  0
  161.1760  210.1600  148.9120 C   0  0  2  0  0  3  0  0  0  0  0  0
  158.1520  212.3490  154.2860 C   0  0  0  0  0  2  0  0  0  0  0  0
  158.8600  213.6680  152.3960 C   0  0  1  0  0  3  0  0  0  0  0  0
  160.4750  211.2680  155.6780 C   0  0  1  0  0  3  0  0  0  0  0  0
  162.5670  205.3450  151.4790 C   0  0  2  0  0  3  0  0  0  0  0  0
  162.1610  209.0960  149.0910 N   0  0  0  0  0  2  0  0  0  0  0  0
  161.4610  210.8900  156.7640 C   0  0  0  0  0  1  0  0  0  0  0  0
  159.8490  209.8620  152.5230 N   0  0  0  0  0  2  0  0  0  0  0  0
  161.7570  211.1150  147.8930 C   0  0  0  0  0  2  0  0  0  0  0  0
  160.2690  212.7830  155.7120 C   0  0  0  0  0  2  0  0  0  0  0  0
  159.8770  212.4600  150.3140 C   0  0  1  0  0  3  0  0  0  0  0  0
  157.4140  212.8090  150.1090 O   0  0  0  0  0  0  0  0  0  0  0  0
  159.8690  213.9040  153.4950 C   0  0  0  0  0  2  0  0  0  0  0  0
  156.7800  212.8650  148.9380 O   0  0  0  0  0  0  0  0  0  0  0  0
  160.6270  208.0890  155.6220 O   0  0  0  0  0  1  0  0  0  0  0  0
  161.1420  205.8760  151.3310 C   0  0  1  0  0  3  0  0  0  0  0  0
  160.9640  212.6860  149.4560 O   0  0  0  0  0  0  0  0  0  0  0  0
  160.9900  209.6150  151.7850 O   0  0  0  0  0  0  0  0  0  0  0  0
  157.2780  213.9990  148.2550 C   0  0  2  0  0  3  0  0  0  0  0  0
  162.7410  204.7570  152.7180 F   0  0  0  0  0  0  0  0  0  0  0  0
  160.8190  208.3770  154.2640 C   0  0  1  0  0  3  0  0  0  0  0  0
  161.3540  208.3230  151.3780 C   0  0  0  0  0  0  0  0  0  0  0  0
  155.8650  214.4530  146.3830 O   0  0  0  0  0  1  0  0  0  0  0  0
  157.0640  213.8350  146.7510 C   0  0  1  0  0  3  0  0  0  0  0  0
  159.0460  213.7030  145.2840 C   0  0  0  0  0  3  0  0  0  0  0  0
  158.1850  214.4460  145.9720 C   0  0  0  0  0  3  0  0  0  0  0  0
  158.9490  212.3180  145.2560 O   0  0  0  0  0  1  0  0  0  0  0  0
  1 11  1  0  0  0  0
  2 19  1  0  0  0  0
  3 38  1  0  0  0  0
  4 21  1  0  0  0  0
  5 18  1  0  0  0  0
  6  3  2  0  0  0  0
  6  4  1  0  0  0  0
  8  9  1  0  0  0  0
  9 15  1  0  0  0  0
  9 37  1  0  0  0  0
 10 33  1  0  0  0  0
 10 12  1  0  0  0  0
 11 28  1  0  0  0  0
 11 27  1  0  0  0  0
 11  2  1  0  0  0  0
 13 26  1  0  0  0  0
 14 37  1  0  0  0  0
 14 16  1  0  0  0  0
 16 20  1  0  0  0  0
 17 22  1  0  0  0  0
 17 10  1  0  0  0  0
 18 13  1  0  0  0  0
 19  5  1  0  0  0  0
 19 29  1  0  0  0  0
 20 26  1  0  0  0  0
 20 23  1  0  0  0  0
 21 36  1  0  0  0  0
 22  3  1  0  0  0  0
 24 14  1  0  0  0  0
 25 17  1  0  0  0  0
 25 10  1  0  0  0  0
 27  2  1  0  0  0  0
 29 13  1  0  0  0  0
 30 28  1  0  0  0  0
 32 21  1  0  0  0  0
 32  7  1  0  0  0  0
 32  8  1  0  0  0  0
 33 27  1  0  0  0  0
 34 24  1  0  0  0  0
 35  1  1  0  0  0  0
 35 30  1  0  0  0  0
 37 31  1  0  0  0  0
 38 34  1  0  0  0  0
 38  8  2  0  0  0  0
 39 40  1  0  0  0  0
 40 35  1  0  0  0  0
 41 42  2  0  0  0  0
 42 40  1  0  0  0  0
 43 41  1  0  0  0  0
M  END
>  <MODEL>
1

>  <REMARK>
 VINA RESULT:       0.3      0.000      0.000
  Name = 
  2 active torsions:
  status: ('A' for Active; 'I' for Inactive)
    1  A    between atoms: C_10  and  C_24
    2  A    between atoms: C_10  and  C_40
                            x       y       z     vdW  Elec       q    Type
                         _______ _______ _______ _____ _____    ______ ____

>  <TORSDO>
F 2

$$$$
=
 OpenBabel11052411373D

 43 49  0  0  1  0  0  0  0  0999 V2000
  162.3480  205.6080  151.8930 C   0  0  0  0  0  2  0  0  0  0  0  0
  162.6470  207.9740  150.9610 C   0  0  1  0  0  3  0  0  0  0  0  0
  159.3030  210.9660  155.3310 C   0  0  0  0  0  0  0  0  0  0  0  0
  158.5570  213.1650  156.1450 C   0  0  0  0  0  2  0  0  0  0  0  0
  160.8370  209.1260  149.4360 C   0  0  0  0  0  2  0  0  0  0  0  0
  159.0840  211.8080  156.3050 N   0  0  0  0  0  0  0  0  0  0  0  0
  155.3300  212.0700  154.2250 C   0  0  0  0  0  1  0  0  0  0  0  0
  157.8320  211.9780  153.6050 C   0  0  0  0  0  0  0  0  0  0  0  0
  157.6110  212.6290  152.2440 C   0  0  1  0  0  3  0  0  0  0  0  0
  161.7640  208.7600  154.3320 C   0  0  2  0  0  0  0  0  0  0  0  0
  161.7200  206.8320  151.3410 C   0  0  2  0  0  0  0  0  0  0  0  0
  162.5400  209.8090  154.8340 O   0  0  0  0  0  1  0  0  0  0  0  0
  162.3350  210.7930  148.4810 C   0  0  1  0  0  3  0  0  0  0  0  0
  159.7000  212.0750  150.9410 C   0  0  1  0  0  3  0  0  0  0  0  0
  156.6710  213.6640  152.3360 O   0  0  0  0  0  1  0  0  0  0  0  0
  161.1090  212.4280  150.8030 N   0  0  0  0  0  2  0  0  0  0  0  0
  160.2920  208.6470  154.7410 C   0  0  2  0  0  3  0  0  0  0  0  0
  160.9050  210.2620  148.4290 C   0  0  0  0  0  2  0  0  0  0  0  0
  162.2800  208.7070  149.6560 C   0  0  1  0  0  3  0  0  0  0  0  0
  161.2860  212.9630  149.4600 C   0  0  1  0  0  3  0  0  0  0  0  0
  157.0840  213.1660  155.7360 C   0  0  2  0  0  3  0  0  0  0  0  0
  159.9130  209.7120  155.6650 N   0  0  0  0  0  2  0  0  0  0  0  0
  161.5470  214.4520  149.5460 C   0  0  0  0  0  1  0  0  0  0  0  0
  159.5680  210.7830  151.6090 N   0  0  0  0  0  2  0  0  0  0  0  0
  161.3450  207.8220  155.4460 C   0  0  0  0  0  2  0  0  0  0  0  0
  162.4690  212.3000  148.7520 C   0  0  0  0  0  2  0  0  0  0  0  0
  161.6550  208.1360  152.1290 C   0  0  1  0  0  3  0  0  0  0  0  0
  160.6520  206.5370  150.4950 O   0  0  0  0  0  0  0  0  0  0  0  0
  163.0760  209.9840  149.5260 C   0  0  0  0  0  2  0  0  0  0  0  0
  160.2960  205.2940  150.8160 O   0  0  0  0  0  0  0  0  0  0  0  0
  158.6580  214.2160  150.7480 O   0  0  0  0  0  1  0  0  0  0  0  0
  156.7810  212.0930  154.6910 C   0  0  1  0  0  3  0  0  0  0  0  0
  162.3630  207.9800  153.3300 O   0  0  0  0  0  0  0  0  0  0  0  0
  159.9090  210.9270  152.9400 O   0  0  0  0  0  0  0  0  0  0  0  0
  161.4790  204.6090  151.1830 C   0  0  2  0  0  3  0  0  0  0  0  0
  156.7510  214.4190  155.2560 F   0  0  0  0  0  0  0  0  0  0  0  0
  158.9200  213.1820  151.6580 C   0  0  1  0  0  3  0  0  0  0  0  0
  158.9760  211.3070  153.9160 C   0  0  0  0  0  0  0  0  0  0  0  0
  159.7480  203.3550  152.2500 O   0  0  0  0  0  1  0  0  0  0  0  0
  161.1350  203.4220  152.0800 C   0  0  1  0  0  3  0  0  0  0  0  0
  161.1010  201.6450  150.3660 C   0  0  0  0  0  3  0  0  0  0  0  0
  161.6160  202.1350  151.4890 C   0  0  0  0  0  3  0  0  0  0  0  0
  160.0870  202.3040  149.6830 O   0  0  0  0  0  1  0  0  0  0  0  0
  2 11  1  0  0  0  0
  2 27  1  0  0  0  0
  3 22  1  0  0  0  0
  3  6  2  0  0  0  0
  4  6  1  0  0  0  0
  5 19  1  0  0  0  0
  7 32  1  0  0  0  0
  8 38  2  0  0  0  0
  8 32  1  0  0  0  0
  9 15  1  0  0  0  0
  9  8  1  0  0  0  0
 10 17  1  0  0  0  0
 10 12  1  0  0  0  0
 10 25  1  0  0  0  0
 11  1  1  0  0  0  0
 11 27  1  0  0  0  0
 13 26  1  0  0  0  0
 13 29  1  0  0  0  0
 14 24  1  0  0  0  0
 14 37  1  0  0  0  0
 16 14  1  0  0  0  0
 17 25  1  0  0  0  0
 17 22  1  0  0  0  0
 18 13  1  0  0  0  0
 18  5  1  0  0  0  0
 19  2  1  0  0  0  0
 20 23  1  0  0  0  0
 20 16  1  0  0  0  0
 21  4  1  0  0  0  0
 24 34  1  0  0  0  0
 26 20  1  0  0  0  0
 27 33  1  0  0  0  0
 28 30  1  0  0  0  0
 28 11  1  0  0  0  0
 29 19  1  0  0  0  0
 30 35  1  0  0  0  0
 31 37  1  0  0  0  0
 32 21  1  0  0  0  0
 33 10  1  0  0  0  0
 34 38  1  0  0  0  0
 35  1  1  0  0  0  0
 35 40  1  0  0  0  0
 36 21  1  0  0  0  0
 37  9  1  0  0  0  0
 38  3  1  0  0  0  0
 40 39  1  0  0  0  0
 41 42  2  0  0  0  0
 42 40  1  0  0  0  0
 43 41  1  0  0  0  0
M  END
>  <MODEL>
2

>  <REMARK>
 VINA RESULT:       2.9      3.221      8.085
  Name = 
  2 active torsions:
  status: ('A' for Active; 'I' for Inactive)
    1  A    between atoms: C_10  and  C_24
    2  A    between atoms: C_10  and  C_40
                            x       y       z     vdW  Elec       q    Type
                         _______ _______ _______ _____ _____    ______ ____

>  <TORSDO>
F 2

$$$$
