=
 OpenBabel11042422253D

 34 35  0  0  1  0  0  0  0  0999 V2000
  160.6020  210.1620  156.2830 C   0  0  0  0  0  0  0  0  0  0  0  0
  157.2150  211.6430  154.3430 C   0  0  0  0  0  2  0  0  0  0  0  0
  157.0370  214.0890  153.9610 C   0  0  0  0  0  3  0  0  0  0  0  0
  156.6860  214.3430  155.3920 C   0  0  0  0  0  1  0  0  0  0  0  0
  162.7060  211.0390  154.0790 O   0  0  0  0  0  0  0  0  0  0  0  0
  158.9550  213.3440  151.6740 C   0  0  0  0  0  2  0  0  0  0  0  0
  160.4160  212.6340  153.4090 O   0  0  0  0  0  0  0  0  0  0  0  0
  161.8740  211.3570  149.0840 C   0  0  0  0  0  0  0  0  0  0  0  0
  160.9560  211.1500  156.9060 O   0  0  0  0  0  0  0  0  0  0  0  0
  162.1130  209.6340  150.7690 C   0  0  0  0  0  3  0  0  0  0  0  0
  158.0610  211.5820  157.2600 O   0  0  0  0  0  1  0  0  0  0  0  0
  162.3690  210.1100  149.4840 C   0  0  0  0  0  3  0  0  0  0  0  0
  157.2840  212.8640  153.4770 C   0  0  0  0  0  0  0  0  0  0  0  0
  161.5850  209.4330  155.4240 C   0  0  0  0  0  2  0  0  0  0  0  0
  161.1350  212.1250  149.9850 C   0  0  0  0  0  3  0  0  0  0  0  0
  157.6190  212.6960  152.0260 C   0  0  0  0  0  2  0  0  0  0  0  0
  160.8840  211.6700  151.2880 C   0  0  0  0  0  0  0  0  0  0  0  0
  161.8170  210.1470  154.1280 C   0  0  0  0  0  0  0  0  0  0  0  0
  160.1040  212.5370  152.1930 C   0  0  0  0  0  0  0  0  0  0  0  0
  158.4330  211.4760  155.0080 O   0  0  0  0  0  0  0  0  0  0  0  0
  161.3780  210.4010  151.6820 C   0  0  0  0  0  0  0  0  0  0  0  0
  159.1910  209.6550  156.3920 C   0  0  0  0  0  2  0  0  0  0  0  0
  158.1350  210.7350  156.1530 C   0  0  1  0  0  3  0  0  0  0  0  0
  161.0480  209.8230  152.9550 N   0  0  0  0  0  0  0  0  0  0  0  0
  160.1600  208.6620  152.9760 C   0  0  0  0  0  2  0  0  0  0  0  0
  160.5110  206.6250  154.2020 O   0  0  0  0  0  1  0  0  0  0  0  0
  160.9580  207.3730  153.1090 C   0  0  1  0  0  3  0  0  0  0  0  0
  160.8880  206.5430  151.8270 C   0  0  0  0  0  2  0  0  0  0  0  0
  161.9880  205.5360  151.7320 C   0  0  0  0  0  0  0  0  0  0  0  0
  161.6910  204.1860  151.3970 N   0  0  0  0  0  1  0  0  0  0  0  0
  163.1810  205.8860  151.9230 O   0  0  0  0  0  0  0  0  0  0  0  0
  162.1190  211.8610  147.7690 N   0  0  0  0  0  2  0  0  0  0  0  0
  161.2690  212.7940  147.1560 N   0  0  0  0  0  2  0  0  0  0  0  0
  160.3240  212.0920  146.4870 O   0  0  0  0  0  1  0  0  0  0  0  0
  1 22  1  0  0  0  0
  1  9  2  0  0  0  0
  2 20  1  0  0  0  0
  3  4  1  0  0  0  0
  5 18  2  0  0  0  0
  6 16  1  0  0  0  0
  6 19  1  0  0  0  0
  8 12  2  0  0  0  0
  8 15  1  0  0  0  0
 10 21  2  0  0  0  0
 12 10  1  0  0  0  0
 13  3  2  0  0  0  0
 13  2  1  0  0  0  0
 14  1  1  0  0  0  0
 15 17  2  0  0  0  0
 16 13  1  0  0  0  0
 17 21  1  0  0  0  0
 17 19  1  0  0  0  0
 18 14  1  0  0  0  0
 19  7  2  0  0  0  0
 20 23  1  0  0  0  0
 21 24  1  0  0  0  0
 23 22  1  0  0  0  0
 23 11  1  1  0  0  0
 24 25  1  0  0  0  0
 24 18  1  0  0  0  0
 25 27  1  0  0  0  0
 27 26  1  1  0  0  0
 28 27  1  0  0  0  0
 29 28  1  0  0  0  0
 29 31  2  0  0  0  0
 30 29  1  0  0  0  0
 32  8  1  0  0  0  0
 33 32  1  0  0  0  0
 34 33  1  0  0  0  0
M  END
>  <MODEL>
1

>  <REMARK>
 VINA RESULT:      -3.6      0.000      0.000
  Name = 
  6 active torsions:
  status: ('A' for Active; 'I' for Inactive)
    1  A    between atoms: C_8  and  N_11
    2  A    between atoms: C_9  and  C_23
    3  A    between atoms: C_9  and  N_34
    4  A    between atoms: C_10  and  C_15
    5  A    between atoms: N_11  and  N_21
    6  A    between atoms: C_15  and  C_23
                            x       y       z     vdW  Elec       q    Type
                         _______ _______ _______ _____ _____    ______ ____

>  <TORSDO>
F 6

$$$$
=
 OpenBabel11042422253D

 34 35  0  0  1  0  0  0  0  0999 V2000
  161.4440  208.9800  151.9120 C   0  0  0  0  0  0  0  0  0  0  0  0
  161.2570  212.8620  150.3910 C   0  0  0  0  0  2  0  0  0  0  0  0
  159.2670  213.5260  149.0660 C   0  0  0  0  0  3  0  0  0  0  0  0
  159.7420  212.7680  147.8690 C   0  0  0  0  0  1  0  0  0  0  0  0
  158.9310  209.2100  153.8320 O   0  0  0  0  0  0  0  0  0  0  0  0
  158.1040  213.7680  151.9050 C   0  0  0  0  0  2  0  0  0  0  0  0
  158.5580  211.4410  152.0640 O   0  0  0  0  0  0  0  0  0  0  0  0
  157.3290  213.4020  156.1990 C   0  0  0  0  0  0  0  0  0  0  0  0
  160.7030  208.3970  151.1370 O   0  0  0  0  0  0  0  0  0  0  0  0
  159.1740  211.8400  156.3430 C   0  0  0  0  0  3  0  0  0  0  0  0
  161.9150  210.1800  149.1260 O   0  0  0  0  0  1  0  0  0  0  0  0
  158.2160  212.6400  156.9660 C   0  0  0  0  0  3  0  0  0  0  0  0
  159.9480  213.5700  150.2190 C   0  0  0  0  0  0  0  0  0  0  0  0
  161.2350  208.8400  153.3870 C   0  0  0  0  0  2  0  0  0  0  0  0
  157.4010  213.3480  154.8070 C   0  0  0  0  0  3  0  0  0  0  0  0
  159.4030  214.3630  151.3690 C   0  0  0  0  0  2  0  0  0  0  0  0
  158.3460  212.5360  154.1620 C   0  0  0  0  0  0  0  0  0  0  0  0
  160.0960  209.6890  153.8620 C   0  0  0  0  0  0  0  0  0  0  0  0
  158.3610  212.5170  152.6860 C   0  0  0  0  0  0  0  0  0  0  0  0
  161.0220  211.5300  150.7400 O   0  0  0  0  0  0  0  0  0  0  0  0
  159.2490  211.7750  154.9450 C   0  0  0  0  0  0  0  0  0  0  0  0
  162.5820  209.8160  151.4000 C   0  0  0  0  0  2  0  0  0  0  0  0
  162.1620  210.8320  150.3370 C   0  0  1  0  0  3  0  0  0  0  0  0
  160.3200  211.0250  154.3510 N   0  0  0  0  0  0  0  0  0  0  0  0
  161.6890  211.4940  154.5580 C   0  0  0  0  0  2  0  0  0  0  0  0
  163.8010  210.9230  155.5540 O   0  0  0  0  0  1  0  0  0  0  0  0
  162.4710  210.5150  155.4240 C   0  0  1  0  0  3  0  0  0  0  0  0
  161.8230  210.3520  156.7990 C   0  0  0  0  0  2  0  0  0  0  0  0
  161.4940  208.9290  157.1160 C   0  0  0  0  0  0  0  0  0  0  0  0
  160.1370  208.5260  157.2610 N   0  0  0  0  0  1  0  0  0  0  0  0
  162.4150  208.0800  157.2300 O   0  0  0  0  0  0  0  0  0  0  0  0
  156.3440  214.2340  156.8180 N   0  0  0  0  0  2  0  0  0  0  0  0
  154.9770  214.1160  156.5280 N   0  0  0  0  0  2  0  0  0  0  0  0
  154.5750  212.9080  156.9900 O   0  0  0  0  0  1  0  0  0  0  0  0
  1 14  1  0  0  0  0
  2 20  1  0  0  0  0
  3 13  2  0  0  0  0
  4  3  1  0  0  0  0
  5 18  2  0  0  0  0
  6 19  1  0  0  0  0
  7 19  2  0  0  0  0
  8 32  1  0  0  0  0
  8 12  1  0  0  0  0
  9  1  2  0  0  0  0
 10 12  2  0  0  0  0
 13  2  1  0  0  0  0
 13 16  1  0  0  0  0
 14 18  1  0  0  0  0
 15  8  2  0  0  0  0
 16  6  1  0  0  0  0
 17 15  1  0  0  0  0
 17 21  2  0  0  0  0
 18 24  1  0  0  0  0
 19 17  1  0  0  0  0
 21 10  1  0  0  0  0
 22  1  1  0  0  0  0
 23 11  1  6  0  0  0
 23 20  1  0  0  0  0
 23 22  1  0  0  0  0
 24 25  1  0  0  0  0
 24 21  1  0  0  0  0
 25 27  1  0  0  0  0
 27 26  1  1  0  0  0
 27 28  1  0  0  0  0
 28 29  1  0  0  0  0
 29 31  2  0  0  0  0
 29 30  1  0  0  0  0
 33 32  1  0  0  0  0
 33 34  1  0  0  0  0
M  END
>  <MODEL>
2

>  <REMARK>
 VINA RESULT:      -1.1      2.946      6.299
  Name = 
  6 active torsions:
  status: ('A' for Active; 'I' for Inactive)
    1  A    between atoms: C_8  and  N_11
    2  A    between atoms: C_9  and  C_23
    3  A    between atoms: C_9  and  N_34
    4  A    between atoms: C_10  and  C_15
    5  A    between atoms: N_11  and  N_21
    6  A    between atoms: C_15  and  C_23
                            x       y       z     vdW  Elec       q    Type
                         _______ _______ _______ _____ _____    ______ ____

>  <TORSDO>
F 6

$$$$
