=
 OpenBabel11042422313D

 26 29  0  0  1  0  0  0  0  0999 V2000
  161.2120  208.0770  153.5170 C   0  0  0  0  0  0  0  0  0  0  0  0
  161.3130  203.4980  148.5900 C   0  0  0  0  0  2  0  0  0  0  0  0
  161.6450  204.6690  146.5260 C   0  0  1  0  0  0  0  0  0  0  0  0
  161.0290  207.8440  154.9760 C   0  0  0  0  0  1  0  0  0  0  0  0
  161.1400  204.8200  151.3510 C   0  0  0  0  0  2  0  0  0  0  0  0
  160.9100  205.0790  153.7240 O   0  0  0  0  0  0  0  0  0  0  0  0
  161.6900  207.7170  148.8530 C   0  0  0  0  0  3  0  0  0  0  0  0
  161.4410  204.9480  148.8460 C   0  0  0  0  0  0  0  0  0  0  0  0
  161.6020  203.3160  147.1590 N   0  0  0  0  0  0  0  0  0  0  0  0
  161.2300  207.1040  152.5330 C   0  0  0  0  0  0  0  0  0  0  0  0
  161.7570  207.0130  147.6450 C   0  0  0  0  0  3  0  0  0  0  0  0
  161.4960  207.0310  150.0660 C   0  0  0  0  0  0  0  0  0  0  0  0
  160.4300  204.9810  145.6350 C   0  0  0  0  0  1  0  0  0  0  0  0
  161.6350  205.6190  147.6720 C   0  0  0  0  0  0  0  0  0  0  0  0
  161.5130  209.0930  151.6530 C   0  0  0  0  0  0  0  0  0  0  0  0
  161.4210  207.7490  151.3460 C   0  0  0  0  0  0  0  0  0  0  0  0
  161.3870  209.3050  152.9790 N   0  0  0  0  0  2  0  0  0  0  0  0
  161.3630  205.6160  150.0730 C   0  0  0  0  0  0  0  0  0  0  0  0
  161.7160  210.1420  150.7120 N   0  0  0  0  0  1  0  0  0  0  0  0
  161.0840  205.6470  152.6140 C   0  0  0  0  0  0  0  0  0  0  0  0
  163.0550  203.7240  144.8360 F   0  0  0  0  0  0  0  0  0  0  0  0
  162.9410  204.7970  145.7040 C   0  0  0  0  0  0  0  0  0  0  0  0
  164.0420  204.8040  146.5440 F   0  0  0  0  0  0  0  0  0  0  0  0
  162.9390  205.9670  144.9620 F   0  0  0  0  0  0  0  0  0  0  0  0
  160.5950  202.4130  146.6020 C   0  0  0  0  0  2  0  0  0  0  0  0
  161.0290  200.9750  146.8030 C   0  0  0  0  0  1  0  0  0  0  0  0
  1  4  1  0  0  0  0
  2  8  1  0  0  0  0
  3 13  1  6  0  0  0
  3  9  1  0  0  0  0
  3 14  1  0  0  0  0
  5 20  1  0  0  0  0
  7 12  1  0  0  0  0
  8 18  1  0  0  0  0
  9  2  1  0  0  0  0
 10 20  1  0  0  0  0
 10  1  2  0  0  0  0
 11 14  1  0  0  0  0
 11  7  2  0  0  0  0
 12 18  2  0  0  0  0
 12 16  1  0  0  0  0
 14  8  2  0  0  0  0
 15 17  1  0  0  0  0
 16 15  2  0  0  0  0
 16 10  1  0  0  0  0
 17  1  1  0  0  0  0
 18  5  1  0  0  0  0
 19 15  1  0  0  0  0
 20  6  2  0  0  0  0
 21 22  1  0  0  0  0
 22  3  1  0  0  0  0
 22 23  1  0  0  0  0
 24 22  1  0  0  0  0
 25 26  1  0  0  0  0
 25  9  1  0  0  0  0
M  END
>  <MODEL>
1

>  <REMARK>
 VINA RESULT:      -9.8      0.000      0.000
  Name = 
  2 active torsions:
  status: ('A' for Active; 'I' for Inactive)
    1  A    between atoms: C_3  and  C_5
    2  A    between atoms: C_8  and  N_12
                            x       y       z     vdW  Elec       q    Type
                         _______ _______ _______ _____ _____    ______ ____

>  <TORSDO>
F 2

$$$$
=
 OpenBabel11042422313D

 26 29  0  0  1  0  0  0  0  0999 V2000
  161.2070  203.6020  148.7470 C   0  0  0  0  0  0  0  0  0  0  0  0
  160.8720  207.1650  154.4430 C   0  0  0  0  0  2  0  0  0  0  0  0
  161.0990  209.4780  153.8590 C   0  0  1  0  0  0  0  0  0  0  0  0
  161.1220  202.1230  148.5880 C   0  0  0  0  0  1  0  0  0  0  0  0
  160.9120  204.8370  152.4470 C   0  0  0  0  0  2  0  0  0  0  0  0
  160.8410  202.6050  151.5750 O   0  0  0  0  0  0  0  0  0  0  0  0
  161.3520  208.0310  150.3160 C   0  0  0  0  0  3  0  0  0  0  0  0
  161.0140  207.3050  152.9790 C   0  0  0  0  0  0  0  0  0  0  0  0
  160.7640  208.5350  154.9690 N   0  0  0  0  0  0  0  0  0  0  0  0
  161.1310  204.2980  149.9400 C   0  0  1  0  0  3  0  0  0  0  0  0
  161.3170  209.0170  151.3100 C   0  0  0  0  0  3  0  0  0  0  0  0
  161.2190  206.6730  150.6570 C   0  0  0  0  0  0  0  0  0  0  0  0
  162.4690  210.1600  154.0100 C   0  0  0  0  0  1  0  0  0  0  0  0
  161.1390  208.6230  152.6400 C   0  0  0  0  0  0  0  0  0  0  0  0
  161.4020  205.6800  148.2590 C   0  0  0  0  0  0  0  0  0  0  0  0
  161.2540  205.6210  149.6310 C   0  0  0  0  0  0  0  0  0  0  0  0
  161.3740  204.4490  147.7080 N   0  0  0  0  0  0  0  0  0  0  0  0
  161.0510  206.2910  152.0150 C   0  0  0  0  0  0  0  0  0  0  0  0
  161.5630  206.8720  147.4960 N   0  0  0  0  0  1  0  0  0  0  0  0
  160.9540  203.8320  151.3200 C   0  0  0  0  0  0  0  0  0  0  0  0
  160.5620  211.8040  153.6730 F   0  0  0  0  0  0  0  0  0  0  0  0
  159.9930  210.5450  153.7570 C   0  0  0  0  0  0  0  0  0  0  0  0
  159.1810  210.5010  154.8790 F   0  0  0  0  0  0  0  0  0  0  0  0
  159.2110  210.3380  152.6330 F   0  0  0  0  0  0  0  0  0  0  0  0
  161.6300  208.6410  156.1430 C   0  0  0  0  0  2  0  0  0  0  0  0
  161.0880  207.7720  157.2600 C   0  0  0  0  0  1  0  0  0  0  0  0
  2  9  1  0  0  0  0
  3 13  1  1  0  0  0
  3  9  1  0  0  0  0
  4  1  1  0  0  0  0
  7 12  2  0  0  0  0
  7 11  1  0  0  0  0
  8  2  1  0  0  0  0
  9 25  1  0  0  0  0
 10  1  1  6  0  0  0
 10 20  1  0  0  0  0
 11 14  2  0  0  0  0
 12 18  1  0  0  0  0
 14  8  1  0  0  0  0
 14  3  1  0  0  0  0
 15 16  2  0  0  0  0
 16 10  1  0  0  0  0
 16 12  1  0  0  0  0
 17 15  1  0  0  0  0
 17  1  2  0  0  0  0
 18  5  1  0  0  0  0
 18  8  2  0  0  0  0
 19 15  1  0  0  0  0
 20  6  2  0  0  0  0
 20  5  1  0  0  0  0
 21 22  1  0  0  0  0
 22  3  1  0  0  0  0
 22 23  1  0  0  0  0
 24 22  1  0  0  0  0
 25 26  1  0  0  0  0
M  END
>  <MODEL>
2

>  <REMARK>
 VINA RESULT:      -9.7      3.887      7.359
  Name = 
  2 active torsions:
  status: ('A' for Active; 'I' for Inactive)
    1  A    between atoms: C_3  and  C_5
    2  A    between atoms: C_8  and  N_12
                            x       y       z     vdW  Elec       q    Type
                         _______ _______ _______ _____ _____    ______ ____

>  <TORSDO>
F 2

$$$$
=
 OpenBabel11042422313D

 26 29  0  0  1  0  0  0  0  0999 V2000
  161.2200  204.4780  149.1120 C   0  0  0  0  0  0  0  0  0  0  0  0
  161.1370  210.1770  152.6860 C   0  0  0  0  0  2  0  0  0  0  0  0
  160.8760  209.5770  154.9910 C   0  0  1  0  0  0  0  0  0  0  0  0
  161.3570  204.3280  147.6360 C   0  0  0  0  0  1  0  0  0  0  0  0
  161.2750  208.1860  150.3570 C   0  0  0  0  0  2  0  0  0  0  0  0
  161.4580  207.3240  148.1280 O   0  0  0  0  0  0  0  0  0  0  0  0
  160.8600  206.0280  153.5360 C   0  0  0  0  0  3  0  0  0  0  0  0
  161.0720  208.7070  152.8210 C   0  0  0  0  0  0  0  0  0  0  0  0
  161.1760  210.7050  154.0580 N   0  0  0  0  0  0  0  0  0  0  0  0
  161.2100  205.6730  149.8110 C   0  0  0  0  0  0  0  0  0  0  0  0
  160.8120  207.0200  154.5230 C   0  0  0  0  0  3  0  0  0  0  0  0
  161.0140  206.3780  152.1820 C   0  0  0  0  0  0  0  0  0  0  0  0
  159.4810  209.6510  155.6340 C   0  0  0  0  0  1  0  0  0  0  0  0
  160.9280  208.3590  154.1350 C   0  0  0  0  0  0  0  0  0  0  0  0
  160.9920  203.9760  151.1830 C   0  0  0  0  0  0  0  0  0  0  0  0
  161.0660  205.3550  151.1290 C   0  0  0  0  0  0  0  0  0  0  0  0
  161.0870  203.4300  149.9530 N   0  0  0  0  0  2  0  0  0  0  0  0
  161.1180  207.7450  151.8060 C   0  0  0  0  0  0  0  0  0  0  0  0
  160.8390  203.2030  152.3690 N   0  0  0  0  0  1  0  0  0  0  0  0
  161.3230  207.0610  149.3510 C   0  0  0  0  0  0  0  0  0  0  0  0
  161.4620  210.1000  157.2530 F   0  0  0  0  0  0  0  0  0  0  0  0
  161.9540  209.5340  156.0900 C   0  0  0  0  0  0  0  0  0  0  0  0
  163.0720  210.2480  155.6910 F   0  0  0  0  0  0  0  0  0  0  0  0
  162.3310  208.2280  156.3580 F   0  0  0  0  0  0  0  0  0  0  0  0
  160.2440  211.8290  154.1410 C   0  0  0  0  0  2  0  0  0  0  0  0
  159.7080  212.1520  152.7600 C   0  0  0  0  0  1  0  0  0  0  0  0
  1 10  2  0  0  0  0
  1 17  1  0  0  0  0
  2  8  1  0  0  0  0
  2  9  1  0  0  0  0
  3 13  1  1  0  0  0
  3 22  1  0  0  0  0
  4  1  1  0  0  0  0
  5 18  1  0  0  0  0
  6 20  2  0  0  0  0
  7 11  1  0  0  0  0
  8 14  1  0  0  0  0
  9 25  1  0  0  0  0
  9  3  1  0  0  0  0
 10 16  1  0  0  0  0
 12  7  2  0  0  0  0
 14 11  2  0  0  0  0
 14  3  1  0  0  0  0
 15 19  1  0  0  0  0
 16 15  2  0  0  0  0
 16 12  1  0  0  0  0
 17 15  1  0  0  0  0
 18 12  1  0  0  0  0
 18  8  2  0  0  0  0
 20 10  1  0  0  0  0
 20  5  1  0  0  0  0
 22 24  1  0  0  0  0
 22 21  1  0  0  0  0
 23 22  1  0  0  0  0
 26 25  1  0  0  0  0
M  END
>  <MODEL>
3

>  <REMARK>
 VINA RESULT:      -9.5      4.407      8.164
  Name = 
  2 active torsions:
  status: ('A' for Active; 'I' for Inactive)
    1  A    between atoms: C_3  and  C_5
    2  A    between atoms: C_8  and  N_12
                            x       y       z     vdW  Elec       q    Type
                         _______ _______ _______ _____ _____    ______ ____

>  <TORSDO>
F 2

$$$$
=
 OpenBabel11042422313D

 26 29  0  0  1  0  0  0  0  0999 V2000
  161.5840  205.0710  148.4820 C   0  0  0  0  0  0  0  0  0  0  0  0
  160.4690  207.4200  154.6860 C   0  0  0  0  0  2  0  0  0  0  0  0
  160.8760  209.7810  154.6460 C   0  0  1  0  0  0  0  0  0  0  0  0
  161.4680  203.6650  148.0030 C   0  0  0  0  0  1  0  0  0  0  0  0
  160.7410  205.5490  152.2720 C   0  0  0  0  0  2  0  0  0  0  0  0
  160.7250  203.5510  150.9470 O   0  0  0  0  0  0  0  0  0  0  0  0
  161.6450  209.0680  150.9570 C   0  0  0  0  0  3  0  0  0  0  0  0
  160.8510  207.8430  153.3230 C   0  0  0  0  0  0  0  0  0  0  0  0
  160.3290  208.6580  155.4680 N   0  0  0  0  0  0  0  0  0  0  0  0
  161.3420  205.5150  149.7710 C   0  0  2  0  0  3  0  0  0  0  0  0
  161.4870  209.8320  152.1200 C   0  0  0  0  0  3  0  0  0  0  0  0
  161.4050  207.6820  150.9780 C   0  0  0  0  0  0  0  0  0  0  0  0
  162.2290  210.3180  155.1430 C   0  0  0  0  0  1  0  0  0  0  0  0
  161.0810  209.1900  153.2950 C   0  0  0  0  0  0  0  0  0  0  0  0
  161.9360  207.1860  148.4810 C   0  0  0  0  0  0  0  0  0  0  0  0
  161.5660  206.8600  149.7710 C   0  0  0  0  0  0  0  0  0  0  0  0
  161.9500  206.0970  147.6830 N   0  0  0  0  0  0  0  0  0  0  0  0
  161.0040  207.0450  152.1840 C   0  0  0  0  0  0  0  0  0  0  0  0
  162.2650  208.4920  148.0200 N   0  0  0  0  0  1  0  0  0  0  0  0
  160.9270  204.7930  150.9770 C   0  0  0  0  0  0  0  0  0  0  0  0
  160.4660  212.1060  154.2470 F   0  0  0  0  0  0  0  0  0  0  0  0
  159.8440  210.9230  154.6080 C   0  0  0  0  0  0  0  0  0  0  0  0
  159.2680  211.0890  155.8560 F   0  0  0  0  0  0  0  0  0  0  0  0
  158.8440  210.6510  153.6880 F   0  0  0  0  0  0  0  0  0  0  0  0
  160.9970  208.4620  156.7540 C   0  0  0  0  0  2  0  0  0  0  0  0
  160.7330  207.0580  157.2600 C   0  0  0  0  0  1  0  0  0  0  0  0
  2  9  1  0  0  0  0
  3 13  1  1  0  0  0
  3  9  1  0  0  0  0
  4  1  1  0  0  0  0
  6 20  2  0  0  0  0
  7 12  2  0  0  0  0
  7 11  1  0  0  0  0
  8  2  1  0  0  0  0
  9 25  1  0  0  0  0
 10  1  1  1  0  0  0
 10 20  1  0  0  0  0
 11 14  2  0  0  0  0
 12 18  1  0  0  0  0
 14  8  1  0  0  0  0
 14  3  1  0  0  0  0
 15 16  2  0  0  0  0
 16 10  1  0  0  0  0
 16 12  1  0  0  0  0
 17 15  1  0  0  0  0
 17  1  2  0  0  0  0
 18  5  1  0  0  0  0
 18  8  2  0  0  0  0
 19 15  1  0  0  0  0
 20  5  1  0  0  0  0
 21 22  1  0  0  0  0
 22  3  1  0  0  0  0
 22 23  1  0  0  0  0
 24 22  1  0  0  0  0
 25 26  1  0  0  0  0
M  END
>  <MODEL>
4

>  <REMARK>
 VINA RESULT:      -8.6      4.207      7.639
  Name = 
  2 active torsions:
  status: ('A' for Active; 'I' for Inactive)
    1  A    between atoms: C_3  and  C_5
    2  A    between atoms: C_8  and  N_12
                            x       y       z     vdW  Elec       q    Type
                         _______ _______ _______ _____ _____    ______ ____

>  <TORSDO>
F 2

$$$$
=
 OpenBabel11042422313D

 26 29  0  0  1  0  0  0  0  0999 V2000
  161.5730  203.9990  148.0400 C   0  0  0  0  0  0  0  0  0  0  0  0
  161.5240  210.2330  150.5670 C   0  0  0  0  0  2  0  0  0  0  0  0
  160.9440  210.0650  152.8860 C   0  0  1  0  0  0  0  0  0  0  0  0
  161.8720  203.5840  146.6410 C   0  0  0  0  0  1  0  0  0  0  0  0
  161.7770  207.8590  148.6430 C   0  0  0  0  0  2  0  0  0  0  0  0
  162.1540  206.6090  146.6330 O   0  0  0  0  0  0  0  0  0  0  0  0
  160.8170  206.3230  152.0560 C   0  0  0  0  0  3  0  0  0  0  0  0
  161.3260  208.8160  150.9370 C   0  0  0  0  0  0  0  0  0  0  0  0
  161.4420  210.9920  151.8250 N   0  0  0  0  0  0  0  0  0  0  0  0
  161.5760  205.2970  148.5210 C   0  0  0  0  0  0  0  0  0  0  0  0
  160.7320  207.4740  152.8480 C   0  0  0  0  0  3  0  0  0  0  0  0
  161.1570  206.4190  150.6940 C   0  0  0  0  0  0  0  0  0  0  0  0
  159.4930  210.3330  153.3190 C   0  0  0  0  0  1  0  0  0  0  0  0
  160.9990  208.7150  152.2600 C   0  0  0  0  0  0  0  0  0  0  0  0
  161.0620  203.8850  150.1180 C   0  0  0  0  0  0  0  0  0  0  0  0
  161.2510  205.2250  149.8440 C   0  0  0  0  0  0  0  0  0  0  0  0
  161.2570  203.1250  149.0200 N   0  0  0  0  0  2  0  0  0  0  0  0
  161.4150  207.6900  150.1120 C   0  0  0  0  0  0  0  0  0  0  0  0
  160.7070  203.3430  151.3870 N   0  0  0  0  0  1  0  0  0  0  0  0
  161.8540  206.5730  147.8540 C   0  0  0  0  0  0  0  0  0  0  0  0
  161.8090  208.9790  154.8380 F   0  0  0  0  0  0  0  0  0  0  0  0
  161.8770  210.1540  154.1080 C   0  0  0  0  0  0  0  0  0  0  0  0
  161.4960  211.2050  154.9260 F   0  0  0  0  0  0  0  0  0  0  0  0
  163.1900  210.3510  153.7110 F   0  0  0  0  0  0  0  0  0  0  0  0
  160.6000  212.1660  151.5950 C   0  0  0  0  0  2  0  0  0  0  0  0
  160.6830  212.5790  150.1390 C   0  0  0  0  0  1  0  0  0  0  0  0
  1 10  2  0  0  0  0
  1 17  1  0  0  0  0
  2  8  1  0  0  0  0
  2  9  1  0  0  0  0
  3 13  1  1  0  0  0
  3 22  1  0  0  0  0
  4  1  1  0  0  0  0
  5 18  1  0  0  0  0
  6 20  2  0  0  0  0
  7 11  1  0  0  0  0
  8 14  1  0  0  0  0
  9  3  1  0  0  0  0
 10 16  1  0  0  0  0
 12  7  2  0  0  0  0
 14 11  2  0  0  0  0
 14  3  1  0  0  0  0
 15 19  1  0  0  0  0
 16 15  2  0  0  0  0
 16 12  1  0  0  0  0
 17 15  1  0  0  0  0
 18 12  1  0  0  0  0
 18  8  2  0  0  0  0
 20 10  1  0  0  0  0
 20  5  1  0  0  0  0
 22 21  1  0  0  0  0
 22 23  1  0  0  0  0
 24 22  1  0  0  0  0
 25  9  1  0  0  0  0
 26 25  1  0  0  0  0
M  END
>  <MODEL>
5

>  <REMARK>
 VINA RESULT:      -7.3      4.035      7.556
  Name = 
  2 active torsions:
  status: ('A' for Active; 'I' for Inactive)
    1  A    between atoms: C_3  and  C_5
    2  A    between atoms: C_8  and  N_12
                            x       y       z     vdW  Elec       q    Type
                         _______ _______ _______ _____ _____    ______ ____

>  <TORSDO>
F 2

$$$$
=
 OpenBabel11042422313D

 26 29  0  0  1  0  0  0  0  0999 V2000
  160.9710  202.7740  148.3660 C   0  0  0  0  0  0  0  0  0  0  0  0
  161.7640  209.3680  149.4340 C   0  0  0  0  0  2  0  0  0  0  0  0
  161.3800  209.7710  151.7640 C   0  0  1  0  0  0  0  0  0  0  0  0
  161.1010  202.0350  147.0790 C   0  0  0  0  0  1  0  0  0  0  0  0
  161.6090  206.6230  148.0760 C   0  0  0  0  0  2  0  0  0  0  0  0
  161.6800  204.9340  146.3760 O   0  0  0  0  0  0  0  0  0  0  0  0
  160.8090  205.9790  151.8020 C   0  0  0  0  0  3  0  0  0  0  0  0
  161.4610  208.0970  150.1230 C   0  0  0  0  0  0  0  0  0  0  0  0
  161.8710  210.3840  150.4920 N   0  0  0  0  0  0  0  0  0  0  0  0
  161.1450  204.1350  148.5440 C   0  0  0  0  0  0  0  0  0  0  0  0
  160.9090  207.2760  152.3200 C   0  0  0  0  0  3  0  0  0  0  0  0
  161.0350  205.7400  150.4340 C   0  0  0  0  0  0  0  0  0  0  0  0
  160.0070  210.2930  152.2200 C   0  0  0  0  0  1  0  0  0  0  0  0
  161.2450  208.3210  151.4530 C   0  0  0  0  0  0  0  0  0  0  0  0
  160.6380  203.1690  150.4460 C   0  0  0  0  0  0  0  0  0  0  0  0
  160.9340  204.3880  149.8680 C   0  0  0  0  0  0  0  0  0  0  0  0
  160.6580  202.1740  149.5350 N   0  0  0  0  0  2  0  0  0  0  0  0
  161.3640  206.8170  149.5660 C   0  0  0  0  0  0  0  0  0  0  0  0
  160.3460  202.9580  151.8240 N   0  0  0  0  0  1  0  0  0  0  0  0
  161.4880  205.1970  147.5920 C   0  0  0  0  0  0  0  0  0  0  0  0
  163.6370  210.3620  152.3070 F   0  0  0  0  0  0  0  0  0  0  0  0
  162.4220  210.0110  152.8720 C   0  0  0  0  0  0  0  0  0  0  0  0
  162.6000  208.8590  153.6200 F   0  0  0  0  0  0  0  0  0  0  0  0
  162.0170  211.0330  153.7160 F   0  0  0  0  0  0  0  0  0  0  0  0
  161.1320  211.5700  150.0620 C   0  0  0  0  0  2  0  0  0  0  0  0
  161.8350  212.2110  148.8820 C   0  0  0  0  0  1  0  0  0  0  0  0
  1 10  2  0  0  0  0
  1 17  1  0  0  0  0
  2  8  1  0  0  0  0
  2  9  1  0  0  0  0
  3 13  1  1  0  0  0
  3 22  1  0  0  0  0
  4  1  1  0  0  0  0
  5 18  1  0  0  0  0
  6 20  2  0  0  0  0
  7 11  1  0  0  0  0
  8 14  1  0  0  0  0
  9  3  1  0  0  0  0
 10 16  1  0  0  0  0
 12  7  2  0  0  0  0
 14  3  1  0  0  0  0
 14 11  2  0  0  0  0
 15 19  1  0  0  0  0
 16 12  1  0  0  0  0
 16 15  2  0  0  0  0
 17 15  1  0  0  0  0
 18  8  2  0  0  0  0
 18 12  1  0  0  0  0
 20  5  1  0  0  0  0
 20 10  1  0  0  0  0
 21 22  1  0  0  0  0
 22 23  1  0  0  0  0
 22 24  1  0  0  0  0
 25  9  1  0  0  0  0
 26 25  1  0  0  0  0
M  END
>  <MODEL>
6

>  <REMARK>
 VINA RESULT:      -7.1      3.727      7.101
  Name = 
  2 active torsions:
  status: ('A' for Active; 'I' for Inactive)
    1  A    between atoms: C_3  and  C_5
    2  A    between atoms: C_8  and  N_12
                            x       y       z     vdW  Elec       q    Type
                         _______ _______ _______ _____ _____    ______ ____

>  <TORSDO>
F 2

$$$$
=
 OpenBabel11042422313D

 26 29  0  0  1  0  0  0  0  0999 V2000
  159.5190  211.9950  155.8290 C   0  0  0  0  0  0  0  0  0  0  0  0
  161.2570  208.5060  150.3470 C   0  0  0  0  0  2  0  0  0  0  0  0
  161.7340  206.2630  151.0420 C   0  0  1  0  0  0  0  0  0  0  0  0
  159.1370  213.4320  155.9140 C   0  0  0  0  0  1  0  0  0  0  0  0
  160.3840  210.7760  152.2140 C   0  0  0  0  0  2  0  0  0  0  0  0
  159.7040  212.9480  152.9690 O   0  0  0  0  0  0  0  0  0  0  0  0
  160.8310  207.6840  154.4890 C   0  0  0  0  0  3  0  0  0  0  0  0
  161.0490  208.3740  151.8040 C   0  0  0  0  0  0  0  0  0  0  0  0
  161.5270  207.1470  149.8540 N   0  0  0  0  0  0  0  0  0  0  0  0
  159.8680  211.3120  154.6780 C   0  0  0  0  0  0  0  0  0  0  0  0
  161.2210  206.7210  153.5490 C   0  0  0  0  0  3  0  0  0  0  0  0
  160.5510  209.0020  154.0820 C   0  0  0  0  0  0  0  0  0  0  0  0
  163.1960  205.8390  151.2590 C   0  0  0  0  0  1  0  0  0  0  0  0
  161.3160  207.0950  152.2050 C   0  0  0  0  0  0  0  0  0  0  0  0
  159.9480  209.9780  156.4160 C   0  0  0  0  0  0  0  0  0  0  0  0
  160.1410  210.0290  155.0500 C   0  0  0  0  0  0  0  0  0  0  0  0
  159.5660  211.1770  156.9040 N   0  0  0  0  0  2  0  0  0  0  0  0
  160.6640  209.3660  152.7130 C   0  0  0  0  0  0  0  0  0  0  0  0
  160.1200  208.8250  157.2330 N   0  0  0  0  0  1  0  0  0  0  0  0
  159.9640  211.7580  153.2840 C   0  0  0  0  0  0  0  0  0  0  0  0
  161.5410  204.0130  150.2450 F   0  0  0  0  0  0  0  0  0  0  0  0
  160.8440  205.0150  150.8990 C   0  0  0  0  0  0  0  0  0  0  0  0
  159.7100  205.3170  150.1630 F   0  0  0  0  0  0  0  0  0  0  0  0
  160.4550  204.5420  152.1420 F   0  0  0  0  0  0  0  0  0  0  0  0
  162.6650  207.2120  148.9380 C   0  0  0  0  0  2  0  0  0  0  0  0
  162.2930  206.5750  147.6130 C   0  0  0  0  0  1  0  0  0  0  0  0
  1  4  1  0  0  0  0
  1 17  1  0  0  0  0
  2  8  1  0  0  0  0
  3 13  1  1  0  0  0
  3 14  1  0  0  0  0
  5 18  1  0  0  0  0
  5 20  1  0  0  0  0
  6 20  2  0  0  0  0
  8 14  2  0  0  0  0
  8 18  1  0  0  0  0
  9  2  1  0  0  0  0
  9  3  1  0  0  0  0
 10 16  1  0  0  0  0
 10  1  2  0  0  0  0
 11  7  2  0  0  0  0
 12  7  1  0  0  0  0
 12 16  1  0  0  0  0
 14 11  1  0  0  0  0
 15 17  1  0  0  0  0
 15 19  1  0  0  0  0
 16 15  2  0  0  0  0
 18 12  2  0  0  0  0
 20 10  1  0  0  0  0
 21 22  1  0  0  0  0
 22  3  1  0  0  0  0
 22 24  1  0  0  0  0
 23 22  1  0  0  0  0
 25  9  1  0  0  0  0
 26 25  1  0  0  0  0
M  END
>  <MODEL>
7

>  <REMARK>
 VINA RESULT:      -6.9      3.552      5.639
  Name = 
  2 active torsions:
  status: ('A' for Active; 'I' for Inactive)
    1  A    between atoms: C_3  and  C_5
    2  A    between atoms: C_8  and  N_12
                            x       y       z     vdW  Elec       q    Type
                         _______ _______ _______ _____ _____    ______ ____

>  <TORSDO>
F 2

$$$$
=
 OpenBabel11042422313D

 26 29  0  0  1  0  0  0  0  0999 V2000
  161.3630  209.2120  153.2120 C   0  0  0  0  0  0  0  0  0  0  0  0
  161.2330  204.7740  148.1590 C   0  0  0  0  0  2  0  0  0  0  0  0
  160.9710  202.5950  149.1210 C   0  0  1  0  0  0  0  0  0  0  0  0
  161.5120  210.6920  153.1250 C   0  0  0  0  0  1  0  0  0  0  0  0
  161.3890  207.3900  149.7510 C   0  0  0  0  0  2  0  0  0  0  0  0
  161.5800  209.7280  150.2440 O   0  0  0  0  0  0  0  0  0  0  0  0
  160.9640  204.6000  152.3910 C   0  0  0  0  0  3  0  0  0  0  0  0
  161.1380  204.8790  149.6300 C   0  0  0  0  0  0  0  0  0  0  0  0
  160.9660  203.3630  147.8390 N   0  0  0  0  0  0  0  0  0  0  0  0
  161.3380  208.3320  152.1450 C   0  0  0  0  0  0  0  0  0  0  0  0
  160.9010  203.4680  151.5690 C   0  0  0  0  0  3  0  0  0  0  0  0
  161.1170  205.8800  151.8280 C   0  0  0  0  0  0  0  0  0  0  0  0
  162.2100  201.7040  149.3110 C   0  0  0  0  0  1  0  0  0  0  0  0
  160.9850  203.6390  150.1830 C   0  0  0  0  0  0  0  0  0  0  0  0
  161.1250  207.2490  154.0400 C   0  0  0  0  0  0  0  0  0  0  0  0
  161.1870  207.0820  152.6700 C   0  0  0  0  0  0  0  0  0  0  0  0
  161.2310  208.5500  154.3830 N   0  0  0  0  0  2  0  0  0  0  0  0
  161.2120  206.0330  150.4180 C   0  0  0  0  0  0  0  0  0  0  0  0
  160.9680  206.2030  154.9930 N   0  0  0  0  0  1  0  0  0  0  0  0
  161.4430  208.5640  150.7000 C   0  0  0  0  0  0  0  0  0  0  0  0
  159.9300  200.6140  149.9740 F   0  0  0  0  0  0  0  0  0  0  0  0
  159.6950  201.7360  149.1970 C   0  0  0  0  0  0  0  0  0  0  0  0
  159.3190  201.3250  147.9290 F   0  0  0  0  0  0  0  0  0  0  0  0
  158.6530  202.4530  149.7610 F   0  0  0  0  0  0  0  0  0  0  0  0
  161.9580  202.9220  146.8600 C   0  0  0  0  0  2  0  0  0  0  0  0
  161.9970  203.8930  145.6970 C   0  0  0  0  0  1  0  0  0  0  0  0
  1 17  1  0  0  0  0
  2  8  1  0  0  0  0
  3 22  1  0  0  0  0
  3 13  1  1  0  0  0
  3 14  1  0  0  0  0
  4  1  1  0  0  0  0
  5 18  1  0  0  0  0
  5 20  1  0  0  0  0
  6 20  2  0  0  0  0
  8 14  2  0  0  0  0
  8 18  1  0  0  0  0
  9  2  1  0  0  0  0
  9  3  1  0  0  0  0
 10 16  1  0  0  0  0
 10  1  2  0  0  0  0
 11  7  2  0  0  0  0
 12  7  1  0  0  0  0
 12 16  1  0  0  0  0
 14 11  1  0  0  0  0
 15 17  1  0  0  0  0
 15 19  1  0  0  0  0
 16 15  2  0  0  0  0
 18 12  2  0  0  0  0
 20 10  1  0  0  0  0
 22 24  1  0  0  0  0
 22 21  1  0  0  0  0
 23 22  1  0  0  0  0
 25  9  1  0  0  0  0
 26 25  1  0  0  0  0
M  END
>  <MODEL>
8

>  <REMARK>
 VINA RESULT:      -6.8      2.803      3.967
  Name = 
  2 active torsions:
  status: ('A' for Active; 'I' for Inactive)
    1  A    between atoms: C_3  and  C_5
    2  A    between atoms: C_8  and  N_12
                            x       y       z     vdW  Elec       q    Type
                         _______ _______ _______ _____ _____    ______ ____

>  <TORSDO>
F 2

$$$$
