=
 OpenBabel11042421433D

 47 50  0  0  1  0  0  0  0  0999 V2000
  159.5430  212.6440  150.6870 C   0  0  0  0  0  3  0  0  0  0  0  0
  161.8810  211.0420  151.1720 C   0  0  2  0  0  3  0  0  0  0  0  0
  159.6040  211.9310  151.8100 C   0  0  0  0  0  0  0  0  0  0  0  0
  160.8340  211.2740  152.1840 N   0  0  0  0  0  0  0  0  0  0  0  0
  158.3980  211.8610  152.6840 C   0  0  0  0  0  1  0  0  0  0  0  0
  160.7290  212.7790  149.8220 C   0  0  0  0  0  0  0  0  0  0  0  0
  161.8380  212.0790  150.0770 C   0  0  0  0  0  3  0  0  0  0  0  0
  161.3770  208.6100  151.4380 C   0  0  0  0  0  3  0  0  0  0  0  0
  161.2130  207.3230  150.9200 C   0  0  0  0  0  3  0  0  0  0  0  0
  161.4340  207.0670  149.5560 C   0  0  0  0  0  0  0  0  0  0  0  0
  161.8250  208.1260  148.7190 C   0  0  0  0  0  3  0  0  0  0  0  0
  161.7660  209.6620  150.6020 C   0  0  0  0  0  0  0  0  0  0  0  0
  161.9840  209.4150  149.2370 C   0  0  0  0  0  3  0  0  0  0  0  0
  161.2960  205.4510  147.6440 C   0  0  0  0  0  3  0  0  0  0  0  0
  161.1870  203.8590  145.8160 C   0  0  0  0  0  3  0  0  0  0  0  0
  161.0220  202.5380  145.3780 C   0  0  0  0  0  3  0  0  0  0  0  0
  160.8170  201.4990  146.2980 C   0  0  0  0  0  0  0  0  0  0  0  0
  161.2580  205.7000  149.0220 C   0  0  0  0  0  0  0  0  0  0  0  0
  161.1500  204.1450  147.1850 C   0  0  0  0  0  0  0  0  0  0  0  0
  160.9610  203.1040  148.1160 C   0  0  0  0  0  0  0  0  0  0  0  0
  160.7910  201.7860  147.6730 C   0  0  0  0  0  3  0  0  0  0  0  0
  160.9360  203.3930  149.4460 N   0  0  0  0  0  0  0  0  0  0  0  0
  161.0850  204.6490  149.8810 N   0  0  0  0  0  0  0  0  0  0  0  0
  160.6230  200.1660  145.8090 N   0  0  0  0  0  2  0  0  0  0  0  0
  161.4950  199.0480  146.1460 C   0  0  0  0  0  2  0  0  0  0  0  0
  161.4710  198.0190  145.0310 C   0  0  0  0  0  1  0  0  0  0  0  0
  162.4890  210.4260  153.7820 C   0  0  0  0  0  1  0  0  0  0  0  0
  161.0450  210.8500  153.5730 C   0  0  2  0  0  3  0  0  0  0  0  0
  160.1900  209.7960  153.9080 O   0  0  0  0  0  0  0  0  0  0  0  0
  160.7050  209.2610  155.0890 C   0  0  0  0  0  2  0  0  0  0  0  0
  159.7490  209.5620  156.2270 C   0  0  0  0  0  2  0  0  0  0  0  0
  160.1870  210.8110  156.9620 C   0  0  0  0  0  2  0  0  0  0  0  0
  159.3360  211.9950  156.5250 C   0  0  2  0  0  3  0  0  0  0  0  0
  159.9790  213.3020  156.9880 C   0  0  0  0  0  1  0  0  0  0  0  0
  158.0320  211.8800  157.0830 O   0  0  0  0  0  0  0  0  0  0  0  0
  156.8700  213.1690  155.5480 O   0  0  0  0  0  0  0  0  0  0  0  0
  156.8770  212.2080  156.3690 C   0  0  0  0  0  0  0  0  0  0  0  0
  155.6340  211.4080  156.5590 C   0  0  0  0  0  1  0  0  0  0  0  0
  160.7420  213.7900  148.7180 C   0  0  0  0  0  2  0  0  0  0  0  0
  161.1170  213.1440  147.3900 C   0  0  0  0  0  2  0  0  0  0  0  0
  160.1000  213.4950  146.3160 C   0  0  0  0  0  2  0  0  0  0  0  0
  160.7030  213.2780  144.9400 C   0  0  0  0  0  2  0  0  0  0  0  0
  159.9120  212.3890  144.2010 O   0  0  0  0  0  0  0  0  0  0  0  0
  158.8670  213.1860  142.3470 O   0  0  0  0  0  1  0  0  0  0  0  0
  160.0900  212.7740  142.8720 C   0  0  2  0  0  3  0  0  0  0  0  0
  160.6060  211.5890  142.0730 C   0  0  0  0  0  2  0  0  0  0  0  0
  161.5590  212.0120  141.1430 O   0  0  0  0  0  1  0  0  0  0  0  0
  1  3  2  0  0  0  0
  2 12  1  6  0  0  0
  2  4  1  0  0  0  0
  3  4  1  0  0  0  0
  3  5  1  0  0  0  0
  4 28  1  0  0  0  0
  6  7  2  0  0  0  0
  6  1  1  0  0  0  0
  7  2  1  0  0  0  0
  9  8  1  0  0  0  0
 10  9  2  0  0  0  0
 11 13  2  0  0  0  0
 11 10  1  0  0  0  0
 12  8  2  0  0  0  0
 13 12  1  0  0  0  0
 14 18  1  0  0  0  0
 15 19  1  0  0  0  0
 16 15  2  0  0  0  0
 16 17  1  0  0  0  0
 17 21  2  0  0  0  0
 18 10  1  0  0  0  0
 18 23  2  0  0  0  0
 19 14  2  0  0  0  0
 19 20  1  0  0  0  0
 20 22  2  0  0  0  0
 21 20  1  0  0  0  0
 22 23  1  0  0  0  0
 24 25  1  0  0  0  0
 24 17  1  0  0  0  0
 26 25  1  0  0  0  0
 28 27  1  6  0  0  0
 28 29  1  0  0  0  0
 29 30  1  0  0  0  0
 30 31  1  0  0  0  0
 31 32  1  0  0  0  0
 33 32  1  0  0  0  0
 33 34  1  1  0  0  0
 33 35  1  0  0  0  0
 36 37  2  0  0  0  0
 37 38  1  0  0  0  0
 37 35  1  0  0  0  0
 39  6  1  0  0  0  0
 40 39  1  0  0  0  0
 41 40  1  0  0  0  0
 42 41  1  0  0  0  0
 43 42  1  0  0  0  0
 45 44  1  6  0  0  0
 45 43  1  0  0  0  0
 46 45  1  0  0  0  0
 47 46  1  0  0  0  0
M  END
>  <MODEL>
1

>  <REMARK>
 VINA RESULT:      -5.4      0.000      0.000
  Name = 
  19 active torsions:
  status: ('A' for Active; 'I' for Inactive)
    1  A    between atoms: C_1  and  C_8
    2  A    between atoms: C_1  and  C_39
    3  A    between atoms: C_4  and  C_30
    4  A    between atoms: O_5  and  C_35
    5  A    between atoms: O_5  and  C_41
    6  A    between atoms: C_6  and  N_47
    7  A    between atoms: C_8  and  O_25
    8  A    between atoms: C_9  and  O_21
    9  A    between atoms: C_9  and  C_24
   10  A    between atoms: C_11  and  C_32
   11  A    between atoms: C_15  and  C_18
   12  A    between atoms: C_17  and  N_47
   13  A    between atoms: O_21  and  C_30
   14  A    between atoms: C_22  and  C_24
   15  A    between atoms: C_22  and  C_31
   16  A    between atoms: O_25  and  C_34
   17  A    between atoms: N_28  and  C_41
   18  A    between atoms: C_31  and  C_38
   19  A    between atoms: C_35  and  C_39
                            x       y       z     vdW  Elec       q    Type
                         _______ _______ _______ _____ _____    ______ ____

>  <TORSDO>
F 19

$$$$
=
 OpenBabel11042421433D

 47 50  0  0  1  0  0  0  0  0999 V2000
  160.7030  214.2350  146.7080 C   0  0  0  0  0  3  0  0  0  0  0  0
  161.7580  213.0120  149.0860 C   0  0  2  0  0  3  0  0  0  0  0  0
  159.8900  214.0650  147.7490 C   0  0  0  0  0  0  0  0  0  0  0  0
  160.4250  213.6390  149.0210 N   0  0  0  0  0  0  0  0  0  0  0  0
  158.4380  214.3590  147.5850 C   0  0  0  0  0  1  0  0  0  0  0  0
  162.1520  214.0030  146.8440 C   0  0  0  0  0  0  0  0  0  0  0  0
  162.6530  213.4880  147.9700 C   0  0  0  0  0  3  0  0  0  0  0  0
  161.3860  210.8680  147.8590 C   0  0  0  0  0  3  0  0  0  0  0  0
  161.3210  209.4730  147.8100 C   0  0  0  0  0  3  0  0  0  0  0  0
  161.5060  208.7070  148.9720 C   0  0  0  0  0  0  0  0  0  0  0  0
  161.7580  209.3630  150.1890 C   0  0  0  0  0  3  0  0  0  0  0  0
  161.6380  211.5190  149.0710 C   0  0  0  0  0  0  0  0  0  0  0  0
  161.8280  210.7590  150.2370 C   0  0  0  0  0  3  0  0  0  0  0  0
  161.5040  206.5570  147.6800 C   0  0  0  0  0  3  0  0  0  0  0  0
  161.5260  204.4610  146.4590 C   0  0  0  0  0  3  0  0  0  0  0  0
  161.4600  203.0610  146.4690 C   0  0  0  0  0  3  0  0  0  0  0  0
  161.3200  202.3600  147.6760 C   0  0  0  0  0  0  0  0  0  0  0  0
  161.4330  207.2320  148.9050 C   0  0  0  0  0  0  0  0  0  0  0  0
  161.4550  205.1660  147.6650 C   0  0  0  0  0  0  0  0  0  0  0  0
  161.3310  204.4680  148.8830 C   0  0  0  0  0  0  0  0  0  0  0  0
  161.2590  203.0700  148.8870 C   0  0  0  0  0  3  0  0  0  0  0  0
  161.2710  205.1650  150.0500 N   0  0  0  0  0  0  0  0  0  0  0  0
  161.3270  206.5020  150.0580 N   0  0  0  0  0  0  0  0  0  0  0  0
  161.2260  200.9300  147.6430 N   0  0  0  0  0  2  0  0  0  0  0  0
  160.8900  200.1700  146.4450 C   0  0  0  0  0  2  0  0  0  0  0  0
  161.6450  198.8560  146.4380 C   0  0  0  0  0  1  0  0  0  0  0  0
  160.5530  214.3030  151.3780 C   0  0  0  0  0  1  0  0  0  0  0  0
  159.6460  213.8450  150.2480 C   0  0  2  0  0  3  0  0  0  0  0  0
  158.9840  212.6720  150.6210 O   0  0  0  0  0  0  0  0  0  0  0  0
  158.5190  212.9030  151.9160 C   0  0  0  0  0  2  0  0  0  0  0  0
  158.7170  211.6490  152.7450 C   0  0  0  0  0  2  0  0  0  0  0  0
  159.3210  211.9990  154.0880 C   0  0  0  0  0  2  0  0  0  0  0  0
  159.0040  210.9070  155.1000 C   0  0  2  0  0  3  0  0  0  0  0  0
  158.2340  211.4950  156.2820 C   0  0  0  0  0  1  0  0  0  0  0  0
  160.2140  210.3180  155.5630 O   0  0  0  0  0  0  0  0  0  0  0  0
  162.1760  210.3340  154.3290 O   0  0  0  0  0  0  0  0  0  0  0  0
  161.1360  209.7190  154.7010 C   0  0  0  0  0  0  0  0  0  0  0  0
  160.9060  208.3270  154.2180 C   0  0  0  0  0  1  0  0  0  0  0  0
  163.0880  214.4530  145.7670 C   0  0  0  0  0  2  0  0  0  0  0  0
  162.4430  214.3210  144.3920 C   0  0  0  0  0  2  0  0  0  0  0  0
  162.5940  212.9040  143.8620 C   0  0  0  0  0  2  0  0  0  0  0  0
  161.9430  212.7900  142.4950 C   0  0  0  0  0  2  0  0  0  0  0  0
  162.8190  212.1710  141.5950 O   0  0  0  0  0  0  0  0  0  0  0  0
  161.6330  211.3270  139.8500 O   0  0  0  0  0  1  0  0  0  0  0  0
  162.2930  212.4540  140.3340 C   0  0  2  0  0  3  0  0  0  0  0  0
  163.4250  212.8180  139.3890 C   0  0  0  0  0  2  0  0  0  0  0  0
  162.9160  213.4050  138.2280 O   0  0  0  0  0  1  0  0  0  0  0  0
  1  6  1  0  0  0  0
  1  3  2  0  0  0  0
  2 12  1  6  0  0  0
  3  4  1  0  0  0  0
  4  2  1  0  0  0  0
  4 28  1  0  0  0  0
  5  3  1  0  0  0  0
  6  7  2  0  0  0  0
  7  2  1  0  0  0  0
  8 12  1  0  0  0  0
  9  8  2  0  0  0  0
  9 10  1  0  0  0  0
 10 11  2  0  0  0  0
 11 13  1  0  0  0  0
 12 13  2  0  0  0  0
 14 18  1  0  0  0  0
 15 16  2  0  0  0  0
 15 19  1  0  0  0  0
 16 17  1  0  0  0  0
 17 21  2  0  0  0  0
 18 10  1  0  0  0  0
 18 23  2  0  0  0  0
 19 14  2  0  0  0  0
 19 20  1  0  0  0  0
 20 21  1  0  0  0  0
 20 22  2  0  0  0  0
 22 23  1  0  0  0  0
 24 17  1  0  0  0  0
 25 24  1  0  0  0  0
 26 25  1  0  0  0  0
 28 29  1  0  0  0  0
 28 27  1  1  0  0  0
 29 30  1  0  0  0  0
 30 31  1  0  0  0  0
 31 32  1  0  0  0  0
 32 33  1  0  0  0  0
 33 35  1  0  0  0  0
 33 34  1  1  0  0  0
 36 37  2  0  0  0  0
 37 35  1  0  0  0  0
 38 37  1  0  0  0  0
 39  6  1  0  0  0  0
 40 39  1  0  0  0  0
 41 40  1  0  0  0  0
 42 41  1  0  0  0  0
 43 42  1  0  0  0  0
 45 44  1  6  0  0  0
 45 43  1  0  0  0  0
 46 45  1  0  0  0  0
 47 46  1  0  0  0  0
M  END
>  <MODEL>
2

>  <REMARK>
 VINA RESULT:      -4.9      1.873      3.473
  Name = 
  19 active torsions:
  status: ('A' for Active; 'I' for Inactive)
    1  A    between atoms: C_1  and  C_8
    2  A    between atoms: C_1  and  C_39
    3  A    between atoms: C_4  and  C_30
    4  A    between atoms: O_5  and  C_35
    5  A    between atoms: O_5  and  C_41
    6  A    between atoms: C_6  and  N_47
    7  A    between atoms: C_8  and  O_25
    8  A    between atoms: C_9  and  O_21
    9  A    between atoms: C_9  and  C_24
   10  A    between atoms: C_11  and  C_32
   11  A    between atoms: C_15  and  C_18
   12  A    between atoms: C_17  and  N_47
   13  A    between atoms: O_21  and  C_30
   14  A    between atoms: C_22  and  C_24
   15  A    between atoms: C_22  and  C_31
   16  A    between atoms: O_25  and  C_34
   17  A    between atoms: N_28  and  C_41
   18  A    between atoms: C_31  and  C_38
   19  A    between atoms: C_35  and  C_39
                            x       y       z     vdW  Elec       q    Type
                         _______ _______ _______ _____ _____    ______ ____

>  <TORSDO>
F 19

$$$$
=
 OpenBabel11042421433D

 47 50  0  0  1  0  0  0  0  0999 V2000
  159.1980  213.2560  150.3570 C   0  0  0  0  0  3  0  0  0  0  0  0
  161.5540  211.7410  151.0050 C   0  0  2  0  0  3  0  0  0  0  0  0
  159.2200  212.5730  151.5010 C   0  0  0  0  0  0  0  0  0  0  0  0
  160.4490  211.9650  151.9540 N   0  0  0  0  0  0  0  0  0  0  0  0
  157.9720  212.4870  152.3120 C   0  0  0  0  0  1  0  0  0  0  0  0
  160.4230  213.4070  149.5520 C   0  0  0  0  0  0  0  0  0  0  0  0
  161.5370  212.7490  149.8830 C   0  0  0  0  0  3  0  0  0  0  0  0
  161.8920  210.1140  149.1400 C   0  0  0  0  0  3  0  0  0  0  0  0
  161.9090  208.8140  148.6280 C   0  0  0  0  0  3  0  0  0  0  0  0
  161.5460  207.7230  149.4350 C   0  0  0  0  0  0  0  0  0  0  0  0
  161.1620  207.9580  150.7670 C   0  0  0  0  0  3  0  0  0  0  0  0
  161.5110  210.3450  150.4660 C   0  0  0  0  0  0  0  0  0  0  0  0
  161.1500  209.2590  151.2800 C   0  0  0  0  0  3  0  0  0  0  0  0
  161.0740  205.2670  149.6140 C   0  0  0  0  0  3  0  0  0  0  0  0
  160.6040  202.8900  149.7470 C   0  0  0  0  0  3  0  0  0  0  0  0
  160.6460  201.6190  149.1570 C   0  0  0  0  0  3  0  0  0  0  0  0
  161.1750  201.4460  147.8700 C   0  0  0  0  0  0  0  0  0  0  0  0
  161.5680  206.3530  148.8800 C   0  0  0  0  0  0  0  0  0  0  0  0
  161.0920  203.9970  149.0440 C   0  0  0  0  0  0  0  0  0  0  0  0
  161.6090  203.8320  147.7430 C   0  0  0  0  0  0  0  0  0  0  0  0
  161.6550  202.5600  147.1610 C   0  0  0  0  0  3  0  0  0  0  0  0
  162.0720  204.9180  147.0660 N   0  0  0  0  0  0  0  0  0  0  0  0
  162.0450  206.1370  147.6160 N   0  0  0  0  0  0  0  0  0  0  0  0
  161.2280  200.1260  147.3120 N   0  0  0  0  0  2  0  0  0  0  0  0
  161.0130  199.8360  145.9000 C   0  0  0  0  0  2  0  0  0  0  0  0
  160.0840  200.8710  145.2950 C   0  0  0  0  0  1  0  0  0  0  0  0
  161.8200  210.6970  153.5430 C   0  0  0  0  0  1  0  0  0  0  0  0
  160.5980  211.5820  153.3640 C   0  0  2  0  0  3  0  0  0  0  0  0
  159.4600  210.9140  153.8220 O   0  0  0  0  0  0  0  0  0  0  0  0
  158.9380  211.7190  154.8340 C   0  0  0  0  0  2  0  0  0  0  0  0
  159.1020  211.0120  156.1650 C   0  0  0  0  0  2  0  0  0  0  0  0
  159.3430  209.5330  155.9460 C   0  0  0  0  0  2  0  0  0  0  0  0
  160.5270  209.0710  156.7840 C   0  0  2  0  0  3  0  0  0  0  0  0
  161.4840  210.2370  157.0280 C   0  0  0  0  0  1  0  0  0  0  0  0
  161.2120  208.0230  156.1080 O   0  0  0  0  0  0  0  0  0  0  0  0
  159.4230  206.6360  155.6120 O   0  0  0  0  0  0  0  0  0  0  0  0
  160.5550  207.1000  155.2910 C   0  0  0  0  0  0  0  0  0  0  0  0
  161.1820  206.6600  154.0130 C   0  0  0  0  0  1  0  0  0  0  0  0
  160.4640  214.3910  148.4240 C   0  0  0  0  0  2  0  0  0  0  0  0
  161.4650  213.9590  147.3590 C   0  0  0  0  0  2  0  0  0  0  0  0
  160.7490  213.5820  146.0720 C   0  0  0  0  0  2  0  0  0  0  0  0
  161.4650  214.1940  144.8810 C   0  0  0  0  0  2  0  0  0  0  0  0
  161.0280  213.5920  143.6940 O   0  0  0  0  0  0  0  0  0  0  0  0
  163.2520  213.1360  143.8040 O   0  0  0  0  0  1  0  0  0  0  0  0
  162.0140  212.6520  143.3890 C   0  0  2  0  0  3  0  0  0  0  0  0
  162.0410  212.4260  141.8870 C   0  0  0  0  0  2  0  0  0  0  0  0
  161.3580  211.2500  141.5630 O   0  0  0  0  0  1  0  0  0  0  0  0
  1  3  2  0  0  0  0
  2 12  1  6  0  0  0
  2  4  1  0  0  0  0
  3  4  1  0  0  0  0
  3  5  1  0  0  0  0
  4 28  1  0  0  0  0
  6  7  2  0  0  0  0
  6  1  1  0  0  0  0
  7  2  1  0  0  0  0
  8 12  1  0  0  0  0
  9  8  2  0  0  0  0
  9 10  1  0  0  0  0
 10 11  2  0  0  0  0
 11 13  1  0  0  0  0
 12 13  2  0  0  0  0
 16 15  1  0  0  0  0
 17 16  2  0  0  0  0
 18 10  1  0  0  0  0
 18 14  2  0  0  0  0
 19 14  1  0  0  0  0
 19 15  2  0  0  0  0
 20 19  1  0  0  0  0
 21 20  2  0  0  0  0
 21 17  1  0  0  0  0
 22 23  2  0  0  0  0
 22 20  1  0  0  0  0
 23 18  1  0  0  0  0
 24 17  1  0  0  0  0
 25 24  1  0  0  0  0
 26 25  1  0  0  0  0
 28 27  1  6  0  0  0
 28 29  1  0  0  0  0
 29 30  1  0  0  0  0
 30 31  1  0  0  0  0
 32 31  1  0  0  0  0
 32 33  1  0  0  0  0
 33 34  1  6  0  0  0
 35 33  1  0  0  0  0
 37 36  2  0  0  0  0
 37 35  1  0  0  0  0
 38 37  1  0  0  0  0
 39  6  1  0  0  0  0
 40 39  1  0  0  0  0
 41 40  1  0  0  0  0
 42 41  1  0  0  0  0
 43 42  1  0  0  0  0
 45 43  1  0  0  0  0
 45 44  1  6  0  0  0
 46 45  1  0  0  0  0
 47 46  1  0  0  0  0
M  END
>  <MODEL>
3

>  <REMARK>
 VINA RESULT:      -4.8      1.663      2.760
  Name = 
  19 active torsions:
  status: ('A' for Active; 'I' for Inactive)
    1  A    between atoms: C_1  and  C_8
    2  A    between atoms: C_1  and  C_39
    3  A    between atoms: C_4  and  C_30
    4  A    between atoms: O_5  and  C_35
    5  A    between atoms: O_5  and  C_41
    6  A    between atoms: C_6  and  N_47
    7  A    between atoms: C_8  and  O_25
    8  A    between atoms: C_9  and  O_21
    9  A    between atoms: C_9  and  C_24
   10  A    between atoms: C_11  and  C_32
   11  A    between atoms: C_15  and  C_18
   12  A    between atoms: C_17  and  N_47
   13  A    between atoms: O_21  and  C_30
   14  A    between atoms: C_22  and  C_24
   15  A    between atoms: C_22  and  C_31
   16  A    between atoms: O_25  and  C_34
   17  A    between atoms: N_28  and  C_41
   18  A    between atoms: C_31  and  C_38
   19  A    between atoms: C_35  and  C_39
                            x       y       z     vdW  Elec       q    Type
                         _______ _______ _______ _____ _____    ______ ____

>  <TORSDO>
F 19

$$$$
=
 OpenBabel11042421433D

 47 50  0  0  1  0  0  0  0  0999 V2000
  160.1030  202.5570  145.4720 C   0  0  0  0  0  3  0  0  0  0  0  0
  162.2870  204.2980  146.1530 C   0  0  2  0  0  3  0  0  0  0  0  0
  160.1560  203.7620  144.9070 C   0  0  0  0  0  0  0  0  0  0  0  0
  161.3320  204.5840  145.0680 N   0  0  0  0  0  0  0  0  0  0  0  0
  159.0020  204.2200  144.0810 C   0  0  0  0  0  1  0  0  0  0  0  0
  161.2430  202.0470  146.2550 C   0  0  0  0  0  0  0  0  0  0  0  0
  162.2860  202.8360  146.5250 C   0  0  0  0  0  3  0  0  0  0  0  0
  161.2230  204.6240  148.3900 C   0  0  0  0  0  3  0  0  0  0  0  0
  160.9810  205.3810  149.5380 C   0  0  0  0  0  3  0  0  0  0  0  0
  161.5080  206.6770  149.6670 C   0  0  0  0  0  0  0  0  0  0  0  0
  162.2840  207.2030  148.6200 C   0  0  0  0  0  3  0  0  0  0  0  0
  161.9970  205.1510  147.3490 C   0  0  0  0  0  0  0  0  0  0  0  0
  162.5310  206.4430  147.4720 C   0  0  0  0  0  3  0  0  0  0  0  0
  161.0470  206.8430  152.1260 C   0  0  0  0  0  3  0  0  0  0  0  0
  160.6280  207.0360  154.5080 C   0  0  0  0  0  3  0  0  0  0  0  0
  160.3900  207.8460  155.6270 C   0  0  0  0  0  3  0  0  0  0  0  0
  160.3420  209.2420  155.5020 C   0  0  0  0  0  0  0  0  0  0  0  0
  161.2420  207.4670  150.8870 C   0  0  0  0  0  0  0  0  0  0  0  0
  160.8230  207.6260  153.2550 C   0  0  0  0  0  0  0  0  0  0  0  0
  160.7940  209.0290  153.1250 C   0  0  0  0  0  0  0  0  0  0  0  0
  160.5490  209.8330  154.2450 C   0  0  0  0  0  3  0  0  0  0  0  0
  160.9940  209.5920  151.9020 N   0  0  0  0  0  0  0  0  0  0  0  0
  161.2170  208.8330  150.8230 N   0  0  0  0  0  0  0  0  0  0  0  0
  160.0670  210.0350  156.6650 N   0  0  0  0  0  2  0  0  0  0  0  0
  159.5380  211.3920  156.6100 C   0  0  0  0  0  2  0  0  0  0  0  0
  158.0400  211.3540  156.3770 C   0  0  0  0  0  1  0  0  0  0  0  0
  160.6310  206.8470  144.4340 C   0  0  0  0  0  1  0  0  0  0  0  0
  161.5790  205.6960  144.1420 C   0  0  2  0  0  3  0  0  0  0  0  0
  161.4230  205.2830  142.8150 O   0  0  0  0  0  0  0  0  0  0  0  0
  161.5550  206.4400  142.0480 C   0  0  0  0  0  2  0  0  0  0  0  0
  162.2770  206.1000  140.7590 C   0  0  0  0  0  2  0  0  0  0  0  0
  162.7160  207.3660  140.0540 C   0  0  0  0  0  2  0  0  0  0  0  0
  161.6780  207.7710  139.0180 C   0  0  2  0  0  3  0  0  0  0  0  0
  161.9930  207.1140  137.6750 C   0  0  0  0  0  1  0  0  0  0  0  0
  161.6760  209.1860  138.8690 O   0  0  0  0  0  0  0  0  0  0  0  0
  159.5990  210.1370  139.2590 O   0  0  0  0  0  0  0  0  0  0  0  0
  160.8130  210.0160  139.5890 C   0  0  0  0  0  0  0  0  0  0  0  0
  161.3190  210.7640  140.7750 C   0  0  0  0  0  1  0  0  0  0  0  0
  161.2950  200.6050  146.6540 C   0  0  0  0  0  2  0  0  0  0  0  0
  161.1350  200.4490  148.1620 C   0  0  0  0  0  2  0  0  0  0  0  0
  159.9290  201.2310  148.6570 C   0  0  0  0  0  2  0  0  0  0  0  0
  160.0620  201.5020  150.1450 C   0  0  0  0  0  2  0  0  0  0  0  0
  161.3390  201.1330  150.5890 O   0  0  0  0  0  0  0  0  0  0  0  0
  162.8350  201.8470  152.1430 O   0  0  0  0  0  1  0  0  0  0  0  0
  161.8060  202.2440  151.2920 C   0  0  2  0  0  3  0  0  0  0  0  0
  160.6710  202.8300  152.1140 C   0  0  0  0  0  2  0  0  0  0  0  0
  161.0790  204.0180  152.7250 O   0  0  0  0  0  1  0  0  0  0  0  0
  1  6  1  0  0  0  0
  2  7  1  0  0  0  0
  2 12  1  1  0  0  0
  3  4  1  0  0  0  0
  3  1  2  0  0  0  0
  4  2  1  0  0  0  0
  5  3  1  0  0  0  0
  6  7  2  0  0  0  0
  6 39  1  0  0  0  0
  8  9  1  0  0  0  0
  9 10  2  0  0  0  0
 10 18  1  0  0  0  0
 11 10  1  0  0  0  0
 12 13  1  0  0  0  0
 12  8  2  0  0  0  0
 13 11  2  0  0  0  0
 14 19  1  0  0  0  0
 15 16  1  0  0  0  0
 17 16  2  0  0  0  0
 17 24  1  0  0  0  0
 18 14  2  0  0  0  0
 19 15  2  0  0  0  0
 20 19  1  0  0  0  0
 20 21  2  0  0  0  0
 21 17  1  0  0  0  0
 22 20  1  0  0  0  0
 23 18  1  0  0  0  0
 23 22  2  0  0  0  0
 25 24  1  0  0  0  0
 26 25  1  0  0  0  0
 28 27  1  1  0  0  0
 28  4  1  0  0  0  0
 29 28  1  0  0  0  0
 30 29  1  0  0  0  0
 31 30  1  0  0  0  0
 32 31  1  0  0  0  0
 33 34  1  6  0  0  0
 33 32  1  0  0  0  0
 35 33  1  0  0  0  0
 35 37  1  0  0  0  0
 36 37  2  0  0  0  0
 37 38  1  0  0  0  0
 39 40  1  0  0  0  0
 40 41  1  0  0  0  0
 41 42  1  0  0  0  0
 42 43  1  0  0  0  0
 43 45  1  0  0  0  0
 45 46  1  0  0  0  0
 45 44  1  1  0  0  0
 46 47  1  0  0  0  0
M  END
>  <MODEL>
4

>  <REMARK>
 VINA RESULT:      -4.3      3.768     12.220
  Name = 
  19 active torsions:
  status: ('A' for Active; 'I' for Inactive)
    1  A    between atoms: C_1  and  C_8
    2  A    between atoms: C_1  and  C_39
    3  A    between atoms: C_4  and  C_30
    4  A    between atoms: O_5  and  C_35
    5  A    between atoms: O_5  and  C_41
    6  A    between atoms: C_6  and  N_47
    7  A    between atoms: C_8  and  O_25
    8  A    between atoms: C_9  and  O_21
    9  A    between atoms: C_9  and  C_24
   10  A    between atoms: C_11  and  C_32
   11  A    between atoms: C_15  and  C_18
   12  A    between atoms: C_17  and  N_47
   13  A    between atoms: O_21  and  C_30
   14  A    between atoms: C_22  and  C_24
   15  A    between atoms: C_22  and  C_31
   16  A    between atoms: O_25  and  C_34
   17  A    between atoms: N_28  and  C_41
   18  A    between atoms: C_31  and  C_38
   19  A    between atoms: C_35  and  C_39
                            x       y       z     vdW  Elec       q    Type
                         _______ _______ _______ _____ _____    ______ ____

>  <TORSDO>
F 19

$$$$
=
 OpenBabel11042421433D

 47 50  0  0  1  0  0  0  0  0999 V2000
  160.5670  214.2090  146.8620 C   0  0  0  0  0  3  0  0  0  0  0  0
  161.8010  212.9040  149.1070 C   0  0  2  0  0  3  0  0  0  0  0  0
  159.8390  214.0060  147.9590 C   0  0  0  0  0  0  0  0  0  0  0  0
  160.4710  213.5370  149.1690 N   0  0  0  0  0  0  0  0  0  0  0  0
  158.3800  214.3100  147.9190 C   0  0  0  0  0  1  0  0  0  0  0  0
  162.0220  213.9690  146.8750 C   0  0  0  0  0  0  0  0  0  0  0  0
  162.6070  213.4150  147.9400 C   0  0  0  0  0  3  0  0  0  0  0  0
  161.2960  210.8060  147.8500 C   0  0  0  0  0  3  0  0  0  0  0  0
  161.2180  209.4140  147.7580 C   0  0  0  0  0  3  0  0  0  0  0  0
  161.5170  208.6060  148.8680 C   0  0  0  0  0  0  0  0  0  0  0  0
  161.8950  209.2190  150.0750 C   0  0  0  0  0  3  0  0  0  0  0  0
  161.6730  211.4130  149.0520 C   0  0  0  0  0  0  0  0  0  0  0  0
  161.9770  210.6120  150.1650 C   0  0  0  0  0  3  0  0  0  0  0  0
  161.6470  206.4860  147.5350 C   0  0  0  0  0  3  0  0  0  0  0  0
  161.7940  204.4160  146.2780 C   0  0  0  0  0  3  0  0  0  0  0  0
  161.7050  203.0170  146.2470 C   0  0  0  0  0  3  0  0  0  0  0  0
  161.4000  202.2930  147.4080 C   0  0  0  0  0  0  0  0  0  0  0  0
  161.4300  207.1350  148.7580 C   0  0  0  0  0  0  0  0  0  0  0  0
  161.5790  205.0960  147.4810 C   0  0  0  0  0  0  0  0  0  0  0  0
  161.2880  204.3740  148.6570 C   0  0  0  0  0  0  0  0  0  0  0  0
  161.1940  202.9780  148.6180 C   0  0  0  0  0  3  0  0  0  0  0  0
  161.0900  205.0470  149.8230 N   0  0  0  0  0  0  0  0  0  0  0  0
  161.1650  206.3820  149.8690 N   0  0  0  0  0  0  0  0  0  0  0  0
  161.2880  200.8660  147.3290 N   0  0  0  0  0  2  0  0  0  0  0  0
  160.9910  200.1470  146.0980 C   0  0  0  0  0  2  0  0  0  0  0  0
  160.0870  200.9850  145.2140 C   0  0  0  0  0  1  0  0  0  0  0  0
  160.6880  214.4510  151.4340 C   0  0  0  0  0  1  0  0  0  0  0  0
  159.7920  213.7030  150.4600 C   0  0  2  0  0  3  0  0  0  0  0  0
  159.4390  212.4640  151.0010 O   0  0  0  0  0  0  0  0  0  0  0  0
  158.6270  212.7550  152.0970 C   0  0  0  0  0  2  0  0  0  0  0  0
  159.0740  211.9200  153.2810 C   0  0  0  0  0  2  0  0  0  0  0  0
  158.8830  212.6920  154.5690 C   0  0  0  0  0  2  0  0  0  0  0  0
  158.4860  211.7420  155.6900 C   0  0  2  0  0  3  0  0  0  0  0  0
  159.2620  210.4320  155.5680 C   0  0  0  0  0  1  0  0  0  0  0  0
  157.0890  211.4790  155.6210 O   0  0  0  0  0  0  0  0  0  0  0  0
  156.1640  213.4350  156.4490 O   0  0  0  0  0  0  0  0  0  0  0  0
  156.1540  212.1720  156.3930 C   0  0  0  0  0  0  0  0  0  0  0  0
  155.1150  211.4210  157.1530 C   0  0  0  0  0  1  0  0  0  0  0  0
  162.8720  214.4530  145.7430 C   0  0  0  0  0  2  0  0  0  0  0  0
  162.2380  214.1120  144.3990 C   0  0  0  0  0  2  0  0  0  0  0  0
  163.2480  213.4370  143.4840 C   0  0  0  0  0  2  0  0  0  0  0  0
  163.0280  213.8850  142.0500 C   0  0  0  0  0  2  0  0  0  0  0  0
  161.6580  213.9050  141.7570 O   0  0  0  0  0  0  0  0  0  0  0  0
  160.3870  213.4320  139.9330 O   0  0  0  0  0  1  0  0  0  0  0  0
  161.5170  213.0590  140.6560 C   0  0  2  0  0  3  0  0  0  0  0  0
  161.3530  211.6290  141.1420 C   0  0  0  0  0  2  0  0  0  0  0  0
  160.2860  211.5430  142.0390 O   0  0  0  0  0  1  0  0  0  0  0  0
  1  6  1  0  0  0  0
  1  3  2  0  0  0  0
  2 12  1  6  0  0  0
  2  4  1  0  0  0  0
  3  4  1  0  0  0  0
  4 28  1  0  0  0  0
  5  3  1  0  0  0  0
  6  7  2  0  0  0  0
  7  2  1  0  0  0  0
  8 12  1  0  0  0  0
  9  8  2  0  0  0  0
  9 10  1  0  0  0  0
 10 11  2  0  0  0  0
 11 13  1  0  0  0  0
 12 13  2  0  0  0  0
 14 18  1  0  0  0  0
 15 19  1  0  0  0  0
 16 15  2  0  0  0  0
 16 17  1  0  0  0  0
 17 21  2  0  0  0  0
 18 10  1  0  0  0  0
 18 23  2  0  0  0  0
 19 14  2  0  0  0  0
 19 20  1  0  0  0  0
 20 22  2  0  0  0  0
 21 20  1  0  0  0  0
 22 23  1  0  0  0  0
 24 17  1  0  0  0  0
 25 24  1  0  0  0  0
 26 25  1  0  0  0  0
 28 29  1  0  0  0  0
 28 27  1  1  0  0  0
 29 30  1  0  0  0  0
 30 31  1  0  0  0  0
 31 32  1  0  0  0  0
 32 33  1  0  0  0  0
 33 34  1  6  0  0  0
 35 33  1  0  0  0  0
 35 37  1  0  0  0  0
 37 36  2  0  0  0  0
 37 38  1  0  0  0  0
 39  6  1  0  0  0  0
 40 39  1  0  0  0  0
 41 40  1  0  0  0  0
 42 41  1  0  0  0  0
 43 42  1  0  0  0  0
 45 44  1  1  0  0  0
 45 46  1  0  0  0  0
 45 43  1  0  0  0  0
 46 47  1  0  0  0  0
M  END
>  <MODEL>
5

>  <REMARK>
 VINA RESULT:      -4.2      1.732      2.934
  Name = 
  19 active torsions:
  status: ('A' for Active; 'I' for Inactive)
    1  A    between atoms: C_1  and  C_8
    2  A    between atoms: C_1  and  C_39
    3  A    between atoms: C_4  and  C_30
    4  A    between atoms: O_5  and  C_35
    5  A    between atoms: O_5  and  C_41
    6  A    between atoms: C_6  and  N_47
    7  A    between atoms: C_8  and  O_25
    8  A    between atoms: C_9  and  O_21
    9  A    between atoms: C_9  and  C_24
   10  A    between atoms: C_11  and  C_32
   11  A    between atoms: C_15  and  C_18
   12  A    between atoms: C_17  and  N_47
   13  A    between atoms: O_21  and  C_30
   14  A    between atoms: C_22  and  C_24
   15  A    between atoms: C_22  and  C_31
   16  A    between atoms: O_25  and  C_34
   17  A    between atoms: N_28  and  C_41
   18  A    between atoms: C_31  and  C_38
   19  A    between atoms: C_35  and  C_39
                            x       y       z     vdW  Elec       q    Type
                         _______ _______ _______ _____ _____    ______ ____

>  <TORSDO>
F 19

$$$$
=
 OpenBabel11042421433D

 47 50  0  0  1  0  0  0  0  0999 V2000
  160.0040  213.2870  148.9390 C   0  0  0  0  0  3  0  0  0  0  0  0
  161.9470  211.5360  150.1320 C   0  0  2  0  0  3  0  0  0  0  0  0
  159.7040  212.6990  150.0960 C   0  0  0  0  0  0  0  0  0  0  0  0
  160.7200  211.9740  150.8220 N   0  0  0  0  0  0  0  0  0  0  0  0
  158.3220  212.8390  150.6380 C   0  0  0  0  0  1  0  0  0  0  0  0
  161.3720  213.2150  148.3950 C   0  0  0  0  0  0  0  0  0  0  0  0
  162.2940  212.4460  148.9810 C   0  0  0  0  0  3  0  0  0  0  0  0
  161.8970  209.8400  148.2990 C   0  0  0  0  0  3  0  0  0  0  0  0
  161.8250  208.5210  147.8430 C   0  0  0  0  0  3  0  0  0  0  0  0
  161.6670  207.4590  148.7490 C   0  0  0  0  0  0  0  0  0  0  0  0
  161.5800  207.7420  150.1230 C   0  0  0  0  0  3  0  0  0  0  0  0
  161.8110  210.1190  149.6670 C   0  0  0  0  0  0  0  0  0  0  0  0
  161.6570  209.0620  150.5790 C   0  0  0  0  0  3  0  0  0  0  0  0
  161.2830  205.0080  149.1160 C   0  0  0  0  0  3  0  0  0  0  0  0
  160.8900  202.6350  149.4340 C   0  0  0  0  0  3  0  0  0  0  0  0
  160.8250  201.3420  148.8960 C   0  0  0  0  0  3  0  0  0  0  0  0
  161.0680  201.1220  147.5320 C   0  0  0  0  0  0  0  0  0  0  0  0
  161.5910  206.0690  148.2540 C   0  0  0  0  0  0  0  0  0  0  0  0
  161.1980  203.7170  148.6030 C   0  0  0  0  0  0  0  0  0  0  0  0
  161.4280  203.5050  147.2280 C   0  0  0  0  0  0  0  0  0  0  0  0
  161.3670  202.2110  146.6970 C   0  0  0  0  0  3  0  0  0  0  0  0
  161.7180  204.5670  146.4270 N   0  0  0  0  0  0  0  0  0  0  0  0
  161.7900  205.8060  146.9260 N   0  0  0  0  0  0  0  0  0  0  0  0
  161.0210  199.7820  147.0250 N   0  0  0  0  0  2  0  0  0  0  0  0
  160.8480  199.4570  145.6150 C   0  0  0  0  0  2  0  0  0  0  0  0
  161.5820  198.1720  145.2870 C   0  0  0  0  0  1  0  0  0  0  0  0
  161.7920  211.0600  152.8290 C   0  0  0  0  0  1  0  0  0  0  0  0
  160.5350  211.6870  152.2500 C   0  0  2  0  0  3  0  0  0  0  0  0
  159.4460  210.8330  152.4490 O   0  0  0  0  0  0  0  0  0  0  0  0
  159.8630  209.9210  153.4180 C   0  0  0  0  0  2  0  0  0  0  0  0
  159.3560  210.3720  154.7740 C   0  0  0  0  0  2  0  0  0  0  0  0
  158.9160  211.8200  154.7130 C   0  0  0  0  0  2  0  0  0  0  0  0
  157.9770  212.1250  155.8720 C   0  0  2  0  0  3  0  0  0  0  0  0
  158.7140  211.9620  157.2010 C   0  0  0  0  0  1  0  0  0  0  0  0
  156.8630  211.2410  155.8310 O   0  0  0  0  0  0  0  0  0  0  0  0
  154.9070  210.6710  156.9360 O   0  0  0  0  0  0  0  0  0  0  0  0
  155.6280  211.5620  156.4020 C   0  0  0  0  0  0  0  0  0  0  0  0
  155.1530  212.9740  156.3990 C   0  0  0  0  0  1  0  0  0  0  0  0
  161.7730  214.0940  147.2520 C   0  0  0  0  0  2  0  0  0  0  0  0
  161.5780  213.3790  145.9190 C   0  0  0  0  0  2  0  0  0  0  0  0
  160.8190  214.2630  144.9430 C   0  0  0  0  0  2  0  0  0  0  0  0
  160.9010  213.6780  143.5440 C   0  0  0  0  0  2  0  0  0  0  0  0
  161.7660  212.5760  143.5330 O   0  0  0  0  0  0  0  0  0  0  0  0
  162.4420  213.7530  141.7100 O   0  0  0  0  0  1  0  0  0  0  0  0
  162.1970  212.4760  142.2090 C   0  0  2  0  0  3  0  0  0  0  0  0
  161.1130  211.8110  141.3790 C   0  0  0  0  0  2  0  0  0  0  0  0
  161.6790  211.1500  140.2860 O   0  0  0  0  0  1  0  0  0  0  0  0
  1  3  2  0  0  0  0
  2 12  1  6  0  0  0
  2  4  1  0  0  0  0
  3  5  1  0  0  0  0
  3  4  1  0  0  0  0
  4 28  1  0  0  0  0
  6  1  1  0  0  0  0
  6  7  2  0  0  0  0
  7  2  1  0  0  0  0
  8 12  1  0  0  0  0
  9  8  2  0  0  0  0
  9 10  1  0  0  0  0
 10 11  2  0  0  0  0
 11 13  1  0  0  0  0
 12 13  2  0  0  0  0
 16 15  1  0  0  0  0
 17 16  2  0  0  0  0
 18 10  1  0  0  0  0
 18 14  2  0  0  0  0
 19 14  1  0  0  0  0
 19 15  2  0  0  0  0
 20 19  1  0  0  0  0
 21 20  2  0  0  0  0
 21 17  1  0  0  0  0
 22 23  2  0  0  0  0
 22 20  1  0  0  0  0
 23 18  1  0  0  0  0
 24 17  1  0  0  0  0
 25 24  1  0  0  0  0
 26 25  1  0  0  0  0
 28 29  1  0  0  0  0
 28 27  1  6  0  0  0
 29 30  1  0  0  0  0
 30 31  1  0  0  0  0
 32 31  1  0  0  0  0
 32 33  1  0  0  0  0
 33 34  1  1  0  0  0
 35 33  1  0  0  0  0
 35 37  1  0  0  0  0
 37 36  2  0  0  0  0
 38 37  1  0  0  0  0
 39  6  1  0  0  0  0
 40 39  1  0  0  0  0
 41 40  1  0  0  0  0
 42 41  1  0  0  0  0
 43 42  1  0  0  0  0
 45 44  1  6  0  0  0
 45 43  1  0  0  0  0
 46 45  1  0  0  0  0
 47 46  1  0  0  0  0
M  END
>  <MODEL>
6

>  <REMARK>
 VINA RESULT:      -3.9      1.464      2.043
  Name = 
  19 active torsions:
  status: ('A' for Active; 'I' for Inactive)
    1  A    between atoms: C_1  and  C_8
    2  A    between atoms: C_1  and  C_39
    3  A    between atoms: C_4  and  C_30
    4  A    between atoms: O_5  and  C_35
    5  A    between atoms: O_5  and  C_41
    6  A    between atoms: C_6  and  N_47
    7  A    between atoms: C_8  and  O_25
    8  A    between atoms: C_9  and  O_21
    9  A    between atoms: C_9  and  C_24
   10  A    between atoms: C_11  and  C_32
   11  A    between atoms: C_15  and  C_18
   12  A    between atoms: C_17  and  N_47
   13  A    between atoms: O_21  and  C_30
   14  A    between atoms: C_22  and  C_24
   15  A    between atoms: C_22  and  C_31
   16  A    between atoms: O_25  and  C_34
   17  A    between atoms: N_28  and  C_41
   18  A    between atoms: C_31  and  C_38
   19  A    between atoms: C_35  and  C_39
                            x       y       z     vdW  Elec       q    Type
                         _______ _______ _______ _____ _____    ______ ____

>  <TORSDO>
F 19

$$$$
=
 OpenBabel11042421433D

 47 50  0  0  1  0  0  0  0  0999 V2000
  160.4260  214.1620  146.6710 C   0  0  0  0  0  3  0  0  0  0  0  0
  161.8380  213.0120  148.8960 C   0  0  2  0  0  3  0  0  0  0  0  0
  159.7720  213.9870  147.8180 C   0  0  0  0  0  0  0  0  0  0  0  0
  160.4920  213.6000  149.0090 N   0  0  0  0  0  0  0  0  0  0  0  0
  158.3020  214.2370  147.8540 C   0  0  0  0  0  1  0  0  0  0  0  0
  161.8870  213.9740  146.6070 C   0  0  0  0  0  0  0  0  0  0  0  0
  162.5550  213.4940  147.6590 C   0  0  0  0  0  3  0  0  0  0  0  0
  162.1230  210.8340  150.0850 C   0  0  0  0  0  3  0  0  0  0  0  0
  162.0140  209.4430  150.1490 C   0  0  0  0  0  3  0  0  0  0  0  0
  161.5430  208.7110  149.0460 C   0  0  0  0  0  0  0  0  0  0  0  0
  161.1830  209.3990  147.8740 C   0  0  0  0  0  3  0  0  0  0  0  0
  161.7640  211.5170  148.9180 C   0  0  0  0  0  0  0  0  0  0  0  0
  161.2880  210.7920  147.8130 C   0  0  0  0  0  3  0  0  0  0  0  0
  161.2760  206.5900  150.3580 C   0  0  0  0  0  3  0  0  0  0  0  0
  160.9910  204.5240  151.5980 C   0  0  0  0  0  3  0  0  0  0  0  0
  160.8840  203.1270  151.6020 C   0  0  0  0  0  3  0  0  0  0  0  0
  160.9410  202.4020  150.4020 C   0  0  0  0  0  0  0  0  0  0  0  0
  161.4340  207.2390  149.1270 C   0  0  0  0  0  0  0  0  0  0  0  0
  161.1530  205.2040  150.3870 C   0  0  0  0  0  0  0  0  0  0  0  0
  161.1940  204.4840  149.1750 C   0  0  0  0  0  0  0  0  0  0  0  0
  161.0930  203.0870  149.1850 C   0  0  0  0  0  3  0  0  0  0  0  0
  161.3430  205.1570  148.0020 N   0  0  0  0  0  0  0  0  0  0  0  0
  161.4530  206.4900  147.9820 N   0  0  0  0  0  0  0  0  0  0  0  0
  160.8580  200.9720  150.4490 N   0  0  0  0  0  2  0  0  0  0  0  0
  161.3280  200.1000  149.3810 C   0  0  0  0  0  2  0  0  0  0  0  0
  161.4260  200.8780  148.0830 C   0  0  0  0  0  1  0  0  0  0  0  0
  160.9000  214.4040  151.2890 C   0  0  0  0  0  1  0  0  0  0  0  0
  159.8840  213.8050  150.3290 C   0  0  2  0  0  3  0  0  0  0  0  0
  159.4000  212.6010  150.8470 O   0  0  0  0  0  0  0  0  0  0  0  0
  158.6820  212.9510  151.9910 C   0  0  0  0  0  2  0  0  0  0  0  0
  159.1750  212.1210  153.1600 C   0  0  0  0  0  2  0  0  0  0  0  0
  158.8710  212.8220  154.4670 C   0  0  0  0  0  2  0  0  0  0  0  0
  158.6740  211.7960  155.5730 C   0  0  2  0  0  3  0  0  0  0  0  0
  157.9080  212.4200  156.7390 C   0  0  0  0  0  1  0  0  0  0  0  0
  159.9410  211.3330  156.0270 O   0  0  0  0  0  0  0  0  0  0  0  0
  159.9400  209.4380  154.6920 O   0  0  0  0  0  0  0  0  0  0  0  0
  160.5150  210.1440  155.5690 C   0  0  0  0  0  0  0  0  0  0  0  0
  161.8330  209.7010  156.1060 C   0  0  0  0  0  1  0  0  0  0  0  0
  162.6500  214.4320  145.4040 C   0  0  0  0  0  2  0  0  0  0  0  0
  161.9360  214.0280  144.1190 C   0  0  0  0  0  2  0  0  0  0  0  0
  162.8910  213.3140  143.1750 C   0  0  0  0  0  2  0  0  0  0  0  0
  162.4630  213.5400  141.7360 C   0  0  0  0  0  2  0  0  0  0  0  0
  161.1260  213.9560  141.6910 O   0  0  0  0  0  0  0  0  0  0  0  0
  161.2520  212.1630  140.3010 O   0  0  0  0  0  1  0  0  0  0  0  0
  160.4290  212.8590  141.1820 C   0  0  2  0  0  3  0  0  0  0  0  0
  159.1990  213.3500  140.4390 C   0  0  0  0  0  2  0  0  0  0  0  0
  158.5980  212.2940  139.7490 O   0  0  0  0  0  1  0  0  0  0  0  0
  1  3  2  0  0  0  0
  2 12  1  6  0  0  0
  2  4  1  0  0  0  0
  3  5  1  0  0  0  0
  3  4  1  0  0  0  0
  4 28  1  0  0  0  0
  6  1  1  0  0  0  0
  6  7  2  0  0  0  0
  7  2  1  0  0  0  0
  8  9  1  0  0  0  0
 10 18  1  0  0  0  0
 10  9  2  0  0  0  0
 11 10  1  0  0  0  0
 12  8  2  0  0  0  0
 13 11  2  0  0  0  0
 13 12  1  0  0  0  0
 14 19  1  0  0  0  0
 15 16  1  0  0  0  0
 17 24  1  0  0  0  0
 17 16  2  0  0  0  0
 18 14  2  0  0  0  0
 19 15  2  0  0  0  0
 20 21  2  0  0  0  0
 20 19  1  0  0  0  0
 21 17  1  0  0  0  0
 22 20  1  0  0  0  0
 23 22  2  0  0  0  0
 23 18  1  0  0  0  0
 25 24  1  0  0  0  0
 26 25  1  0  0  0  0
 28 29  1  0  0  0  0
 28 27  1  1  0  0  0
 29 30  1  0  0  0  0
 30 31  1  0  0  0  0
 31 32  1  0  0  0  0
 32 33  1  0  0  0  0
 33 35  1  0  0  0  0
 33 34  1  1  0  0  0
 36 37  2  0  0  0  0
 37 35  1  0  0  0  0
 37 38  1  0  0  0  0
 39  6  1  0  0  0  0
 40 39  1  0  0  0  0
 41 40  1  0  0  0  0
 42 41  1  0  0  0  0
 43 42  1  0  0  0  0
 45 44  1  6  0  0  0
 45 43  1  0  0  0  0
 46 45  1  0  0  0  0
 47 46  1  0  0  0  0
M  END
>  <MODEL>
7

>  <REMARK>
 VINA RESULT:      -3.6      2.075      3.699
  Name = 
  19 active torsions:
  status: ('A' for Active; 'I' for Inactive)
    1  A    between atoms: C_1  and  C_8
    2  A    between atoms: C_1  and  C_39
    3  A    between atoms: C_4  and  C_30
    4  A    between atoms: O_5  and  C_35
    5  A    between atoms: O_5  and  C_41
    6  A    between atoms: C_6  and  N_47
    7  A    between atoms: C_8  and  O_25
    8  A    between atoms: C_9  and  O_21
    9  A    between atoms: C_9  and  C_24
   10  A    between atoms: C_11  and  C_32
   11  A    between atoms: C_15  and  C_18
   12  A    between atoms: C_17  and  N_47
   13  A    between atoms: O_21  and  C_30
   14  A    between atoms: C_22  and  C_24
   15  A    between atoms: C_22  and  C_31
   16  A    between atoms: O_25  and  C_34
   17  A    between atoms: N_28  and  C_41
   18  A    between atoms: C_31  and  C_38
   19  A    between atoms: C_35  and  C_39
                            x       y       z     vdW  Elec       q    Type
                         _______ _______ _______ _____ _____    ______ ____

>  <TORSDO>
F 19

$$$$
=
 OpenBabel11042421433D

 47 50  0  0  1  0  0  0  0  0999 V2000
  159.7100  212.3300  151.0290 C   0  0  0  0  0  3  0  0  0  0  0  0
  162.0370  210.6780  151.3770 C   0  0  2  0  0  3  0  0  0  0  0  0
  159.7930  211.5700  152.1190 C   0  0  0  0  0  0  0  0  0  0  0  0
  161.0240  210.8810  152.4270 N   0  0  0  0  0  0  0  0  0  0  0  0
  158.6120  211.4800  153.0240 C   0  0  0  0  0  1  0  0  0  0  0  0
  160.8730  212.4860  150.1350 C   0  0  0  0  0  0  0  0  0  0  0  0
  161.9770  211.7600  150.3280 C   0  0  0  0  0  3  0  0  0  0  0  0
  161.9460  208.1890  151.5670 C   0  0  0  0  0  3  0  0  0  0  0  0
  161.7570  206.9180  151.0180 C   0  0  0  0  0  3  0  0  0  0  0  0
  161.5020  206.7630  149.6450 C   0  0  0  0  0  0  0  0  0  0  0  0
  161.4420  207.9060  148.8290 C   0  0  0  0  0  3  0  0  0  0  0  0
  161.8850  209.3250  150.7530 C   0  0  0  0  0  0  0  0  0  0  0  0
  161.6270  209.1780  149.3810 C   0  0  0  0  0  3  0  0  0  0  0  0
  161.3860  205.1890  147.6970 C   0  0  0  0  0  3  0  0  0  0  0  0
  161.2960  203.6360  145.8340 C   0  0  0  0  0  3  0  0  0  0  0  0
  161.1080  202.3290  145.3640 C   0  0  0  0  0  3  0  0  0  0  0  0
  160.8390  201.2800  146.2550 C   0  0  0  0  0  0  0  0  0  0  0  0
  161.3050  205.4130  149.0770 C   0  0  0  0  0  0  0  0  0  0  0  0
  161.2170  203.8970  147.2060 C   0  0  0  0  0  0  0  0  0  0  0  0
  160.9640  202.8440  148.1090 C   0  0  0  0  0  0  0  0  0  0  0  0
  160.7710  201.5420  147.6330 C   0  0  0  0  0  3  0  0  0  0  0  0
  160.8990  203.1090  149.4430 N   0  0  0  0  0  0  0  0  0  0  0  0
  161.0700  204.3510  149.9080 N   0  0  0  0  0  0  0  0  0  0  0  0
  160.6230  199.9630  145.7330 N   0  0  0  0  0  2  0  0  0  0  0  0
  161.6460  198.9250  145.7110 C   0  0  0  0  0  2  0  0  0  0  0  0
  160.9940  197.5580  145.6300 C   0  0  0  0  0  1  0  0  0  0  0  0
  160.0820  209.5830  154.2820 C   0  0  0  0  0  1  0  0  0  0  0  0
  161.2680  210.3960  153.7920 C   0  0  2  0  0  3  0  0  0  0  0  0
  161.5020  211.4630  154.6640 O   0  0  0  0  0  0  0  0  0  0  0  0
  160.2560  212.0560  154.8680 C   0  0  0  0  0  2  0  0  0  0  0  0
  160.0420  212.2630  156.3550 C   0  0  0  0  0  2  0  0  0  0  0  0
  159.0220  213.3560  156.5900 C   0  0  0  0  0  2  0  0  0  0  0  0
  157.7290  213.0260  155.8590 C   0  0  2  0  0  3  0  0  0  0  0  0
  157.2010  214.2660  155.1390 C   0  0  0  0  0  1  0  0  0  0  0  0
  156.7570  212.5640  156.7900 O   0  0  0  0  0  0  0  0  0  0  0  0
  154.8380  211.3510  157.2570 O   0  0  0  0  0  0  0  0  0  0  0  0
  155.7600  211.6480  156.4450 C   0  0  0  0  0  0  0  0  0  0  0  0
  155.7670  211.0170  155.0940 C   0  0  0  0  0  1  0  0  0  0  0  0
  160.8680  213.5420  149.0750 C   0  0  0  0  0  2  0  0  0  0  0  0
  162.2410  213.6690  148.4250 C   0  0  0  0  0  2  0  0  0  0  0  0
  162.1230  213.6310  146.9090 C   0  0  0  0  0  2  0  0  0  0  0  0
  160.6610  213.6900  146.5020 C   0  0  0  0  0  2  0  0  0  0  0  0
  160.1550  212.3940  146.3380 O   0  0  0  0  0  0  0  0  0  0  0  0
  158.2780  211.9970  145.1190 O   0  0  0  0  0  1  0  0  0  0  0  0
  158.7690  212.5560  146.2970 C   0  0  2  0  0  3  0  0  0  0  0  0
  158.4380  214.0380  146.3260 C   0  0  0  0  0  2  0  0  0  0  0  0
  157.6990  214.3900  145.1940 O   0  0  0  0  0  1  0  0  0  0  0  0
  1  3  2  0  0  0  0
  2 12  1  6  0  0  0
  2  4  1  0  0  0  0
  3  4  1  0  0  0  0
  3  5  1  0  0  0  0
  4 28  1  0  0  0  0
  6  7  2  0  0  0  0
  6  1  1  0  0  0  0
  7  2  1  0  0  0  0
  9  8  1  0  0  0  0
 10  9  2  0  0  0  0
 11 13  2  0  0  0  0
 11 10  1  0  0  0  0
 12  8  2  0  0  0  0
 13 12  1  0  0  0  0
 14 18  1  0  0  0  0
 15 19  1  0  0  0  0
 16 15  2  0  0  0  0
 16 17  1  0  0  0  0
 17 21  2  0  0  0  0
 18 10  1  0  0  0  0
 18 23  2  0  0  0  0
 19 14  2  0  0  0  0
 19 20  1  0  0  0  0
 20 22  2  0  0  0  0
 21 20  1  0  0  0  0
 22 23  1  0  0  0  0
 24 17  1  0  0  0  0
 25 24  1  0  0  0  0
 26 25  1  0  0  0  0
 28 27  1  1  0  0  0
 28 29  1  0  0  0  0
 29 30  1  0  0  0  0
 30 31  1  0  0  0  0
 31 32  1  0  0  0  0
 33 34  1  1  0  0  0
 33 32  1  0  0  0  0
 33 35  1  0  0  0  0
 37 35  1  0  0  0  0
 37 36  2  0  0  0  0
 38 37  1  0  0  0  0
 39  6  1  0  0  0  0
 40 39  1  0  0  0  0
 41 40  1  0  0  0  0
 42 41  1  0  0  0  0
 43 42  1  0  0  0  0
 45 44  1  6  0  0  0
 45 46  1  0  0  0  0
 45 43  1  0  0  0  0
 47 46  1  0  0  0  0
M  END
>  <MODEL>
8

>  <REMARK>
 VINA RESULT:      -3.5      1.507      1.938
  Name = 
  19 active torsions:
  status: ('A' for Active; 'I' for Inactive)
    1  A    between atoms: C_1  and  C_8
    2  A    between atoms: C_1  and  C_39
    3  A    between atoms: C_4  and  C_30
    4  A    between atoms: O_5  and  C_35
    5  A    between atoms: O_5  and  C_41
    6  A    between atoms: C_6  and  N_47
    7  A    between atoms: C_8  and  O_25
    8  A    between atoms: C_9  and  O_21
    9  A    between atoms: C_9  and  C_24
   10  A    between atoms: C_11  and  C_32
   11  A    between atoms: C_15  and  C_18
   12  A    between atoms: C_17  and  N_47
   13  A    between atoms: O_21  and  C_30
   14  A    between atoms: C_22  and  C_24
   15  A    between atoms: C_22  and  C_31
   16  A    between atoms: O_25  and  C_34
   17  A    between atoms: N_28  and  C_41
   18  A    between atoms: C_31  and  C_38
   19  A    between atoms: C_35  and  C_39
                            x       y       z     vdW  Elec       q    Type
                         _______ _______ _______ _____ _____    ______ ____

>  <TORSDO>
F 19

$$$$
=
 OpenBabel11042421433D

 47 50  0  0  1  0  0  0  0  0999 V2000
  162.8340  205.3370  144.3660 C   0  0  0  0  0  3  0  0  0  0  0  0
  160.6860  205.0430  146.2540 C   0  0  2  0  0  3  0  0  0  0  0  0
  162.9230  204.3790  145.2860 C   0  0  0  0  0  0  0  0  0  0  0  0
  161.7860  204.0710  146.1210 N   0  0  0  0  0  0  0  0  0  0  0  0
  164.1960  203.6110  145.4060 C   0  0  0  0  0  1  0  0  0  0  0  0
  161.5760  206.0850  144.1830 C   0  0  0  0  0  0  0  0  0  0  0  0
  160.5550  205.9080  145.0250 C   0  0  0  0  0  3  0  0  0  0  0  0
  161.8710  206.8640  147.4870 C   0  0  0  0  0  3  0  0  0  0  0  0
  162.0310  207.6960  148.5970 C   0  0  0  0  0  3  0  0  0  0  0  0
  161.1940  207.5630  149.7180 C   0  0  0  0  0  0  0  0  0  0  0  0
  160.1920  206.5780  149.7070 C   0  0  0  0  0  3  0  0  0  0  0  0
  160.8710  205.8850  147.4780 C   0  0  0  0  0  0  0  0  0  0  0  0
  160.0280  205.7480  148.5930 C   0  0  0  0  0  3  0  0  0  0  0  0
  160.6070  208.2870  152.0460 C   0  0  0  0  0  3  0  0  0  0  0  0
  160.0800  208.9920  154.3070 C   0  0  0  0  0  3  0  0  0  0  0  0
  160.3110  209.8610  155.3820 C   0  0  0  0  0  3  0  0  0  0  0  0
  161.2820  210.8690  155.2910 C   0  0  0  0  0  0  0  0  0  0  0  0
  161.3760  208.4500  150.8870 C   0  0  0  0  0  0  0  0  0  0  0  0
  160.8270  209.1290  153.1330 C   0  0  0  0  0  0  0  0  0  0  0  0
  161.8170  210.1280  153.0400 C   0  0  0  0  0  0  0  0  0  0  0  0
  162.0390  210.9980  154.1150 C   0  0  0  0  0  3  0  0  0  0  0  0
  162.5440  210.2460  151.8960 N   0  0  0  0  0  0  0  0  0  0  0  0
  162.3320  209.4280  150.8580 N   0  0  0  0  0  0  0  0  0  0  0  0
  161.4680  211.7570  156.4010 N   0  0  0  0  0  2  0  0  0  0  0  0
  160.3880  212.5180  157.0170 C   0  0  0  0  0  2  0  0  0  0  0  0
  159.7060  213.3830  155.9750 C   0  0  0  0  0  1  0  0  0  0  0  0
  160.8330  201.8120  146.0680 C   0  0  0  0  0  1  0  0  0  0  0  0
  161.7220  202.7840  146.8250 C   0  0  2  0  0  3  0  0  0  0  0  0
  161.2380  202.9520  148.1260 O   0  0  0  0  0  0  0  0  0  0  0  0
  160.8010  201.6880  148.5240 C   0  0  0  0  0  2  0  0  0  0  0  0
  160.4440  201.7290  149.9970 C   0  0  0  0  0  2  0  0  0  0  0  0
  160.4080  203.1600  150.4890 C   0  0  0  0  0  2  0  0  0  0  0  0
  161.4840  203.3740  151.5440 C   0  0  2  0  0  3  0  0  0  0  0  0
  162.0380  202.0280  152.0090 C   0  0  0  0  0  1  0  0  0  0  0  0
  160.9340  204.0740  152.6540 O   0  0  0  0  0  0  0  0  0  0  0  0
  161.0320  205.8030  154.1940 O   0  0  0  0  0  0  0  0  0  0  0  0
  161.5090  205.2390  153.1680 C   0  0  0  0  0  0  0  0  0  0  0  0
  162.7120  205.8250  152.5130 C   0  0  0  0  0  1  0  0  0  0  0  0
  161.3910  206.9590  142.9830 C   0  0  0  0  0  2  0  0  0  0  0  0
  161.6280  206.1780  141.6960 C   0  0  0  0  0  2  0  0  0  0  0  0
  162.5880  206.9240  140.7840 C   0  0  0  0  0  2  0  0  0  0  0  0
  161.8100  207.7250  139.7560 C   0  0  0  0  0  2  0  0  0  0  0  0
  161.4780  208.9820  140.2770 O   0  0  0  0  0  0  0  0  0  0  0  0
  162.9640  210.6510  139.8620 O   0  0  0  0  0  1  0  0  0  0  0  0
  161.9270  209.8940  139.3210 C   0  0  2  0  0  3  0  0  0  0  0  0
  160.7840  210.8150  138.9310 C   0  0  0  0  0  2  0  0  0  0  0  0
  160.6930  210.9110  137.5400 O   0  0  0  0  0  1  0  0  0  0  0  0
  1  3  2  0  0  0  0
  2 12  1  1  0  0  0
  3  5  1  0  0  0  0
  3  4  1  0  0  0  0
  4  2  1  0  0  0  0
  4 28  1  0  0  0  0
  6  1  1  0  0  0  0
  6  7  2  0  0  0  0
  7  2  1  0  0  0  0
  8  9  1  0  0  0  0
  9 10  2  0  0  0  0
 10 18  1  0  0  0  0
 11 10  1  0  0  0  0
 12  8  2  0  0  0  0
 12 13  1  0  0  0  0
 13 11  2  0  0  0  0
 14 19  1  0  0  0  0
 15 16  1  0  0  0  0
 17 16  2  0  0  0  0
 17 24  1  0  0  0  0
 18 14  2  0  0  0  0
 19 15  2  0  0  0  0
 20 19  1  0  0  0  0
 20 21  2  0  0  0  0
 21 17  1  0  0  0  0
 22 20  1  0  0  0  0
 23 18  1  0  0  0  0
 23 22  2  0  0  0  0
 24 25  1  0  0  0  0
 26 25  1  0  0  0  0
 28 27  1  6  0  0  0
 28 29  1  0  0  0  0
 29 30  1  0  0  0  0
 30 31  1  0  0  0  0
 31 32  1  0  0  0  0
 32 33  1  0  0  0  0
 33 34  1  1  0  0  0
 33 35  1  0  0  0  0
 35 37  1  0  0  0  0
 37 36  2  0  0  0  0
 38 37  1  0  0  0  0
 39  6  1  0  0  0  0
 40 39  1  0  0  0  0
 41 40  1  0  0  0  0
 42 43  1  0  0  0  0
 42 41  1  0  0  0  0
 45 44  1  1  0  0  0
 45 43  1  0  0  0  0
 46 45  1  0  0  0  0
 47 46  1  0  0  0  0
M  END
>  <MODEL>
9

>  <REMARK>
 VINA RESULT:      -3.2      3.551      9.327
  Name = 
  19 active torsions:
  status: ('A' for Active; 'I' for Inactive)
    1  A    between atoms: C_1  and  C_8
    2  A    between atoms: C_1  and  C_39
    3  A    between atoms: C_4  and  C_30
    4  A    between atoms: O_5  and  C_35
    5  A    between atoms: O_5  and  C_41
    6  A    between atoms: C_6  and  N_47
    7  A    between atoms: C_8  and  O_25
    8  A    between atoms: C_9  and  O_21
    9  A    between atoms: C_9  and  C_24
   10  A    between atoms: C_11  and  C_32
   11  A    between atoms: C_15  and  C_18
   12  A    between atoms: C_17  and  N_47
   13  A    between atoms: O_21  and  C_30
   14  A    between atoms: C_22  and  C_24
   15  A    between atoms: C_22  and  C_31
   16  A    between atoms: O_25  and  C_34
   17  A    between atoms: N_28  and  C_41
   18  A    between atoms: C_31  and  C_38
   19  A    between atoms: C_35  and  C_39
                            x       y       z     vdW  Elec       q    Type
                         _______ _______ _______ _____ _____    ______ ____

>  <TORSDO>
F 19

$$$$
