=
 OpenBabel11042420133D

 25 28  0  0  1  0  0  0  0  0999 V2000
  161.1270  207.8720  155.0490 C   0  0  0  0  0  0  0  0  0  0  0  0
  161.1590  206.9560  152.7970 C   0  0  0  0  0  0  0  0  0  0  0  0
  161.2360  209.1260  154.5360 N   0  0  0  0  0  0  0  0  0  0  0  0
  161.3660  208.5360  150.9360 O   0  0  0  0  0  0  0  0  0  0  0  0
  161.3600  210.7800  152.7170 C   0  0  2  0  0  3  0  0  0  0  0  0
  161.2920  208.2740  152.3020 C   0  0  0  0  0  0  0  0  0  0  0  0
  161.3190  209.3540  153.1990 C   0  0  0  0  0  0  0  0  0  0  0  0
  161.0810  206.7750  154.1860 C   0  0  0  0  0  3  0  0  0  0  0  0
  160.2150  211.0280  151.7370 C   0  0  2  0  0  3  0  0  0  0  0  0
  161.9740  209.7200  150.4290 C   0  0  0  0  0  2  0  0  0  0  0  0
  161.6470  210.9920  151.2300 C   0  0  2  0  0  3  0  0  0  0  0  0
  160.9880  203.3750  151.6640 N   0  0  0  0  0  0  0  0  0  0  0  0
  161.1090  205.7520  151.9140 C   0  0  0  0  0  0  0  0  0  0  0  0
  161.1130  204.7030  149.7350 C   0  0  0  0  0  0  0  0  0  0  0  0
  161.0260  203.4890  150.3360 N   0  0  0  0  0  0  0  0  0  0  0  0
  161.1520  205.8540  150.5190 C   0  0  0  0  0  3  0  0  0  0  0  0
  161.0290  204.4690  152.4710 C   0  0  0  0  0  3  0  0  0  0  0  0
  161.4910  203.4630  147.6430 C   0  0  0  0  0  1  0  0  0  0  0  0
  161.1340  204.8050  148.2510 C   0  0  0  0  0  2  0  0  0  0  0  0
  159.9710  213.2590  150.9190 O   0  0  0  0  0  0  0  0  0  0  0  0
  158.9900  212.8560  152.9840 N   0  0  0  0  0  1  0  0  0  0  0  0
  159.7440  212.4420  151.8500 C   0  0  0  0  0  0  0  0  0  0  0  0
  161.9070  208.2030  157.2600 O   0  0  0  0  0  0  0  0  0  0  0  0
  159.9960  206.9030  157.0760 N   0  0  0  0  0  1  0  0  0  0  0  0
  161.0450  207.6790  156.5050 C   0  0  0  0  0  0  0  0  0  0  0  0
  1 25  1  0  0  0  0
  2  8  1  0  0  0  0
  3  1  1  0  0  0  0
  4  6  1  0  0  0  0
  5  7  1  6  0  0  0
  6  2  2  0  0  0  0
  6  7  1  0  0  0  0
  7  3  2  0  0  0  0
  8  1  2  0  0  0  0
  9 22  1  1  0  0  0
  9  5  1  0  0  0  0
 10  4  1  0  0  0  0
 11 10  1  6  0  0  0
 11  9  1  0  0  0  0
 11  5  1  0  0  0  0
 12 17  1  0  0  0  0
 13 17  2  0  0  0  0
 13  2  1  0  0  0  0
 14 15  1  0  0  0  0
 14 16  2  0  0  0  0
 15 12  2  0  0  0  0
 16 13  1  0  0  0  0
 18 19  1  0  0  0  0
 19 14  1  0  0  0  0
 20 22  2  0  0  0  0
 22 21  1  0  0  0  0
 25 24  1  0  0  0  0
 25 23  2  0  0  0  0
M  END
>  <MODEL>
1

>  <REMARK>
 VINA RESULT:      -7.3      0.000      0.000
  Name = 
  4 active torsions:
  status: ('A' for Active; 'I' for Inactive)
    1  A    between atoms: C_2  and  C_6
    2  A    between atoms: C_3  and  C_11
    3  A    between atoms: C_4  and  C_20
    4  A    between atoms: C_18  and  C_23
                            x       y       z     vdW  Elec       q    Type
                         _______ _______ _______ _____ _____    ______ ____

>  <TORSDO>
F 4

$$$$
=
 OpenBabel11042420133D

 25 28  0  0  1  0  0  0  0  0999 V2000
  161.0140  203.9760  150.8360 C   0  0  0  0  0  0  0  0  0  0  0  0
  161.3090  206.3900  150.8460 C   0  0  0  0  0  0  0  0  0  0  0  0
  160.9600  203.9930  149.4780 N   0  0  0  0  0  0  0  0  0  0  0  0
  161.3410  207.5330  148.6800 O   0  0  0  0  0  0  0  0  0  0  0  0
  161.0670  205.0590  147.2620 C   0  0  2  0  0  3  0  0  0  0  0  0
  161.2270  206.3680  149.4340 C   0  0  0  0  0  0  0  0  0  0  0  0
  161.0600  205.1450  148.7650 C   0  0  0  0  0  0  0  0  0  0  0  0
  161.1960  205.1710  151.5330 C   0  0  0  0  0  3  0  0  0  0  0  0
  162.3330  205.7120  146.7110 C   0  0  2  0  0  3  0  0  0  0  0  0
  160.7920  207.6380  147.3690 C   0  0  0  0  0  2  0  0  0  0  0  0
  160.9860  206.3830  146.5000 C   0  0  2  0  0  3  0  0  0  0  0  0
  162.3830  209.8600  151.8150 N   0  0  0  0  0  0  0  0  0  0  0  0
  161.4990  207.6430  151.6350 C   0  0  0  0  0  0  0  0  0  0  0  0
  161.2060  208.9670  153.6370 C   0  0  0  0  0  0  0  0  0  0  0  0
  161.8930  209.9800  153.0510 N   0  0  0  0  0  0  0  0  0  0  0  0
  160.9950  207.7830  152.9340 C   0  0  0  0  0  3  0  0  0  0  0  0
  162.2080  208.7220  151.0920 C   0  0  0  0  0  3  0  0  0  0  0  0
  160.2460  207.7860  155.5720 C   0  0  0  0  0  1  0  0  0  0  0  0
  160.6540  209.1330  155.0090 C   0  0  0  0  0  2  0  0  0  0  0  0
  163.8170  204.3280  145.4510 O   0  0  0  0  0  0  0  0  0  0  0  0
  161.9560  205.0860  144.2900 N   0  0  0  0  0  1  0  0  0  0  0  0
  162.7630  205.0170  145.4610 C   0  0  0  0  0  0  0  0  0  0  0  0
  160.5170  202.6890  152.7610 O   0  0  0  0  0  0  0  0  0  0  0  0
  161.2060  201.4690  150.9140 N   0  0  0  0  0  1  0  0  0  0  0  0
  160.8960  202.7000  151.5590 C   0  0  0  0  0  0  0  0  0  0  0  0
  1  8  1  0  0  0  0
  1 25  1  0  0  0  0
  2  8  2  0  0  0  0
  2 13  1  0  0  0  0
  3  1  2  0  0  0  0
  4  6  1  0  0  0  0
  5  7  1  1  0  0  0
  6  2  1  0  0  0  0
  7  6  2  0  0  0  0
  7  3  1  0  0  0  0
  9 22  1  6  0  0  0
  9  5  1  0  0  0  0
 10  4  1  0  0  0  0
 11  9  1  0  0  0  0
 11  5  1  0  0  0  0
 11 10  1  1  0  0  0
 12 15  1  0  0  0  0
 13 16  2  0  0  0  0
 14 19  1  0  0  0  0
 15 14  2  0  0  0  0
 16 14  1  0  0  0  0
 17 13  1  0  0  0  0
 17 12  2  0  0  0  0
 19 18  1  0  0  0  0
 20 22  2  0  0  0  0
 21 22  1  0  0  0  0
 24 25  1  0  0  0  0
 25 23  2  0  0  0  0
M  END
>  <MODEL>
2

>  <REMARK>
 VINA RESULT:      -7.3      2.857      6.897
  Name = 
  4 active torsions:
  status: ('A' for Active; 'I' for Inactive)
    1  A    between atoms: C_2  and  C_6
    2  A    between atoms: C_3  and  C_11
    3  A    between atoms: C_4  and  C_20
    4  A    between atoms: C_18  and  C_23
                            x       y       z     vdW  Elec       q    Type
                         _______ _______ _______ _____ _____    ______ ____

>  <TORSDO>
F 4

$$$$
=
 OpenBabel11042420133D

 25 28  0  0  1  0  0  0  0  0999 V2000
  160.7340  208.7420  155.3860 C   0  0  0  0  0  0  0  0  0  0  0  0
  160.8150  208.9900  152.9680 C   0  0  0  0  0  0  0  0  0  0  0  0
  160.1180  209.9500  155.4840 N   0  0  0  0  0  0  0  0  0  0  0  0
  159.8840  211.0430  152.0100 O   0  0  0  0  0  0  0  0  0  0  0  0
  159.0870  211.9980  154.5910 C   0  0  2  0  0  3  0  0  0  0  0  0
  160.1910  210.2510  153.1130 C   0  0  0  0  0  0  0  0  0  0  0  0
  159.8400  210.7100  154.3930 C   0  0  0  0  0  0  0  0  0  0  0  0
  161.0830  208.2470  154.1280 C   0  0  0  0  0  3  0  0  0  0  0  0
  157.8160  211.9910  153.7440 C   0  0  2  0  0  3  0  0  0  0  0  0
  159.7280  212.4550  152.1180 C   0  0  0  0  0  2  0  0  0  0  0  0
  158.9640  212.9140  153.3720 C   0  0  2  0  0  3  0  0  0  0  0  0
  162.3110  208.6640  149.5340 N   0  0  0  0  0  0  0  0  0  0  0  0
  161.2100  208.4200  151.6450 C   0  0  0  0  0  0  0  0  0  0  0  0
  161.2260  206.6400  150.0090 C   0  0  0  0  0  0  0  0  0  0  0  0
  161.9590  207.4270  149.1810 N   0  0  0  0  0  0  0  0  0  0  0  0
  160.8450  207.1260  151.2580 C   0  0  0  0  0  3  0  0  0  0  0  0
  161.9570  209.1850  150.7400 C   0  0  0  0  0  3  0  0  0  0  0  0
  160.8320  204.3460  150.8110 C   0  0  0  0  0  1  0  0  0  0  0  0
  160.8620  205.2560  149.5990 C   0  0  0  0  0  2  0  0  0  0  0  0
  156.4730  213.9380  154.0720 O   0  0  0  0  0  0  0  0  0  0  0  0
  155.9690  212.1510  155.4650 N   0  0  0  0  0  1  0  0  0  0  0  0
  156.7380  212.7620  154.4330 C   0  0  0  0  0  0  0  0  0  0  0  0
  162.0660  208.1790  157.2610 O   0  0  0  0  0  0  0  0  0  0  0  0
  160.1100  206.9540  157.0410 N   0  0  0  0  0  1  0  0  0  0  0  0
  161.0160  207.9610  156.6000 C   0  0  0  0  0  0  0  0  0  0  0  0
  1  3  1  0  0  0  0
  1 25  1  0  0  0  0
  2  6  2  0  0  0  0
  2  8  1  0  0  0  0
  4 10  1  0  0  0  0
  4  6  1  0  0  0  0
  5  7  1  6  0  0  0
  6  7  1  0  0  0  0
  7  3  2  0  0  0  0
  8  1  2  0  0  0  0
  9 22  1  1  0  0  0
  9  5  1  0  0  0  0
 11 10  1  6  0  0  0
 11  9  1  0  0  0  0
 11  5  1  0  0  0  0
 12 17  1  0  0  0  0
 13  2  1  0  0  0  0
 14 16  2  0  0  0  0
 15 12  2  0  0  0  0
 15 14  1  0  0  0  0
 16 13  1  0  0  0  0
 17 13  2  0  0  0  0
 19 14  1  0  0  0  0
 19 18  1  0  0  0  0
 20 22  2  0  0  0  0
 22 21  1  0  0  0  0
 25 24  1  0  0  0  0
 25 23  2  0  0  0  0
M  END
>  <MODEL>
3

>  <REMARK>
 VINA RESULT:      -7.1      2.378      3.111
  Name = 
  4 active torsions:
  status: ('A' for Active; 'I' for Inactive)
    1  A    between atoms: C_2  and  C_6
    2  A    between atoms: C_3  and  C_11
    3  A    between atoms: C_4  and  C_20
    4  A    between atoms: C_18  and  C_23
                            x       y       z     vdW  Elec       q    Type
                         _______ _______ _______ _____ _____    ______ ____

>  <TORSDO>
F 4

$$$$
=
 OpenBabel11042420133D

 25 28  0  0  1  0  0  0  0  0999 V2000
  161.9600  210.7160  149.4340 C   0  0  0  0  0  0  0  0  0  0  0  0
  161.1770  210.1780  151.6730 C   0  0  0  0  0  0  0  0  0  0  0  0
  162.2090  209.3990  149.2100 N   0  0  0  0  0  0  0  0  0  0  0  0
  161.2310  207.8250  152.3540 O   0  0  0  0  0  0  0  0  0  0  0  0
  162.2130  207.0070  149.7900 C   0  0  2  0  0  3  0  0  0  0  0  0
  161.4690  208.8190  151.4080 C   0  0  0  0  0  0  0  0  0  0  0  0
  161.9800  208.4500  150.1540 C   0  0  0  0  0  0  0  0  0  0  0  0
  161.4350  211.1190  150.6640 C   0  0  0  0  0  3  0  0  0  0  0  0
  160.9350  206.2030  150.0180 C   0  0  2  0  0  3  0  0  0  0  0  0
  161.9330  206.5860  152.3350 C   0  0  0  0  0  2  0  0  0  0  0  0
  162.1310  205.9910  150.9310 C   0  0  2  0  0  3  0  0  0  0  0  0
  158.7830  211.5160  154.2440 N   0  0  0  0  0  0  0  0  0  0  0  0
  160.6200  210.6560  152.9730 C   0  0  0  0  0  0  0  0  0  0  0  0
  160.8380  211.1790  155.3240 C   0  0  0  0  0  0  0  0  0  0  0  0
  159.5360  211.5620  155.3450 N   0  0  0  0  0  0  0  0  0  0  0  0
  161.3970  210.7150  154.1350 C   0  0  0  0  0  3  0  0  0  0  0  0
  159.2860  211.0770  153.0600 C   0  0  0  0  0  3  0  0  0  0  0  0
  163.0490  210.7030  156.2970 C   0  0  0  0  0  1  0  0  0  0  0  0
  161.6510  211.2230  156.5700 C   0  0  0  0  0  2  0  0  0  0  0  0
  160.8320  205.3500  147.7890 O   0  0  0  0  0  0  0  0  0  0  0  0
  160.8310  203.7380  149.4590 N   0  0  0  0  0  1  0  0  0  0  0  0
  160.8460  205.0930  149.0210 C   0  0  0  0  0  0  0  0  0  0  0  0
  163.3830  212.1970  148.2560 O   0  0  0  0  0  0  0  0  0  0  0  0
  161.1970  212.1160  147.4890 N   0  0  0  0  0  1  0  0  0  0  0  0
  162.2300  211.7050  148.3790 C   0  0  0  0  0  0  0  0  0  0  0  0
  1  8  1  0  0  0  0
  2 13  1  0  0  0  0
  3  1  2  0  0  0  0
  3  7  1  0  0  0  0
  5  9  1  0  0  0  0
  5  7  1  1  0  0  0
  5 11  1  0  0  0  0
  6  2  1  0  0  0  0
  6  4  1  0  0  0  0
  7  6  2  0  0  0  0
  8  2  2  0  0  0  0
  9 22  1  6  0  0  0
  9 11  1  0  0  0  0
 10  4  1  0  0  0  0
 11 10  1  1  0  0  0
 12 15  1  0  0  0  0
 13 17  1  0  0  0  0
 13 16  2  0  0  0  0
 14 15  2  0  0  0  0
 14 19  1  0  0  0  0
 16 14  1  0  0  0  0
 17 12  2  0  0  0  0
 18 19  1  0  0  0  0
 20 22  2  0  0  0  0
 22 21  1  0  0  0  0
 23 25  2  0  0  0  0
 24 25  1  0  0  0  0
 25  1  1  0  0  0  0
M  END
>  <MODEL>
4

>  <REMARK>
 VINA RESULT:      -7.0      2.675      7.343
  Name = 
  4 active torsions:
  status: ('A' for Active; 'I' for Inactive)
    1  A    between atoms: C_2  and  C_6
    2  A    between atoms: C_3  and  C_11
    3  A    between atoms: C_4  and  C_20
    4  A    between atoms: C_18  and  C_23
                            x       y       z     vdW  Elec       q    Type
                         _______ _______ _______ _____ _____    ______ ____

>  <TORSDO>
F 4

$$$$
=
 OpenBabel11042420133D

 25 28  0  0  1  0  0  0  0  0999 V2000
  161.9560  210.7370  149.4360 C   0  0  0  0  0  0  0  0  0  0  0  0
  161.1370  210.1940  151.6600 C   0  0  0  0  0  0  0  0  0  0  0  0
  162.2070  209.4200  149.2120 N   0  0  0  0  0  0  0  0  0  0  0  0
  161.1760  207.8400  152.3360 O   0  0  0  0  0  0  0  0  0  0  0  0
  162.1970  207.0260  149.7860 C   0  0  2  0  0  3  0  0  0  0  0  0
  161.4300  208.8360  151.3970 C   0  0  0  0  0  0  0  0  0  0  0  0
  161.9610  208.4680  150.1500 C   0  0  0  0  0  0  0  0  0  0  0  0
  161.4130  211.1370  150.6580 C   0  0  0  0  0  3  0  0  0  0  0  0
  160.9140  206.2230  149.9920 C   0  0  2  0  0  3  0  0  0  0  0  0
  161.8760  206.5990  152.3260 C   0  0  0  0  0  2  0  0  0  0  0  0
  162.0960  206.0080  150.9230 C   0  0  2  0  0  3  0  0  0  0  0  0
  160.8190  211.1400  155.2850 N   0  0  0  0  0  0  0  0  0  0  0  0
  160.5600  210.6700  152.9520 C   0  0  0  0  0  0  0  0  0  0  0  0
  158.7260  211.5050  154.2900 C   0  0  0  0  0  0  0  0  0  0  0  0
  159.5460  211.5290  155.3720 N   0  0  0  0  0  0  0  0  0  0  0  0
  159.2250  211.0780  153.0620 C   0  0  0  0  0  3  0  0  0  0  0  0
  161.3490  210.7100  154.1090 C   0  0  0  0  0  3  0  0  0  0  0  0
  156.5630  211.0790  155.3860 C   0  0  0  0  0  1  0  0  0  0  0  0
  157.3150  211.9620  154.4100 C   0  0  0  0  0  2  0  0  0  0  0  0
  160.8310  205.3780  147.7590 O   0  0  0  0  0  0  0  0  0  0  0  0
  160.8310  203.7600  149.4240 N   0  0  0  0  0  1  0  0  0  0  0  0
  160.8390  205.1160  148.9910 C   0  0  0  0  0  0  0  0  0  0  0  0
  163.4090  212.1910  148.2610 O   0  0  0  0  0  0  0  0  0  0  0  0
  161.2170  212.1730  147.5080 N   0  0  0  0  0  1  0  0  0  0  0  0
  162.2450  211.7280  148.3870 C   0  0  0  0  0  0  0  0  0  0  0  0
  1  8  1  0  0  0  0
  2 13  1  0  0  0  0
  3  1  2  0  0  0  0
  3  7  1  0  0  0  0
  5  9  1  0  0  0  0
  5  7  1  1  0  0  0
  5 11  1  0  0  0  0
  6  2  1  0  0  0  0
  6  4  1  0  0  0  0
  7  6  2  0  0  0  0
  8  2  2  0  0  0  0
  9 22  1  6  0  0  0
  9 11  1  0  0  0  0
 10  4  1  0  0  0  0
 11 10  1  1  0  0  0
 12 15  1  0  0  0  0
 13 16  2  0  0  0  0
 13 17  1  0  0  0  0
 14 19  1  0  0  0  0
 14 15  2  0  0  0  0
 16 14  1  0  0  0  0
 17 12  2  0  0  0  0
 19 18  1  0  0  0  0
 20 22  2  0  0  0  0
 22 21  1  0  0  0  0
 23 25  2  0  0  0  0
 24 25  1  0  0  0  0
 25  1  1  0  0  0  0
M  END
>  <MODEL>
5

>  <REMARK>
 VINA RESULT:      -7.0      2.774      7.330
  Name = 
  4 active torsions:
  status: ('A' for Active; 'I' for Inactive)
    1  A    between atoms: C_2  and  C_6
    2  A    between atoms: C_3  and  C_11
    3  A    between atoms: C_4  and  C_20
    4  A    between atoms: C_18  and  C_23
                            x       y       z     vdW  Elec       q    Type
                         _______ _______ _______ _____ _____    ______ ____

>  <TORSDO>
F 4

$$$$
=
 OpenBabel11042420133D

 25 28  0  0  1  0  0  0  0  0999 V2000
  161.6830  210.6370  150.1870 C   0  0  0  0  0  0  0  0  0  0  0  0
  160.8490  209.7810  152.3050 C   0  0  0  0  0  0  0  0  0  0  0  0
  162.0040  209.3720  149.8070 N   0  0  0  0  0  0  0  0  0  0  0  0
  160.9940  207.3650  152.6830 O   0  0  0  0  0  0  0  0  0  0  0  0
  162.1050  206.9280  150.0790 C   0  0  2  0  0  3  0  0  0  0  0  0
  161.2160  208.4820  151.8820 C   0  0  0  0  0  0  0  0  0  0  0  0
  161.7890  208.3000  150.6130 C   0  0  0  0  0  0  0  0  0  0  0  0
  161.0960  210.8540  151.4350 C   0  0  0  0  0  3  0  0  0  0  0  0
  160.8600  206.0450  150.1500 C   0  0  2  0  0  3  0  0  0  0  0  0
  161.7560  206.1710  152.5360 C   0  0  0  0  0  2  0  0  0  0  0  0
  162.0320  205.7710  151.0770 C   0  0  2  0  0  3  0  0  0  0  0  0
  158.6710  211.3070  154.9620 N   0  0  0  0  0  0  0  0  0  0  0  0
  160.2230  210.0630  153.6310 C   0  0  0  0  0  0  0  0  0  0  0  0
  159.9970  209.6790  156.0080 C   0  0  0  0  0  0  0  0  0  0  0  0
  159.0390  210.6390  156.0570 N   0  0  0  0  0  0  0  0  0  0  0  0
  160.6010  209.3750  154.7890 C   0  0  0  0  0  3  0  0  0  0  0  0
  159.2350  211.0490  153.7520 C   0  0  0  0  0  3  0  0  0  0  0  0
  160.3620  207.4430  156.9720 C   0  0  0  0  0  1  0  0  0  0  0  0
  160.3760  208.9350  157.2400 C   0  0  0  0  0  2  0  0  0  0  0  0
  160.8810  205.4830  147.8280 O   0  0  0  0  0  0  0  0  0  0  0  0
  160.8920  203.6710  149.2790 N   0  0  0  0  0  1  0  0  0  0  0  0
  160.8600  205.0710  149.0170 C   0  0  0  0  0  0  0  0  0  0  0  0
  161.2320  212.8040  149.3440 O   0  0  0  0  0  0  0  0  0  0  0  0
  162.9900  211.6950  148.3170 N   0  0  0  0  0  1  0  0  0  0  0  0
  161.9410  211.7650  149.2780 C   0  0  0  0  0  0  0  0  0  0  0  0
  1  8  1  0  0  0  0
  2 13  1  0  0  0  0
  3  1  2  0  0  0  0
  3  7  1  0  0  0  0
  5  9  1  0  0  0  0
  5  7  1  1  0  0  0
  5 11  1  0  0  0  0
  6  2  1  0  0  0  0
  6  4  1  0  0  0  0
  7  6  2  0  0  0  0
  8  2  2  0  0  0  0
  9 22  1  6  0  0  0
  9 11  1  0  0  0  0
 10  4  1  0  0  0  0
 11 10  1  1  0  0  0
 12 15  1  0  0  0  0
 13 17  1  0  0  0  0
 13 16  2  0  0  0  0
 14 15  2  0  0  0  0
 14 19  1  0  0  0  0
 16 14  1  0  0  0  0
 17 12  2  0  0  0  0
 18 19  1  0  0  0  0
 20 22  2  0  0  0  0
 22 21  1  0  0  0  0
 24 25  1  0  0  0  0
 25 23  2  0  0  0  0
 25  1  1  0  0  0  0
M  END
>  <MODEL>
6

>  <REMARK>
 VINA RESULT:      -6.9      2.367      7.013
  Name = 
  4 active torsions:
  status: ('A' for Active; 'I' for Inactive)
    1  A    between atoms: C_2  and  C_6
    2  A    between atoms: C_3  and  C_11
    3  A    between atoms: C_4  and  C_20
    4  A    between atoms: C_18  and  C_23
                            x       y       z     vdW  Elec       q    Type
                         _______ _______ _______ _____ _____    ______ ____

>  <TORSDO>
F 4

$$$$
=
 OpenBabel11042420133D

 25 28  0  0  1  0  0  0  0  0999 V2000
  161.2920  204.4410  151.2840 C   0  0  0  0  0  0  0  0  0  0  0  0
  161.1890  205.5490  149.1220 C   0  0  0  0  0  0  0  0  0  0  0  0
  161.5670  205.6330  151.8770 N   0  0  0  0  0  0  0  0  0  0  0  0
  161.5980  207.9640  149.0690 O   0  0  0  0  0  0  0  0  0  0  0  0
  161.9040  208.0710  151.9150 C   0  0  2  0  0  3  0  0  0  0  0  0
  161.4960  206.7670  149.7730 C   0  0  0  0  0  0  0  0  0  0  0  0
  161.6740  206.7860  151.1650 C   0  0  0  0  0  0  0  0  0  0  0  0
  161.0930  204.3880  149.9030 C   0  0  0  0  0  3  0  0  0  0  0  0
  160.7990  209.0710  151.5810 C   0  0  2  0  0  3  0  0  0  0  0  0
  162.3580  209.0640  149.5610 C   0  0  0  0  0  2  0  0  0  0  0  0
  162.2100  209.3100  151.0720 C   0  0  2  0  0  3  0  0  0  0  0  0
  160.4730  206.4800  145.5500 N   0  0  0  0  0  0  0  0  0  0  0  0
  160.9720  205.4410  147.6490 C   0  0  0  0  0  0  0  0  0  0  0  0
  160.8230  204.1610  145.6030 C   0  0  0  0  0  0  0  0  0  0  0  0
  160.5480  205.3040  144.9240 N   0  0  0  0  0  0  0  0  0  0  0  0
  161.0430  204.2150  146.9770 C   0  0  0  0  0  3  0  0  0  0  0  0
  160.6740  206.5820  146.8910 C   0  0  0  0  0  3  0  0  0  0  0  0
  160.4520  201.7330  145.7710 C   0  0  0  0  0  1  0  0  0  0  0  0
  160.9200  202.8640  144.8780 C   0  0  0  0  0  2  0  0  0  0  0  0
  159.8850  211.0170  152.6220 O   0  0  0  0  0  0  0  0  0  0  0  0
  160.9360  209.5330  154.0640 N   0  0  0  0  0  1  0  0  0  0  0  0
  160.5240  209.9420  152.7640 C   0  0  0  0  0  0  0  0  0  0  0  0
  160.4590  203.2060  153.1250 O   0  0  0  0  0  0  0  0  0  0  0  0
  161.9180  202.0490  151.7440 N   0  0  0  0  0  1  0  0  0  0  0  0
  161.1920  203.2210  152.1010 C   0  0  0  0  0  0  0  0  0  0  0  0
  1  3  1  0  0  0  0
  1 25  1  0  0  0  0
  2  6  2  0  0  0  0
  2  8  1  0  0  0  0
  4 10  1  0  0  0  0
  4  6  1  0  0  0  0
  5  7  1  6  0  0  0
  6  7  1  0  0  0  0
  7  3  2  0  0  0  0
  8  1  2  0  0  0  0
  9  5  1  0  0  0  0
  9 22  1  1  0  0  0
 11 10  1  6  0  0  0
 11  9  1  0  0  0  0
 11  5  1  0  0  0  0
 12 17  1  0  0  0  0
 13  2  1  0  0  0  0
 14 16  2  0  0  0  0
 15 12  2  0  0  0  0
 15 14  1  0  0  0  0
 16 13  1  0  0  0  0
 17 13  2  0  0  0  0
 19 14  1  0  0  0  0
 19 18  1  0  0  0  0
 20 22  2  0  0  0  0
 22 21  1  0  0  0  0
 24 25  1  0  0  0  0
 25 23  2  0  0  0  0
M  END
>  <MODEL>
7

>  <REMARK>
 VINA RESULT:      -6.8      2.531      4.408
  Name = 
  4 active torsions:
  status: ('A' for Active; 'I' for Inactive)
    1  A    between atoms: C_2  and  C_6
    2  A    between atoms: C_3  and  C_11
    3  A    between atoms: C_4  and  C_20
    4  A    between atoms: C_18  and  C_23
                            x       y       z     vdW  Elec       q    Type
                         _______ _______ _______ _____ _____    ______ ____

>  <TORSDO>
F 4

$$$$
=
 OpenBabel11042420133D

 25 28  0  0  1  0  0  0  0  0999 V2000
  161.5310  207.1600  149.4140 C   0  0  0  0  0  0  0  0  0  0  0  0
  161.1200  206.7270  151.7720 C   0  0  0  0  0  0  0  0  0  0  0  0
  161.5880  205.8220  149.1830 N   0  0  0  0  0  0  0  0  0  0  0  0
  161.0390  204.3880  152.4940 O   0  0  0  0  0  0  0  0  0  0  0  0
  161.4360  203.4480  149.8170 C   0  0  2  0  0  3  0  0  0  0  0  0
  161.2070  205.3430  151.4950 C   0  0  0  0  0  0  0  0  0  0  0  0
  161.4340  204.9100  150.1780 C   0  0  0  0  0  0  0  0  0  0  0  0
  161.2900  207.6270  150.7080 C   0  0  0  0  0  3  0  0  0  0  0  0
  160.1410  202.7950  150.2950 C   0  0  2  0  0  3  0  0  0  0  0  0
  161.5850  203.0770  152.3810 C   0  0  0  0  0  2  0  0  0  0  0  0
  161.4540  202.4550  150.9800 C   0  0  2  0  0  3  0  0  0  0  0  0
  160.5230  206.9110  155.4790 N   0  0  0  0  0  0  0  0  0  0  0  0
  160.8680  207.2730  153.1380 C   0  0  0  0  0  0  0  0  0  0  0  0
  160.4770  209.1100  154.6630 C   0  0  0  0  0  0  0  0  0  0  0  0
  160.3900  208.2230  155.6860 N   0  0  0  0  0  0  0  0  0  0  0  0
  160.7230  208.6460  153.3720 C   0  0  0  0  0  3  0  0  0  0  0  0
  160.7560  206.4100  154.2370 C   0  0  0  0  0  3  0  0  0  0  0  0
  160.5080  211.3450  153.6310 C   0  0  0  0  0  1  0  0  0  0  0  0
  160.3450  210.5690  154.9230 C   0  0  0  0  0  2  0  0  0  0  0  0
  158.5390  201.3630  149.2520 O   0  0  0  0  0  0  0  0  0  0  0  0
  160.7320  201.0590  148.5530 N   0  0  0  0  0  1  0  0  0  0  0  0
  159.7480  201.6970  149.3620 C   0  0  0  0  0  0  0  0  0  0  0  0
  161.6440  207.6990  147.1110 O   0  0  0  0  0  0  0  0  0  0  0  0
  161.9560  209.4850  148.5550 N   0  0  0  0  0  1  0  0  0  0  0  0
  161.7090  208.1060  148.3010 C   0  0  0  0  0  0  0  0  0  0  0  0
  1  8  1  0  0  0  0
  2 13  1  0  0  0  0
  3  1  2  0  0  0  0
  3  7  1  0  0  0  0
  5  7  1  1  0  0  0
  5  9  1  0  0  0  0
  5 11  1  0  0  0  0
  6  2  1  0  0  0  0
  6  4  1  0  0  0  0
  7  6  2  0  0  0  0
  8  2  2  0  0  0  0
  9 22  1  6  0  0  0
  9 11  1  0  0  0  0
 10  4  1  0  0  0  0
 11 10  1  1  0  0  0
 12 15  1  0  0  0  0
 13 16  2  0  0  0  0
 13 17  1  0  0  0  0
 14 19  1  0  0  0  0
 14 15  2  0  0  0  0
 16 14  1  0  0  0  0
 17 12  2  0  0  0  0
 18 19  1  0  0  0  0
 20 22  2  0  0  0  0
 21 22  1  0  0  0  0
 23 25  2  0  0  0  0
 25 24  1  0  0  0  0
 25  1  1  0  0  0  0
M  END
>  <MODEL>
8

>  <REMARK>
 VINA RESULT:      -6.5      2.870      7.506
  Name = 
  4 active torsions:
  status: ('A' for Active; 'I' for Inactive)
    1  A    between atoms: C_2  and  C_6
    2  A    between atoms: C_3  and  C_11
    3  A    between atoms: C_4  and  C_20
    4  A    between atoms: C_18  and  C_23
                            x       y       z     vdW  Elec       q    Type
                         _______ _______ _______ _____ _____    ______ ____

>  <TORSDO>
F 4

$$$$
=
 OpenBabel11042420133D

 25 28  0  0  1  0  0  0  0  0999 V2000
  161.6010  208.9040  150.7310 C   0  0  0  0  0  0  0  0  0  0  0  0
  161.1830  206.7010  151.6730 C   0  0  0  0  0  0  0  0  0  0  0  0
  161.3500  209.4650  151.9440 N   0  0  0  0  0  0  0  0  0  0  0  0
  160.5720  206.5820  154.0420 O   0  0  0  0  0  0  0  0  0  0  0  0
  160.8260  209.4190  154.3480 C   0  0  2  0  0  3  0  0  0  0  0  0
  160.9100  207.3240  152.9130 C   0  0  0  0  0  0  0  0  0  0  0  0
  161.0100  208.7200  153.0270 C   0  0  0  0  0  0  0  0  0  0  0  0
  161.5270  207.5170  150.5850 C   0  0  0  0  0  3  0  0  0  0  0  0
  161.7570  208.8070  155.3930 C   0  0  2  0  0  3  0  0  0  0  0  0
  159.8350  207.1480  155.1220 C   0  0  0  0  0  2  0  0  0  0  0  0
  160.2570  208.5800  155.4940 C   0  0  2  0  0  3  0  0  0  0  0  0
  161.1190  203.0070  152.3690 N   0  0  0  0  0  0  0  0  0  0  0  0
  161.1130  205.2240  151.4660 C   0  0  0  0  0  0  0  0  0  0  0  0
  160.9440  203.2750  150.0450 C   0  0  0  0  0  0  0  0  0  0  0  0
  161.0020  202.4840  151.1470 N   0  0  0  0  0  0  0  0  0  0  0  0
  160.9950  204.6590  150.1910 C   0  0  0  0  0  3  0  0  0  0  0  0
  161.1780  204.3520  152.5610 C   0  0  0  0  0  3  0  0  0  0  0  0
  161.1410  201.1920  148.7470 C   0  0  0  0  0  1  0  0  0  0  0  0
  160.7950  202.6670  148.6950 C   0  0  0  0  0  2  0  0  0  0  0  0
  163.0310  209.5760  157.2610 O   0  0  0  0  0  0  0  0  0  0  0  0
  161.6820  211.1800  156.2630 N   0  0  0  0  0  1  0  0  0  0  0  0
  162.1860  209.8530  156.3700 C   0  0  0  0  0  0  0  0  0  0  0  0
  162.2640  209.2350  148.4820 O   0  0  0  0  0  0  0  0  0  0  0  0
  161.9710  211.1750  149.7170 N   0  0  0  0  0  1  0  0  0  0  0  0
  161.9610  209.7570  149.5880 C   0  0  0  0  0  0  0  0  0  0  0  0
  1  3  1  0  0  0  0
  2  6  2  0  0  0  0
  3  7  2  0  0  0  0
  4 10  1  0  0  0  0
  5  7  1  6  0  0  0
  5  9  1  0  0  0  0
  5 11  1  0  0  0  0
  6  7  1  0  0  0  0
  6  4  1  0  0  0  0
  8  1  2  0  0  0  0
  8  2  1  0  0  0  0
  9 11  1  0  0  0  0
  9 22  1  1  0  0  0
 11 10  1  6  0  0  0
 12 17  1  0  0  0  0
 13  2  1  0  0  0  0
 13 17  2  0  0  0  0
 14 16  2  0  0  0  0
 14 15  1  0  0  0  0
 15 12  2  0  0  0  0
 16 13  1  0  0  0  0
 19 18  1  0  0  0  0
 19 14  1  0  0  0  0
 21 22  1  0  0  0  0
 22 20  2  0  0  0  0
 23 25  2  0  0  0  0
 25 24  1  0  0  0  0
 25  1  1  0  0  0  0
M  END
>  <MODEL>
9

>  <REMARK>
 VINA RESULT:      -6.4      2.331      4.405
  Name = 
  4 active torsions:
  status: ('A' for Active; 'I' for Inactive)
    1  A    between atoms: C_2  and  C_6
    2  A    between atoms: C_3  and  C_11
    3  A    between atoms: C_4  and  C_20
    4  A    between atoms: C_18  and  C_23
                            x       y       z     vdW  Elec       q    Type
                         _______ _______ _______ _____ _____    ______ ____

>  <TORSDO>
F 4

$$$$
