=
 OpenBabel11042421383D

 45 48  0  0  1  0  0  0  0  0999 V2000
  160.6400  208.9320  153.7840 C   0  0  0  0  0  3  0  0  0  0  0  0
  161.1940  208.4310  152.7140 C   0  0  0  0  0  0  0  0  0  0  0  0
  161.7510  207.9360  151.6400 C   0  0  0  0  0  0  0  0  0  0  0  0
  161.7370  208.5720  149.2080 C   0  0  0  0  0  2  0  0  0  0  0  0
  162.1100  210.3120  150.9090 C   0  0  0  0  0  2  0  0  0  0  0  0
  162.3300  208.8410  150.5890 C   0  0  1  0  0  3  0  0  0  0  0  0
  161.6130  212.1990  149.4710 N   0  0  0  0  0  0  0  0  0  0  0  0
  161.6260  209.9160  148.5110 C   0  0  0  0  0  2  0  0  0  0  0  0
  161.7660  210.9140  149.6040 C   0  0  0  0  0  0  0  0  0  0  0  0
  160.2610  213.7210  148.2270 N   0  0  0  0  0  2  0  0  0  0  0  0
  161.2750  212.9200  148.2750 C   0  0  0  0  0  0  0  0  0  0  0  0
  162.1930  212.8470  147.1060 C   0  0  0  0  0  2  0  0  0  0  0  0
  161.3960  212.9620  145.8140 C   0  0  0  0  0  2  0  0  0  0  0  0
  162.2340  213.5290  144.6720 C   0  0  1  0  0  3  0  0  0  0  0  0
  163.5030  212.9460  144.6600 O   0  0  0  0  0  1  0  0  0  0  0  0
  161.4230  213.2910  143.0760 S   0  0  1  0  0  0  0  0  0  0  0  0
  162.4040  212.4180  142.3050 O   0  0  0  0  0  0  0  0  0  0  0  0
  160.0760  212.1580  143.4510 C   0  0  0  0  0  1  0  0  0  0  0  0
  159.8420  206.9090  154.9950 O   0  0  0  0  0  1  0  0  0  0  0  0
  161.7790  208.0600  155.8510 C   0  0  0  0  0  2  0  0  0  0  0  0
  160.5670  208.7890  156.4200 C   0  0  2  0  0  3  0  0  0  0  0  0
  160.5060  208.1340  155.0470 C   0  0  1  0  0  0  0  0  0  0  0  0
  160.8020  210.2920  156.3450 C   0  0  0  0  0  2  0  0  0  0  0  0
  159.4820  211.0360  156.4320 C   0  0  0  0  0  2  0  0  0  0  0  0
  159.6760  212.4980  156.0650 C   0  0  0  0  0  2  0  0  0  0  0  0
  157.9630  213.2690  152.7100 N   0  0  0  0  0  0  0  0  0  0  0  0
  158.3150  213.2530  151.2860 C   0  0  0  0  0  2  0  0  0  0  0  0
  160.0710  212.4130  153.2550 O   0  0  0  0  0  0  0  0  0  0  0  0
  158.6920  212.8950  155.0690 N   0  0  0  0  0  2  0  0  0  0  0  0
  156.1480  213.2140  154.2120 O   0  0  0  0  0  0  0  0  0  0  0  0
  157.5670  214.3330  150.5120 C   0  0  0  0  0  2  0  0  0  0  0  0
  156.0730  214.1570  150.7290 C   0  0  0  0  0  2  0  0  0  0  0  0
  155.7300  214.3980  152.1930 C   0  0  0  0  0  2  0  0  0  0  0  0
  158.9540  212.8340  153.6620 C   0  0  0  0  0  0  0  0  0  0  0  0
  156.6060  213.5810  153.0970 C   0  0  0  0  0  0  0  0  0  0  0  0
  161.7510  206.5190  151.4500 N   0  0  0  0  0  2  0  0  0  0  0  0
  160.6850  205.8530  150.8250 N   0  0  0  0  0  2  0  0  0  0  0  0
  161.1290  201.9610  149.1530 C   0  0  0  0  0  0  0  0  0  0  0  0
  161.5320  205.4640  148.0520 N   0  0  0  0  0  1  0  0  0  0  0  0
  160.8380  204.4520  148.8310 C   0  0  2  0  0  3  0  0  0  0  0  0
  160.5590  203.4350  151.0830 C   0  0  0  0  0  2  0  0  0  0  0  0
  161.1930  204.5890  150.3110 C   0  0  2  0  0  3  0  0  0  0  0  0
  161.3550  200.8030  148.6290 N   0  0  0  0  0  2  0  0  0  0  0  0
  161.1610  202.1050  150.6450 C   0  0  0  0  0  2  0  0  0  0  0  0
  161.1910  203.1280  148.3270 N   0  0  0  0  0  2  0  0  0  0  0  0
  1 22  1  0  0  0  0
  2  1  2  0  0  0  0
  3  2  2  0  0  0  0
  4  6  1  0  0  0  0
  6  5  1  0  0  0  0
  6  3  1  1  0  0  0
  7  9  2  0  0  0  0
  8  4  1  0  0  0  0
  8  9  1  0  0  0  0
  9  5  1  0  0  0  0
 10 11  2  0  0  0  0
 11  7  1  0  0  0  0
 12 11  1  0  0  0  0
 13 12  1  0  0  0  0
 14 15  1  6  0  0  0
 14 13  1  0  0  0  0
 16 18  1  1  0  0  0
 16 14  1  0  0  0  0
 17 16  2  0  0  0  0
 20 21  1  0  0  0  0
 21 23  1  6  0  0  0
 22 19  1  6  0  0  0
 22 20  1  0  0  0  0
 22 21  1  0  0  0  0
 23 24  1  0  0  0  0
 25 24  1  0  0  0  0
 26 35  1  0  0  0  0
 26 34  1  0  0  0  0
 27 26  1  0  0  0  0
 28 34  2  0  0  0  0
 29 25  1  0  0  0  0
 31 32  1  0  0  0  0
 31 27  1  0  0  0  0
 32 33  1  0  0  0  0
 33 35  1  0  0  0  0
 34 29  1  0  0  0  0
 35 30  2  0  0  0  0
 36  3  1  0  0  0  0
 37 36  1  0  0  0  0
 38 44  1  0  0  0  0
 40 39  1  6  0  0  0
 40 42  1  0  0  0  0
 42 37  1  1  0  0  0
 42 41  1  0  0  0  0
 43 38  2  0  0  0  0
 44 41  1  0  0  0  0
 45 40  1  0  0  0  0
 45 38  1  0  0  0  0
M  END
>  <MODEL>
1

>  <REMARK>
 VINA RESULT:      -7.2      0.000      0.000
  Name = 
  14 active torsions:
  status: ('A' for Active; 'I' for Inactive)
    1  A    between atoms: S_3  and  C_14
    2  A    between atoms: C_6  and  C_23
    3  A    between atoms: C_6  and  C_33
    4  A    between atoms: N_8  and  N_15
    5  A    between atoms: N_8  and  C_25
    6  A    between atoms: C_10  and  C_42
    7  A    between atoms: C_14  and  C_45
    8  A    between atoms: N_15  and  C_43
    9  A    between atoms: C_17  and  C_37
   10  A    between atoms: C_17  and  C_45
   11  A    between atoms: C_18  and  N_21
   12  A    between atoms: C_18  and  C_23
   13  A    between atoms: C_24  and  C_43
   14  A    between atoms: N_27  and  C_37
                            x       y       z     vdW  Elec       q    Type
                         _______ _______ _______ _____ _____    ______ ____

>  <TORSDO>
F 14

$$$$
=
 OpenBabel11042421383D

 45 48  0  0  1  0  0  0  0  0999 V2000
  162.1530  211.2440  149.6670 C   0  0  0  0  0  3  0  0  0  0  0  0
  161.2110  212.1310  149.8350 C   0  0  0  0  0  0  0  0  0  0  0  0
  160.2680  213.0220  149.9980 C   0  0  0  0  0  0  0  0  0  0  0  0
  160.9450  214.3930  148.0030 C   0  0  0  0  0  2  0  0  0  0  0  0
  158.8720  213.0700  147.9110 C   0  0  0  0  0  2  0  0  0  0  0  0
  159.7890  213.8520  148.8390 C   0  0  1  0  0  3  0  0  0  0  0  0
  158.6430  213.1030  145.4970 N   0  0  0  0  0  0  0  0  0  0  0  0
  160.4830  214.3790  146.5570 C   0  0  0  0  0  2  0  0  0  0  0  0
  159.2900  213.4930  146.5570 C   0  0  0  0  0  0  0  0  0  0  0  0
  158.3030  214.3600  143.4990 N   0  0  0  0  0  2  0  0  0  0  0  0
  158.9360  213.4260  144.1280 C   0  0  0  0  0  0  0  0  0  0  0  0
  160.0890  212.7600  143.4620 C   0  0  0  0  0  2  0  0  0  0  0  0
  159.8970  212.7830  141.9520 C   0  0  0  0  0  2  0  0  0  0  0  0
  161.1670  212.3860  141.2070 C   0  0  1  0  0  3  0  0  0  0  0  0
  162.2390  212.2660  142.0940 O   0  0  0  0  0  1  0  0  0  0  0  0
  160.9420  210.8480  140.2880 S   0  0  1  0  0  0  0  0  0  0  0  0
  160.4260  211.3150  138.9340 O   0  0  0  0  0  0  0  0  0  0  0  0
  162.6240  210.3220  139.9250 C   0  0  0  0  0  1  0  0  0  0  0  0
  163.0350  210.2800  151.7860 O   0  0  0  0  0  1  0  0  0  0  0  0
  161.0490  209.3050  150.8290 C   0  0  0  0  0  2  0  0  0  0  0  0
  162.2270  208.6430  150.1240 C   0  0  2  0  0  3  0  0  0  0  0  0
  162.3180  210.0860  150.6050 C   0  0  1  0  0  0  0  0  0  0  0  0
  161.9280  208.5390  148.6340 C   0  0  0  0  0  2  0  0  0  0  0  0
  162.5790  207.2970  148.0520 C   0  0  0  0  0  2  0  0  0  0  0  0
  161.6300  206.6080  147.0860 C   0  0  0  0  0  2  0  0  0  0  0  0
  160.8980  203.3620  149.0130 N   0  0  0  0  0  0  0  0  0  0  0  0
  160.4220  202.9790  150.3470 C   0  0  0  0  0  2  0  0  0  0  0  0
  160.6000  205.6210  149.5420 O   0  0  0  0  0  0  0  0  0  0  0  0
  161.5000  205.2010  147.4350 N   0  0  0  0  0  2  0  0  0  0  0  0
  161.1270  202.6010  146.7950 O   0  0  0  0  0  0  0  0  0  0  0  0
  161.0360  201.6590  150.8020 C   0  0  0  0  0  2  0  0  0  0  0  0
  160.7400  200.5890  149.7650 C   0  0  0  0  0  2  0  0  0  0  0  0
  161.4380  200.9290  148.4550 C   0  0  0  0  0  2  0  0  0  0  0  0
  160.9770  204.7660  148.6950 C   0  0  0  0  0  0  0  0  0  0  0  0
  161.1320  202.3330  148.0260 C   0  0  0  0  0  0  0  0  0  0  0  0
  159.7360  213.2370  151.3060 N   0  0  0  0  0  2  0  0  0  0  0  0
  158.4020  212.9350  151.6250 N   0  0  0  0  0  2  0  0  0  0  0  0
  159.1190  211.6200  155.6120 C   0  0  0  0  0  0  0  0  0  0  0  0
  156.5360  213.5350  153.7960 N   0  0  0  0  0  1  0  0  0  0  0  0
  157.9260  213.1680  154.0080 C   0  0  2  0  0  3  0  0  0  0  0  0
  159.8140  211.7560  153.2200 C   0  0  0  0  0  2  0  0  0  0  0  0
  158.4000  212.2290  152.8990 C   0  0  2  0  0  3  0  0  0  0  0  0
  159.2530  211.1740  156.8160 N   0  0  0  0  0  2  0  0  0  0  0  0
  159.8190  210.9130  154.4910 C   0  0  0  0  0  2  0  0  0  0  0  0
  158.0640  212.5410  155.3200 N   0  0  0  0  0  2  0  0  0  0  0  0
  1  2  2  0  0  0  0
  1 22  1  0  0  0  0
  2  3  2  0  0  0  0
  3 36  1  0  0  0  0
  4  6  1  0  0  0  0
  5  6  1  0  0  0  0
  6  3  1  1  0  0  0
  7  9  2  0  0  0  0
  8  9  1  0  0  0  0
  8  4  1  0  0  0  0
  9  5  1  0  0  0  0
 10 11  2  0  0  0  0
 11  7  1  0  0  0  0
 12 11  1  0  0  0  0
 13 12  1  0  0  0  0
 14 13  1  0  0  0  0
 14 15  1  1  0  0  0
 16 18  1  6  0  0  0
 16 14  1  0  0  0  0
 17 16  2  0  0  0  0
 21 23  1  6  0  0  0
 21 22  1  0  0  0  0
 21 20  1  0  0  0  0
 22 20  1  0  0  0  0
 22 19  1  1  0  0  0
 24 23  1  0  0  0  0
 25 29  1  0  0  0  0
 25 24  1  0  0  0  0
 26 27  1  0  0  0  0
 27 31  1  0  0  0  0
 29 34  1  0  0  0  0
 30 35  2  0  0  0  0
 32 31  1  0  0  0  0
 33 32  1  0  0  0  0
 34 26  1  0  0  0  0
 34 28  2  0  0  0  0
 35 33  1  0  0  0  0
 35 26  1  0  0  0  0
 36 37  1  0  0  0  0
 38 43  2  0  0  0  0
 40 39  1  6  0  0  0
 40 45  1  0  0  0  0
 41 44  1  0  0  0  0
 42 37  1  6  0  0  0
 42 41  1  0  0  0  0
 42 40  1  0  0  0  0
 44 38  1  0  0  0  0
 45 38  1  0  0  0  0
M  END
>  <MODEL>
2

>  <REMARK>
 VINA RESULT:      -6.4      2.637      8.619
  Name = 
  14 active torsions:
  status: ('A' for Active; 'I' for Inactive)
    1  A    between atoms: S_3  and  C_14
    2  A    between atoms: C_6  and  C_23
    3  A    between atoms: C_6  and  C_33
    4  A    between atoms: N_8  and  N_15
    5  A    between atoms: N_8  and  C_25
    6  A    between atoms: C_10  and  C_42
    7  A    between atoms: C_14  and  C_45
    8  A    between atoms: N_15  and  C_43
    9  A    between atoms: C_17  and  C_37
   10  A    between atoms: C_17  and  C_45
   11  A    between atoms: C_18  and  N_21
   12  A    between atoms: C_18  and  C_23
   13  A    between atoms: C_24  and  C_43
   14  A    between atoms: N_27  and  C_37
                            x       y       z     vdW  Elec       q    Type
                         _______ _______ _______ _____ _____    ______ ____

>  <TORSDO>
F 14

$$$$
=
 OpenBabel11042421383D

 45 48  0  0  1  0  0  0  0  0999 V2000
  161.9300  210.7310  150.6690 C   0  0  0  0  0  3  0  0  0  0  0  0
  161.1540  211.7770  150.5770 C   0  0  0  0  0  0  0  0  0  0  0  0
  160.3770  212.8230  150.4780 C   0  0  0  0  0  0  0  0  0  0  0  0
  161.0890  214.4490  148.6980 C   0  0  0  0  0  2  0  0  0  0  0  0
  159.9690  212.3580  148.0450 C   0  0  0  0  0  2  0  0  0  0  0  0
  160.0550  213.4150  149.1340 C   0  0  1  0  0  3  0  0  0  0  0  0
  160.6530  212.4060  145.7190 N   0  0  0  0  0  0  0  0  0  0  0  0
  161.2440  214.3050  147.1950 C   0  0  0  0  0  2  0  0  0  0  0  0
  160.6330  212.9870  146.8840 C   0  0  0  0  0  0  0  0  0  0  0  0
  162.5380  213.0740  144.4190 N   0  0  0  0  0  2  0  0  0  0  0  0
  161.2620  212.8900  144.5120 C   0  0  0  0  0  0  0  0  0  0  0  0
  160.4180  213.0540  143.2960 C   0  0  0  0  0  2  0  0  0  0  0  0
  160.4370  211.7700  142.4770 C   0  0  0  0  0  2  0  0  0  0  0  0
  161.6290  211.7150  141.5260 C   0  0  1  0  0  3  0  0  0  0  0  0
  161.5900  210.5490  140.7590 O   0  0  0  0  0  1  0  0  0  0  0  0
  161.6840  213.1670  140.4520 S   0  0  1  0  0  0  0  0  0  0  0  0
  163.1010  213.6910  140.6370 O   0  0  0  0  0  0  0  0  0  0  0  0
  161.7210  212.4650  138.7950 C   0  0  0  0  0  1  0  0  0  0  0  0
  162.6450  210.1620  152.9850 O   0  0  0  0  0  1  0  0  0  0  0  0
  160.4980  209.3700  152.2270 C   0  0  0  0  0  2  0  0  0  0  0  0
  161.5220  208.3510  151.7390 C   0  0  2  0  0  3  0  0  0  0  0  0
  161.8880  209.8240  151.8630 C   0  0  1  0  0  0  0  0  0  0  0  0
  161.1870  207.9470  150.3090 C   0  0  0  0  0  2  0  0  0  0  0  0
  162.3910  208.1580  149.4080 C   0  0  0  0  0  2  0  0  0  0  0  0
  162.1050  207.6250  148.0140 C   0  0  0  0  0  2  0  0  0  0  0  0
  161.5800  203.9390  147.0510 N   0  0  0  0  0  0  0  0  0  0  0  0
  161.6750  203.1120  145.8430 C   0  0  0  0  0  2  0  0  0  0  0  0
  162.3520  205.7960  145.8560 O   0  0  0  0  0  0  0  0  0  0  0  0
  161.7930  206.2050  148.0790 N   0  0  0  0  0  2  0  0  0  0  0  0
  161.5860  203.8580  149.4060 O   0  0  0  0  0  0  0  0  0  0  0  0
  160.6620  201.9720  145.8640 C   0  0  0  0  0  2  0  0  0  0  0  0
  160.8590  201.1540  147.1300 C   0  0  0  0  0  2  0  0  0  0  0  0
  160.5370  202.0040  148.3520 C   0  0  0  0  0  2  0  0  0  0  0  0
  161.9330  205.3330  146.9520 C   0  0  0  0  0  0  0  0  0  0  0  0
  161.2770  203.3090  148.3150 C   0  0  0  0  0  0  0  0  0  0  0  0
  159.8830  213.4340  151.6720 N   0  0  0  0  0  2  0  0  0  0  0  0
  158.5870  213.9680  151.7520 N   0  0  0  0  0  2  0  0  0  0  0  0
  156.5940  212.0330  154.9800 C   0  0  0  0  0  0  0  0  0  0  0  0
  155.7230  214.3310  152.2230 N   0  0  0  0  0  1  0  0  0  0  0  0
  156.6530  213.8640  153.2380 C   0  0  2  0  0  3  0  0  0  0  0  0
  158.6760  212.4900  153.6850 C   0  0  0  0  0  2  0  0  0  0  0  0
  157.7930  213.0800  152.5900 C   0  0  2  0  0  3  0  0  0  0  0  0
  155.9330  211.4050  155.8940 N   0  0  0  0  0  2  0  0  0  0  0  0
  157.8980  211.4670  154.5050 C   0  0  0  0  0  2  0  0  0  0  0  0
  155.9350  213.0410  154.2080 N   0  0  0  0  0  2  0  0  0  0  0  0
  1 22  1  0  0  0  0
  2  1  2  0  0  0  0
  3  2  2  0  0  0  0
  3 36  1  0  0  0  0
  4  6  1  0  0  0  0
  5  6  1  0  0  0  0
  6  3  1  1  0  0  0
  7  9  2  0  0  0  0
  8  4  1  0  0  0  0
  9  8  1  0  0  0  0
  9  5  1  0  0  0  0
 10 11  2  0  0  0  0
 11  7  1  0  0  0  0
 12 11  1  0  0  0  0
 13 12  1  0  0  0  0
 14 15  1  6  0  0  0
 14 13  1  0  0  0  0
 16 18  1  6  0  0  0
 16 17  2  0  0  0  0
 16 14  1  0  0  0  0
 21 23  1  6  0  0  0
 21 22  1  0  0  0  0
 21 20  1  0  0  0  0
 22 20  1  0  0  0  0
 22 19  1  1  0  0  0
 24 23  1  0  0  0  0
 25 29  1  0  0  0  0
 25 24  1  0  0  0  0
 26 35  1  0  0  0  0
 27 31  1  0  0  0  0
 27 26  1  0  0  0  0
 28 34  2  0  0  0  0
 31 32  1  0  0  0  0
 32 33  1  0  0  0  0
 34 26  1  0  0  0  0
 34 29  1  0  0  0  0
 35 33  1  0  0  0  0
 35 30  2  0  0  0  0
 36 37  1  0  0  0  0
 38 43  2  0  0  0  0
 40 39  1  6  0  0  0
 40 45  1  0  0  0  0
 41 44  1  0  0  0  0
 42 37  1  6  0  0  0
 42 40  1  0  0  0  0
 42 41  1  0  0  0  0
 44 38  1  0  0  0  0
 45 38  1  0  0  0  0
M  END
>  <MODEL>
3

>  <REMARK>
 VINA RESULT:      -6.3      2.625      8.503
  Name = 
  14 active torsions:
  status: ('A' for Active; 'I' for Inactive)
    1  A    between atoms: S_3  and  C_14
    2  A    between atoms: C_6  and  C_23
    3  A    between atoms: C_6  and  C_33
    4  A    between atoms: N_8  and  N_15
    5  A    between atoms: N_8  and  C_25
    6  A    between atoms: C_10  and  C_42
    7  A    between atoms: C_14  and  C_45
    8  A    between atoms: N_15  and  C_43
    9  A    between atoms: C_17  and  C_37
   10  A    between atoms: C_17  and  C_45
   11  A    between atoms: C_18  and  N_21
   12  A    between atoms: C_18  and  C_23
   13  A    between atoms: C_24  and  C_43
   14  A    between atoms: N_27  and  C_37
                            x       y       z     vdW  Elec       q    Type
                         _______ _______ _______ _____ _____    ______ ____

>  <TORSDO>
F 14

$$$$
=
 OpenBabel11042421383D

 45 48  0  0  1  0  0  0  0  0999 V2000
  162.4390  208.3200  150.6340 C   0  0  0  0  0  3  0  0  0  0  0  0
  161.8030  207.4460  151.3640 C   0  0  0  0  0  0  0  0  0  0  0  0
  161.1650  206.5740  152.1000 C   0  0  0  0  0  0  0  0  0  0  0  0
  161.5850  206.6700  154.5760 C   0  0  0  0  0  2  0  0  0  0  0  0
  160.2480  208.4400  153.5090 C   0  0  0  0  0  2  0  0  0  0  0  0
  160.6080  206.9630  153.4410 C   0  0  1  0  0  3  0  0  0  0  0  0
  160.4490  210.0470  155.3120 N   0  0  0  0  0  0  0  0  0  0  0  0
  161.4250  207.7880  155.5900 C   0  0  0  0  0  2  0  0  0  0  0  0
  160.6960  208.8540  154.8550 C   0  0  0  0  0  0  0  0  0  0  0  0
  161.9820  210.3510  157.1150 N   0  0  0  0  0  2  0  0  0  0  0  0
  160.8250  210.5890  156.5890 C   0  0  0  0  0  0  0  0  0  0  0  0
  159.9140  211.5570  157.2570 C   0  0  0  0  0  2  0  0  0  0  0  0
  160.1490  212.9560  156.7020 C   0  0  0  0  0  2  0  0  0  0  0  0
  159.0390  213.3880  155.7500 C   0  0  1  0  0  3  0  0  0  0  0  0
  159.4000  213.1310  154.4260 O   0  0  0  0  0  1  0  0  0  0  0  0
  157.4770  212.5700  156.1410 S   0  0  1  0  0  0  0  0  0  0  0  0
  156.8920  213.4330  157.2510 O   0  0  0  0  0  0  0  0  0  0  0  0
  156.4310  212.9580  154.7290 C   0  0  0  0  0  1  0  0  0  0  0  0
  163.4890  207.2340  148.6550 O   0  0  0  0  0  1  0  0  0  0  0  0
  161.2450  208.0860  148.4320 C   0  0  0  0  0  2  0  0  0  0  0  0
  162.1750  209.2690  148.1830 C   0  0  2  0  0  3  0  0  0  0  0  0
  162.5690  208.1590  149.1480 C   0  0  1  0  0  0  0  0  0  0  0  0
  161.6250  210.4990  148.8940 C   0  0  0  0  0  2  0  0  0  0  0  0
  162.5970  211.6580  148.7660 C   0  0  0  0  0  2  0  0  0  0  0  0
  161.8900  212.8790  148.2020 C   0  0  0  0  0  2  0  0  0  0  0  0
  161.0020  212.6360  144.4680 N   0  0  0  0  0  0  0  0  0  0  0  0
  159.8200  212.3310  143.6540 C   0  0  0  0  0  2  0  0  0  0  0  0
  159.7200  212.4620  146.4180 O   0  0  0  0  0  0  0  0  0  0  0  0
  161.9870  212.8810  146.7500 N   0  0  0  0  0  2  0  0  0  0  0  0
  163.1060  213.6960  144.4270 O   0  0  0  0  0  0  0  0  0  0  0  0
  160.2030  211.6480  142.3450 C   0  0  0  0  0  2  0  0  0  0  0  0
  161.1950  212.5240  141.5990 C   0  0  0  0  0  2  0  0  0  0  0  0
  162.4900  212.6330  142.3920 C   0  0  0  0  0  2  0  0  0  0  0  0
  160.8550  212.6590  145.9020 C   0  0  0  0  0  0  0  0  0  0  0  0
  162.2250  213.0380  143.8120 C   0  0  0  0  0  0  0  0  0  0  0  0
  161.0520  205.2270  151.6360 N   0  0  0  0  0  2  0  0  0  0  0  0
  160.3950  204.9060  150.4380 N   0  0  0  0  0  2  0  0  0  0  0  0
  161.2270  201.1830  148.5440 C   0  0  0  0  0  0  0  0  0  0  0  0
  161.5740  204.7770  147.7650 N   0  0  0  0  0  1  0  0  0  0  0  0
  160.8470  203.6770  148.3770 C   0  0  2  0  0  3  0  0  0  0  0  0
  160.3630  202.4720  150.4980 C   0  0  0  0  0  2  0  0  0  0  0  0
  161.0230  203.7090  149.8950 C   0  0  2  0  0  3  0  0  0  0  0  0
  161.5700  200.0820  147.9650 N   0  0  0  0  0  2  0  0  0  0  0  0
  161.0800  201.2070  150.0350 C   0  0  0  0  0  2  0  0  0  0  0  0
  161.3240  202.4140  147.8210 N   0  0  0  0  0  2  0  0  0  0  0  0
  1  2  2  0  0  0  0
  2  3  2  0  0  0  0
  4  8  1  0  0  0  0
  5  9  1  0  0  0  0
  6  3  1  6  0  0  0
  6  5  1  0  0  0  0
  6  4  1  0  0  0  0
  7 11  1  0  0  0  0
  9  7  2  0  0  0  0
  9  8  1  0  0  0  0
 11 10  2  0  0  0  0
 11 12  1  0  0  0  0
 13 12  1  0  0  0  0
 14 15  1  6  0  0  0
 14 16  1  0  0  0  0
 14 13  1  0  0  0  0
 16 18  1  6  0  0  0
 16 17  2  0  0  0  0
 20 22  1  0  0  0  0
 21 20  1  0  0  0  0
 21 23  1  1  0  0  0
 21 22  1  0  0  0  0
 22 19  1  6  0  0  0
 22  1  1  0  0  0  0
 24 23  1  0  0  0  0
 25 24  1  0  0  0  0
 26 34  1  0  0  0  0
 27 26  1  0  0  0  0
 29 25  1  0  0  0  0
 31 27  1  0  0  0  0
 32 31  1  0  0  0  0
 32 33  1  0  0  0  0
 33 35  1  0  0  0  0
 34 28  2  0  0  0  0
 34 29  1  0  0  0  0
 35 30  2  0  0  0  0
 35 26  1  0  0  0  0
 36  3  1  0  0  0  0
 37 36  1  0  0  0  0
 38 44  1  0  0  0  0
 40 39  1  6  0  0  0
 40 42  1  0  0  0  0
 42 37  1  1  0  0  0
 42 41  1  0  0  0  0
 43 38  2  0  0  0  0
 44 41  1  0  0  0  0
 45 40  1  0  0  0  0
 45 38  1  0  0  0  0
M  END
>  <MODEL>
4

>  <REMARK>
 VINA RESULT:      -6.2      2.954      7.867
  Name = 
  14 active torsions:
  status: ('A' for Active; 'I' for Inactive)
    1  A    between atoms: S_3  and  C_14
    2  A    between atoms: C_6  and  C_23
    3  A    between atoms: C_6  and  C_33
    4  A    between atoms: N_8  and  N_15
    5  A    between atoms: N_8  and  C_25
    6  A    between atoms: C_10  and  C_42
    7  A    between atoms: C_14  and  C_45
    8  A    between atoms: N_15  and  C_43
    9  A    between atoms: C_17  and  C_37
   10  A    between atoms: C_17  and  C_45
   11  A    between atoms: C_18  and  N_21
   12  A    between atoms: C_18  and  C_23
   13  A    between atoms: C_24  and  C_43
   14  A    between atoms: N_27  and  C_37
                            x       y       z     vdW  Elec       q    Type
                         _______ _______ _______ _____ _____    ______ ____

>  <TORSDO>
F 14

$$$$
=
 OpenBabel11042421383D

 45 48  0  0  1  0  0  0  0  0999 V2000
  162.3010  208.5540  150.4960 C   0  0  0  0  0  3  0  0  0  0  0  0
  161.7760  207.6420  151.2670 C   0  0  0  0  0  0  0  0  0  0  0  0
  161.2470  206.7320  152.0440 C   0  0  0  0  0  0  0  0  0  0  0  0
  161.5000  206.7370  154.5440 C   0  0  0  0  0  2  0  0  0  0  0  0
  160.3350  208.6050  153.4460 C   0  0  0  0  0  2  0  0  0  0  0  0
  160.6210  207.1140  153.3560 C   0  0  1  0  0  3  0  0  0  0  0  0
  160.4950  210.1490  155.3080 N   0  0  0  0  0  0  0  0  0  0  0  0
  161.3290  207.8340  155.5800 C   0  0  0  0  0  2  0  0  0  0  0  0
  160.7090  208.9580  154.8310 C   0  0  0  0  0  0  0  0  0  0  0  0
  161.9140  210.3210  157.2180 N   0  0  0  0  0  2  0  0  0  0  0  0
  160.8090  210.6340  156.6230 C   0  0  0  0  0  0  0  0  0  0  0  0
  159.9040  211.6300  157.2590 C   0  0  0  0  0  2  0  0  0  0  0  0
  158.4600  211.3350  156.8750 C   0  0  0  0  0  2  0  0  0  0  0  0
  157.6900  212.6050  156.5270 C   0  0  1  0  0  3  0  0  0  0  0  0
  158.5630  213.6860  156.3900 O   0  0  0  0  0  1  0  0  0  0  0  0
  156.7160  212.3950  155.0200 S   0  0  1  0  0  0  0  0  0  0  0  0
  156.4310  213.8240  154.5790 O   0  0  0  0  0  0  0  0  0  0  0  0
  157.9230  211.8270  153.8120 C   0  0  0  0  0  1  0  0  0  0  0  0
  163.2480  207.2510  148.5980 O   0  0  0  0  0  1  0  0  0  0  0  0
  161.1990  208.4680  148.2360 C   0  0  0  0  0  2  0  0  0  0  0  0
  162.3300  209.4670  148.0170 C   0  0  2  0  0  3  0  0  0  0  0  0
  162.4770  208.3330  149.0230 C   0  0  1  0  0  0  0  0  0  0  0  0
  161.9650  210.7910  148.6750 C   0  0  0  0  0  2  0  0  0  0  0  0
  162.9240  211.8810  148.2310 C   0  0  0  0  0  2  0  0  0  0  0  0
  162.1520  213.0750  147.6950 C   0  0  0  0  0  2  0  0  0  0  0  0
  158.4590  213.4520  148.6970 N   0  0  0  0  0  0  0  0  0  0  0  0
  157.1510  213.4510  148.0320 C   0  0  0  0  0  2  0  0  0  0  0  0
  159.5090  212.9710  146.6620 O   0  0  0  0  0  0  0  0  0  0  0  0
  160.9400  213.2750  148.4750 N   0  0  0  0  0  2  0  0  0  0  0  0
  159.5250  213.1440  150.7750 O   0  0  0  0  0  0  0  0  0  0  0  0
  156.1610  214.3690  148.7410 C   0  0  0  0  0  2  0  0  0  0  0  0
  156.0570  213.9560  150.1990 C   0  0  0  0  0  2  0  0  0  0  0  0
  157.3900  214.1810  150.8990 C   0  0  0  0  0  2  0  0  0  0  0  0
  159.6320  213.2150  147.8940 C   0  0  0  0  0  0  0  0  0  0  0  0
  158.5170  213.5480  150.1370 C   0  0  0  0  0  0  0  0  0  0  0  0
  161.3240  205.3600  151.6540 N   0  0  0  0  0  2  0  0  0  0  0  0
  160.3690  204.7720  150.8100 N   0  0  0  0  0  2  0  0  0  0  0  0
  161.2300  201.2780  148.5320 C   0  0  0  0  0  0  0  0  0  0  0  0
  161.4040  204.9400  148.0790 N   0  0  0  0  0  1  0  0  0  0  0  0
  160.7520  203.7590  148.6210 C   0  0  2  0  0  3  0  0  0  0  0  0
  160.4290  202.3440  150.6400 C   0  0  0  0  0  2  0  0  0  0  0  0
  161.0090  203.6580  150.1250 C   0  0  2  0  0  3  0  0  0  0  0  0
  161.5810  200.2500  147.8340 N   0  0  0  0  0  2  0  0  0  0  0  0
  161.1640  201.1580  150.0240 C   0  0  0  0  0  2  0  0  0  0  0  0
  161.2430  202.5730  147.9240 N   0  0  0  0  0  2  0  0  0  0  0  0
  1  2  2  0  0  0  0
  2  3  2  0  0  0  0
  4  8  1  0  0  0  0
  5  9  1  0  0  0  0
  6  3  1  6  0  0  0
  6  5  1  0  0  0  0
  6  4  1  0  0  0  0
  7 11  1  0  0  0  0
  9  7  2  0  0  0  0
  9  8  1  0  0  0  0
 11 10  2  0  0  0  0
 11 12  1  0  0  0  0
 13 12  1  0  0  0  0
 14 15  1  6  0  0  0
 14 13  1  0  0  0  0
 16 18  1  6  0  0  0
 16 14  1  0  0  0  0
 17 16  2  0  0  0  0
 20 22  1  0  0  0  0
 21 20  1  0  0  0  0
 21 23  1  1  0  0  0
 21 22  1  0  0  0  0
 22 19  1  6  0  0  0
 22  1  1  0  0  0  0
 24 23  1  0  0  0  0
 25 24  1  0  0  0  0
 25 29  1  0  0  0  0
 26 35  1  0  0  0  0
 27 26  1  0  0  0  0
 27 31  1  0  0  0  0
 28 34  2  0  0  0  0
 31 32  1  0  0  0  0
 32 33  1  0  0  0  0
 34 29  1  0  0  0  0
 34 26  1  0  0  0  0
 35 30  2  0  0  0  0
 35 33  1  0  0  0  0
 36  3  1  0  0  0  0
 37 36  1  0  0  0  0
 38 44  1  0  0  0  0
 40 39  1  6  0  0  0
 40 42  1  0  0  0  0
 42 41  1  0  0  0  0
 42 37  1  1  0  0  0
 43 38  2  0  0  0  0
 44 41  1  0  0  0  0
 45 38  1  0  0  0  0
 45 40  1  0  0  0  0
M  END
>  <MODEL>
5

>  <REMARK>
 VINA RESULT:      -6.1      2.883      6.765
  Name = 
  14 active torsions:
  status: ('A' for Active; 'I' for Inactive)
    1  A    between atoms: S_3  and  C_14
    2  A    between atoms: C_6  and  C_23
    3  A    between atoms: C_6  and  C_33
    4  A    between atoms: N_8  and  N_15
    5  A    between atoms: N_8  and  C_25
    6  A    between atoms: C_10  and  C_42
    7  A    between atoms: C_14  and  C_45
    8  A    between atoms: N_15  and  C_43
    9  A    between atoms: C_17  and  C_37
   10  A    between atoms: C_17  and  C_45
   11  A    between atoms: C_18  and  N_21
   12  A    between atoms: C_18  and  C_23
   13  A    between atoms: C_24  and  C_43
   14  A    between atoms: N_27  and  C_37
                            x       y       z     vdW  Elec       q    Type
                         _______ _______ _______ _____ _____    ______ ____

>  <TORSDO>
F 14

$$$$
=
 OpenBabel11042421383D

 45 48  0  0  1  0  0  0  0  0999 V2000
  160.8230  206.8490  151.2110 C   0  0  0  0  0  3  0  0  0  0  0  0
  161.5310  207.3460  150.2340 C   0  0  0  0  0  0  0  0  0  0  0  0
  162.2400  207.8510  149.2580 C   0  0  0  0  0  0  0  0  0  0  0  0
  162.3480  209.9720  147.9140 C   0  0  0  0  0  2  0  0  0  0  0  0
  161.8800  210.0950  150.3270 C   0  0  0  0  0  2  0  0  0  0  0  0
  162.6220  209.3050  149.2590 C   0  0  1  0  0  3  0  0  0  0  0  0
  160.9830  212.3470  150.3090 N   0  0  0  0  0  0  0  0  0  0  0  0
  161.8910  211.3880  148.2130 C   0  0  0  0  0  2  0  0  0  0  0  0
  161.5380  211.3660  149.6560 C   0  0  0  0  0  0  0  0  0  0  0  0
  161.4480  214.4440  149.2720 N   0  0  0  0  0  2  0  0  0  0  0  0
  160.5910  213.6280  149.7910 C   0  0  0  0  0  0  0  0  0  0  0  0
  159.1430  213.9670  149.7280 C   0  0  0  0  0  2  0  0  0  0  0  0
  158.7780  214.4160  148.3190 C   0  0  0  0  0  2  0  0  0  0  0  0
  158.4060  213.2410  147.4210 C   0  0  1  0  0  3  0  0  0  0  0  0
  157.1720  212.7070  147.7990 O   0  0  0  0  0  1  0  0  0  0  0  0
  158.3700  213.7240  145.6810 S   0  0  1  0  0  0  0  0  0  0  0  0
  158.2780  212.3940  144.9450 O   0  0  0  0  0  0  0  0  0  0  0  0
  156.7250  214.4220  145.4710 C   0  0  0  0  0  1  0  0  0  0  0  0
  159.9210  204.5530  150.8760 O   0  0  0  0  0  1  0  0  0  0  0  0
  162.2210  204.7870  151.5620 C   0  0  0  0  0  2  0  0  0  0  0  0
  161.3900  204.8470  152.8390 C   0  0  2  0  0  3  0  0  0  0  0  0
  160.8370  205.3830  151.5240 C   0  0  1  0  0  0  0  0  0  0  0  0
  161.9320  205.9490  153.7400 C   0  0  0  0  0  2  0  0  0  0  0  0
  160.7950  206.6280  154.4830 C   0  0  0  0  0  2  0  0  0  0  0  0
  161.3170  207.8160  155.2730 C   0  0  0  0  0  2  0  0  0  0  0  0
  159.0780  210.9340  155.0540 N   0  0  0  0  0  0  0  0  0  0  0  0
  158.0250  211.5680  155.8540 C   0  0  0  0  0  2  0  0  0  0  0  0
  159.3660  209.3010  156.7050 O   0  0  0  0  0  0  0  0  0  0  0  0
  160.6870  209.0400  154.8040 N   0  0  0  0  0  2  0  0  0  0  0  0
  160.6860  211.3390  153.3800 O   0  0  0  0  0  0  0  0  0  0  0  0
  157.0100  212.2890  154.9720 C   0  0  0  0  0  2  0  0  0  0  0  0
  157.7380  213.2930  154.0940 C   0  0  0  0  0  2  0  0  0  0  0  0
  158.6640  212.5630  153.1300 C   0  0  0  0  0  2  0  0  0  0  0  0
  159.7030  209.7420  155.5710 C   0  0  0  0  0  0  0  0  0  0  0  0
  159.5490  211.5940  153.8580 C   0  0  0  0  0  0  0  0  0  0  0  0
  162.6010  207.0120  148.1590 N   0  0  0  0  0  2  0  0  0  0  0  0
  161.6680  206.6180  147.1870 N   0  0  0  0  0  2  0  0  0  0  0  0
  161.1730  202.4410  146.5210 C   0  0  0  0  0  0  0  0  0  0  0  0
  161.8140  205.4670  144.5020 N   0  0  0  0  0  1  0  0  0  0  0  0
  161.1740  204.8060  145.6270 C   0  0  2  0  0  3  0  0  0  0  0  0
  161.2600  204.3890  148.0770 C   0  0  0  0  0  2  0  0  0  0  0  0
  161.8640  205.1980  146.9330 C   0  0  2  0  0  3  0  0  0  0  0  0
  161.1100  201.1740  146.2800 N   0  0  0  0  0  2  0  0  0  0  0  0
  161.5550  202.9040  147.8940 C   0  0  0  0  0  2  0  0  0  0  0  0
  161.2150  203.3600  145.4250 N   0  0  0  0  0  2  0  0  0  0  0  0
  1 22  1  0  0  0  0
  2  1  2  0  0  0  0
  3  2  2  0  0  0  0
  4  8  1  0  0  0  0
  4  6  1  0  0  0  0
  6  3  1  6  0  0  0
  6  5  1  0  0  0  0
  8  9  1  0  0  0  0
  9  7  2  0  0  0  0
  9  5  1  0  0  0  0
 10 11  2  0  0  0  0
 11  7  1  0  0  0  0
 12 11  1  0  0  0  0
 13 12  1  0  0  0  0
 14 15  1  1  0  0  0
 14 13  1  0  0  0  0
 16 18  1  1  0  0  0
 16 14  1  0  0  0  0
 17 16  2  0  0  0  0
 20 21  1  0  0  0  0
 21 23  1  1  0  0  0
 22 19  1  6  0  0  0
 22 20  1  0  0  0  0
 22 21  1  0  0  0  0
 23 24  1  0  0  0  0
 24 25  1  0  0  0  0
 26 34  1  0  0  0  0
 26 27  1  0  0  0  0
 29 25  1  0  0  0  0
 29 34  1  0  0  0  0
 30 35  2  0  0  0  0
 31 27  1  0  0  0  0
 32 31  1  0  0  0  0
 33 35  1  0  0  0  0
 33 32  1  0  0  0  0
 34 28  2  0  0  0  0
 35 26  1  0  0  0  0
 36  3  1  0  0  0  0
 37 36  1  0  0  0  0
 38 44  1  0  0  0  0
 40 39  1  6  0  0  0
 40 42  1  0  0  0  0
 42 37  1  1  0  0  0
 42 41  1  0  0  0  0
 43 38  2  0  0  0  0
 44 41  1  0  0  0  0
 45 40  1  0  0  0  0
 45 38  1  0  0  0  0
M  END
>  <MODEL>
6

>  <REMARK>
 VINA RESULT:      -6.1      2.535      3.852
  Name = 
  14 active torsions:
  status: ('A' for Active; 'I' for Inactive)
    1  A    between atoms: S_3  and  C_14
    2  A    between atoms: C_6  and  C_23
    3  A    between atoms: C_6  and  C_33
    4  A    between atoms: N_8  and  N_15
    5  A    between atoms: N_8  and  C_25
    6  A    between atoms: C_10  and  C_42
    7  A    between atoms: C_14  and  C_45
    8  A    between atoms: N_15  and  C_43
    9  A    between atoms: C_17  and  C_37
   10  A    between atoms: C_17  and  C_45
   11  A    between atoms: C_18  and  N_21
   12  A    between atoms: C_18  and  C_23
   13  A    between atoms: C_24  and  C_43
   14  A    between atoms: N_27  and  C_37
                            x       y       z     vdW  Elec       q    Type
                         _______ _______ _______ _____ _____    ______ ____

>  <TORSDO>
F 14

$$$$
=
 OpenBabel11042421383D

 45 48  0  0  1  0  0  0  0  0999 V2000
  160.7050  207.9810  152.0540 C   0  0  0  0  0  3  0  0  0  0  0  0
  161.3380  208.4220  151.0020 C   0  0  0  0  0  0  0  0  0  0  0  0
  161.9720  208.8710  149.9500 C   0  0  0  0  0  0  0  0  0  0  0  0
  163.3080  210.6870  148.8390 C   0  0  0  0  0  2  0  0  0  0  0  0
  160.8640  210.9200  149.0130 C   0  0  0  0  0  2  0  0  0  0  0  0
  162.0940  210.3480  149.7000 C   0  0  1  0  0  3  0  0  0  0  0  0
  160.6400  212.6360  147.3150 N   0  0  0  0  0  0  0  0  0  0  0  0
  162.9000  211.8450  147.9470 C   0  0  0  0  0  2  0  0  0  0  0  0
  161.4170  211.8700  148.0250 C   0  0  0  0  0  0  0  0  0  0  0  0
  161.9740  214.4530  146.5350 N   0  0  0  0  0  2  0  0  0  0  0  0
  161.0320  213.5950  146.3200 C   0  0  0  0  0  0  0  0  0  0  0  0
  160.4310  213.5080  144.9610 C   0  0  0  0  0  2  0  0  0  0  0  0
  161.5280  213.3130  143.9220 C   0  0  0  0  0  2  0  0  0  0  0  0
  161.2090  212.1730  142.9600 C   0  0  1  0  0  3  0  0  0  0  0  0
  159.8350  211.9240  142.9340 O   0  0  0  0  0  1  0  0  0  0  0  0
  161.8110  212.5270  141.2940 S   0  0  1  0  0  0  0  0  0  0  0  0
  162.2600  211.1650  140.7820 O   0  0  0  0  0  0  0  0  0  0  0  0
  160.3070  212.8390  140.3580 C   0  0  0  0  0  1  0  0  0  0  0  0
  160.4470  205.5080  151.9420 O   0  0  0  0  0  1  0  0  0  0  0  0
  162.3940  206.4030  153.0450 C   0  0  0  0  0  2  0  0  0  0  0  0
  161.2820  206.3970  154.0880 C   0  0  2  0  0  3  0  0  0  0  0  0
  160.9660  206.6150  152.6140 C   0  0  1  0  0  0  0  0  0  0  0  0
  161.3260  207.6990  154.8770 C   0  0  0  0  0  2  0  0  0  0  0  0
  160.0730  207.8450  155.7220 C   0  0  0  0  0  2  0  0  0  0  0  0
  160.0730  209.1850  156.4380 C   0  0  0  0  0  2  0  0  0  0  0  0
  158.6890  211.9730  154.1800 N   0  0  0  0  0  0  0  0  0  0  0  0
  159.2190  212.9700  153.2440 C   0  0  0  0  0  2  0  0  0  0  0  0
  160.8380  211.0990  154.4850 O   0  0  0  0  0  0  0  0  0  0  0  0
  159.1670  210.1060  155.7690 N   0  0  0  0  0  2  0  0  0  0  0  0
  156.7440  210.7870  154.7820 O   0  0  0  0  0  0  0  0  0  0  0  0
  158.3750  214.2410  153.2420 C   0  0  0  0  0  2  0  0  0  0  0  0
  156.9320  213.8790  152.9300 C   0  0  0  0  0  2  0  0  0  0  0  0
  156.3610  213.0150  154.0470 C   0  0  0  0  0  2  0  0  0  0  0  0
  159.6160  211.0550  154.7940 C   0  0  0  0  0  0  0  0  0  0  0  0
  157.2590  211.8510  154.3450 C   0  0  0  0  0  0  0  0  0  0  0  0
  162.5000  207.9340  149.0090 N   0  0  0  0  0  2  0  0  0  0  0  0
  161.7210  207.4110  147.9650 N   0  0  0  0  0  2  0  0  0  0  0  0
  161.1620  203.1950  147.7460 C   0  0  0  0  0  0  0  0  0  0  0  0
  162.5410  205.8760  145.6140 N   0  0  0  0  0  1  0  0  0  0  0  0
  161.5690  205.4030  146.5840 C   0  0  2  0  0  3  0  0  0  0  0  0
  160.9350  205.3460  148.9880 C   0  0  0  0  0  2  0  0  0  0  0  0
  161.8880  205.9640  147.9700 C   0  0  2  0  0  3  0  0  0  0  0  0
  161.0870  201.9080  147.6680 N   0  0  0  0  0  2  0  0  0  0  0  0
  161.1720  203.8440  149.0970 C   0  0  0  0  0  2  0  0  0  0  0  0
  161.5710  203.9430  146.5970 N   0  0  0  0  0  2  0  0  0  0  0  0
  1 22  1  0  0  0  0
  2  1  2  0  0  0  0
  3  2  2  0  0  0  0
  4  6  1  0  0  0  0
  5  6  1  0  0  0  0
  6  3  1  6  0  0  0
  7  9  2  0  0  0  0
  8  9  1  0  0  0  0
  8  4  1  0  0  0  0
  9  5  1  0  0  0  0
 11 10  2  0  0  0  0
 11  7  1  0  0  0  0
 12 11  1  0  0  0  0
 13 12  1  0  0  0  0
 14 15  1  6  0  0  0
 14 13  1  0  0  0  0
 16 18  1  6  0  0  0
 16 14  1  0  0  0  0
 17 16  2  0  0  0  0
 20 21  1  0  0  0  0
 21 23  1  1  0  0  0
 22 19  1  6  0  0  0
 22 20  1  0  0  0  0
 22 21  1  0  0  0  0
 23 24  1  0  0  0  0
 24 25  1  0  0  0  0
 26 35  1  0  0  0  0
 26 34  1  0  0  0  0
 27 26  1  0  0  0  0
 28 34  2  0  0  0  0
 29 25  1  0  0  0  0
 31 27  1  0  0  0  0
 32 31  1  0  0  0  0
 32 33  1  0  0  0  0
 33 35  1  0  0  0  0
 34 29  1  0  0  0  0
 35 30  2  0  0  0  0
 36  3  1  0  0  0  0
 37 36  1  0  0  0  0
 38 44  1  0  0  0  0
 40 39  1  6  0  0  0
 40 45  1  0  0  0  0
 40 42  1  0  0  0  0
 41 44  1  0  0  0  0
 42 37  1  6  0  0  0
 42 41  1  0  0  0  0
 43 38  2  0  0  0  0
 45 38  1  0  0  0  0
M  END
>  <MODEL>
7

>  <REMARK>
 VINA RESULT:      -5.6      1.835      2.588
  Name = 
  14 active torsions:
  status: ('A' for Active; 'I' for Inactive)
    1  A    between atoms: S_3  and  C_14
    2  A    between atoms: C_6  and  C_23
    3  A    between atoms: C_6  and  C_33
    4  A    between atoms: N_8  and  N_15
    5  A    between atoms: N_8  and  C_25
    6  A    between atoms: C_10  and  C_42
    7  A    between atoms: C_14  and  C_45
    8  A    between atoms: N_15  and  C_43
    9  A    between atoms: C_17  and  C_37
   10  A    between atoms: C_17  and  C_45
   11  A    between atoms: C_18  and  N_21
   12  A    between atoms: C_18  and  C_23
   13  A    between atoms: C_24  and  C_43
   14  A    between atoms: N_27  and  C_37
                            x       y       z     vdW  Elec       q    Type
                         _______ _______ _______ _____ _____    ______ ____

>  <TORSDO>
F 14

$$$$
=
 OpenBabel11042421383D

 45 48  0  0  1  0  0  0  0  0999 V2000
  161.1770  208.0690  151.5560 C   0  0  0  0  0  3  0  0  0  0  0  0
  161.2260  209.3540  151.3320 C   0  0  0  0  0  0  0  0  0  0  0  0
  161.2730  210.6420  151.1120 C   0  0  0  0  0  0  0  0  0  0  0  0
  159.1710  211.5430  152.1550 C   0  0  0  0  0  2  0  0  0  0  0  0
  161.2150  211.3700  153.5150 C   0  0  0  0  0  2  0  0  0  0  0  0
  160.6950  211.6100  152.1060 C   0  0  1  0  0  3  0  0  0  0  0  0
  160.1150  211.5310  155.6690 N   0  0  0  0  0  0  0  0  0  0  0  0
  158.7700  211.7650  153.6020 C   0  0  0  0  0  2  0  0  0  0  0  0
  160.0250  211.5550  154.3710 C   0  0  0  0  0  0  0  0  0  0  0  0
  158.3500  210.6820  157.0320 N   0  0  0  0  0  2  0  0  0  0  0  0
  159.0510  211.6880  156.6220 C   0  0  0  0  0  0  0  0  0  0  0  0
  158.8410  213.0190  157.2540 C   0  0  0  0  0  2  0  0  0  0  0  0
  157.3710  213.4080  157.1620 C   0  0  0  0  0  2  0  0  0  0  0  0
  157.1060  214.3780  156.0140 C   0  0  1  0  0  3  0  0  0  0  0  0
  158.1900  214.4030  155.1340 O   0  0  0  0  0  1  0  0  0  0  0  0
  155.5910  213.9540  155.1280 S   0  0  1  0  0  0  0  0  0  0  0  0
  155.8590  214.4420  153.7110 O   0  0  0  0  0  0  0  0  0  0  0  0
  155.6820  212.1640  154.9670 C   0  0  0  0  0  1  0  0  0  0  0  0
  162.8960  207.5770  149.8250 O   0  0  0  0  0  1  0  0  0  0  0  0
  162.9450  206.3080  151.8750 C   0  0  0  0  0  2  0  0  0  0  0  0
  161.9390  205.6090  150.9680 C   0  0  2  0  0  3  0  0  0  0  0  0
  162.1320  207.1190  150.8980 C   0  0  1  0  0  0  0  0  0  0  0  0
  160.7170  205.2110  151.7860 C   0  0  0  0  0  2  0  0  0  0  0  0
  160.8280  203.7620  152.2250 C   0  0  0  0  0  2  0  0  0  0  0  0
  160.8550  202.8450  151.0140 C   0  0  0  0  0  2  0  0  0  0  0  0
  161.1910  203.8570  147.3200 N   0  0  0  0  0  0  0  0  0  0  0  0
  161.3850  203.1890  146.0280 C   0  0  0  0  0  2  0  0  0  0  0  0
  161.0860  201.7800  148.3920 O   0  0  0  0  0  0  0  0  0  0  0  0
  160.9470  203.6340  149.7950 N   0  0  0  0  0  2  0  0  0  0  0  0
  160.4160  205.8410  148.3270 O   0  0  0  0  0  0  0  0  0  0  0  0
  162.1850  204.0590  145.0630 C   0  0  0  0  0  2  0  0  0  0  0  0
  161.4880  205.4010  144.9100 C   0  0  0  0  0  2  0  0  0  0  0  0
  161.5040  206.1490  146.2370 C   0  0  0  0  0  2  0  0  0  0  0  0
  161.0680  203.0370  148.4990 C   0  0  0  0  0  0  0  0  0  0  0  0
  160.9880  205.2870  147.3510 C   0  0  0  0  0  0  0  0  0  0  0  0
  161.8320  211.1150  149.8850 N   0  0  0  0  0  2  0  0  0  0  0  0
  161.5880  212.4140  149.4100 N   0  0  0  0  0  2  0  0  0  0  0  0
  159.9650  213.1360  145.5390 C   0  0  0  0  0  0  0  0  0  0  0  0
  163.2990  212.6290  147.0480 N   0  0  0  0  0  1  0  0  0  0  0  0
  161.9450  213.1550  147.1120 C   0  0  2  0  0  3  0  0  0  0  0  0
  159.6470  212.7930  147.9890 C   0  0  0  0  0  2  0  0  0  0  0  0
  161.0900  212.3000  148.0460 C   0  0  2  0  0  3  0  0  0  0  0  0
  159.5140  213.2730  144.3380 N   0  0  0  0  0  2  0  0  0  0  0  0
  159.0640  212.5760  146.5970 C   0  0  0  0  0  2  0  0  0  0  0  0
  161.3770  213.1910  145.7670 N   0  0  0  0  0  2  0  0  0  0  0  0
  2  1  2  0  0  0  0
  3  2  2  0  0  0  0
  4  8  1  0  0  0  0
  5  9  1  0  0  0  0
  6  3  1  6  0  0  0
  6  4  1  0  0  0  0
  6  5  1  0  0  0  0
  7 11  1  0  0  0  0
  8  9  1  0  0  0  0
  9  7  2  0  0  0  0
 11 10  2  0  0  0  0
 11 12  1  0  0  0  0
 13 12  1  0  0  0  0
 14 15  1  6  0  0  0
 14 13  1  0  0  0  0
 16 18  1  6  0  0  0
 16 14  1  0  0  0  0
 17 16  2  0  0  0  0
 21 23  1  1  0  0  0
 21 20  1  0  0  0  0
 22 19  1  6  0  0  0
 22 21  1  0  0  0  0
 22  1  1  0  0  0  0
 22 20  1  0  0  0  0
 23 24  1  0  0  0  0
 25 24  1  0  0  0  0
 26 35  1  0  0  0  0
 26 34  1  0  0  0  0
 27 26  1  0  0  0  0
 28 34  2  0  0  0  0
 29 25  1  0  0  0  0
 31 27  1  0  0  0  0
 32 31  1  0  0  0  0
 32 33  1  0  0  0  0
 33 35  1  0  0  0  0
 34 29  1  0  0  0  0
 35 30  2  0  0  0  0
 36  3  1  0  0  0  0
 37 36  1  0  0  0  0
 38 45  1  0  0  0  0
 38 44  1  0  0  0  0
 40 39  1  6  0  0  0
 40 42  1  0  0  0  0
 41 42  1  0  0  0  0
 42 37  1  1  0  0  0
 43 38  2  0  0  0  0
 44 41  1  0  0  0  0
 45 40  1  0  0  0  0
M  END
>  <MODEL>
8

>  <REMARK>
 VINA RESULT:      -5.4      3.564      9.415
  Name = 
  14 active torsions:
  status: ('A' for Active; 'I' for Inactive)
    1  A    between atoms: S_3  and  C_14
    2  A    between atoms: C_6  and  C_23
    3  A    between atoms: C_6  and  C_33
    4  A    between atoms: N_8  and  N_15
    5  A    between atoms: N_8  and  C_25
    6  A    between atoms: C_10  and  C_42
    7  A    between atoms: C_14  and  C_45
    8  A    between atoms: N_15  and  C_43
    9  A    between atoms: C_17  and  C_37
   10  A    between atoms: C_17  and  C_45
   11  A    between atoms: C_18  and  N_21
   12  A    between atoms: C_18  and  C_23
   13  A    between atoms: C_24  and  C_43
   14  A    between atoms: N_27  and  C_37
                            x       y       z     vdW  Elec       q    Type
                         _______ _______ _______ _____ _____    ______ ____

>  <TORSDO>
F 14

$$$$
=
 OpenBabel11042421383D

 45 48  0  0  1  0  0  0  0  0999 V2000
  160.8920  207.7820  152.6390 C   0  0  0  0  0  3  0  0  0  0  0  0
  160.9700  209.0160  152.2240 C   0  0  0  0  0  0  0  0  0  0  0  0
  161.0460  210.2550  151.8130 C   0  0  0  0  0  0  0  0  0  0  0  0
  158.9430  211.4730  152.4570 C   0  0  0  0  0  2  0  0  0  0  0  0
  160.7430  211.2120  154.1160 C   0  0  0  0  0  2  0  0  0  0  0  0
  160.4560  211.3710  152.6300 C   0  0  1  0  0  3  0  0  0  0  0  0
  159.3820  211.6960  156.0620 N   0  0  0  0  0  0  0  0  0  0  0  0
  158.3750  211.8740  153.8070 C   0  0  0  0  0  2  0  0  0  0  0  0
  159.4760  211.6050  154.7680 C   0  0  0  0  0  0  0  0  0  0  0  0
  157.3870  211.1690  157.2610 N   0  0  0  0  0  2  0  0  0  0  0  0
  158.2230  212.0570  156.8310 C   0  0  0  0  0  0  0  0  0  0  0  0
  158.0540  213.4730  157.2570 C   0  0  0  0  0  2  0  0  0  0  0  0
  156.5880  213.8730  157.1520 C   0  0  0  0  0  2  0  0  0  0  0  0
  156.2460  214.4360  155.7760 C   0  0  1  0  0  3  0  0  0  0  0  0
  157.3530  214.3650  154.9280 O   0  0  0  0  0  1  0  0  0  0  0  0
  154.8390  213.5740  155.0400 S   0  0  1  0  0  0  0  0  0  0  0  0
  153.6410  214.1560  155.7770 O   0  0  0  0  0  0  0  0  0  0  0  0
  154.7060  214.3060  153.4020 C   0  0  0  0  0  1  0  0  0  0  0  0
  162.7580  206.1920  153.0740 O   0  0  0  0  0  1  0  0  0  0  0  0
  161.2030  205.6700  151.3080 C   0  0  0  0  0  2  0  0  0  0  0  0
  162.2400  206.6050  150.6960 C   0  0  2  0  0  3  0  0  0  0  0  0
  161.8490  206.7300  152.1630 C   0  0  1  0  0  0  0  0  0  0  0  0
  161.5370  207.6270  149.8120 C   0  0  0  0  0  2  0  0  0  0  0  0
  162.3400  207.8680  148.5460 C   0  0  0  0  0  2  0  0  0  0  0  0
  161.6050  207.3080  147.3400 C   0  0  0  0  0  2  0  0  0  0  0  0
  161.2920  203.5520  146.5790 N   0  0  0  0  0  0  0  0  0  0  0  0
  161.3270  202.6810  145.3990 C   0  0  0  0  0  2  0  0  0  0  0  0
  161.7730  205.4080  145.2370 O   0  0  0  0  0  0  0  0  0  0  0  0
  161.4220  205.8730  147.4920 N   0  0  0  0  0  2  0  0  0  0  0  0
  161.5560  203.5800  148.9200 O   0  0  0  0  0  0  0  0  0  0  0  0
  160.4210  201.4660  145.5740 C   0  0  0  0  0  2  0  0  0  0  0  0
  160.8200  200.7250  146.8390 C   0  0  0  0  0  2  0  0  0  0  0  0
  160.5610  201.6020  148.0570 C   0  0  0  0  0  2  0  0  0  0  0  0
  161.5140  204.9640  146.3890 C   0  0  0  0  0  0  0  0  0  0  0  0
  161.1790  202.9590  147.8910 C   0  0  0  0  0  0  0  0  0  0  0  0
  161.6480  210.5300  150.5470 N   0  0  0  0  0  2  0  0  0  0  0  0
  162.0190  211.8290  150.1670 N   0  0  0  0  0  2  0  0  0  0  0  0
  161.0450  213.3140  146.2960 C   0  0  0  0  0  0  0  0  0  0  0  0
  164.0610  212.1800  148.1020 N   0  0  0  0  0  1  0  0  0  0  0  0
  162.7740  212.8540  148.0830 C   0  0  2  0  0  3  0  0  0  0  0  0
  160.3490  212.6530  148.5980 C   0  0  0  0  0  2  0  0  0  0  0  0
  161.7110  211.9820  148.7520 C   0  0  2  0  0  3  0  0  0  0  0  0
  160.7850  213.6830  145.0860 N   0  0  0  0  0  2  0  0  0  0  0  0
  159.9500  212.7190  147.1280 C   0  0  0  0  0  2  0  0  0  0  0  0
  162.4090  213.1590  146.7020 N   0  0  0  0  0  2  0  0  0  0  0  0
  2  1  2  0  0  0  0
  3  2  2  0  0  0  0
  4  6  1  0  0  0  0
  4  8  1  0  0  0  0
  5  9  1  0  0  0  0
  6  3  1  6  0  0  0
  6  5  1  0  0  0  0
  7 11  1  0  0  0  0
  8  9  1  0  0  0  0
  9  7  2  0  0  0  0
 11 12  1  0  0  0  0
 11 10  2  0  0  0  0
 13 12  1  0  0  0  0
 14 15  1  6  0  0  0
 14 13  1  0  0  0  0
 16 18  1  6  0  0  0
 16 14  1  0  0  0  0
 16 17  2  0  0  0  0
 20 22  1  0  0  0  0
 21 23  1  6  0  0  0
 21 20  1  0  0  0  0
 21 22  1  0  0  0  0
 22  1  1  0  0  0  0
 22 19  1  1  0  0  0
 24 23  1  0  0  0  0
 25 29  1  0  0  0  0
 25 24  1  0  0  0  0
 26 35  1  0  0  0  0
 27 31  1  0  0  0  0
 27 26  1  0  0  0  0
 28 34  2  0  0  0  0
 31 32  1  0  0  0  0
 32 33  1  0  0  0  0
 34 26  1  0  0  0  0
 34 29  1  0  0  0  0
 35 33  1  0  0  0  0
 35 30  2  0  0  0  0
 36  3  1  0  0  0  0
 37 36  1  0  0  0  0
 38 45  1  0  0  0  0
 38 44  1  0  0  0  0
 40 39  1  6  0  0  0
 40 42  1  0  0  0  0
 41 42  1  0  0  0  0
 42 37  1  1  0  0  0
 43 38  2  0  0  0  0
 44 41  1  0  0  0  0
 45 40  1  0  0  0  0
M  END
>  <MODEL>
9

>  <REMARK>
 VINA RESULT:      -5.0      3.446      9.790
  Name = 
  14 active torsions:
  status: ('A' for Active; 'I' for Inactive)
    1  A    between atoms: S_3  and  C_14
    2  A    between atoms: C_6  and  C_23
    3  A    between atoms: C_6  and  C_33
    4  A    between atoms: N_8  and  N_15
    5  A    between atoms: N_8  and  C_25
    6  A    between atoms: C_10  and  C_42
    7  A    between atoms: C_14  and  C_45
    8  A    between atoms: N_15  and  C_43
    9  A    between atoms: C_17  and  C_37
   10  A    between atoms: C_17  and  C_45
   11  A    between atoms: C_18  and  N_21
   12  A    between atoms: C_18  and  C_23
   13  A    between atoms: C_24  and  C_43
   14  A    between atoms: N_27  and  C_37
                            x       y       z     vdW  Elec       q    Type
                         _______ _______ _______ _____ _____    ______ ____

>  <TORSDO>
F 14

$$$$
