=
 OpenBabel11042421023D

 28 30  0  0  1  0  0  0  0  0999 V2000
  161.7660  205.7660  151.4720 C   0  0  0  0  0  0  0  0  0  0  0  0
  162.1550  204.5940  151.9910 C   0  0  0  0  0  3  0  0  0  0  0  0
  161.5550  203.3320  151.5460 C   0  0  0  0  0  0  0  0  0  0  0  0
  160.4700  203.3560  150.5650 C   0  0  0  0  0  3  0  0  0  0  0  0
  161.9580  202.2390  152.0200 O   0  0  0  0  0  0  0  0  0  0  0  0
  160.7430  205.8310  150.3560 C   0  0  2  0  0  3  0  0  0  0  0  0
  160.0810  204.5120  150.0260 C   0  0  0  0  0  3  0  0  0  0  0  0
  161.3980  203.5550  146.7970 C   0  0  0  0  0  0  0  0  0  0  0  0
  161.5850  205.6180  147.9750 C   0  0  0  0  0  0  0  0  0  0  0  0
  162.4050  205.4680  145.7150 C   0  0  0  0  0  0  0  0  0  0  0  0
  162.0110  204.1310  145.6720 C   0  0  0  0  0  2  0  0  0  0  0  0
  162.9940  206.0360  144.6360 F   0  0  0  0  0  0  0  0  0  0  0  0
  161.2010  204.3120  147.9110 N   0  0  0  0  0  0  0  0  0  0  0  0
  162.1920  206.2190  146.8710 C   0  0  0  0  0  3  0  0  0  0  0  0
  161.3630  206.3850  149.1600 N   0  0  0  0  0  0  0  0  0  0  0  0
  160.9910  202.2180  146.8040 O   0  0  0  0  0  0  0  0  0  0  0  0
  159.7080  201.6980  144.9710 O   0  0  0  0  0  0  0  0  0  0  0  0
  160.7560  201.4940  145.6370 C   0  0  0  0  0  3  0  0  0  0  0  0
  162.3530  207.0010  151.9070 N   0  0  0  0  0  2  0  0  0  0  0  0
  161.0100  208.5930  153.2810 C   0  0  0  0  0  0  0  0  0  0  0  0
  161.7020  208.2610  152.1290 C   0  0  0  0  0  0  0  0  0  0  0  0
  161.7170  209.6060  151.1220 S   0  0  0  0  0  0  0  0  0  0  0  0
  160.8320  210.6250  152.1320 C   0  0  0  0  0  3  0  0  0  0  0  0
  160.5250  209.9070  153.2880 C   0  0  0  0  0  3  0  0  0  0  0  0
  160.8270  207.6630  154.4320 C   0  0  0  0  0  2  0  0  0  0  0  0
  161.6310  208.0680  155.4980 O   0  0  0  0  0  0  0  0  0  0  0  0
  160.8090  207.9490  156.6170 C   0  0  0  0  0  2  0  0  0  0  0  0
  159.7060  206.9530  156.3320 C   0  0  0  0  0  1  0  0  0  0  0  0
  1 19  1  0  0  0  0
  1  2  2  0  0  0  0
  3  2  1  0  0  0  0
  3  5  2  0  0  0  0
  4  3  1  0  0  0  0
  6 15  1  6  0  0  0
  6  1  1  0  0  0  0
  7  6  1  0  0  0  0
  7  4  2  0  0  0  0
  8 16  1  0  0  0  0
  8 13  2  0  0  0  0
  9 15  2  0  0  0  0
 10 14  2  0  0  0  0
 11 10  1  0  0  0  0
 11  8  1  0  0  0  0
 12 10  1  0  0  0  0
 13  9  1  0  0  0  0
 14  9  1  0  0  0  0
 17 18  2  0  0  0  0
 18 16  1  0  0  0  0
 19 21  1  0  0  0  0
 20 24  1  0  0  0  0
 20 25  1  0  0  0  0
 21 20  2  0  0  0  0
 22 21  1  0  0  0  0
 22 23  1  0  0  0  0
 23 24  2  0  0  0  0
 25 26  1  0  0  0  0
 26 27  1  0  0  0  0
 28 27  1  0  0  0  0
M  END
>  <MODEL>
1

>  <REMARK>
 VINA RESULT:      -7.4      0.000      0.000
  Name = 
  8 active torsions:
  status: ('A' for Active; 'I' for Inactive)
    1  A    between atoms: C_1  and  C_13
    2  A    between atoms: C_2  and  O_26
    3  A    between atoms: C_3  and  N_16
    4  A    between atoms: C_5  and  N_16
    5  A    between atoms: C_12  and  O_25
    6  A    between atoms: C_13  and  O_25
    7  A    between atoms: N_22  and  C_27
    8  A    between atoms: C_23  and  O_26
                            x       y       z     vdW  Elec       q    Type
                         _______ _______ _______ _____ _____    ______ ____

>  <TORSDO>
F 8

$$$$
=
 OpenBabel11042421023D

 28 30  0  0  1  0  0  0  0  0999 V2000
  160.9850  205.7860  149.8320 C   0  0  0  0  0  0  0  0  0  0  0  0
  160.5070  204.7890  150.5870 C   0  0  0  0  0  3  0  0  0  0  0  0
  161.0860  204.4850  151.8990 C   0  0  0  0  0  0  0  0  0  0  0  0
  162.2490  205.2430  152.3660 C   0  0  0  0  0  3  0  0  0  0  0  0
  160.6010  203.5680  152.6090 O   0  0  0  0  0  0  0  0  0  0  0  0
  162.0970  206.6860  150.3310 C   0  0  2  0  0  3  0  0  0  0  0  0
  162.7280  206.2490  151.6350 C   0  0  0  0  0  3  0  0  0  0  0  0
  160.9390  208.4190  154.0630 C   0  0  0  0  0  0  0  0  0  0  0  0
  161.2090  208.6220  151.7050 C   0  0  0  0  0  0  0  0  0  0  0  0
  160.3570  210.4920  152.9630 C   0  0  0  0  0  0  0  0  0  0  0  0
  160.4550  209.7360  154.1310 C   0  0  0  0  0  3  0  0  0  0  0  0
  159.8950  211.7630  153.0140 F   0  0  0  0  0  0  0  0  0  0  0  0
  161.3030  207.9030  152.8590 N   0  0  0  0  0  0  0  0  0  0  0  0
  160.7360  209.9350  151.7410 C   0  0  0  0  0  2  0  0  0  0  0  0
  161.6000  208.0500  150.4550 N   0  0  0  0  0  0  0  0  0  0  0  0
  161.0500  207.6210  155.2060 O   0  0  0  0  0  0  0  0  0  0  0  0
  160.1320  206.8790  157.1760 O   0  0  0  0  0  0  0  0  0  0  0  0
  159.9550  207.2780  155.9960 C   0  0  0  0  0  3  0  0  0  0  0  0
  160.4160  206.0820  148.5490 N   0  0  0  0  0  2  0  0  0  0  0  0
  161.3630  204.3260  147.0490 C   0  0  0  0  0  0  0  0  0  0  0  0
  160.8200  205.5810  147.2650 C   0  0  0  0  0  0  0  0  0  0  0  0
  160.6390  206.3360  145.7750 S   0  0  0  0  0  0  0  0  0  0  0  0
  161.2610  205.0820  144.8350 C   0  0  0  0  0  3  0  0  0  0  0  0
  161.6090  204.0440  145.6990 C   0  0  0  0  0  3  0  0  0  0  0  0
  161.6270  203.3420  148.1380 C   0  0  0  0  0  2  0  0  0  0  0  0
  161.1850  202.0780  147.7470 O   0  0  0  0  0  0  0  0  0  0  0  0
  160.2620  201.7150  148.7270 C   0  0  0  0  0  2  0  0  0  0  0  0
  160.9950  201.1850  149.9410 C   0  0  0  0  0  1  0  0  0  0  0  0
  1  6  1  0  0  0  0
  1  2  2  0  0  0  0
  2  3  1  0  0  0  0
  3  4  1  0  0  0  0
  3  5  2  0  0  0  0
  6 15  1  1  0  0  0
  6  7  1  0  0  0  0
  7  4  2  0  0  0  0
  8 11  1  0  0  0  0
  8 16  1  0  0  0  0
  9 14  1  0  0  0  0
  9 13  1  0  0  0  0
 10 12  1  0  0  0  0
 10 11  2  0  0  0  0
 13  8  2  0  0  0  0
 14 10  1  0  0  0  0
 15  9  2  0  0  0  0
 16 18  1  0  0  0  0
 18 17  2  0  0  0  0
 19  1  1  0  0  0  0
 20 21  2  0  0  0  0
 20 25  1  0  0  0  0
 21 19  1  0  0  0  0
 22 21  1  0  0  0  0
 23 24  2  0  0  0  0
 23 22  1  0  0  0  0
 24 20  1  0  0  0  0
 26 25  1  0  0  0  0
 26 27  1  0  0  0  0
 27 28  1  0  0  0  0
M  END
>  <MODEL>
2

>  <REMARK>
 VINA RESULT:      -7.3      2.686      7.540
  Name = 
  8 active torsions:
  status: ('A' for Active; 'I' for Inactive)
    1  A    between atoms: C_1  and  C_13
    2  A    between atoms: C_2  and  O_26
    3  A    between atoms: C_3  and  N_16
    4  A    between atoms: C_5  and  N_16
    5  A    between atoms: C_12  and  O_25
    6  A    between atoms: C_13  and  O_25
    7  A    between atoms: N_22  and  C_27
    8  A    between atoms: C_23  and  O_26
                            x       y       z     vdW  Elec       q    Type
                         _______ _______ _______ _____ _____    ______ ____

>  <TORSDO>
F 8

$$$$
=
 OpenBabel11042421023D

 28 30  0  0  1  0  0  0  0  0999 V2000
  161.7520  205.7950  151.4520 C   0  0  0  0  0  0  0  0  0  0  0  0
  162.1480  204.6220  151.9620 C   0  0  0  0  0  3  0  0  0  0  0  0
  161.5390  203.3610  151.5270 C   0  0  0  0  0  0  0  0  0  0  0  0
  160.4360  203.3880  150.5660 C   0  0  0  0  0  3  0  0  0  0  0  0
  161.9490  202.2670  151.9920 O   0  0  0  0  0  0  0  0  0  0  0  0
  160.7090  205.8630  150.3550 C   0  0  2  0  0  3  0  0  0  0  0  0
  160.0390  204.5450  150.0360 C   0  0  0  0  0  3  0  0  0  0  0  0
  161.4680  203.5430  146.8450 C   0  0  0  0  0  0  0  0  0  0  0  0
  161.5650  205.6360  147.9800 C   0  0  0  0  0  0  0  0  0  0  0  0
  162.3960  205.4740  145.7250 C   0  0  0  0  0  0  0  0  0  0  0  0
  162.0580  204.1210  145.7100 C   0  0  0  0  0  2  0  0  0  0  0  0
  162.9620  206.0440  144.6350 F   0  0  0  0  0  0  0  0  0  0  0  0
  161.2360  204.3140  147.9430 N   0  0  0  0  0  0  0  0  0  0  0  0
  162.1480  206.2390  146.8650 C   0  0  0  0  0  3  0  0  0  0  0  0
  161.3080  206.4170  149.1490 N   0  0  0  0  0  0  0  0  0  0  0  0
  161.1170  202.1900  146.8800 O   0  0  0  0  0  0  0  0  0  0  0  0
  161.4860  200.5870  148.4830 O   0  0  0  0  0  0  0  0  0  0  0  0
  160.7700  201.5300  148.0570 C   0  0  0  0  0  3  0  0  0  0  0  0
  162.3490  207.0280  151.8780 N   0  0  0  0  0  2  0  0  0  0  0  0
  161.5100  209.3670  151.6510 C   0  0  0  0  0  0  0  0  0  0  0  0
  161.6920  208.2030  152.3780 C   0  0  0  0  0  0  0  0  0  0  0  0
  160.9340  208.3910  153.8650 S   0  0  0  0  0  0  0  0  0  0  0  0
  160.3740  209.9610  153.6100 C   0  0  0  0  0  3  0  0  0  0  0  0
  160.7770  210.3480  152.3320 C   0  0  0  0  0  3  0  0  0  0  0  0
  162.0060  209.5570  150.2580 C   0  0  0  0  0  2  0  0  0  0  0  0
  162.1380  210.9200  149.9870 O   0  0  0  0  0  0  0  0  0  0  0  0
  162.0670  211.0050  148.5970 C   0  0  0  0  0  2  0  0  0  0  0  0
  162.7370  212.2800  148.1330 C   0  0  0  0  0  1  0  0  0  0  0  0
  1 19  1  0  0  0  0
  1  2  2  0  0  0  0
  3  2  1  0  0  0  0
  3  5  2  0  0  0  0
  4  3  1  0  0  0  0
  6 15  1  6  0  0  0
  6  1  1  0  0  0  0
  7  6  1  0  0  0  0
  7  4  2  0  0  0  0
  8 16  1  0  0  0  0
  8 13  2  0  0  0  0
  9 15  2  0  0  0  0
 10 14  2  0  0  0  0
 11 10  1  0  0  0  0
 11  8  1  0  0  0  0
 12 10  1  0  0  0  0
 13  9  1  0  0  0  0
 14  9  1  0  0  0  0
 16 18  1  0  0  0  0
 18 17  2  0  0  0  0
 19 21  1  0  0  0  0
 20 24  1  0  0  0  0
 20 21  2  0  0  0  0
 21 22  1  0  0  0  0
 23 22  1  0  0  0  0
 24 23  2  0  0  0  0
 25 20  1  0  0  0  0
 26 25  1  0  0  0  0
 27 26  1  0  0  0  0
 28 27  1  0  0  0  0
M  END
>  <MODEL>
3

>  <REMARK>
 VINA RESULT:      -7.3      1.924      3.168
  Name = 
  8 active torsions:
  status: ('A' for Active; 'I' for Inactive)
    1  A    between atoms: C_1  and  C_13
    2  A    between atoms: C_2  and  O_26
    3  A    between atoms: C_3  and  N_16
    4  A    between atoms: C_5  and  N_16
    5  A    between atoms: C_12  and  O_25
    6  A    between atoms: C_13  and  O_25
    7  A    between atoms: N_22  and  C_27
    8  A    between atoms: C_23  and  O_26
                            x       y       z     vdW  Elec       q    Type
                         _______ _______ _______ _____ _____    ______ ____

>  <TORSDO>
F 8

$$$$
=
 OpenBabel11042421023D

 28 30  0  0  1  0  0  0  0  0999 V2000
  160.9150  208.9790  153.5370 C   0  0  0  0  0  0  0  0  0  0  0  0
  161.1960  208.1810  154.5740 C   0  0  0  0  0  3  0  0  0  0  0  0
  161.6940  208.7280  155.8400 C   0  0  0  0  0  0  0  0  0  0  0  0
  161.9500  210.1650  155.9510 C   0  0  0  0  0  3  0  0  0  0  0  0
  161.9200  207.9660  156.8140 O   0  0  0  0  0  0  0  0  0  0  0  0
  161.0320  210.4850  153.6490 C   0  0  2  0  0  3  0  0  0  0  0  0
  161.6600  210.9770  154.9340 C   0  0  0  0  0  3  0  0  0  0  0  0
  160.1010  213.1990  150.4810 C   0  0  0  0  0  0  0  0  0  0  0  0
  159.4140  212.0000  152.4210 C   0  0  0  0  0  0  0  0  0  0  0  0
  157.8360  213.4300  151.2940 C   0  0  0  0  0  0  0  0  0  0  0  0
  158.8210  213.7650  150.3650 C   0  0  0  0  0  2  0  0  0  0  0  0
  156.5970  213.9660  151.1910 F   0  0  0  0  0  0  0  0  0  0  0  0
  160.3600  212.3350  151.4990 N   0  0  0  0  0  0  0  0  0  0  0  0
  158.1310  212.5430  152.3290 C   0  0  0  0  0  3  0  0  0  0  0  0
  159.7170  211.0890  153.4790 N   0  0  0  0  0  0  0  0  0  0  0  0
  161.1220  213.5080  149.5770 O   0  0  0  0  0  0  0  0  0  0  0  0
  162.5860  212.3480  148.2380 O   0  0  0  0  0  0  0  0  0  0  0  0
  161.4050  212.7230  148.4610 C   0  0  0  0  0  3  0  0  0  0  0  0
  160.4270  208.4410  152.2990 N   0  0  0  0  0  2  0  0  0  0  0  0
  161.3150  206.9280  150.5250 C   0  0  0  0  0  0  0  0  0  0  0  0
  161.1650  208.1800  151.0960 C   0  0  0  0  0  0  0  0  0  0  0  0
  161.9000  209.3060  150.0880 S   0  0  0  0  0  0  0  0  0  0  0  0
  162.4320  208.2140  148.9180 C   0  0  0  0  0  3  0  0  0  0  0  0
  162.0190  206.9420  149.3130 C   0  0  0  0  0  3  0  0  0  0  0  0
  160.7510  205.6790  151.1120 C   0  0  0  0  0  2  0  0  0  0  0  0
  161.6430  204.6240  150.9210 O   0  0  0  0  0  0  0  0  0  0  0  0
  160.8360  203.5510  150.5440 C   0  0  0  0  0  2  0  0  0  0  0  0
  160.9380  203.3420  149.0490 C   0  0  0  0  0  1  0  0  0  0  0  0
  1  6  1  0  0  0  0
  1  2  2  0  0  0  0
  2  3  1  0  0  0  0
  3  4  1  0  0  0  0
  3  5  2  0  0  0  0
  6 15  1  1  0  0  0
  6  7  1  0  0  0  0
  7  4  2  0  0  0  0
  8 13  2  0  0  0  0
  9 15  2  0  0  0  0
 10 14  2  0  0  0  0
 11  8  1  0  0  0  0
 11 10  1  0  0  0  0
 12 10  1  0  0  0  0
 13  9  1  0  0  0  0
 14  9  1  0  0  0  0
 16  8  1  0  0  0  0
 17 18  2  0  0  0  0
 18 16  1  0  0  0  0
 19  1  1  0  0  0  0
 20 21  2  0  0  0  0
 20 25  1  0  0  0  0
 21 19  1  0  0  0  0
 22 21  1  0  0  0  0
 23 24  2  0  0  0  0
 23 22  1  0  0  0  0
 24 20  1  0  0  0  0
 26 25  1  0  0  0  0
 27 26  1  0  0  0  0
 28 27  1  0  0  0  0
M  END
>  <MODEL>
4

>  <REMARK>
 VINA RESULT:      -7.1      4.094      7.847
  Name = 
  8 active torsions:
  status: ('A' for Active; 'I' for Inactive)
    1  A    between atoms: C_1  and  C_13
    2  A    between atoms: C_2  and  O_26
    3  A    between atoms: C_3  and  N_16
    4  A    between atoms: C_5  and  N_16
    5  A    between atoms: C_12  and  O_25
    6  A    between atoms: C_13  and  O_25
    7  A    between atoms: N_22  and  C_27
    8  A    between atoms: C_23  and  O_26
                            x       y       z     vdW  Elec       q    Type
                         _______ _______ _______ _____ _____    ______ ____

>  <TORSDO>
F 8

$$$$
=
 OpenBabel11042421023D

 28 30  0  0  1  0  0  0  0  0999 V2000
  161.2500  206.4470  147.3550 C   0  0  0  0  0  0  0  0  0  0  0  0
  160.8020  206.3490  146.0970 C   0  0  0  0  0  3  0  0  0  0  0  0
  161.4390  205.4460  145.1330 C   0  0  0  0  0  0  0  0  0  0  0  0
  162.6240  204.6850  145.5330 C   0  0  0  0  0  3  0  0  0  0  0  0
  160.9820  205.3410  143.9660 O   0  0  0  0  0  0  0  0  0  0  0  0
  162.3870  205.5790  147.8550 C   0  0  2  0  0  3  0  0  0  0  0  0
  163.0740  204.7580  146.7860 C   0  0  0  0  0  3  0  0  0  0  0  0
  160.8550  201.6550  147.1240 C   0  0  0  0  0  0  0  0  0  0  0  0
  161.3850  203.3950  148.6620 C   0  0  0  0  0  0  0  0  0  0  0  0
  160.4310  201.3410  149.4830 C   0  0  0  0  0  0  0  0  0  0  0  0
  160.3880  200.8530  148.1770 C   0  0  0  0  0  2  0  0  0  0  0  0
  159.9860  200.5760  150.5070 F   0  0  0  0  0  0  0  0  0  0  0  0
  161.3410  202.8970  147.3950 N   0  0  0  0  0  0  0  0  0  0  0  0
  160.9320  202.6190  149.7300 C   0  0  0  0  0  3  0  0  0  0  0  0
  161.9010  204.7040  148.9130 N   0  0  0  0  0  0  0  0  0  0  0  0
  160.8280  201.2120  145.7980 O   0  0  0  0  0  0  0  0  0  0  0  0
  159.4250  202.4750  144.4900 O   0  0  0  0  0  0  0  0  0  0  0  0
  159.7100  201.3510  144.9780 C   0  0  0  0  0  3  0  0  0  0  0  0
  160.6260  207.3310  148.2970 N   0  0  0  0  0  2  0  0  0  0  0  0
  161.4690  207.9160  150.5720 C   0  0  0  0  0  0  0  0  0  0  0  0
  161.2590  208.2130  149.2360 C   0  0  0  0  0  0  0  0  0  0  0  0
  161.9540  209.7100  148.9190 S   0  0  0  0  0  0  0  0  0  0  0  0
  162.5200  210.0060  150.4790 C   0  0  0  0  0  3  0  0  0  0  0  0
  162.1710  208.9100  151.2670 C   0  0  0  0  0  3  0  0  0  0  0  0
  161.0310  206.6430  151.2130 C   0  0  0  0  0  2  0  0  0  0  0  0
  161.9730  206.2450  152.1630 O   0  0  0  0  0  0  0  0  0  0  0  0
  161.2120  205.7550  153.2230 C   0  0  0  0  0  2  0  0  0  0  0  0
  160.9510  206.8670  154.2160 C   0  0  0  0  0  1  0  0  0  0  0  0
  1  6  1  0  0  0  0
  1 19  1  0  0  0  0
  2  1  2  0  0  0  0
  3  4  1  0  0  0  0
  3  2  1  0  0  0  0
  4  7  2  0  0  0  0
  5  3  2  0  0  0  0
  6 15  1  1  0  0  0
  7  6  1  0  0  0  0
  8 13  2  0  0  0  0
  8 11  1  0  0  0  0
  9 15  2  0  0  0  0
  9 14  1  0  0  0  0
 10 14  2  0  0  0  0
 10 12  1  0  0  0  0
 11 10  1  0  0  0  0
 13  9  1  0  0  0  0
 16  8  1  0  0  0  0
 17 18  2  0  0  0  0
 18 16  1  0  0  0  0
 19 21  1  0  0  0  0
 20 25  1  0  0  0  0
 20 24  1  0  0  0  0
 21 20  2  0  0  0  0
 22 21  1  0  0  0  0
 22 23  1  0  0  0  0
 23 24  2  0  0  0  0
 25 26  1  0  0  0  0
 26 27  1  0  0  0  0
 27 28  1  0  0  0  0
M  END
>  <MODEL>
5

>  <REMARK>
 VINA RESULT:      -7.1      2.586      4.263
  Name = 
  8 active torsions:
  status: ('A' for Active; 'I' for Inactive)
    1  A    between atoms: C_1  and  C_13
    2  A    between atoms: C_2  and  O_26
    3  A    between atoms: C_3  and  N_16
    4  A    between atoms: C_5  and  N_16
    5  A    between atoms: C_12  and  O_25
    6  A    between atoms: C_13  and  O_25
    7  A    between atoms: N_22  and  C_27
    8  A    between atoms: C_23  and  O_26
                            x       y       z     vdW  Elec       q    Type
                         _______ _______ _______ _____ _____    ______ ____

>  <TORSDO>
F 8

$$$$
=
 OpenBabel11042421023D

 28 30  0  0  1  0  0  0  0  0999 V2000
  161.3580  206.5330  147.2870 C   0  0  0  0  0  0  0  0  0  0  0  0
  160.8970  206.4260  146.0340 C   0  0  0  0  0  3  0  0  0  0  0  0
  161.4710  205.4570  145.0950 C   0  0  0  0  0  0  0  0  0  0  0  0
  162.6090  204.6370  145.5120 C   0  0  0  0  0  3  0  0  0  0  0  0
  161.0010  205.3470  143.9330 O   0  0  0  0  0  0  0  0  0  0  0  0
  162.4420  205.6120  147.8070 C   0  0  2  0  0  3  0  0  0  0  0  0
  163.0710  204.7190  146.7600 C   0  0  0  0  0  3  0  0  0  0  0  0
  160.8360  201.6930  147.2250 C   0  0  0  0  0  0  0  0  0  0  0  0
  161.3690  203.4930  148.6920 C   0  0  0  0  0  0  0  0  0  0  0  0
  160.3460  201.5030  149.5840 C   0  0  0  0  0  0  0  0  0  0  0  0
  160.3240  200.9530  148.3020 C   0  0  0  0  0  2  0  0  0  0  0  0
  159.8590  200.7980  150.6330 F   0  0  0  0  0  0  0  0  0  0  0  0
  161.3450  202.9350  147.4490 N   0  0  0  0  0  0  0  0  0  0  0  0
  160.8710  202.7800  149.7840 C   0  0  0  0  0  3  0  0  0  0  0  0
  161.9100  204.8000  148.8930 N   0  0  0  0  0  0  0  0  0  0  0  0
  160.8310  201.1870  145.9220 O   0  0  0  0  0  0  0  0  0  0  0  0
  159.5610  202.4820  144.5120 O   0  0  0  0  0  0  0  0  0  0  0  0
  159.7600  201.3610  145.0480 C   0  0  0  0  0  3  0  0  0  0  0  0
  160.7950  207.4820  148.2050 N   0  0  0  0  0  2  0  0  0  0  0  0
  161.9940  209.0740  149.7060 C   0  0  0  0  0  0  0  0  0  0  0  0
  161.3110  207.8910  149.4810 C   0  0  0  0  0  0  0  0  0  0  0  0
  161.1220  207.1070  150.9550 S   0  0  0  0  0  0  0  0  0  0  0  0
  161.9180  208.2550  151.8990 C   0  0  0  0  0  3  0  0  0  0  0  0
  162.3330  209.2810  151.0500 C   0  0  0  0  0  3  0  0  0  0  0  0
  162.3080  210.0640  148.6360 C   0  0  0  0  0  2  0  0  0  0  0  0
  161.9570  211.3450  149.0610 O   0  0  0  0  0  0  0  0  0  0  0  0
  162.0980  212.1390  147.9240 C   0  0  0  0  0  2  0  0  0  0  0  0
  160.7420  212.3630  147.2910 C   0  0  0  0  0  1  0  0  0  0  0  0
  1  6  1  0  0  0  0
  1 19  1  0  0  0  0
  2  1  2  0  0  0  0
  3  4  1  0  0  0  0
  3  2  1  0  0  0  0
  4  7  2  0  0  0  0
  5  3  2  0  0  0  0
  6 15  1  1  0  0  0
  7  6  1  0  0  0  0
  8 13  2  0  0  0  0
  8 11  1  0  0  0  0
  9 15  2  0  0  0  0
  9 14  1  0  0  0  0
 10 14  2  0  0  0  0
 10 12  1  0  0  0  0
 11 10  1  0  0  0  0
 13  9  1  0  0  0  0
 16  8  1  0  0  0  0
 17 18  2  0  0  0  0
 18 16  1  0  0  0  0
 19 21  1  0  0  0  0
 20 24  1  0  0  0  0
 21 20  2  0  0  0  0
 21 22  1  0  0  0  0
 22 23  1  0  0  0  0
 24 23  2  0  0  0  0
 25 26  1  0  0  0  0
 25 20  1  0  0  0  0
 27 26  1  0  0  0  0
 28 27  1  0  0  0  0
M  END
>  <MODEL>
6

>  <REMARK>
 VINA RESULT:      -6.9      3.293      5.245
  Name = 
  8 active torsions:
  status: ('A' for Active; 'I' for Inactive)
    1  A    between atoms: C_1  and  C_13
    2  A    between atoms: C_2  and  O_26
    3  A    between atoms: C_3  and  N_16
    4  A    between atoms: C_5  and  N_16
    5  A    between atoms: C_12  and  O_25
    6  A    between atoms: C_13  and  O_25
    7  A    between atoms: N_22  and  C_27
    8  A    between atoms: C_23  and  O_26
                            x       y       z     vdW  Elec       q    Type
                         _______ _______ _______ _____ _____    ______ ____

>  <TORSDO>
F 8

$$$$
=
 OpenBabel11042421023D

 28 30  0  0  1  0  0  0  0  0999 V2000
  162.0020  209.6600  150.1500 C   0  0  0  0  0  0  0  0  0  0  0  0
  161.9550  208.8990  149.0500 C   0  0  0  0  0  3  0  0  0  0  0  0
  161.6100  207.4760  149.1250 C   0  0  0  0  0  0  0  0  0  0  0  0
  161.3750  206.8610  150.4320 C   0  0  0  0  0  3  0  0  0  0  0  0
  161.5370  206.7860  148.0770 O   0  0  0  0  0  0  0  0  0  0  0  0
  161.6320  209.1010  151.5090 C   0  0  2  0  0  3  0  0  0  0  0  0
  161.4010  207.6060  151.5370 C   0  0  0  0  0  3  0  0  0  0  0  0
  161.5050  211.0010  155.3360 C   0  0  0  0  0  0  0  0  0  0  0  0
  160.4160  210.4210  153.2980 C   0  0  0  0  0  0  0  0  0  0  0  0
  159.2130  211.6740  154.9680 C   0  0  0  0  0  0  0  0  0  0  0  0
  160.3420  211.6460  155.7860 C   0  0  0  0  0  3  0  0  0  0  0  0
  158.0860  212.2950  155.3880 F   0  0  0  0  0  0  0  0  0  0  0  0
  161.5110  210.4120  154.1100 N   0  0  0  0  0  0  0  0  0  0  0  0
  159.2460  211.0590  153.7160 C   0  0  0  0  0  2  0  0  0  0  0  0
  160.4540  209.7920  152.0160 N   0  0  0  0  0  0  0  0  0  0  0  0
  162.6600  210.9430  156.1220 O   0  0  0  0  0  0  0  0  0  0  0  0
  162.1370  208.9310  157.1000 O   0  0  0  0  0  0  0  0  0  0  0  0
  162.8740  209.9500  157.0770 C   0  0  0  0  0  3  0  0  0  0  0  0
  162.3390  211.0530  150.0750 N   0  0  0  0  0  2  0  0  0  0  0  0
  160.9080  212.9210  149.2440 C   0  0  0  0  0  0  0  0  0  0  0  0
  161.9360  212.0080  149.0820 C   0  0  0  0  0  0  0  0  0  0  0  0
  162.6580  212.2940  147.5920 S   0  0  0  0  0  0  0  0  0  0  0  0
  161.6650  213.5750  147.1270 C   0  0  0  0  0  3  0  0  0  0  0  0
  160.7540  213.7950  148.1600 C   0  0  0  0  0  3  0  0  0  0  0  0
  160.0640  213.0040  150.4700 C   0  0  0  0  0  2  0  0  0  0  0  0
  159.1280  214.0300  150.3300 O   0  0  0  0  0  0  0  0  0  0  0  0
  157.9060  213.4280  150.6230 C   0  0  0  0  0  2  0  0  0  0  0  0
  157.0740  213.3290  149.3630 C   0  0  0  0  0  1  0  0  0  0  0  0
  1  6  1  0  0  0  0
  2  3  1  0  0  0  0
  2  1  2  0  0  0  0
  3  4  1  0  0  0  0
  4  7  2  0  0  0  0
  5  3  2  0  0  0  0
  6  7  1  0  0  0  0
  6 15  1  6  0  0  0
  8 11  1  0  0  0  0
  8 16  1  0  0  0  0
  9 14  1  0  0  0  0
  9 13  1  0  0  0  0
 10 12  1  0  0  0  0
 10 11  2  0  0  0  0
 13  8  2  0  0  0  0
 14 10  1  0  0  0  0
 15  9  2  0  0  0  0
 16 18  1  0  0  0  0
 18 17  2  0  0  0  0
 19  1  1  0  0  0  0
 20 25  1  0  0  0  0
 21 20  2  0  0  0  0
 21 19  1  0  0  0  0
 22 21  1  0  0  0  0
 23 22  1  0  0  0  0
 23 24  2  0  0  0  0
 24 20  1  0  0  0  0
 26 25  1  0  0  0  0
 26 27  1  0  0  0  0
 28 27  1  0  0  0  0
M  END
>  <MODEL>
7

>  <REMARK>
 VINA RESULT:      -6.8      4.594      8.474
  Name = 
  8 active torsions:
  status: ('A' for Active; 'I' for Inactive)
    1  A    between atoms: C_1  and  C_13
    2  A    between atoms: C_2  and  O_26
    3  A    between atoms: C_3  and  N_16
    4  A    between atoms: C_5  and  N_16
    5  A    between atoms: C_12  and  O_25
    6  A    between atoms: C_13  and  O_25
    7  A    between atoms: N_22  and  C_27
    8  A    between atoms: C_23  and  O_26
                            x       y       z     vdW  Elec       q    Type
                         _______ _______ _______ _____ _____    ______ ____

>  <TORSDO>
F 8

$$$$
=
 OpenBabel11042421023D

 28 30  0  0  1  0  0  0  0  0999 V2000
  160.3000  210.1780  154.3240 C   0  0  0  0  0  0  0  0  0  0  0  0
  160.8790  210.2520  155.5290 C   0  0  0  0  0  3  0  0  0  0  0  0
  161.5730  209.0990  156.1090 C   0  0  0  0  0  0  0  0  0  0  0  0
  161.5810  207.8250  155.3890 C   0  0  0  0  0  3  0  0  0  0  0  0
  162.1410  209.1990  157.2280 O   0  0  0  0  0  0  0  0  0  0  0  0
  160.4000  208.9230  153.4800 C   0  0  2  0  0  3  0  0  0  0  0  0
  161.0250  207.7370  154.1810 C   0  0  0  0  0  3  0  0  0  0  0  0
  160.9270  206.0790  150.3320 C   0  0  0  0  0  0  0  0  0  0  0  0
  161.3110  208.2600  151.2100 C   0  0  0  0  0  0  0  0  0  0  0  0
  162.2040  207.6810  149.0480 C   0  0  0  0  0  0  0  0  0  0  0  0
  161.6520  206.4060  149.1760 C   0  0  0  0  0  2  0  0  0  0  0  0
  162.9030  208.0100  147.9370 F   0  0  0  0  0  0  0  0  0  0  0  0
  160.7750  207.0120  151.3110 N   0  0  0  0  0  0  0  0  0  0  0  0
  162.0340  208.6160  150.0700 C   0  0  0  0  0  3  0  0  0  0  0  0
  161.1340  209.2170  152.2560 N   0  0  0  0  0  0  0  0  0  0  0  0
  160.3600  204.8130  150.5070 O   0  0  0  0  0  0  0  0  0  0  0  0
  161.1160  203.3060  152.0670 O   0  0  0  0  0  0  0  0  0  0  0  0
  161.1070  203.6950  150.8700 C   0  0  0  0  0  3  0  0  0  0  0  0
  159.6210  211.3070  153.7560 N   0  0  0  0  0  2  0  0  0  0  0  0
  157.7410  212.9300  153.5040 C   0  0  0  0  0  0  0  0  0  0  0  0
  158.3340  211.8360  154.1120 C   0  0  0  0  0  0  0  0  0  0  0  0
  157.2520  211.2120  155.2350 S   0  0  0  0  0  0  0  0  0  0  0  0
  156.0190  212.3310  154.9730 C   0  0  0  0  0  3  0  0  0  0  0  0
  156.4530  213.2080  153.9790 C   0  0  0  0  0  3  0  0  0  0  0  0
  158.3860  213.7200  152.4160 C   0  0  0  0  0  2  0  0  0  0  0  0
  157.4370  214.0460  151.4460 O   0  0  0  0  0  0  0  0  0  0  0  0
  157.8320  213.3280  150.3190 C   0  0  0  0  0  2  0  0  0  0  0  0
  156.7200  213.3440  149.2930 C   0  0  0  0  0  1  0  0  0  0  0  0
  1  2  2  0  0  0  0
  2  3  1  0  0  0  0
  3  5  2  0  0  0  0
  4  3  1  0  0  0  0
  6 15  1  6  0  0  0
  6  7  1  0  0  0  0
  6  1  1  0  0  0  0
  7  4  2  0  0  0  0
  8 16  1  0  0  0  0
  8 13  2  0  0  0  0
  9 13  1  0  0  0  0
  9 15  2  0  0  0  0
 10 11  1  0  0  0  0
 10 14  2  0  0  0  0
 11  8  1  0  0  0  0
 12 10  1  0  0  0  0
 14  9  1  0  0  0  0
 16 18  1  0  0  0  0
 18 17  2  0  0  0  0
 19 21  1  0  0  0  0
 19  1  1  0  0  0  0
 20 24  1  0  0  0  0
 20 21  2  0  0  0  0
 21 22  1  0  0  0  0
 23 22  1  0  0  0  0
 24 23  2  0  0  0  0
 25 20  1  0  0  0  0
 26 25  1  0  0  0  0
 27 26  1  0  0  0  0
 28 27  1  0  0  0  0
M  END
>  <MODEL>
8

>  <REMARK>
 VINA RESULT:      -6.8      3.565      6.052
  Name = 
  8 active torsions:
  status: ('A' for Active; 'I' for Inactive)
    1  A    between atoms: C_1  and  C_13
    2  A    between atoms: C_2  and  O_26
    3  A    between atoms: C_3  and  N_16
    4  A    between atoms: C_5  and  N_16
    5  A    between atoms: C_12  and  O_25
    6  A    between atoms: C_13  and  O_25
    7  A    between atoms: N_22  and  C_27
    8  A    between atoms: C_23  and  O_26
                            x       y       z     vdW  Elec       q    Type
                         _______ _______ _______ _____ _____    ______ ____

>  <TORSDO>
F 8

$$$$
=
 OpenBabel11042421023D

 28 30  0  0  1  0  0  0  0  0999 V2000
  162.0960  210.4740  149.6020 C   0  0  0  0  0  0  0  0  0  0  0  0
  161.9330  209.5860  148.6140 C   0  0  0  0  0  3  0  0  0  0  0  0
  161.7050  208.1660  148.9010 C   0  0  0  0  0  0  0  0  0  0  0  0
  161.7180  207.7000  150.2880 C   0  0  0  0  0  3  0  0  0  0  0  0
  161.5200  207.3520  147.9600 O   0  0  0  0  0  0  0  0  0  0  0  0
  161.9800  210.0640  151.0560 C   0  0  2  0  0  3  0  0  0  0  0  0
  161.8620  208.5730  151.2850 C   0  0  0  0  0  3  0  0  0  0  0  0
  161.7280  210.8820  155.2440 C   0  0  0  0  0  0  0  0  0  0  0  0
  160.7670  211.0150  153.0680 C   0  0  0  0  0  0  0  0  0  0  0  0
  159.5700  211.9310  154.9470 C   0  0  0  0  0  0  0  0  0  0  0  0
  160.6110  211.5360  155.7880 C   0  0  0  0  0  3  0  0  0  0  0  0
  158.4890  212.5660  155.4580 F   0  0  0  0  0  0  0  0  0  0  0  0
  161.7760  210.6430  153.9060 N   0  0  0  0  0  0  0  0  0  0  0  0
  159.6460  211.6710  153.5790 C   0  0  0  0  0  2  0  0  0  0  0  0
  160.8490  210.7490  151.6670 N   0  0  0  0  0  0  0  0  0  0  0  0
  162.7930  210.4630  156.0470 O   0  0  0  0  0  0  0  0  0  0  0  0
  162.0510  208.4440  156.8540 O   0  0  0  0  0  0  0  0  0  0  0  0
  162.6440  209.5320  157.0730 C   0  0  0  0  0  3  0  0  0  0  0  0
  162.3180  211.8640  149.3200 N   0  0  0  0  0  2  0  0  0  0  0  0
  161.4600  213.3380  147.4990 C   0  0  0  0  0  0  0  0  0  0  0  0
  161.3900  212.8160  148.7790 C   0  0  0  0  0  0  0  0  0  0  0  0
  160.0030  213.4160  149.5130 S   0  0  0  0  0  0  0  0  0  0  0  0
  159.4790  214.3580  148.2170 C   0  0  0  0  0  3  0  0  0  0  0  0
  160.3980  214.1950  147.1810 C   0  0  0  0  0  3  0  0  0  0  0  0
  162.5360  212.9950  146.5250 C   0  0  0  0  0  2  0  0  0  0  0  0
  162.6080  213.9790  145.5370 O   0  0  0  0  0  0  0  0  0  0  0  0
  163.0530  213.3000  144.4040 C   0  0  0  0  0  2  0  0  0  0  0  0
  161.8650  212.7690  143.6320 C   0  0  0  0  0  1  0  0  0  0  0  0
  1  6  1  0  0  0  0
  2  3  1  0  0  0  0
  2  1  2  0  0  0  0
  3  4  1  0  0  0  0
  4  7  2  0  0  0  0
  5  3  2  0  0  0  0
  6  7  1  0  0  0  0
  6 15  1  6  0  0  0
  8 11  1  0  0  0  0
  8 16  1  0  0  0  0
  9 14  1  0  0  0  0
  9 13  1  0  0  0  0
 10 12  1  0  0  0  0
 10 11  2  0  0  0  0
 13  8  2  0  0  0  0
 14 10  1  0  0  0  0
 15  9  2  0  0  0  0
 16 18  1  0  0  0  0
 17 18  2  0  0  0  0
 19  1  1  0  0  0  0
 20 21  2  0  0  0  0
 21 19  1  0  0  0  0
 21 22  1  0  0  0  0
 23 22  1  0  0  0  0
 24 20  1  0  0  0  0
 24 23  2  0  0  0  0
 25 20  1  0  0  0  0
 26 25  1  0  0  0  0
 27 26  1  0  0  0  0
 28 27  1  0  0  0  0
M  END
>  <MODEL>
9

>  <REMARK>
 VINA RESULT:      -6.6      5.252      9.297
  Name = 
  8 active torsions:
  status: ('A' for Active; 'I' for Inactive)
    1  A    between atoms: C_1  and  C_13
    2  A    between atoms: C_2  and  O_26
    3  A    between atoms: C_3  and  N_16
    4  A    between atoms: C_5  and  N_16
    5  A    between atoms: C_12  and  O_25
    6  A    between atoms: C_13  and  O_25
    7  A    between atoms: N_22  and  C_27
    8  A    between atoms: C_23  and  O_26
                            x       y       z     vdW  Elec       q    Type
                         _______ _______ _______ _____ _____    ______ ____

>  <TORSDO>
F 8

$$$$
