=
 OpenBabel11052411153D

 26 29  0  0  1  0  0  0  0  0999 V2000
  161.4170  206.1890  153.6290 C   0  0  0  0  0  2  0  0  0  0  0  0
  162.9200  206.0530  151.1890 F   0  0  0  0  0  0  0  0  0  0  0  0
  160.9120  204.1050  149.1630 C   0  0  2  0  0  3  0  0  0  0  0  0
  161.6120  206.4110  150.8750 C   0  0  2  0  0  0  0  0  0  0  0  0
  161.2290  207.6210  153.1120 C   0  0  0  0  0  2  0  0  0  0  0  0
  161.2440  207.7260  151.5780 C   0  0  1  0  0  3  0  0  0  0  0  0
  162.1450  208.8670  151.1120 C   0  0  0  0  0  2  0  0  0  0  0  0
  160.6420  205.3170  151.3410 C   0  0  1  0  0  3  0  0  0  0  0  0
  161.7660  205.2700  148.6110 C   0  0  2  0  0  3  0  0  0  0  0  0
  160.9930  203.9880  150.6910 C   0  0  0  0  0  2  0  0  0  0  0  0
  162.4010  207.7210  148.8850 C   0  0  0  0  0  2  0  0  0  0  0  0
  162.0420  209.0260  149.5950 C   0  0  0  0  0  2  0  0  0  0  0  0
  161.4790  206.5900  149.3560 C   0  0  2  0  0  3  0  0  0  0  0  0
  160.5450  205.1830  152.8700 C   0  0  0  0  0  2  0  0  0  0  0  0
  160.2030  206.0810  145.2380 C   0  0  0  0  0  3  0  0  0  0  0  0
  162.3740  205.1890  144.8740 C   0  0  0  0  0  3  0  0  0  0  0  0
  161.5550  205.4320  147.1300 C   0  0  0  0  0  0  0  0  0  0  0  0
  161.2050  205.6990  144.4010 N   0  0  0  0  0  0  0  0  0  0  0  0
  160.3600  205.9540  146.6200 C   0  0  0  0  0  3  0  0  0  0  0  0
  162.5700  205.0460  146.2500 C   0  0  0  0  0  3  0  0  0  0  0  0
  161.2560  202.7710  148.4830 C   0  0  1  0  0  3  0  0  0  0  0  0
  161.3700  201.6270  149.4860 C   0  0  0  0  0  2  0  0  0  0  0  0
  160.0720  201.0070  149.6800 N   0  0  0  0  0  1  0  0  0  0  0  0
  160.3040  202.4660  147.5060 O   0  0  0  0  0  0  0  0  0  0  0  0
  160.5440  202.1830  145.2590 O   0  0  0  0  0  1  0  0  0  0  0  0
  161.0130  201.7920  146.5110 C   0  0  0  0  0  2  0  0  0  0  0  0
  3 21  1  6  0  0  0
  3 10  1  0  0  0  0
  4  2  1  1  0  0  0
  4  8  1  0  0  0  0
  4  6  1  0  0  0  0
  5  1  1  0  0  0  0
  6  7  1  1  0  0  0
  6  5  1  0  0  0  0
  8 10  1  6  0  0  0
  8 14  1  0  0  0  0
  9 17  1  6  0  0  0
  9  3  1  0  0  0  0
  9 13  1  0  0  0  0
 11 12  1  0  0  0  0
 12  7  1  0  0  0  0
 13 11  1  6  0  0  0
 13  4  1  0  0  0  0
 14  1  1  0  0  0  0
 15 19  1  0  0  0  0
 16 20  2  0  0  0  0
 18 16  1  0  0  0  0
 18 15  2  0  0  0  0
 19 17  2  0  0  0  0
 20 17  1  0  0  0  0
 21 22  1  1  0  0  0
 22 23  1  0  0  0  0
 24 21  1  0  0  0  0
 25 26  1  0  0  0  0
 26 24  1  0  0  0  0
M  END
>  <MODEL>
1

>  <REMARK>
 VINA RESULT:      -8.8      0.000      0.000
  Name = 
  5 active torsions:
  status: ('A' for Active; 'I' for Inactive)
    1  A    between atoms: C_4  and  C_18
    2  A    between atoms: C_7  and  C_18
    3  A    between atoms: C_13  and  C_14
    4  A    between atoms: C_18  and  O_22
    5  A    between atoms: C_21  and  O_22
                            x       y       z     vdW  Elec       q    Type
                         _______ _______ _______ _____ _____    ______ ____

>  <TORSDO>
F 5

$$$$
=
 OpenBabel11052411153D

 26 29  0  0  1  0  0  0  0  0999 V2000
  161.7540  209.6350  151.6490 C   0  0  0  0  0  2  0  0  0  0  0  0
  160.0600  207.4250  150.9570 F   0  0  0  0  0  0  0  0  0  0  0  0
  161.8690  205.8210  148.4900 C   0  0  2  0  0  3  0  0  0  0  0  0
  161.3450  206.9370  151.1760 C   0  0  2  0  0  0  0  0  0  0  0  0
  161.9230  208.7590  152.8960 C   0  0  0  0  0  2  0  0  0  0  0  0
  161.7890  207.2540  152.6120 C   0  0  1  0  0  3  0  0  0  0  0  0
  160.8730  206.5800  153.6300 C   0  0  0  0  0  2  0  0  0  0  0  0
  162.3300  207.5940  150.2010 C   0  0  1  0  0  3  0  0  0  0  0  0
  160.9930  205.0530  149.5080 C   0  0  2  0  0  3  0  0  0  0  0  0
  161.9070  207.3300  148.7640 C   0  0  0  0  0  2  0  0  0  0  0  0
  160.4220  204.7420  151.9700 C   0  0  0  0  0  2  0  0  0  0  0  0
  160.8590  205.0690  153.3980 C   0  0  0  0  0  2  0  0  0  0  0  0
  161.3600  205.4160  150.9610 C   0  0  2  0  0  3  0  0  0  0  0  0
  162.5460  209.0950  150.4530 C   0  0  0  0  0  2  0  0  0  0  0  0
  161.2040  201.6470  147.8270 C   0  0  0  0  0  3  0  0  0  0  0  0
  161.2200  201.3340  150.1810 C   0  0  0  0  0  3  0  0  0  0  0  0
  161.0880  203.5690  149.2840 C   0  0  0  0  0  0  0  0  0  0  0  0
  161.2520  200.8340  148.9160 N   0  0  0  0  0  0  0  0  0  0  0  0
  161.1210  203.0310  147.9910 C   0  0  0  0  0  3  0  0  0  0  0  0
  161.1380  202.7140  150.3870 C   0  0  0  0  0  3  0  0  0  0  0  0
  161.4500  205.5290  147.0400 C   0  0  1  0  0  3  0  0  0  0  0  0
  160.1700  206.2620  146.6530 C   0  0  0  0  0  2  0  0  0  0  0  0
  160.0200  206.2670  145.2090 N   0  0  0  0  0  1  0  0  0  0  0  0
  162.4850  205.8610  146.1610 O   0  0  0  0  0  0  0  0  0  0  0  0
  162.5040  203.8810  145.0360 O   0  0  0  0  0  1  0  0  0  0  0  0
  163.1830  204.6700  145.9620 C   0  0  0  0  0  2  0  0  0  0  0  0
  1  5  1  0  0  0  0
  3 21  1  6  0  0  0
  3 10  1  0  0  0  0
  3  9  1  0  0  0  0
  4  2  1  6  0  0  0
  4  6  1  0  0  0  0
  6  5  1  1  0  0  0
  6  7  1  0  0  0  0
  8 10  1  6  0  0  0
  8 14  1  0  0  0  0
  8  4  1  0  0  0  0
  9 17  1  1  0  0  0
  9 13  1  0  0  0  0
 11 12  1  0  0  0  0
 12  7  1  0  0  0  0
 13  4  1  0  0  0  0
 13 11  1  1  0  0  0
 14  1  1  0  0  0  0
 15 19  2  0  0  0  0
 15 18  1  0  0  0  0
 16 20  1  0  0  0  0
 17 20  2  0  0  0  0
 18 16  2  0  0  0  0
 19 17  1  0  0  0  0
 21 22  1  6  0  0  0
 23 22  1  0  0  0  0
 24 21  1  0  0  0  0
 25 26  1  0  0  0  0
 26 24  1  0  0  0  0
M  END
>  <MODEL>
2

>  <REMARK>
 VINA RESULT:      -6.7      1.458      4.128
  Name = 
  5 active torsions:
  status: ('A' for Active; 'I' for Inactive)
    1  A    between atoms: C_4  and  C_18
    2  A    between atoms: C_7  and  C_18
    3  A    between atoms: C_13  and  C_14
    4  A    between atoms: C_18  and  O_22
    5  A    between atoms: C_21  and  O_22
                            x       y       z     vdW  Elec       q    Type
                         _______ _______ _______ _____ _____    ______ ____

>  <TORSDO>
F 5

$$$$
=
 OpenBabel11052411153D

 26 29  0  0  1  0  0  0  0  0999 V2000
  161.6700  208.4590  151.5590 C   0  0  0  0  0  2  0  0  0  0  0  0
  160.0010  206.4070  150.4470 F   0  0  0  0  0  0  0  0  0  0  0  0
  161.8400  205.3140  147.7350 C   0  0  2  0  0  3  0  0  0  0  0  0
  161.2900  205.8970  150.5800 C   0  0  2  0  0  0  0  0  0  0  0  0
  161.8400  207.3640  152.6190 C   0  0  0  0  0  2  0  0  0  0  0  0
  161.7220  205.9400  152.0540 C   0  0  1  0  0  3  0  0  0  0  0  0
  160.8060  205.0770  152.9180 C   0  0  0  0  0  2  0  0  0  0  0  0
  162.2750  206.7340  149.7550 C   0  0  1  0  0  3  0  0  0  0  0  0
  160.9650  204.3610  148.5830 C   0  0  2  0  0  3  0  0  0  0  0  0
  161.8620  206.7450  148.2910 C   0  0  0  0  0  2  0  0  0  0  0  0
  160.3830  203.5830  150.9370 C   0  0  0  0  0  2  0  0  0  0  0  0
  160.8070  203.6380  152.4040 C   0  0  0  0  0  2  0  0  0  0  0  0
  161.3200  204.4450  150.0810 C   0  0  2  0  0  3  0  0  0  0  0  0
  162.4750  208.1630  150.2880 C   0  0  0  0  0  2  0  0  0  0  0  0
  161.5640  200.6070  148.4240 C   0  0  0  0  0  3  0  0  0  0  0  0
  160.9000  201.3620  146.2730 C   0  0  0  0  0  3  0  0  0  0  0  0
  161.0770  202.9470  148.0820 C   0  0  0  0  0  0  0  0  0  0  0  0
  161.2800  200.3650  147.1160 N   0  0  0  0  0  0  0  0  0  0  0  0
  161.4680  201.9040  148.9320 C   0  0  0  0  0  3  0  0  0  0  0  0
  160.7910  202.6730  146.7420 C   0  0  0  0  0  3  0  0  0  0  0  0
  161.4330  205.2990  146.2540 C   0  0  1  0  0  3  0  0  0  0  0  0
  160.2650  206.2370  145.9690 C   0  0  0  0  0  2  0  0  0  0  0  0
  159.4030  205.6610  144.9530 N   0  0  0  0  0  1  0  0  0  0  0  0
  162.5270  205.6280  145.4480 O   0  0  0  0  0  0  0  0  0  0  0  0
  164.2790  204.4320  146.2780 O   0  0  0  0  0  1  0  0  0  0  0  0
  163.2560  204.4430  145.3320 C   0  0  0  0  0  2  0  0  0  0  0  0
  1  5  1  0  0  0  0
  3 21  1  6  0  0  0
  3 10  1  0  0  0  0
  3  9  1  0  0  0  0
  4  2  1  6  0  0  0
  4  6  1  0  0  0  0
  6  5  1  1  0  0  0
  6  7  1  0  0  0  0
  8 10  1  6  0  0  0
  8 14  1  0  0  0  0
  8  4  1  0  0  0  0
  9 17  1  6  0  0  0
  9 13  1  0  0  0  0
 11 12  1  0  0  0  0
 12  7  1  0  0  0  0
 13  4  1  0  0  0  0
 13 11  1  1  0  0  0
 14  1  1  0  0  0  0
 15 19  1  0  0  0  0
 16 20  2  0  0  0  0
 16 18  1  0  0  0  0
 17 19  2  0  0  0  0
 18 15  2  0  0  0  0
 20 17  1  0  0  0  0
 21 22  1  1  0  0  0
 23 22  1  0  0  0  0
 24 21  1  0  0  0  0
 26 24  1  0  0  0  0
 26 25  1  0  0  0  0
M  END
>  <MODEL>
3

>  <REMARK>
 VINA RESULT:      -6.5      1.705      4.102
  Name = 
  5 active torsions:
  status: ('A' for Active; 'I' for Inactive)
    1  A    between atoms: C_4  and  C_18
    2  A    between atoms: C_7  and  C_18
    3  A    between atoms: C_13  and  C_14
    4  A    between atoms: C_18  and  O_22
    5  A    between atoms: C_21  and  O_22
                            x       y       z     vdW  Elec       q    Type
                         _______ _______ _______ _____ _____    ______ ____

>  <TORSDO>
F 5

$$$$
=
 OpenBabel11052411153D

 26 29  0  0  1  0  0  0  0  0999 V2000
  161.3980  205.1520  148.0490 C   0  0  0  0  0  2  0  0  0  0  0  0
  162.6250  205.5960  150.6040 F   0  0  0  0  0  0  0  0  0  0  0  0
  160.9080  208.3410  151.8080 C   0  0  2  0  0  3  0  0  0  0  0  0
  161.2440  205.5910  150.7790 C   0  0  2  0  0  0  0  0  0  0  0  0
  160.8370  203.9600  148.8330 C   0  0  0  0  0  2  0  0  0  0  0  0
  160.6640  204.2390  150.3340 C   0  0  1  0  0  3  0  0  0  0  0  0
  161.2280  203.0980  151.1770 C   0  0  0  0  0  2  0  0  0  0  0  0
  160.6030  206.7010  149.9370 C   0  0  1  0  0  3  0  0  0  0  0  0
  161.4110  207.2060  152.7320 C   0  0  2  0  0  3  0  0  0  0  0  0
  161.1760  208.0550  150.3240 C   0  0  0  0  0  2  0  0  0  0  0  0
  161.4990  204.6900  153.1080 C   0  0  0  0  0  2  0  0  0  0  0  0
  160.9300  203.3440  152.6550 C   0  0  0  0  0  2  0  0  0  0  0  0
  160.9130  205.8250  152.2600 C   0  0  2  0  0  3  0  0  0  0  0  0
  160.7020  206.4660  148.4210 C   0  0  0  0  0  2  0  0  0  0  0  0
  159.4280  207.3320  155.9760 C   0  0  0  0  0  3  0  0  0  0  0  0
  161.5380  208.3610  156.3360 C   0  0  0  0  0  3  0  0  0  0  0  0
  161.0130  207.4630  154.1590 C   0  0  0  0  0  0  0  0  0  0  0  0
  160.3170  207.9670  156.7870 N   0  0  0  0  0  0  0  0  0  0  0  0
  159.7600  207.0680  154.6460 C   0  0  0  0  0  3  0  0  0  0  0  0
  161.9080  208.1150  155.0110 C   0  0  0  0  0  3  0  0  0  0  0  0
  161.4710  209.7090  152.2230 C   0  0  1  0  0  3  0  0  0  0  0  0
  162.5280  210.2150  151.2470 C   0  0  0  0  0  2  0  0  0  0  0  0
  161.9190  211.1030  150.2730 N   0  0  0  0  0  1  0  0  0  0  0  0
  160.4370  210.6410  152.3450 O   0  0  0  0  0  0  0  0  0  0  0  0
  159.5530  210.7480  154.4410 O   0  0  0  0  0  1  0  0  0  0  0  0
  160.5910  211.1840  153.6210 C   0  0  0  0  0  2  0  0  0  0  0  0
  1 14  1  0  0  0  0
  1  5  1  0  0  0  0
  3 21  1  1  0  0  0
  3  9  1  0  0  0  0
  4  2  1  6  0  0  0
  4 13  1  0  0  0  0
  6  5  1  6  0  0  0
  6  4  1  0  0  0  0
  6  7  1  0  0  0  0
  7 12  1  0  0  0  0
  8 14  1  6  0  0  0
  8 10  1  0  0  0  0
  8  4  1  0  0  0  0
  9 17  1  1  0  0  0
 10  3  1  0  0  0  0
 12 11  1  0  0  0  0
 13  9  1  0  0  0  0
 13 11  1  1  0  0  0
 15 18  1  0  0  0  0
 16 18  2  0  0  0  0
 17 19  1  0  0  0  0
 17 20  2  0  0  0  0
 19 15  2  0  0  0  0
 20 16  1  0  0  0  0
 21 22  1  6  0  0  0
 21 24  1  0  0  0  0
 23 22  1  0  0  0  0
 24 26  1  0  0  0  0
 26 25  1  0  0  0  0
M  END
>  <MODEL>
4

>  <REMARK>
 VINA RESULT:      -6.4      4.106      7.698
  Name = 
  5 active torsions:
  status: ('A' for Active; 'I' for Inactive)
    1  A    between atoms: C_4  and  C_18
    2  A    between atoms: C_7  and  C_18
    3  A    between atoms: C_13  and  C_14
    4  A    between atoms: C_18  and  O_22
    5  A    between atoms: C_21  and  O_22
                            x       y       z     vdW  Elec       q    Type
                         _______ _______ _______ _____ _____    ______ ____

>  <TORSDO>
F 5

$$$$
=
 OpenBabel11052411153D

 26 29  0  0  1  0  0  0  0  0999 V2000
  161.7100  204.9920  147.7880 C   0  0  0  0  0  2  0  0  0  0  0  0
  162.9610  206.3480  149.9860 F   0  0  0  0  0  0  0  0  0  0  0  0
  161.3470  209.4010  150.0170 C   0  0  2  0  0  3  0  0  0  0  0  0
  161.5820  206.4580  150.1350 C   0  0  2  0  0  0  0  0  0  0  0  0
  161.1100  204.2160  148.9670 C   0  0  0  0  0  2  0  0  0  0  0  0
  160.9520  205.0600  150.2420 C   0  0  1  0  0  3  0  0  0  0  0  0
  161.4780  204.3150  151.4660 C   0  0  0  0  0  2  0  0  0  0  0  0
  160.9770  207.1770  148.9220 C   0  0  1  0  0  3  0  0  0  0  0  0
  161.8130  208.6960  151.3120 C   0  0  2  0  0  3  0  0  0  0  0  0
  161.5990  208.5550  148.7610 C   0  0  0  0  0  2  0  0  0  0  0  0
  161.8130  206.5200  152.6330 C   0  0  0  0  0  2  0  0  0  0  0  0
  161.1950  205.1250  152.7310 C   0  0  0  0  0  2  0  0  0  0  0  0
  161.2650  207.2580  151.4060 C   0  0  2  0  0  3  0  0  0  0  0  0
  161.0620  206.3700  147.6160 C   0  0  0  0  0  2  0  0  0  0  0  0
  161.9980  210.7030  154.5390 C   0  0  0  0  0  3  0  0  0  0  0  0
  159.7210  210.5160  153.8910 C   0  0  0  0  0  3  0  0  0  0  0  0
  161.4300  209.4990  152.5250 C   0  0  0  0  0  0  0  0  0  0  0  0
  160.6790  210.9600  154.7480 N   0  0  0  0  0  0  0  0  0  0  0  0
  162.3990  209.9670  153.4220 C   0  0  0  0  0  3  0  0  0  0  0  0
  160.0810  209.7760  152.7620 C   0  0  0  0  0  3  0  0  0  0  0  0
  161.9600  210.8030  149.8750 C   0  0  1  0  0  3  0  0  0  0  0  0
  162.0840  211.2320  148.4170 C   0  0  0  0  0  2  0  0  0  0  0  0
  163.3850  211.8340  148.1860 N   0  0  0  0  0  1  0  0  0  0  0  0
  161.2060  211.7360  150.5930 O   0  0  0  0  0  0  0  0  0  0  0  0
  159.6530  213.3410  150.1480 O   0  0  0  0  0  1  0  0  0  0  0  0
  160.7380  212.6340  149.6340 C   0  0  0  0  0  2  0  0  0  0  0  0
  1  5  1  0  0  0  0
  3 21  1  6  0  0  0
  3  9  1  0  0  0  0
  4  2  1  6  0  0  0
  4  6  1  0  0  0  0
  4 13  1  0  0  0  0
  6  5  1  6  0  0  0
  6  7  1  0  0  0  0
  7 12  1  0  0  0  0
  8 14  1  6  0  0  0
  8  4  1  0  0  0  0
  9 13  1  0  0  0  0
  9 17  1  1  0  0  0
 10  8  1  0  0  0  0
 10  3  1  0  0  0  0
 11 12  1  0  0  0  0
 13 11  1  1  0  0  0
 14  1  1  0  0  0  0
 15 18  1  0  0  0  0
 16 18  2  0  0  0  0
 17 20  2  0  0  0  0
 17 19  1  0  0  0  0
 19 15  2  0  0  0  0
 20 16  1  0  0  0  0
 21 22  1  6  0  0  0
 21 24  1  0  0  0  0
 23 22  1  0  0  0  0
 26 25  1  0  0  0  0
 26 24  1  0  0  0  0
M  END
>  <MODEL>
5

>  <REMARK>
 VINA RESULT:      -6.0      4.289      7.506
  Name = 
  5 active torsions:
  status: ('A' for Active; 'I' for Inactive)
    1  A    between atoms: C_4  and  C_18
    2  A    between atoms: C_7  and  C_18
    3  A    between atoms: C_13  and  C_14
    4  A    between atoms: C_18  and  O_22
    5  A    between atoms: C_21  and  O_22
                            x       y       z     vdW  Elec       q    Type
                         _______ _______ _______ _____ _____    ______ ____

>  <TORSDO>
F 5

$$$$
