=
 OpenBabel11042422163D

 52 61  0  0  1  0  0  0  0  0999 V2000
  160.1270  208.0020  155.8810 N   0  0  0  0  0  0  0  0  0  0  0  0
  160.7970  211.1690  153.5630 C   0  0  1  0  0  3  0  0  0  0  0  0
  160.0520  209.3540  156.1030 C   0  0  0  0  0  0  0  0  0  0  0  0
  160.0270  212.2550  156.0080 C   0  0  0  0  0  0  0  0  0  0  0  0
  160.8220  208.4450  153.5350 C   0  0  0  0  0  0  0  0  0  0  0  0
  159.6710  211.5300  157.2050 C   0  0  0  0  0  3  0  0  0  0  0  0
  160.3810  211.4780  154.9070 C   0  0  0  0  0  0  0  0  0  0  0  0
  160.6060  206.1380  154.3930 C   0  0  0  0  0  3  0  0  0  0  0  0
  160.3620  210.1120  155.0660 C   0  0  1  0  0  0  0  0  0  0  0  0
  160.5100  207.5220  154.6230 C   0  0  0  0  0  0  0  0  0  0  0  0
  160.7300  209.7690  153.8180 N   0  0  0  0  0  0  0  0  0  0  0  0
  162.2040  207.8400  148.8820 C   0  0  0  0  0  2  0  0  0  0  0  0
  159.6800  210.0780  157.2610 C   0  0  0  0  0  3  0  0  0  0  0  0
  161.1970  207.9210  152.2990 C   0  0  0  0  0  0  0  0  0  0  0  0
  161.9410  210.2110  149.4350 C   0  0  0  0  0  0  0  0  0  0  0  0
  161.6840  206.2970  150.8140 C   0  0  0  0  0  0  0  0  0  0  0  0
  161.8340  207.5330  150.1900 C   0  0  0  0  0  0  0  0  0  0  0  0
  162.2580  209.1940  148.5120 C   0  0  0  0  0  3  0  0  0  0  0  0
  160.9980  205.6440  153.1350 C   0  0  0  0  0  3  0  0  0  0  0  0
  160.0030  213.7390  155.9520 C   0  0  0  0  0  1  0  0  0  0  0  0
  161.5320  208.5290  151.1030 C   0  0  0  0  0  0  0  0  0  0  0  0
  161.2850  206.5520  152.1140 C   0  0  0  0  0  0  0  0  0  0  0  0
  161.5760  209.8760  150.7550 C   0  0  0  0  0  3  0  0  0  0  0  0
  161.8860  205.0220  150.2720 O   0  0  0  0  0  0  0  0  0  0  0  0
  161.0630  205.5800  148.0710 C   0  0  0  0  0  2  0  0  0  0  0  0
  161.3270  203.4760  147.0490 C   0  0  0  0  0  2  0  0  0  0  0  0
  160.6970  204.7890  146.8970 N   0  0  2  0  0  0  0  0  0  0  0  0
  162.0640  204.7900  148.8810 C   0  0  2  0  0  3  0  0  0  0  0  0
  161.8400  203.3440  148.4700 C   0  0  1  0  0  3  0  0  0  0  0  0
  161.5120  201.8100  150.2730 F   0  0  0  0  0  0  0  0  0  0  0  0
  160.0090  203.4500  150.0090 F   0  0  0  0  0  0  0  0  0  0  0  0
  160.0540  201.7230  148.5570 F   0  0  0  0  0  0  0  0  0  0  0  0
  160.8310  202.5670  149.3350 C   0  0  0  0  0  0  0  0  0  0  0  0
  160.2830  206.3220  145.0570 C   0  0  0  0  0  2  0  0  0  0  0  0
  160.5930  204.9640  144.4740 C   0  0  0  0  0  2  0  0  0  0  0  0
  161.3010  205.4270  145.7350 C   0  0  0  0  0  3  0  0  0  0  0  0
  161.9980  211.5750  149.0080 N   0  0  0  0  0  2  0  0  0  0  0  0
  162.1510  211.9870  147.6200 C   0  0  0  0  0  2  0  0  0  0  0  0
  160.9250  212.7620  147.1690 C   0  0  1  0  0  3  0  0  0  0  0  0
  160.4730  213.7010  148.2740 C   0  0  0  0  0  2  0  0  0  0  0  0
  158.9620  213.8070  148.2860 C   0  0  0  0  0  1  0  0  0  0  0  0
  161.2610  213.5630  145.9190 C   0  0  0  0  0  2  0  0  0  0  0  0
  160.0610  213.2530  144.6360 S   0  0  0  0  0  0  0  0  0  0  0  0
  159.2640  212.0300  144.9920 O   0  0  0  0  0  0  0  0  0  0  0  0
  159.1380  214.4320  144.5070 O   0  0  0  0  0  0  0  0  0  0  0  0
  161.9840  213.8380  142.7880 C   0  0  0  0  0  2  0  0  0  0  0  0
  160.8760  212.9930  143.1310 N   0  0  0  0  0  0  0  0  0  0  0  0
  162.4340  212.3900  140.8940 C   0  0  0  0  0  3  0  0  0  0  0  0
  159.0940  212.5660  141.5100 C   0  0  0  0  0  1  0  0  0  0  0  0
  161.3470  211.6480  141.1180 C   0  0  0  0  0  3  0  0  0  0  0  0
  162.7300  213.5680  141.7200 C   0  0  0  0  0  3  0  0  0  0  0  0
  160.3410  212.0120  142.1770 C   0  0  0  0  0  0  0  0  0  0  0  0
  1  3  2  0  0  0  0
  2 11  1  0  0  0  0
  2  7  1  6  0  0  0
  2  9  1  0  0  0  0
  3 13  1  0  0  0  0
  4  6  1  0  0  0  0
  5 11  1  0  0  0  0
  5 10  1  0  0  0  0
  6 13  2  0  0  0  0
  7  4  2  0  0  0  0
  8 10  2  0  0  0  0
  9  7  1  6  0  0  0
  9  3  1  0  0  0  0
 10  1  1  0  0  0  0
 11  9  1  0  0  0  0
 12 17  1  0  0  0  0
 14  5  2  0  0  0  0
 15 23  1  0  0  0  0
 16 22  1  0  0  0  0
 17 16  2  0  0  0  0
 17 21  1  0  0  0  0
 18 12  1  0  0  0  0
 18 15  2  0  0  0  0
 19  8  1  0  0  0  0
 20  4  1  0  0  0  0
 21 14  1  0  0  0  0
 22 14  1  0  0  0  0
 22 19  2  0  0  0  0
 23 21  2  0  0  0  0
 24 16  1  0  0  0  0
 25 28  1  0  0  0  0
 26 29  1  0  0  0  0
 27 36  1  6  0  0  0
 27 26  1  0  0  0  0
 27 25  1  0  0  0  0
 28 24  1  1  0  0  0
 29 28  1  0  0  0  0
 29 33  1  1  0  0  0
 32 33  1  0  0  0  0
 33 31  1  0  0  0  0
 33 30  1  0  0  0  0
 34 36  1  0  0  0  0
 35 34  1  0  0  0  0
 35 36  1  0  0  0  0
 37 15  1  0  0  0  0
 38 37  1  0  0  0  0
 39 42  1  6  0  0  0
 39 38  1  0  0  0  0
 39 40  1  0  0  0  0
 40 41  1  0  0  0  0
 43 44  2  0  0  0  0
 43 42  1  0  0  0  0
 45 43  2  0  0  0  0
 46 47  1  0  0  0  0
 47 43  1  0  0  0  0
 48 50  1  0  0  0  0
 48 51  2  0  0  0  0
 49 52  1  0  0  0  0
 50 52  2  0  0  0  0
 51 46  1  0  0  0  0
 52 47  1  0  0  0  0
M  END
>  <MODEL>
1

>  <REMARK>
 VINA RESULT:      -8.8      0.000      0.000
  Name = 
  11 active torsions:
  status: ('A' for Active; 'I' for Inactive)
    1  A    between atoms: C_2  and  C_49
    2  A    between atoms: N_8  and  S_23
    3  A    between atoms: O_13  and  C_32
    4  A    between atoms: O_13  and  C_37
    5  A    between atoms: C_20  and  C_49
    6  A    between atoms: C_20  and  N_51
    7  A    between atoms: S_23  and  C_50
    8  A    between atoms: N_27  and  C_30
    9  A    between atoms: C_34  and  C_46
   10  A    between atoms: C_36  and  N_51
   11  A    between atoms: C_49  and  C_50
                            x       y       z     vdW  Elec       q    Type
                         _______ _______ _______ _____ _____    ______ ____

>  <TORSDO>
F 11

$$$$
=
 OpenBabel11042422163D

 52 61  0  0  1  0  0  0  0  0999 V2000
  161.3630  204.2190  146.9350 N   0  0  0  0  0  0  0  0  0  0  0  0
  161.1020  204.0810  150.9060 C   0  0  1  0  0  3  0  0  0  0  0  0
  161.1830  203.1890  147.8230 C   0  0  0  0  0  0  0  0  0  0  0  0
  160.7960  201.4330  150.1020 C   0  0  0  0  0  0  0  0  0  0  0  0
  161.4390  205.8190  148.8350 C   0  0  0  0  0  0  0  0  0  0  0  0
  160.8140  200.9300  148.7490 C   0  0  0  0  0  3  0  0  0  0  0  0
  160.9750  202.8080  150.2450 C   0  0  0  0  0  0  0  0  0  0  0  0
  161.7010  206.5890  146.5020 C   0  0  0  0  0  3  0  0  0  0  0  0
  161.1530  203.5440  149.0960 C   0  0  1  0  0  0  0  0  0  0  0  0
  161.4980  205.5300  147.4060 C   0  0  0  0  0  0  0  0  0  0  0  0
  161.2600  204.7590  149.6630 N   0  0  0  0  0  0  0  0  0  0  0  0
  161.7700  209.9300  151.4670 C   0  0  0  0  0  3  0  0  0  0  0  0
  161.0060  201.8020  147.6030 C   0  0  0  0  0  3  0  0  0  0  0  0
  161.5770  207.1410  149.2580 C   0  0  0  0  0  0  0  0  0  0  0  0
  161.3650  207.9840  152.8970 C   0  0  0  0  0  0  0  0  0  0  0  0
  161.8950  209.3590  149.0090 C   0  0  0  0  0  0  0  0  0  0  0  0
  161.7500  209.0770  150.3650 C   0  0  0  0  0  0  0  0  0  0  0  0
  161.5770  209.3690  152.7400 C   0  0  0  0  0  2  0  0  0  0  0  0
  161.8450  207.9100  146.9640 C   0  0  0  0  0  3  0  0  0  0  0  0
  160.5860  200.5400  151.2700 C   0  0  0  0  0  1  0  0  0  0  0  0
  161.5530  207.7150  150.5150 C   0  0  0  0  0  0  0  0  0  0  0  0
  161.7800  208.1550  148.3370 C   0  0  0  0  0  0  0  0  0  0  0  0
  161.3570  207.1400  151.7680 C   0  0  0  0  0  3  0  0  0  0  0  0
  162.1150  210.6000  148.3990 O   0  0  0  0  0  0  0  0  0  0  0  0
  160.3210  211.7010  147.2130 C   0  0  0  0  0  2  0  0  0  0  0  0
  160.8030  213.9230  147.8220 C   0  0  0  0  0  2  0  0  0  0  0  0
  160.0240  213.0970  146.8980 N   0  0  2  0  0  0  0  0  0  0  0  0
  161.1780  211.6690  148.4560 C   0  0  2  0  0  3  0  0  0  0  0  0
  161.8240  213.0430  148.5190 C   0  0  1  0  0  3  0  0  0  0  0  0
  163.6640  214.4510  147.9330 F   0  0  0  0  0  0  0  0  0  0  0  0
  164.1020  212.3110  148.4330 F   0  0  0  0  0  0  0  0  0  0  0  0
  163.0970  212.8250  146.4790 F   0  0  0  0  0  0  0  0  0  0  0  0
  163.1930  213.1540  147.8220 C   0  0  0  0  0  0  0  0  0  0  0  0
  157.7590  212.4160  146.3380 C   0  0  0  0  0  2  0  0  0  0  0  0
  157.9140  213.8730  145.9690 C   0  0  0  0  0  2  0  0  0  0  0  0
  158.6160  213.3230  147.1990 C   0  0  0  0  0  3  0  0  0  0  0  0
  161.1610  207.4600  154.2120 N   0  0  0  0  0  2  0  0  0  0  0  0
  159.9740  207.7190  155.0150 C   0  0  0  0  0  2  0  0  0  0  0  0
  160.2920  208.7340  156.1010 C   0  0  1  0  0  3  0  0  0  0  0  0
  161.5360  208.3060  156.8580 C   0  0  0  0  0  2  0  0  0  0  0  0
  162.4980  209.4680  156.9870 C   0  0  0  0  0  1  0  0  0  0  0  0
  160.5180  210.1000  155.4700 C   0  0  0  0  0  2  0  0  0  0  0  0
  159.1810  211.2080  155.8800 S   0  0  0  0  0  0  0  0  0  0  0  0
  157.9730  210.4010  156.2620 O   0  0  0  0  0  0  0  0  0  0  0  0
  159.5830  212.0850  157.0310 O   0  0  0  0  0  0  0  0  0  0  0  0
  159.8130  212.4020  153.5060 C   0  0  0  0  0  2  0  0  0  0  0  0
  158.8060  212.1960  154.5080 N   0  0  0  0  0  0  0  0  0  0  0  0
  158.1380  213.4810  152.1210 C   0  0  0  0  0  3  0  0  0  0  0  0
  157.5530  214.0910  155.4150 C   0  0  0  0  0  1  0  0  0  0  0  0
  157.2060  213.4060  153.0740 C   0  0  0  0  0  3  0  0  0  0  0  0
  159.5110  213.0200  152.3680 C   0  0  0  0  0  3  0  0  0  0  0  0
  157.5240  212.9110  154.4590 C   0  0  0  0  0  0  0  0  0  0  0  0
  1 10  1  0  0  0  0
  1  3  2  0  0  0  0
  2  7  1  6  0  0  0
  4  7  2  0  0  0  0
  4 20  1  0  0  0  0
  5 14  1  0  0  0  0
  5 11  1  0  0  0  0
  6  4  1  0  0  0  0
  8 19  2  0  0  0  0
  8 10  1  0  0  0  0
  9  3  1  1  0  0  0
  9 11  1  0  0  0  0
  9  7  1  0  0  0  0
  9  2  1  0  0  0  0
 10  5  2  0  0  0  0
 11  2  1  0  0  0  0
 12 18  1  0  0  0  0
 13  3  1  0  0  0  0
 13  6  2  0  0  0  0
 14 21  2  0  0  0  0
 15 37  1  0  0  0  0
 16 17  1  0  0  0  0
 17 21  1  0  0  0  0
 17 12  2  0  0  0  0
 18 15  1  0  0  0  0
 19 22  1  0  0  0  0
 21 23  1  0  0  0  0
 22 16  2  0  0  0  0
 22 14  1  0  0  0  0
 23 15  2  0  0  0  0
 24 16  1  0  0  0  0
 25 28  1  0  0  0  0
 26 29  1  0  0  0  0
 27 36  1  1  0  0  0
 27 25  1  0  0  0  0
 27 26  1  0  0  0  0
 28 24  1  6  0  0  0
 28 29  1  0  0  0  0
 29 33  1  6  0  0  0
 32 33  1  0  0  0  0
 33 30  1  0  0  0  0
 33 31  1  0  0  0  0
 34 36  1  0  0  0  0
 35 34  1  0  0  0  0
 35 36  1  0  0  0  0
 37 38  1  0  0  0  0
 39 38  1  6  0  0  0
 39 40  1  0  0  0  0
 40 41  1  0  0  0  0
 42 43  1  0  0  0  0
 42 39  1  0  0  0  0
 43 44  2  0  0  0  0
 43 45  2  0  0  0  0
 46 47  1  0  0  0  0
 47 43  1  0  0  0  0
 48 51  2  0  0  0  0
 48 50  1  0  0  0  0
 50 52  2  0  0  0  0
 51 46  1  0  0  0  0
 52 47  1  0  0  0  0
 52 49  1  0  0  0  0
M  END
>  <MODEL>
2

>  <REMARK>
 VINA RESULT:      -8.7      4.097      9.407
  Name = 
  11 active torsions:
  status: ('A' for Active; 'I' for Inactive)
    1  A    between atoms: C_2  and  C_49
    2  A    between atoms: N_8  and  S_23
    3  A    between atoms: O_13  and  C_32
    4  A    between atoms: O_13  and  C_37
    5  A    between atoms: C_20  and  C_49
    6  A    between atoms: C_20  and  N_51
    7  A    between atoms: S_23  and  C_50
    8  A    between atoms: N_27  and  C_30
    9  A    between atoms: C_34  and  C_46
   10  A    between atoms: C_36  and  N_51
   11  A    between atoms: C_49  and  C_50
                            x       y       z     vdW  Elec       q    Type
                         _______ _______ _______ _____ _____    ______ ____

>  <TORSDO>
F 11

$$$$
=
 OpenBabel11042422163D

 52 61  0  0  1  0  0  0  0  0999 V2000
  161.5960  204.8230  147.4060 N   0  0  0  0  0  0  0  0  0  0  0  0
  161.0560  204.4600  151.3340 C   0  0  1  0  0  3  0  0  0  0  0  0
  161.3550  203.7450  148.2190 C   0  0  0  0  0  0  0  0  0  0  0  0
  160.8110  201.8630  150.3610 C   0  0  0  0  0  0  0  0  0  0  0  0
  161.5360  206.3130  149.3950 C   0  0  0  0  0  0  0  0  0  0  0  0
  160.9250  201.4380  148.9860 C   0  0  0  0  0  3  0  0  0  0  0  0
  160.9770  203.2270  150.5940 C   0  0  0  0  0  0  0  0  0  0  0  0
  161.9600  207.2130  147.1340 C   0  0  0  0  0  3  0  0  0  0  0  0
  161.2350  204.0270  149.5050 C   0  0  1  0  0  0  0  0  0  0  0  0
  161.6960  206.1050  147.9590 C   0  0  0  0  0  0  0  0  0  0  0  0
  161.3010  205.2070  150.1460 N   0  0  0  0  0  0  0  0  0  0  0  0
  161.6750  210.2660  152.2740 C   0  0  0  0  0  3  0  0  0  0  0  0
  161.1960  202.3730  147.9080 C   0  0  0  0  0  3  0  0  0  0  0  0
  161.6420  207.6080  149.9010 C   0  0  0  0  0  0  0  0  0  0  0  0
  161.1730  208.2420  153.5580 C   0  0  0  0  0  0  0  0  0  0  0  0
  161.9740  209.8360  149.8020 C   0  0  0  0  0  0  0  0  0  0  0  0
  161.7340  209.4770  151.1270 C   0  0  0  0  0  0  0  0  0  0  0  0
  161.3940  209.6330  153.4960 C   0  0  0  0  0  2  0  0  0  0  0  0
  162.0710  208.5050  147.6790 C   0  0  0  0  0  3  0  0  0  0  0  0
  160.5200  200.9050  151.4580 C   0  0  0  0  0  1  0  0  0  0  0  0
  161.5290  208.1090  151.1840 C   0  0  0  0  0  0  0  0  0  0  0  0
  161.9080  208.6720  149.0560 C   0  0  0  0  0  0  0  0  0  0  0  0
  161.2450  207.4640  152.3850 C   0  0  0  0  0  3  0  0  0  0  0  0
  162.2350  211.1090  149.2820 O   0  0  0  0  0  0  0  0  0  0  0  0
  162.7320  212.2930  147.2360 C   0  0  0  0  0  2  0  0  0  0  0  0
  160.6900  213.4360  146.9820 C   0  0  0  0  0  2  0  0  0  0  0  0
  162.0750  213.3790  146.5110 N   0  0  2  0  0  0  0  0  0  0  0  0
  161.6880  211.5700  148.0530 C   0  0  2  0  0  3  0  0  0  0  0  0
  160.5640  212.5790  148.2270 C   0  0  1  0  0  3  0  0  0  0  0  0
  159.6410  214.3890  149.4850 F   0  0  0  0  0  0  0  0  0  0  0  0
  160.5130  212.6650  150.6190 F   0  0  0  0  0  0  0  0  0  0  0  0
  161.8760  214.1110  149.5520 F   0  0  0  0  0  0  0  0  0  0  0  0
  160.6580  213.4510  149.4920 C   0  0  0  0  0  0  0  0  0  0  0  0
  163.1700  213.6880  144.3630 C   0  0  0  0  0  2  0  0  0  0  0  0
  161.7660  214.2350  144.2550 C   0  0  0  0  0  2  0  0  0  0  0  0
  162.0370  213.0040  145.1030 C   0  0  0  0  0  3  0  0  0  0  0  0
  160.8770  207.6440  154.8240 N   0  0  0  0  0  2  0  0  0  0  0  0
  159.6430  207.8720  155.5610 C   0  0  0  0  0  2  0  0  0  0  0  0
  159.7970  209.0750  156.4770 C   0  0  1  0  0  3  0  0  0  0  0  0
  161.1650  209.0490  157.1350 C   0  0  0  0  0  2  0  0  0  0  0  0
  161.7800  210.4330  157.1220 C   0  0  0  0  0  1  0  0  0  0  0  0
  159.6390  210.3530  155.6680 C   0  0  0  0  0  2  0  0  0  0  0  0
  158.0070  211.0390  155.8920 S   0  0  0  0  0  0  0  0  0  0  0  0
  156.9890  209.9430  155.7490 O   0  0  0  0  0  0  0  0  0  0  0  0
  157.8950  211.6490  157.2610 O   0  0  0  0  0  0  0  0  0  0  0  0
  156.5090  213.0240  154.7640 C   0  0  0  0  0  2  0  0  0  0  0  0
  157.7190  212.2550  154.6950 N   0  0  0  0  0  0  0  0  0  0  0  0
  157.3790  214.4520  153.0060 C   0  0  0  0  0  3  0  0  0  0  0  0
  158.4290  211.2450  152.5820 C   0  0  0  0  0  1  0  0  0  0  0  0
  158.4660  213.6960  152.8380 C   0  0  0  0  0  3  0  0  0  0  0  0
  156.3290  214.0680  153.9600 C   0  0  0  0  0  3  0  0  0  0  0  0
  158.6430  212.3870  153.5600 C   0  0  0  0  0  0  0  0  0  0  0  0
  1 10  1  0  0  0  0
  1  3  2  0  0  0  0
  2  7  1  6  0  0  0
  4  7  2  0  0  0  0
  4 20  1  0  0  0  0
  5 14  1  0  0  0  0
  5 11  1  0  0  0  0
  6  4  1  0  0  0  0
  8 19  2  0  0  0  0
  8 10  1  0  0  0  0
  9  3  1  1  0  0  0
  9 11  1  0  0  0  0
  9  7  1  0  0  0  0
  9  2  1  0  0  0  0
 10  5  2  0  0  0  0
 11  2  1  0  0  0  0
 12 18  1  0  0  0  0
 13  3  1  0  0  0  0
 13  6  2  0  0  0  0
 14 21  2  0  0  0  0
 15 37  1  0  0  0  0
 16 17  1  0  0  0  0
 17 21  1  0  0  0  0
 17 12  2  0  0  0  0
 18 15  1  0  0  0  0
 19 22  1  0  0  0  0
 21 23  1  0  0  0  0
 22 16  2  0  0  0  0
 22 14  1  0  0  0  0
 23 15  2  0  0  0  0
 24 16  1  0  0  0  0
 25 28  1  0  0  0  0
 26 29  1  0  0  0  0
 27 36  1  6  0  0  0
 27 26  1  0  0  0  0
 27 25  1  0  0  0  0
 28 29  1  0  0  0  0
 28 24  1  1  0  0  0
 29 33  1  1  0  0  0
 30 33  1  0  0  0  0
 33 32  1  0  0  0  0
 33 31  1  0  0  0  0
 34 36  1  0  0  0  0
 35 34  1  0  0  0  0
 35 36  1  0  0  0  0
 37 38  1  0  0  0  0
 39 38  1  6  0  0  0
 39 40  1  0  0  0  0
 41 40  1  0  0  0  0
 42 43  1  0  0  0  0
 42 39  1  0  0  0  0
 43 45  2  0  0  0  0
 44 43  2  0  0  0  0
 47 46  1  0  0  0  0
 47 43  1  0  0  0  0
 48 51  2  0  0  0  0
 49 52  1  0  0  0  0
 50 48  1  0  0  0  0
 50 52  2  0  0  0  0
 51 46  1  0  0  0  0
 52 47  1  0  0  0  0
M  END
>  <MODEL>
3

>  <REMARK>
 VINA RESULT:      -8.3      4.023      9.346
  Name = 
  11 active torsions:
  status: ('A' for Active; 'I' for Inactive)
    1  A    between atoms: C_2  and  C_49
    2  A    between atoms: N_8  and  S_23
    3  A    between atoms: O_13  and  C_32
    4  A    between atoms: O_13  and  C_37
    5  A    between atoms: C_20  and  C_49
    6  A    between atoms: C_20  and  N_51
    7  A    between atoms: S_23  and  C_50
    8  A    between atoms: N_27  and  C_30
    9  A    between atoms: C_34  and  C_46
   10  A    between atoms: C_36  and  N_51
   11  A    between atoms: C_49  and  C_50
                            x       y       z     vdW  Elec       q    Type
                         _______ _______ _______ _____ _____    ______ ____

>  <TORSDO>
F 11

$$$$
=
 OpenBabel11042422163D

 52 61  0  0  1  0  0  0  0  0999 V2000
  159.2880  213.2830  153.9620 N   0  0  0  0  0  0  0  0  0  0  0  0
  160.6530  209.5440  153.8350 C   0  0  1  0  0  3  0  0  0  0  0  0
  159.3620  212.2840  154.9000 C   0  0  0  0  0  0  0  0  0  0  0  0
  159.7880  209.8740  156.4610 C   0  0  0  0  0  0  0  0  0  0  0  0
  160.3280  211.7650  152.2900 C   0  0  0  0  0  0  0  0  0  0  0  0
  159.1990  211.0600  157.0370 C   0  0  0  0  0  3  0  0  0  0  0  0
  160.1380  209.9590  155.1140 C   0  0  0  0  0  0  0  0  0  0  0  0
  159.6630  214.0680  151.6900 C   0  0  0  0  0  3  0  0  0  0  0  0
  159.8870  211.1490  154.4710 C   0  0  1  0  0  0  0  0  0  0  0  0
  159.7520  213.0540  152.6620 C   0  0  0  0  0  0  0  0  0  0  0  0
  160.3730  210.8180  153.2610 N   0  0  0  0  0  0  0  0  0  0  0  0
  162.2110  209.9720  148.1470 C   0  0  0  0  0  2  0  0  0  0  0  0
  158.9830  212.2700  156.2640 C   0  0  0  0  0  3  0  0  0  0  0  0
  160.7790  211.5840  150.9830 C   0  0  0  0  0  0  0  0  0  0  0  0
  162.3360  208.3370  149.9650 C   0  0  0  0  0  0  0  0  0  0  0  0
  161.1760  212.1690  148.8430 C   0  0  0  0  0  0  0  0  0  0  0  0
  161.6120  210.8610  149.0370 C   0  0  0  0  0  0  0  0  0  0  0  0
  162.5700  208.7010  148.6230 C   0  0  0  0  0  3  0  0  0  0  0  0
  160.1200  213.8470  150.3780 C   0  0  0  0  0  3  0  0  0  0  0  0
  160.0190  208.6430  157.2600 C   0  0  0  0  0  1  0  0  0  0  0  0
  161.3690  210.5050  150.3530 C   0  0  0  0  0  0  0  0  0  0  0  0
  160.6700  212.6040  150.0550 C   0  0  0  0  0  0  0  0  0  0  0  0
  161.7210  209.2510  150.8450 C   0  0  0  0  0  3  0  0  0  0  0  0
  161.2200  212.9340  147.6710 O   0  0  0  0  0  0  0  0  0  0  0  0
  161.4160  213.2760  145.2880 C   0  0  0  0  0  2  0  0  0  0  0  0
  159.2560  212.5890  144.6510 C   0  0  0  0  0  2  0  0  0  0  0  0
  160.4570  213.2860  144.1850 N   0  0  2  0  0  0  0  0  0  0  0  0
  160.8530  212.4200  146.3970 C   0  0  2  0  0  3  0  0  0  0  0  0
  159.3520  212.4070  146.1530 C   0  0  1  0  0  3  0  0  0  0  0  0
  159.4430  214.4530  147.3860 F   0  0  0  0  0  0  0  0  0  0  0  0
  157.7150  214.1470  145.9930 F   0  0  0  0  0  0  0  0  0  0  0  0
  157.8180  212.9870  147.9250 F   0  0  0  0  0  0  0  0  0  0  0  0
  158.5630  213.5120  146.8800 C   0  0  0  0  0  0  0  0  0  0  0  0
  162.5260  212.7020  143.0510 C   0  0  0  0  0  2  0  0  0  0  0  0
  161.6340  213.4140  142.0610 C   0  0  0  0  0  2  0  0  0  0  0  0
  161.0250  212.4920  143.1040 C   0  0  0  0  0  3  0  0  0  0  0  0
  162.7300  207.0360  150.4090 N   0  0  0  0  0  2  0  0  0  0  0  0
  162.4190  206.4980  151.7250 C   0  0  0  0  0  2  0  0  0  0  0  0
  161.6230  205.2100  151.5860 C   0  0  1  0  0  3  0  0  0  0  0  0
  160.7590  205.0020  152.8170 C   0  0  0  0  0  2  0  0  0  0  0  0
  161.3670  205.7110  154.0100 C   0  0  0  0  0  1  0  0  0  0  0  0
  160.7440  205.2860  150.3470 C   0  0  0  0  0  2  0  0  0  0  0  0
  160.9850  203.8480  149.3180 S   0  0  0  0  0  0  0  0  0  0  0  0
  162.1500  203.0590  149.8420 O   0  0  0  0  0  0  0  0  0  0  0  0
  159.7490  202.9930  149.3430 O   0  0  0  0  0  0  0  0  0  0  0  0
  160.8800  205.6490  147.2690 C   0  0  0  0  0  2  0  0  0  0  0  0
  161.3070  204.3460  147.6920 N   0  0  0  0  0  0  0  0  0  0  0  0
  162.1120  205.3240  145.2040 C   0  0  0  0  0  3  0  0  0  0  0  0
  160.8310  202.3780  146.3200 C   0  0  0  0  0  1  0  0  0  0  0  0
  162.4350  204.0670  145.5170 C   0  0  0  0  0  3  0  0  0  0  0  0
  161.2480  206.1250  146.0820 C   0  0  0  0  0  3  0  0  0  0  0  0
  161.8850  203.3870  146.7420 C   0  0  0  0  0  0  0  0  0  0  0  0
  1  3  2  0  0  0  0
  2  9  1  0  0  0  0
  2  7  1  1  0  0  0
  3 13  1  0  0  0  0
  4  6  1  0  0  0  0
  4 20  1  0  0  0  0
  5 10  1  0  0  0  0
  5 11  1  0  0  0  0
  7  4  2  0  0  0  0
  8 10  2  0  0  0  0
  9  3  1  6  0  0  0
  9  7  1  0  0  0  0
 10  1  1  0  0  0  0
 11  2  1  0  0  0  0
 11  9  1  0  0  0  0
 12 18  1  0  0  0  0
 12 17  1  0  0  0  0
 13  6  2  0  0  0  0
 14  5  2  0  0  0  0
 15 37  1  0  0  0  0
 15 23  1  0  0  0  0
 16 17  2  0  0  0  0
 16 22  1  0  0  0  0
 17 21  1  0  0  0  0
 18 15  2  0  0  0  0
 19  8  1  0  0  0  0
 21 23  2  0  0  0  0
 21 14  1  0  0  0  0
 22 19  2  0  0  0  0
 22 14  1  0  0  0  0
 24 16  1  0  0  0  0
 25 28  1  0  0  0  0
 26 29  1  0  0  0  0
 27 36  1  6  0  0  0
 27 26  1  0  0  0  0
 27 25  1  0  0  0  0
 28 24  1  1  0  0  0
 29 28  1  0  0  0  0
 29 33  1  1  0  0  0
 31 33  1  0  0  0  0
 33 30  1  0  0  0  0
 33 32  1  0  0  0  0
 34 36  1  0  0  0  0
 35 34  1  0  0  0  0
 35 36  1  0  0  0  0
 37 38  1  0  0  0  0
 39 42  1  6  0  0  0
 39 38  1  0  0  0  0
 39 40  1  0  0  0  0
 40 41  1  0  0  0  0
 43 45  2  0  0  0  0
 43 44  2  0  0  0  0
 43 42  1  0  0  0  0
 46 47  1  0  0  0  0
 47 43  1  0  0  0  0
 48 50  1  0  0  0  0
 48 51  2  0  0  0  0
 49 52  1  0  0  0  0
 50 52  2  0  0  0  0
 51 46  1  0  0  0  0
 52 47  1  0  0  0  0
M  END
>  <MODEL>
4

>  <REMARK>
 VINA RESULT:      -7.7      3.495      7.700
  Name = 
  11 active torsions:
  status: ('A' for Active; 'I' for Inactive)
    1  A    between atoms: C_2  and  C_49
    2  A    between atoms: N_8  and  S_23
    3  A    between atoms: O_13  and  C_32
    4  A    between atoms: O_13  and  C_37
    5  A    between atoms: C_20  and  C_49
    6  A    between atoms: C_20  and  N_51
    7  A    between atoms: S_23  and  C_50
    8  A    between atoms: N_27  and  C_30
    9  A    between atoms: C_34  and  C_46
   10  A    between atoms: C_36  and  N_51
   11  A    between atoms: C_49  and  C_50
                            x       y       z     vdW  Elec       q    Type
                         _______ _______ _______ _____ _____    ______ ____

>  <TORSDO>
F 11

$$$$
=
 OpenBabel11042422163D

 52 61  0  0  1  0  0  0  0  0999 V2000
  159.2780  213.8470  153.5270 N   0  0  0  0  0  0  0  0  0  0  0  0
  160.3740  210.0250  153.7310 C   0  0  1  0  0  3  0  0  0  0  0  0
  159.2130  212.9090  154.5270 C   0  0  0  0  0  0  0  0  0  0  0  0
  159.3500  210.5840  156.2590 C   0  0  0  0  0  0  0  0  0  0  0  0
  160.3220  212.1550  152.0340 C   0  0  0  0  0  0  0  0  0  0  0  0
  158.8100  211.8420  156.7160 C   0  0  0  0  0  3  0  0  0  0  0  0
  159.8010  210.5560  154.9400 C   0  0  0  0  0  0  0  0  0  0  0  0
  159.8700  214.4530  151.2470 C   0  0  0  0  0  3  0  0  0  0  0  0
  159.6830  211.7160  154.2090 C   0  0  1  0  0  0  0  0  0  0  0  0
  159.8160  213.5020  152.2820 C   0  0  0  0  0  0  0  0  0  0  0  0
  160.2290  211.2740  153.0610 N   0  0  0  0  0  0  0  0  0  0  0  0
  162.3600  209.9700  148.1610 C   0  0  0  0  0  2  0  0  0  0  0  0
  158.7380  213.0110  155.8560 C   0  0  0  0  0  3  0  0  0  0  0  0
  160.8510  211.8580  150.7780 C   0  0  0  0  0  0  0  0  0  0  0  0
  162.2360  208.4540  150.0790 C   0  0  0  0  0  0  0  0  0  0  0  0
  161.4400  212.2740  148.6430 C   0  0  0  0  0  0  0  0  0  0  0  0
  161.7650  210.9540  148.9480 C   0  0  0  0  0  0  0  0  0  0  0  0
  162.5910  208.7120  148.7400 C   0  0  0  0  0  3  0  0  0  0  0  0
  160.4010  214.1170  149.9890 C   0  0  0  0  0  3  0  0  0  0  0  0
  159.4340  209.3960  157.1460 C   0  0  0  0  0  1  0  0  0  0  0  0
  161.4040  210.7030  150.2610 C   0  0  0  0  0  0  0  0  0  0  0  0
  160.8810  212.8210  149.7850 C   0  0  0  0  0  0  0  0  0  0  0  0
  161.6280  209.4630  150.8540 C   0  0  0  0  0  3  0  0  0  0  0  0
  161.6220  212.9550  147.4330 O   0  0  0  0  0  0  0  0  0  0  0  0
  159.4180  212.7230  146.4710 C   0  0  0  0  0  2  0  0  0  0  0  0
  159.6750  214.1780  144.6390 C   0  0  0  0  0  2  0  0  0  0  0  0
  158.8210  213.1300  145.2010 N   0  0  2  0  0  0  0  0  0  0  0  0
  160.5730  213.6490  146.7690 C   0  0  2  0  0  3  0  0  0  0  0  0
  160.9760  214.2140  145.4170 C   0  0  1  0  0  3  0  0  0  0  0  0
  162.4670  214.1200  143.5510 F   0  0  0  0  0  0  0  0  0  0  0  0
  163.1690  213.2530  145.4940 F   0  0  0  0  0  0  0  0  0  0  0  0
  161.5990  212.1750  144.2850 F   0  0  0  0  0  0  0  0  0  0  0  0
  162.0680  213.4190  144.6750 C   0  0  0  0  0  0  0  0  0  0  0  0
  157.2240  213.5850  146.9760 C   0  0  0  0  0  2  0  0  0  0  0  0
  156.5620  212.6680  145.9740 C   0  0  0  0  0  2  0  0  0  0  0  0
  157.5310  213.7370  145.4990 C   0  0  0  0  0  3  0  0  0  0  0  0
  162.5030  207.1610  150.6290 N   0  0  0  0  0  2  0  0  0  0  0  0
  161.7200  206.5560  151.6970 C   0  0  0  0  0  2  0  0  0  0  0  0
  161.5490  205.0670  151.4380 C   0  0  1  0  0  3  0  0  0  0  0  0
  161.2020  204.3560  152.7340 C   0  0  0  0  0  2  0  0  0  0  0  0
  161.2030  205.3360  153.8880 C   0  0  0  0  0  1  0  0  0  0  0  0
  160.4410  204.8520  150.4190 C   0  0  0  0  0  2  0  0  0  0  0  0
  160.8870  203.5600  149.2730 S   0  0  0  0  0  0  0  0  0  0  0  0
  162.0850  202.8240  149.8020 O   0  0  0  0  0  0  0  0  0  0  0  0
  159.7400  202.6020  149.1160 O   0  0  0  0  0  0  0  0  0  0  0  0
  160.8070  205.5820  147.4400 C   0  0  0  0  0  2  0  0  0  0  0  0
  161.2690  204.2560  147.7340 N   0  0  0  0  0  0  0  0  0  0  0  0
  162.1550  205.5460  145.4220 C   0  0  0  0  0  3  0  0  0  0  0  0
  160.9500  202.4440  146.1210 C   0  0  0  0  0  1  0  0  0  0  0  0
  162.5170  204.2750  145.6070 C   0  0  0  0  0  3  0  0  0  0  0  0
  161.2140  206.2060  146.3380 C   0  0  0  0  0  3  0  0  0  0  0  0
  161.9360  203.4360  146.7140 C   0  0  0  0  0  0  0  0  0  0  0  0
  1  3  2  0  0  0  0
  2  9  1  0  0  0  0
  2  7  1  1  0  0  0
  3 13  1  0  0  0  0
  4  6  1  0  0  0  0
  4 20  1  0  0  0  0
  5 10  1  0  0  0  0
  5 11  1  0  0  0  0
  7  4  2  0  0  0  0
  8 10  2  0  0  0  0
  9  3  1  6  0  0  0
  9  7  1  0  0  0  0
 10  1  1  0  0  0  0
 11  2  1  0  0  0  0
 11  9  1  0  0  0  0
 12 18  1  0  0  0  0
 12 17  1  0  0  0  0
 13  6  2  0  0  0  0
 14  5  2  0  0  0  0
 15 37  1  0  0  0  0
 15 23  1  0  0  0  0
 16 17  2  0  0  0  0
 16 22  1  0  0  0  0
 17 21  1  0  0  0  0
 18 15  2  0  0  0  0
 19  8  1  0  0  0  0
 21 14  1  0  0  0  0
 21 23  2  0  0  0  0
 22 19  2  0  0  0  0
 22 14  1  0  0  0  0
 24 16  1  0  0  0  0
 25 28  1  0  0  0  0
 26 27  1  0  0  0  0
 26 29  1  0  0  0  0
 27 36  1  1  0  0  0
 27 25  1  0  0  0  0
 28 24  1  6  0  0  0
 29 33  1  6  0  0  0
 29 28  1  0  0  0  0
 30 33  1  0  0  0  0
 32 33  1  0  0  0  0
 33 31  1  0  0  0  0
 35 34  1  0  0  0  0
 36 35  1  0  0  0  0
 36 34  1  0  0  0  0
 37 38  1  0  0  0  0
 39 42  1  6  0  0  0
 39 38  1  0  0  0  0
 39 40  1  0  0  0  0
 40 41  1  0  0  0  0
 43 44  2  0  0  0  0
 43 42  1  0  0  0  0
 45 43  2  0  0  0  0
 46 47  1  0  0  0  0
 47 43  1  0  0  0  0
 48 50  1  0  0  0  0
 48 51  2  0  0  0  0
 49 52  1  0  0  0  0
 50 52  2  0  0  0  0
 51 46  1  0  0  0  0
 52 47  1  0  0  0  0
M  END
>  <MODEL>
5

>  <REMARK>
 VINA RESULT:      -6.8      3.711      7.968
  Name = 
  11 active torsions:
  status: ('A' for Active; 'I' for Inactive)
    1  A    between atoms: C_2  and  C_49
    2  A    between atoms: N_8  and  S_23
    3  A    between atoms: O_13  and  C_32
    4  A    between atoms: O_13  and  C_37
    5  A    between atoms: C_20  and  C_49
    6  A    between atoms: C_20  and  N_51
    7  A    between atoms: S_23  and  C_50
    8  A    between atoms: N_27  and  C_30
    9  A    between atoms: C_34  and  C_46
   10  A    between atoms: C_36  and  N_51
   11  A    between atoms: C_49  and  C_50
                            x       y       z     vdW  Elec       q    Type
                         _______ _______ _______ _____ _____    ______ ____

>  <TORSDO>
F 11

$$$$
=
 OpenBabel11042422163D

 52 61  0  0  1  0  0  0  0  0999 V2000
  159.4900  212.2700  154.6410 N   0  0  0  0  0  0  0  0  0  0  0  0
  160.8270  208.6160  153.7950 C   0  0  1  0  0  3  0  0  0  0  0  0
  159.5850  211.1170  155.3780 C   0  0  0  0  0  0  0  0  0  0  0  0
  160.0400  208.4620  156.4610 C   0  0  0  0  0  0  0  0  0  0  0  0
  160.4720  211.0810  152.6910 C   0  0  0  0  0  0  0  0  0  0  0  0
  159.4750  209.5240  157.2610 C   0  0  0  0  0  3  0  0  0  0  0  0
  160.3520  208.7910  155.1430 C   0  0  0  0  0  0  0  0  0  0  0  0
  159.8050  213.4560  152.5400 C   0  0  0  0  0  3  0  0  0  0  0  0
  160.0900  210.0790  154.7350 C   0  0  1  0  0  0  0  0  0  0  0  0
  159.9150  212.2820  153.3080 C   0  0  0  0  0  0  0  0  0  0  0  0
  160.5390  209.9730  153.4710 N   0  0  0  0  0  0  0  0  0  0  0  0
  162.2240  210.0730  148.2360 C   0  0  0  0  0  2  0  0  0  0  0  0
  159.2450  210.8550  156.7270 C   0  0  0  0  0  3  0  0  0  0  0  0
  160.8850  211.1410  151.3600 C   0  0  0  0  0  0  0  0  0  0  0  0
  162.3900  208.1340  149.7220 C   0  0  0  0  0  0  0  0  0  0  0  0
  161.2230  212.1070  149.3520 C   0  0  0  0  0  0  0  0  0  0  0  0
  161.6560  210.7850  149.2910 C   0  0  0  0  0  0  0  0  0  0  0  0
  162.5880  208.7360  148.4620 C   0  0  0  0  0  3  0  0  0  0  0  0
  160.2220  213.4780  151.1970 C   0  0  0  0  0  3  0  0  0  0  0  0
  160.2860  207.1060  157.0150 C   0  0  0  0  0  1  0  0  0  0  0  0
  161.4490  210.1950  150.5260 C   0  0  0  0  0  0  0  0  0  0  0  0
  160.7540  212.3140  150.6370 C   0  0  0  0  0  0  0  0  0  0  0  0
  161.8070  208.8720  150.7710 C   0  0  0  0  0  3  0  0  0  0  0  0
  161.2380  213.0720  148.3380 O   0  0  0  0  0  0  0  0  0  0  0  0
  162.1300  213.8320  146.2250 C   0  0  0  0  0  2  0  0  0  0  0  0
  160.4180  213.0470  144.8130 C   0  0  0  0  0  2  0  0  0  0  0  0
  161.5830  213.9310  144.8730 N   0  0  2  0  0  0  0  0  0  0  0  0
  161.3790  212.7470  146.9600 C   0  0  2  0  0  3  0  0  0  0  0  0
  160.0560  212.6240  146.2240 C   0  0  1  0  0  3  0  0  0  0  0  0
  158.4690  214.3540  145.7780 F   0  0  0  0  0  0  0  0  0  0  0  0
  157.8580  212.7100  147.1710 F   0  0  0  0  0  0  0  0  0  0  0  0
  159.3490  214.2610  147.8500 F   0  0  0  0  0  0  0  0  0  0  0  0
  158.9170  213.5030  146.7730 C   0  0  0  0  0  0  0  0  0  0  0  0
  163.7560  214.3480  143.8670 C   0  0  0  0  0  2  0  0  0  0  0  0
  162.7260  214.3200  142.7620 C   0  0  0  0  0  2  0  0  0  0  0  0
  162.5810  213.3940  143.9580 C   0  0  0  0  0  3  0  0  0  0  0  0
  162.7890  206.7730  149.9090 N   0  0  0  0  0  2  0  0  0  0  0  0
  161.9800  205.7770  150.5970 C   0  0  0  0  0  2  0  0  0  0  0  0
  161.3870  204.8030  149.5920 C   0  0  1  0  0  3  0  0  0  0  0  0
  160.6940  203.6670  150.3240 C   0  0  0  0  0  2  0  0  0  0  0  0
  160.3160  204.0990  151.7250 C   0  0  0  0  0  1  0  0  0  0  0  0
  160.3880  205.5310  148.7070 C   0  0  0  0  0  2  0  0  0  0  0  0
  161.0240  205.6950  147.0480 S   0  0  0  0  0  0  0  0  0  0  0  0
  160.2640  206.7770  146.3350 O   0  0  0  0  0  0  0  0  0  0  0  0
  162.4820  206.0560  147.0950 O   0  0  0  0  0  0  0  0  0  0  0  0
  161.4110  203.0080  146.7550 C   0  0  0  0  0  2  0  0  0  0  0  0
  160.8290  204.1970  146.2020 N   0  0  0  0  0  0  0  0  0  0  0  0
  160.2440  201.7150  145.0650 C   0  0  0  0  0  3  0  0  0  0  0  0
  161.1540  204.7550  143.8420 C   0  0  0  0  0  1  0  0  0  0  0  0
  159.7760  202.8080  144.4580 C   0  0  0  0  0  3  0  0  0  0  0  0
  161.1480  201.8190  146.2190 C   0  0  0  0  0  3  0  0  0  0  0  0
  160.1960  204.1910  144.8760 C   0  0  0  0  0  0  0  0  0  0  0  0
  1  3  2  0  0  0  0
  2  9  1  0  0  0  0
  2  7  1  1  0  0  0
  3 13  1  0  0  0  0
  4 20  1  0  0  0  0
  4  6  1  0  0  0  0
  5 10  1  0  0  0  0
  5 11  1  0  0  0  0
  7  4  2  0  0  0  0
  8 10  2  0  0  0  0
  9  7  1  1  0  0  0
  9  3  1  0  0  0  0
 10  1  1  0  0  0  0
 11  2  1  0  0  0  0
 11  9  1  0  0  0  0
 12 18  1  0  0  0  0
 12 17  1  0  0  0  0
 13  6  2  0  0  0  0
 14  5  2  0  0  0  0
 15 37  1  0  0  0  0
 15 23  1  0  0  0  0
 16 22  1  0  0  0  0
 17 16  2  0  0  0  0
 17 21  1  0  0  0  0
 18 15  2  0  0  0  0
 19  8  1  0  0  0  0
 21 23  2  0  0  0  0
 21 14  1  0  0  0  0
 22 19  2  0  0  0  0
 22 14  1  0  0  0  0
 24 16  1  0  0  0  0
 25 28  1  0  0  0  0
 26 27  1  0  0  0  0
 26 29  1  0  0  0  0
 27 36  1  6  0  0  0
 27 25  1  0  0  0  0
 28 24  1  1  0  0  0
 29 33  1  1  0  0  0
 29 28  1  0  0  0  0
 30 33  1  0  0  0  0
 33 31  1  0  0  0  0
 33 32  1  0  0  0  0
 34 36  1  0  0  0  0
 35 34  1  0  0  0  0
 35 36  1  0  0  0  0
 37 38  1  0  0  0  0
 39 42  1  6  0  0  0
 39 40  1  0  0  0  0
 39 38  1  0  0  0  0
 40 41  1  0  0  0  0
 43 45  2  0  0  0  0
 43 42  1  0  0  0  0
 44 43  2  0  0  0  0
 47 46  1  0  0  0  0
 47 43  1  0  0  0  0
 48 51  2  0  0  0  0
 49 52  1  0  0  0  0
 50 52  2  0  0  0  0
 50 48  1  0  0  0  0
 51 46  1  0  0  0  0
 52 47  1  0  0  0  0
M  END
>  <MODEL>
6

>  <REMARK>
 VINA RESULT:      -6.5      3.459      7.633
  Name = 
  11 active torsions:
  status: ('A' for Active; 'I' for Inactive)
    1  A    between atoms: C_2  and  C_49
    2  A    between atoms: N_8  and  S_23
    3  A    between atoms: O_13  and  C_32
    4  A    between atoms: O_13  and  C_37
    5  A    between atoms: C_20  and  C_49
    6  A    between atoms: C_20  and  N_51
    7  A    between atoms: S_23  and  C_50
    8  A    between atoms: N_27  and  C_30
    9  A    between atoms: C_34  and  C_46
   10  A    between atoms: C_36  and  N_51
   11  A    between atoms: C_49  and  C_50
                            x       y       z     vdW  Elec       q    Type
                         _______ _______ _______ _____ _____    ______ ____

>  <TORSDO>
F 11

$$$$
