=
 OpenBabel11042420343D

 49 55  0  0  1  0  0  0  0  0999 V2000
  161.6850  205.3570  145.6790 O   0  0  0  0  0  0  0  0  0  0  0  0
  160.6890  206.9380  147.8390 C   0  0  2  0  0  3  0  0  0  0  0  0
  161.0020  211.7170  152.3030 C   0  0  0  0  0  1  0  0  0  0  0  0
  160.1820  205.9910  152.7180 C   0  0  0  0  0  2  0  0  0  0  0  0
  160.9100  203.7540  151.8300 C   0  0  0  0  0  0  0  0  0  0  0  0
  161.0520  206.5110  153.8660 C   0  0  1  0  0  3  0  0  0  0  0  0
  161.8020  207.8590  147.3540 C   0  0  0  0  0  2  0  0  0  0  0  0
  161.5100  210.8790  151.4050 C   0  0  0  0  0  0  0  0  0  0  0  0
  162.2470  203.4640  146.9940 C   0  0  0  0  0  2  0  0  0  0  0  0
  162.1560  209.5860  151.8410 C   0  0  0  0  0  0  0  0  0  0  0  0
  161.9560  210.4010  149.0640 N   0  0  0  0  0  0  0  0  0  0  0  0
  161.1650  205.5560  147.9670 N   0  0  0  0  0  0  0  0  0  0  0  0
  161.9990  207.6150  153.3890 C   0  0  0  0  0  2  0  0  0  0  0  0
  159.4970  207.0240  146.8990 C   0  0  0  0  0  1  0  0  0  0  0  0
  161.0890  202.9740  150.7510 C   0  0  0  0  0  0  0  0  0  0  0  0
  161.5270  211.2610  150.0600 O   0  0  0  0  0  0  0  0  0  0  0  0
  161.0460  205.2480  151.7070 C   0  0  1  0  0  3  0  0  0  0  0  0
  161.6520  201.5390  148.2250 O   0  0  0  0  0  0  0  0  0  0  0  0
  161.7090  202.7970  148.2150 C   0  0  0  0  0  0  0  0  0  0  0  0
  160.7510  205.6890  150.3820 O   0  0  0  0  0  0  0  0  0  0  0  0
  162.5150  208.7060  150.6740 C   0  0  0  0  0  3  0  0  0  0  0  0
  161.3050  203.5940  149.4020 C   0  0  0  0  0  0  0  0  0  0  0  0
  161.2520  208.8050  152.7910 C   0  0  0  0  0  2  0  0  0  0  0  0
  162.4060  209.0740  149.3990 C   0  0  0  0  0  0  0  0  0  0  0  0
  160.6800  203.1840  153.0800 O   0  0  0  0  0  1  0  0  0  0  0  0
  161.6700  204.8300  146.8250 C   0  0  0  0  0  0  0  0  0  0  0  0
  161.0890  204.9210  149.2590 C   0  0  0  0  0  0  0  0  0  0  0  0
  162.7040  208.1320  148.4150 O   0  0  0  0  0  0  0  0  0  0  0  0
  159.6490  214.4520  146.2350 C   0  0  0  0  0  3  0  0  0  0  0  0
  163.0050  213.1780  147.3220 C   0  0  0  0  0  3  0  0  0  0  0  0
  161.0600  211.8600  147.3220 C   0  0  0  0  0  0  0  0  0  0  0  0
  158.6080  212.2580  146.9070 C   0  0  0  0  0  3  0  0  0  0  0  0
  158.5490  213.5180  146.4820 C   0  0  0  0  0  3  0  0  0  0  0  0
  163.4140  211.7390  147.6290 C   0  0  0  0  0  3  0  0  0  0  0  0
  161.5700  213.1670  147.0980 N   0  0  0  0  0  0  0  0  0  0  0  0
  159.7930  211.4670  147.2470 C   0  0  0  0  0  3  0  0  0  0  0  0
  160.9460  214.3090  146.5000 C   0  0  0  0  0  3  0  0  0  0  0  0
  162.1340  210.9070  147.7020 C   0  0  1  0  0  3  0  0  0  0  0  0
  159.7060  200.9310  150.5000 C   0  0  0  0  0  1  0  0  0  0  0  0
  161.0560  201.4850  150.9240 C   0  0  0  0  0  2  0  0  0  0  0  0
  160.2610  206.9250  155.0770 C   0  0  0  0  0  0  0  0  0  0  0  0
  160.2640  206.1770  156.0910 O   0  0  0  0  0  0  0  0  0  0  0  0
  160.9320  209.3700  156.6090 C   0  0  0  0  0  3  0  0  0  0  0  0
  159.4950  208.1420  155.0690 N   0  0  0  0  0  0  0  0  0  0  0  0
  159.7910  209.2590  155.6720 C   0  0  0  0  0  0  0  0  0  0  0  0
  161.1860  210.5170  157.2390 C   0  0  0  0  0  3  0  0  0  0  0  0
  158.8250  210.4020  155.5620 C   0  0  0  0  0  2  0  0  0  0  0  0
  160.3880  211.6760  156.9800 N   0  0  0  0  0  2  0  0  0  0  0  0
  159.5200  211.7440  155.8030 C   0  0  0  0  0  2  0  0  0  0  0  0
  1 26  2  0  0  0  0
  2 14  1  6  0  0  0
  2 12  1  0  0  0  0
  4  6  1  0  0  0  0
  5 25  1  0  0  0  0
  6 41  1  1  0  0  0
  7  2  1  0  0  0  0
  7 28  1  0  0  0  0
  8 10  2  0  0  0  0
  8  3  1  0  0  0  0
  9 19  1  0  0  0  0
 10 23  1  0  0  0  0
 11 24  1  0  0  0  0
 11 16  1  0  0  0  0
 12 27  1  0  0  0  0
 13  6  1  0  0  0  0
 15 40  1  0  0  0  0
 15  5  2  0  0  0  0
 16  8  1  0  0  0  0
 17  5  1  0  0  0  0
 17  4  1  1  0  0  0
 19 18  2  0  0  0  0
 19 22  1  0  0  0  0
 20 17  1  0  0  0  0
 21 10  1  0  0  0  0
 22 15  1  0  0  0  0
 23 13  1  0  0  0  0
 24 21  2  0  0  0  0
 26  9  1  0  0  0  0
 26 12  1  0  0  0  0
 27 22  2  0  0  0  0
 27 20  1  0  0  0  0
 28 24  1  0  0  0  0
 29 33  1  0  0  0  0
 29 37  2  0  0  0  0
 30 34  2  0  0  0  0
 31 38  1  0  0  0  0
 32 36  1  0  0  0  0
 33 32  2  0  0  0  0
 35 31  1  0  0  0  0
 35 30  1  0  0  0  0
 36 31  2  0  0  0  0
 37 35  1  0  0  0  0
 38 34  1  1  0  0  0
 38 11  1  0  0  0  0
 39 40  1  0  0  0  0
 41 42  2  0  0  0  0
 43 46  2  0  0  0  0
 44 41  1  0  0  0  0
 44 45  2  0  0  0  0
 45 43  1  0  0  0  0
 47 45  1  0  0  0  0
 47 49  1  0  0  0  0
 48 46  1  0  0  0  0
 49 48  1  0  0  0  0
M  END
>  <MODEL>
1

>  <REMARK>
 VINA RESULT:      -0.7      0.000      0.000
  Name = 
  4 active torsions:
  status: ('A' for Active; 'I' for Inactive)
    1  A    between atoms: C_4  and  C_13
    2  A    between atoms: C_4  and  N_16
    3  A    between atoms: C_10  and  C_25
    4  A    between atoms: N_20  and  C_44
                            x       y       z     vdW  Elec       q    Type
                         _______ _______ _______ _____ _____    ______ ____

>  <TORSDO>
F 4

$$$$
