=
 OpenBabel11042420133D

 25 28  0  0  0  0  0  0  0  0999 V2000
  160.2560  209.1610  154.1850 C   0  0  0  0  0  0  0  0  0  0  0  0
  161.8560  211.0880  151.1050 C   0  0  0  0  0  2  0  0  0  0  0  0
  160.1640  209.0270  155.5360 C   0  0  0  0  0  0  0  0  0  0  0  0
  162.4800  209.9650  151.9310 C   0  0  0  0  0  2  0  0  0  0  0  0
  159.0210  211.2060  154.3750 C   0  0  0  0  0  0  0  0  0  0  0  0
  159.6790  210.2640  153.5500 C   0  0  0  0  0  0  0  0  0  0  0  0
  159.7650  210.4360  152.1690 O   0  0  0  0  0  0  0  0  0  0  0  0
  162.2820  208.2260  150.1570 C   0  0  0  0  0  3  0  0  0  0  0  0
  161.2060  207.7880  152.2940 C   0  0  0  0  0  0  0  0  0  0  0  0
  158.9680  211.0050  155.7300 N   0  0  0  0  0  0  0  0  0  0  0  0
  161.2420  207.2910  154.7100 C   0  0  0  0  0  3  0  0  0  0  0  0
  161.0880  206.1490  150.4900 C   0  0  0  0  0  0  0  0  0  0  0  0
  160.4930  211.5330  151.6330 C   0  0  0  0  0  2  0  0  0  0  0  0
  160.7840  206.5450  151.7990 C   0  0  0  0  0  3  0  0  0  0  0  0
  160.9080  207.2850  157.2610 C   0  0  0  0  0  1  0  0  0  0  0  0
  160.7800  207.8570  155.8930 C   0  0  0  0  0  0  0  0  0  0  0  0
  160.9320  208.1070  153.6680 N   0  0  0  0  0  0  0  0  0  0  0  0
  161.8410  206.9930  149.6740 C   0  0  0  0  0  3  0  0  0  0  0  0
  159.5270  209.9360  156.3090 N   0  0  0  0  0  0  0  0  0  0  0  0
  158.3560  212.4050  153.7960 C   0  0  0  0  0  1  0  0  0  0  0  0
  161.9700  208.6370  151.4610 C   0  0  0  0  0  0  0  0  0  0  0  0
  160.6510  204.8890  149.9770 N   0  0  0  0  0  2  0  0  0  0  0  0
  161.0870  204.3650  148.6900 C   0  0  0  0  0  2  0  0  0  0  0  0
  160.7000  202.3370  150.0820 C   0  0  0  0  0  1  0  0  0  0  0  0
  160.9870  202.8510  148.6840 C   0  0  0  0  0  2  0  0  0  0  0  0
  1  3  1  0  0  0  0
  2 13  1  0  0  0  0
  2  4  1  0  0  0  0
  3 16  1  0  0  0  0
  3 19  2  0  0  0  0
  5 10  2  0  0  0  0
  6  1  2  0  0  0  0
  6  5  1  0  0  0  0
  7  6  1  0  0  0  0
  8 21  1  0  0  0  0
  9 17  1  0  0  0  0
 10 19  1  0  0  0  0
 11 16  2  0  0  0  0
 12 14  2  0  0  0  0
 13  7  1  0  0  0  0
 14  9  1  0  0  0  0
 16 15  1  0  0  0  0
 17  1  1  0  0  0  0
 17 11  1  0  0  0  0
 18  8  2  0  0  0  0
 18 12  1  0  0  0  0
 20  5  1  0  0  0  0
 21  4  1  0  0  0  0
 21  9  2  0  0  0  0
 22 12  1  0  0  0  0
 23 22  1  0  0  0  0
 25 23  1  0  0  0  0
 25 24  1  0  0  0  0
M  END
>  <MODEL>
1

>  <REMARK>
 VINA RESULT:      -6.5      0.000      0.000
  Name = 
  3 active torsions:
  status: ('A' for Active; 'I' for Inactive)
    1  A    between atoms: C_13  and  N_21
    2  A    between atoms: C_15  and  C_20
    3  A    between atoms: C_15  and  N_21
                            x       y       z     vdW  Elec       q    Type
                         _______ _______ _______ _____ _____    ______ ____

>  <TORSDO>
F 3

$$$$
=
 OpenBabel11042420133D

 25 28  0  0  0  0  0  0  0  0999 V2000
  160.3300  210.8610  154.1290 C   0  0  0  0  0  0  0  0  0  0  0  0
  161.1820  207.3960  155.8690 C   0  0  0  0  0  2  0  0  0  0  0  0
  159.5400  211.9690  154.0970 C   0  0  0  0  0  0  0  0  0  0  0  0
  160.0920  207.6810  154.8370 C   0  0  0  0  0  2  0  0  0  0  0  0
  161.3240  211.7150  156.1360 C   0  0  0  0  0  0  0  0  0  0  0  0
  161.2620  210.6950  155.1580 C   0  0  0  0  0  0  0  0  0  0  0  0
  162.0780  209.5660  155.2240 O   0  0  0  0  0  0  0  0  0  0  0  0
  161.2270  206.4990  152.9600 C   0  0  0  0  0  3  0  0  0  0  0  0
  160.6800  208.8480  152.6490 C   0  0  0  0  0  0  0  0  0  0  0  0
  160.4960  212.8030  156.0390 N   0  0  0  0  0  0  0  0  0  0  0  0
  159.0910  210.7110  152.3430 C   0  0  0  0  0  3  0  0  0  0  0  0
  161.7790  207.5880  150.8720 C   0  0  0  0  0  0  0  0  0  0  0  0
  161.9380  208.6510  156.3030 C   0  0  0  0  0  2  0  0  0  0  0  0
  161.2200  208.7790  151.3570 C   0  0  0  0  0  3  0  0  0  0  0  0
  157.7440  212.8950  152.5230 C   0  0  0  0  0  1  0  0  0  0  0  0
  158.7480  211.8970  152.9820 C   0  0  0  0  0  0  0  0  0  0  0  0
  160.0500  210.0720  153.0650 N   0  0  0  0  0  0  0  0  0  0  0  0
  161.7760  206.4500  151.6770 C   0  0  0  0  0  3  0  0  0  0  0  0
  159.6160  212.9370  155.0390 N   0  0  0  0  0  0  0  0  0  0  0  0
  162.2960  211.6440  157.2610 C   0  0  0  0  0  1  0  0  0  0  0  0
  160.6800  207.6890  153.4590 C   0  0  0  0  0  0  0  0  0  0  0  0
  162.3420  207.5150  149.5610 N   0  0  0  0  0  2  0  0  0  0  0  0
  161.5350  207.3290  148.3630 C   0  0  0  0  0  2  0  0  0  0  0  0
  161.2070  204.8610  148.3510 C   0  0  0  0  0  1  0  0  0  0  0  0
  160.5400  206.2040  148.5760 C   0  0  0  0  0  2  0  0  0  0  0  0
  1  6  1  0  0  0  0
  2 13  1  0  0  0  0
  3  1  2  0  0  0  0
  3 19  1  0  0  0  0
  4  2  1  0  0  0  0
  5 20  1  0  0  0  0
  6  7  1  0  0  0  0
  6  5  2  0  0  0  0
  7 13  1  0  0  0  0
  8 21  1  0  0  0  0
  9 17  1  0  0  0  0
  9 21  2  0  0  0  0
 10  5  1  0  0  0  0
 11 16  2  0  0  0  0
 11 17  1  0  0  0  0
 12 14  2  0  0  0  0
 12 18  1  0  0  0  0
 14  9  1  0  0  0  0
 15 16  1  0  0  0  0
 16  3  1  0  0  0  0
 17  1  1  0  0  0  0
 18  8  2  0  0  0  0
 19 10  2  0  0  0  0
 21  4  1  0  0  0  0
 22 12  1  0  0  0  0
 23 25  1  0  0  0  0
 23 22  1  0  0  0  0
 24 25  1  0  0  0  0
M  END
>  <MODEL>
2

>  <REMARK>
 VINA RESULT:      -6.1      1.923      3.839
  Name = 
  3 active torsions:
  status: ('A' for Active; 'I' for Inactive)
    1  A    between atoms: C_13  and  N_21
    2  A    between atoms: C_15  and  C_20
    3  A    between atoms: C_15  and  N_21
                            x       y       z     vdW  Elec       q    Type
                         _______ _______ _______ _____ _____    ______ ____

>  <TORSDO>
F 3

$$$$
=
 OpenBabel11042420133D

 25 28  0  0  0  0  0  0  0  0999 V2000
  161.2710  209.3030  152.3400 C   0  0  0  0  0  0  0  0  0  0  0  0
  161.9710  209.3840  156.2470 C   0  0  0  0  0  2  0  0  0  0  0  0
  161.7630  209.1030  151.0870 C   0  0  0  0  0  0  0  0  0  0  0  0
  162.2610  210.4790  155.2220 C   0  0  0  0  0  2  0  0  0  0  0  0
  161.4530  206.9420  152.7100 C   0  0  0  0  0  0  0  0  0  0  0  0
  161.0930  208.2180  153.2030 C   0  0  0  0  0  0  0  0  0  0  0  0
  160.6010  208.3900  154.4970 O   0  0  0  0  0  0  0  0  0  0  0  0
  160.4390  212.0030  155.9760 C   0  0  0  0  0  3  0  0  0  0  0  0
  160.4200  211.2810  153.6530 C   0  0  0  0  0  0  0  0  0  0  0  0
  161.9440  206.8170  151.4370 N   0  0  0  0  0  0  0  0  0  0  0  0
  161.3220  211.2460  151.3570 C   0  0  0  0  0  3  0  0  0  0  0  0
  158.6920  212.7840  154.4970 C   0  0  0  0  0  0  0  0  0  0  0  0
  161.4290  208.1030  155.6160 C   0  0  0  0  0  2  0  0  0  0  0  0
  159.2690  212.0560  153.4480 C   0  0  0  0  0  3  0  0  0  0  0  0
  162.2540  210.5820  149.0540 C   0  0  0  0  0  1  0  0  0  0  0  0
  161.8080  210.3140  150.4480 C   0  0  0  0  0  0  0  0  0  0  0  0
  161.0120  210.6190  152.5230 N   0  0  0  0  0  0  0  0  0  0  0  0
  159.2840  212.7550  155.7590 C   0  0  0  0  0  3  0  0  0  0  0  0
  162.0980  207.8750  150.6310 N   0  0  0  0  0  0  0  0  0  0  0  0
  161.2840  205.7190  153.5420 C   0  0  0  0  0  1  0  0  0  0  0  0
  161.0150  211.2590  154.9360 C   0  0  0  0  0  0  0  0  0  0  0  0
  157.5120  213.5640  154.2960 N   0  0  0  0  0  2  0  0  0  0  0  0
  156.1830  212.9780  154.1930 C   0  0  0  0  0  2  0  0  0  0  0  0
  155.6420  210.6830  154.9920 C   0  0  0  0  0  1  0  0  0  0  0  0
  155.9000  212.1180  155.4100 C   0  0  0  0  0  2  0  0  0  0  0  0
  1 17  1  0  0  0  0
  1  6  1  0  0  0  0
  3  1  2  0  0  0  0
  4  2  1  0  0  0  0
  5  6  2  0  0  0  0
  5 20  1  0  0  0  0
  6  7  1  0  0  0  0
  7 13  1  0  0  0  0
  9 21  1  0  0  0  0
 10  5  1  0  0  0  0
 11 17  1  0  0  0  0
 12 18  2  0  0  0  0
 13  2  1  0  0  0  0
 14  9  2  0  0  0  0
 14 12  1  0  0  0  0
 15 16  1  0  0  0  0
 16  3  1  0  0  0  0
 16 11  2  0  0  0  0
 17  9  1  0  0  0  0
 18  8  1  0  0  0  0
 19  3  1  0  0  0  0
 19 10  2  0  0  0  0
 21  4  1  0  0  0  0
 21  8  2  0  0  0  0
 22 12  1  0  0  0  0
 23 22  1  0  0  0  0
 23 25  1  0  0  0  0
 24 25  1  0  0  0  0
M  END
>  <MODEL>
3

>  <REMARK>
 VINA RESULT:      -6.0      2.581      6.941
  Name = 
  3 active torsions:
  status: ('A' for Active; 'I' for Inactive)
    1  A    between atoms: C_13  and  N_21
    2  A    between atoms: C_15  and  C_20
    3  A    between atoms: C_15  and  N_21
                            x       y       z     vdW  Elec       q    Type
                         _______ _______ _______ _____ _____    ______ ____

>  <TORSDO>
F 3

$$$$
=
 OpenBabel11042420133D

 25 28  0  0  0  0  0  0  0  0999 V2000
  161.1170  208.9280  152.1670 C   0  0  0  0  0  0  0  0  0  0  0  0
  161.3070  208.3380  156.0880 C   0  0  0  0  0  2  0  0  0  0  0  0
  161.7840  209.0220  150.9840 C   0  0  0  0  0  0  0  0  0  0  0  0
  161.5790  209.6320  155.3230 C   0  0  0  0  0  2  0  0  0  0  0  0
  161.5550  206.5720  152.1440 C   0  0  0  0  0  0  0  0  0  0  0  0
  160.9740  207.6870  152.7930 C   0  0  0  0  0  0  0  0  0  0  0  0
  160.3060  207.5580  154.0100 O   0  0  0  0  0  0  0  0  0  0  0  0
  159.4960  210.7870  156.0560 C   0  0  0  0  0  3  0  0  0  0  0  0
  159.8610  210.5220  153.6650 C   0  0  0  0  0  0  0  0  0  0  0  0
  162.2130  206.7430  150.9540 N   0  0  0  0  0  0  0  0  0  0  0  0
  161.0410  211.0170  151.5550 C   0  0  0  0  0  3  0  0  0  0  0  0
  157.8620  211.6490  154.4940 C   0  0  0  0  0  0  0  0  0  0  0  0
  161.0180  207.1510  155.1720 C   0  0  0  0  0  2  0  0  0  0  0  0
  158.6540  211.1980  153.4310 C   0  0  0  0  0  3  0  0  0  0  0  0
  162.3310  210.9030  149.3340 C   0  0  0  0  0  1  0  0  0  0  0  0
  161.7520  210.3310  150.5790 C   0  0  0  0  0  0  0  0  0  0  0  0
  160.6700  210.1520  152.5360 N   0  0  0  0  0  0  0  0  0  0  0  0
  158.2900  211.4430  155.8060 C   0  0  0  0  0  3  0  0  0  0  0  0
  162.3290  207.9450  150.3750 N   0  0  0  0  0  0  0  0  0  0  0  0
  161.4410  205.2020  152.7160 C   0  0  0  0  0  1  0  0  0  0  0  0
  160.2880  210.3180  154.9980 C   0  0  0  0  0  0  0  0  0  0  0  0
  156.6260  212.3270  154.2610 N   0  0  0  0  0  2  0  0  0  0  0  0
  156.4760  213.7690  154.4040 C   0  0  0  0  0  2  0  0  0  0  0  0
  156.8910  214.3940  152.0300 C   0  0  0  0  0  1  0  0  0  0  0  0
  155.8640  214.3540  153.1450 C   0  0  0  0  0  2  0  0  0  0  0  0
  1 17  1  0  0  0  0
  1  6  1  0  0  0  0
  3  1  2  0  0  0  0
  4  2  1  0  0  0  0
  5 20  1  0  0  0  0
  5  6  2  0  0  0  0
  6  7  1  0  0  0  0
  7 13  1  0  0  0  0
  9 21  1  0  0  0  0
 10  5  1  0  0  0  0
 11 17  1  0  0  0  0
 12 18  2  0  0  0  0
 13  2  1  0  0  0  0
 14  9  2  0  0  0  0
 14 12  1  0  0  0  0
 15 16  1  0  0  0  0
 16  3  1  0  0  0  0
 16 11  2  0  0  0  0
 17  9  1  0  0  0  0
 18  8  1  0  0  0  0
 19 10  2  0  0  0  0
 19  3  1  0  0  0  0
 21  4  1  0  0  0  0
 21  8  2  0  0  0  0
 22 23  1  0  0  0  0
 22 12  1  0  0  0  0
 24 25  1  0  0  0  0
 25 23  1  0  0  0  0
M  END
>  <MODEL>
4

>  <REMARK>
 VINA RESULT:      -5.9      2.277      7.131
  Name = 
  3 active torsions:
  status: ('A' for Active; 'I' for Inactive)
    1  A    between atoms: C_13  and  N_21
    2  A    between atoms: C_15  and  C_20
    3  A    between atoms: C_15  and  N_21
                            x       y       z     vdW  Elec       q    Type
                         _______ _______ _______ _____ _____    ______ ____

>  <TORSDO>
F 3

$$$$
=
 OpenBabel11042420133D

 25 28  0  0  0  0  0  0  0  0999 V2000
  161.2350  204.4360  148.6830 C   0  0  0  0  0  0  0  0  0  0  0  0
  161.8980  203.1800  152.3900 C   0  0  0  0  0  2  0  0  0  0  0  0
  161.5470  204.3370  147.3620 C   0  0  0  0  0  0  0  0  0  0  0  0
  162.7060  204.2010  151.5900 C   0  0  0  0  0  2  0  0  0  0  0  0
  160.1770  202.2920  148.5190 C   0  0  0  0  0  0  0  0  0  0  0  0
  160.5290  203.4080  149.3140 C   0  0  0  0  0  0  0  0  0  0  0  0
  160.2030  203.4730  150.6680 O   0  0  0  0  0  0  0  0  0  0  0  0
  161.9340  206.1850  152.8850 C   0  0  0  0  0  3  0  0  0  0  0  0
  161.5330  206.1750  150.4850 C   0  0  0  0  0  0  0  0  0  0  0  0
  160.5260  202.2620  147.1940 N   0  0  0  0  0  0  0  0  0  0  0  0
  162.2760  206.2690  148.1340 C   0  0  0  0  0  3  0  0  0  0  0  0
  160.8310  208.0730  151.8490 C   0  0  0  0  0  0  0  0  0  0  0  0
  160.7710  202.5430  151.5810 C   0  0  0  0  0  2  0  0  0  0  0  0
  160.9450  207.4430  150.6030 C   0  0  0  0  0  3  0  0  0  0  0  0
  162.7200  205.8280  145.6400 C   0  0  0  0  0  1  0  0  0  0  0  0
  162.2060  205.4800  146.9920 C   0  0  0  0  0  0  0  0  0  0  0  0
  161.6930  205.6120  149.1730 N   0  0  0  0  0  0  0  0  0  0  0  0
  161.3300  207.4390  152.9870 C   0  0  0  0  0  3  0  0  0  0  0  0
  161.1990  203.2640  146.6160 N   0  0  0  0  0  0  0  0  0  0  0  0
  159.4060  201.1530  149.0890 C   0  0  0  0  0  1  0  0  0  0  0  0
  162.0380  205.5400  151.6440 C   0  0  0  0  0  0  0  0  0  0  0  0
  160.2210  209.3590  151.9760 N   0  0  0  0  0  2  0  0  0  0  0  0
  160.9770  210.5650  152.2850 C   0  0  0  0  0  2  0  0  0  0  0  0
  161.5890  210.7040  154.6940 C   0  0  0  0  0  1  0  0  0  0  0  0
  160.5690  211.1010  153.6440 C   0  0  0  0  0  2  0  0  0  0  0  0
  1 17  1  0  0  0  0
  1  6  1  0  0  0  0
  3  1  2  0  0  0  0
  4 21  1  0  0  0  0
  4  2  1  0  0  0  0
  5 20  1  0  0  0  0
  5  6  2  0  0  0  0
  6  7  1  0  0  0  0
  7 13  1  0  0  0  0
  8 18  1  0  0  0  0
  9 14  2  0  0  0  0
  9 21  1  0  0  0  0
 10  5  1  0  0  0  0
 11 17  1  0  0  0  0
 12 22  1  0  0  0  0
 12 18  2  0  0  0  0
 13  2  1  0  0  0  0
 14 12  1  0  0  0  0
 15 16  1  0  0  0  0
 16  3  1  0  0  0  0
 16 11  2  0  0  0  0
 17  9  1  0  0  0  0
 19 10  2  0  0  0  0
 19  3  1  0  0  0  0
 21  8  2  0  0  0  0
 22 23  1  0  0  0  0
 23 25  1  0  0  0  0
 25 24  1  0  0  0  0
M  END
>  <MODEL>
5

>  <REMARK>
 VINA RESULT:      -5.4      2.572      8.010
  Name = 
  3 active torsions:
  status: ('A' for Active; 'I' for Inactive)
    1  A    between atoms: C_13  and  N_21
    2  A    between atoms: C_15  and  C_20
    3  A    between atoms: C_15  and  N_21
                            x       y       z     vdW  Elec       q    Type
                         _______ _______ _______ _____ _____    ______ ____

>  <TORSDO>
F 3

$$$$
=
 OpenBabel11042420133D

 25 28  0  0  0  0  0  0  0  0999 V2000
  160.7490  210.0600  153.9030 C   0  0  0  0  0  0  0  0  0  0  0  0
  161.9900  211.0440  150.2630 C   0  0  0  0  0  2  0  0  0  0  0  0
  160.8300  210.2780  155.2440 C   0  0  0  0  0  0  0  0  0  0  0  0
  162.6830  210.1290  151.2720 C   0  0  0  0  0  2  0  0  0  0  0  0
  159.6100  212.1580  153.7030 C   0  0  0  0  0  0  0  0  0  0  0  0
  160.1270  211.0000  153.0770 C   0  0  0  0  0  0  0  0  0  0  0  0
  160.0380  210.8110  151.6980 O   0  0  0  0  0  0  0  0  0  0  0  0
  162.2060  208.0140  150.0430 C   0  0  0  0  0  3  0  0  0  0  0  0
  161.4040  208.1970  152.3330 C   0  0  0  0  0  0  0  0  0  0  0  0
  159.7280  212.3110  155.0590 N   0  0  0  0  0  0  0  0  0  0  0  0
  161.7410  208.3260  154.7740 C   0  0  0  0  0  3  0  0  0  0  0  0
  161.0050  206.1660  151.0410 C   0  0  0  0  0  0  0  0  0  0  0  0
  160.7220  211.6900  150.8150 C   0  0  0  0  0  2  0  0  0  0  0  0
  160.8860  206.8980  152.2300 C   0  0  0  0  0  3  0  0  0  0  0  0
  161.7410  208.9860  157.2600 C   0  0  0  0  0  1  0  0  0  0  0  0
  161.4530  209.2000  155.8160 C   0  0  0  0  0  0  0  0  0  0  0  0
  161.3220  208.8700  153.6000 N   0  0  0  0  0  0  0  0  0  0  0  0
  161.6700  206.7290  149.9510 C   0  0  0  0  0  3  0  0  0  0  0  0
  160.3260  211.3900  155.8260 N   0  0  0  0  0  0  0  0  0  0  0  0
  158.9100  213.2110  152.9160 C   0  0  0  0  0  1  0  0  0  0  0  0
  162.0780  208.7600  151.2240 C   0  0  0  0  0  0  0  0  0  0  0  0
  160.4680  204.8470  150.9260 N   0  0  0  0  0  2  0  0  0  0  0  0
  161.2560  203.7090  150.4720 C   0  0  0  0  0  2  0  0  0  0  0  0
  161.0060  202.1040  148.5850 C   0  0  0  0  0  1  0  0  0  0  0  0
  160.3520  202.6750  149.8290 C   0  0  0  0  0  2  0  0  0  0  0  0
  1  3  1  0  0  0  0
  2 13  1  0  0  0  0
  2  4  1  0  0  0  0
  3 16  1  0  0  0  0
  3 19  2  0  0  0  0
  5 10  2  0  0  0  0
  6  5  1  0  0  0  0
  6  1  2  0  0  0  0
  7  6  1  0  0  0  0
  8 21  1  0  0  0  0
  9 17  1  0  0  0  0
 10 19  1  0  0  0  0
 11 16  2  0  0  0  0
 12 14  2  0  0  0  0
 13  7  1  0  0  0  0
 14  9  1  0  0  0  0
 16 15  1  0  0  0  0
 17  1  1  0  0  0  0
 17 11  1  0  0  0  0
 18  8  2  0  0  0  0
 18 12  1  0  0  0  0
 20  5  1  0  0  0  0
 21  4  1  0  0  0  0
 21  9  2  0  0  0  0
 22 12  1  0  0  0  0
 23 22  1  0  0  0  0
 24 25  1  0  0  0  0
 25 23  1  0  0  0  0
M  END
>  <MODEL>
6

>  <REMARK>
 VINA RESULT:      -5.4      1.080      1.158
  Name = 
  3 active torsions:
  status: ('A' for Active; 'I' for Inactive)
    1  A    between atoms: C_13  and  N_21
    2  A    between atoms: C_15  and  C_20
    3  A    between atoms: C_15  and  N_21
                            x       y       z     vdW  Elec       q    Type
                         _______ _______ _______ _____ _____    ______ ____

>  <TORSDO>
F 3

$$$$
=
 OpenBabel11042420133D

 25 28  0  0  0  0  0  0  0  0999 V2000
  161.5820  205.0160  148.6050 C   0  0  0  0  0  0  0  0  0  0  0  0
  162.3320  206.0090  152.3740 C   0  0  0  0  0  2  0  0  0  0  0  0
  161.8230  204.1670  147.5690 C   0  0  0  0  0  0  0  0  0  0  0  0
  163.1700  206.3320  151.1380 C   0  0  0  0  0  2  0  0  0  0  0  0
  160.3710  203.2480  149.6780 C   0  0  0  0  0  0  0  0  0  0  0  0
  160.8370  204.5840  149.7060 C   0  0  0  0  0  0  0  0  0  0  0  0
  160.5810  205.4250  150.7870 O   0  0  0  0  0  0  0  0  0  0  0  0
  162.5990  208.7580  151.0890 C   0  0  0  0  0  3  0  0  0  0  0  0
  162.0850  207.4350  149.1130 C   0  0  0  0  0  0  0  0  0  0  0  0
  160.6540  202.4500  148.6010 N   0  0  0  0  0  0  0  0  0  0  0  0
  162.7190  206.1300  147.1180 C   0  0  0  0  0  3  0  0  0  0  0  0
  161.5810  209.8220  149.1710 C   0  0  0  0  0  0  0  0  0  0  0  0
  161.1260  205.1260  152.0650 C   0  0  0  0  0  2  0  0  0  0  0  0
  161.5920  208.5940  148.4960 C   0  0  0  0  0  3  0  0  0  0  0  0
  163.0120  204.3290  145.3060 C   0  0  0  0  0  1  0  0  0  0  0  0
  162.5410  204.8450  146.6190 C   0  0  0  0  0  0  0  0  0  0  0  0
  162.1430  206.2210  148.3460 N   0  0  0  0  0  0  0  0  0  0  0  0
  162.0900  209.8980  150.4670 C   0  0  0  0  0  3  0  0  0  0  0  0
  161.3660  202.8940  147.5580 N   0  0  0  0  0  0  0  0  0  0  0  0
  159.5510  202.6960  150.7910 C   0  0  0  0  0  1  0  0  0  0  0  0
  162.5990  207.5210  150.4280 C   0  0  0  0  0  0  0  0  0  0  0  0
  161.0690  211.0040  148.5510 N   0  0  0  0  0  2  0  0  0  0  0  0
  161.6200  212.3290  148.7980 C   0  0  0  0  0  2  0  0  0  0  0  0
  162.3610  213.2960  146.6260 C   0  0  0  0  0  1  0  0  0  0  0  0
  162.8070  212.5760  147.8850 C   0  0  0  0  0  2  0  0  0  0  0  0
  1  6  1  0  0  0  0
  3  1  2  0  0  0  0
  4  2  1  0  0  0  0
  5  6  2  0  0  0  0
  5 20  1  0  0  0  0
  6  7  1  0  0  0  0
  7 13  1  0  0  0  0
  9 21  1  0  0  0  0
 10  5  1  0  0  0  0
 11 17  1  0  0  0  0
 12 18  2  0  0  0  0
 13  2  1  0  0  0  0
 14  9  2  0  0  0  0
 14 12  1  0  0  0  0
 15 16  1  0  0  0  0
 16 11  2  0  0  0  0
 16  3  1  0  0  0  0
 17  1  1  0  0  0  0
 17  9  1  0  0  0  0
 18  8  1  0  0  0  0
 19  3  1  0  0  0  0
 19 10  2  0  0  0  0
 21  8  2  0  0  0  0
 21  4  1  0  0  0  0
 22 23  1  0  0  0  0
 22 12  1  0  0  0  0
 24 25  1  0  0  0  0
 25 23  1  0  0  0  0
M  END
>  <MODEL>
7

>  <REMARK>
 VINA RESULT:      -5.1      3.893      7.717
  Name = 
  3 active torsions:
  status: ('A' for Active; 'I' for Inactive)
    1  A    between atoms: C_13  and  N_21
    2  A    between atoms: C_15  and  C_20
    3  A    between atoms: C_15  and  N_21
                            x       y       z     vdW  Elec       q    Type
                         _______ _______ _______ _____ _____    ______ ____

>  <TORSDO>
F 3

$$$$
=
 OpenBabel11042420133D

 25 28  0  0  0  0  0  0  0  0999 V2000
  161.2980  208.9870  150.9750 C   0  0  0  0  0  0  0  0  0  0  0  0
  161.5390  207.4160  154.6130 C   0  0  0  0  0  2  0  0  0  0  0  0
  161.9330  209.3000  149.8130 C   0  0  0  0  0  0  0  0  0  0  0  0
  161.9430  208.8230  154.1730 C   0  0  0  0  0  2  0  0  0  0  0  0
  161.4440  206.6780  150.3490 C   0  0  0  0  0  0  0  0  0  0  0  0
  161.0250  207.6510  151.2860 C   0  0  0  0  0  0  0  0  0  0  0  0
  160.3850  207.2970  152.4730 O   0  0  0  0  0  0  0  0  0  0  0  0
  160.0410  209.9790  155.2920 C   0  0  0  0  0  3  0  0  0  0  0  0
  160.2940  210.2830  152.8920 C   0  0  0  0  0  0  0  0  0  0  0  0
  162.0790  207.0680  149.1990 N   0  0  0  0  0  0  0  0  0  0  0  0
  161.4570  211.1580  150.9000 C   0  0  0  0  0  3  0  0  0  0  0  0
  158.4750  211.3800  154.0930 C   0  0  0  0  0  0  0  0  0  0  0  0
  161.0780  206.5360  153.4530 C   0  0  0  0  0  2  0  0  0  0  0  0
  159.1720  211.1250  152.9050 C   0  0  0  0  0  3  0  0  0  0  0  0
  162.6530  211.4620  148.6430 C   0  0  0  0  0  1  0  0  0  0  0  0
  162.0480  210.6630  149.7430 C   0  0  0  0  0  0  0  0  0  0  0  0
  161.0160  210.1200  151.6600 N   0  0  0  0  0  0  0  0  0  0  0  0
  158.9160  210.8060  155.2850 C   0  0  0  0  0  3  0  0  0  0  0  0
  162.3230  208.3560  148.9270 N   0  0  0  0  0  0  0  0  0  0  0  0
  161.1820  205.2300  150.5740 C   0  0  0  0  0  1  0  0  0  0  0  0
  160.7360  209.7060  154.1050 C   0  0  0  0  0  0  0  0  0  0  0  0
  157.3240  212.2270  154.1090 N   0  0  0  0  0  2  0  0  0  0  0  0
  156.0590  211.8300  154.7110 C   0  0  0  0  0  2  0  0  0  0  0  0
  156.2880  212.6730  157.0420 C   0  0  0  0  0  1  0  0  0  0  0  0
  155.6030  212.8810  155.7050 C   0  0  0  0  0  2  0  0  0  0  0  0
  1  6  1  0  0  0  0
  1 17  1  0  0  0  0
  3  1  2  0  0  0  0
  4  2  1  0  0  0  0
  5 20  1  0  0  0  0
  5  6  2  0  0  0  0
  6  7  1  0  0  0  0
  7 13  1  0  0  0  0
  9 14  2  0  0  0  0
  9 21  1  0  0  0  0
 10  5  1  0  0  0  0
 11 17  1  0  0  0  0
 12 22  1  0  0  0  0
 12 18  2  0  0  0  0
 13  2  1  0  0  0  0
 14 12  1  0  0  0  0
 15 16  1  0  0  0  0
 16  3  1  0  0  0  0
 16 11  2  0  0  0  0
 17  9  1  0  0  0  0
 18  8  1  0  0  0  0
 19 10  2  0  0  0  0
 19  3  1  0  0  0  0
 21  4  1  0  0  0  0
 21  8  2  0  0  0  0
 22 23  1  0  0  0  0
 23 25  1  0  0  0  0
 25 24  1  0  0  0  0
M  END
>  <MODEL>
8

>  <REMARK>
 VINA RESULT:      -5.0      2.053      7.179
  Name = 
  3 active torsions:
  status: ('A' for Active; 'I' for Inactive)
    1  A    between atoms: C_13  and  N_21
    2  A    between atoms: C_15  and  C_20
    3  A    between atoms: C_15  and  N_21
                            x       y       z     vdW  Elec       q    Type
                         _______ _______ _______ _____ _____    ______ ____

>  <TORSDO>
F 3

$$$$
=
 OpenBabel11042420133D

 25 28  0  0  0  0  0  0  0  0999 V2000
  159.3480  211.0930  139.7160 C   0  0  0  0  0  0  0  0  0  0  0  0
  163.2900  211.5570  139.7890 C   0  0  0  0  0  2  0  0  0  0  0  0
  158.1930  211.1820  139.0030 C   0  0  0  0  0  0  0  0  0  0  0  0
  162.2190  212.6320  139.9630 C   0  0  0  0  0  2  0  0  0  0  0  0
  159.9460  209.1990  138.3750 C   0  0  0  0  0  0  0  0  0  0  0  0
  160.2730  210.0860  139.4270 C   0  0  0  0  0  0  0  0  0  0  0  0
  161.4710  209.9750  140.1320 O   0  0  0  0  0  0  0  0  0  0  0  0
  162.5930  212.9470  142.4070 C   0  0  0  0  0  3  0  0  0  0  0  0
  160.3600  212.3160  141.6770 C   0  0  0  0  0  0  0  0  0  0  0  0
  158.7630  209.3500  137.7000 N   0  0  0  0  0  0  0  0  0  0  0  0
  158.2130  212.7580  140.5440 C   0  0  0  0  0  3  0  0  0  0  0  0
  160.8350  212.6640  144.0450 C   0  0  0  0  0  0  0  0  0  0  0  0
  162.7100  210.1820  139.4650 C   0  0  0  0  0  2  0  0  0  0  0  0
  159.9380  212.3530  143.0140 C   0  0  0  0  0  3  0  0  0  0  0  0
  156.1180  212.6850  139.0530 C   0  0  0  0  0  1  0  0  0  0  0  0
  157.4600  212.2260  139.5040 C   0  0  0  0  0  0  0  0  0  0  0  0
  159.3790  212.0680  140.6550 N   0  0  0  0  0  0  0  0  0  0  0  0
  162.1610  212.9630  143.7340 C   0  0  0  0  0  3  0  0  0  0  0  0
  157.8940  210.3220  138.0020 N   0  0  0  0  0  0  0  0  0  0  0  0
  160.8530  208.0790  138.0020 C   0  0  0  0  0  1  0  0  0  0  0  0
  161.7060  212.6220  141.3700 C   0  0  0  0  0  0  0  0  0  0  0  0
  160.4140  212.6910  145.4100 N   0  0  0  0  0  2  0  0  0  0  0  0
  161.1820  213.3430  146.4620 C   0  0  0  0  0  2  0  0  0  0  0  0
  163.0810  212.5810  147.8810 C   0  0  0  0  0  1  0  0  0  0  0  0
  161.6420  212.3170  147.4810 C   0  0  0  0  0  2  0  0  0  0  0  0
  1 17  1  0  0  0  0
  2  4  1  0  0  0  0
  3 16  1  0  0  0  0
  3  1  2  0  0  0  0
  4 21  1  0  0  0  0
  5  6  2  0  0  0  0
  6  1  1  0  0  0  0
  6  7  1  0  0  0  0
  8 18  1  0  0  0  0
  9 14  2  0  0  0  0
 10 19  2  0  0  0  0
 10  5  1  0  0  0  0
 11 17  1  0  0  0  0
 12 22  1  0  0  0  0
 13  2  1  0  0  0  0
 13  7  1  0  0  0  0
 14 12  1  0  0  0  0
 15 16  1  0  0  0  0
 16 11  2  0  0  0  0
 17  9  1  0  0  0  0
 18 12  2  0  0  0  0
 19  3  1  0  0  0  0
 20  5  1  0  0  0  0
 21  9  1  0  0  0  0
 21  8  2  0  0  0  0
 22 23  1  0  0  0  0
 23 25  1  0  0  0  0
 25 24  1  0  0  0  0
M  END
>  <MODEL>
9

>  <REMARK>
 VINA RESULT:      -5.0     10.369     13.513
  Name = 
  3 active torsions:
  status: ('A' for Active; 'I' for Inactive)
    1  A    between atoms: C_13  and  N_21
    2  A    between atoms: C_15  and  C_20
    3  A    between atoms: C_15  and  N_21
                            x       y       z     vdW  Elec       q    Type
                         _______ _______ _______ _____ _____    ______ ____

>  <TORSDO>
F 3

$$$$
