=
 OpenBabel11042420163D

 70 77  0  0  1  0  0  0  0  0999 V2000
  159.9390  212.8320  141.0750 C   0  0  0  0  0  0  0  0  0  0  0  0
  156.4350  213.0180  149.4540 C   0  0  0  0  0  2  0  0  0  0  0  0
  156.6490  212.0830  150.6260 C   0  0  0  0  0  2  0  0  0  0  0  0
  160.9180  207.9990  153.9190 C   0  0  0  0  0  2  0  0  0  0  0  0
  159.8340  213.4610  144.6760 C   0  0  0  0  0  2  0  0  0  0  0  0
  160.3800  212.6260  145.8280 C   0  0  1  0  0  3  0  0  0  0  0  0
  161.5700  208.8230  149.1480 C   0  0  0  0  0  2  0  0  0  0  0  0
  160.6870  207.6330  151.0430 O   0  0  0  0  0  0  0  0  0  0  0  0
  160.5490  213.1400  143.3590 C   0  0  1  0  0  3  0  0  0  0  0  0
  159.4320  211.6590  155.0460 C   0  0  1  0  0  3  0  0  0  0  0  0
  158.8710  212.7300  154.0940 C   0  0  1  0  0  3  0  0  0  0  0  0
  160.6480  210.6860  144.1620 C   0  0  0  0  0  2  0  0  0  0  0  0
  161.6400  211.2640  141.9410 C   0  0  0  0  0  2  0  0  0  0  0  0
  161.3350  211.7940  143.3560 C   0  0  1  0  0  3  0  0  0  0  0  0
  160.5730  209.9790  149.1780 C   0  0  2  0  0  3  0  0  0  0  0  0
  157.1600  213.2080  147.0890 C   0  0  0  0  0  0  0  0  0  0  0  0
  157.4650  212.7760  154.1300 O   0  0  0  0  0  0  0  0  0  0  0  0
  159.7410  212.9260  147.1600 C   0  0  0  0  0  0  0  0  0  0  0  0
  156.7110  212.2680  148.1690 C   0  0  0  0  0  2  0  0  0  0  0  0
  161.7650  209.2200  153.8290 C   0  0  0  0  0  3  0  0  0  0  0  0
  160.9470  207.5380  149.6760 C   0  0  0  0  0  2  0  0  0  0  0  0
  156.6420  213.1680  145.8630 C   0  0  0  0  0  3  0  0  0  0  0  0
  156.5850  212.8680  151.9140 C   0  0  0  0  0  2  0  0  0  0  0  0
  159.6040  213.2040  142.2650 N   0  0  0  0  0  0  0  0  0  0  0  0
  160.8150  210.9550  148.0200 C   0  0  1  0  0  3  0  0  0  0  0  0
  161.7900  207.0460  151.6670 C   0  0  0  0  0  2  0  0  0  0  0  0
  161.3090  212.2680  140.8350 C   0  0  0  0  0  2  0  0  0  0  0  0
  160.6510  210.2360  146.6580 C   0  0  0  0  0  2  0  0  0  0  0  0
  161.3380  210.3370  154.3390 C   0  0  0  0  0  0  0  0  0  0  0  0
  159.9350  212.1060  148.1370 N   0  0  0  0  0  0  0  0  0  0  0  0
  160.8970  211.4590  154.8390 C   0  0  0  0  0  3  0  0  0  0  0  0
  160.1380  211.1450  145.5330 C   0  0  1  0  0  3  0  0  0  0  0  0
  157.0450  211.9880  153.0580 C   0  0  0  0  0  2  0  0  0  0  0  0
  161.5030  206.8050  153.1540 C   0  0  1  0  0  3  0  0  0  0  0  0
  158.5730  214.2750  147.3910 S   0  0  0  0  0  0  0  0  0  0  0  0
  158.3940  214.3560  137.2870 O   0  0  0  0  0  1  0  0  0  0  0  0
  159.6400  212.7500  138.6080 C   0  0  0  0  0  2  0  0  0  0  0  0
  158.7400  213.0080  137.3900 C   0  0  1  0  0  3  0  0  0  0  0  0
  156.5140  212.1400  138.4060 C   0  0  1  0  0  3  0  0  0  0  0  0
  157.9230  210.7830  137.0130 O   0  0  0  0  0  1  0  0  0  0  0  0
  157.5100  212.0970  137.2390 C   0  0  2  0  0  3  0  0  0  0  0  0
  156.2770  213.4520  138.8330 O   0  0  0  0  0  0  0  0  0  0  0  0
  156.8230  213.5200  140.1200 C   0  0  2  0  0  3  0  0  0  0  0  0
  155.2030  211.4990  137.9930 C   0  0  0  0  0  1  0  0  0  0  0  0
  155.9910  214.4530  140.9770 C   0  0  0  0  0  1  0  0  0  0  0  0
  158.1390  213.9910  140.0580 O   0  0  0  0  0  0  0  0  0  0  0  0
  158.9360  212.8420  139.9670 C   0  0  2  0  0  3  0  0  0  0  0  0
  160.9630  213.9430  154.2250 C   0  0  2  0  0  3  0  0  0  0  0  0
  160.3990  214.4450  152.9670 N   0  0  0  0  0  2  0  0  0  0  0  0
  159.5450  214.1260  154.1190 C   0  0  1  0  0  0  0  0  0  0  0  0
  160.2130  214.4530  155.3820 N   0  0  0  0  0  2  0  0  0  0  0  0
  159.6420  210.8900  157.1090 C   0  0  0  0  0  1  0  0  0  0  0  0
  159.1630  211.9780  156.3800 O   0  0  0  0  0  0  0  0  0  0  0  0
  160.5830  210.6770  150.5440 C   0  0  0  0  0  2  0  0  0  0  0  0
  159.3380  210.3630  151.3620 C   0  0  0  0  0  1  0  0  0  0  0  0
  154.2970  212.6010  145.8060 C   0  0  0  0  0  2  0  0  0  0  0  0
  155.5400  212.2760  145.4930 C   0  0  0  0  0  3  0  0  0  0  0  0
  162.5310  206.1350  153.8540 O   0  0  0  0  0  0  0  0  0  0  0  0
  163.4100  205.5350  152.9350 C   0  0  0  0  0  2  0  0  0  0  0  0
  162.6590  204.5860  152.0170 C   0  0  2  0  0  3  0  0  0  0  0  0
  162.8610  203.1720  152.5390 C   0  0  0  0  0  2  0  0  0  0  0  0
  162.6170  202.1460  151.4490 C   0  0  0  0  0  2  0  0  0  0  0  0
  161.1470  201.7740  151.4430 C   0  0  0  0  0  2  0  0  0  0  0  0
  159.2360  202.2960  150.1960 C   0  0  0  0  0  2  0  0  0  0  0  0
  160.3590  202.8850  150.9390 N   0  0  0  0  0  0  0  0  0  0  0  0
  160.3990  202.7860  149.4720 C   0  0  0  0  0  2  0  0  0  0  0  0
  163.1960  204.7140  150.6010 C   0  0  0  0  0  2  0  0  0  0  0  0
  162.0610  204.7900  149.5970 C   0  0  0  0  0  2  0  0  0  0  0  0
  162.5860  204.9800  148.3190 O   0  0  0  0  0  0  0  0  0  0  0  0
  161.6330  205.7580  147.6620 C   0  0  0  0  0  1  0  0  0  0  0  0
  1 24  2  0  0  0  0
  2  3  1  0  0  0  0
  3 23  1  0  0  0  0
  6  5  1  6  0  0  0
  6 18  1  0  0  0  0
  7 15  1  0  0  0  0
  7 21  1  0  0  0  0
  8 26  1  0  0  0  0
  9  5  1  1  0  0  0
 10 53  1  1  0  0  0
 11 50  1  0  0  0  0
 11 17  1  1  0  0  0
 11 10  1  0  0  0  0
 14 13  1  6  0  0  0
 14  9  1  0  0  0  0
 14 12  1  0  0  0  0
 15 54  1  1  0  0  0
 16 35  1  0  0  0  0
 16 19  1  0  0  0  0
 18 35  1  0  0  0  0
 18 30  2  0  0  0  0
 19  2  1  0  0  0  0
 20  4  1  0  0  0  0
 20 29  2  0  0  0  0
 21  8  1  0  0  0  0
 22 16  2  0  0  0  0
 23 33  1  0  0  0  0
 24  9  1  0  0  0  0
 25 28  1  6  0  0  0
 25 30  1  0  0  0  0
 25 15  1  0  0  0  0
 26 34  1  0  0  0  0
 27  1  1  0  0  0  0
 27 13  1  0  0  0  0
 29 31  2  0  0  0  0
 31 10  1  0  0  0  0
 32 12  1  6  0  0  0
 32  6  1  0  0  0  0
 32 28  1  0  0  0  0
 33 17  1  0  0  0  0
 34 58  1  1  0  0  0
 34  4  1  0  0  0  0
 37 47  1  0  0  0  0
 38 36  1  1  0  0  0
 38 37  1  0  0  0  0
 39 44  1  6  0  0  0
 39 42  1  0  0  0  0
 41 40  1  1  0  0  0
 41 38  1  0  0  0  0
 41 39  1  0  0  0  0
 42 43  1  0  0  0  0
 43 45  1  1  0  0  0
 46 43  1  0  0  0  0
 47 46  1  0  0  0  0
 47  1  1  1  0  0  0
 48 49  1  6  0  0  0
 48 51  1  0  0  0  0
 50 49  1  6  0  0  0
 50 48  1  0  0  0  0
 50 51  1  0  0  0  0
 53 52  1  0  0  0  0
 54 55  1  0  0  0  0
 57 56  2  0  0  0  0
 57 22  1  0  0  0  0
 59 58  1  0  0  0  0
 60 67  1  6  0  0  0
 60 61  1  0  0  0  0
 60 59  1  0  0  0  0
 62 61  1  0  0  0  0
 63 62  1  0  0  0  0
 64 65  1  0  0  0  0
 65 63  1  0  0  0  0
 66 64  1  0  0  0  0
 66 65  1  0  0  0  0
 68 67  1  0  0  0  0
 69 68  1  0  0  0  0
 70 69  1  0  0  0  0
M  END
>  <MODEL>
1

>  <REMARK>
 VINA RESULT:      28.3      0.000      0.000
  Name = 
  15 active torsions:
  status: ('A' for Active; 'I' for Inactive)
    1  A    between atoms: C_1  and  C_6
    2  A    between atoms: C_1  and  C_18
    3  A    between atoms: O_2  and  C_44
    4  A    between atoms: C_5  and  C_34
    5  A    between atoms: C_6  and  C_11
    6  A    between atoms: C_7  and  C_70
    7  A    between atoms: C_11  and  N_57
    8  A    between atoms: C_18  and  C_54
    9  A    between atoms: C_18  and  C_58
   10  A    between atoms: C_24  and  O_36
   11  A    between atoms: C_25  and  C_50
   12  A    between atoms: O_31  and  C_54
   13  A    between atoms: O_31  and  C_65
   14  A    between atoms: C_38  and  C_43
   15  A    between atoms: C_44  and  C_58
                            x       y       z     vdW  Elec       q    Type
                         _______ _______ _______ _____ _____    ______ ____

>  <TORSDO>
F 15

$$$$
