=
 OpenBabel11052409333D

 44 50  0  0  1  0  0  0  0  0999 V2000
  160.7300  203.1270  150.4910 C   0  0  0  0  0  3  0  0  0  0  0  0
  161.1650  206.5400  150.9950 C   0  0  0  0  0  0  0  0  0  0  0  0
  160.9980  204.7040  152.4780 C   0  0  0  0  0  3  0  0  0  0  0  0
  161.6060  206.5450  148.2020 C   0  0  0  0  0  0  0  0  0  0  0  0
  160.6950  205.5520  150.2780 C   0  0  0  0  0  0  0  0  0  0  0  0
  161.7270  202.5380  146.8690 N   0  0  0  0  0  2  0  0  0  0  0  0
  161.3580  206.1230  152.3490 N   0  0  0  0  0  0  0  0  0  0  0  0
  160.6450  204.3380  151.0710 C   0  0  0  0  0  0  0  0  0  0  0  0
  161.3080  202.0230  148.1410 C   0  0  0  0  0  0  0  0  0  0  0  0
  160.6020  205.5710  148.7920 C   0  0  0  0  0  0  0  0  0  0  0  0
  160.7730  203.0770  149.0030 C   0  0  0  0  0  0  0  0  0  0  0  0
  162.2540  206.2530  147.0530 C   0  0  0  0  0  3  0  0  0  0  0  0
  161.7390  207.7440  150.3450 C   0  0  0  0  0  3  0  0  0  0  0  0
  160.8100  204.1870  148.2750 C   0  0  0  0  0  0  0  0  0  0  0  0
  162.1680  204.9020  146.4180 C   0  0  0  0  0  3  0  0  0  0  0  0
  161.4450  200.8200  148.4770 O   0  0  0  0  0  0  0  0  0  0  0  0
  161.4640  203.9320  147.0170 C   0  0  0  0  0  0  0  0  0  0  0  0
  161.9320  207.7600  149.0070 C   0  0  0  0  0  0  0  0  0  0  0  0
  162.5280  208.9690  148.3710 C   0  0  0  0  0  2  0  0  0  0  0  0
  161.9470  210.1660  148.9610 N   0  0  0  0  0  2  0  0  0  0  0  0
  162.8410  213.1730  145.5070 C   0  0  0  0  0  2  0  0  0  0  0  0
  159.1810  212.6180  144.9130 C   0  0  0  0  0  0  0  0  0  0  0  0
  158.9930  212.4770  143.6750 O   0  0  0  0  0  0  0  0  0  0  0  0
  161.6690  212.9370  144.5720 C   0  0  0  0  0  2  0  0  0  0  0  0
  160.5060  212.7990  145.4250 N   0  0  0  0  0  0  0  0  0  0  0  0
  163.1420  212.5710  148.1740 S   0  0  0  0  0  0  0  0  0  0  0  0
  161.8080  211.3980  148.2490 C   0  0  1  0  0  3  0  0  0  0  0  0
  160.7930  213.0050  146.8310 C   0  0  2  0  0  3  0  0  0  0  0  0
  162.2420  213.4810  146.8750 C   0  0  2  0  0  3  0  0  0  0  0  0
  160.7260  211.7070  147.5580 C   0  0  0  0  0  2  0  0  0  0  0  0
  158.0930  212.5980  145.7770 O   0  0  0  0  0  1  0  0  0  0  0  0
  162.0390  206.8900  153.3820 C   0  0  0  0  0  2  0  0  0  0  0  0
  161.0310  207.6230  154.2600 C   0  0  0  0  0  2  0  0  0  0  0  0
  160.7470  209.0170  153.7200 C   0  0  0  0  0  2  0  0  0  0  0  0
  160.4110  209.9140  154.8120 N   0  0  0  0  0  2  0  0  0  0  0  0
  160.5180  211.2670  154.2930 C   0  0  0  0  0  2  0  0  0  0  0  0
  159.1980  211.7530  153.9060 N   0  0  0  0  0  0  0  0  0  0  0  0
  158.6100  212.7320  156.0330 C   0  0  0  0  0  2  0  0  0  0  0  0
  158.2280  212.1700  154.8880 C   0  0  0  0  0  0  0  0  0  0  0  0
  156.2330  210.8530  155.1950 N   0  0  0  0  0  1  0  0  0  0  0  0
  156.7640  212.0690  154.6050 C   0  0  0  0  0  2  0  0  0  0  0  0
  158.9130  211.8430  152.4800 C   0  0  0  0  0  2  0  0  0  0  0  0
  159.8020  213.3030  150.8990 C   0  0  0  0  0  1  0  0  0  0  0  0
  160.1270  212.1760  151.7510 N   0  0  0  0  0  2  0  0  0  0  0  0
  1  8  1  0  0  0  0
  2  7  1  0  0  0  0
  4 10  1  0  0  0  0
  4 18  1  0  0  0  0
  5  2  2  0  0  0  0
  5  8  1  0  0  0  0
  6 17  1  0  0  0  0
  6  9  1  0  0  0  0
  7  3  1  0  0  0  0
  7 32  1  0  0  0  0
  8  3  2  0  0  0  0
  9 16  2  0  0  0  0
  9 11  1  0  0  0  0
 10  5  1  0  0  0  0
 11  1  2  0  0  0  0
 12  4  2  0  0  0  0
 13  2  1  0  0  0  0
 14 10  2  0  0  0  0
 14 11  1  0  0  0  0
 15 17  2  0  0  0  0
 15 12  1  0  0  0  0
 17 14  1  0  0  0  0
 18 13  2  0  0  0  0
 19 20  1  0  0  0  0
 19 18  1  0  0  0  0
 22 25  1  0  0  0  0
 22 31  1  0  0  0  0
 23 22  2  0  0  0  0
 24 25  1  0  0  0  0
 24 21  1  0  0  0  0
 25 28  1  0  0  0  0
 26 27  1  0  0  0  0
 27 20  1  6  0  0  0
 28 29  1  0  0  0  0
 28 30  1  1  0  0  0
 29 21  1  6  0  0  0
 29 26  1  0  0  0  0
 30 27  1  0  0  0  0
 32 33  1  0  0  0  0
 34 33  1  0  0  0  0
 34 35  1  0  0  0  0
 36 35  1  0  0  0  0
 37 36  1  0  0  0  0
 37 39  1  0  0  0  0
 39 38  2  0  0  0  0
 41 39  1  0  0  0  0
 41 40  1  0  0  0  0
 42 37  1  0  0  0  0
 43 44  1  0  0  0  0
 44 42  1  0  0  0  0
M  END
>  <MODEL>
1

>  <REMARK>
 VINA RESULT:      -8.5      0.000      0.000
  Name = 
  13 active torsions:
  status: ('A' for Active; 'I' for Inactive)
    1  A    between atoms: C_1  and  N_3
    2  A    between atoms: C_1  and  C_44
    3  A    between atoms: N_3  and  C_29
    4  A    between atoms: C_4  and  N_10
    5  A    between atoms: C_4  and  N_42
    6  A    between atoms: N_10  and  C_19
    7  A    between atoms: C_16  and  N_22
    8  A    between atoms: C_16  and  C_24
    9  A    between atoms: C_19  and  C_24
   10  A    between atoms: N_20  and  C_21
   11  A    between atoms: C_21  and  N_42
   12  A    between atoms: C_31  and  C_32
   13  A    between atoms: C_32  and  N_42
                            x       y       z     vdW  Elec       q    Type
                         _______ _______ _______ _____ _____    ______ ____

>  <TORSDO>
F 13

$$$$
=
 OpenBabel11052409333D

 44 50  0  0  1  0  0  0  0  0999 V2000
  160.8590  206.2890  153.5410 C   0  0  0  0  0  3  0  0  0  0  0  0
  161.8560  207.7600  150.5520 C   0  0  0  0  0  0  0  0  0  0  0  0
  161.1750  205.5640  151.1160 C   0  0  0  0  0  3  0  0  0  0  0  0
  161.5900  210.1490  152.0410 C   0  0  0  0  0  0  0  0  0  0  0  0
  161.9070  207.7020  151.8590 C   0  0  0  0  0  0  0  0  0  0  0  0
  159.8810  209.1990  155.7850 N   0  0  0  0  0  2  0  0  0  0  0  0
  161.4430  206.5000  150.0150 N   0  0  0  0  0  0  0  0  0  0  0  0
  161.4110  206.4190  152.3220 C   0  0  0  0  0  0  0  0  0  0  0  0
  159.9870  207.7860  155.5600 C   0  0  0  0  0  0  0  0  0  0  0  0
  162.0700  208.8910  152.7400 C   0  0  0  0  0  0  0  0  0  0  0  0
  160.8700  207.4820  154.4330 C   0  0  0  0  0  0  0  0  0  0  0  0
  160.9340  211.1100  152.7280 C   0  0  0  0  0  3  0  0  0  0  0  0
  161.8650  209.0670  149.8500 C   0  0  0  0  0  3  0  0  0  0  0  0
  161.3310  208.6540  154.0150 C   0  0  0  0  0  0  0  0  0  0  0  0
  160.4820  210.9050  154.1390 C   0  0  0  0  0  3  0  0  0  0  0  0
  159.3470  206.9320  156.2230 O   0  0  0  0  0  0  0  0  0  0  0  0
  160.6910  209.7240  154.7350 C   0  0  0  0  0  0  0  0  0  0  0  0
  161.7600  210.2130  150.5580 C   0  0  0  0  0  0  0  0  0  0  0  0
  161.7490  211.5170  149.8360 C   0  0  0  0  0  2  0  0  0  0  0  0
  161.7940  211.2800  148.4020 N   0  0  0  0  0  2  0  0  0  0  0  0
  163.2060  213.5320  144.5670 C   0  0  0  0  0  2  0  0  0  0  0  0
  159.6780  212.7510  143.5640 C   0  0  0  0  0  0  0  0  0  0  0  0
  159.6800  212.3510  142.3690 O   0  0  0  0  0  0  0  0  0  0  0  0
  162.1890  213.0710  143.5370 C   0  0  0  0  0  2  0  0  0  0  0  0
  160.9090  213.0770  144.2170 N   0  0  0  0  0  0  0  0  0  0  0  0
  163.0960  213.5060  147.3150 S   0  0  0  0  0  0  0  0  0  0  0  0
  161.7660  212.3330  147.4350 C   0  0  0  0  0  0  0  0  0  0  0  0
  160.9790  213.5780  145.5760 C   0  0  2  0  0  3  0  0  0  0  0  0
  162.4050  214.0980  145.7350 C   0  0  2  0  0  3  0  0  0  0  0  0
  160.8020  212.4580  146.5400 C   0  0  0  0  0  3  0  0  0  0  0  0
  158.4710  212.8770  144.2400 O   0  0  0  0  0  1  0  0  0  0  0  0
  161.0930  206.2480  148.6250 C   0  0  0  0  0  2  0  0  0  0  0  0
  162.3490  206.0750  147.7770 C   0  0  0  0  0  2  0  0  0  0  0  0
  161.9980  205.9350  146.3020 C   0  0  0  0  0  2  0  0  0  0  0  0
  161.1400  204.7790  146.1040 N   0  0  0  0  0  2  0  0  0  0  0  0
  161.9540  203.6030  146.3600 C   0  0  0  0  0  2  0  0  0  0  0  0
  161.1420  202.5690  146.9920 N   0  0  0  0  0  0  0  0  0  0  0  0
  160.0100  201.3280  145.2590 C   0  0  0  0  0  2  0  0  0  0  0  0
  160.8220  201.3380  146.3140 C   0  0  0  0  0  0  0  0  0  0  0  0
  161.2580  199.0520  145.6870 N   0  0  0  0  0  1  0  0  0  0  0  0
  161.4690  200.0530  146.7180 C   0  0  0  0  0  2  0  0  0  0  0  0
  160.7030  202.8110  148.3610 C   0  0  0  0  0  2  0  0  0  0  0  0
  160.9050  201.1850  150.0150 C   0  0  0  0  0  1  0  0  0  0  0  0
  160.0800  201.6150  148.9020 N   0  0  0  0  0  2  0  0  0  0  0  0
  1 11  2  0  0  0  0
  2  5  1  0  0  0  0
  3  8  2  0  0  0  0
  4 12  1  0  0  0  0
  4 10  1  0  0  0  0
  5  8  1  0  0  0  0
  5 10  2  0  0  0  0
  7  2  1  0  0  0  0
  7  3  1  0  0  0  0
  8  1  1  0  0  0  0
  9  6  1  0  0  0  0
  9 16  2  0  0  0  0
 10 14  1  0  0  0  0
 11  9  1  0  0  0  0
 12 15  2  0  0  0  0
 13  2  2  0  0  0  0
 13 18  1  0  0  0  0
 14 11  1  0  0  0  0
 14 17  2  0  0  0  0
 15 17  1  0  0  0  0
 17  6  1  0  0  0  0
 18  4  2  0  0  0  0
 19 18  1  0  0  0  0
 20 19  1  0  0  0  0
 22 25  1  0  0  0  0
 22 31  1  0  0  0  0
 23 22  2  0  0  0  0
 24 25  1  0  0  0  0
 24 21  1  0  0  0  0
 25 28  1  0  0  0  0
 26 27  1  0  0  0  0
 27 20  1  0  0  0  0
 28 29  1  0  0  0  0
 28 30  1  1  0  0  0
 29 21  1  6  0  0  0
 29 26  1  0  0  0  0
 30 27  2  0  0  0  0
 32  7  1  0  0  0  0
 33 32  1  0  0  0  0
 34 33  1  0  0  0  0
 35 34  1  0  0  0  0
 35 36  1  0  0  0  0
 36 37  1  0  0  0  0
 37 42  1  0  0  0  0
 38 39  2  0  0  0  0
 39 41  1  0  0  0  0
 39 37  1  0  0  0  0
 40 41  1  0  0  0  0
 42 44  1  0  0  0  0
 44 43  1  0  0  0  0
M  END
>  <MODEL>
2

>  <REMARK>
 VINA RESULT:      -7.4      2.336      7.703
  Name = 
  13 active torsions:
  status: ('A' for Active; 'I' for Inactive)
    1  A    between atoms: C_1  and  N_3
    2  A    between atoms: C_1  and  C_44
    3  A    between atoms: N_3  and  C_29
    4  A    between atoms: C_4  and  N_10
    5  A    between atoms: C_4  and  N_42
    6  A    between atoms: N_10  and  C_19
    7  A    between atoms: C_16  and  N_22
    8  A    between atoms: C_16  and  C_24
    9  A    between atoms: C_19  and  C_24
   10  A    between atoms: N_20  and  C_21
   11  A    between atoms: C_21  and  N_42
   12  A    between atoms: C_31  and  C_32
   13  A    between atoms: C_32  and  N_42
                            x       y       z     vdW  Elec       q    Type
                         _______ _______ _______ _____ _____    ______ ____

>  <TORSDO>
F 13

$$$$
=
 OpenBabel11052409333D

 44 50  0  0  1  0  0  0  0  0999 V2000
  161.9420  206.3250  148.4840 C   0  0  0  0  0  3  0  0  0  0  0  0
  162.1230  208.7190  151.0000 C   0  0  0  0  0  0  0  0  0  0  0  0
  162.0630  208.8690  148.6390 C   0  0  0  0  0  3  0  0  0  0  0  0
  161.5260  206.5140  152.6650 C   0  0  0  0  0  0  0  0  0  0  0  0
  162.3750  207.5110  150.5660 C   0  0  0  0  0  0  0  0  0  0  0  0
  160.6480  203.1920  150.2070 N   0  0  0  0  0  2  0  0  0  0  0  0
  161.9430  209.6140  149.9000 N   0  0  0  0  0  0  0  0  0  0  0  0
  162.2650  207.4660  149.1200 C   0  0  0  0  0  0  0  0  0  0  0  0
  161.0470  203.8760  149.0110 C   0  0  0  0  0  0  0  0  0  0  0  0
  162.3830  206.2990  151.4310 C   0  0  0  0  0  0  0  0  0  0  0  0
  161.8030  205.0930  149.3090 C   0  0  0  0  0  0  0  0  0  0  0  0
  160.7710  205.5090  153.1610 C   0  0  0  0  0  3  0  0  0  0  0  0
  161.7250  208.9510  152.4100 C   0  0  0  0  0  3  0  0  0  0  0  0
  161.9130  205.1300  150.6320 C   0  0  0  0  0  0  0  0  0  0  0  0
  160.5890  204.2190  152.4270 C   0  0  0  0  0  3  0  0  0  0  0  0
  160.7280  203.4930  147.8580 O   0  0  0  0  0  0  0  0  0  0  0  0
  161.1520  204.0590  151.2210 C   0  0  0  0  0  0  0  0  0  0  0  0
  161.4590  207.9000  153.2170 C   0  0  0  0  0  0  0  0  0  0  0  0
  161.0400  208.1500  154.6260 C   0  0  0  0  0  2  0  0  0  0  0  0
  161.4210  209.4990  155.0140 N   0  0  0  0  0  2  0  0  0  0  0  0
  159.6120  213.6330  156.2040 C   0  0  0  0  0  2  0  0  0  0  0  0
  156.5180  211.9490  154.9190 C   0  0  0  0  0  0  0  0  0  0  0  0
  155.8840  212.7690  154.2020 O   0  0  0  0  0  0  0  0  0  0  0  0
  158.3240  213.6560  155.4010 C   0  0  0  0  0  2  0  0  0  0  0  0
  157.7710  212.3200  155.5020 N   0  0  0  0  0  0  0  0  0  0  0  0
  161.2160  211.5210  156.9380 S   0  0  0  0  0  0  0  0  0  0  0  0
  160.5610  210.3710  155.7510 C   0  0  0  0  0  0  0  0  0  0  0  0
  158.5360  211.4430  156.3670 C   0  0  2  0  0  3  0  0  0  0  0  0
  159.5880  212.3400  157.0140 C   0  0  2  0  0  3  0  0  0  0  0  0
  159.2560  210.4270  155.5510 C   0  0  0  0  0  3  0  0  0  0  0  0
  155.9900  210.6830  155.1400 O   0  0  0  0  0  1  0  0  0  0  0  0
  161.4640  210.9850  149.9950 C   0  0  0  0  0  2  0  0  0  0  0  0
  161.8830  211.7880  148.7680 C   0  0  0  0  0  2  0  0  0  0  0  0
  161.1860  213.1410  148.7350 C   0  0  0  0  0  2  0  0  0  0  0  0
  161.3090  213.7310  147.4130 N   0  0  0  0  0  2  0  0  0  0  0  0
  161.2780  212.6340  146.4600 C   0  0  0  0  0  2  0  0  0  0  0  0
  160.9000  213.1360  145.1430 N   0  0  0  0  0  0  0  0  0  0  0  0
  163.1610  213.2410  144.3040 C   0  0  0  0  0  2  0  0  0  0  0  0
  161.8510  213.2180  144.0630 C   0  0  0  0  0  0  0  0  0  0  0  0
  161.1690  211.8110  142.2300 N   0  0  0  0  0  1  0  0  0  0  0  0
  161.3960  213.1850  142.6410 C   0  0  0  0  0  2  0  0  0  0  0  0
  159.5050  213.5090  144.9490 C   0  0  0  0  0  2  0  0  0  0  0  0
  157.5450  212.9640  146.0820 C   0  0  0  0  0  1  0  0  0  0  0  0
  158.6380  212.4000  145.3140 N   0  0  0  0  0  2  0  0  0  0  0  0
  1  8  1  0  0  0  0
  1 11  2  0  0  0  0
  2 13  1  0  0  0  0
  3  8  2  0  0  0  0
  3  7  1  0  0  0  0
  4 12  1  0  0  0  0
  4 18  1  0  0  0  0
  5  2  2  0  0  0  0
  5 10  1  0  0  0  0
  6 17  1  0  0  0  0
  7 32  1  0  0  0  0
  7  2  1  0  0  0  0
  8  5  1  0  0  0  0
  9 11  1  0  0  0  0
  9  6  1  0  0  0  0
 10  4  2  0  0  0  0
 11 14  1  0  0  0  0
 13 18  2  0  0  0  0
 14 17  2  0  0  0  0
 14 10  1  0  0  0  0
 15 12  2  0  0  0  0
 16  9  2  0  0  0  0
 17 15  1  0  0  0  0
 18 19  1  0  0  0  0
 19 20  1  0  0  0  0
 20 27  1  0  0  0  0
 22 31  1  0  0  0  0
 22 25  1  0  0  0  0
 23 22  2  0  0  0  0
 24 25  1  0  0  0  0
 24 21  1  0  0  0  0
 25 28  1  0  0  0  0
 26 29  1  0  0  0  0
 27 26  1  0  0  0  0
 28 30  1  6  0  0  0
 28 29  1  0  0  0  0
 29 21  1  6  0  0  0
 30 27  2  0  0  0  0
 33 32  1  0  0  0  0
 34 33  1  0  0  0  0
 35 34  1  0  0  0  0
 36 35  1  0  0  0  0
 37 36  1  0  0  0  0
 39 38  2  0  0  0  0
 39 37  1  0  0  0  0
 40 41  1  0  0  0  0
 41 39  1  0  0  0  0
 42 37  1  0  0  0  0
 42 44  1  0  0  0  0
 44 43  1  0  0  0  0
M  END
>  <MODEL>
3

>  <REMARK>
 VINA RESULT:      -7.3      2.947      7.665
  Name = 
  13 active torsions:
  status: ('A' for Active; 'I' for Inactive)
    1  A    between atoms: C_1  and  N_3
    2  A    between atoms: C_1  and  C_44
    3  A    between atoms: N_3  and  C_29
    4  A    between atoms: C_4  and  N_10
    5  A    between atoms: C_4  and  N_42
    6  A    between atoms: N_10  and  C_19
    7  A    between atoms: C_16  and  N_22
    8  A    between atoms: C_16  and  C_24
    9  A    between atoms: C_19  and  C_24
   10  A    between atoms: N_20  and  C_21
   11  A    between atoms: C_21  and  N_42
   12  A    between atoms: C_31  and  C_32
   13  A    between atoms: C_32  and  N_42
                            x       y       z     vdW  Elec       q    Type
                         _______ _______ _______ _____ _____    ______ ____

>  <TORSDO>
F 13

$$$$
=
 OpenBabel11052409333D

 44 50  0  0  1  0  0  0  0  0999 V2000
  161.9310  206.2430  148.6600 C   0  0  0  0  0  3  0  0  0  0  0  0
  162.1460  208.8320  150.9710 C   0  0  0  0  0  0  0  0  0  0  0  0
  162.0740  208.7890  148.6070 C   0  0  0  0  0  3  0  0  0  0  0  0
  161.5390  206.7740  152.8130 C   0  0  0  0  0  0  0  0  0  0  0  0
  162.3850  207.5900  150.6360 C   0  0  0  0  0  0  0  0  0  0  0  0
  160.6200  203.2720  150.6370 N   0  0  0  0  0  2  0  0  0  0  0  0
  161.9660  209.6360  149.8030 N   0  0  0  0  0  0  0  0  0  0  0  0
  162.2670  207.4280  149.1990 C   0  0  0  0  0  0  0  0  0  0  0  0
  161.0180  203.8520  149.3880 C   0  0  0  0  0  0  0  0  0  0  0  0
  162.3870  206.4520  151.5970 C   0  0  0  0  0  0  0  0  0  0  0  0
  161.7860  205.0830  149.5830 C   0  0  0  0  0  0  0  0  0  0  0  0
  160.7780  205.8190  153.3930 C   0  0  0  0  0  3  0  0  0  0  0  0
  161.7570  209.1800  152.3600 C   0  0  0  0  0  3  0  0  0  0  0  0
  161.9030  205.2260  150.8970 C   0  0  0  0  0  0  0  0  0  0  0  0
  160.5810  204.4760  152.7660 C   0  0  0  0  0  3  0  0  0  0  0  0
  160.6900  203.3800  148.2710 O   0  0  0  0  0  0  0  0  0  0  0  0
  161.1360  204.2130  151.5760 C   0  0  0  0  0  0  0  0  0  0  0  0
  161.4860  208.2010  153.2510 C   0  0  0  0  0  0  0  0  0  0  0  0
  161.0770  208.5680  154.6360 C   0  0  0  0  0  2  0  0  0  0  0  0
  161.2110  210.0050  154.8190 N   0  0  0  0  0  2  0  0  0  0  0  0
  159.0980  213.9570  156.1180 C   0  0  0  0  0  2  0  0  0  0  0  0
  156.1550  212.1190  154.6960 C   0  0  0  0  0  0  0  0  0  0  0  0
  155.4820  212.9210  153.9960 O   0  0  0  0  0  0  0  0  0  0  0  0
  157.8280  213.9250  155.2850 C   0  0  0  0  0  2  0  0  0  0  0  0
  157.3670  212.5510  155.3240 N   0  0  0  0  0  0  0  0  0  0  0  0
  160.8260  211.9320  156.8110 S   0  0  0  0  0  0  0  0  0  0  0  0
  160.2770  210.7880  155.5660 C   0  0  0  0  0  0  0  0  0  0  0  0
  158.1710  211.6950  156.1730 C   0  0  2  0  0  3  0  0  0  0  0  0
  159.1450  212.6350  156.8780 C   0  0  2  0  0  3  0  0  0  0  0  0
  158.9770  210.7630  155.3370 C   0  0  0  0  0  3  0  0  0  0  0  0
  155.7110  210.8120  154.8570 O   0  0  0  0  0  1  0  0  0  0  0  0
  161.4990  211.0140  149.7880 C   0  0  0  0  0  2  0  0  0  0  0  0
  162.2960  211.8420  148.7860 C   0  0  0  0  0  2  0  0  0  0  0  0
  161.4910  213.0410  148.3030 C   0  0  0  0  0  2  0  0  0  0  0  0
  161.9820  213.4790  147.0080 N   0  0  0  0  0  2  0  0  0  0  0  0
  161.0280  214.4530  146.5050 C   0  0  0  0  0  2  0  0  0  0  0  0
  160.4470  213.9760  145.2550 N   0  0  0  0  0  0  0  0  0  0  0  0
  158.2670  214.1760  144.2390 C   0  0  0  0  0  2  0  0  0  0  0  0
  159.0540  213.6190  145.1570 C   0  0  0  0  0  0  0  0  0  0  0  0
  157.0420  212.7220  146.1330 N   0  0  0  0  0  1  0  0  0  0  0  0
  158.4780  212.5440  146.0200 C   0  0  0  0  0  2  0  0  0  0  0  0
  161.3240  213.9170  144.0930 C   0  0  0  0  0  2  0  0  0  0  0  0
  162.2650  212.5780  142.4370 C   0  0  0  0  0  1  0  0  0  0  0  0
  161.4620  212.5410  143.6440 N   0  0  0  0  0  2  0  0  0  0  0  0
  1  8  1  0  0  0  0
  1 11  2  0  0  0  0
  2 13  1  0  0  0  0
  3  8  2  0  0  0  0
  3  7  1  0  0  0  0
  4 18  1  0  0  0  0
  4 12  1  0  0  0  0
  5  2  2  0  0  0  0
  5 10  1  0  0  0  0
  6 17  1  0  0  0  0
  7  2  1  0  0  0  0
  8  5  1  0  0  0  0
  9 11  1  0  0  0  0
  9  6  1  0  0  0  0
 10  4  2  0  0  0  0
 11 14  1  0  0  0  0
 13 18  2  0  0  0  0
 14 17  2  0  0  0  0
 14 10  1  0  0  0  0
 15 12  2  0  0  0  0
 16  9  2  0  0  0  0
 17 15  1  0  0  0  0
 18 19  1  0  0  0  0
 19 20  1  0  0  0  0
 20 27  1  0  0  0  0
 22 31  1  0  0  0  0
 22 25  1  0  0  0  0
 23 22  2  0  0  0  0
 24 25  1  0  0  0  0
 24 21  1  0  0  0  0
 25 28  1  0  0  0  0
 26 29  1  0  0  0  0
 27 26  1  0  0  0  0
 28 30  1  6  0  0  0
 28 29  1  0  0  0  0
 29 21  1  6  0  0  0
 30 27  2  0  0  0  0
 32  7  1  0  0  0  0
 33 32  1  0  0  0  0
 34 33  1  0  0  0  0
 35 34  1  0  0  0  0
 36 35  1  0  0  0  0
 37 36  1  0  0  0  0
 38 39  2  0  0  0  0
 39 37  1  0  0  0  0
 39 41  1  0  0  0  0
 41 40  1  0  0  0  0
 42 37  1  0  0  0  0
 43 44  1  0  0  0  0
 44 42  1  0  0  0  0
M  END
>  <MODEL>
4

>  <REMARK>
 VINA RESULT:      -6.9      3.008      7.461
  Name = 
  13 active torsions:
  status: ('A' for Active; 'I' for Inactive)
    1  A    between atoms: C_1  and  N_3
    2  A    between atoms: C_1  and  C_44
    3  A    between atoms: N_3  and  C_29
    4  A    between atoms: C_4  and  N_10
    5  A    between atoms: C_4  and  N_42
    6  A    between atoms: N_10  and  C_19
    7  A    between atoms: C_16  and  N_22
    8  A    between atoms: C_16  and  C_24
    9  A    between atoms: C_19  and  C_24
   10  A    between atoms: N_20  and  C_21
   11  A    between atoms: C_21  and  N_42
   12  A    between atoms: C_31  and  C_32
   13  A    between atoms: C_32  and  N_42
                            x       y       z     vdW  Elec       q    Type
                         _______ _______ _______ _____ _____    ______ ____

>  <TORSDO>
F 13

$$$$
=
 OpenBabel11052409333D

 44 50  0  0  1  0  0  0  0  0999 V2000
  161.8220  205.8280  148.4470 C   0  0  0  0  0  3  0  0  0  0  0  0
  162.1420  208.5610  150.5730 C   0  0  0  0  0  0  0  0  0  0  0  0
  161.9830  208.3640  148.2210 C   0  0  0  0  0  3  0  0  0  0  0  0
  161.5870  206.6350  152.5680 C   0  0  0  0  0  0  0  0  0  0  0  0
  162.3590  207.2970  150.3120 C   0  0  0  0  0  0  0  0  0  0  0  0
  160.5610  203.0070  150.6630 N   0  0  0  0  0  2  0  0  0  0  0  0
  161.9260  209.2880  149.3620 N   0  0  0  0  0  0  0  0  0  0  0  0
  162.1870  207.0430  148.8940 C   0  0  0  0  0  0  0  0  0  0  0  0
  160.9180  203.5000  149.3650 C   0  0  0  0  0  0  0  0  0  0  0  0
  162.3870  206.2250  151.3460 C   0  0  0  0  0  0  0  0  0  0  0  0
  161.7020  204.7320  149.4500 C   0  0  0  0  0  0  0  0  0  0  0  0
  160.8400  205.7280  153.2370 C   0  0  0  0  0  3  0  0  0  0  0  0
  161.8070  209.0040  151.9490 C   0  0  0  0  0  3  0  0  0  0  0  0
  161.8680  204.9610  150.7470 C   0  0  0  0  0  0  0  0  0  0  0  0
  160.6100  204.3490  152.7080 C   0  0  0  0  0  3  0  0  0  0  0  0
  160.5450  202.9580  148.2940 O   0  0  0  0  0  0  0  0  0  0  0  0
  161.1190  204.0030  151.5180 C   0  0  0  0  0  0  0  0  0  0  0  0
  161.5620  208.0890  152.9120 C   0  0  0  0  0  0  0  0  0  0  0  0
  161.2060  208.5500  154.2840 C   0  0  0  0  0  2  0  0  0  0  0  0
  161.0130  209.9920  154.2770 N   0  0  0  0  0  2  0  0  0  0  0  0
  159.1280  213.7320  156.3360 C   0  0  0  0  0  2  0  0  0  0  0  0
  156.0620  212.3030  154.7180 C   0  0  0  0  0  0  0  0  0  0  0  0
  155.4070  213.2450  154.1970 O   0  0  0  0  0  0  0  0  0  0  0  0
  157.8350  213.9020  155.5570 C   0  0  0  0  0  2  0  0  0  0  0  0
  157.3100  212.5650  155.3670 N   0  0  0  0  0  0  0  0  0  0  0  0
  160.7770  211.5450  156.5930 S   0  0  0  0  0  0  0  0  0  0  0  0
  160.1390  210.6660  155.1860 C   0  0  0  0  0  0  0  0  0  0  0  0
  158.0960  211.5370  156.0210 C   0  0  2  0  0  3  0  0  0  0  0  0
  159.1340  212.2940  156.8460 C   0  0  2  0  0  3  0  0  0  0  0  0
  158.8320  210.7370  155.0030 C   0  0  0  0  0  3  0  0  0  0  0  0
  155.5600  211.0080  154.6600 O   0  0  0  0  0  1  0  0  0  0  0  0
  161.4700  210.6670  149.2730 C   0  0  0  0  0  2  0  0  0  0  0  0
  162.5430  211.5500  148.6430 C   0  0  0  0  0  2  0  0  0  0  0  0
  161.9470  212.8540  148.1330 C   0  0  0  0  0  2  0  0  0  0  0  0
  160.5060  212.7250  148.0030 N   0  0  0  0  0  2  0  0  0  0  0  0
  159.9720  214.0720  147.8870 C   0  0  0  0  0  2  0  0  0  0  0  0
  158.7830  214.2050  148.7210 N   0  0  0  0  0  0  0  0  0  0  0  0
  156.3800  214.1760  148.9510 C   0  0  0  0  0  2  0  0  0  0  0  0
  157.4570  214.0620  148.1750 C   0  0  0  0  0  0  0  0  0  0  0  0
  157.1460  212.4600  146.4010 N   0  0  0  0  0  1  0  0  0  0  0  0
  157.2510  213.8760  146.7070 C   0  0  0  0  0  2  0  0  0  0  0  0
  158.9910  214.4460  150.1430 C   0  0  0  0  0  2  0  0  0  0  0  0
  158.7540  213.0200  151.9680 C   0  0  0  0  0  1  0  0  0  0  0  0
  159.5410  213.2570  150.7730 N   0  0  0  0  0  2  0  0  0  0  0  0
  1  8  1  0  0  0  0
  1 11  2  0  0  0  0
  2 13  1  0  0  0  0
  3  8  2  0  0  0  0
  3  7  1  0  0  0  0
  4 18  1  0  0  0  0
  4 12  1  0  0  0  0
  5  2  2  0  0  0  0
  5 10  1  0  0  0  0
  6 17  1  0  0  0  0
  7  2  1  0  0  0  0
  8  5  1  0  0  0  0
  9 11  1  0  0  0  0
  9  6  1  0  0  0  0
 10  4  2  0  0  0  0
 11 14  1  0  0  0  0
 13 18  2  0  0  0  0
 14 10  1  0  0  0  0
 14 17  2  0  0  0  0
 15 12  2  0  0  0  0
 16  9  2  0  0  0  0
 17 15  1  0  0  0  0
 18 19  1  0  0  0  0
 20 19  1  0  0  0  0
 20 27  1  0  0  0  0
 22 25  1  0  0  0  0
 23 22  2  0  0  0  0
 24 21  1  0  0  0  0
 25 24  1  0  0  0  0
 25 28  1  0  0  0  0
 26 29  1  0  0  0  0
 27 26  1  0  0  0  0
 28 30  1  6  0  0  0
 28 29  1  0  0  0  0
 29 21  1  6  0  0  0
 30 27  2  0  0  0  0
 31 22  1  0  0  0  0
 32  7  1  0  0  0  0
 33 32  1  0  0  0  0
 34 33  1  0  0  0  0
 35 34  1  0  0  0  0
 36 35  1  0  0  0  0
 36 37  1  0  0  0  0
 37 42  1  0  0  0  0
 39 37  1  0  0  0  0
 39 38  2  0  0  0  0
 40 41  1  0  0  0  0
 41 39  1  0  0  0  0
 42 44  1  0  0  0  0
 44 43  1  0  0  0  0
M  END
>  <MODEL>
5

>  <REMARK>
 VINA RESULT:      -6.8      3.032      6.687
  Name = 
  13 active torsions:
  status: ('A' for Active; 'I' for Inactive)
    1  A    between atoms: C_1  and  N_3
    2  A    between atoms: C_1  and  C_44
    3  A    between atoms: N_3  and  C_29
    4  A    between atoms: C_4  and  N_10
    5  A    between atoms: C_4  and  N_42
    6  A    between atoms: N_10  and  C_19
    7  A    between atoms: C_16  and  N_22
    8  A    between atoms: C_16  and  C_24
    9  A    between atoms: C_19  and  C_24
   10  A    between atoms: N_20  and  C_21
   11  A    between atoms: C_21  and  N_42
   12  A    between atoms: C_31  and  C_32
   13  A    between atoms: C_32  and  N_42
                            x       y       z     vdW  Elec       q    Type
                         _______ _______ _______ _____ _____    ______ ____

>  <TORSDO>
F 13

$$$$
=
 OpenBabel11052409333D

 44 50  0  0  1  0  0  0  0  0999 V2000
  161.8650  206.0670  148.4530 C   0  0  0  0  0  3  0  0  0  0  0  0
  162.1520  208.6290  150.7860 C   0  0  0  0  0  0  0  0  0  0  0  0
  162.0510  208.6110  148.4220 C   0  0  0  0  0  3  0  0  0  0  0  0
  161.5330  206.5640  152.6160 C   0  0  0  0  0  0  0  0  0  0  0  0
  162.3670  207.3870  150.4360 C   0  0  0  0  0  0  0  0  0  0  0  0
  160.5280  203.0990  150.4190 N   0  0  0  0  0  2  0  0  0  0  0  0
  161.9730  209.4470  149.6270 N   0  0  0  0  0  0  0  0  0  0  0  0
  162.2280  207.2410  148.9990 C   0  0  0  0  0  0  0  0  0  0  0  0
  160.9210  203.6850  149.1700 C   0  0  0  0  0  0  0  0  0  0  0  0
  162.3610  206.2400  151.3860 C   0  0  0  0  0  0  0  0  0  0  0  0
  161.7120  204.9000  149.3670 C   0  0  0  0  0  0  0  0  0  0  0  0
  160.7630  205.6170  153.1960 C   0  0  0  0  0  3  0  0  0  0  0  0
  161.7870  208.9710  152.1830 C   0  0  0  0  0  3  0  0  0  0  0  0
  161.8480  205.0290  150.6810 C   0  0  0  0  0  0  0  0  0  0  0  0
  160.5360  204.2830  152.5590 C   0  0  0  0  0  3  0  0  0  0  0  0
  160.5710  203.2290  148.0530 O   0  0  0  0  0  0  0  0  0  0  0  0
  161.0720  204.0230  151.3590 C   0  0  0  0  0  0  0  0  0  0  0  0
  161.5110  207.9880  153.0680 C   0  0  0  0  0  0  0  0  0  0  0  0
  161.1250  208.3480  154.4610 C   0  0  0  0  0  2  0  0  0  0  0  0
  161.2570  209.7850  154.6470 N   0  0  0  0  0  2  0  0  0  0  0  0
  159.2970  213.7100  156.2380 C   0  0  0  0  0  2  0  0  0  0  0  0
  156.2460  211.9930  154.8960 C   0  0  0  0  0  0  0  0  0  0  0  0
  155.5520  212.8390  154.2700 O   0  0  0  0  0  0  0  0  0  0  0  0
  157.9840  213.7390  155.4740 C   0  0  0  0  0  2  0  0  0  0  0  0
  157.4980  212.3740  155.4750 N   0  0  0  0  0  0  0  0  0  0  0  0
  161.0180  211.6240  156.7430 S   0  0  0  0  0  0  0  0  0  0  0  0
  160.3800  210.5490  155.4780 C   0  0  0  0  0  0  0  0  0  0  0  0
  158.3290  211.4640  156.2400 C   0  0  2  0  0  3  0  0  0  0  0  0
  159.3580  212.3540  156.9330 C   0  0  2  0  0  3  0  0  0  0  0  0
  159.0690  210.5580  155.3190 C   0  0  0  0  0  3  0  0  0  0  0  0
  155.7840  210.6880  155.0210 O   0  0  0  0  0  1  0  0  0  0  0  0
  161.5290  210.8340  149.6320 C   0  0  0  0  0  2  0  0  0  0  0  0
  161.8470  211.5050  148.3000 C   0  0  0  0  0  2  0  0  0  0  0  0
  160.7480  212.4800  147.9030 C   0  0  0  0  0  2  0  0  0  0  0  0
  160.9110  213.7310  148.6240 N   0  0  0  0  0  2  0  0  0  0  0  0
  159.6550  214.4520  148.5030 C   0  0  0  0  0  2  0  0  0  0  0  0
  158.6110  213.7530  149.2440 N   0  0  0  0  0  0  0  0  0  0  0  0
  157.4790  213.5930  151.3700 C   0  0  0  0  0  2  0  0  0  0  0  0
  158.6160  213.6940  150.6840 C   0  0  0  0  0  0  0  0  0  0  0  0
  159.8240  212.6390  152.4820 N   0  0  0  0  0  1  0  0  0  0  0  0
  159.9030  213.6490  151.4420 C   0  0  0  0  0  2  0  0  0  0  0  0
  157.5330  213.1520  148.4690 C   0  0  0  0  0  2  0  0  0  0  0  0
  155.6010  214.4500  148.5410 C   0  0  0  0  0  1  0  0  0  0  0  0
  156.7940  214.1850  147.7610 N   0  0  0  0  0  2  0  0  0  0  0  0
  1  8  1  0  0  0  0
  1 11  2  0  0  0  0
  2 13  1  0  0  0  0
  3  8  2  0  0  0  0
  3  7  1  0  0  0  0
  4 18  1  0  0  0  0
  4 12  1  0  0  0  0
  5  2  2  0  0  0  0
  5 10  1  0  0  0  0
  6 17  1  0  0  0  0
  7 32  1  0  0  0  0
  7  2  1  0  0  0  0
  8  5  1  0  0  0  0
  9 11  1  0  0  0  0
  9  6  1  0  0  0  0
 10  4  2  0  0  0  0
 11 14  1  0  0  0  0
 13 18  2  0  0  0  0
 14 17  2  0  0  0  0
 14 10  1  0  0  0  0
 15 12  2  0  0  0  0
 16  9  2  0  0  0  0
 17 15  1  0  0  0  0
 18 19  1  0  0  0  0
 19 20  1  0  0  0  0
 20 27  1  0  0  0  0
 22 31  1  0  0  0  0
 22 25  1  0  0  0  0
 23 22  2  0  0  0  0
 24 25  1  0  0  0  0
 24 21  1  0  0  0  0
 25 28  1  0  0  0  0
 26 29  1  0  0  0  0
 27 26  1  0  0  0  0
 28 30  1  6  0  0  0
 28 29  1  0  0  0  0
 29 21  1  6  0  0  0
 30 27  2  0  0  0  0
 33 32  1  0  0  0  0
 34 33  1  0  0  0  0
 34 35  1  0  0  0  0
 36 35  1  0  0  0  0
 36 37  1  0  0  0  0
 37 39  1  0  0  0  0
 39 38  2  0  0  0  0
 39 41  1  0  0  0  0
 41 40  1  0  0  0  0
 42 37  1  0  0  0  0
 44 42  1  0  0  0  0
 44 43  1  0  0  0  0
M  END
>  <MODEL>
6

>  <REMARK>
 VINA RESULT:      -6.7      3.031      6.525
  Name = 
  13 active torsions:
  status: ('A' for Active; 'I' for Inactive)
    1  A    between atoms: C_1  and  N_3
    2  A    between atoms: C_1  and  C_44
    3  A    between atoms: N_3  and  C_29
    4  A    between atoms: C_4  and  N_10
    5  A    between atoms: C_4  and  N_42
    6  A    between atoms: N_10  and  C_19
    7  A    between atoms: C_16  and  N_22
    8  A    between atoms: C_16  and  C_24
    9  A    between atoms: C_19  and  C_24
   10  A    between atoms: N_20  and  C_21
   11  A    between atoms: C_21  and  N_42
   12  A    between atoms: C_31  and  C_32
   13  A    between atoms: C_32  and  N_42
                            x       y       z     vdW  Elec       q    Type
                         _______ _______ _______ _____ _____    ______ ____

>  <TORSDO>
F 13

$$$$
=
 OpenBabel11052409333D

 44 50  0  0  1  0  0  0  0  0999 V2000
  161.3420  210.8980  153.8680 C   0  0  0  0  0  3  0  0  0  0  0  0
  161.0670  208.7200  151.1720 C   0  0  0  0  0  0  0  0  0  0  0  0
  161.6520  211.0070  151.3390 C   0  0  0  0  0  3  0  0  0  0  0  0
  160.8880  206.7690  153.2110 C   0  0  0  0  0  0  0  0  0  0  0  0
  160.6980  209.0890  152.3720 C   0  0  0  0  0  0  0  0  0  0  0  0
  161.6520  208.6470  156.9170 N   0  0  0  0  0  2  0  0  0  0  0  0
  161.6360  209.8250  150.4650 N   0  0  0  0  0  0  0  0  0  0  0  0
  161.1030  210.4610  152.6190 C   0  0  0  0  0  0  0  0  0  0  0  0
  161.6460  209.9590  156.3390 C   0  0  0  0  0  0  0  0  0  0  0  0
  160.2890  208.1430  153.4460 C   0  0  0  0  0  0  0  0  0  0  0  0
  161.0770  209.9560  154.9910 C   0  0  0  0  0  0  0  0  0  0  0  0
  161.3270  206.0230  154.2490 C   0  0  0  0  0  3  0  0  0  0  0  0
  161.1920  207.2830  150.8260 C   0  0  0  0  0  3  0  0  0  0  0  0
  160.6970  208.7030  154.7670 C   0  0  0  0  0  0  0  0  0  0  0  0
  161.4240  206.5760  155.6350 C   0  0  0  0  0  3  0  0  0  0  0  0
  162.1280  210.9680  156.9120 O   0  0  0  0  0  0  0  0  0  0  0  0
  161.1100  207.8590  155.8590 C   0  0  0  0  0  0  0  0  0  0  0  0
  161.0860  206.3440  151.7920 C   0  0  0  0  0  0  0  0  0  0  0  0
  161.2350  204.9060  151.4320 C   0  0  0  0  0  2  0  0  0  0  0  0
  160.5130  204.6360  150.1980 N   0  0  0  0  0  2  0  0  0  0  0  0
  160.3730  201.8550  146.4540 C   0  0  0  0  0  2  0  0  0  0  0  0
  161.7570  204.9590  144.8690 C   0  0  0  0  0  0  0  0  0  0  0  0
  161.1700  205.1440  143.7700 O   0  0  0  0  0  0  0  0  0  0  0  0
  160.4170  202.8580  145.3140 C   0  0  0  0  0  2  0  0  0  0  0  0
  161.3860  203.8600  145.7090 N   0  0  0  0  0  0  0  0  0  0  0  0
  161.0870  202.1290  149.0960 S   0  0  0  0  0  0  0  0  0  0  0  0
  161.0770  203.9070  149.1060 C   0  0  0  0  0  0  0  0  0  0  0  0
  162.0440  203.5650  146.9670 C   0  0  2  0  0  3  0  0  0  0  0  0
  161.5760  202.1610  147.3400 C   0  0  2  0  0  3  0  0  0  0  0  0
  161.5570  204.4930  148.0240 C   0  0  0  0  0  3  0  0  0  0  0  0
  162.7690  205.8280  145.2590 O   0  0  0  0  0  1  0  0  0  0  0  0
  162.3240  209.7470  149.1850 C   0  0  0  0  0  2  0  0  0  0  0  0
  161.7970  210.8080  148.2250 C   0  0  0  0  0  2  0  0  0  0  0  0
  162.5390  212.1240  148.4030 C   0  0  0  0  0  2  0  0  0  0  0  0
  163.0480  212.5850  147.1220 N   0  0  0  0  0  2  0  0  0  0  0  0
  162.3250  213.8030  146.7960 C   0  0  0  0  0  2  0  0  0  0  0  0
  161.5400  213.6010  145.5840 N   0  0  0  0  0  0  0  0  0  0  0  0
  163.4550  213.3710  144.1330 C   0  0  0  0  0  2  0  0  0  0  0  0
  162.1530  213.1920  144.3450 C   0  0  0  0  0  0  0  0  0  0  0  0
  162.1810  212.2600  142.1230 N   0  0  0  0  0  1  0  0  0  0  0  0
  161.3620  212.4690  143.3040 C   0  0  0  0  0  2  0  0  0  0  0  0
  160.0980  213.7870  145.6860 C   0  0  0  0  0  2  0  0  0  0  0  0
  158.7610  212.9940  147.4200 C   0  0  0  0  0  1  0  0  0  0  0  0
  159.4790  212.5880  146.2280 N   0  0  0  0  0  2  0  0  0  0  0  0
  1 11  2  0  0  0  0
  2  5  1  0  0  0  0
  3  8  2  0  0  0  0
  4 10  1  0  0  0  0
  4 12  1  0  0  0  0
  5  8  1  0  0  0  0
  5 10  2  0  0  0  0
  7  2  1  0  0  0  0
  7  3  1  0  0  0  0
  8  1  1  0  0  0  0
  9 16  2  0  0  0  0
  9  6  1  0  0  0  0
 10 14  1  0  0  0  0
 11  9  1  0  0  0  0
 12 15  2  0  0  0  0
 13  2  2  0  0  0  0
 13 18  1  0  0  0  0
 14 11  1  0  0  0  0
 14 17  2  0  0  0  0
 15 17  1  0  0  0  0
 17  6  1  0  0  0  0
 18  4  2  0  0  0  0
 19 18  1  0  0  0  0
 20 19  1  0  0  0  0
 22 31  1  0  0  0  0
 22 25  1  0  0  0  0
 23 22  2  0  0  0  0
 24 25  1  0  0  0  0
 24 21  1  0  0  0  0
 25 28  1  0  0  0  0
 26 27  1  0  0  0  0
 27 20  1  0  0  0  0
 28 29  1  0  0  0  0
 28 30  1  1  0  0  0
 29 21  1  6  0  0  0
 29 26  1  0  0  0  0
 30 27  2  0  0  0  0
 32  7  1  0  0  0  0
 33 34  1  0  0  0  0
 33 32  1  0  0  0  0
 35 34  1  0  0  0  0
 36 35  1  0  0  0  0
 37 42  1  0  0  0  0
 37 36  1  0  0  0  0
 38 39  2  0  0  0  0
 39 37  1  0  0  0  0
 40 41  1  0  0  0  0
 41 39  1  0  0  0  0
 42 44  1  0  0  0  0
 44 43  1  0  0  0  0
M  END
>  <MODEL>
7

>  <REMARK>
 VINA RESULT:      -6.6      3.299      8.496
  Name = 
  13 active torsions:
  status: ('A' for Active; 'I' for Inactive)
    1  A    between atoms: C_1  and  N_3
    2  A    between atoms: C_1  and  C_44
    3  A    between atoms: N_3  and  C_29
    4  A    between atoms: C_4  and  N_10
    5  A    between atoms: C_4  and  N_42
    6  A    between atoms: N_10  and  C_19
    7  A    between atoms: C_16  and  N_22
    8  A    between atoms: C_16  and  C_24
    9  A    between atoms: C_19  and  C_24
   10  A    between atoms: N_20  and  C_21
   11  A    between atoms: C_21  and  N_42
   12  A    between atoms: C_31  and  C_32
   13  A    between atoms: C_32  and  N_42
                            x       y       z     vdW  Elec       q    Type
                         _______ _______ _______ _____ _____    ______ ____

>  <TORSDO>
F 13

$$$$
=
 OpenBabel11052409333D

 44 50  0  0  1  0  0  0  0  0999 V2000
  161.4010  204.1580  145.9690 C   0  0  0  0  0  3  0  0  0  0  0  0
  161.7950  206.0900  148.8330 C   0  0  0  0  0  0  0  0  0  0  0  0
  161.6300  206.6350  146.5360 C   0  0  0  0  0  3  0  0  0  0  0  0
  161.1910  203.6560  150.1390 C   0  0  0  0  0  0  0  0  0  0  0  0
  161.9790  204.9640  148.1920 C   0  0  0  0  0  0  0  0  0  0  0  0
  160.0670  200.8230  147.2150 N   0  0  0  0  0  2  0  0  0  0  0  0
  161.5980  207.1620  147.9080 N   0  0  0  0  0  0  0  0  0  0  0  0
  161.7990  205.1660  146.7670 C   0  0  0  0  0  0  0  0  0  0  0  0
  160.4360  201.6840  146.1290 C   0  0  0  0  0  0  0  0  0  0  0  0
  161.9790  203.6250  148.8430 C   0  0  0  0  0  0  0  0  0  0  0  0
  161.2530  202.8100  146.5840 C   0  0  0  0  0  0  0  0  0  0  0  0
  160.4200  202.6060  150.5010 C   0  0  0  0  0  3  0  0  0  0  0  0
  161.4730  206.0940  150.2820 C   0  0  0  0  0  3  0  0  0  0  0  0
  161.4260  202.6210  147.8870 C   0  0  0  0  0  0  0  0  0  0  0  0
  160.1530  201.4640  149.5740 C   0  0  0  0  0  3  0  0  0  0  0  0
  160.0480  201.5100  144.9470 O   0  0  0  0  0  0  0  0  0  0  0  0
  160.6520  201.4910  148.3300 C   0  0  0  0  0  0  0  0  0  0  0  0
  161.2050  204.9320  150.9160 C   0  0  0  0  0  0  0  0  0  0  0  0
  160.8630  204.9550  152.3670 C   0  0  0  0  0  2  0  0  0  0  0  0
  161.6800  205.9510  153.0430 N   0  0  0  0  0  2  0  0  0  0  0  0
  161.8950  209.5930  155.9530 C   0  0  0  0  0  2  0  0  0  0  0  0
  159.9800  211.1610  153.1370 C   0  0  0  0  0  0  0  0  0  0  0  0
  160.4460  212.3130  152.9270 O   0  0  0  0  0  1  0  0  0  0  0  0
  161.6230  210.7590  155.0190 C   0  0  0  0  0  2  0  0  0  0  0  0
  160.5620  210.3180  154.1360 N   0  0  0  0  0  0  0  0  0  0  0  0
  161.3650  206.9100  155.6530 S   0  0  0  0  0  0  0  0  0  0  0  0
  161.1340  206.9640  153.8910 C   0  0  0  0  0  0  0  0  0  0  0  0
  160.0540  208.9980  154.4570 C   0  0  2  0  0  3  0  0  0  0  0  0
  160.7370  208.6180  155.7680 C   0  0  2  0  0  3  0  0  0  0  0  0
  160.4940  208.0200  153.4240 C   0  0  0  0  0  3  0  0  0  0  0  0
  158.8930  210.7170  152.3920 O   0  0  0  0  0  0  0  0  0  0  0  0
  161.1790  208.5120  148.2540 C   0  0  0  0  0  2  0  0  0  0  0  0
  162.3500  209.3130  148.8140 C   0  0  0  0  0  2  0  0  0  0  0  0
  161.9250  210.1240  150.0300 C   0  0  0  0  0  2  0  0  0  0  0  0
  161.8980  211.5380  149.6980 N   0  0  0  0  0  2  0  0  0  0  0  0
  162.1840  211.6420  148.2770 C   0  0  0  0  0  2  0  0  0  0  0  0
  161.5420  212.8310  147.7300 N   0  0  0  0  0  0  0  0  0  0  0  0
  160.3910  212.3470  145.6640 C   0  0  0  0  0  2  0  0  0  0  0  0
  161.3520  213.0030  146.3110 C   0  0  0  0  0  0  0  0  0  0  0  0
  162.9870  213.3050  144.5670 N   0  0  0  0  0  1  0  0  0  0  0  0
  162.1670  213.9950  145.5460 C   0  0  0  0  0  2  0  0  0  0  0  0
  161.0570  213.8240  148.6810 C   0  0  0  0  0  2  0  0  0  0  0  0
  159.2380  214.0030  150.1220 C   0  0  0  0  0  1  0  0  0  0  0  0
  159.6050  213.7920  148.7350 N   0  0  0  0  0  2  0  0  0  0  0  0
  1 11  2  0  0  0  0
  1  8  1  0  0  0  0
  2 13  1  0  0  0  0
  3  8  2  0  0  0  0
  3  7  1  0  0  0  0
  4 12  1  0  0  0  0
  4 18  1  0  0  0  0
  5  2  2  0  0  0  0
  5 10  1  0  0  0  0
  6 17  1  0  0  0  0
  7 32  1  0  0  0  0
  7  2  1  0  0  0  0
  8  5  1  0  0  0  0
  9 11  1  0  0  0  0
  9  6  1  0  0  0  0
 10  4  2  0  0  0  0
 11 14  1  0  0  0  0
 13 18  2  0  0  0  0
 14 17  2  0  0  0  0
 14 10  1  0  0  0  0
 15 12  2  0  0  0  0
 16  9  2  0  0  0  0
 17 15  1  0  0  0  0
 18 19  1  0  0  0  0
 19 20  1  0  0  0  0
 20 27  1  0  0  0  0
 22 25  1  0  0  0  0
 23 22  1  0  0  0  0
 24 21  1  0  0  0  0
 25 28  1  0  0  0  0
 25 24  1  0  0  0  0
 26 29  1  0  0  0  0
 27 26  1  0  0  0  0
 28 30  1  6  0  0  0
 28 29  1  0  0  0  0
 29 21  1  6  0  0  0
 30 27  2  0  0  0  0
 31 22  2  0  0  0  0
 32 33  1  0  0  0  0
 33 34  1  0  0  0  0
 35 34  1  0  0  0  0
 36 35  1  0  0  0  0
 37 36  1  0  0  0  0
 37 42  1  0  0  0  0
 38 39  2  0  0  0  0
 39 37  1  0  0  0  0
 40 41  1  0  0  0  0
 41 39  1  0  0  0  0
 42 44  1  0  0  0  0
 44 43  1  0  0  0  0
M  END
>  <MODEL>
8

>  <REMARK>
 VINA RESULT:      -6.5      2.815      6.598
  Name = 
  13 active torsions:
  status: ('A' for Active; 'I' for Inactive)
    1  A    between atoms: C_1  and  N_3
    2  A    between atoms: C_1  and  C_44
    3  A    between atoms: N_3  and  C_29
    4  A    between atoms: C_4  and  N_10
    5  A    between atoms: C_4  and  N_42
    6  A    between atoms: N_10  and  C_19
    7  A    between atoms: C_16  and  N_22
    8  A    between atoms: C_16  and  C_24
    9  A    between atoms: C_19  and  C_24
   10  A    between atoms: N_20  and  C_21
   11  A    between atoms: C_21  and  N_42
   12  A    between atoms: C_31  and  C_32
   13  A    between atoms: C_32  and  N_42
                            x       y       z     vdW  Elec       q    Type
                         _______ _______ _______ _____ _____    ______ ____

>  <TORSDO>
F 13

$$$$
=
 OpenBabel11052409333D

 44 50  0  0  1  0  0  0  0  0999 V2000
  161.6260  204.7840  147.1110 C   0  0  0  0  0  3  0  0  0  0  0  0
  161.8540  207.1680  149.6320 C   0  0  0  0  0  0  0  0  0  0  0  0
  161.7740  207.3260  147.2720 C   0  0  0  0  0  3  0  0  0  0  0  0
  161.2500  204.9640  151.2960 C   0  0  0  0  0  0  0  0  0  0  0  0
  162.0900  205.9590  149.1920 C   0  0  0  0  0  0  0  0  0  0  0  0
  160.3170  201.6590  148.8360 N   0  0  0  0  0  2  0  0  0  0  0  0
  161.6720  208.0680  148.5360 N   0  0  0  0  0  0  0  0  0  0  0  0
  161.9660  205.9190  147.7470 C   0  0  0  0  0  0  0  0  0  0  0  0
  160.7120  202.3420  147.6390 C   0  0  0  0  0  0  0  0  0  0  0  0
  162.0930  204.7450  150.0540 C   0  0  0  0  0  0  0  0  0  0  0  0
  161.4820  203.5500  147.9330 C   0  0  0  0  0  0  0  0  0  0  0  0
  160.4890  203.9650  151.7960 C   0  0  0  0  0  3  0  0  0  0  0  0
  161.4710  207.4000  151.0470 C   0  0  0  0  0  3  0  0  0  0  0  0
  161.6050  203.5820  149.2550 C   0  0  0  0  0  0  0  0  0  0  0  0
  160.2880  202.6790  151.0590 C   0  0  0  0  0  3  0  0  0  0  0  0
  160.3780  201.9660  146.4870 O   0  0  0  0  0  0  0  0  0  0  0  0
  160.8380  202.5170  149.8490 C   0  0  0  0  0  0  0  0  0  0  0  0
  161.2020  206.3490  151.8530 C   0  0  0  0  0  0  0  0  0  0  0  0
  160.7980  206.5990  153.2660 C   0  0  0  0  0  2  0  0  0  0  0  0
  161.4300  207.8190  153.7440 N   0  0  0  0  0  2  0  0  0  0  0  0
  161.4770  211.3140  156.8350 C   0  0  0  0  0  2  0  0  0  0  0  0
  158.1620  211.9680  155.2090 C   0  0  0  0  0  0  0  0  0  0  0  0
  158.0550  213.2070  155.0030 O   0  0  0  0  0  1  0  0  0  0  0  0
  160.4510  212.2670  156.2490 C   0  0  0  0  0  2  0  0  0  0  0  0
  159.3600  211.4340  155.7830 N   0  0  0  0  0  0  0  0  0  0  0  0
  161.8770  208.6300  156.3850 S   0  0  0  0  0  0  0  0  0  0  0  0
  160.9500  208.5570  154.8700 C   0  0  1  0  0  3  0  0  0  0  0  0
  159.5380  210.0270  156.0840 C   0  0  2  0  0  3  0  0  0  0  0  0
  160.7800  209.9640  156.9690 C   0  0  2  0  0  3  0  0  0  0  0  0
  159.8420  209.2760  154.8340 C   0  0  0  0  0  2  0  0  0  0  0  0
  157.1080  211.1260  154.8790 O   0  0  0  0  0  0  0  0  0  0  0  0
  161.2070  209.4440  148.6390 C   0  0  0  0  0  2  0  0  0  0  0  0
  162.3840  210.3980  148.8160 C   0  0  0  0  0  2  0  0  0  0  0  0
  161.9420  211.8460  148.6640 C   0  0  0  0  0  2  0  0  0  0  0  0
  162.6000  212.4490  147.5170 N   0  0  0  0  0  2  0  0  0  0  0  0
  161.6730  213.4220  146.9640 C   0  0  0  0  0  2  0  0  0  0  0  0
  161.0940  212.9060  145.7290 N   0  0  0  0  0  0  0  0  0  0  0  0
  163.0860  213.3300  144.4350 C   0  0  0  0  0  2  0  0  0  0  0  0
  161.8080  212.9600  144.4790 C   0  0  0  0  0  0  0  0  0  0  0  0
  162.1790  212.2170  142.2160 N   0  0  0  0  0  1  0  0  0  0  0  0
  161.1610  212.5090  143.2090 C   0  0  0  0  0  2  0  0  0  0  0  0
  159.7760  212.2910  145.8190 C   0  0  0  0  0  2  0  0  0  0  0  0
  157.7000  212.5730  146.8360 C   0  0  0  0  0  1  0  0  0  0  0  0
  158.7860  213.2880  146.1940 N   0  0  0  0  0  2  0  0  0  0  0  0
  1  8  1  0  0  0  0
  1 11  2  0  0  0  0
  2 13  1  0  0  0  0
  3  8  2  0  0  0  0
  3  7  1  0  0  0  0
  4 12  1  0  0  0  0
  4 18  1  0  0  0  0
  5  2  2  0  0  0  0
  5 10  1  0  0  0  0
  6 17  1  0  0  0  0
  7 32  1  0  0  0  0
  7  2  1  0  0  0  0
  8  5  1  0  0  0  0
  9 11  1  0  0  0  0
  9  6  1  0  0  0  0
 10  4  2  0  0  0  0
 11 14  1  0  0  0  0
 13 18  2  0  0  0  0
 14 17  2  0  0  0  0
 14 10  1  0  0  0  0
 15 12  2  0  0  0  0
 16  9  2  0  0  0  0
 17 15  1  0  0  0  0
 18 19  1  0  0  0  0
 19 20  1  0  0  0  0
 22 25  1  0  0  0  0
 23 22  1  0  0  0  0
 24 21  1  0  0  0  0
 25 28  1  0  0  0  0
 25 24  1  0  0  0  0
 26 29  1  0  0  0  0
 27 20  1  6  0  0  0
 27 26  1  0  0  0  0
 28 30  1  6  0  0  0
 28 29  1  0  0  0  0
 29 21  1  6  0  0  0
 30 27  1  0  0  0  0
 31 22  2  0  0  0  0
 32 33  1  0  0  0  0
 34 33  1  0  0  0  0
 35 34  1  0  0  0  0
 36 35  1  0  0  0  0
 37 42  1  0  0  0  0
 37 36  1  0  0  0  0
 38 39  2  0  0  0  0
 39 37  1  0  0  0  0
 40 41  1  0  0  0  0
 41 39  1  0  0  0  0
 42 44  1  0  0  0  0
 44 43  1  0  0  0  0
M  END
>  <MODEL>
9

>  <REMARK>
 VINA RESULT:      -6.3      3.037      7.408
  Name = 
  13 active torsions:
  status: ('A' for Active; 'I' for Inactive)
    1  A    between atoms: C_1  and  N_3
    2  A    between atoms: C_1  and  C_44
    3  A    between atoms: N_3  and  C_29
    4  A    between atoms: C_4  and  N_10
    5  A    between atoms: C_4  and  N_42
    6  A    between atoms: N_10  and  C_19
    7  A    between atoms: C_16  and  N_22
    8  A    between atoms: C_16  and  C_24
    9  A    between atoms: C_19  and  C_24
   10  A    between atoms: N_20  and  C_21
   11  A    between atoms: C_21  and  N_42
   12  A    between atoms: C_31  and  C_32
   13  A    between atoms: C_32  and  N_42
                            x       y       z     vdW  Elec       q    Type
                         _______ _______ _______ _____ _____    ______ ____

>  <TORSDO>
F 13

$$$$
