=
 OpenBabel11052411433D

 42 49  0  0  1  0  0  0  0  0999 V2000
  161.1370  204.0100  151.0530 C   0  0  0  0  0  0  0  0  0  0  0  0
  160.8450  205.5960  152.8400 C   0  0  0  0  0  3  0  0  0  0  0  0
  160.8180  204.2940  152.3710 C   0  0  0  0  0  3  0  0  0  0  0  0
  162.5090  209.3680  150.9160 C   0  0  1  0  0  3  0  0  0  0  0  0
  161.5790  209.6230  148.8410 C   0  0  0  0  0  0  0  0  0  0  0  0
  161.7420  212.2910  148.8360 C   0  0  1  0  0  3  0  0  0  0  0  0
  161.8220  209.1600  152.2030 C   0  0  0  0  0  0  0  0  0  0  0  0
  161.8890  204.7810  148.7670 C   0  0  0  0  0  1  0  0  0  0  0  0
  161.1330  209.3390  147.6970 O   0  0  0  0  0  0  0  0  0  0  0  0
  161.7850  210.0370  153.1960 C   0  0  0  0  0  2  0  0  0  0  0  0
  162.1210  210.8950  149.3020 C   0  0  1  0  0  0  0  0  0  0  0  0
  161.7200  208.7150  149.8910 N   0  0  0  0  0  0  0  0  0  0  0  0
  161.1900  206.6870  152.0320 C   0  0  0  0  0  0  0  0  0  0  0  0
  161.4900  206.4150  150.6420 C   0  0  0  0  0  0  0  0  0  0  0  0
  161.2360  207.9000  152.6530 C   0  0  0  0  0  0  0  0  0  0  0  0
  160.1170  207.3790  155.0100 C   0  0  0  0  0  1  0  0  0  0  0  0
  160.8440  208.2460  154.0380 C   0  0  0  0  0  0  0  0  0  0  0  0
  162.6410  210.7590  150.6010 O   0  0  0  0  0  0  0  0  0  0  0  0
  161.6750  207.3270  149.7210 N   0  0  0  0  0  2  0  0  0  0  0  0
  163.0360  211.6250  148.3510 C   0  0  0  0  0  2  0  0  0  0  0  0
  161.1510  209.4660  154.3340 N   0  0  0  0  0  0  0  0  0  0  0  0
  161.4890  205.0680  150.1850 C   0  0  0  0  0  0  0  0  0  0  0  0
  158.9550  213.5520  145.8060 N   0  0  1  0  0  0  0  0  0  0  0  0
  159.4150  212.9560  148.2210 C   0  0  0  0  0  2  0  0  0  0  0  0
  160.3330  214.0340  145.9290 C   0  0  0  0  0  2  0  0  0  0  0  0
  160.6930  212.2750  147.7330 C   0  0  1  0  0  3  0  0  0  0  0  0
  158.3930  213.0210  147.0820 C   0  0  1  0  0  3  0  0  0  0  0  0
  161.2520  212.9370  146.4680 C   0  0  0  0  0  2  0  0  0  0  0  0
  158.1460  214.4050  146.6910 C   0  0  0  0  0  2  0  0  0  0  0  0
  161.0870  202.6310  150.6530 N   0  0  0  0  0  2  0  0  0  0  0  0
  160.4380  202.1650  149.4990 N   0  0  0  0  0  2  0  0  0  0  0  0
  161.2270  201.0610  148.9770 C   0  0  0  0  0  2  0  0  0  0  0  0
  161.1060  201.0220  147.4960 C   0  0  0  0  0  0  0  0  0  0  0  0
  160.8030  202.2190  146.7790 N   0  0  0  0  0  2  0  0  0  0  0  0
  161.3050  199.9410  146.8810 O   0  0  0  0  0  0  0  0  0  0  0  0
  160.7880  202.2510  145.3770 N   0  0  0  0  0  2  0  0  0  0  0  0
  162.6060  205.5510  145.4320 C   0  0  0  0  0  2  0  0  0  0  0  0
  159.9640  204.5470  145.2920 C   0  0  0  0  0  2  0  0  0  0  0  0
  162.3960  204.0590  145.6860 C   0  0  0  0  0  2  0  0  0  0  0  0
  161.1250  203.6060  144.9720 C   0  0  0  0  0  3  0  0  0  0  0  0
  160.4200  205.9890  145.0720 C   0  0  0  0  0  2  0  0  0  0  0  0
  161.5050  206.2810  145.9190 O   0  0  0  0  0  0  0  0  0  0  0  0
  1  3  1  0  0  0  0
  3  2  2  0  0  0  0
  4 18  1  6  0  0  0
  4  7  1  0  0  0  0
  5 11  1  0  0  0  0
  5 12  1  0  0  0  0
  6 20  1  6  0  0  0
  6 11  1  0  0  0  0
  7 15  2  0  0  0  0
  7 10  1  0  0  0  0
  8 22  1  0  0  0  0
  9  5  2  0  0  0  0
 10 21  1  0  0  0  0
 11 20  1  6  0  0  0
 11 18  1  0  0  0  0
 12  4  1  0  0  0  0
 13 15  1  0  0  0  0
 13  2  1  0  0  0  0
 14 13  2  0  0  0  0
 15 17  1  0  0  0  0
 17 21  2  0  0  0  0
 17 16  1  0  0  0  0
 19 12  1  0  0  0  0
 19 14  1  0  0  0  0
 22 14  1  0  0  0  0
 22  1  2  0  0  0  0
 23 25  1  1  0  0  0
 23 29  1  0  0  0  0
 23 27  1  0  0  0  0
 25 28  1  0  0  0  0
 26 28  1  6  0  0  0
 26 24  1  0  0  0  0
 26  6  1  0  0  0  0
 27 29  1  1  0  0  0
 27 24  1  0  0  0  0
 30  1  1  0  0  0  0
 31 30  1  0  0  0  0
 32 31  1  0  0  0  0
 33 32  1  0  0  0  0
 34 33  1  0  0  0  0
 35 33  2  0  0  0  0
 36 34  1  0  0  0  0
 37 39  1  0  0  0  0
 37 42  1  0  0  0  0
 40 38  1  0  0  0  0
 40 36  1  0  0  0  0
 40 39  1  0  0  0  0
 41 38  1  0  0  0  0
 41 42  1  0  0  0  0
M  END
>  <MODEL>
1

>  <REMARK>
 VINA RESULT:      -8.6      0.000      0.000
  Name = 
  7 active torsions:
  status: ('A' for Active; 'I' for Inactive)
    1  A    between atoms: N_5  and  N_15
    2  A    between atoms: N_5  and  C_25
    3  A    between atoms: C_6  and  C_20
    4  A    between atoms: C_7  and  N_22
    5  A    between atoms: C_11  and  C_14
    6  A    between atoms: C_14  and  N_35
    7  A    between atoms: N_22  and  N_35
                            x       y       z     vdW  Elec       q    Type
                         _______ _______ _______ _____ _____    ______ ____

>  <TORSDO>
F 7

$$$$
=
 OpenBabel11052411433D

 42 49  0  0  1  0  0  0  0  0999 V2000
  161.8950  207.0150  148.2980 C   0  0  0  0  0  0  0  0  0  0  0  0
  161.5140  205.6410  150.2370 C   0  0  0  0  0  3  0  0  0  0  0  0
  161.7810  205.7650  148.8840 C   0  0  0  0  0  3  0  0  0  0  0  0
  161.5560  208.7800  153.5300 C   0  0  1  0  0  3  0  0  0  0  0  0
  160.1920  210.5150  152.9290 C   0  0  0  0  0  0  0  0  0  0  0  0
  159.5510  211.1910  155.4340 C   0  0  1  0  0  3  0  0  0  0  0  0
  161.2370  207.3420  153.5690 C   0  0  0  0  0  0  0  0  0  0  0  0
  161.9050  209.5340  148.4960 C   0  0  0  0  0  1  0  0  0  0  0  0
  159.6290  211.3920  152.2190 O   0  0  0  0  0  0  0  0  0  0  0  0
  161.1430  206.6110  154.6710 C   0  0  0  0  0  2  0  0  0  0  0  0
  160.4130  210.5340  154.3700 C   0  0  1  0  0  0  0  0  0  0  0  0
  160.8060  209.3630  152.4370 N   0  0  0  0  0  0  0  0  0  0  0  0
  161.3480  206.7460  151.0830 C   0  0  0  0  0  0  0  0  0  0  0  0
  161.4260  208.0600  150.4810 C   0  0  0  0  0  0  0  0  0  0  0  0
  161.1560  206.4640  152.4040 C   0  0  0  0  0  0  0  0  0  0  0  0
  160.7430  203.8360  152.3740 C   0  0  0  0  0  1  0  0  0  0  0  0
  160.9680  205.1460  153.0500 C   0  0  0  0  0  0  0  0  0  0  0  0
  161.2020  209.4350  154.7540 O   0  0  0  0  0  0  0  0  0  0  0  0
  161.1420  209.1840  151.0910 N   0  0  0  0  0  2  0  0  0  0  0  0
  160.8570  211.8450  154.9680 C   0  0  0  0  0  2  0  0  0  0  0  0
  160.9510  205.2410  154.3390 N   0  0  0  0  0  0  0  0  0  0  0  0
  161.7340  208.1700  149.0970 C   0  0  0  0  0  0  0  0  0  0  0  0
  156.0860  213.7130  155.0130 N   0  0  1  0  0  0  0  0  0  0  0  0
  157.0660  211.4340  155.5100 C   0  0  0  0  0  2  0  0  0  0  0  0
  157.3380  214.1110  155.6640 C   0  0  0  0  0  2  0  0  0  0  0  0
  158.3530  211.9240  154.8470 C   0  0  1  0  0  3  0  0  0  0  0  0
  155.8720  212.2370  154.9840 C   0  0  1  0  0  3  0  0  0  0  0  0
  158.5390  213.4390  154.9980 C   0  0  0  0  0  2  0  0  0  0  0  0
  155.2850  213.0430  156.0500 C   0  0  0  0  0  2  0  0  0  0  0  0
  162.1780  207.0510  146.8900 N   0  0  0  0  0  2  0  0  0  0  0  0
  162.3310  205.9110  146.0850 N   0  0  0  0  0  2  0  0  0  0  0  0
  161.1920  205.8650  145.1830 C   0  0  0  0  0  2  0  0  0  0  0  0
  160.8060  204.4500  144.9450 C   0  0  0  0  0  0  0  0  0  0  0  0
  161.4490  203.4070  145.6800 N   0  0  0  0  0  2  0  0  0  0  0  0
  159.8910  204.1810  144.1220 O   0  0  0  0  0  0  0  0  0  0  0  0
  161.0400  202.0700  145.5670 N   0  0  0  0  0  2  0  0  0  0  0  0
  160.4730  202.2880  149.2860 C   0  0  0  0  0  2  0  0  0  0  0  0
  161.5810  200.5210  147.3740 C   0  0  0  0  0  2  0  0  0  0  0  0
  160.6640  202.8080  147.8620 C   0  0  0  0  0  2  0  0  0  0  0  0
  160.6430  201.6270  146.8940 C   0  0  0  0  0  3  0  0  0  0  0  0
  161.2920  200.2300  148.8460 C   0  0  0  0  0  2  0  0  0  0  0  0
  161.5070  201.3900  149.6130 O   0  0  0  0  0  0  0  0  0  0  0  0
  1  3  2  0  0  0  0
  1 22  1  0  0  0  0
  2 13  2  0  0  0  0
  3  2  1  0  0  0  0
  4  7  1  1  0  0  0
  4 18  1  0  0  0  0
  5 11  1  0  0  0  0
  6 20  1  6  0  0  0
  7 10  1  0  0  0  0
  8 22  1  0  0  0  0
  9  5  2  0  0  0  0
 11 18  1  0  0  0  0
 11 20  1  1  0  0  0
 11  6  1  0  0  0  0
 12  5  1  0  0  0  0
 12  4  1  0  0  0  0
 13 15  1  0  0  0  0
 14 13  1  0  0  0  0
 14 19  1  0  0  0  0
 15 17  1  0  0  0  0
 15  7  2  0  0  0  0
 16 17  1  0  0  0  0
 17 21  2  0  0  0  0
 19 12  1  0  0  0  0
 21 10  1  0  0  0  0
 22 14  2  0  0  0  0
 23 25  1  1  0  0  0
 23 29  1  0  0  0  0
 26 28  1  1  0  0  0
 26  6  1  0  0  0  0
 26 24  1  0  0  0  0
 27 23  1  0  0  0  0
 27 24  1  1  0  0  0
 27 29  1  0  0  0  0
 28 25  1  0  0  0  0
 30  1  1  0  0  0  0
 31 30  1  0  0  0  0
 32 31  1  0  0  0  0
 33 32  1  0  0  0  0
 33 34  1  0  0  0  0
 35 33  2  0  0  0  0
 36 34  1  0  0  0  0
 36 40  1  0  0  0  0
 37 42  1  0  0  0  0
 38 41  1  0  0  0  0
 39 37  1  0  0  0  0
 40 38  1  0  0  0  0
 40 39  1  0  0  0  0
 41 42  1  0  0  0  0
M  END
>  <MODEL>
2

>  <REMARK>
 VINA RESULT:      -8.2      3.115      5.414
  Name = 
  7 active torsions:
  status: ('A' for Active; 'I' for Inactive)
    1  A    between atoms: N_5  and  N_15
    2  A    between atoms: N_5  and  C_25
    3  A    between atoms: C_6  and  C_20
    4  A    between atoms: C_7  and  N_22
    5  A    between atoms: C_11  and  C_14
    6  A    between atoms: C_14  and  N_35
    7  A    between atoms: N_22  and  N_35
                            x       y       z     vdW  Elec       q    Type
                         _______ _______ _______ _____ _____    ______ ____

>  <TORSDO>
F 7

$$$$
=
 OpenBabel11052411433D

 42 49  0  0  1  0  0  0  0  0999 V2000
  162.0910  208.2700  149.6900 C   0  0  0  0  0  0  0  0  0  0  0  0
  161.6400  206.9000  151.6180 C   0  0  0  0  0  3  0  0  0  0  0  0
  161.9710  207.0220  150.2790 C   0  0  0  0  0  3  0  0  0  0  0  0
  161.4600  210.0580  154.8880 C   0  0  1  0  0  3  0  0  0  0  0  0
  160.0950  211.7630  154.2080 C   0  0  0  0  0  0  0  0  0  0  0  0
  159.3180  212.4400  156.6740 C   0  0  1  0  0  3  0  0  0  0  0  0
  161.1670  208.6140  154.9200 C   0  0  0  0  0  0  0  0  0  0  0  0
  162.0430  210.7900  149.8710 C   0  0  0  0  0  1  0  0  0  0  0  0
  159.5510  212.6240  153.4660 O   0  0  0  0  0  0  0  0  0  0  0  0
  161.0340  207.8880  156.0210 C   0  0  0  0  0  2  0  0  0  0  0  0
  160.2440  211.7940  155.6580 C   0  0  1  0  0  0  0  0  0  0  0  0
  160.7550  210.6200  153.7550 N   0  0  0  0  0  0  0  0  0  0  0  0
  161.4120  208.0060  152.4470 C   0  0  0  0  0  0  0  0  0  0  0  0
  161.4950  209.3180  151.8410 C   0  0  0  0  0  0  0  0  0  0  0  0
  161.1600  207.7280  153.7580 C   0  0  0  0  0  0  0  0  0  0  0  0
  160.8000  205.0920  153.7260 C   0  0  0  0  0  1  0  0  0  0  0  0
  160.9660  206.4100  154.4040 C   0  0  0  0  0  0  0  0  0  0  0  0
  161.0350  210.7130  156.0880 O   0  0  0  0  0  0  0  0  0  0  0  0
  161.1600  210.4400  152.4280 N   0  0  0  0  0  2  0  0  0  0  0  0
  160.6340  213.1170  156.2690 C   0  0  0  0  0  2  0  0  0  0  0  0
  160.8840  206.5130  155.6890 N   0  0  0  0  0  0  0  0  0  0  0  0
  161.8680  209.4260  150.4730 C   0  0  0  0  0  0  0  0  0  0  0  0
  155.4400  214.1910  156.0160 N   0  0  1  0  0  0  0  0  0  0  0  0
  156.9650  212.1770  155.8810 C   0  0  0  0  0  2  0  0  0  0  0  0
  156.2740  214.4240  157.1980 C   0  0  0  0  0  2  0  0  0  0  0  0
  158.1370  213.1470  156.0240 C   0  0  1  0  0  3  0  0  0  0  0  0
  155.7480  212.9130  155.3110 C   0  0  1  0  0  3  0  0  0  0  0  0
  157.7590  214.3920  156.8360 C   0  0  0  0  0  2  0  0  0  0  0  0
  154.6720  212.9670  156.2950 C   0  0  0  0  0  2  0  0  0  0  0  0
  162.4410  208.3030  148.2970 N   0  0  0  0  0  2  0  0  0  0  0  0
  162.6280  207.1620  147.5020 N   0  0  0  0  0  2  0  0  0  0  0  0
  161.4400  207.0130  146.6770 C   0  0  0  0  0  2  0  0  0  0  0  0
  161.2350  205.5760  146.3590 C   0  0  0  0  0  0  0  0  0  0  0  0
  161.7650  204.5750  147.2290 N   0  0  0  0  0  2  0  0  0  0  0  0
  160.5680  205.2500  145.3410 O   0  0  0  0  0  0  0  0  0  0  0  0
  161.5020  203.2130  147.0270 N   0  0  0  0  0  2  0  0  0  0  0  0
  160.5600  202.9930  150.6690 C   0  0  0  0  0  2  0  0  0  0  0  0
  161.2370  201.2930  148.5100 C   0  0  0  0  0  2  0  0  0  0  0  0
  161.1030  203.6400  149.3950 C   0  0  0  0  0  2  0  0  0  0  0  0
  160.8070  202.7270  148.2080 C   0  0  0  0  0  3  0  0  0  0  0  0
  160.6760  200.8830  149.8710 C   0  0  0  0  0  2  0  0  0  0  0  0
  161.1710  201.7410  150.8710 O   0  0  0  0  0  0  0  0  0  0  0  0
  1  3  2  0  0  0  0
  1 22  1  0  0  0  0
  2 13  2  0  0  0  0
  3  2  1  0  0  0  0
  4  7  1  1  0  0  0
  4 18  1  0  0  0  0
  5 11  1  0  0  0  0
  6 20  1  6  0  0  0
  7 10  1  0  0  0  0
  8 22  1  0  0  0  0
  9  5  2  0  0  0  0
 11 18  1  0  0  0  0
 11 20  1  1  0  0  0
 11  6  1  0  0  0  0
 12  5  1  0  0  0  0
 12  4  1  0  0  0  0
 13 15  1  0  0  0  0
 14 19  1  0  0  0  0
 14 13  1  0  0  0  0
 15 17  1  0  0  0  0
 15  7  2  0  0  0  0
 16 17  1  0  0  0  0
 17 21  2  0  0  0  0
 19 12  1  0  0  0  0
 21 10  1  0  0  0  0
 22 14  2  0  0  0  0
 23 29  1  1  0  0  0
 23 25  1  0  0  0  0
 26 24  1  1  0  0  0
 26  6  1  0  0  0  0
 26 28  1  0  0  0  0
 27 24  1  1  0  0  0
 27 23  1  0  0  0  0
 27 29  1  0  0  0  0
 28 25  1  0  0  0  0
 30  1  1  0  0  0  0
 31 30  1  0  0  0  0
 32 31  1  0  0  0  0
 33 32  1  0  0  0  0
 33 34  1  0  0  0  0
 35 33  2  0  0  0  0
 36 34  1  0  0  0  0
 36 40  1  0  0  0  0
 37 42  1  0  0  0  0
 38 41  1  0  0  0  0
 39 37  1  0  0  0  0
 40 38  1  0  0  0  0
 40 39  1  0  0  0  0
 41 42  1  0  0  0  0
M  END
>  <MODEL>
3

>  <REMARK>
 VINA RESULT:      -8.2      3.623      6.108
  Name = 
  7 active torsions:
  status: ('A' for Active; 'I' for Inactive)
    1  A    between atoms: N_5  and  N_15
    2  A    between atoms: N_5  and  C_25
    3  A    between atoms: C_6  and  C_20
    4  A    between atoms: C_7  and  N_22
    5  A    between atoms: C_11  and  C_14
    6  A    between atoms: C_14  and  N_35
    7  A    between atoms: N_22  and  N_35
                            x       y       z     vdW  Elec       q    Type
                         _______ _______ _______ _____ _____    ______ ____

>  <TORSDO>
F 7

$$$$
=
 OpenBabel11052411433D

 42 49  0  0  1  0  0  0  0  0999 V2000
  160.9550  208.6710  153.4650 C   0  0  0  0  0  0  0  0  0  0  0  0
  159.3490  210.4480  153.6990 C   0  0  0  0  0  3  0  0  0  0  0  0
  159.8960  209.2560  154.1410 C   0  0  0  0  0  3  0  0  0  0  0  0
  160.8610  213.3830  150.5690 C   0  0  1  0  0  3  0  0  0  0  0  0
  161.2250  212.2650  148.6070 C   0  0  0  0  0  0  0  0  0  0  0  0
  160.7300  214.3720  147.0390 C   0  0  1  0  0  3  0  0  0  0  0  0
  159.6430  213.3960  151.3980 C   0  0  0  0  0  0  0  0  0  0  0  0
  162.6510  208.7160  151.5930 C   0  0  0  0  0  1  0  0  0  0  0  0
  161.5790  211.3600  147.8040 O   0  0  0  0  0  0  0  0  0  0  0  0
  158.8510  214.4440  151.5730 C   0  0  0  0  0  3  0  0  0  0  0  0
  161.0980  213.6940  148.3480 C   0  0  1  0  0  0  0  0  0  0  0  0
  160.9620  212.0710  149.9640 N   0  0  0  0  0  0  0  0  0  0  0  0
  159.8190  211.1260  152.5660 C   0  0  0  0  0  0  0  0  0  0  0  0
  160.9000  210.5110  151.8250 C   0  0  0  0  0  0  0  0  0  0  0  0
  159.2220  212.3220  152.2950 C   0  0  1  0  0  3  0  0  0  0  0  0
  157.1350  212.3080  153.9450 C   0  0  0  0  0  1  0  0  0  0  0  0
  158.0530  212.9440  152.9570 C   0  0  0  0  0  0  0  0  0  0  0  0
  160.8150  214.3800  149.5420 O   0  0  0  0  0  0  0  0  0  0  0  0
  161.3490  210.9260  150.6670 N   0  0  0  0  0  2  0  0  0  0  0  0
  162.1860  214.3300  147.5190 C   0  0  0  0  0  2  0  0  0  0  0  0
  157.8440  214.1460  152.5320 N   0  0  0  0  0  0  0  0  0  0  0  0
  161.4720  209.3030  152.3120 C   0  0  0  0  0  0  0  0  0  0  0  0
  160.2860  212.6630  143.1120 N   0  0  1  0  0  0  0  0  0  0  0  0
  159.2270  213.7120  145.1560 C   0  0  0  0  0  2  0  0  0  0  0  0
  161.3560  213.5820  143.5090 C   0  0  0  0  0  2  0  0  0  0  0  0
  160.5180  213.3800  145.9040 C   0  0  1  0  0  3  0  0  0  0  0  0
  159.0630  212.7700  143.9590 C   0  0  1  0  0  3  0  0  0  0  0  0
  161.7380  213.3760  144.9750 C   0  0  0  0  0  2  0  0  0  0  0  0
  159.1530  213.5100  142.7060 C   0  0  0  0  0  2  0  0  0  0  0  0
  161.4640  207.4360  153.9960 N   0  0  0  0  0  2  0  0  0  0  0  0
  160.9540  206.1680  153.6760 N   0  0  0  0  0  2  0  0  0  0  0  0
  161.9670  205.4840  152.8890 C   0  0  0  0  0  2  0  0  0  0  0  0
  161.3080  204.5460  151.9420 C   0  0  0  0  0  0  0  0  0  0  0  0
  161.5660  204.6570  150.5420 N   0  0  0  0  0  2  0  0  0  0  0  0
  160.5530  203.6400  152.3830 O   0  0  0  0  0  0  0  0  0  0  0  0
  161.0530  203.7270  149.6250 N   0  0  0  0  0  2  0  0  0  0  0  0
  161.9240  204.7870  146.1150 C   0  0  0  0  0  2  0  0  0  0  0  0
  161.0480  205.9210  148.5550 C   0  0  0  0  0  2  0  0  0  0  0  0
  161.9430  203.9010  147.3600 C   0  0  0  0  0  2  0  0  0  0  0  0
  160.9020  204.4140  148.3530 C   0  0  0  0  0  3  0  0  0  0  0  0
  161.1140  206.6020  147.1880 C   0  0  0  0  0  2  0  0  0  0  0  0
  162.2210  206.1170  146.4670 O   0  0  0  0  0  0  0  0  0  0  0  0
  1 30  1  0  0  0  0
  1  3  1  0  0  0  0
  2  3  2  0  0  0  0
  4 18  1  6  0  0  0
  4  7  1  0  0  0  0
  5 12  1  0  0  0  0
  6 20  1  6  0  0  0
  6 11  1  0  0  0  0
  7 10  2  0  0  0  0
  8 22  1  0  0  0  0
  9  5  2  0  0  0  0
 10 21  1  0  0  0  0
 11 20  1  6  0  0  0
 11  5  1  0  0  0  0
 11 18  1  0  0  0  0
 12  4  1  0  0  0  0
 12 19  1  0  0  0  0
 13  2  1  0  0  0  0
 14 22  1  0  0  0  0
 14 13  2  0  0  0  0
 15  7  1  1  0  0  0
 15 13  1  0  0  0  0
 15 17  1  0  0  0  0
 17 16  1  0  0  0  0
 19 14  1  0  0  0  0
 21 17  2  0  0  0  0
 22  1  2  0  0  0  0
 23 29  1  6  0  0  0
 23 25  1  0  0  0  0
 23 27  1  0  0  0  0
 24 26  1  0  0  0  0
 25 28  1  0  0  0  0
 26 28  1  6  0  0  0
 26  6  1  0  0  0  0
 27 29  1  6  0  0  0
 27 24  1  0  0  0  0
 31 30  1  0  0  0  0
 32 31  1  0  0  0  0
 33 35  2  0  0  0  0
 33 32  1  0  0  0  0
 34 33  1  0  0  0  0
 36 34  1  0  0  0  0
 37 42  1  0  0  0  0
 37 39  1  0  0  0  0
 39 40  1  0  0  0  0
 40 38  1  0  0  0  0
 40 36  1  0  0  0  0
 41 38  1  0  0  0  0
 42 41  1  0  0  0  0
M  END
>  <MODEL>
4

>  <REMARK>
 VINA RESULT:      -7.3      2.744      4.281
  Name = 
  7 active torsions:
  status: ('A' for Active; 'I' for Inactive)
    1  A    between atoms: N_5  and  N_15
    2  A    between atoms: N_5  and  C_25
    3  A    between atoms: C_6  and  C_20
    4  A    between atoms: C_7  and  N_22
    5  A    between atoms: C_11  and  C_14
    6  A    between atoms: C_14  and  N_35
    7  A    between atoms: N_22  and  N_35
                            x       y       z     vdW  Elec       q    Type
                         _______ _______ _______ _____ _____    ______ ____

>  <TORSDO>
F 7

$$$$
=
 OpenBabel11052411433D

 42 49  0  0  1  0  0  0  0  0999 V2000
  161.2780  206.3380  147.6730 C   0  0  0  0  0  0  0  0  0  0  0  0
  160.9750  204.9150  149.5910 C   0  0  0  0  0  3  0  0  0  0  0  0
  161.0940  205.0790  148.2210 C   0  0  0  0  0  3  0  0  0  0  0  0
  161.7490  207.8590  152.9720 C   0  0  1  0  0  3  0  0  0  0  0  0
  160.5260  209.7570  152.6070 C   0  0  0  0  0  0  0  0  0  0  0  0
  160.2600  210.3680  155.1950 C   0  0  1  0  0  3  0  0  0  0  0  0
  161.2790  206.4620  152.9930 C   0  0  0  0  0  0  0  0  0  0  0  0
  161.5890  208.8280  147.9640 C   0  0  0  0  0  1  0  0  0  0  0  0
  159.9840  210.7230  152.0050 O   0  0  0  0  0  0  0  0  0  0  0  0
  161.2350  205.6910  154.0700 C   0  0  0  0  0  2  0  0  0  0  0  0
  160.9140  209.6790  154.0100 C   0  0  1  0  0  0  0  0  0  0  0  0
  160.9460  208.5730  152.0000 N   0  0  0  0  0  0  0  0  0  0  0  0
  161.0330  205.9860  150.4920 C   0  0  0  0  0  0  0  0  0  0  0  0
  161.1860  207.3140  149.9360 C   0  0  0  0  0  0  0  0  0  0  0  0
  160.9660  205.6590  151.8140 C   0  0  0  0  0  0  0  0  0  0  0  0
  160.2640  203.0940  151.7350 C   0  0  0  0  0  1  0  0  0  0  0  0
  160.7100  204.3360  152.4290 C   0  0  0  0  0  0  0  0  0  0  0  0
  161.6160  208.4850  154.2530 O   0  0  0  0  0  0  0  0  0  0  0  0
  161.1010  208.4290  150.6180 N   0  0  0  0  0  2  0  0  0  0  0  0
  161.5680  210.9030  154.5990 C   0  0  0  0  0  2  0  0  0  0  0  0
  160.8550  204.3670  153.7120 N   0  0  0  0  0  0  0  0  0  0  0  0
  161.3400  207.4600  148.5300 C   0  0  0  0  0  0  0  0  0  0  0  0
  156.7890  212.9120  155.3490 N   0  0  1  0  0  0  0  0  0  0  0  0
  157.7720  210.5870  155.1790 C   0  0  0  0  0  2  0  0  0  0  0  0
  157.9900  213.0820  156.1720 C   0  0  0  0  0  2  0  0  0  0  0  0
  159.0910  211.2520  154.7870 C   0  0  1  0  0  3  0  0  0  0  0  0
  156.6010  211.5180  154.8510 C   0  0  1  0  0  3  0  0  0  0  0  0
  159.2420  212.6440  155.4120 C   0  0  0  0  0  2  0  0  0  0  0  0
  155.9350  211.9570  156.0720 C   0  0  0  0  0  2  0  0  0  0  0  0
  161.3950  206.4150  146.2430 N   0  0  0  0  0  2  0  0  0  0  0  0
  160.3360  206.1960  145.3500 N   0  0  0  0  0  2  0  0  0  0  0  0
  160.7500  205.1370  144.4430 C   0  0  0  0  0  2  0  0  0  0  0  0
  161.8480  205.6320  143.5720 C   0  0  0  0  0  0  0  0  0  0  0  0
  161.5820  205.9370  142.2030 N   0  0  0  0  0  2  0  0  0  0  0  0
  162.9970  205.8120  144.0560 O   0  0  0  0  0  0  0  0  0  0  0  0
  162.5590  206.5090  141.3750 N   0  0  0  0  0  2  0  0  0  0  0  0
  161.9540  207.1180  137.7060 C   0  0  0  0  0  2  0  0  0  0  0  0
  161.9570  208.5350  140.1550 C   0  0  0  0  0  2  0  0  0  0  0  0
  162.5170  206.4100  138.9380 C   0  0  0  0  0  2  0  0  0  0  0  0
  161.8820  207.0100  140.1900 C   0  0  0  0  0  3  0  0  0  0  0  0
  161.4460  209.0260  138.8010 C   0  0  0  0  0  2  0  0  0  0  0  0
  162.2410  208.4950  137.7690 O   0  0  0  0  0  0  0  0  0  0  0  0
  1  3  2  0  0  0  0
  1 22  1  0  0  0  0
  2 13  2  0  0  0  0
  3  2  1  0  0  0  0
  4  7  1  1  0  0  0
  4 18  1  0  0  0  0
  5 11  1  0  0  0  0
  6 20  1  6  0  0  0
  7 10  1  0  0  0  0
  8 22  1  0  0  0  0
  9  5  2  0  0  0  0
 11 18  1  0  0  0  0
 11 20  1  6  0  0  0
 11  6  1  0  0  0  0
 12  5  1  0  0  0  0
 12  4  1  0  0  0  0
 13 15  1  0  0  0  0
 14 13  1  0  0  0  0
 14 19  1  0  0  0  0
 15 17  1  0  0  0  0
 15  7  2  0  0  0  0
 16 17  1  0  0  0  0
 17 21  2  0  0  0  0
 19 12  1  0  0  0  0
 21 10  1  0  0  0  0
 22 14  2  0  0  0  0
 23 29  1  1  0  0  0
 23 25  1  0  0  0  0
 26 24  1  1  0  0  0
 26  6  1  0  0  0  0
 26 28  1  0  0  0  0
 27 24  1  1  0  0  0
 27 23  1  0  0  0  0
 27 29  1  0  0  0  0
 28 25  1  0  0  0  0
 30  1  1  0  0  0  0
 31 30  1  0  0  0  0
 32 31  1  0  0  0  0
 33 35  2  0  0  0  0
 33 32  1  0  0  0  0
 34 33  1  0  0  0  0
 36 34  1  0  0  0  0
 37 42  1  0  0  0  0
 37 39  1  0  0  0  0
 38 40  1  0  0  0  0
 39 40  1  0  0  0  0
 40 36  1  0  0  0  0
 41 38  1  0  0  0  0
 42 41  1  0  0  0  0
M  END
>  <MODEL>
5

>  <REMARK>
 VINA RESULT:      -6.0      3.907      5.996
  Name = 
  7 active torsions:
  status: ('A' for Active; 'I' for Inactive)
    1  A    between atoms: N_5  and  N_15
    2  A    between atoms: N_5  and  C_25
    3  A    between atoms: C_6  and  C_20
    4  A    between atoms: C_7  and  N_22
    5  A    between atoms: C_11  and  C_14
    6  A    between atoms: C_14  and  N_35
    7  A    between atoms: N_22  and  N_35
                            x       y       z     vdW  Elec       q    Type
                         _______ _______ _______ _____ _____    ______ ____

>  <TORSDO>
F 7

$$$$
=
 OpenBabel11052411433D

 42 49  0  0  1  0  0  0  0  0999 V2000
  162.0190  207.4540  148.9780 C   0  0  0  0  0  0  0  0  0  0  0  0
  161.6070  206.1240  150.9410 C   0  0  0  0  0  3  0  0  0  0  0  0
  161.9190  206.2180  149.5950 C   0  0  0  0  0  3  0  0  0  0  0  0
  161.4420  209.3520  154.1420 C   0  0  1  0  0  3  0  0  0  0  0  0
  160.0530  211.0300  153.4430 C   0  0  0  0  0  0  0  0  0  0  0  0
  159.3020  211.7560  155.9030 C   0  0  1  0  0  3  0  0  0  0  0  0
  161.1620  207.9070  154.2100 C   0  0  0  0  0  0  0  0  0  0  0  0
  161.9510  209.9760  149.1030 C   0  0  0  0  0  1  0  0  0  0  0  0
  159.4910  211.8700  152.6890 O   0  0  0  0  0  0  0  0  0  0  0  0
  161.0490  207.2050  155.3290 C   0  0  0  0  0  2  0  0  0  0  0  0
  160.2210  211.0950  154.8900 C   0  0  1  0  0  0  0  0  0  0  0  0
  160.7160  209.8830  153.0060 N   0  0  0  0  0  0  0  0  0  0  0  0
  161.3790  207.2460  151.7480 C   0  0  0  0  0  0  0  0  0  0  0  0
  161.4430  208.5450  151.1120 C   0  0  0  0  0  0  0  0  0  0  0  0
  161.1470  206.9950  153.0690 C   0  0  0  0  0  0  0  0  0  0  0  0
  160.8100  204.3560  153.1000 C   0  0  0  0  0  1  0  0  0  0  0  0
  160.9740  205.6910  153.7460 C   0  0  0  0  0  0  0  0  0  0  0  0
  161.0260  210.0310  155.3330 O   0  0  0  0  0  0  0  0  0  0  0  0
  161.1050  209.6770  151.6790 N   0  0  0  0  0  2  0  0  0  0  0  0
  160.6060  212.4350  155.4660 C   0  0  0  0  0  2  0  0  0  0  0  0
  160.9080  205.8210  155.0300 N   0  0  0  0  0  0  0  0  0  0  0  0
  161.7970  208.6250  149.7370 C   0  0  0  0  0  0  0  0  0  0  0  0
  155.6780  214.0080  155.3220 N   0  0  1  0  0  0  0  0  0  0  0  0
  156.8110  211.7830  155.7310 C   0  0  0  0  0  2  0  0  0  0  0  0
  156.8160  214.4470  156.1350 C   0  0  0  0  0  2  0  0  0  0  0  0
  158.1070  212.4380  155.2530 C   0  0  1  0  0  3  0  0  0  0  0  0
  155.6060  212.5280  155.1480 C   0  0  1  0  0  3  0  0  0  0  0  0
  158.1350  213.9420  155.5490 C   0  0  0  0  0  2  0  0  0  0  0  0
  154.8430  213.1810  156.2070 C   0  0  0  0  0  2  0  0  0  0  0  0
  162.3510  207.4590  147.5800 N   0  0  0  0  0  2  0  0  0  0  0  0
  161.4520  207.1320  146.5530 N   0  0  0  0  0  2  0  0  0  0  0  0
  161.9990  205.9800  145.8540 C   0  0  0  0  0  2  0  0  0  0  0  0
  160.8870  205.1610  145.3030 C   0  0  0  0  0  0  0  0  0  0  0  0
  161.1150  203.7930  144.9650 N   0  0  0  0  0  2  0  0  0  0  0  0
  159.7430  205.6710  145.1700 O   0  0  0  0  0  0  0  0  0  0  0  0
  160.0700  202.9560  144.5470 N   0  0  0  0  0  2  0  0  0  0  0  0
  161.0090  200.8620  147.5360 C   0  0  0  0  0  2  0  0  0  0  0  0
  160.4700  200.5590  144.7740 C   0  0  0  0  0  2  0  0  0  0  0  0
  160.8930  202.1290  146.6890 C   0  0  0  0  0  2  0  0  0  0  0  0
  160.0150  201.8380  145.4750 C   0  0  0  0  0  3  0  0  0  0  0  0
  160.6230  199.4510  145.8150 C   0  0  0  0  0  2  0  0  0  0  0  0
  161.5820  199.8250  146.7750 O   0  0  0  0  0  0  0  0  0  0  0  0
  1  3  2  0  0  0  0
  1 22  1  0  0  0  0
  2 13  2  0  0  0  0
  3  2  1  0  0  0  0
  4  7  1  1  0  0  0
  4 18  1  0  0  0  0
  5 11  1  0  0  0  0
  6 20  1  6  0  0  0
  7 10  1  0  0  0  0
  8 22  1  0  0  0  0
  9  5  2  0  0  0  0
 11 18  1  0  0  0  0
 11 20  1  1  0  0  0
 11  6  1  0  0  0  0
 12  5  1  0  0  0  0
 12  4  1  0  0  0  0
 13 15  1  0  0  0  0
 14 19  1  0  0  0  0
 14 13  1  0  0  0  0
 15 17  1  0  0  0  0
 15  7  2  0  0  0  0
 16 17  1  0  0  0  0
 17 21  2  0  0  0  0
 19 12  1  0  0  0  0
 21 10  1  0  0  0  0
 22 14  2  0  0  0  0
 23 25  1  1  0  0  0
 23 29  1  0  0  0  0
 26 28  1  1  0  0  0
 26 24  1  0  0  0  0
 26  6  1  0  0  0  0
 27 23  1  0  0  0  0
 27 24  1  1  0  0  0
 27 29  1  0  0  0  0
 28 25  1  0  0  0  0
 30  1  1  0  0  0  0
 31 30  1  0  0  0  0
 32 31  1  0  0  0  0
 33 32  1  0  0  0  0
 34 33  1  0  0  0  0
 35 33  2  0  0  0  0
 36 34  1  0  0  0  0
 36 40  1  0  0  0  0
 38 40  1  0  0  0  0
 38 41  1  0  0  0  0
 39 37  1  0  0  0  0
 40 39  1  0  0  0  0
 41 42  1  0  0  0  0
 42 37  1  0  0  0  0
M  END
>  <MODEL>
6

>  <REMARK>
 VINA RESULT:      -5.8      3.323      5.625
  Name = 
  7 active torsions:
  status: ('A' for Active; 'I' for Inactive)
    1  A    between atoms: N_5  and  N_15
    2  A    between atoms: N_5  and  C_25
    3  A    between atoms: C_6  and  C_20
    4  A    between atoms: C_7  and  N_22
    5  A    between atoms: C_11  and  C_14
    6  A    between atoms: C_14  and  N_35
    7  A    between atoms: N_22  and  N_35
                            x       y       z     vdW  Elec       q    Type
                         _______ _______ _______ _____ _____    ______ ____

>  <TORSDO>
F 7

$$$$
