=
 OpenBabel11042422443D

 38 43  0  0  1  0  0  0  0  0999 V2000
  162.1950  207.9690  149.4160 N   0  0  0  0  0  0  0  0  0  0  0  0
  162.6840  207.1940  148.2910 C   0  0  0  0  0  2  0  0  0  0  0  0
  160.8060  208.2300  153.6030 N   0  0  0  0  0  0  0  0  0  0  0  0
  162.0830  211.5920  149.7240 N   0  0  0  0  0  0  0  0  0  0  0  0
  161.3230  210.7020  153.5870 S   0  0  0  0  0  0  0  0  0  0  0  0
  161.7860  205.7080  149.9900 C   0  0  0  0  0  2  0  0  0  0  0  0
  160.4960  213.0910  146.8700 C   0  0  0  0  0  0  0  0  0  0  0  0
  162.2760  205.7580  148.5490 C   0  0  1  0  0  3  0  0  0  0  0  0
  160.0640  207.3890  150.5110 C   0  0  0  0  0  1  0  0  0  0  0  0
  162.4000  210.4300  150.1860 C   0  0  0  0  0  0  0  0  0  0  0  0
  161.4570  211.2840  148.4850 C   0  0  0  0  0  0  0  0  0  0  0  0
  162.2620  207.2930  151.8070 C   0  0  0  0  0  2  0  0  0  0  0  0
  161.4180  209.8880  148.2130 N   0  0  0  0  0  0  0  0  0  0  0  0
  160.9770  212.1870  147.6760 C   0  0  0  0  0  0  0  0  0  0  0  0
  161.9730  209.3780  149.2620 C   0  0  0  0  0  0  0  0  0  0  0  0
  161.3300  213.6990  145.9390 O   0  0  0  0  0  1  0  0  0  0  0  0
  163.1210  210.2390  151.4730 C   0  0  0  0  0  2  0  0  0  0  0  0
  161.7530  208.4240  152.6470 C   0  0  0  0  0  0  0  0  0  0  0  0
  161.5690  207.1410  150.4450 C   0  0  2  0  0  0  0  0  0  0  0  0
  160.4710  209.3920  154.2100 C   0  0  0  0  0  0  0  0  0  0  0  0
  162.1740  209.7390  152.5040 C   0  0  0  0  0  0  0  0  0  0  0  0
  159.5250  209.4930  155.2280 O   0  0  0  0  0  0  0  0  0  0  0  0
  158.8940  210.7260  155.5360 C   0  0  0  0  0  1  0  0  0  0  0  0
  159.0510  213.4650  146.9560 C   0  0  2  0  0  3  0  0  0  0  0  0
  157.1820  213.1100  148.5700 C   0  0  0  0  0  1  0  0  0  0  0  0
  158.6260  213.5490  148.4120 C   0  0  0  0  0  2  0  0  0  0  0  0
  158.5470  212.4270  144.8600 O   0  0  0  0  0  1  0  0  0  0  0  0
  158.1930  212.4520  146.2100 C   0  0  0  0  0  2  0  0  0  0  0  0
  161.1480  205.3870  147.5960 C   0  0  0  0  0  2  0  0  0  0  0  0
  160.9770  202.9850  148.3560 C   0  0  0  0  0  0  0  0  0  0  0  0
  160.9470  201.6420  148.0990 C   0  0  0  0  0  0  0  0  0  0  0  0
  161.2200  202.0490  145.7530 C   0  0  0  0  0  3  0  0  0  0  0  0
  160.8210  203.1900  149.8210 C   0  0  0  0  0  3  0  0  0  0  0  0
  160.7050  201.8170  150.3220 N   0  0  0  0  0  0  0  0  0  0  0  0
  160.7750  200.9520  149.3570 C   0  0  0  0  0  3  0  0  0  0  0  0
  161.0660  201.1330  146.8070 C   0  0  0  0  0  2  0  0  0  0  0  0
  161.1330  203.9170  147.3260 C   0  0  0  0  0  0  0  0  0  0  0  0
  161.2520  203.4350  146.0110 C   0  0  0  0  0  3  0  0  0  0  0  0
  1 19  1  0  0  0  0
  2  8  1  0  0  0  0
  2  1  1  0  0  0  0
  3 20  2  0  0  0  0
  4 10  2  0  0  0  0
  5 20  1  0  0  0  0
  6 19  1  0  0  0  0
  7 24  1  0  0  0  0
  7 14  2  0  0  0  0
  8 29  1  6  0  0  0
  8  6  1  0  0  0  0
 10 17  1  0  0  0  0
 11  4  1  0  0  0  0
 12 18  1  0  0  0  0
 13 11  1  0  0  0  0
 13 15  2  0  0  0  0
 14 11  2  0  0  0  0
 15  1  1  0  0  0  0
 15 10  1  0  0  0  0
 16  7  1  0  0  0  0
 17 21  1  0  0  0  0
 18  3  1  0  0  0  0
 19  9  1  1  0  0  0
 19 12  1  0  0  0  0
 20 22  1  0  0  0  0
 21 18  2  0  0  0  0
 21  5  1  0  0  0  0
 22 23  1  0  0  0  0
 24 28  1  6  0  0  0
 24 26  1  0  0  0  0
 26 25  1  0  0  0  0
 27 28  1  0  0  0  0
 30 33  1  0  0  0  0
 31 30  1  0  0  0  0
 31 35  2  0  0  0  0
 32 38  2  0  0  0  0
 32 36  1  0  0  0  0
 33 34  2  0  0  0  0
 35 34  1  0  0  0  0
 36 31  1  0  0  0  0
 37 29  1  0  0  0  0
 37 30  2  0  0  0  0
 38 37  1  0  0  0  0
M  END
>  <MODEL>
1

>  <REMARK>
 VINA RESULT:      -6.0      0.000      0.000
  Name = 
  6 active torsions:
  status: ('A' for Active; 'I' for Inactive)
    1  A    between atoms: C_2  and  C_11
    2  A    between atoms: C_2  and  C_27
    3  A    between atoms: C_2  and  C_31
    4  A    between atoms: O_8  and  C_35
    5  A    between atoms: C_13  and  C_21
    6  A    between atoms: C_21  and  C_36
                            x       y       z     vdW  Elec       q    Type
                         _______ _______ _______ _____ _____    ______ ____

>  <TORSDO>
F 6

$$$$
=
 OpenBabel11042422443D

 38 43  0  0  1  0  0  0  0  0999 V2000
  162.2110  207.8340  150.1580 N   0  0  0  0  0  0  0  0  0  0  0  0
  162.7920  206.9050  149.2060 C   0  0  0  0  0  2  0  0  0  0  0  0
  160.4130  208.6890  154.1030 N   0  0  0  0  0  0  0  0  0  0  0  0
  162.1590  211.4670  149.9530 N   0  0  0  0  0  0  0  0  0  0  0  0
  160.9910  211.1300  153.8020 S   0  0  0  0  0  0  0  0  0  0  0  0
  161.6910  205.6800  150.9910 C   0  0  0  0  0  2  0  0  0  0  0  0
  160.9050  212.5710  146.7710 C   0  0  0  0  0  0  0  0  0  0  0  0
  162.3240  205.5240  149.6140 C   0  0  1  0  0  3  0  0  0  0  0  0
  159.9670  207.4340  151.0950 C   0  0  0  0  0  1  0  0  0  0  0  0
  162.3980  210.3760  150.6000 C   0  0  0  0  0  0  0  0  0  0  0  0
  161.6530  210.9950  148.7090 C   0  0  0  0  0  0  0  0  0  0  0  0
  162.0200  207.4970  152.6120 C   0  0  0  0  0  2  0  0  0  0  0  0
  161.6070  209.5760  148.6280 N   0  0  0  0  0  0  0  0  0  0  0  0
  161.2800  211.7830  147.7390 C   0  0  0  0  0  0  0  0  0  0  0  0
  162.0410  209.2100  149.7890 C   0  0  0  0  0  0  0  0  0  0  0  0
  161.8440  213.0350  145.8570 O   0  0  0  0  0  1  0  0  0  0  0  0
  162.9810  210.3590  151.9680 C   0  0  0  0  0  2  0  0  0  0  0  0
  161.4570  208.7380  153.2330 C   0  0  0  0  0  0  0  0  0  0  0  0
  161.4650  207.1640  151.2200 C   0  0  2  0  0  0  0  0  0  0  0  0
  160.0490  209.9280  154.5070 C   0  0  0  0  0  0  0  0  0  0  0  0
  161.9230  210.0170  152.9540 C   0  0  0  0  0  0  0  0  0  0  0  0
  159.0070  210.1800  155.3980 O   0  0  0  0  0  0  0  0  0  0  0  0
  158.1950  211.3380  155.2850 C   0  0  0  0  0  1  0  0  0  0  0  0
  159.4690  212.9680  146.6550 C   0  0  2  0  0  3  0  0  0  0  0  0
  158.7060  213.4910  144.3380 C   0  0  0  0  0  1  0  0  0  0  0  0
  159.3180  214.0570  145.6050 C   0  0  0  0  0  2  0  0  0  0  0  0
  157.6440  212.9730  148.2010 O   0  0  0  0  0  1  0  0  0  0  0  0
  158.9390  213.4510  147.9990 C   0  0  0  0  0  2  0  0  0  0  0  0
  161.2900  205.0350  148.6100 C   0  0  0  0  0  2  0  0  0  0  0  0
  161.0350  202.7590  147.5460 C   0  0  0  0  0  0  0  0  0  0  0  0
  160.8930  201.4020  147.6320 C   0  0  1  0  0  3  0  0  0  0  0  0
  160.9020  201.5160  150.0260 C   0  0  0  0  0  3  0  0  0  0  0  0
  161.0820  203.1400  146.1100 C   0  0  0  0  0  3  0  0  0  0  0  0
  160.9490  201.8460  145.4340 N   0  0  0  0  0  0  0  0  0  0  0  0
  160.8430  200.8740  146.2880 C   0  0  0  0  0  3  0  0  0  0  0  0
  160.8220  200.7410  148.8560 C   0  0  0  0  0  3  0  0  0  0  0  0
  161.1140  203.5540  148.6940 C   0  0  0  0  0  0  0  0  0  0  0  0
  161.0490  202.9160  149.9450 C   0  0  0  0  0  3  0  0  0  0  0  0
  1 19  1  0  0  0  0
  2  8  1  0  0  0  0
  2  1  1  0  0  0  0
  3 20  2  0  0  0  0
  4 10  2  0  0  0  0
  5 20  1  0  0  0  0
  6 19  1  0  0  0  0
  7 14  2  0  0  0  0
  8 29  1  6  0  0  0
  8  6  1  0  0  0  0
 10 17  1  0  0  0  0
 11  4  1  0  0  0  0
 12 18  1  0  0  0  0
 13 11  1  0  0  0  0
 13 15  2  0  0  0  0
 14 11  2  0  0  0  0
 15  1  1  0  0  0  0
 15 10  1  0  0  0  0
 16  7  1  0  0  0  0
 17 21  1  0  0  0  0
 18  3  1  0  0  0  0
 19  9  1  6  0  0  0
 19 12  1  0  0  0  0
 20 22  1  0  0  0  0
 21 18  2  0  0  0  0
 21  5  1  0  0  0  0
 23 22  1  0  0  0  0
 24 26  1  6  0  0  0
 24  7  1  0  0  0  0
 24 28  1  0  0  0  0
 25 26  1  0  0  0  0
 28 27  1  0  0  0  0
 29 37  1  0  0  0  0
 30 31  1  0  0  0  0
 30 37  1  0  0  0  0
 31 35  1  1  0  0  0
 31 36  1  0  0  0  0
 33 30  2  0  0  0  0
 34 33  1  0  0  0  0
 34 35  2  0  0  0  0
 36 32  2  0  0  0  0
 37 38  2  0  0  0  0
 38 32  1  0  0  0  0
M  END
>  <MODEL>
2

>  <REMARK>
 VINA RESULT:      -6.0      1.256      1.980
  Name = 
  6 active torsions:
  status: ('A' for Active; 'I' for Inactive)
    1  A    between atoms: C_2  and  C_11
    2  A    between atoms: C_2  and  C_27
    3  A    between atoms: C_2  and  C_31
    4  A    between atoms: O_8  and  C_35
    5  A    between atoms: C_13  and  C_21
    6  A    between atoms: C_21  and  C_36
                            x       y       z     vdW  Elec       q    Type
                         _______ _______ _______ _____ _____    ______ ____

>  <TORSDO>
F 6

$$$$
=
 OpenBabel11042422443D

 38 43  0  0  1  0  0  0  0  0999 V2000
  162.2220  207.9270  150.1220 N   0  0  0  0  0  0  0  0  0  0  0  0
  162.8130  207.0120  149.1640 C   0  0  0  0  0  2  0  0  0  0  0  0
  160.3500  208.7190  154.0460 N   0  0  0  0  0  0  0  0  0  0  0  0
  162.2120  211.5630  149.9930 N   0  0  0  0  0  0  0  0  0  0  0  0
  160.9600  211.1590  153.8090 S   0  0  0  0  0  0  0  0  0  0  0  0
  161.6610  205.7610  150.8990 C   0  0  0  0  0  2  0  0  0  0  0  0
  161.0370  212.7470  146.8100 C   0  0  0  0  0  0  0  0  0  0  0  0
  162.3220  205.6270  149.5330 C   0  0  1  0  0  3  0  0  0  0  0  0
  159.9550  207.5320  151.0040 C   0  0  0  0  0  1  0  0  0  0  0  0
  162.4260  210.4570  150.6220 C   0  0  0  0  0  0  0  0  0  0  0  0
  161.7270  211.1230  148.7290 C   0  0  0  0  0  0  0  0  0  0  0  0
  161.9760  207.5400  152.5650 C   0  0  0  0  0  2  0  0  0  0  0  0
  161.6680  209.7060  148.6180 N   0  0  0  0  0  0  0  0  0  0  0  0
  161.3830  211.9350  147.7690 C   0  0  0  0  0  0  0  0  0  0  0  0
  162.0740  209.3120  149.7790 C   0  0  0  0  0  0  0  0  0  0  0  0
  161.9990  213.2200  145.9250 O   0  0  0  0  0  1  0  0  0  0  0  0
  162.9790  210.4040  152.0010 C   0  0  0  0  0  2  0  0  0  0  0  0
  161.4120  208.7740  153.1990 C   0  0  0  0  0  0  0  0  0  0  0  0
  161.4460  207.2420  151.1540 C   0  0  2  0  0  0  0  0  0  0  0  0
  159.9900  209.9530  154.4690 C   0  0  0  0  0  0  0  0  0  0  0  0
  161.8970  210.0530  152.9580 C   0  0  0  0  0  0  0  0  0  0  0  0
  158.9330  210.1970  155.3440 O   0  0  0  0  0  0  0  0  0  0  0  0
  158.0700  211.3110  155.1740 C   0  0  0  0  0  1  0  0  0  0  0  0
  159.6080  213.1630  146.6730 C   0  0  2  0  0  3  0  0  0  0  0  0
  157.4650  213.0280  147.9430 C   0  0  0  0  0  1  0  0  0  0  0  0
  158.9620  213.2510  148.0460 C   0  0  0  0  0  2  0  0  0  0  0  0
  159.3560  212.2120  144.4920 O   0  0  0  0  0  1  0  0  0  0  0  0
  158.8490  212.1790  145.7910 C   0  0  0  0  0  2  0  0  0  0  0  0
  161.3030  205.1710  148.4970 C   0  0  0  0  0  2  0  0  0  0  0  0
  161.0020  202.9180  147.3970 C   0  0  0  0  0  0  0  0  0  0  0  0
  160.8320  201.5630  147.4610 C   0  0  1  0  0  3  0  0  0  0  0  0
  160.8460  201.6380  149.8560 C   0  0  0  0  0  3  0  0  0  0  0  0
  161.0550  203.3210  145.9670 C   0  0  0  0  0  3  0  0  0  0  0  0
  160.8940  202.0410  145.2700 N   0  0  0  0  0  0  0  0  0  0  0  0
  160.7700  201.0570  146.1090 C   0  0  0  0  0  3  0  0  0  0  0  0
  160.7490  200.8830  148.6750 C   0  0  0  0  0  3  0  0  0  0  0  0
  161.0980  203.6930  148.5570 C   0  0  0  0  0  0  0  0  0  0  0  0
  161.0220  203.0360  149.7980 C   0  0  0  0  0  3  0  0  0  0  0  0
  1 19  1  0  0  0  0
  2  8  1  0  0  0  0
  2  1  1  0  0  0  0
  3 20  2  0  0  0  0
  4 10  2  0  0  0  0
  5 20  1  0  0  0  0
  6 19  1  0  0  0  0
  7 14  2  0  0  0  0
  8 29  1  6  0  0  0
  8  6  1  0  0  0  0
 10 17  1  0  0  0  0
 11  4  1  0  0  0  0
 12 18  1  0  0  0  0
 13 11  1  0  0  0  0
 13 15  2  0  0  0  0
 14 11  2  0  0  0  0
 15  1  1  0  0  0  0
 15 10  1  0  0  0  0
 16  7  1  0  0  0  0
 17 21  1  0  0  0  0
 18  3  1  0  0  0  0
 19  9  1  6  0  0  0
 19 12  1  0  0  0  0
 20 22  1  0  0  0  0
 21 18  2  0  0  0  0
 21  5  1  0  0  0  0
 23 22  1  0  0  0  0
 24 28  1  6  0  0  0
 24  7  1  0  0  0  0
 24 26  1  0  0  0  0
 25 26  1  0  0  0  0
 27 28  1  0  0  0  0
 29 37  1  0  0  0  0
 30 31  1  0  0  0  0
 30 37  1  0  0  0  0
 31 35  1  6  0  0  0
 31 36  1  0  0  0  0
 33 30  2  0  0  0  0
 34 33  1  0  0  0  0
 34 35  2  0  0  0  0
 36 32  2  0  0  0  0
 37 38  2  0  0  0  0
 38 32  1  0  0  0  0
M  END
>  <MODEL>
3

>  <REMARK>
 VINA RESULT:      -6.0      1.092      1.662
  Name = 
  6 active torsions:
  status: ('A' for Active; 'I' for Inactive)
    1  A    between atoms: C_2  and  C_11
    2  A    between atoms: C_2  and  C_27
    3  A    between atoms: C_2  and  C_31
    4  A    between atoms: O_8  and  C_35
    5  A    between atoms: C_13  and  C_21
    6  A    between atoms: C_21  and  C_36
                            x       y       z     vdW  Elec       q    Type
                         _______ _______ _______ _____ _____    ______ ____

>  <TORSDO>
F 6

$$$$
=
 OpenBabel11042422443D

 38 43  0  0  1  0  0  0  0  0999 V2000
  161.9000  207.5040  152.0990 N   0  0  0  0  0  0  0  0  0  0  0  0
  162.3170  206.4100  151.2420 C   0  0  0  0  0  2  0  0  0  0  0  0
  160.1810  208.9900  155.8900 N   0  0  0  0  0  0  0  0  0  0  0  0
  162.5670  211.0510  151.6420 N   0  0  0  0  0  0  0  0  0  0  0  0
  161.2350  211.2430  155.4480 S   0  0  0  0  0  0  0  0  0  0  0  0
  160.9410  205.5610  153.0550 C   0  0  0  0  0  2  0  0  0  0  0  0
  161.6550  212.1300  148.3380 C   0  0  0  0  0  0  0  0  0  0  0  0
  161.5750  205.1810  151.7230 C   0  0  1  0  0  3  0  0  0  0  0  0
  159.5930  207.6180  152.9580 C   0  0  0  0  0  1  0  0  0  0  0  0
  162.5670  209.9880  152.3730 C   0  0  0  0  0  0  0  0  0  0  0  0
  162.0180  210.5930  150.4120 C   0  0  0  0  0  0  0  0  0  0  0  0
  161.5690  207.3990  154.5600 C   0  0  0  0  0  2  0  0  0  0  0  0
  161.6970  209.2070  150.4270 N   0  0  0  0  0  0  0  0  0  0  0  0
  161.8370  211.3610  149.3740 C   0  0  0  0  0  0  0  0  0  0  0  0
  162.0150  208.8550  151.6290 C   0  0  0  0  0  0  0  0  0  0  0  0
  162.6940  212.3320  147.4370 O   0  0  0  0  0  1  0  0  0  0  0  0
  163.0920  209.9630  153.7650 C   0  0  0  0  0  2  0  0  0  0  0  0
  161.2410  208.7690  155.0670 C   0  0  0  0  0  0  0  0  0  0  0  0
  161.0030  207.0740  153.1700 C   0  0  2  0  0  0  0  0  0  0  0  0
  160.0540  210.3030  156.1900 C   0  0  0  0  0  0  0  0  0  0  0  0
  161.9570  209.9090  154.7230 C   0  0  0  0  0  0  0  0  0  0  0  0
  159.0540  210.8190  157.0130 O   0  0  0  0  0  0  0  0  0  0  0  0
  158.5420  212.1290  156.8290 C   0  0  0  0  0  1  0  0  0  0  0  0
  160.3290  212.7870  148.1290 C   0  0  2  0  0  3  0  0  0  0  0  0
  159.4930  212.6420  145.7830 C   0  0  0  0  0  1  0  0  0  0  0  0
  160.2980  213.4670  146.7690 C   0  0  0  0  0  2  0  0  0  0  0  0
  158.6830  213.8940  149.4670 O   0  0  0  0  0  1  0  0  0  0  0  0
  160.0550  213.8000  149.2340 C   0  0  0  0  0  2  0  0  0  0  0  0
  160.4960  204.8260  150.7080 C   0  0  0  0  0  2  0  0  0  0  0  0
  161.1400  203.5500  148.6260 C   0  0  0  0  0  0  0  0  0  0  0  0
  161.4610  202.3880  147.9800 C   0  0  1  0  0  3  0  0  0  0  0  0
  161.1920  201.1420  150.0090 C   0  0  0  0  0  3  0  0  0  0  0  0
  161.1970  204.6670  147.6470 C   0  0  0  0  0  3  0  0  0  0  0  0
  161.5810  203.9840  146.4080 N   0  0  0  0  0  0  0  0  0  0  0  0
  161.7280  202.7080  146.5960 C   0  0  0  0  0  3  0  0  0  0  0  0
  161.4980  201.1600  148.6370 C   0  0  0  0  0  3  0  0  0  0  0  0
  160.8290  203.5590  149.9890 C   0  0  0  0  0  0  0  0  0  0  0  0
  160.8610  202.3360  150.6820 C   0  0  0  0  0  3  0  0  0  0  0  0
  1 19  1  0  0  0  0
  2  8  1  0  0  0  0
  2  1  1  0  0  0  0
  3 20  2  0  0  0  0
  4 10  2  0  0  0  0
  5 20  1  0  0  0  0
  6 19  1  0  0  0  0
  7 14  2  0  0  0  0
  8 29  1  6  0  0  0
  8  6  1  0  0  0  0
 10 17  1  0  0  0  0
 11 13  1  0  0  0  0
 11  4  1  0  0  0  0
 12 18  1  0  0  0  0
 13 15  2  0  0  0  0
 14 11  2  0  0  0  0
 15  1  1  0  0  0  0
 15 10  1  0  0  0  0
 16  7  1  0  0  0  0
 17 21  1  0  0  0  0
 18  3  1  0  0  0  0
 19  9  1  6  0  0  0
 19 12  1  0  0  0  0
 20 22  1  0  0  0  0
 21 18  2  0  0  0  0
 21  5  1  0  0  0  0
 23 22  1  0  0  0  0
 24 26  1  6  0  0  0
 24  7  1  0  0  0  0
 24 28  1  0  0  0  0
 25 26  1  0  0  0  0
 28 27  1  0  0  0  0
 30 37  1  0  0  0  0
 31 35  1  1  0  0  0
 31 30  1  0  0  0  0
 31 36  1  0  0  0  0
 32 38  1  0  0  0  0
 33 30  2  0  0  0  0
 34 35  2  0  0  0  0
 34 33  1  0  0  0  0
 36 32  2  0  0  0  0
 37 38  2  0  0  0  0
 37 29  1  0  0  0  0
M  END
>  <MODEL>
4

>  <REMARK>
 VINA RESULT:      -5.4      1.882      2.830
  Name = 
  6 active torsions:
  status: ('A' for Active; 'I' for Inactive)
    1  A    between atoms: C_2  and  C_11
    2  A    between atoms: C_2  and  C_27
    3  A    between atoms: C_2  and  C_31
    4  A    between atoms: O_8  and  C_35
    5  A    between atoms: C_13  and  C_21
    6  A    between atoms: C_21  and  C_36
                            x       y       z     vdW  Elec       q    Type
                         _______ _______ _______ _____ _____    ______ ____

>  <TORSDO>
F 6

$$$$
=
 OpenBabel11042422443D

 38 43  0  0  1  0  0  0  0  0999 V2000
  160.6400  211.5110  152.4890 N   0  0  0  0  0  0  0  0  0  0  0  0
  160.8060  211.4620  153.9300 C   0  0  0  0  0  2  0  0  0  0  0  0
  159.1190  213.5030  148.8500 N   0  0  0  0  0  0  0  0  0  0  0  0
  162.2760  209.4190  150.0030 N   0  0  0  0  0  0  0  0  0  0  0  0
  160.7740  212.1820  147.4730 S   0  0  0  0  0  0  0  0  0  0  0  0
  159.1230  213.1140  153.3470 C   0  0  0  0  0  2  0  0  0  0  0  0
  161.9340  205.9330  150.8080 C   0  0  0  0  0  0  0  0  0  0  0  0
  159.7250  212.3460  154.5160 C   0  0  1  0  0  3  0  0  0  0  0  0
  158.3950  211.6750  151.4870 C   0  0  0  0  0  1  0  0  0  0  0  0
  161.9350  210.5790  150.4530 C   0  0  0  0  0  0  0  0  0  0  0  0
  161.7150  208.5270  150.9580 C   0  0  0  0  0  0  0  0  0  0  0  0
  160.1160  213.5290  151.1370 C   0  0  0  0  0  2  0  0  0  0  0  0
  161.0300  209.1970  152.0100 N   0  0  0  0  0  0  0  0  0  0  0  0
  161.8250  207.2300  150.8850 C   0  0  0  0  0  0  0  0  0  0  0  0
  161.1510  210.4410  151.6820 C   0  0  0  0  0  0  0  0  0  0  0  0
  163.0520  205.3030  151.3420 O   0  0  0  0  0  1  0  0  0  0  0  0
  162.3310  211.8510  149.7930 C   0  0  0  0  0  2  0  0  0  0  0  0
  160.1360  213.1620  149.6850 C   0  0  0  0  0  0  0  0  0  0  0  0
  159.5850  212.4320  152.0710 C   0  0  2  0  0  0  0  0  0  0  0  0
  159.3310  213.0380  147.5970 C   0  0  0  0  0  0  0  0  0  0  0  0
  161.1570  212.4320  149.0900 C   0  0  0  0  0  0  0  0  0  0  0  0
  158.4520  213.2380  146.5340 O   0  0  0  0  0  0  0  0  0  0  0  0
  157.1850  212.6000  146.4880 C   0  0  0  0  0  1  0  0  0  0  0  0
  160.8550  205.1380  150.1470 C   0  0  2  0  0  3  0  0  0  0  0  0
  160.5420  202.6760  149.8930 C   0  0  0  0  0  1  0  0  0  0  0  0
  160.6610  203.8210  150.8810 C   0  0  0  0  0  2  0  0  0  0  0  0
  161.6150  206.0710  148.0790 O   0  0  0  0  0  1  0  0  0  0  0  0
  161.1990  204.8850  148.6850 C   0  0  0  0  0  2  0  0  0  0  0  0
  158.6680  211.4670  155.1700 C   0  0  0  0  0  2  0  0  0  0  0  0
  156.4200  211.7510  156.2840 C   0  0  0  0  0  0  0  0  0  0  0  0
  155.4960  212.5090  156.9490 C   0  0  0  0  0  0  0  0  0  0  0  0
  156.9460  214.4140  156.8690 C   0  0  0  0  0  3  0  0  0  0  0  0
  155.8740  210.3780  156.1160 C   0  0  0  0  0  3  0  0  0  0  0  0
  154.5600  210.4790  156.7590 N   0  0  0  0  0  0  0  0  0  0  0  0
  154.3500  211.6720  157.2250 C   0  0  0  0  0  3  0  0  0  0  0  0
  155.7210  213.8480  157.2610 C   0  0  0  0  0  2  0  0  0  0  0  0
  157.6440  212.2920  155.8800 C   0  0  0  0  0  0  0  0  0  0  0  0
  157.9040  213.6400  156.1830 C   0  0  0  0  0  3  0  0  0  0  0  0
  1  2  1  0  0  0  0
  2  8  1  0  0  0  0
  3 18  1  0  0  0  0
  4 10  2  0  0  0  0
  4 11  1  0  0  0  0
  5 20  1  0  0  0  0
  5 21  1  0  0  0  0
  6  8  1  0  0  0  0
  7 14  2  0  0  0  0
  7 16  1  0  0  0  0
  8 29  1  6  0  0  0
 10 15  1  0  0  0  0
 11 13  1  0  0  0  0
 12 19  1  0  0  0  0
 14 11  2  0  0  0  0
 15 13  2  0  0  0  0
 15  1  1  0  0  0  0
 17 10  1  0  0  0  0
 18 12  1  0  0  0  0
 19  9  1  6  0  0  0
 19  1  1  0  0  0  0
 19  6  1  0  0  0  0
 20  3  2  0  0  0  0
 21 18  2  0  0  0  0
 21 17  1  0  0  0  0
 22 20  1  0  0  0  0
 23 22  1  0  0  0  0
 24 28  1  6  0  0  0
 24  7  1  0  0  0  0
 24 26  1  0  0  0  0
 25 26  1  0  0  0  0
 27 28  1  0  0  0  0
 29 37  1  0  0  0  0
 30 31  1  0  0  0  0
 31 35  2  0  0  0  0
 31 36  1  0  0  0  0
 32 36  1  0  0  0  0
 33 30  1  0  0  0  0
 33 34  2  0  0  0  0
 34 35  1  0  0  0  0
 37 38  1  0  0  0  0
 37 30  2  0  0  0  0
 38 32  2  0  0  0  0
M  END
>  <MODEL>
5

>  <REMARK>
 VINA RESULT:      -5.1      3.332      9.406
  Name = 
  6 active torsions:
  status: ('A' for Active; 'I' for Inactive)
    1  A    between atoms: C_2  and  C_11
    2  A    between atoms: C_2  and  C_27
    3  A    between atoms: C_2  and  C_31
    4  A    between atoms: O_8  and  C_35
    5  A    between atoms: C_13  and  C_21
    6  A    between atoms: C_21  and  C_36
                            x       y       z     vdW  Elec       q    Type
                         _______ _______ _______ _____ _____    ______ ____

>  <TORSDO>
F 6

$$$$
=
 OpenBabel11042422443D

 38 43  0  0  1  0  0  0  0  0999 V2000
  160.1230  212.8110  150.7880 N   0  0  0  0  0  0  0  0  0  0  0  0
  159.9780  213.0720  152.2080 C   0  0  0  0  0  2  0  0  0  0  0  0
  159.3190  213.8670  146.5730 N   0  0  0  0  0  0  0  0  0  0  0  0
  162.3580  210.4220  149.1960 N   0  0  0  0  0  0  0  0  0  0  0  0
  161.2950  212.4570  145.8760 S   0  0  0  0  0  0  0  0  0  0  0  0
  158.3780  214.4030  150.9550 C   0  0  0  0  0  2  0  0  0  0  0  0
  162.0280  207.1570  150.6600 C   0  0  0  0  0  0  0  0  0  0  0  0
  158.7530  213.9500  152.3600 C   0  0  1  0  0  3  0  0  0  0  0  0
  158.1390  212.5530  149.3490 C   0  0  0  0  0  1  0  0  0  0  0  0
  161.8700  211.6120  149.3040 C   0  0  0  0  0  0  0  0  0  0  0  0
  161.6500  209.6940  150.1920 C   0  0  0  0  0  0  0  0  0  0  0  0
  159.7990  214.4520  148.9500 C   0  0  0  0  0  2  0  0  0  0  0  0
  160.7220  210.4950  150.9140 N   0  0  0  0  0  0  0  0  0  0  0  0
  161.8390  208.4250  150.4280 C   0  0  0  0  0  0  0  0  0  0  0  0
  160.8490  211.6520  150.3530 C   0  0  0  0  0  0  0  0  0  0  0  0
  163.0350  206.7570  151.5300 O   0  0  0  0  0  1  0  0  0  0  0  0
  162.3330  212.7550  148.4740 C   0  0  0  0  0  2  0  0  0  0  0  0
  160.1490  213.8010  147.6480 C   0  0  0  0  0  0  0  0  0  0  0  0
  159.1370  213.5230  149.9780 C   0  0  2  0  0  0  0  0  0  0  0  0
  159.8180  213.1790  145.5200 C   0  0  0  0  0  0  0  0  0  0  0  0
  161.3090  213.0670  147.4420 C   0  0  0  0  0  0  0  0  0  0  0  0
  159.1780  213.0730  144.2860 O   0  0  0  0  0  0  0  0  0  0  0  0
  159.6260  212.1650  143.2920 C   0  0  0  0  0  1  0  0  0  0  0  0
  161.1570  206.1450  149.9880 C   0  0  2  0  0  3  0  0  0  0  0  0
  160.8080  203.6790  149.8410 C   0  0  0  0  0  1  0  0  0  0  0  0
  161.2220  204.8270  150.7420 C   0  0  0  0  0  2  0  0  0  0  0  0
  160.8690  206.8080  147.7080 O   0  0  0  0  0  1  0  0  0  0  0  0
  161.5880  205.9490  148.5400 C   0  0  0  0  0  2  0  0  0  0  0  0
  157.6260  213.1250  152.9660 C   0  0  0  0  0  2  0  0  0  0  0  0
  158.4580  211.8900  155.0050 C   0  0  0  0  0  0  0  0  0  0  0  0
  158.6250  211.7780  156.3580 C   0  0  0  0  0  0  0  0  0  0  0  0
  157.4830  213.8560  156.7060 C   0  0  0  0  0  3  0  0  0  0  0  0
  159.0800  210.7070  154.3530 C   0  0  0  0  0  3  0  0  0  0  0  0
  159.5950  209.9480  155.4970 N   0  0  0  0  0  0  0  0  0  0  0  0
  159.3400  210.5500  156.6190 C   0  0  0  0  0  3  0  0  0  0  0  0
  158.1500  212.7420  157.2450 C   0  0  0  0  0  2  0  0  0  0  0  0
  157.7950  212.9860  154.4440 C   0  0  0  0  0  0  0  0  0  0  0  0
  157.3080  213.9780  155.3130 C   0  0  0  0  0  3  0  0  0  0  0  0
  1  2  1  0  0  0  0
  2  8  1  0  0  0  0
  3 18  1  0  0  0  0
  4 10  2  0  0  0  0
  4 11  1  0  0  0  0
  5 21  1  0  0  0  0
  6  8  1  0  0  0  0
  7 16  1  0  0  0  0
  8 29  1  6  0  0  0
 10 15  1  0  0  0  0
 11 14  2  0  0  0  0
 11 13  1  0  0  0  0
 12 19  1  0  0  0  0
 14  7  2  0  0  0  0
 15  1  1  0  0  0  0
 15 13  2  0  0  0  0
 17 10  1  0  0  0  0
 18 12  1  0  0  0  0
 19  9  1  6  0  0  0
 19  1  1  0  0  0  0
 19  6  1  0  0  0  0
 20  5  1  0  0  0  0
 20  3  2  0  0  0  0
 21 18  2  0  0  0  0
 21 17  1  0  0  0  0
 22 20  1  0  0  0  0
 23 22  1  0  0  0  0
 24 28  1  6  0  0  0
 24  7  1  0  0  0  0
 24 26  1  0  0  0  0
 25 26  1  0  0  0  0
 27 28  1  0  0  0  0
 29 37  1  0  0  0  0
 30 31  1  0  0  0  0
 31 35  2  0  0  0  0
 31 36  1  0  0  0  0
 32 36  1  0  0  0  0
 33 30  1  0  0  0  0
 33 34  2  0  0  0  0
 34 35  1  0  0  0  0
 37 30  2  0  0  0  0
 37 38  1  0  0  0  0
 38 32  2  0  0  0  0
M  END
>  <MODEL>
6

>  <REMARK>
 VINA RESULT:      -4.9      2.913      9.179
  Name = 
  6 active torsions:
  status: ('A' for Active; 'I' for Inactive)
    1  A    between atoms: C_2  and  C_11
    2  A    between atoms: C_2  and  C_27
    3  A    between atoms: C_2  and  C_31
    4  A    between atoms: O_8  and  C_35
    5  A    between atoms: C_13  and  C_21
    6  A    between atoms: C_21  and  C_36
                            x       y       z     vdW  Elec       q    Type
                         _______ _______ _______ _____ _____    ______ ____

>  <TORSDO>
F 6

$$$$
=
 OpenBabel11042422443D

 38 43  0  0  1  0  0  0  0  0999 V2000
  160.5600  211.7130  152.6650 N   0  0  0  0  0  0  0  0  0  0  0  0
  160.9350  211.6340  154.0640 C   0  0  0  0  0  2  0  0  0  0  0  0
  158.4150  213.7070  149.3560 N   0  0  0  0  0  0  0  0  0  0  0  0
  161.9400  209.8000  149.8940 N   0  0  0  0  0  0  0  0  0  0  0  0
  159.9280  212.5330  147.7090 S   0  0  0  0  0  0  0  0  0  0  0  0
  159.0920  213.1920  153.7890 C   0  0  0  0  0  2  0  0  0  0  0  0
  161.9220  206.2780  150.6100 C   0  0  0  0  0  0  0  0  0  0  0  0
  159.9000  212.4310  154.8310 C   0  0  1  0  0  3  0  0  0  0  0  0
  158.1880  211.7630  152.0000 C   0  0  0  0  0  1  0  0  0  0  0  0
  161.6000  210.9230  150.4320 C   0  0  0  0  0  0  0  0  0  0  0  0
  161.5750  208.8470  150.8870 C   0  0  0  0  0  0  0  0  0  0  0  0
  159.7290  213.7310  151.4770 C   0  0  0  0  0  2  0  0  0  0  0  0
  161.0110  209.4420  152.0490 N   0  0  0  0  0  0  0  0  0  0  0  0
  161.7490  207.5620  150.7500 C   0  0  0  0  0  0  0  0  0  0  0  0
  161.0110  210.7000  151.7530 C   0  0  0  0  0  0  0  0  0  0  0  0
  163.1400  205.7050  150.9550 O   0  0  0  0  0  1  0  0  0  0  0  0
  161.8210  212.2360  149.7700 C   0  0  0  0  0  2  0  0  0  0  0  0
  159.5600  213.4070  150.0250 C   0  0  0  0  0  0  0  0  0  0  0  0
  159.4040  212.5770  152.4360 C   0  0  2  0  0  0  0  0  0  0  0  0
  158.4710  213.2920  148.0690 C   0  0  0  0  0  0  0  0  0  0  0  0
  160.5260  212.7610  149.2640 C   0  0  0  0  0  0  0  0  0  0  0  0
  157.4370  213.4660  147.1500 O   0  0  0  0  0  0  0  0  0  0  0  0
  157.4690  212.8540  145.8710 C   0  0  0  0  0  1  0  0  0  0  0  0
  160.8070  205.4350  150.0800 C   0  0  2  0  0  3  0  0  0  0  0  0
  160.7430  202.9510  149.8600 C   0  0  0  0  0  1  0  0  0  0  0  0
  160.7550  204.1160  150.8320 C   0  0  0  0  0  2  0  0  0  0  0  0
  160.5900  206.3140  147.8660 O   0  0  0  0  0  1  0  0  0  0  0  0
  160.9880  205.1890  148.5880 C   0  0  0  0  0  2  0  0  0  0  0  0
  159.0010  211.4680  155.5950 C   0  0  0  0  0  2  0  0  0  0  0  0
  161.0110  210.1780  156.4170 C   0  0  0  0  0  0  0  0  0  0  0  0
  161.6490  209.0030  156.7050 C   0  0  0  0  0  0  0  0  0  0  0  0
  159.7420  207.7470  155.9770 C   0  0  0  0  0  3  0  0  0  0  0  0
  161.9200  211.3050  156.7550 C   0  0  0  0  0  3  0  0  0  0  0  0
  163.1120  210.6130  157.2520 N   0  0  0  0  0  0  0  0  0  0  0  0
  162.9590  209.3240  157.2240 C   0  0  0  0  0  3  0  0  0  0  0  0
  161.0470  207.7630  156.4980 C   0  0  0  0  0  2  0  0  0  0  0  0
  159.7130  210.1890  155.8950 C   0  0  0  0  0  0  0  0  0  0  0  0
  159.0780  208.9540  155.6780 C   0  0  0  0  0  3  0  0  0  0  0  0
  1  2  1  0  0  0  0
  2  8  1  0  0  0  0
  3 18  1  0  0  0  0
  4 10  2  0  0  0  0
  4 11  1  0  0  0  0
  5 20  1  0  0  0  0
  5 21  1  0  0  0  0
  6  8  1  0  0  0  0
  7 14  2  0  0  0  0
  7 16  1  0  0  0  0
  8 29  1  6  0  0  0
 10 15  1  0  0  0  0
 11 13  1  0  0  0  0
 12 19  1  0  0  0  0
 14 11  2  0  0  0  0
 15 13  2  0  0  0  0
 15  1  1  0  0  0  0
 17 10  1  0  0  0  0
 18 12  1  0  0  0  0
 19  9  1  6  0  0  0
 19  1  1  0  0  0  0
 19  6  1  0  0  0  0
 20  3  2  0  0  0  0
 21 17  1  0  0  0  0
 21 18  2  0  0  0  0
 22 20  1  0  0  0  0
 23 22  1  0  0  0  0
 24 28  1  6  0  0  0
 24  7  1  0  0  0  0
 24 26  1  0  0  0  0
 25 26  1  0  0  0  0
 27 28  1  0  0  0  0
 29 37  1  0  0  0  0
 30 31  1  0  0  0  0
 30 33  1  0  0  0  0
 31 35  2  0  0  0  0
 32 36  1  0  0  0  0
 33 34  2  0  0  0  0
 35 34  1  0  0  0  0
 36 31  1  0  0  0  0
 37 30  2  0  0  0  0
 38 37  1  0  0  0  0
 38 32  2  0  0  0  0
M  END
>  <MODEL>
7

>  <REMARK>
 VINA RESULT:      -4.9      3.000      8.362
  Name = 
  6 active torsions:
  status: ('A' for Active; 'I' for Inactive)
    1  A    between atoms: C_2  and  C_11
    2  A    between atoms: C_2  and  C_27
    3  A    between atoms: C_2  and  C_31
    4  A    between atoms: O_8  and  C_35
    5  A    between atoms: C_13  and  C_21
    6  A    between atoms: C_21  and  C_36
                            x       y       z     vdW  Elec       q    Type
                         _______ _______ _______ _____ _____    ______ ____

>  <TORSDO>
F 6

$$$$
=
 OpenBabel11042422443D

 38 43  0  0  1  0  0  0  0  0999 V2000
  160.6750  211.8870  151.7870 N   0  0  0  0  0  0  0  0  0  0  0  0
  161.1240  211.5550  153.1260 C   0  0  0  0  0  2  0  0  0  0  0  0
  158.2090  214.3180  149.0410 N   0  0  0  0  0  0  0  0  0  0  0  0
  162.0670  210.7220  148.6330 N   0  0  0  0  0  0  0  0  0  0  0  0
  159.7290  213.6520  147.1370 S   0  0  0  0  0  0  0  0  0  0  0  0
  159.1470  212.9620  153.2420 C   0  0  0  0  0  2  0  0  0  0  0  0
  162.3760  207.1410  148.5930 C   0  0  0  0  0  0  0  0  0  0  0  0
  160.0670  212.0780  154.0750 C   0  0  1  0  0  3  0  0  0  0  0  0
  158.2760  211.8570  151.2230 C   0  0  0  0  0  1  0  0  0  0  0  0
  161.6630  211.6730  149.4050 C   0  0  0  0  0  0  0  0  0  0  0  0
  161.8320  209.5560  149.4140 C   0  0  0  0  0  0  0  0  0  0  0  0
  159.6210  214.0230  151.0770 C   0  0  0  0  0  2  0  0  0  0  0  0
  161.2800  209.8430  150.6930 N   0  0  0  0  0  0  0  0  0  0  0  0
  162.1050  208.3480  149.0050 C   0  0  0  0  0  0  0  0  0  0  0  0
  161.1610  211.1300  150.6690 C   0  0  0  0  0  0  0  0  0  0  0  0
  163.6530  206.6230  148.7710 O   0  0  0  0  0  1  0  0  0  0  0  0
  161.7410  213.1100  149.0280 C   0  0  0  0  0  2  0  0  0  0  0  0
  159.4070  213.9920  149.5950 C   0  0  0  0  0  0  0  0  0  0  0  0
  159.4410  212.6700  151.7810 C   0  0  2  0  0  0  0  0  0  0  0  0
  158.2350  214.1840  147.6940 C   0  0  0  0  0  0  0  0  0  0  0  0
  160.3830  213.6080  148.6850 C   0  0  0  0  0  0  0  0  0  0  0  0
  157.1450  214.4490  146.8660 O   0  0  0  0  0  0  0  0  0  0  0  0
  156.9330  213.7270  145.6630 C   0  0  0  0  0  1  0  0  0  0  0  0
  161.3100  206.3280  147.9330 C   0  0  2  0  0  3  0  0  0  0  0  0
  160.7920  204.0830  148.8890 C   0  0  0  0  0  1  0  0  0  0  0  0
  160.5140  205.5710  148.9840 C   0  0  0  0  0  2  0  0  0  0  0  0
  161.8040  205.8700  145.6380 O   0  0  0  0  0  1  0  0  0  0  0  0
  161.9220  205.3580  146.9310 C   0  0  0  0  0  2  0  0  0  0  0  0
  159.2910  210.9000  154.6480 C   0  0  0  0  0  2  0  0  0  0  0  0
  160.5820  208.7330  154.7500 C   0  0  0  0  0  0  0  0  0  0  0  0
  161.4300  207.8680  155.3850 C   0  0  0  0  0  0  0  0  0  0  0  0
  161.5960  209.3500  157.2600 C   0  0  0  0  0  3  0  0  0  0  0  0
  160.2080  208.1490  153.4350 C   0  0  0  0  0  3  0  0  0  0  0  0
  160.9430  206.8800  153.4300 N   0  0  0  0  0  0  0  0  0  0  0  0
  161.6280  206.7250  154.5230 C   0  0  0  0  0  3  0  0  0  0  0  0
  161.9600  208.1410  156.6440 C   0  0  0  0  0  2  0  0  0  0  0  0
  160.2020  209.9410  155.3430 C   0  0  0  0  0  0  0  0  0  0  0  0
  160.7220  210.2470  156.6120 C   0  0  0  0  0  3  0  0  0  0  0  0
  1  2  1  0  0  0  0
  2  8  1  0  0  0  0
  3 18  1  0  0  0  0
  4 10  2  0  0  0  0
  4 11  1  0  0  0  0
  5 20  1  0  0  0  0
  5 21  1  0  0  0  0
  6  8  1  0  0  0  0
  7 16  1  0  0  0  0
  7 14  2  0  0  0  0
  8 29  1  6  0  0  0
 10 15  1  0  0  0  0
 11 13  1  0  0  0  0
 12 19  1  0  0  0  0
 14 11  2  0  0  0  0
 15 13  2  0  0  0  0
 15  1  1  0  0  0  0
 17 10  1  0  0  0  0
 18 12  1  0  0  0  0
 19  9  1  6  0  0  0
 19  1  1  0  0  0  0
 19  6  1  0  0  0  0
 20  3  2  0  0  0  0
 21 17  1  0  0  0  0
 21 18  2  0  0  0  0
 22 20  1  0  0  0  0
 23 22  1  0  0  0  0
 24 28  1  6  0  0  0
 24  7  1  0  0  0  0
 24 26  1  0  0  0  0
 25 26  1  0  0  0  0
 27 28  1  0  0  0  0
 29 37  1  0  0  0  0
 30 37  2  0  0  0  0
 30 31  1  0  0  0  0
 31 36  1  0  0  0  0
 33 30  1  0  0  0  0
 34 33  2  0  0  0  0
 34 35  1  0  0  0  0
 35 31  2  0  0  0  0
 36 32  1  0  0  0  0
 37 38  1  0  0  0  0
 38 32  2  0  0  0  0
M  END
>  <MODEL>
8

>  <REMARK>
 VINA RESULT:      -4.5      2.967      7.744
  Name = 
  6 active torsions:
  status: ('A' for Active; 'I' for Inactive)
    1  A    between atoms: C_2  and  C_11
    2  A    between atoms: C_2  and  C_27
    3  A    between atoms: C_2  and  C_31
    4  A    between atoms: O_8  and  C_35
    5  A    between atoms: C_13  and  C_21
    6  A    between atoms: C_21  and  C_36
                            x       y       z     vdW  Elec       q    Type
                         _______ _______ _______ _____ _____    ______ ____

>  <TORSDO>
F 6

$$$$
=
 OpenBabel11042422443D

 38 43  0  0  1  0  0  0  0  0999 V2000
  161.6870  212.4640  149.4000 N   0  0  0  0  0  0  0  0  0  0  0  0
  162.0640  213.8010  148.9830 C   0  0  0  0  0  2  0  0  0  0  0  0
  161.5830  208.0990  148.7160 N   0  0  0  0  0  0  0  0  0  0  0  0
  160.4090  211.4370  152.6480 N   0  0  0  0  0  0  0  0  0  0  0  0
  161.1740  207.7540  151.1850 S   0  0  0  0  0  0  0  0  0  0  0  0
  162.2820  212.2620  147.1170 C   0  0  0  0  0  2  0  0  0  0  0  0
  157.6370  213.4880  153.6610 C   0  0  0  0  0  0  0  0  0  0  0  0
  162.2780  213.7400  147.4850 C   0  0  1  0  0  3  0  0  0  0  0  0
  160.3140  211.0320  147.9370 C   0  0  0  0  0  1  0  0  0  0  0  0
  161.2320  211.2990  151.6640 C   0  0  0  0  0  0  0  0  0  0  0  0
  159.5960  212.5300  152.2330 C   0  0  0  0  0  0  0  0  0  0  0  0
  162.6820  210.3360  148.5900 C   0  0  0  0  0  2  0  0  0  0  0  0
  159.9710  213.0520  150.9640 N   0  0  0  0  0  0  0  0  0  0  0  0
  158.6170  213.0100  152.9470 C   0  0  0  0  0  0  0  0  0  0  0  0
  160.9510  212.2840  150.6180 C   0  0  0  0  0  0  0  0  0  0  0  0
  157.8940  214.4520  154.6280 O   0  0  0  0  0  1  0  0  0  0  0  0
  162.3170  210.2820  151.6540 C   0  0  0  0  0  2  0  0  0  0  0  0
  162.0790  209.1950  149.3500 C   0  0  0  0  0  0  0  0  0  0  0  0
  161.7210  211.4980  148.3040 C   0  0  2  0  0  0  0  0  0  0  0  0
  161.0570  207.2160  149.5960 C   0  0  0  0  0  0  0  0  0  0  0  0
  161.9510  209.1740  150.7330 C   0  0  0  0  0  0  0  0  0  0  0  0
  160.4760  206.0030  149.2260 O   0  0  0  0  0  0  0  0  0  0  0  0
  160.9750  204.7640  149.7060 C   0  0  0  0  0  1  0  0  0  0  0  0
  156.2450  212.9920  153.4320 C   0  0  2  0  0  3  0  0  0  0  0  0
  155.2990  214.4080  151.6090 C   0  0  0  0  0  1  0  0  0  0  0  0
  155.3290  214.1590  153.1060 C   0  0  0  0  0  2  0  0  0  0  0  0
  156.4300  211.0440  154.8090 O   0  0  0  0  0  1  0  0  0  0  0  0
  155.7360  212.2450  154.6590 C   0  0  0  0  0  2  0  0  0  0  0  0
  161.1260  214.4530  146.7910 C   0  0  0  0  0  2  0  0  0  0  0  0
  161.7660  213.8600  144.4210 C   0  0  0  0  0  0  0  0  0  0  0  0
  161.4970  213.2780  143.2140 C   0  0  0  0  0  0  0  0  0  0  0  0
  159.3350  212.5910  143.9860 C   0  0  0  0  0  3  0  0  0  0  0  0
  163.1290  214.4530  144.3680 C   0  0  0  0  0  2  0  0  0  0  0  0
  163.5620  214.1290  143.0050 N   0  0  0  0  0  0  0  0  0  0  0  0
  162.6480  213.4700  142.3600 C   0  0  0  0  0  3  0  0  0  0  0  0
  160.2900  212.6320  142.9560 C   0  0  0  0  0  3  0  0  0  0  0  0
  160.8330  213.8360  145.4620 C   0  0  0  0  0  0  0  0  0  0  0  0
  159.6060  213.1890  145.2340 C   0  0  0  0  0  3  0  0  0  0  0  0
  1 15  1  0  0  0  0
  2  1  1  0  0  0  0
  3 18  1  0  0  0  0
  3 20  2  0  0  0  0
  6  8  1  0  0  0  0
  6 19  1  0  0  0  0
  7 16  1  0  0  0  0
  8 29  1  6  0  0  0
  8  2  1  0  0  0  0
 10  4  2  0  0  0  0
 11  4  1  0  0  0  0
 11 14  2  0  0  0  0
 12 18  1  0  0  0  0
 13 11  1  0  0  0  0
 14  7  2  0  0  0  0
 15 13  2  0  0  0  0
 15 10  1  0  0  0  0
 17 10  1  0  0  0  0
 18 21  2  0  0  0  0
 19  9  1  6  0  0  0
 19 12  1  0  0  0  0
 19  1  1  0  0  0  0
 20  5  1  0  0  0  0
 21  5  1  0  0  0  0
 21 17  1  0  0  0  0
 22 20  1  0  0  0  0
 22 23  1  0  0  0  0
 24 26  1  1  0  0  0
 24  7  1  0  0  0  0
 24 28  1  0  0  0  0
 25 26  1  0  0  0  0
 28 27  1  0  0  0  0
 30 37  1  0  0  0  0
 31 30  2  0  0  0  0
 32 38  1  0  0  0  0
 33 30  1  0  0  0  0
 34 33  1  0  0  0  0
 35 34  2  0  0  0  0
 35 31  1  0  0  0  0
 36 31  1  0  0  0  0
 36 32  2  0  0  0  0
 37 29  1  0  0  0  0
 38 37  2  0  0  0  0
M  END
>  <MODEL>
9

>  <REMARK>
 VINA RESULT:      -4.2      3.285      7.945
  Name = 
  6 active torsions:
  status: ('A' for Active; 'I' for Inactive)
    1  A    between atoms: C_2  and  C_11
    2  A    between atoms: C_2  and  C_27
    3  A    between atoms: C_2  and  C_31
    4  A    between atoms: O_8  and  C_35
    5  A    between atoms: C_13  and  C_21
    6  A    between atoms: C_21  and  C_36
                            x       y       z     vdW  Elec       q    Type
                         _______ _______ _______ _____ _____    ______ ____

>  <TORSDO>
F 6

$$$$
