=
 OpenBabel11042421303D

 69 74  0  0  1  0  0  0  0  0999 V2000
  161.6180  207.6590  148.8970 C   0  0  0  0  0  3  0  0  0  0  0  0
  161.9190  208.8180  149.4990 C   0  0  0  0  0  0  0  0  0  0  0  0
  162.4320  212.2310  148.0810 C   0  0  0  0  0  2  0  0  0  0  0  0
  161.6000  210.1740  148.9370 C   0  0  1  0  0  3  0  0  0  0  0  0
  161.1120  213.6850  149.3430 C   0  0  0  0  0  1  0  0  0  0  0  0
  161.9590  212.5110  149.4430 N   0  0  0  0  0  0  0  0  0  0  0  0
  161.1030  211.3670  149.7920 C   0  0  2  0  0  3  0  0  0  0  0  0
  162.6650  210.7340  148.0220 C   0  0  0  0  0  2  0  0  0  0  0  0
  159.8270  211.2650  151.8110 O   0  0  0  0  0  0  0  0  0  0  0  0
  162.0790  211.0700  152.1330 O   0  0  0  0  0  1  0  0  0  0  0  0
  160.9780  211.2320  151.3010 C   0  0  0  0  0  0  0  0  0  0  0  0
  162.3140  208.7860  150.9390 C   0  0  0  0  0  2  0  0  0  0  0  0
  161.3050  208.1500  151.6770 O   0  0  0  0  0  0  0  0  0  0  0  0
  161.7480  206.8280  151.8930 C   0  0  2  0  0  3  0  0  0  0  0  0
  161.0090  205.5490  153.7830 C   0  0  0  0  0  2  0  0  0  0  0  0
  160.0400  206.1890  154.7500 C   0  0  0  0  0  2  0  0  0  0  0  0
  160.7860  207.3930  155.2540 C   0  0  1  0  0  3  0  0  0  0  0  0
  161.7450  207.7550  154.1350 C   0  0  0  0  0  2  0  0  0  0  0  0
  161.9740  206.5460  153.3360 N   0  0  0  0  0  0  0  0  0  0  0  0
  158.2780  210.7310  154.0440 N   0  0  0  0  0  0  0  0  0  0  0  0
  159.1630  210.8600  155.1480 C   0  0  0  0  0  0  0  0  0  0  0  0
  161.0260  212.5810  156.7410 N   0  0  0  0  0  2  0  0  0  0  0  0
  159.6000  212.4430  157.0260 C   0  0  0  0  0  2  0  0  0  0  0  0
  161.6560  211.2790  156.9380 C   0  0  0  0  0  2  0  0  0  0  0  0
  158.6640  208.2220  155.9650 O   0  0  0  0  0  0  0  0  0  0  0  0
  159.8530  208.5320  155.6440 C   0  0  0  0  0  0  0  0  0  0  0  0
  158.9000  211.9560  155.8000 C   0  0  0  0  0  0  0  0  0  0  0  0
  161.5530  210.4140  155.6710 C   0  0  0  0  0  2  0  0  0  0  0  0
  157.8190  212.5970  155.1320 N   0  0  0  0  0  0  0  0  0  0  0  0
  160.1900  209.9190  155.4840 N   0  0  0  0  0  0  0  0  0  0  0  0
  157.4550  211.8710  153.9760 N   0  0  0  0  0  0  0  0  0  0  0  0
  157.5930  214.0410  155.2320 C   0  0  0  0  0  2  0  0  0  0  0  0
  156.8960  214.3900  156.5290 C   0  0  0  0  0  1  0  0  0  0  0  0
  162.9970  206.5610  151.0370 C   0  0  0  0  0  2  0  0  0  0  0  0
  163.9030  205.7200  151.7160 O   0  0  0  0  0  1  0  0  0  0  0  0
  160.9930  207.5250  147.5360 C   0  0  0  0  0  2  0  0  0  0  0  0
  159.7290  205.8780  146.3210 O   0  0  0  0  0  1  0  0  0  0  0  0
  160.8620  206.0580  147.1370 C   0  0  1  0  0  3  0  0  0  0  0  0
  162.0150  205.6590  146.4510 O   0  0  0  0  0  0  0  0  0  0  0  0
  161.5880  204.7570  145.4680 C   0  0  2  0  0  3  0  0  0  0  0  0
  162.1640  203.0520  147.3220 C   0  0  0  0  0  2  0  0  0  0  0  0
  161.8790  203.2970  145.8420 C   0  0  1  0  0  3  0  0  0  0  0  0
  159.9930  202.1570  146.7670 N   0  0  0  0  0  2  0  0  0  0  0  0
  161.0130  202.1830  147.7940 C   0  0  2  0  0  3  0  0  0  0  0  0
  160.6920  202.4360  145.5150 C   0  0  0  0  0  2  0  0  0  0  0  0
  160.8730  201.9760  150.2710 C   0  0  0  0  0  1  0  0  0  0  0  0
  160.4270  202.7710  149.0620 C   0  0  0  0  0  2  0  0  0  0  0  0
  162.2870  205.0780  144.1370 C   0  0  0  0  0  2  0  0  0  0  0  0
  161.5120  206.0300  143.2600 C   0  0  0  0  0  0  0  0  0  0  0  0
  160.7440  206.8730  143.7930 O   0  0  0  0  0  0  0  0  0  0  0  0
  161.6380  206.0550  141.8770 O   0  0  0  0  0  0  0  0  0  0  0  0
  162.6300  206.8070  141.1830 C   0  0  0  0  0  2  0  0  0  0  0  0
  160.8790  210.1750  139.1890 C   0  0  0  0  0  0  0  0  0  0  0  0
  161.7240  207.8830  139.0730 C   0  0  0  0  0  0  0  0  0  0  0  0
  161.0950  210.1420  140.5790 C   0  0  0  0  0  0  0  0  0  0  0  0
  161.1830  209.0240  138.4320 C   0  0  0  0  0  0  0  0  0  0  0  0
  161.9350  207.9250  140.4560 C   0  0  0  0  0  0  0  0  0  0  0  0
  160.9130  209.0100  137.0230 N   0  0  0  0  0  1  0  0  0  0  0  0
  161.6130  209.0380  141.1570 N   0  0  0  0  0  0  0  0  0  0  0  0
  160.7770  211.2850  141.4770 C   0  0  0  0  0  1  0  0  0  0  0  0
  162.9150  206.5150  137.4790 O   0  0  0  0  0  0  0  0  0  0  0  0
  162.0210  206.6070  138.3650 C   0  0  0  0  0  3  0  0  0  0  0  0
  160.1660  211.3180  138.4780 C   0  0  2  0  0  3  0  0  0  0  0  0
  158.5380  210.2460  137.0330 O   0  0  0  0  0  1  0  0  0  0  0  0
  158.6800  211.1300  138.1030 C   0  0  2  0  0  3  0  0  0  0  0  0
  156.8230  212.6060  138.4610 O   0  0  0  0  0  1  0  0  0  0  0  0
  158.0250  212.4710  137.7650 C   0  0  0  0  0  2  0  0  0  0  0  0
  160.9420  212.0400  137.5370 O   0  0  0  0  0  0  0  0  0  0  0  0
  162.2120  211.7800  137.8010 O   0  0  0  0  0  1  0  0  0  0  0  0
  1  2  2  0  0  0  0
  2 12  1  0  0  0  0
  3  6  1  0  0  0  0
  4  2  1  1  0  0  0
  4  7  1  0  0  0  0
  5  6  1  0  0  0  0
  6  7  1  0  0  0  0
  7 11  1  1  0  0  0
  8  3  1  0  0  0  0
  8  4  1  0  0  0  0
 11  9  2  0  0  0  0
 11 10  1  0  0  0  0
 12 13  1  0  0  0  0
 13 14  1  0  0  0  0
 14 34  1  6  0  0  0
 14 19  1  0  0  0  0
 15 16  1  0  0  0  0
 16 17  1  0  0  0  0
 17 26  1  6  0  0  0
 18 17  1  0  0  0  0
 19 15  1  0  0  0  0
 19 18  1  0  0  0  0
 20 21  1  0  0  0  0
 21 30  1  0  0  0  0
 21 27  2  0  0  0  0
 22 24  1  0  0  0  0
 22 23  1  0  0  0  0
 26 25  2  0  0  0  0
 27 23  1  0  0  0  0
 28 24  1  0  0  0  0
 29 32  1  0  0  0  0
 29 27  1  0  0  0  0
 30 26  1  0  0  0  0
 30 28  1  0  0  0  0
 31 20  2  0  0  0  0
 31 29  1  0  0  0  0
 32 33  1  0  0  0  0
 34 35  1  0  0  0  0
 36  1  1  0  0  0  0
 38 37  1  6  0  0  0
 38 36  1  0  0  0  0
 39 38  1  0  0  0  0
 40 48  1  6  0  0  0
 40 39  1  0  0  0  0
 41 44  1  0  0  0  0
 42 40  1  1  0  0  0
 42 41  1  0  0  0  0
 43 44  1  0  0  0  0
 44 47  1  1  0  0  0
 45 42  1  0  0  0  0
 45 43  1  0  0  0  0
 47 46  1  0  0  0  0
 49 50  2  0  0  0  0
 49 48  1  0  0  0  0
 51 49  1  0  0  0  0
 52 51  1  0  0  0  0
 53 55  1  0  0  0  0
 54 57  2  0  0  0  0
 55 59  2  0  0  0  0
 55 60  1  0  0  0  0
 56 54  1  0  0  0  0
 56 53  2  0  0  0  0
 57 59  1  0  0  0  0
 57 52  1  0  0  0  0
 58 56  1  0  0  0  0
 61 62  2  0  0  0  0
 62 54  1  0  0  0  0
 63 68  1  6  0  0  0
 63 53  1  0  0  0  0
 65 64  1  6  0  0  0
 65 63  1  0  0  0  0
 67 65  1  0  0  0  0
 67 66  1  0  0  0  0
 68 69  1  0  0  0  0
M  END
>  <MODEL>
1

>  <REMARK>
 VINA RESULT:      -0.1      0.000      0.000
  Name = 
  25 active torsions:
  status: ('A' for Active; 'I' for Inactive)
    1  A    between atoms: C_1  and  C_13
    2  A    between atoms: C_1  and  C_45
    3  A    between atoms: O_5  and  C_14
    4  A    between atoms: O_5  and  C_63
    5  A    between atoms: C_7  and  C_35
    6  A    between atoms: C_9  and  C_55
    7  A    between atoms: C_10  and  C_45
    8  A    between atoms: C_11  and  C_53
    9  A    between atoms: C_13  and  O_34
   10  A    between atoms: C_14  and  C_21
   11  A    between atoms: C_14  and  N_54
   12  A    between atoms: O_17  and  C_35
   13  A    between atoms: O_19  and  C_45
   14  A    between atoms: O_19  and  C_58
   15  A    between atoms: C_20  and  C_26
   16  A    between atoms: C_20  and  C_58
   17  A    between atoms: C_24  and  C_67
   18  A    between atoms: C_31  and  C_52
   19  A    between atoms: O_34  and  C_52
   20  A    between atoms: C_35  and  C_67
   21  A    between atoms: C_37  and  C_50
   22  A    between atoms: C_41  and  C_44
   23  A    between atoms: C_49  and  C_64
   24  A    between atoms: C_55  and  C_63
   25  A    between atoms: N_59  and  C_62
                            x       y       z     vdW  Elec       q    Type
                         _______ _______ _______ _____ _____    ______ ____

>  <TORSDO>
F 25

$$$$
=
 OpenBabel11042421303D

 69 74  0  0  1  0  0  0  0  0999 V2000
  160.8570  207.1940  149.1600 C   0  0  0  0  0  3  0  0  0  0  0  0
  161.5390  207.7130  148.1300 C   0  0  0  0  0  0  0  0  0  0  0  0
  160.1300  206.0180  145.1200 C   0  0  0  0  0  2  0  0  0  0  0  0
  161.3850  207.2730  146.7020 C   0  0  1  0  0  3  0  0  0  0  0  0
  161.8990  204.8900  144.0970 C   0  0  0  0  0  1  0  0  0  0  0  0
  161.3460  205.2410  145.3930 N   0  0  0  0  0  0  0  0  0  0  0  0
  162.2680  206.1910  146.0320 C   0  0  2  0  0  3  0  0  0  0  0  0
  159.9640  206.9550  146.3000 C   0  0  0  0  0  2  0  0  0  0  0  0
  163.4160  204.2030  146.7020 O   0  0  0  0  0  0  0  0  0  0  0  0
  164.1860  206.0980  147.7170 O   0  0  0  0  0  1  0  0  0  0  0  0
  163.3230  205.4520  146.8400 C   0  0  0  0  0  0  0  0  0  0  0  0
  162.2670  209.0000  148.3410 C   0  0  0  0  0  2  0  0  0  0  0  0
  161.7310  209.9750  147.4870 O   0  0  0  0  0  0  0  0  0  0  0  0
  161.6410  211.1590  148.2480 C   0  0  2  0  0  3  0  0  0  0  0  0
  161.9340  213.5330  148.0700 C   0  0  0  0  0  2  0  0  0  0  0  0
  161.4170  214.2310  146.8340 C   0  0  0  0  0  2  0  0  0  0  0  0
  162.1740  213.5740  145.7130 C   0  0  1  0  0  3  0  0  0  0  0  0
  162.5100  212.1880  146.2300 C   0  0  0  0  0  2  0  0  0  0  0  0
  162.4980  212.2420  147.6960 N   0  0  0  0  0  0  0  0  0  0  0  0
  160.3510  211.3000  142.4890 N   0  0  0  0  0  0  0  0  0  0  0  0
  161.1160  212.4630  142.2050 C   0  0  0  0  0  0  0  0  0  0  0  0
  163.0280  213.8820  140.3880 N   0  0  0  0  0  2  0  0  0  0  0  0
  161.5750  213.9810  140.2800 C   0  0  0  0  0  2  0  0  0  0  0  0
  163.4280  214.4530  141.6710 C   0  0  0  0  0  2  0  0  0  0  0  0
  160.1360  213.7680  144.4880 O   0  0  0  0  0  0  0  0  0  0  0  0
  161.3860  213.5600  144.4100 C   0  0  0  0  0  0  0  0  0  0  0  0
  160.9510  212.8090  140.9610 C   0  0  0  0  0  0  0  0  0  0  0  0
  163.3380  213.4110  142.7970 C   0  0  0  0  0  2  0  0  0  0  0  0
  160.0610  211.8650  140.3740 N   0  0  0  0  0  0  0  0  0  0  0  0
  161.9450  213.1440  143.1540 N   0  0  0  0  0  0  0  0  0  0  0  0
  159.7220  210.8610  141.3080 N   0  0  0  0  0  0  0  0  0  0  0  0
  160.0450  211.6060  138.9330 C   0  0  0  0  0  2  0  0  0  0  0  0
  158.6720  211.8650  138.3520 C   0  0  0  0  0  1  0  0  0  0  0  0
  161.9600  210.8470  149.7200 C   0  0  0  0  0  2  0  0  0  0  0  0
  163.1520  211.4820  150.1230 O   0  0  0  0  0  1  0  0  0  0  0  0
  159.8960  206.0410  149.0700 C   0  0  0  0  0  2  0  0  0  0  0  0
  161.9700  204.8590  149.3670 O   0  0  0  0  0  1  0  0  0  0  0  0
  160.5720  204.7330  149.4710 C   0  0  1  0  0  3  0  0  0  0  0  0
  160.2170  204.4110  150.7870 O   0  0  0  0  0  0  0  0  0  0  0  0
  161.2270  203.5670  151.2660 C   0  0  2  0  0  3  0  0  0  0  0  0
  159.7040  201.7900  150.1710 C   0  0  0  0  0  2  0  0  0  0  0  0
  160.8800  202.0810  151.1020 C   0  0  1  0  0  3  0  0  0  0  0  0
  161.7570  201.1150  149.0990 N   0  0  0  0  0  2  0  0  0  0  0  0
  160.3150  201.0290  149.0090 C   0  0  2  0  0  3  0  0  0  0  0  0
  162.0490  201.3420  150.5130 C   0  0  0  0  0  2  0  0  0  0  0  0
  161.0520  201.9990  146.8390 C   0  0  0  0  0  1  0  0  0  0  0  0
  159.8600  201.6530  147.7050 C   0  0  0  0  0  2  0  0  0  0  0  0
  161.4780  203.8570  152.7550 C   0  0  0  0  0  2  0  0  0  0  0  0
  161.0040  205.2210  153.1940 C   0  0  0  0  0  0  0  0  0  0  0  0
  160.5540  205.3710  154.3600 O   0  0  0  0  0  0  0  0  0  0  0  0
  161.0820  206.3450  152.3830 O   0  0  0  0  0  0  0  0  0  0  0  0
  162.0200  207.4010  152.5770 C   0  0  0  0  0  2  0  0  0  0  0  0
  159.6710  210.6450  154.1100 C   0  0  0  0  0  0  0  0  0  0  0  0
  161.0140  208.6490  154.5440 C   0  0  0  0  0  0  0  0  0  0  0  0
  159.9960  210.5190  152.7460 C   0  0  0  0  0  0  0  0  0  0  0  0
  160.2020  209.7070  155.0180 C   0  0  0  0  0  0  0  0  0  0  0  0
  161.2810  208.5680  153.1720 C   0  0  0  0  0  0  0  0  0  0  0  0
  159.9380  209.8500  156.4210 N   0  0  0  0  0  1  0  0  0  0  0  0
  160.7730  209.4970  152.3280 N   0  0  0  0  0  0  0  0  0  0  0  0
  159.5200  211.4720  151.7060 C   0  0  0  0  0  1  0  0  0  0  0  0
  162.0350  207.9240  156.6090 O   0  0  0  0  0  0  0  0  0  0  0  0
  161.6640  207.6470  155.4340 C   0  0  0  0  0  3  0  0  0  0  0  0
  158.9280  211.8420  154.6870 C   0  0  2  0  0  3  0  0  0  0  0  0
  156.6610  212.7070  154.6840 O   0  0  0  0  0  1  0  0  0  0  0  0
  157.4590  211.6490  155.1220 C   0  0  2  0  0  3  0  0  0  0  0  0
  157.6270  212.7250  157.2600 O   0  0  0  0  0  1  0  0  0  0  0  0
  157.3500  211.5050  156.6420 C   0  0  0  0  0  2  0  0  0  0  0  0
  159.2270  213.0970  154.0990 O   0  0  0  0  0  0  0  0  0  0  0  0
  159.2090  213.9950  155.0700 O   0  0  0  0  0  1  0  0  0  0  0  0
  2 12  1  0  0  0  0
  2  1  2  0  0  0  0
  3  6  1  0  0  0  0
  3  8  1  0  0  0  0
  4  2  1  1  0  0  0
  5  6  1  0  0  0  0
  6  7  1  0  0  0  0
  7  4  1  0  0  0  0
  7 11  1  1  0  0  0
  8  4  1  0  0  0  0
  9 11  2  0  0  0  0
 11 10  1  0  0  0  0
 13 14  1  0  0  0  0
 13 12  1  0  0  0  0
 14 34  1  1  0  0  0
 16 15  1  0  0  0  0
 17 26  1  6  0  0  0
 17 18  1  0  0  0  0
 17 16  1  0  0  0  0
 18 19  1  0  0  0  0
 19 15  1  0  0  0  0
 19 14  1  0  0  0  0
 21 20  1  0  0  0  0
 21 30  1  0  0  0  0
 22 24  1  0  0  0  0
 23 22  1  0  0  0  0
 23 27  1  0  0  0  0
 24 28  1  0  0  0  0
 26 25  2  0  0  0  0
 27 21  2  0  0  0  0
 28 30  1  0  0  0  0
 29 27  1  0  0  0  0
 29 31  1  0  0  0  0
 30 26  1  0  0  0  0
 31 20  2  0  0  0  0
 32 29  1  0  0  0  0
 33 32  1  0  0  0  0
 34 35  1  0  0  0  0
 36  1  1  0  0  0  0
 36 38  1  0  0  0  0
 38 37  1  1  0  0  0
 38 39  1  0  0  0  0
 39 40  1  0  0  0  0
 40 48  1  1  0  0  0
 41 42  1  0  0  0  0
 42 40  1  6  0  0  0
 43 45  1  0  0  0  0
 44 47  1  6  0  0  0
 44 43  1  0  0  0  0
 44 41  1  0  0  0  0
 45 42  1  0  0  0  0
 46 47  1  0  0  0  0
 48 49  1  0  0  0  0
 49 50  2  0  0  0  0
 51 52  1  0  0  0  0
 51 49  1  0  0  0  0
 52 57  1  0  0  0  0
 53 63  1  0  0  0  0
 53 56  1  0  0  0  0
 54 56  2  0  0  0  0
 54 62  1  0  0  0  0
 55 53  2  0  0  0  0
 56 58  1  0  0  0  0
 57 54  1  0  0  0  0
 59 55  1  0  0  0  0
 59 57  2  0  0  0  0
 60 55  1  0  0  0  0
 62 61  2  0  0  0  0
 63 68  1  6  0  0  0
 63 65  1  0  0  0  0
 65 64  1  1  0  0  0
 65 67  1  0  0  0  0
 67 66  1  0  0  0  0
 68 69  1  0  0  0  0
M  END
>  <MODEL>
2

>  <REMARK>
 VINA RESULT:       1.5      3.205     11.652
  Name = 
  25 active torsions:
  status: ('A' for Active; 'I' for Inactive)
    1  A    between atoms: C_1  and  C_13
    2  A    between atoms: C_1  and  C_45
    3  A    between atoms: O_5  and  C_14
    4  A    between atoms: O_5  and  C_63
    5  A    between atoms: C_7  and  C_35
    6  A    between atoms: C_9  and  C_55
    7  A    between atoms: C_10  and  C_45
    8  A    between atoms: C_11  and  C_53
    9  A    between atoms: C_13  and  O_34
   10  A    between atoms: C_14  and  C_21
   11  A    between atoms: C_14  and  N_54
   12  A    between atoms: O_17  and  C_35
   13  A    between atoms: O_19  and  C_45
   14  A    between atoms: O_19  and  C_58
   15  A    between atoms: C_20  and  C_26
   16  A    between atoms: C_20  and  C_58
   17  A    between atoms: C_24  and  C_67
   18  A    between atoms: C_31  and  C_52
   19  A    between atoms: O_34  and  C_52
   20  A    between atoms: C_35  and  C_67
   21  A    between atoms: C_37  and  C_50
   22  A    between atoms: C_41  and  C_44
   23  A    between atoms: C_49  and  C_64
   24  A    between atoms: C_55  and  C_63
   25  A    between atoms: N_59  and  C_62
                            x       y       z     vdW  Elec       q    Type
                         _______ _______ _______ _____ _____    ______ ____

>  <TORSDO>
F 25

$$$$
=
 OpenBabel11042421303D

 69 74  0  0  1  0  0  0  0  0999 V2000
  161.1580  207.6970  149.6750 C   0  0  0  0  0  3  0  0  0  0  0  0
  161.7780  208.1220  148.5650 C   0  0  0  0  0  0  0  0  0  0  0  0
  160.0120  206.3590  145.7910 C   0  0  0  0  0  2  0  0  0  0  0  0
  161.4490  207.6510  147.1760 C   0  0  1  0  0  3  0  0  0  0  0  0
  161.6450  205.2120  144.5800 C   0  0  0  0  0  1  0  0  0  0  0  0
  161.2560  205.5910  145.9260 N   0  0  0  0  0  0  0  0  0  0  0  0
  162.2470  206.5560  146.4250 C   0  0  2  0  0  3  0  0  0  0  0  0
  159.9900  207.3220  146.9620 C   0  0  0  0  0  2  0  0  0  0  0  0
  163.9790  206.4140  148.0690 O   0  0  0  0  0  1  0  0  0  0  0  0
  163.8250  204.5710  146.7290 O   0  0  0  0  0  0  0  0  0  0  0  0
  163.3970  205.8360  147.1110 C   0  0  0  0  0  0  0  0  0  0  0  0
  162.6280  209.3470  148.6540 C   0  0  0  0  0  2  0  0  0  0  0  0
  162.2070  210.2680  147.6830 O   0  0  0  0  0  0  0  0  0  0  0  0
  161.7470  211.4000  148.3860 C   0  0  2  0  0  3  0  0  0  0  0  0
  161.6160  213.7940  148.3250 C   0  0  0  0  0  2  0  0  0  0  0  0
  161.0640  214.4520  147.0820 C   0  0  0  0  0  2  0  0  0  0  0  0
  161.9990  214.0000  145.9960 C   0  0  1  0  0  3  0  0  0  0  0  0
  162.5460  212.6710  146.4800 C   0  0  0  0  0  2  0  0  0  0  0  0
  162.4280  212.6460  147.9430 N   0  0  0  0  0  0  0  0  0  0  0  0
  160.2770  211.5550  142.8420 N   0  0  0  0  0  0  0  0  0  0  0  0
  161.1390  212.6380  142.5220 C   0  0  0  0  0  0  0  0  0  0  0  0
  163.2760  213.7630  140.7520 N   0  0  0  0  0  2  0  0  0  0  0  0
  161.8460  213.9420  140.5170 C   0  0  0  0  0  2  0  0  0  0  0  0
  163.6150  214.4250  142.0080 C   0  0  0  0  0  2  0  0  0  0  0  0
  160.0790  214.2050  144.5950 O   0  0  0  0  0  0  0  0  0  0  0  0
  161.3140  213.9150  144.6390 C   0  0  0  0  0  0  0  0  0  0  0  0
  161.0930  212.8770  141.2430 C   0  0  0  0  0  0  0  0  0  0  0  0
  163.3680  213.4990  143.2100 C   0  0  0  0  0  2  0  0  0  0  0  0
  160.1880  211.9400  140.6690 N   0  0  0  0  0  0  0  0  0  0  0  0
  161.9380  213.3520  143.4730 N   0  0  0  0  0  0  0  0  0  0  0  0
  159.7110  211.0480  141.6560 N   0  0  0  0  0  0  0  0  0  0  0  0
  160.2650  211.5500  139.2600 C   0  0  0  0  0  2  0  0  0  0  0  0
  159.5690  212.5660  138.3800 C   0  0  0  0  0  1  0  0  0  0  0  0
  161.8900  211.1560  149.8980 C   0  0  0  0  0  2  0  0  0  0  0  0
  160.8180  211.7380  150.6060 O   0  0  0  0  0  1  0  0  0  0  0  0
  160.1010  206.6290  149.7240 C   0  0  0  0  0  2  0  0  0  0  0  0
  162.0270  205.1920  149.6070 O   0  0  0  0  0  1  0  0  0  0  0  0
  160.6620  205.2840  149.2740 C   0  0  1  0  0  3  0  0  0  0  0  0
  159.9470  204.2520  149.8950 O   0  0  0  0  0  0  0  0  0  0  0  0
  160.5710  203.0590  149.5070 C   0  0  2  0  0  3  0  0  0  0  0  0
  160.7450  201.9240  147.1930 C   0  0  0  0  0  2  0  0  0  0  0  0
  159.8460  202.3670  148.3450 C   0  0  1  0  0  3  0  0  0  0  0  0
  159.9970  199.9830  148.4150 N   0  0  0  0  0  2  0  0  0  0  0  0
  160.6540  200.4090  147.1970 C   0  0  2  0  0  3  0  0  0  0  0  0
  159.1730  201.1150  148.8330 C   0  0  0  0  0  2  0  0  0  0  0  0
  162.1160  198.6870  146.1530 C   0  0  0  0  0  1  0  0  0  0  0  0
  162.0500  199.8210  147.1540 C   0  0  0  0  0  2  0  0  0  0  0  0
  160.6270  202.0950  150.7030 C   0  0  0  0  0  2  0  0  0  0  0  0
  160.5270  202.7840  152.0420 C   0  0  0  0  0  0  0  0  0  0  0  0
  160.1970  202.1150  153.0560 O   0  0  0  0  0  0  0  0  0  0  0  0
  160.8270  204.1270  152.2240 O   0  0  0  0  0  0  0  0  0  0  0  0
  161.8080  204.6050  153.1420 C   0  0  0  0  0  2  0  0  0  0  0  0
  160.7960  208.5130  154.5890 C   0  0  0  0  0  0  0  0  0  0  0  0
  161.9970  207.1280  152.9700 C   0  0  0  0  0  0  0  0  0  0  0  0
  160.2280  207.3360  155.1140 C   0  0  0  0  0  0  0  0  0  0  0  0
  161.6770  208.4040  153.4930 C   0  0  0  0  0  0  0  0  0  0  0  0
  161.4140  205.9970  153.5520 C   0  0  0  0  0  0  0  0  0  0  0  0
  162.2200  209.5920  152.9000 N   0  0  0  0  0  1  0  0  0  0  0  0
  160.5560  206.1360  154.5910 N   0  0  0  0  0  0  0  0  0  0  0  0
  159.2610  207.3360  156.2440 C   0  0  0  0  0  1  0  0  0  0  0  0
  163.7610  206.0280  151.7410 O   0  0  0  0  0  0  0  0  0  0  0  0
  162.8700  206.9220  151.7810 C   0  0  0  0  0  3  0  0  0  0  0  0
  160.3740  209.9120  155.0180 C   0  0  2  0  0  3  0  0  0  0  0  0
  160.8900  211.8550  156.3740 O   0  0  0  0  0  1  0  0  0  0  0  0
  160.9180  210.4610  156.3540 C   0  0  2  0  0  3  0  0  0  0  0  0
  163.2640  210.9630  156.3060 O   0  0  0  0  0  1  0  0  0  0  0  0
  162.3420  209.9610  156.6150 C   0  0  0  0  0  2  0  0  0  0  0  0
  159.0390  210.2740  154.7110 O   0  0  0  0  0  0  0  0  0  0  0  0
  158.4250  210.5020  155.8600 O   0  0  0  0  0  1  0  0  0  0  0  0
  1 36  1  0  0  0  0
  2 12  1  0  0  0  0
  2  1  2  0  0  0  0
  3  6  1  0  0  0  0
  3  8  1  0  0  0  0
  4  2  1  1  0  0  0
  5  6  1  0  0  0  0
  6  7  1  0  0  0  0
  7 11  1  1  0  0  0
  7  4  1  0  0  0  0
  8  4  1  0  0  0  0
 10 11  2  0  0  0  0
 11  9  1  0  0  0  0
 13 14  1  0  0  0  0
 13 12  1  0  0  0  0
 14 34  1  1  0  0  0
 16 15  1  0  0  0  0
 17 26  1  6  0  0  0
 17 18  1  0  0  0  0
 17 16  1  0  0  0  0
 18 19  1  0  0  0  0
 19 15  1  0  0  0  0
 19 14  1  0  0  0  0
 21 20  1  0  0  0  0
 21 30  1  0  0  0  0
 22 24  1  0  0  0  0
 23 22  1  0  0  0  0
 23 27  1  0  0  0  0
 24 28  1  0  0  0  0
 25 26  2  0  0  0  0
 27 21  2  0  0  0  0
 28 30  1  0  0  0  0
 29 27  1  0  0  0  0
 29 31  1  0  0  0  0
 30 26  1  0  0  0  0
 31 20  2  0  0  0  0
 32 29  1  0  0  0  0
 33 32  1  0  0  0  0
 34 35  1  0  0  0  0
 38 37  1  1  0  0  0
 38 36  1  0  0  0  0
 38 39  1  0  0  0  0
 40 39  1  0  0  0  0
 40 48  1  1  0  0  0
 41 44  1  0  0  0  0
 41 42  1  0  0  0  0
 42 45  1  0  0  0  0
 42 40  1  1  0  0  0
 43 45  1  0  0  0  0
 44 47  1  1  0  0  0
 44 43  1  0  0  0  0
 46 47  1  0  0  0  0
 48 49  1  0  0  0  0
 49 51  1  0  0  0  0
 49 50  2  0  0  0  0
 51 52  1  0  0  0  0
 52 57  1  0  0  0  0
 53 63  1  0  0  0  0
 53 55  1  0  0  0  0
 54 56  1  0  0  0  0
 54 57  2  0  0  0  0
 55 60  1  0  0  0  0
 56 53  2  0  0  0  0
 57 59  1  0  0  0  0
 58 56  1  0  0  0  0
 59 55  2  0  0  0  0
 61 62  2  0  0  0  0
 62 54  1  0  0  0  0
 63 68  1  1  0  0  0
 63 65  1  0  0  0  0
 65 64  1  6  0  0  0
 65 67  1  0  0  0  0
 66 67  1  0  0  0  0
 68 69  1  0  0  0  0
M  END
>  <MODEL>
3

>  <REMARK>
 VINA RESULT:       2.8      3.407     11.532
  Name = 
  25 active torsions:
  status: ('A' for Active; 'I' for Inactive)
    1  A    between atoms: C_1  and  C_13
    2  A    between atoms: C_1  and  C_45
    3  A    between atoms: O_5  and  C_14
    4  A    between atoms: O_5  and  C_63
    5  A    between atoms: C_7  and  C_35
    6  A    between atoms: C_9  and  C_55
    7  A    between atoms: C_10  and  C_45
    8  A    between atoms: C_11  and  C_53
    9  A    between atoms: C_13  and  O_34
   10  A    between atoms: C_14  and  C_21
   11  A    between atoms: C_14  and  N_54
   12  A    between atoms: O_17  and  C_35
   13  A    between atoms: O_19  and  C_45
   14  A    between atoms: O_19  and  C_58
   15  A    between atoms: C_20  and  C_26
   16  A    between atoms: C_20  and  C_58
   17  A    between atoms: C_24  and  C_67
   18  A    between atoms: C_31  and  C_52
   19  A    between atoms: O_34  and  C_52
   20  A    between atoms: C_35  and  C_67
   21  A    between atoms: C_37  and  C_50
   22  A    between atoms: C_41  and  C_44
   23  A    between atoms: C_49  and  C_64
   24  A    between atoms: C_55  and  C_63
   25  A    between atoms: N_59  and  C_62
                            x       y       z     vdW  Elec       q    Type
                         _______ _______ _______ _____ _____    ______ ____

>  <TORSDO>
F 25

$$$$
