=
 OpenBabel11042421113D

 64 70  0  0  1  0  0  0  0  0999 V2000
  161.4470  208.0440  149.5870 C   0  0  2  0  0  3  0  0  0  0  0  0
  161.8010  206.1360  147.9680 N   0  0  0  0  0  0  0  0  0  0  0  0
  160.9150  206.9100  148.7760 C   0  0  0  0  0  0  0  0  0  0  0  0
  162.2910  206.7330  146.7220 C   0  0  0  0  0  2  0  0  0  0  0  0
  162.6580  205.6410  145.7100 C   0  0  0  0  0  2  0  0  0  0  0  0
  161.7710  204.6860  148.0920 C   0  0  0  0  0  2  0  0  0  0  0  0
  161.0770  204.1190  146.8490 C   0  0  1  0  0  3  0  0  0  0  0  0
  161.5580  204.6690  145.5630 N   0  0  0  0  0  2  0  0  0  0  0  0
  159.6940  206.6080  148.8380 O   0  0  0  0  0  0  0  0  0  0  0  0
  161.0180  202.6170  146.8520 C   0  0  0  0  0  0  0  0  0  0  0  0
  160.8100  202.0620  145.7810 O   0  0  0  0  0  0  0  0  0  0  0  0
  162.4400  202.0910  148.6750 O   0  0  0  0  0  1  0  0  0  0  0  0
  161.1600  200.3070  147.7800 C   0  0  0  0  0  1  0  0  0  0  0  0
  161.1850  201.7980  148.1290 C   0  0  2  0  0  0  0  0  0  0  0  0
  159.0320  201.1830  149.1110 C   0  0  0  0  0  1  0  0  0  0  0  0
  160.1330  202.1450  149.1180 N   0  0  0  0  0  0  0  0  0  0  0  0
  160.6800  202.1360  150.4720 C   0  0  0  0  0  1  0  0  0  0  0  0
  161.9580  209.0340  148.6930 O   0  0  0  0  0  0  0  0  0  0  0  0
  161.2480  212.3300  147.1740 C   0  0  0  0  0  0  0  0  0  0  0  0
  161.5590  210.9790  147.3260 C   0  0  0  0  0  3  0  0  0  0  0  0
  160.6590  213.3300  150.7780 C   0  0  0  0  0  1  0  0  0  0  0  0
  161.2800  211.1640  149.7130 C   0  0  0  0  0  3  0  0  0  0  0  0
  160.9540  213.1040  148.3060 C   0  0  0  0  0  3  0  0  0  0  0  0
  161.5840  210.3830  148.5920 C   0  0  0  0  0  0  0  0  0  0  0  0
  160.9700  212.5170  149.5730 C   0  0  0  0  0  0  0  0  0  0  0  0
  158.9350  212.2400  145.3780 O   0  0  0  0  0  0  0  0  0  0  0  0
  160.0300  212.7230  144.9720 C   0  0  0  0  0  0  0  0  0  0  0  0
  161.1450  212.8640  145.8570 N   0  0  0  0  0  2  0  0  0  0  0  0
  160.1190  213.2890  143.6020 C   0  0  0  0  0  2  0  0  0  0  0  0
  160.3830  212.1750  142.6080 C   0  0  0  0  0  2  0  0  0  0  0  0
  163.7380  211.5420  139.2100 C   0  0  0  0  0  1  0  0  0  0  0  0
  160.5100  213.0190  140.1540 C   0  0  1  0  0  3  0  0  0  0  0  0
  162.2800  211.6620  141.1560 N   0  0  0  0  0  2  0  0  0  0  0  0
  161.2560  212.6580  141.4560 C   0  0  2  0  0  3  0  0  0  0  0  0
  162.3120  211.4900  139.7100 C   0  0  0  0  0  0  0  0  0  0  0  0
  161.5090  212.6110  139.0910 C   0  0  0  0  0  2  0  0  0  0  0  0
  161.6990  210.1520  139.3550 C   0  0  0  0  0  1  0  0  0  0  0  0
  157.3890  210.7850  137.9610 C   0  0  1  0  0  3  0  0  0  0  0  0
  158.7880  210.7410  138.1210 O   0  0  0  0  0  0  0  0  0  0  0  0
  159.1770  212.2720  139.9380 C   0  0  2  0  0  3  0  0  0  0  0  0
  156.9110  213.1690  137.2280 C   0  0  0  0  0  1  0  0  0  0  0  0
  158.8250  212.1100  138.4610 C   0  0  2  0  0  3  0  0  0  0  0  0
  156.7850  212.6200  139.7270 C   0  0  0  0  0  2  0  0  0  0  0  0
  157.9960  213.0180  140.5440 C   0  0  0  0  0  2  0  0  0  0  0  0
  156.7240  209.8420  138.9560 C   0  0  0  0  0  1  0  0  0  0  0  0
  157.3340  212.2480  138.3550 C   0  0  2  0  0  0  0  0  0  0  0  0
  162.4600  207.5430  150.6070 C   0  0  0  0  0  2  0  0  0  0  0  0
  161.7490  206.5580  151.5290 C   0  0  0  0  0  2  0  0  0  0  0  0
  159.3690  211.5990  156.9890 C   0  0  2  0  0  3  0  0  0  0  0  0
  161.8010  210.2880  154.6240 N   0  0  0  0  0  0  0  0  0  0  0  0
  159.6230  208.1840  156.0410 C   0  0  0  0  0  3  0  0  0  0  0  0
  161.5980  208.4100  153.2220 N   0  0  0  0  0  2  0  0  0  0  0  0
  161.1160  208.1810  155.7200 C   0  0  0  0  0  2  0  0  0  0  0  0
  160.6360  210.7660  156.7920 C   0  0  2  0  0  3  0  0  0  0  0  0
  161.7770  211.1360  155.8350 C   0  0  0  0  0  2  0  0  0  0  0  0
  161.7450  207.0090  152.9530 C   0  0  0  0  0  0  0  0  0  0  0  0
  158.9100  209.2610  156.1900 N   0  0  0  0  0  0  0  0  0  0  0  0
  161.9640  206.1850  153.8890 O   0  0  0  0  0  0  0  0  0  0  0  0
  159.4300  210.5690  155.8900 C   0  0  1  0  0  3  0  0  0  0  0  0
  161.5250  209.0100  154.5210 C   0  0  0  0  0  0  0  0  0  0  0  0
  159.5420  212.9900  156.4070 C   0  0  0  0  0  2  0  0  0  0  0  0
  158.1820  213.5750  156.0450 C   0  0  0  0  0  2  0  0  0  0  0  0
  158.8610  213.5750  153.8500 O   0  0  0  0  0  0  0  0  0  0  0  0
  157.9560  213.4650  154.6250 N   0  0  0  0  0  0  0  0  0  0  0  0
  1 47  1  1  0  0  0
  2  6  1  0  0  0  0
  2  3  1  0  0  0  0
  3  9  2  0  0  0  0
  3  1  1  0  0  0  0
  4  2  1  0  0  0  0
  5  4  1  0  0  0  0
  7 10  1  6  0  0  0
  7  6  1  0  0  0  0
  8  5  1  0  0  0  0
  8  7  1  0  0  0  0
 10 14  1  0  0  0  0
 11 10  2  0  0  0  0
 14 13  1  6  0  0  0
 14 12  1  0  0  0  0
 14 16  1  0  0  0  0
 15 16  1  0  0  0  0
 16 17  1  0  0  0  0
 18  1  1  0  0  0  0
 19 20  2  0  0  0  0
 19 23  1  0  0  0  0
 20 24  1  0  0  0  0
 23 25  2  0  0  0  0
 24 18  1  0  0  0  0
 24 22  2  0  0  0  0
 25 22  1  0  0  0  0
 25 21  1  0  0  0  0
 27 26  2  0  0  0  0
 27 28  1  0  0  0  0
 28 19  1  0  0  0  0
 29 27  1  0  0  0  0
 30 29  1  0  0  0  0
 31 35  1  0  0  0  0
 32 36  1  6  0  0  0
 32 34  1  0  0  0  0
 33 34  1  0  0  0  0
 34 30  1  1  0  0  0
 35 33  1  0  0  0  0
 36 35  1  0  0  0  0
 37 35  1  0  0  0  0
 38 39  1  0  0  0  0
 38 46  1  0  0  0  0
 38 45  1  1  0  0  0
 40 32  1  0  0  0  0
 40 44  1  1  0  0  0
 42 39  1  1  0  0  0
 42 40  1  0  0  0  0
 43 44  1  0  0  0  0
 46 41  1  6  0  0  0
 46 42  1  0  0  0  0
 46 43  1  0  0  0  0
 47 48  1  0  0  0  0
 48 56  1  0  0  0  0
 49 61  1  6  0  0  0
 50 55  1  0  0  0  0
 51 57  2  0  0  0  0
 52 60  1  0  0  0  0
 53 51  1  0  0  0  0
 54 55  1  6  0  0  0
 54 49  1  0  0  0  0
 56 52  1  0  0  0  0
 56 58  2  0  0  0  0
 59 57  1  1  0  0  0
 59 54  1  0  0  0  0
 59 49  1  0  0  0  0
 60 50  2  0  0  0  0
 60 53  1  0  0  0  0
 62 61  1  0  0  0  0
 63 64  2  0  0  0  0
 64 62  1  0  0  0  0
M  END
>  <MODEL>
1

>  <REMARK>
 VINA RESULT:      -5.3      0.000      0.000
  Name = 
  17 active torsions:
  status: ('A' for Active; 'I' for Inactive)
    1  A    between atoms: C_3  and  C_50
    2  A    between atoms: C_7  and  N_27
    3  A    between atoms: C_8  and  C_30
    4  A    between atoms: C_8  and  C_45
    5  A    between atoms: O_9  and  C_50
    6  A    between atoms: O_9  and  C_54
    7  A    between atoms: C_10  and  C_16
    8  A    between atoms: C_11  and  C_44
    9  A    between atoms: C_12  and  C_34
   10  A    between atoms: C_12  and  C_52
   11  A    between atoms: C_21  and  C_42
   12  A    between atoms: C_30  and  C_50
   13  A    between atoms: C_31  and  C_44
   14  A    between atoms: C_31  and  N_51
   15  A    between atoms: C_34  and  N_49
   16  A    between atoms: C_42  and  C_43
   17  A    between atoms: C_43  and  C_56
                            x       y       z     vdW  Elec       q    Type
                         _______ _______ _______ _____ _____    ______ ____

>  <TORSDO>
F 17

$$$$
=
 OpenBabel11042421113D

 64 70  0  0  1  0  0  0  0  0999 V2000
  161.3060  213.0140  148.9020 C   0  0  2  0  0  3  0  0  0  0  0  0
  159.4420  213.1660  150.6020 N   0  0  0  0  0  0  0  0  0  0  0  0
  160.7200  213.6030  150.1420 C   0  0  0  0  0  0  0  0  0  0  0  0
  158.2560  213.6320  149.8790 C   0  0  0  0  0  2  0  0  0  0  0  0
  157.0310  213.6390  150.8010 C   0  0  0  0  0  2  0  0  0  0  0  0
  159.3050  212.7540  151.9920 C   0  0  0  0  0  2  0  0  0  0  0  0
  158.5490  213.8580  152.7390 C   0  0  1  0  0  3  0  0  0  0  0  0
  157.3260  214.3420  152.0640 N   0  0  0  0  0  2  0  0  0  0  0  0
  161.3710  214.4530  150.8050 O   0  0  0  0  0  0  0  0  0  0  0  0
  158.3180  213.5240  154.1870 C   0  0  0  0  0  0  0  0  0  0  0  0
  158.3220  214.4530  154.9840 O   0  0  0  0  0  0  0  0  0  0  0  0
  158.2410  211.2370  153.5680 O   0  0  0  0  0  1  0  0  0  0  0  0
  156.6840  211.9440  155.2120 C   0  0  0  0  0  1  0  0  0  0  0  0
  158.1090  212.0910  154.6690 C   0  0  2  0  0  0  0  0  0  0  0  0
  158.7290  210.5460  156.4600 C   0  0  0  0  0  1  0  0  0  0  0  0
  159.1230  211.7260  155.6910 N   0  0  0  0  0  0  0  0  0  0  0  0
  160.3960  211.3970  155.0540 C   0  0  0  0  0  1  0  0  0  0  0  0
  162.2400  212.0040  149.2840 O   0  0  0  0  0  0  0  0  0  0  0  0
  161.4880  208.3990  148.9440 C   0  0  0  0  0  0  0  0  0  0  0  0
  161.8080  209.7220  148.6390 C   0  0  0  0  0  3  0  0  0  0  0  0
  161.3410  208.5610  152.7240 C   0  0  0  0  0  1  0  0  0  0  0  0
  161.8250  210.2790  150.9840 C   0  0  0  0  0  3  0  0  0  0  0  0
  161.3330  208.0160  150.2840 C   0  0  0  0  0  3  0  0  0  0  0  0
  161.9750  210.6750  149.6500 C   0  0  0  0  0  0  0  0  0  0  0  0
  161.5030  208.9580  151.3010 C   0  0  0  0  0  0  0  0  0  0  0  0
  163.6180  206.6300  147.9840 O   0  0  0  0  0  0  0  0  0  0  0  0
  162.5090  206.6660  147.3820 C   0  0  0  0  0  0  0  0  0  0  0  0
  161.4230  207.4490  147.8840 N   0  0  0  0  0  2  0  0  0  0  0  0
  162.2770  205.7700  146.2200 C   0  0  0  0  0  2  0  0  0  0  0  0
  162.4380  204.3250  146.6510 C   0  0  0  0  0  2  0  0  0  0  0  0
  159.9660  200.3830  145.4100 C   0  0  0  0  0  1  0  0  0  0  0  0
  160.3570  203.2040  147.7290 C   0  0  1  0  0  3  0  0  0  0  0  0
  161.4260  202.3060  145.7220 N   0  0  0  0  0  2  0  0  0  0  0  0
  161.1470  203.5410  146.4480 C   0  0  2  0  0  3  0  0  0  0  0  0
  160.7240  201.2290  146.4070 C   0  0  0  0  0  0  0  0  0  0  0  0
  159.7590  201.8540  147.3890 C   0  0  0  0  0  2  0  0  0  0  0  0
  161.7300  200.3680  147.1420 C   0  0  0  0  0  1  0  0  0  0  0  0
  161.6550  201.6220  151.6470 C   0  0  1  0  0  3  0  0  0  0  0  0
  161.3060  201.1150  150.3800 O   0  0  0  0  0  0  0  0  0  0  0  0
  161.2090  203.0940  149.0110 C   0  0  2  0  0  3  0  0  0  0  0  0
  159.6770  203.0670  152.3170 C   0  0  0  0  0  1  0  0  0  0  0  0
  160.5330  202.2620  150.0980 C   0  0  2  0  0  3  0  0  0  0  0  0
  161.6510  204.1880  151.1310 C   0  0  0  0  0  2  0  0  0  0  0  0
  161.4580  204.4520  149.6520 C   0  0  0  0  0  2  0  0  0  0  0  0
  163.1650  201.8080  151.7320 C   0  0  0  0  0  1  0  0  0  0  0  0
  160.8800  202.9030  151.4110 C   0  0  2  0  0  0  0  0  0  0  0  0
  161.8920  214.1050  148.0170 C   0  0  0  0  0  2  0  0  0  0  0  0
  162.5960  213.4300  146.8450 C   0  0  0  0  0  2  0  0  0  0  0  0
  161.6130  211.4920  139.3510 C   0  0  2  0  0  3  0  0  0  0  0  0
  162.7950  213.6750  142.0090 N   0  0  0  0  0  0  0  0  0  0  0  0
  160.0780  211.8010  142.5400 C   0  0  0  0  0  3  0  0  0  0  0  0
  162.5570  213.3970  144.3330 N   0  0  0  0  0  2  0  0  0  0  0  0
  160.5020  213.2410  142.8230 C   0  0  0  0  0  2  0  0  0  0  0  0
  161.3660  212.7670  140.1600 C   0  0  2  0  0  3  0  0  0  0  0  0
  162.4620  213.7590  140.5710 C   0  0  0  0  0  2  0  0  0  0  0  0
  161.8440  213.5800  145.5630 C   0  0  0  0  0  0  0  0  0  0  0  0
  160.5930  211.0580  141.6060 N   0  0  0  0  0  0  0  0  0  0  0  0
  160.6350  213.9550  145.5670 O   0  0  0  0  0  0  0  0  0  0  0  0
  161.7480  211.4690  140.8520 C   0  0  1  0  0  3  0  0  0  0  0  0
  161.9880  213.4540  143.0180 C   0  0  0  0  0  0  0  0  0  0  0  0
  162.9860  211.5210  138.7070 C   0  0  0  0  0  2  0  0  0  0  0  0
  162.8800  211.1310  137.2370 C   0  0  0  0  0  2  0  0  0  0  0  0
  161.9120  209.0490  137.1220 O   0  0  0  0  0  0  0  0  0  0  0  0
  161.7670  210.2340  137.0400 N   0  0  0  0  0  0  0  0  0  0  0  0
  1 47  1  1  0  0  0
  1 18  1  0  0  0  0
  1  3  1  0  0  0  0
  2  6  1  0  0  0  0
  3  2  1  0  0  0  0
  3  9  2  0  0  0  0
  4  2  1  0  0  0  0
  4  5  1  0  0  0  0
  5  8  1  0  0  0  0
  6  7  1  0  0  0  0
  7 10  1  1  0  0  0
  8  7  1  0  0  0  0
 10 14  1  0  0  0  0
 10 11  2  0  0  0  0
 12 14  1  0  0  0  0
 14 13  1  1  0  0  0
 14 16  1  0  0  0  0
 16 15  1  0  0  0  0
 17 16  1  0  0  0  0
 18 24  1  0  0  0  0
 19 23  1  0  0  0  0
 20 19  2  0  0  0  0
 20 24  1  0  0  0  0
 22 25  1  0  0  0  0
 23 25  2  0  0  0  0
 24 22  2  0  0  0  0
 25 21  1  0  0  0  0
 27 28  1  0  0  0  0
 27 26  2  0  0  0  0
 28 19  1  0  0  0  0
 29 30  1  0  0  0  0
 29 27  1  0  0  0  0
 31 35  1  0  0  0  0
 32 36  1  6  0  0  0
 32 40  1  0  0  0  0
 33 35  1  0  0  0  0
 33 34  1  0  0  0  0
 34 30  1  1  0  0  0
 34 32  1  0  0  0  0
 35 37  1  0  0  0  0
 35 36  1  0  0  0  0
 38 45  1  6  0  0  0
 39 38  1  0  0  0  0
 40 44  1  1  0  0  0
 40 42  1  0  0  0  0
 42 39  1  1  0  0  0
 42 46  1  0  0  0  0
 43 46  1  0  0  0  0
 44 43  1  0  0  0  0
 46 38  1  0  0  0  0
 46 41  1  1  0  0  0
 48 47  1  0  0  0  0
 49 61  1  6  0  0  0
 49 54  1  0  0  0  0
 49 59  1  0  0  0  0
 50 60  2  0  0  0  0
 51 53  1  0  0  0  0
 52 56  1  0  0  0  0
 53 60  1  0  0  0  0
 54 55  1  6  0  0  0
 54 59  1  0  0  0  0
 55 50  1  0  0  0  0
 56 58  2  0  0  0  0
 56 48  1  0  0  0  0
 57 51  2  0  0  0  0
 59 57  1  1  0  0  0
 60 52  1  0  0  0  0
 62 61  1  0  0  0  0
 64 63  2  0  0  0  0
 64 62  1  0  0  0  0
M  END
>  <MODEL>
2

>  <REMARK>
 VINA RESULT:      -4.6      2.521     12.212
  Name = 
  17 active torsions:
  status: ('A' for Active; 'I' for Inactive)
    1  A    between atoms: C_3  and  C_50
    2  A    between atoms: C_7  and  N_27
    3  A    between atoms: C_8  and  C_30
    4  A    between atoms: C_8  and  C_45
    5  A    between atoms: O_9  and  C_50
    6  A    between atoms: O_9  and  C_54
    7  A    between atoms: C_10  and  C_16
    8  A    between atoms: C_11  and  C_44
    9  A    between atoms: C_12  and  C_34
   10  A    between atoms: C_12  and  C_52
   11  A    between atoms: C_21  and  C_42
   12  A    between atoms: C_30  and  C_50
   13  A    between atoms: C_31  and  C_44
   14  A    between atoms: C_31  and  N_51
   15  A    between atoms: C_34  and  N_49
   16  A    between atoms: C_42  and  C_43
   17  A    between atoms: C_43  and  C_56
                            x       y       z     vdW  Elec       q    Type
                         _______ _______ _______ _____ _____    ______ ____

>  <TORSDO>
F 17

$$$$
=
 OpenBabel11042421113D

 64 70  0  0  1  0  0  0  0  0999 V2000
  160.9620  210.5270  151.4080 C   0  0  2  0  0  3  0  0  0  0  0  0
  159.5020  212.0240  152.8260 N   0  0  0  0  0  0  0  0  0  0  0  0
  160.6980  211.2600  152.6800 C   0  0  0  0  0  0  0  0  0  0  0  0
  159.4170  213.3080  152.1260 C   0  0  0  0  0  2  0  0  0  0  0  0
  158.4460  214.2520  152.8450 C   0  0  0  0  0  2  0  0  0  0  0  0
  158.6760  211.8070  154.0050 C   0  0  0  0  0  2  0  0  0  0  0  0
  158.8620  213.0070  154.9400 C   0  0  1  0  0  3  0  0  0  0  0  0
  158.7570  214.3290  154.2850 N   0  0  0  0  0  2  0  0  0  0  0  0
  161.5080  211.1700  153.6400 O   0  0  0  0  0  0  0  0  0  0  0  0
  158.0250  212.9080  156.1850 C   0  0  0  0  0  0  0  0  0  0  0  0
  158.6160  212.8830  157.2570 O   0  0  0  0  0  0  0  0  0  0  0  0
  155.9810  214.0840  156.4300 O   0  0  0  0  0  1  0  0  0  0  0  0
  156.0200  211.8480  157.2200 C   0  0  0  0  0  1  0  0  0  0  0  0
  156.5030  212.8180  156.1370 C   0  0  2  0  0  0  0  0  0  0  0  0
  155.2880  211.1500  154.8240 C   0  0  0  0  0  1  0  0  0  0  0  0
  156.0420  212.4040  154.7880 N   0  0  0  0  0  0  0  0  0  0  0  0
  155.1440  213.4080  154.2220 C   0  0  0  0  0  1  0  0  0  0  0  0
  160.4130  209.2140  151.5240 O   0  0  0  0  0  0  0  0  0  0  0  0
  161.1890  205.8440  152.8350 C   0  0  0  0  0  0  0  0  0  0  0  0
  160.8910  206.8930  151.9650 C   0  0  0  0  0  3  0  0  0  0  0  0
  161.4520  207.7050  156.1220 C   0  0  0  0  0  1  0  0  0  0  0  0
  160.9630  208.4580  153.7970 C   0  0  0  0  0  3  0  0  0  0  0  0
  161.3720  206.1090  154.2000 C   0  0  0  0  0  3  0  0  0  0  0  0
  160.7700  208.2060  152.4340 C   0  0  0  0  0  0  0  0  0  0  0  0
  161.2590  207.4160  154.6770 C   0  0  0  0  0  0  0  0  0  0  0  0
  159.9310  204.6710  150.4630 O   0  0  0  0  0  0  0  0  0  0  0  0
  160.6950  203.9690  151.1840 C   0  0  0  0  0  0  0  0  0  0  0  0
  161.3930  204.5430  152.2930 N   0  0  0  0  0  2  0  0  0  0  0  0
  160.9880  202.5670  150.7920 C   0  0  0  0  0  2  0  0  0  0  0  0
  160.3130  202.2560  149.4710 C   0  0  0  0  0  2  0  0  0  0  0  0
  161.1320  199.0850  145.9390 C   0  0  0  0  0  1  0  0  0  0  0  0
  162.0550  202.2580  147.5430 C   0  0  1  0  0  3  0  0  0  0  0  0
  160.4490  200.4390  147.8440 N   0  0  0  0  0  2  0  0  0  0  0  0
  161.2270  201.4450  148.5600 C   0  0  2  0  0  3  0  0  0  0  0  0
  160.8590  200.4830  146.4470 C   0  0  0  0  0  0  0  0  0  0  0  0
  162.1180  201.3160  146.3580 C   0  0  0  0  0  2  0  0  0  0  0  0
  159.7560  201.1150  145.6250 C   0  0  0  0  0  1  0  0  0  0  0  0
  160.6050  205.3960  144.7880 C   0  0  1  0  0  3  0  0  0  0  0  0
  160.4920  204.0000  144.9330 O   0  0  0  0  0  0  0  0  0  0  0  0
  161.4260  203.6010  147.1170 C   0  0  2  0  0  3  0  0  0  0  0  0
  163.1080  205.8290  144.7730 C   0  0  0  0  0  1  0  0  0  0  0  0
  161.7030  203.9430  145.6540 C   0  0  2  0  0  3  0  0  0  0  0  0
  161.8630  205.9850  147.0070 C   0  0  0  0  0  2  0  0  0  0  0  0
  161.9860  204.7750  147.9080 C   0  0  0  0  0  2  0  0  0  0  0  0
  159.4270  206.0840  145.4660 C   0  0  0  0  0  1  0  0  0  0  0  0
  161.8930  205.4310  145.5870 C   0  0  2  0  0  0  0  0  0  0  0  0
  162.4470  210.5550  151.0730 C   0  0  0  0  0  2  0  0  0  0  0  0
  162.5880  210.5140  149.5560 C   0  0  0  0  0  2  0  0  0  0  0  0
  159.1580  213.4570  143.1950 C   0  0  2  0  0  3  0  0  0  0  0  0
  161.9410  213.1010  145.5090 N   0  0  0  0  0  0  0  0  0  0  0  0
  158.8230  212.7400  146.6590 C   0  0  0  0  0  3  0  0  0  0  0  0
  162.0430  211.8090  147.4720 N   0  0  0  0  0  2  0  0  0  0  0  0
  160.1010  213.4320  147.1270 C   0  0  0  0  0  2  0  0  0  0  0  0
  159.9310  214.0680  144.3640 C   0  0  2  0  0  3  0  0  0  0  0  0
  161.4600  214.0600  144.4920 C   0  0  0  0  0  2  0  0  0  0  0  0
  161.8630  211.6350  148.8840 C   0  0  0  0  0  0  0  0  0  0  0  0
  158.5600  212.4510  145.4180 N   0  0  0  0  0  0  0  0  0  0  0  0
  161.1890  212.4630  149.5620 O   0  0  0  0  0  0  0  0  0  0  0  0
  159.5400  212.6000  144.3750 C   0  0  1  0  0  3  0  0  0  0  0  0
  161.3930  212.7940  146.6600 C   0  0  0  0  0  0  0  0  0  0  0  0
  160.0830  213.1720  142.0270 C   0  0  0  0  0  2  0  0  0  0  0  0
  160.2760  211.6690  141.8700 C   0  0  0  0  0  2  0  0  0  0  0  0
  161.6790  210.6750  140.3450 O   0  0  0  0  0  0  0  0  0  0  0  0
  161.5710  211.3900  141.2980 N   0  0  0  0  0  0  0  0  0  0  0  0
  1 47  1  1  0  0  0
  1 18  1  0  0  0  0
  1  3  1  0  0  0  0
  2  6  1  0  0  0  0
  3  2  1  0  0  0  0
  3  9  2  0  0  0  0
  4  2  1  0  0  0  0
  4  5  1  0  0  0  0
  5  8  1  0  0  0  0
  6  7  1  0  0  0  0
  7 10  1  1  0  0  0
  8  7  1  0  0  0  0
 10 11  2  0  0  0  0
 14 10  1  0  0  0  0
 14 12  1  0  0  0  0
 14 13  1  1  0  0  0
 16 15  1  0  0  0  0
 16 14  1  0  0  0  0
 17 16  1  0  0  0  0
 18 24  1  0  0  0  0
 19 23  1  0  0  0  0
 20 24  1  0  0  0  0
 20 19  2  0  0  0  0
 22 25  1  0  0  0  0
 23 25  2  0  0  0  0
 24 22  2  0  0  0  0
 25 21  1  0  0  0  0
 26 27  2  0  0  0  0
 27 28  1  0  0  0  0
 28 19  1  0  0  0  0
 29 27  1  0  0  0  0
 30 29  1  0  0  0  0
 31 35  1  0  0  0  0
 32 36  1  6  0  0  0
 32 34  1  0  0  0  0
 33 34  1  0  0  0  0
 34 30  1  6  0  0  0
 35 33  1  0  0  0  0
 36 35  1  0  0  0  0
 37 35  1  0  0  0  0
 38 39  1  0  0  0  0
 38 45  1  1  0  0  0
 38 46  1  0  0  0  0
 40 32  1  0  0  0  0
 40 44  1  1  0  0  0
 42 39  1  6  0  0  0
 42 40  1  0  0  0  0
 43 44  1  0  0  0  0
 46 41  1  6  0  0  0
 46 42  1  0  0  0  0
 46 43  1  0  0  0  0
 48 47  1  0  0  0  0
 49 61  1  6  0  0  0
 49 54  1  0  0  0  0
 49 59  1  0  0  0  0
 50 60  2  0  0  0  0
 51 53  1  0  0  0  0
 52 56  1  0  0  0  0
 54 59  1  0  0  0  0
 54 55  1  6  0  0  0
 55 50  1  0  0  0  0
 56 48  1  0  0  0  0
 56 58  2  0  0  0  0
 57 51  2  0  0  0  0
 59 57  1  1  0  0  0
 60 53  1  0  0  0  0
 60 52  1  0  0  0  0
 62 61  1  0  0  0  0
 63 64  2  0  0  0  0
 64 62  1  0  0  0  0
M  END
>  <MODEL>
3

>  <REMARK>
 VINA RESULT:      -4.3      2.759     11.021
  Name = 
  17 active torsions:
  status: ('A' for Active; 'I' for Inactive)
    1  A    between atoms: C_3  and  C_50
    2  A    between atoms: C_7  and  N_27
    3  A    between atoms: C_8  and  C_30
    4  A    between atoms: C_8  and  C_45
    5  A    between atoms: O_9  and  C_50
    6  A    between atoms: O_9  and  C_54
    7  A    between atoms: C_10  and  C_16
    8  A    between atoms: C_11  and  C_44
    9  A    between atoms: C_12  and  C_34
   10  A    between atoms: C_12  and  C_52
   11  A    between atoms: C_21  and  C_42
   12  A    between atoms: C_30  and  C_50
   13  A    between atoms: C_31  and  C_44
   14  A    between atoms: C_31  and  N_51
   15  A    between atoms: C_34  and  N_49
   16  A    between atoms: C_42  and  C_43
   17  A    between atoms: C_43  and  C_56
                            x       y       z     vdW  Elec       q    Type
                         _______ _______ _______ _____ _____    ______ ____

>  <TORSDO>
F 17

$$$$
=
 OpenBabel11042421113D

 64 70  0  0  1  0  0  0  0  0999 V2000
  161.5790  210.4230  151.3070 C   0  0  2  0  0  3  0  0  0  0  0  0
  161.1530  211.1560  153.6880 N   0  0  0  0  0  0  0  0  0  0  0  0
  160.7170  210.4550  152.5240 C   0  0  0  0  0  0  0  0  0  0  0  0
  162.2020  210.5430  154.5070 C   0  0  0  0  0  2  0  0  0  0  0  0
  162.1060  211.0290  155.9580 C   0  0  0  0  0  2  0  0  0  0  0  0
  160.2480  212.1170  154.3030 C   0  0  0  0  0  2  0  0  0  0  0  0
  159.7060  211.4950  155.5940 C   0  0  1  0  0  3  0  0  0  0  0  0
  160.7310  210.8870  156.4710 N   0  0  0  0  0  2  0  0  0  0  0  0
  159.5860  209.9000  152.5110 O   0  0  0  0  0  0  0  0  0  0  0  0
  158.7800  212.4170  156.3380 C   0  0  0  0  0  0  0  0  0  0  0  0
  159.2630  213.0890  157.2400 O   0  0  0  0  0  0  0  0  0  0  0  0
  156.9840  213.8540  155.7640 O   0  0  0  0  0  1  0  0  0  0  0  0
  156.4800  212.0600  157.2310 C   0  0  0  0  0  1  0  0  0  0  0  0
  157.2920  212.5110  156.0130 C   0  0  2  0  0  0  0  0  0  0  0  0
  155.6830  211.0130  154.9430 C   0  0  0  0  0  1  0  0  0  0  0  0
  156.9640  211.7070  154.8090 N   0  0  0  0  0  0  0  0  0  0  0  0
  156.8450  212.5680  153.6340 C   0  0  0  0  0  1  0  0  0  0  0  0
  160.9390  211.1870  150.2840 O   0  0  0  0  0  0  0  0  0  0  0  0
  161.1960  212.9310  147.0340 C   0  0  0  0  0  0  0  0  0  0  0  0
  160.6890  212.4200  148.2280 C   0  0  0  0  0  3  0  0  0  0  0  0
  164.8220  211.8740  147.2930 C   0  0  0  0  0  1  0  0  0  0  0  0
  162.8660  211.5630  148.8070 C   0  0  0  0  0  3  0  0  0  0  0  0
  162.5510  212.7520  146.7240 C   0  0  0  0  0  3  0  0  0  0  0  0
  161.5130  211.7290  149.1230 C   0  0  0  0  0  0  0  0  0  0  0  0
  163.3830  212.0680  147.6130 C   0  0  0  0  0  0  0  0  0  0  0  0
  160.5110  212.4630  144.2230 O   0  0  0  0  0  0  0  0  0  0  0  0
  160.0950  213.5020  144.8090 C   0  0  0  0  0  0  0  0  0  0  0  0
  160.3370  213.7080  146.2030 N   0  0  0  0  0  2  0  0  0  0  0  0
  159.2180  214.4530  144.0790 C   0  0  0  0  0  2  0  0  0  0  0  0
  159.4440  214.3110  142.5870 C   0  0  0  0  0  2  0  0  0  0  0  0
  155.8040  213.6860  139.4960 C   0  0  0  0  0  1  0  0  0  0  0  0
  158.8140  212.2940  141.0740 C   0  0  1  0  0  3  0  0  0  0  0  0
  157.4820  214.3430  141.1320 N   0  0  0  0  0  2  0  0  0  0  0  0
  158.3420  213.4820  141.9380 C   0  0  2  0  0  3  0  0  0  0  0  0
  157.2720  213.6780  139.8530 C   0  0  0  0  0  0  0  0  0  0  0  0
  157.7620  212.2540  139.9850 C   0  0  0  0  0  2  0  0  0  0  0  0
  158.0590  214.4030  138.7820 C   0  0  0  0  0  1  0  0  0  0  0  0
  162.0210  211.8480  138.0640 C   0  0  1  0  0  3  0  0  0  0  0  0
  160.6590  212.2070  138.0940 O   0  0  0  0  0  0  0  0  0  0  0  0
  160.2150  212.4600  140.4480 C   0  0  2  0  0  3  0  0  0  0  0  0
  162.1060  209.5930  139.2300 C   0  0  0  0  0  1  0  0  0  0  0  0
  160.4630  211.4910  139.2940 C   0  0  2  0  0  3  0  0  0  0  0  0
  162.5110  211.6990  140.6310 C   0  0  0  0  0  2  0  0  0  0  0  0
  161.3280  212.1770  141.4460 C   0  0  0  0  0  2  0  0  0  0  0  0
  162.8880  213.0990  138.1380 C   0  0  0  0  0  1  0  0  0  0  0  0
  161.9080  211.0890  139.3710 C   0  0  2  0  0  0  0  0  0  0  0  0
  161.8910  208.9870  150.9110 C   0  0  0  0  0  2  0  0  0  0  0  0
  161.9610  208.1530  152.1850 C   0  0  0  0  0  2  0  0  0  0  0  0
  161.4880  201.0330  149.0280 C   0  0  2  0  0  3  0  0  0  0  0  0
  160.5720  204.5450  149.2630 N   0  0  0  0  0  0  0  0  0  0  0  0
  161.5130  202.9280  152.0330 C   0  0  0  0  0  3  0  0  0  0  0  0
  161.3380  206.1470  150.8050 N   0  0  0  0  0  2  0  0  0  0  0  0
  160.4160  203.9200  151.6490 C   0  0  0  0  0  2  0  0  0  0  0  0
  160.4540  202.0530  149.5090 C   0  0  2  0  0  3  0  0  0  0  0  0
  160.0190  203.2890  148.7110 C   0  0  0  0  0  2  0  0  0  0  0  0
  161.2500  206.8460  152.0540 C   0  0  0  0  0  0  0  0  0  0  0  0
  162.1200  202.1470  151.1890 N   0  0  0  0  0  0  0  0  0  0  0  0
  160.5100  206.4200  152.9880 O   0  0  0  0  0  0  0  0  0  0  0  0
  161.9360  202.2680  149.7680 C   0  0  1  0  0  3  0  0  0  0  0  0
  160.7630  204.8660  150.5190 C   0  0  0  0  0  0  0  0  0  0  0  0
  161.7520  201.1940  147.5420 C   0  0  0  0  0  2  0  0  0  0  0  0
  161.0610  200.0780  146.7670 C   0  0  0  0  0  2  0  0  0  0  0  0
  160.0090  201.6160  145.4220 O   0  0  0  0  0  0  0  0  0  0  0  0
  160.5900  200.5730  145.4970 N   0  0  0  0  0  0  0  0  0  0  0  0
  1 47  1  6  0  0  0
  1  3  1  0  0  0  0
  2  6  1  0  0  0  0
  2  4  1  0  0  0  0
  3  2  1  0  0  0  0
  4  5  1  0  0  0  0
  5  8  1  0  0  0  0
  6  7  1  0  0  0  0
  7 10  1  1  0  0  0
  7  8  1  0  0  0  0
  9  3  2  0  0  0  0
 10 11  2  0  0  0  0
 12 14  1  0  0  0  0
 14 10  1  0  0  0  0
 14 13  1  1  0  0  0
 16 15  1  0  0  0  0
 16 14  1  0  0  0  0
 17 16  1  0  0  0  0
 18  1  1  0  0  0  0
 19 20  1  0  0  0  0
 20 24  2  0  0  0  0
 21 25  1  0  0  0  0
 22 24  1  0  0  0  0
 23 19  2  0  0  0  0
 23 25  1  0  0  0  0
 24 18  1  0  0  0  0
 25 22  2  0  0  0  0
 26 27  2  0  0  0  0
 27 28  1  0  0  0  0
 28 19  1  0  0  0  0
 29 27  1  0  0  0  0
 30 29  1  0  0  0  0
 31 35  1  0  0  0  0
 32 36  1  6  0  0  0
 32 34  1  0  0  0  0
 33 34  1  0  0  0  0
 34 30  1  6  0  0  0
 35 36  1  0  0  0  0
 35 33  1  0  0  0  0
 37 35  1  0  0  0  0
 38 39  1  0  0  0  0
 38 45  1  1  0  0  0
 38 46  1  0  0  0  0
 40 32  1  0  0  0  0
 40 44  1  1  0  0  0
 42 39  1  6  0  0  0
 42 46  1  0  0  0  0
 42 40  1  0  0  0  0
 43 44  1  0  0  0  0
 46 41  1  6  0  0  0
 46 43  1  0  0  0  0
 47 48  1  0  0  0  0
 49 61  1  6  0  0  0
 49 54  1  0  0  0  0
 49 59  1  0  0  0  0
 50 60  2  0  0  0  0
 52 56  1  0  0  0  0
 53 51  1  0  0  0  0
 54 55  1  6  0  0  0
 54 59  1  0  0  0  0
 55 50  1  0  0  0  0
 56 48  1  0  0  0  0
 56 58  2  0  0  0  0
 57 51  2  0  0  0  0
 59 57  1  1  0  0  0
 60 52  1  0  0  0  0
 60 53  1  0  0  0  0
 62 61  1  0  0  0  0
 63 64  2  0  0  0  0
 64 62  1  0  0  0  0
M  END
>  <MODEL>
4

>  <REMARK>
 VINA RESULT:      -3.6      2.177      8.373
  Name = 
  17 active torsions:
  status: ('A' for Active; 'I' for Inactive)
    1  A    between atoms: C_3  and  C_50
    2  A    between atoms: C_7  and  N_27
    3  A    between atoms: C_8  and  C_30
    4  A    between atoms: C_8  and  C_45
    5  A    between atoms: O_9  and  C_50
    6  A    between atoms: O_9  and  C_54
    7  A    between atoms: C_10  and  C_16
    8  A    between atoms: C_11  and  C_44
    9  A    between atoms: C_12  and  C_34
   10  A    between atoms: C_12  and  C_52
   11  A    between atoms: C_21  and  C_42
   12  A    between atoms: C_30  and  C_50
   13  A    between atoms: C_31  and  C_44
   14  A    between atoms: C_31  and  N_51
   15  A    between atoms: C_34  and  N_49
   16  A    between atoms: C_42  and  C_43
   17  A    between atoms: C_43  and  C_56
                            x       y       z     vdW  Elec       q    Type
                         _______ _______ _______ _____ _____    ______ ____

>  <TORSDO>
F 17

$$$$
