=
 OpenBabel11042422533D

 29 32  0  0  1  0  0  0  0  0999 V2000
  160.4250  203.0980  150.9240 C   0  0  0  0  0  2  0  0  0  0  0  0
  160.9690  205.8950  150.7510 C   0  0  1  0  0  3  0  0  0  0  0  0
  161.1460  201.4020  146.1150 C   0  0  0  0  0  3  0  0  0  0  0  0
  161.1570  207.1790  148.1820 O   0  0  0  0  0  1  0  0  0  0  0  0
  160.9820  205.1760  149.5830 C   0  0  0  0  0  0  0  0  0  0  0  0
  161.0680  201.5110  148.5040 N   0  0  0  0  0  0  0  0  0  0  0  0
  160.9680  205.1940  152.0570 C   0  0  0  0  0  3  0  0  0  0  0  0
  161.0280  202.9680  148.4700 C   0  0  0  0  0  0  0  0  0  0  0  0
  160.7580  203.8890  152.1430 C   0  0  0  0  0  3  0  0  0  0  0  0
  161.1970  202.8690  146.0940 C   0  0  0  0  0  3  0  0  0  0  0  0
  160.8820  203.7550  149.6420 C   0  0  0  0  0  0  0  0  0  0  0  0
  161.3400  200.7360  149.7060 C   0  0  0  0  0  1  0  0  0  0  0  0
  161.1320  203.6120  147.2140 C   0  0  0  0  0  0  0  0  0  0  0  0
  161.0860  200.7680  147.2790 C   0  0  0  0  0  3  0  0  0  0  0  0
  161.1130  205.7920  148.3080 C   0  0  0  0  0  0  0  0  0  0  0  0
  161.1710  205.0220  147.1310 C   0  0  1  0  0  3  0  0  0  0  0  0
  161.9160  208.5560  152.4900 C   0  0  1  0  0  3  0  0  0  0  0  0
  161.0740  207.4010  150.7920 C   0  0  1  0  0  3  0  0  0  0  0  0
  160.5670  207.9890  152.0950 C   0  0  0  0  0  2  0  0  0  0  0  0
  162.7940  207.9510  151.0120 S   0  0  0  0  0  0  0  0  0  0  0  0
  161.8540  210.0730  152.4760 C   0  0  0  0  0  2  0  0  0  0  0  0
  161.8630  210.6080  153.8970 C   0  0  0  0  0  2  0  0  0  0  0  0
  158.4110  210.7220  155.4430 O   0  0  0  0  0  0  0  0  0  0  0  0
  159.6690  210.2460  155.1010 C   0  0  0  0  0  0  0  0  0  0  0  0
  160.0420  209.1170  155.5190 O   0  0  0  0  0  1  0  0  0  0  0  0
  160.5250  211.0370  154.2770 N   0  0  0  0  0  2  0  0  0  0  0  0
  160.1150  206.1550  145.1240 N   0  0  0  0  0  1  0  0  0  0  0  0
  161.2810  205.7180  145.8160 C   0  0  0  0  0  0  0  0  0  0  0  0
  162.4120  205.9430  145.3100 O   0  0  0  0  0  0  0  0  0  0  0  0
  1  9  1  0  0  0  0
  2 18  1  0  0  0  0
  2  7  1  1  0  0  0
  3 14  2  0  0  0  0
  4 15  1  0  0  0  0
  5 11  1  0  0  0  0
  5  2  1  0  0  0  0
  6 12  1  0  0  0  0
  7  9  2  0  0  0  0
  8  6  1  0  0  0  0
  8 11  2  0  0  0  0
 10  3  1  0  0  0  0
 10 13  2  0  0  0  0
 11  1  1  0  0  0  0
 13  8  1  0  0  0  0
 14  6  1  0  0  0  0
 15  5  2  0  0  0  0
 16 28  1  1  0  0  0
 16 13  1  0  0  0  0
 16 15  1  0  0  0  0
 17 21  1  6  0  0  0
 18 20  1  0  0  0  0
 18 19  1  1  0  0  0
 19 17  1  0  0  0  0
 20 17  1  0  0  0  0
 21 22  1  0  0  0  0
 22 26  1  0  0  0  0
 24 23  2  0  0  0  0
 24 25  1  0  0  0  0
 26 24  1  0  0  0  0
 27 28  1  0  0  0  0
 29 28  2  0  0  0  0
M  END
>  <MODEL>
1

>  <REMARK>
 VINA RESULT:      -8.8      0.000      0.000
  Name = 
  5 active torsions:
  status: ('A' for Active; 'I' for Inactive)
    1  A    between atoms: C_2  and  C_5
    2  A    between atoms: C_2  and  N_29
    3  A    between atoms: C_3  and  C_17
    4  A    between atoms: C_5  and  C_10
    5  A    between atoms: C_16  and  C_28
                            x       y       z     vdW  Elec       q    Type
                         _______ _______ _______ _____ _____    ______ ____

>  <TORSDO>
F 5

$$$$
=
 OpenBabel11042422533D

 29 32  0  0  1  0  0  0  0  0999 V2000
  160.5750  203.3130  151.2350 C   0  0  0  0  0  2  0  0  0  0  0  0
  161.5110  206.0040  151.0660 C   0  0  1  0  0  3  0  0  0  0  0  0
  160.8500  201.6050  146.3840 C   0  0  0  0  0  3  0  0  0  0  0  0
  161.7810  207.2880  148.5040 O   0  0  0  0  0  1  0  0  0  0  0  0
  161.3740  205.3090  149.8920 C   0  0  0  0  0  0  0  0  0  0  0  0
  160.8840  201.6870  148.7750 N   0  0  0  0  0  0  0  0  0  0  0  0
  161.4610  205.2910  152.3650 C   0  0  0  0  0  3  0  0  0  0  0  0
  161.0550  203.1350  148.7570 C   0  0  0  0  0  0  0  0  0  0  0  0
  161.0670  204.0290  152.4470 C   0  0  0  0  0  3  0  0  0  0  0  0
  161.1120  203.0490  146.3750 C   0  0  0  0  0  3  0  0  0  0  0  0
  161.0710  203.9170  149.9420 C   0  0  0  0  0  0  0  0  0  0  0  0
  161.0890  200.8630  149.9570 C   0  0  0  0  0  1  0  0  0  0  0  0
  161.2000  203.7770  147.5030 C   0  0  0  0  0  0  0  0  0  0  0  0
  160.7450  200.9680  147.5440 C   0  0  0  0  0  3  0  0  0  0  0  0
  161.5410  205.9200  148.6180 C   0  0  0  0  0  0  0  0  0  0  0  0
  161.4410  205.1670  147.4320 C   0  0  1  0  0  3  0  0  0  0  0  0
  160.6780  208.9810  152.2690 C   0  0  1  0  0  3  0  0  0  0  0  0
  161.8360  207.4790  151.1170 C   0  0  1  0  0  3  0  0  0  0  0  0
  160.6180  208.3550  150.8910 C   0  0  0  0  0  2  0  0  0  0  0  0
  162.1420  208.0440  152.8180 S   0  0  0  0  0  0  0  0  0  0  0  0
  161.0190  210.4550  152.1440 C   0  0  0  0  0  2  0  0  0  0  0  0
  160.1410  211.2740  153.0730 C   0  0  0  0  0  2  0  0  0  0  0  0
  157.4190  213.6390  151.9220 O   0  0  0  0  0  0  0  0  0  0  0  0
  158.4510  213.1180  152.6900 C   0  0  0  0  0  0  0  0  0  0  0  0
  158.8540  213.7480  153.7030 O   0  0  0  0  0  1  0  0  0  0  0  0
  159.0430  211.8690  152.3250 N   0  0  0  0  0  2  0  0  0  0  0  0
  160.4680  206.4060  145.4460 N   0  0  0  0  0  1  0  0  0  0  0  0
  161.5980  205.8600  146.1210 C   0  0  0  0  0  0  0  0  0  0  0  0
  162.7390  205.9870  145.6030 O   0  0  0  0  0  0  0  0  0  0  0  0
  1  9  1  0  0  0  0
  2 18  1  0  0  0  0
  2  7  1  1  0  0  0
  3 14  2  0  0  0  0
  4 15  1  0  0  0  0
  5 11  1  0  0  0  0
  5  2  1  0  0  0  0
  6 12  1  0  0  0  0
  7  9  2  0  0  0  0
  8  6  1  0  0  0  0
  8 11  2  0  0  0  0
 10  3  1  0  0  0  0
 10 13  2  0  0  0  0
 11  1  1  0  0  0  0
 13  8  1  0  0  0  0
 14  6  1  0  0  0  0
 15  5  2  0  0  0  0
 16 28  1  1  0  0  0
 16 13  1  0  0  0  0
 16 15  1  0  0  0  0
 17 21  1  6  0  0  0
 17 20  1  0  0  0  0
 18 19  1  1  0  0  0
 18 20  1  0  0  0  0
 19 17  1  0  0  0  0
 21 22  1  0  0  0  0
 23 24  2  0  0  0  0
 24 25  1  0  0  0  0
 26 24  1  0  0  0  0
 26 22  1  0  0  0  0
 27 28  1  0  0  0  0
 29 28  2  0  0  0  0
M  END
>  <MODEL>
2

>  <REMARK>
 VINA RESULT:      -7.9      1.580      1.735
  Name = 
  5 active torsions:
  status: ('A' for Active; 'I' for Inactive)
    1  A    between atoms: C_2  and  C_5
    2  A    between atoms: C_2  and  N_29
    3  A    between atoms: C_3  and  C_17
    4  A    between atoms: C_5  and  C_10
    5  A    between atoms: C_16  and  C_28
                            x       y       z     vdW  Elec       q    Type
                         _______ _______ _______ _____ _____    ______ ____

>  <TORSDO>
F 5

$$$$
=
 OpenBabel11042422533D

 29 32  0  0  1  0  0  0  0  0999 V2000
  162.2990  206.9770  148.0850 C   0  0  0  0  0  2  0  0  0  0  0  0
  161.1950  206.6430  150.6960 C   0  0  1  0  0  3  0  0  0  0  0  0
  161.4090  202.4560  145.7830 C   0  0  0  0  0  3  0  0  0  0  0  0
  160.4760  204.0210  151.6420 O   0  0  0  0  0  1  0  0  0  0  0  0
  161.1970  205.5500  149.8670 C   0  0  0  0  0  0  0  0  0  0  0  0
  161.7240  204.7980  146.1570 N   0  0  0  0  0  0  0  0  0  0  0  0
  161.4780  207.9920  150.1500 C   0  0  0  0  0  3  0  0  0  0  0  0
  161.4700  204.6390  147.5840 C   0  0  2  0  0  3  0  0  0  0  0  0
  161.9510  208.1580  148.9240 C   0  0  0  0  0  3  0  0  0  0  0  0
  161.0660  202.3200  147.2040 C   0  0  0  0  0  3  0  0  0  0  0  0
  161.5840  205.7140  148.5050 C   0  0  0  0  0  0  0  0  0  0  0  0
  161.7440  206.0850  145.4780 C   0  0  0  0  0  1  0  0  0  0  0  0
  161.1040  203.3570  148.0610 C   0  0  0  0  0  0  0  0  0  0  0  0
  161.7210  203.6520  145.2990 C   0  0  0  0  0  3  0  0  0  0  0  0
  160.8080  204.2550  150.3090 C   0  0  0  0  0  0  0  0  0  0  0  0
  160.7760  203.1630  149.4210 C   0  0  0  0  0  0  0  0  0  0  0  0
  161.8180  207.6690  153.7880 C   0  0  1  0  0  3  0  0  0  0  0  0
  160.7970  206.5720  152.1520 C   0  0  1  0  0  3  0  0  0  0  0  0
  161.9800  206.3430  153.0720 C   0  0  0  0  0  2  0  0  0  0  0  0
  160.3750  208.2120  152.8160 S   0  0  0  0  0  0  0  0  0  0  0  0
  161.4140  207.4220  155.2300 C   0  0  0  0  0  2  0  0  0  0  0  0
  161.7980  208.6110  156.0910 C   0  0  0  0  0  2  0  0  0  0  0  0
  159.3410  211.4850  155.9250 O   0  0  0  0  0  1  0  0  0  0  0  0
  160.4820  210.7320  155.6830 C   0  0  0  0  0  0  0  0  0  0  0  0
  161.3710  211.1790  154.9100 O   0  0  0  0  0  0  0  0  0  0  0  0
  160.6380  209.4610  156.3150 N   0  0  0  0  0  2  0  0  0  0  0  0
  159.0640  201.3250  149.7590 N   0  0  0  0  0  1  0  0  0  0  0  0
  160.3870  201.8210  149.9410 C   0  0  0  0  0  0  0  0  0  0  0  0
  161.2330  201.0990  150.5330 O   0  0  0  0  0  0  0  0  0  0  0  0
  1 11  1  0  0  0  0
  1  9  1  0  0  0  0
  2  7  1  6  0  0  0
  2 18  1  0  0  0  0
  3 10  1  0  0  0  0
  5 15  1  0  0  0  0
  5  2  1  0  0  0  0
  6  8  1  0  0  0  0
  8 13  1  1  0  0  0
  8 11  1  0  0  0  0
  9  7  2  0  0  0  0
 10 13  2  0  0  0  0
 11  5  2  0  0  0  0
 12  6  1  0  0  0  0
 13 16  1  0  0  0  0
 14  3  2  0  0  0  0
 14  6  1  0  0  0  0
 15  4  1  0  0  0  0
 16 28  1  0  0  0  0
 16 15  2  0  0  0  0
 17 21  1  1  0  0  0
 18 20  1  0  0  0  0
 18 19  1  1  0  0  0
 19 17  1  0  0  0  0
 20 17  1  0  0  0  0
 21 22  1  0  0  0  0
 22 26  1  0  0  0  0
 24 23  1  0  0  0  0
 24 26  1  0  0  0  0
 25 24  2  0  0  0  0
 27 28  1  0  0  0  0
 28 29  2  0  0  0  0
M  END
>  <MODEL>
3

>  <REMARK>
 VINA RESULT:      -7.7      2.227      3.651
  Name = 
  5 active torsions:
  status: ('A' for Active; 'I' for Inactive)
    1  A    between atoms: C_2  and  C_5
    2  A    between atoms: C_2  and  N_29
    3  A    between atoms: C_3  and  C_17
    4  A    between atoms: C_5  and  C_10
    5  A    between atoms: C_16  and  C_28
                            x       y       z     vdW  Elec       q    Type
                         _______ _______ _______ _____ _____    ______ ____

>  <TORSDO>
F 5

$$$$
=
 OpenBabel11042422533D

 29 32  0  0  1  0  0  0  0  0999 V2000
  162.2610  207.7270  148.0430 C   0  0  0  0  0  2  0  0  0  0  0  0
  161.8560  208.1990  150.8290 C   0  0  1  0  0  3  0  0  0  0  0  0
  161.0860  202.7470  147.4530 C   0  0  0  0  0  3  0  0  0  0  0  0
  161.5420  205.9870  152.6440 O   0  0  0  0  0  1  0  0  0  0  0  0
  161.7160  206.9100  150.3800 C   0  0  0  0  0  0  0  0  0  0  0  0
  161.3510  205.0880  147.0410 N   0  0  0  0  0  0  0  0  0  0  0  0
  161.9200  209.3210  149.8620 C   0  0  0  0  0  3  0  0  0  0  0  0
  161.4670  205.3620  148.4680 C   0  0  2  0  0  3  0  0  0  0  0  0
  162.0650  209.1100  148.5630 C   0  0  0  0  0  3  0  0  0  0  0  0
  161.1130  203.0420  148.8910 C   0  0  0  0  0  3  0  0  0  0  0  0
  161.7440  206.6570  148.9770 C   0  0  0  0  0  0  0  0  0  0  0  0
  161.1310  206.1170  146.0350 C   0  0  0  0  0  1  0  0  0  0  0  0
  161.3020  204.2850  149.3720 C   0  0  0  0  0  0  0  0  0  0  0  0
  161.2010  203.7400  146.5810 C   0  0  0  0  0  3  0  0  0  0  0  0
  161.5210  205.8110  151.2620 C   0  0  0  0  0  0  0  0  0  0  0  0
  161.3320  204.5070  150.7670 C   0  0  0  0  0  0  0  0  0  0  0  0
  161.1850  210.5380  153.0840 C   0  0  1  0  0  3  0  0  0  0  0  0
  161.8350  208.5680  152.2940 C   0  0  1  0  0  3  0  0  0  0  0  0
  162.4680  209.9190  152.5670 C   0  0  0  0  0  2  0  0  0  0  0  0
  160.1680  209.0430  152.8450 S   0  0  0  0  0  0  0  0  0  0  0  0
  161.3270  210.8410  154.5640 C   0  0  0  0  0  2  0  0  0  0  0  0
  160.3900  211.9690  154.9570 C   0  0  0  0  0  2  0  0  0  0  0  0
  156.8100  210.8410  155.4390 O   0  0  0  0  0  1  0  0  0  0  0  0
  157.9310  211.3910  154.8330 C   0  0  0  0  0  0  0  0  0  0  0  0
  157.8430  211.8560  153.6650 O   0  0  0  0  0  0  0  0  0  0  0  0
  159.1720  211.4260  155.5400 N   0  0  0  0  0  2  0  0  0  0  0  0
  162.1280  202.3430  151.8210 N   0  0  0  0  0  1  0  0  0  0  0  0
  161.1600  203.3850  151.7340 C   0  0  0  0  0  0  0  0  0  0  0  0
  160.1610  203.3550  152.5010 O   0  0  0  0  0  0  0  0  0  0  0  0
  1  9  1  0  0  0  0
  1 11  1  0  0  0  0
  2  7  1  6  0  0  0
  2 18  1  0  0  0  0
  3 10  1  0  0  0  0
  5  2  1  0  0  0  0
  5 15  1  0  0  0  0
  6  8  1  0  0  0  0
  8 11  1  6  0  0  0
  8 13  1  0  0  0  0
  9  7  2  0  0  0  0
 10 13  2  0  0  0  0
 11  5  2  0  0  0  0
 12  6  1  0  0  0  0
 13 16  1  0  0  0  0
 14  6  1  0  0  0  0
 14  3  2  0  0  0  0
 15  4  1  0  0  0  0
 16 15  2  0  0  0  0
 16 28  1  0  0  0  0
 17 21  1  1  0  0  0
 18 19  1  6  0  0  0
 18 20  1  0  0  0  0
 19 17  1  0  0  0  0
 20 17  1  0  0  0  0
 21 22  1  0  0  0  0
 22 26  1  0  0  0  0
 24 23  1  0  0  0  0
 24 26  1  0  0  0  0
 25 24  2  0  0  0  0
 28 27  1  0  0  0  0
 28 29  2  0  0  0  0
M  END
>  <MODEL>
4

>  <REMARK>
 VINA RESULT:      -7.4      2.324      4.081
  Name = 
  5 active torsions:
  status: ('A' for Active; 'I' for Inactive)
    1  A    between atoms: C_2  and  C_5
    2  A    between atoms: C_2  and  N_29
    3  A    between atoms: C_3  and  C_17
    4  A    between atoms: C_5  and  C_10
    5  A    between atoms: C_16  and  C_28
                            x       y       z     vdW  Elec       q    Type
                         _______ _______ _______ _____ _____    ______ ____

>  <TORSDO>
F 5

$$$$
=
 OpenBabel11042422533D

 29 32  0  0  1  0  0  0  0  0999 V2000
  160.4840  203.0410  150.7820 C   0  0  0  0  0  2  0  0  0  0  0  0
  160.9620  205.8420  150.5130 C   0  0  1  0  0  3  0  0  0  0  0  0
  161.0910  201.2220  146.0020 C   0  0  0  0  0  3  0  0  0  0  0  0
  161.0430  207.0550  147.9030 O   0  0  0  0  0  1  0  0  0  0  0  0
  160.9550  205.0900  149.3650 C   0  0  0  0  0  0  0  0  0  0  0  0
  161.0860  201.3980  148.3880 N   0  0  0  0  0  0  0  0  0  0  0  0
  161.0170  205.1800  151.8370 C   0  0  0  0  0  3  0  0  0  0  0  0
  161.0140  202.8520  148.3150 C   0  0  0  0  0  0  0  0  0  0  0  0
  160.8380  203.8740  151.9670 C   0  0  0  0  0  3  0  0  0  0  0  0
  161.1100  202.6880  145.9380 C   0  0  0  0  0  3  0  0  0  0  0  0
  160.8870  203.6700  149.4680 C   0  0  0  0  0  0  0  0  0  0  0  0
  161.4110  200.6650  149.6020 C   0  0  0  0  0  1  0  0  0  0  0  0
  161.0640  203.4620  147.0380 C   0  0  0  0  0  0  0  0  0  0  0  0
  161.0810  200.6200  147.1850 C   0  0  0  0  0  3  0  0  0  0  0  0
  161.0320  205.6720  148.0700 C   0  0  0  0  0  0  0  0  0  0  0  0
  161.0710  204.8690  146.9140 C   0  0  1  0  0  3  0  0  0  0  0  0
  161.9930  208.5670  152.0990 C   0  0  1  0  0  3  0  0  0  0  0  0
  161.0370  207.3510  150.5070 C   0  0  1  0  0  3  0  0  0  0  0  0
  160.6290  207.9620  151.8340 C   0  0  0  0  0  2  0  0  0  0  0  0
  162.7560  207.9410  150.5660 S   0  0  0  0  0  0  0  0  0  0  0  0
  161.8960  210.0810  152.0540 C   0  0  0  0  0  2  0  0  0  0  0  0
  162.4980  210.6040  150.7620 C   0  0  0  0  0  2  0  0  0  0  0  0
  160.7770  212.6500  148.0830 O   0  0  0  0  0  0  0  0  0  0  0  0
  161.7870  211.9880  148.7670 C   0  0  0  0  0  0  0  0  0  0  0  0
  162.9550  211.9750  148.2950 O   0  0  0  0  0  1  0  0  0  0  0  0
  161.4920  211.3330  150.0020 N   0  0  0  0  0  2  0  0  0  0  0  0
  162.3710  205.7360  144.9170 N   0  0  0  0  0  1  0  0  0  0  0  0
  161.1250  205.5290  145.5770 C   0  0  0  0  0  0  0  0  0  0  0  0
  160.0640  205.8970  145.0070 O   0  0  0  0  0  0  0  0  0  0  0  0
  1  9  1  0  0  0  0
  2  7  1  1  0  0  0
  3 14  2  0  0  0  0
  4 15  1  0  0  0  0
  5 11  1  0  0  0  0
  5  2  1  0  0  0  0
  6 12  1  0  0  0  0
  7  9  2  0  0  0  0
  8  6  1  0  0  0  0
  8 11  2  0  0  0  0
 10  3  1  0  0  0  0
 10 13  2  0  0  0  0
 11  1  1  0  0  0  0
 13  8  1  0  0  0  0
 14  6  1  0  0  0  0
 15  5  2  0  0  0  0
 16 28  1  1  0  0  0
 16 13  1  0  0  0  0
 16 15  1  0  0  0  0
 17 21  1  6  0  0  0
 18  2  1  0  0  0  0
 18 20  1  0  0  0  0
 18 19  1  1  0  0  0
 19 17  1  0  0  0  0
 20 17  1  0  0  0  0
 22 21  1  0  0  0  0
 23 24  2  0  0  0  0
 24 26  1  0  0  0  0
 25 24  1  0  0  0  0
 26 22  1  0  0  0  0
 27 28  1  0  0  0  0
 29 28  2  0  0  0  0
M  END
>  <MODEL>
5

>  <REMARK>
 VINA RESULT:      -7.3      2.467      2.767
  Name = 
  5 active torsions:
  status: ('A' for Active; 'I' for Inactive)
    1  A    between atoms: C_2  and  C_5
    2  A    between atoms: C_2  and  N_29
    3  A    between atoms: C_3  and  C_17
    4  A    between atoms: C_5  and  C_10
    5  A    between atoms: C_16  and  C_28
                            x       y       z     vdW  Elec       q    Type
                         _______ _______ _______ _____ _____    ______ ____

>  <TORSDO>
F 5

$$$$
=
 OpenBabel11042422533D

 29 32  0  0  1  0  0  0  0  0999 V2000
  160.6020  203.9500  152.0440 C   0  0  0  0  0  2  0  0  0  0  0  0
  161.4330  206.6470  151.6130 C   0  0  1  0  0  3  0  0  0  0  0  0
  160.9520  201.7920  147.3810 C   0  0  0  0  0  3  0  0  0  0  0  0
  161.6570  207.6850  148.9370 O   0  0  0  0  0  1  0  0  0  0  0  0
  161.3240  205.8360  150.5110 C   0  0  0  0  0  0  0  0  0  0  0  0
  160.9790  202.1070  149.7520 N   0  0  0  0  0  0  0  0  0  0  0  0
  161.4080  206.0620  152.9740 C   0  0  0  0  0  3  0  0  0  0  0  0
  161.0930  203.5520  149.5940 C   0  0  0  0  0  0  0  0  0  0  0  0
  161.0640  204.7990  153.1790 C   0  0  0  0  0  3  0  0  0  0  0  0
  161.1580  203.2370  147.2310 C   0  0  0  0  0  3  0  0  0  0  0  0
  161.0760  204.4450  150.6970 C   0  0  0  0  0  0  0  0  0  0  0  0
  161.2130  201.4100  151.0080 C   0  0  0  0  0  1  0  0  0  0  0  0
  161.2160  204.0740  148.2830 C   0  0  0  0  0  0  0  0  0  0  0  0
  160.8700  201.2670  148.5970 C   0  0  0  0  0  3  0  0  0  0  0  0
  161.4710  206.3270  149.1840 C   0  0  0  0  0  0  0  0  0  0  0  0
  161.4010  205.4590  148.0770 C   0  0  1  0  0  3  0  0  0  0  0  0
  160.4770  209.6930  152.5160 C   0  0  1  0  0  3  0  0  0  0  0  0
  161.7000  208.1310  151.5190 C   0  0  1  0  0  3  0  0  0  0  0  0
  160.4500  208.9320  151.2050 C   0  0  0  0  0  2  0  0  0  0  0  0
  161.9730  208.8720  153.1580 S   0  0  0  0  0  0  0  0  0  0  0  0
  160.7610  211.1600  152.2480 C   0  0  0  0  0  2  0  0  0  0  0  0
  159.5120  211.9860  152.4930 C   0  0  0  0  0  2  0  0  0  0  0  0
  157.8270  214.3780  150.0930 O   0  0  0  0  0  0  0  0  0  0  0  0
  158.0710  213.6530  151.2510 C   0  0  0  0  0  0  0  0  0  0  0  0
  157.3040  213.7840  152.2420 O   0  0  0  0  0  1  0  0  0  0  0  0
  159.1860  212.7620  151.3050 N   0  0  0  0  0  2  0  0  0  0  0  0
  160.3880  206.4870  145.9930 N   0  0  0  0  0  1  0  0  0  0  0  0
  161.5340  206.0270  146.7050 C   0  0  0  0  0  0  0  0  0  0  0  0
  162.6670  206.1240  146.1640 O   0  0  0  0  0  0  0  0  0  0  0  0
  1  9  1  0  0  0  0
  2  7  1  1  0  0  0
  3 14  2  0  0  0  0
  4 15  1  0  0  0  0
  5 11  1  0  0  0  0
  5  2  1  0  0  0  0
  6 12  1  0  0  0  0
  7  9  2  0  0  0  0
  8  6  1  0  0  0  0
  8 11  2  0  0  0  0
 10  3  1  0  0  0  0
 10 13  2  0  0  0  0
 11  1  1  0  0  0  0
 13  8  1  0  0  0  0
 14  6  1  0  0  0  0
 15  5  2  0  0  0  0
 16 28  1  1  0  0  0
 16 13  1  0  0  0  0
 16 15  1  0  0  0  0
 17 21  1  6  0  0  0
 17 20  1  0  0  0  0
 18 19  1  1  0  0  0
 18  2  1  0  0  0  0
 18 20  1  0  0  0  0
 19 17  1  0  0  0  0
 21 22  1  0  0  0  0
 23 24  2  0  0  0  0
 24 26  1  0  0  0  0
 24 25  1  0  0  0  0
 26 22  1  0  0  0  0
 27 28  1  0  0  0  0
 29 28  2  0  0  0  0
M  END
>  <MODEL>
6

>  <REMARK>
 VINA RESULT:      -7.2      2.260      2.479
  Name = 
  5 active torsions:
  status: ('A' for Active; 'I' for Inactive)
    1  A    between atoms: C_2  and  C_5
    2  A    between atoms: C_2  and  N_29
    3  A    between atoms: C_3  and  C_17
    4  A    between atoms: C_5  and  C_10
    5  A    between atoms: C_16  and  C_28
                            x       y       z     vdW  Elec       q    Type
                         _______ _______ _______ _____ _____    ______ ____

>  <TORSDO>
F 5

$$$$
=
 OpenBabel11042422533D

 29 32  0  0  1  0  0  0  0  0999 V2000
  162.2320  207.8170  148.1260 C   0  0  0  0  0  2  0  0  0  0  0  0
  161.7540  208.2910  150.9000 C   0  0  1  0  0  3  0  0  0  0  0  0
  161.1370  202.8200  147.5220 C   0  0  0  0  0  3  0  0  0  0  0  0
  161.4250  206.0790  152.7140 O   0  0  0  0  0  1  0  0  0  0  0  0
  161.6410  206.9990  150.4520 C   0  0  0  0  0  0  0  0  0  0  0  0
  161.3810  205.1640  147.1100 N   0  0  0  0  0  0  0  0  0  0  0  0
  161.8260  209.4110  149.9330 C   0  0  0  0  0  3  0  0  0  0  0  0
  161.4580  205.4430  148.5390 C   0  0  2  0  0  3  0  0  0  0  0  0
  162.0060  209.1980  148.6380 C   0  0  0  0  0  3  0  0  0  0  0  0
  161.1250  203.1200  148.9590 C   0  0  0  0  0  3  0  0  0  0  0  0
  161.7060  206.7430  149.0510 C   0  0  0  0  0  0  0  0  0  0  0  0
  161.1720  206.1880  146.0960 C   0  0  0  0  0  1  0  0  0  0  0  0
  161.2870  204.3660  149.4420 C   0  0  0  0  0  0  0  0  0  0  0  0
  161.2600  203.8130  146.6500 C   0  0  0  0  0  3  0  0  0  0  0  0
  161.4400  205.9000  151.3320 C   0  0  0  0  0  0  0  0  0  0  0  0
  161.2800  204.5920  150.8360 C   0  0  0  0  0  0  0  0  0  0  0  0
  161.2420  210.6990  153.1240 C   0  0  1  0  0  3  0  0  0  0  0  0
  161.6930  208.6630  152.3630 C   0  0  1  0  0  3  0  0  0  0  0  0
  162.4680  209.9270  152.6790 C   0  0  0  0  0  2  0  0  0  0  0  0
  160.0670  209.3380  152.8190 S   0  0  0  0  0  0  0  0  0  0  0  0
  161.3330  210.9860  154.6120 C   0  0  0  0  0  2  0  0  0  0  0  0
  160.3030  210.1650  155.3660 C   0  0  0  0  0  2  0  0  0  0  0  0
  161.1260  206.9930  157.2570 O   0  0  0  0  0  1  0  0  0  0  0  0
  160.4310  207.8850  156.4540 C   0  0  0  0  0  0  0  0  0  0  0  0
  159.3300  207.5410  155.9470 O   0  0  0  0  0  0  0  0  0  0  0  0
  160.9680  209.1870  156.2130 N   0  0  0  0  0  2  0  0  0  0  0  0
  162.0820  202.4450  151.9210 N   0  0  0  0  0  1  0  0  0  0  0  0
  161.0990  203.4700  151.8020 C   0  0  0  0  0  0  0  0  0  0  0  0
  160.0780  203.4250  152.5390 O   0  0  0  0  0  0  0  0  0  0  0  0
  1  9  1  0  0  0  0
  1 11  1  0  0  0  0
  2  7  1  6  0  0  0
  2 18  1  0  0  0  0
  3 10  1  0  0  0  0
  5  2  1  0  0  0  0
  5 15  1  0  0  0  0
  6  8  1  0  0  0  0
  8 11  1  6  0  0  0
  8 13  1  0  0  0  0
  9  7  2  0  0  0  0
 10 13  2  0  0  0  0
 11  5  2  0  0  0  0
 12  6  1  0  0  0  0
 13 16  1  0  0  0  0
 14  6  1  0  0  0  0
 14  3  2  0  0  0  0
 15  4  1  0  0  0  0
 16 15  2  0  0  0  0
 16 28  1  0  0  0  0
 17 21  1  1  0  0  0
 18 19  1  6  0  0  0
 18 20  1  0  0  0  0
 19 17  1  0  0  0  0
 20 17  1  0  0  0  0
 21 22  1  0  0  0  0
 22 26  1  0  0  0  0
 24 23  1  0  0  0  0
 25 24  2  0  0  0  0
 26 24  1  0  0  0  0
 28 27  1  0  0  0  0
 28 29  2  0  0  0  0
M  END
>  <MODEL>
7

>  <REMARK>
 VINA RESULT:      -6.4      2.350      4.189
  Name = 
  5 active torsions:
  status: ('A' for Active; 'I' for Inactive)
    1  A    between atoms: C_2  and  C_5
    2  A    between atoms: C_2  and  N_29
    3  A    between atoms: C_3  and  C_17
    4  A    between atoms: C_5  and  C_10
    5  A    between atoms: C_16  and  C_28
                            x       y       z     vdW  Elec       q    Type
                         _______ _______ _______ _____ _____    ______ ____

>  <TORSDO>
F 5

$$$$
=
 OpenBabel11042422533D

 29 32  0  0  1  0  0  0  0  0999 V2000
  161.5840  206.4860  154.2940 C   0  0  0  0  0  2  0  0  0  0  0  0
  161.1670  207.1660  151.5530 C   0  0  1  0  0  3  0  0  0  0  0  0
  159.7430  210.5510  156.8660 C   0  0  0  0  0  3  0  0  0  0  0  0
  160.4950  209.8660  150.8150 O   0  0  0  0  0  1  0  0  0  0  0  0
  160.8610  208.1170  152.4930 C   0  0  0  0  0  0  0  0  0  0  0  0
  160.3440  208.3120  156.2740 N   0  0  0  0  0  0  0  0  0  0  0  0
  161.4140  205.7640  151.9650 C   0  0  0  0  0  3  0  0  0  0  0  0
  160.4550  208.6770  154.8670 C   0  0  0  0  0  0  0  0  0  0  0  0
  161.5670  205.4330  153.2380 C   0  0  0  0  0  3  0  0  0  0  0  0
  159.7690  210.8880  155.4370 C   0  0  0  0  0  3  0  0  0  0  0  0
  160.8950  207.7640  153.8730 C   0  0  0  0  0  0  0  0  0  0  0  0
  160.2990  206.9380  156.7520 C   0  0  0  0  0  1  0  0  0  0  0  0
  160.1160  209.9990  154.4890 C   0  0  0  0  0  0  0  0  0  0  0  0
  160.0210  209.3110  157.2480 C   0  0  0  0  0  3  0  0  0  0  0  0
  160.4900  209.4450  152.1430 C   0  0  0  0  0  0  0  0  0  0  0  0
  160.1350  210.3850  153.1300 C   0  0  1  0  0  3  0  0  0  0  0  0
  162.0080  206.0870  148.5300 C   0  0  1  0  0  3  0  0  0  0  0  0
  161.1540  207.4420  150.0670 C   0  0  1  0  0  3  0  0  0  0  0  0
  162.5050  207.2110  149.4170 C   0  0  0  0  0  2  0  0  0  0  0  0
  160.2920  206.1330  149.1450 S   0  0  0  0  0  0  0  0  0  0  0  0
  162.0530  206.5270  147.0780 C   0  0  0  0  0  2  0  0  0  0  0  0
  162.7460  205.4710  146.2350 C   0  0  0  0  0  2  0  0  0  0  0  0
  160.8850  202.1780  146.1350 O   0  0  0  0  0  1  0  0  0  0  0  0
  161.3090  203.4450  145.7590 C   0  0  0  0  0  0  0  0  0  0  0  0
  160.8640  203.9640  144.7010 O   0  0  0  0  0  0  0  0  0  0  0  0
  162.2440  204.1490  146.5790 N   0  0  0  0  0  2  0  0  0  0  0  0
  158.4220  212.2020  152.7000 N   0  0  0  0  0  1  0  0  0  0  0  0
  159.7800  211.7720  152.7130 C   0  0  0  0  0  0  0  0  0  0  0  0
  160.6810  212.5870  152.3830 O   0  0  0  0  0  0  0  0  0  0  0  0
  2  7  1  6  0  0  0
  2  5  1  0  0  0  0
  3 14  2  0  0  0  0
  4 15  1  0  0  0  0
  5 11  1  0  0  0  0
  6 12  1  0  0  0  0
  6 14  1  0  0  0  0
  7  9  2  0  0  0  0
  8  6  1  0  0  0  0
  9  1  1  0  0  0  0
 10  3  1  0  0  0  0
 11  1  1  0  0  0  0
 11  8  2  0  0  0  0
 13  8  1  0  0  0  0
 13 10  2  0  0  0  0
 15  5  2  0  0  0  0
 15 16  1  0  0  0  0
 16 28  1  6  0  0  0
 16 13  1  0  0  0  0
 17 21  1  6  0  0  0
 17 20  1  0  0  0  0
 17 19  1  0  0  0  0
 18 19  1  6  0  0  0
 18  2  1  0  0  0  0
 20 18  1  0  0  0  0
 22 26  1  0  0  0  0
 22 21  1  0  0  0  0
 24 23  1  0  0  0  0
 24 26  1  0  0  0  0
 25 24  2  0  0  0  0
 27 28  1  0  0  0  0
 29 28  2  0  0  0  0
M  END
>  <MODEL>
8

>  <REMARK>
 VINA RESULT:      -6.2      2.586      8.500
  Name = 
  5 active torsions:
  status: ('A' for Active; 'I' for Inactive)
    1  A    between atoms: C_2  and  C_5
    2  A    between atoms: C_2  and  N_29
    3  A    between atoms: C_3  and  C_17
    4  A    between atoms: C_5  and  C_10
    5  A    between atoms: C_16  and  C_28
                            x       y       z     vdW  Elec       q    Type
                         _______ _______ _______ _____ _____    ______ ____

>  <TORSDO>
F 5

$$$$
=
 OpenBabel11042422533D

 29 32  0  0  1  0  0  0  0  0999 V2000
  160.9160  208.3070  152.0790 C   0  0  0  0  0  2  0  0  0  0  0  0
  161.8600  209.4700  149.6490 C   0  0  1  0  0  3  0  0  0  0  0  0
  160.8890  203.2510  151.0950 C   0  0  0  0  0  3  0  0  0  0  0  0
  161.9860  207.8980  147.2410 O   0  0  0  0  0  1  0  0  0  0  0  0
  161.6470  208.1150  149.6590 C   0  0  0  0  0  0  0  0  0  0  0  0
  161.0660  205.3490  152.2310 N   0  0  0  0  0  0  0  0  0  0  0  0
  161.8810  210.2300  150.9210 C   0  0  0  0  0  3  0  0  0  0  0  0
  161.2460  206.0560  150.9690 C   0  0  0  0  0  0  0  0  0  0  0  0
  161.4840  209.6840  152.0610 C   0  0  0  0  0  3  0  0  0  0  0  0
  161.1610  203.9590  149.8380 C   0  0  0  0  0  3  0  0  0  0  0  0
  161.3380  207.4710  150.8920 C   0  0  0  0  0  0  0  0  0  0  0  0
  161.3350  205.9390  153.5340 C   0  0  0  0  0  1  0  0  0  0  0  0
  161.3210  205.2940  149.7780 C   0  0  0  0  0  0  0  0  0  0  0  0
  160.8490  203.9340  152.2330 C   0  0  0  0  0  3  0  0  0  0  0  0
  161.7440  207.3180  148.4850 C   0  0  0  0  0  0  0  0  0  0  0  0
  161.5670  205.9220  148.5370 C   0  0  1  0  0  3  0  0  0  0  0  0
  161.5570  212.3280  147.9920 C   0  0  1  0  0  3  0  0  0  0  0  0
  162.1980  210.2420  148.3950 C   0  0  1  0  0  3  0  0  0  0  0  0
  160.9920  210.9360  147.7920 C   0  0  0  0  0  2  0  0  0  0  0  0
  163.1100  211.7710  148.7680 S   0  0  0  0  0  0  0  0  0  0  0  0
  161.8460  212.9600  146.6420 C   0  0  0  0  0  2  0  0  0  0  0  0
  160.7180  213.8980  146.2530 C   0  0  0  0  0  2  0  0  0  0  0  0
  159.0690  212.9170  142.9920 O   0  0  0  0  0  0  0  0  0  0  0  0
  159.3100  212.9950  144.3560 C   0  0  0  0  0  0  0  0  0  0  0  0
  158.5520  212.3880  145.1590 O   0  0  0  0  0  1  0  0  0  0  0  0
  160.4180  213.7580  144.8360 N   0  0  0  0  0  2  0  0  0  0  0  0
  160.5370  205.0560  146.3890 N   0  0  0  0  0  1  0  0  0  0  0  0
  161.6510  205.1350  147.2730 C   0  0  0  0  0  0  0  0  0  0  0  0
  162.7190  204.5430  146.9640 O   0  0  0  0  0  0  0  0  0  0  0  0
  2  5  1  0  0  0  0
  2  7  1  1  0  0  0
  3 14  2  0  0  0  0
  4 15  1  0  0  0  0
  5 11  1  0  0  0  0
  6 14  1  0  0  0  0
  6 12  1  0  0  0  0
  7  9  2  0  0  0  0
  8  6  1  0  0  0  0
  9  1  1  0  0  0  0
 10  3  1  0  0  0  0
 11  8  2  0  0  0  0
 11  1  1  0  0  0  0
 13 10  2  0  0  0  0
 13  8  1  0  0  0  0
 15 16  1  0  0  0  0
 15  5  2  0  0  0  0
 16 28  1  1  0  0  0
 16 13  1  0  0  0  0
 17 21  1  6  0  0  0
 17 20  1  0  0  0  0
 18 19  1  1  0  0  0
 18 20  1  0  0  0  0
 18  2  1  0  0  0  0
 19 17  1  0  0  0  0
 22 21  1  0  0  0  0
 23 24  2  0  0  0  0
 24 26  1  0  0  0  0
 24 25  1  0  0  0  0
 26 22  1  0  0  0  0
 27 28  1  0  0  0  0
 29 28  2  0  0  0  0
M  END
>  <MODEL>
9

>  <REMARK>
 VINA RESULT:      -6.2      3.982      5.964
  Name = 
  5 active torsions:
  status: ('A' for Active; 'I' for Inactive)
    1  A    between atoms: C_2  and  C_5
    2  A    between atoms: C_2  and  N_29
    3  A    between atoms: C_3  and  C_17
    4  A    between atoms: C_5  and  C_10
    5  A    between atoms: C_16  and  C_28
                            x       y       z     vdW  Elec       q    Type
                         _______ _______ _______ _____ _____    ______ ____

>  <TORSDO>
F 5

$$$$
