=
 OpenBabel11052410173D

 57 60  0  0  1  0  0  0  0  0999 V2000
  161.7160  209.0880  149.2100 C   0  0  0  0  0  0  0  0  0  0  0  0
  161.1810  208.6430  151.4930 C   0  0  0  0  0  0  0  0  0  0  0  0
  161.7330  207.7030  148.9300 C   0  0  0  0  0  0  0  0  0  0  0  0
  161.4520  206.8080  149.9650 C   0  0  0  0  0  3  0  0  0  0  0  0
  161.4250  209.5090  150.4750 N   0  0  0  0  0  0  0  0  0  0  0  0
  161.1830  207.2710  151.2530 C   0  0  0  0  0  3  0  0  0  0  0  0
  160.8960  209.1570  152.8640 C   0  0  0  0  0  2  0  0  0  0  0  0
  162.1280  209.6260  153.4860 N   0  0  0  0  0  2  0  0  0  0  0  0
  161.8350  210.8340  154.1350 N   0  0  0  0  0  2  0  0  0  0  0  0
  160.4470  210.8660  154.3270 N   0  0  0  0  0  2  0  0  0  0  0  0
  160.1660  212.0090  155.1830 C   0  0  2  0  0  3  0  0  0  0  0  0
  159.0680  211.5360  157.2600 O   0  0  0  0  0  1  0  0  0  0  0  0
  160.1520  211.5880  156.6180 C   0  0  0  0  0  0  0  0  0  0  0  0
  161.3470  211.2760  157.2540 O   0  0  0  0  0  0  0  0  0  0  0  0
  158.8360  212.6330  154.7740 C   0  0  0  0  0  2  0  0  0  0  0  0
  157.8590  211.5910  154.2330 C   0  0  2  0  0  3  0  0  0  0  0  0
  157.9940  211.4920  152.8570 F   0  0  0  0  0  0  0  0  0  0  0  0
  156.4080  211.9000  154.6030 C   0  0  0  0  0  2  0  0  0  0  0  0
  156.3140  212.9500  155.7000 C   0  0  0  0  0  1  0  0  0  0  0  0
  161.8550  210.1090  148.1170 C   0  0  0  0  0  2  0  0  0  0  0  0
  163.0330  211.8240  149.2760 O   0  0  0  0  0  0  0  0  0  0  0  0
  161.9840  211.4930  148.6610 C   0  0  0  0  0  0  0  0  0  0  0  0
  160.4060  212.9530  147.4560 C   0  0  0  0  0  0  0  0  0  0  0  0
  160.8680  212.3900  148.5400 N   0  0  0  0  0  0  0  0  0  0  0  0
  160.0210  213.1110  145.0280 C   0  0  1  0  0  3  0  0  0  0  0  0
  161.9040  213.6730  145.6420 N   0  0  0  0  0  2  0  0  0  0  0  0
  160.9710  212.6420  146.0860 C   0  0  1  0  0  3  0  0  0  0  0  0
  161.0050  214.1190  144.6530 N   0  0  0  0  0  2  0  0  0  0  0  0
  159.9090  212.0740  143.9220 C   0  0  0  0  0  2  0  0  0  0  0  0
  160.4670  213.7840  140.5900 C   0  0  0  0  0  3  0  0  0  0  0  0
  159.8400  213.2880  141.7390 C   0  0  0  0  0  3  0  0  0  0  0  0
  161.8340  213.5610  140.3880 C   0  0  0  0  0  0  0  0  0  0  0  0
  161.9470  212.3430  142.4800 C   0  0  0  0  0  3  0  0  0  0  0  0
  160.5780  212.5670  142.6840 C   0  0  0  0  0  0  0  0  0  0  0  0
  162.5740  212.8420  141.3340 C   0  0  0  0  0  3  0  0  0  0  0  0
  162.6460  214.2380  138.9460 S   0  0  0  0  0  0  0  0  0  0  0  0
  161.8760  213.0260  137.8300 C   0  0  0  0  0  2  0  0  0  0  0  0
  162.4450  211.6560  138.1200 C   0  0  0  0  0  2  0  0  0  0  0  0
  161.6660  210.6080  137.3440 C   0  0  0  0  0  2  0  0  0  0  0  0
  161.9250  209.6880  139.6310 C   0  0  0  0  0  1  0  0  0  0  0  0
  161.4210  209.4040  138.2290 C   0  0  0  0  0  2  0  0  0  0  0  0
  158.8190  213.9310  148.9870 N   0  0  0  0  0  1  0  0  0  0  0  0
  159.2230  213.8600  147.5930 C   0  0  0  0  0  2  0  0  0  0  0  0
  161.9820  207.1640  147.6260 N   0  0  0  0  0  2  0  0  0  0  0  0
  161.0440  207.1840  146.5480 C   0  0  0  0  0  3  0  0  0  0  0  0
  160.9750  206.1910  145.6680 C   0  0  0  0  0  3  0  0  0  0  0  0
  161.8540  204.9800  145.7450 C   0  0  0  0  0  2  0  0  0  0  0  0
  161.3420  203.0740  147.3510 C   0  0  0  0  0  0  0  0  0  0  0  0
  160.9490  202.3400  146.4040 O   0  0  0  0  0  0  0  0  0  0  0  0
  161.8130  204.4000  147.0840 N   0  0  0  0  0  2  0  0  0  0  0  0
  160.5070  203.2830  149.7290 C   0  0  0  0  0  2  0  0  0  0  0  0
  161.0910  201.0120  148.7910 C   0  0  0  0  0  2  0  0  0  0  0  0
  161.7620  203.7630  151.8380 C   0  0  0  0  0  1  0  0  0  0  0  0
  160.7610  202.8340  151.1790 C   0  0  2  0  0  3  0  0  0  0  0  0
  160.6680  200.5140  150.1820 C   0  0  0  0  0  2  0  0  0  0  0  0
  161.2570  201.3850  151.2930 C   0  0  0  0  0  2  0  0  0  0  0  0
  161.4050  202.5190  148.7500 C   0  0  1  0  0  3  0  0  0  0  0  0
  1  5  1  0  0  0  0
  2  7  1  0  0  0  0
  3  1  2  0  0  0  0
  3  4  1  0  0  0  0
  4  6  2  0  0  0  0
  5  2  2  0  0  0  0
  6  2  1  0  0  0  0
  7  8  1  0  0  0  0
  8  9  1  0  0  0  0
  9 10  1  0  0  0  0
 10 11  1  0  0  0  0
 11 15  1  6  0  0  0
 11 13  1  0  0  0  0
 13 14  2  0  0  0  0
 13 12  1  0  0  0  0
 16 17  1  6  0  0  0
 16 18  1  0  0  0  0
 16 15  1  0  0  0  0
 18 19  1  0  0  0  0
 20 22  1  0  0  0  0
 20  1  1  0  0  0  0
 22 21  2  0  0  0  0
 23 43  1  0  0  0  0
 23 24  2  0  0  0  0
 24 22  1  0  0  0  0
 25 29  1  6  0  0  0
 25 27  1  0  0  0  0
 26 27  1  0  0  0  0
 27 23  1  1  0  0  0
 28 25  1  0  0  0  0
 28 26  1  0  0  0  0
 30 31  1  0  0  0  0
 31 34  2  0  0  0  0
 32 30  2  0  0  0  0
 32 35  1  0  0  0  0
 33 34  1  0  0  0  0
 34 29  1  0  0  0  0
 35 33  2  0  0  0  0
 36 32  1  0  0  0  0
 37 38  1  0  0  0  0
 37 36  1  0  0  0  0
 39 38  1  0  0  0  0
 39 41  1  0  0  0  0
 41 40  1  0  0  0  0
 43 42  1  0  0  0  0
 44  3  1  0  0  0  0
 45 44  1  0  0  0  0
 46 47  1  0  0  0  0
 46 45  2  0  0  0  0
 47 50  1  0  0  0  0
 49 48  2  0  0  0  0
 50 48  1  0  0  0  0
 51 54  1  0  0  0  0
 52 55  1  0  0  0  0
 54 56  1  0  0  0  0
 54 53  1  6  0  0  0
 55 56  1  0  0  0  0
 57 48  1  6  0  0  0
 57 52  1  0  0  0  0
 57 51  1  0  0  0  0
M  END
>  <MODEL>
1

>  <REMARK>
 VINA RESULT:      -5.5      0.000      0.000
  Name = 
  26 active torsions:
  status: ('A' for Active; 'I' for Inactive)
    1  A    between atoms: C_1  and  C_14
    2  A    between atoms: C_2  and  C_38
    3  A    between atoms: C_2  and  C_51
    4  A    between atoms: C_3  and  N_45
    5  A    between atoms: C_4  and  C_39
    6  A    between atoms: C_7  and  C_15
    7  A    between atoms: C_8  and  C_40
    8  A    between atoms: C_8  and  C_47
    9  A    between atoms: C_9  and  C_43
   10  A    between atoms: N_10  and  N_13
   11  A    between atoms: N_10  and  N_33
   12  A    between atoms: C_11  and  C_18
   13  A    between atoms: C_11  and  C_23
   14  A    between atoms: N_13  and  C_23
   15  A    between atoms: C_14  and  C_52
   16  A    between atoms: C_15  and  N_33
   17  A    between atoms: C_18  and  C_19
   18  A    between atoms: C_22  and  C_56
   19  A    between atoms: C_23  and  C_31
   20  A    between atoms: S_24  and  C_37
   21  A    between atoms: S_24  and  C_40
   22  A    between atoms: C_28  and  N_45
   23  A    between atoms: C_34  and  C_39
   24  A    between atoms: C_34  and  N_53
   25  A    between atoms: C_35  and  C_47
   26  A    between atoms: N_36  and  C_43
                            x       y       z     vdW  Elec       q    Type
                         _______ _______ _______ _____ _____    ______ ____

>  <TORSDO>
F 26

$$$$
=
 OpenBabel11052410173D

 57 60  0  0  1  0  0  0  0  0999 V2000
  162.1060  212.7030  147.5500 C   0  0  0  0  0  0  0  0  0  0  0  0
  161.7630  213.2420  145.2510 C   0  0  0  0  0  0  0  0  0  0  0  0
  160.8520  213.2640  147.8820 C   0  0  0  0  0  0  0  0  0  0  0  0
  160.0650  213.7980  146.8580 C   0  0  0  0  0  3  0  0  0  0  0  0
  162.5100  212.6980  146.2470 N   0  0  0  0  0  0  0  0  0  0  0  0
  160.5200  213.7980  145.5390 C   0  0  0  0  0  3  0  0  0  0  0  0
  162.2660  213.2340  143.8460 C   0  0  0  0  0  2  0  0  0  0  0  0
  161.1580  213.0320  142.9210 N   0  0  0  0  0  2  0  0  0  0  0  0
  161.7090  212.7480  141.6640 N   0  0  0  0  0  2  0  0  0  0  0  0
  161.0070  211.6490  141.1520 N   0  0  0  0  0  2  0  0  0  0  0  0
  161.5430  211.3880  139.8230 C   0  0  2  0  0  3  0  0  0  0  0  0
  162.2970  209.1510  140.2390 O   0  0  0  0  0  1  0  0  0  0  0  0
  161.5640  209.9160  139.5560 C   0  0  0  0  0  0  0  0  0  0  0  0
  160.7870  209.3930  138.5300 O   0  0  0  0  0  0  0  0  0  0  0  0
  162.9380  211.9920  139.7120 C   0  0  0  0  0  2  0  0  0  0  0  0
  163.0210  213.0360  138.6010 C   0  0  2  0  0  3  0  0  0  0  0  0
  163.7010  214.1540  139.0590 F   0  0  0  0  0  0  0  0  0  0  0  0
  161.6450  213.4330  138.0650 C   0  0  0  0  0  2  0  0  0  0  0  0
  161.1320  212.4420  137.0310 C   0  0  0  0  0  1  0  0  0  0  0  0
  162.9320  211.9750  148.5720 C   0  0  0  0  0  2  0  0  0  0  0  0
  161.8680  209.8470  148.4580 O   0  0  0  0  0  0  0  0  0  0  0  0
  162.1870  210.8310  149.1770 C   0  0  0  0  0  0  0  0  0  0  0  0
  161.7220  209.9650  151.4360 C   0  0  0  0  0  0  0  0  0  0  0  0
  161.7780  210.9230  150.5510 N   0  0  0  0  0  0  0  0  0  0  0  0
  161.2520  207.5640  151.7310 C   0  0  1  0  0  3  0  0  0  0  0  0
  161.7510  208.1170  149.8120 N   0  0  0  0  0  2  0  0  0  0  0  0
  162.1960  208.5590  151.1300 C   0  0  1  0  0  3  0  0  0  0  0  0
  160.8580  207.1870  150.3790 N   0  0  0  0  0  2  0  0  0  0  0  0
  162.0260  206.4220  152.3710 C   0  0  0  0  0  2  0  0  0  0  0  0
  160.7630  202.8850  151.9040 C   0  0  0  0  0  3  0  0  0  0  0  0
  161.1390  204.0910  152.5060 C   0  0  0  0  0  3  0  0  0  0  0  0
  160.9070  202.7160  150.5220 C   0  0  0  0  0  0  0  0  0  0  0  0
  161.8080  204.9590  150.3420 C   0  0  0  0  0  3  0  0  0  0  0  0
  161.6630  205.1280  151.7270 C   0  0  0  0  0  0  0  0  0  0  0  0
  161.4290  203.7550  149.7420 C   0  0  0  0  0  3  0  0  0  0  0  0
  160.3790  201.1950  149.7470 S   0  0  0  0  0  0  0  0  0  0  0  0
  159.8020  202.0510  148.2490 C   0  0  0  0  0  2  0  0  0  0  0  0
  160.7170  201.7010  147.0980 C   0  0  0  0  0  2  0  0  0  0  0  0
  161.4850  202.9380  146.6670 C   0  0  0  0  0  2  0  0  0  0  0  0
  160.9910  204.6600  144.9540 C   0  0  0  0  0  1  0  0  0  0  0  0
  161.2580  203.1860  145.1900 C   0  0  0  0  0  2  0  0  0  0  0  0
  160.5450  211.5840  152.7820 N   0  0  0  0  0  1  0  0  0  0  0  0
  161.2540  210.3160  152.8140 C   0  0  0  0  0  2  0  0  0  0  0  0
  160.3190  213.2770  149.2130 N   0  0  0  0  0  2  0  0  0  0  0  0
  159.8910  214.4520  149.9030 C   0  0  0  0  0  3  0  0  0  0  0  0
  158.8620  214.4290  150.7420 C   0  0  0  0  0  3  0  0  0  0  0  0
  158.0880  213.1810  151.0400 C   0  0  0  0  0  2  0  0  0  0  0  0
  156.5910  213.7860  153.0060 C   0  0  0  0  0  0  0  0  0  0  0  0
  155.8250  214.4530  152.2570 O   0  0  0  0  0  0  0  0  0  0  0  0
  157.7330  213.1210  152.4540 N   0  0  0  0  0  2  0  0  0  0  0  0
  157.3010  214.2190  155.3950 C   0  0  0  0  0  2  0  0  0  0  0  0
  154.8480  214.1600  154.7970 C   0  0  0  0  0  2  0  0  0  0  0  0
  157.8450  212.6080  157.2270 C   0  0  0  0  0  1  0  0  0  0  0  0
  157.0310  213.8340  156.8590 C   0  0  2  0  0  3  0  0  0  0  0  0
  154.6480  214.4510  156.2930 C   0  0  0  0  0  2  0  0  0  0  0  0
  155.5480  213.5710  157.1620 C   0  0  0  0  0  2  0  0  0  0  0  0
  156.2470  213.6120  154.4620 C   0  0  1  0  0  3  0  0  0  0  0  0
  1  3  1  0  0  0  0
  1 20  1  0  0  0  0
  2  6  2  0  0  0  0
  2  5  1  0  0  0  0
  3 44  1  0  0  0  0
  4  3  2  0  0  0  0
  5  1  2  0  0  0  0
  6  4  1  0  0  0  0
  7  2  1  0  0  0  0
  8  7  1  0  0  0  0
  9  8  1  0  0  0  0
 10  9  1  0  0  0  0
 11 15  1  1  0  0  0
 11 10  1  0  0  0  0
 13 11  1  0  0  0  0
 13 12  1  0  0  0  0
 14 13  2  0  0  0  0
 16 17  1  1  0  0  0
 16 15  1  0  0  0  0
 18 16  1  0  0  0  0
 19 18  1  0  0  0  0
 20 22  1  0  0  0  0
 21 22  2  0  0  0  0
 22 24  1  0  0  0  0
 23 43  1  0  0  0  0
 24 23  2  0  0  0  0
 25 29  1  6  0  0  0
 26 28  1  0  0  0  0
 26 27  1  0  0  0  0
 27 23  1  1  0  0  0
 27 25  1  0  0  0  0
 28 25  1  0  0  0  0
 30 31  1  0  0  0  0
 32 30  2  0  0  0  0
 33 34  1  0  0  0  0
 34 29  1  0  0  0  0
 34 31  2  0  0  0  0
 35 33  2  0  0  0  0
 35 32  1  0  0  0  0
 36 32  1  0  0  0  0
 37 36  1  0  0  0  0
 38 37  1  0  0  0  0
 39 38  1  0  0  0  0
 40 41  1  0  0  0  0
 41 39  1  0  0  0  0
 42 43  1  0  0  0  0
 44 45  1  0  0  0  0
 45 46  2  0  0  0  0
 46 47  1  0  0  0  0
 47 50  1  0  0  0  0
 49 48  2  0  0  0  0
 50 48  1  0  0  0  0
 51 54  1  0  0  0  0
 52 55  1  0  0  0  0
 54 56  1  0  0  0  0
 54 53  1  6  0  0  0
 55 56  1  0  0  0  0
 57 48  1  6  0  0  0
 57 52  1  0  0  0  0
 57 51  1  0  0  0  0
M  END
>  <MODEL>
2

>  <REMARK>
 VINA RESULT:      -4.2      4.069     11.974
  Name = 
  26 active torsions:
  status: ('A' for Active; 'I' for Inactive)
    1  A    between atoms: C_1  and  C_14
    2  A    between atoms: C_2  and  C_38
    3  A    between atoms: C_2  and  C_51
    4  A    between atoms: C_3  and  N_45
    5  A    between atoms: C_4  and  C_39
    6  A    between atoms: C_7  and  C_15
    7  A    between atoms: C_8  and  C_40
    8  A    between atoms: C_8  and  C_47
    9  A    between atoms: C_9  and  C_43
   10  A    between atoms: N_10  and  N_13
   11  A    between atoms: N_10  and  N_33
   12  A    between atoms: C_11  and  C_18
   13  A    between atoms: C_11  and  C_23
   14  A    between atoms: N_13  and  C_23
   15  A    between atoms: C_14  and  C_52
   16  A    between atoms: C_15  and  N_33
   17  A    between atoms: C_18  and  C_19
   18  A    between atoms: C_22  and  C_56
   19  A    between atoms: C_23  and  C_31
   20  A    between atoms: S_24  and  C_37
   21  A    between atoms: S_24  and  C_40
   22  A    between atoms: C_28  and  N_45
   23  A    between atoms: C_34  and  C_39
   24  A    between atoms: C_34  and  N_53
   25  A    between atoms: C_35  and  C_47
   26  A    between atoms: N_36  and  C_43
                            x       y       z     vdW  Elec       q    Type
                         _______ _______ _______ _____ _____    ______ ____

>  <TORSDO>
F 26

$$$$
=
 OpenBabel11052410173D

 57 60  0  0  1  0  0  0  0  0999 V2000
  162.0100  205.9350  147.3120 C   0  0  0  0  0  0  0  0  0  0  0  0
  161.7690  204.9820  145.1370 C   0  0  0  0  0  0  0  0  0  0  0  0
  161.3040  204.8490  147.8790 C   0  0  0  0  0  0  0  0  0  0  0  0
  160.8540  203.8300  147.0370 C   0  0  0  0  0  3  0  0  0  0  0  0
  162.2300  205.9550  145.9650 N   0  0  0  0  0  0  0  0  0  0  0  0
  161.0760  203.8940  145.6620 C   0  0  0  0  0  3  0  0  0  0  0  0
  162.0150  205.0680  143.6680 C   0  0  0  0  0  2  0  0  0  0  0  0
  161.5460  206.3500  143.1590 N   0  0  0  0  0  2  0  0  0  0  0  0
  161.4840  206.2480  141.7610 N   0  0  0  0  0  2  0  0  0  0  0  0
  162.4720  207.0970  141.2480 N   0  0  0  0  0  2  0  0  0  0  0  0
  161.8650  207.8380  140.1520 C   0  0  2  0  0  3  0  0  0  0  0  0
  162.5670  205.9500  138.8530 O   0  0  0  0  0  1  0  0  0  0  0  0
  161.9320  207.0390  138.8890 C   0  0  0  0  0  0  0  0  0  0  0  0
  161.3120  207.5160  137.7410 O   0  0  0  0  0  0  0  0  0  0  0  0
  162.5690  209.1820  139.9970 C   0  0  0  0  0  2  0  0  0  0  0  0
  161.6320  210.3540  140.2800 C   0  0  2  0  0  3  0  0  0  0  0  0
  160.3170  209.9590  140.0910 F   0  0  0  0  0  0  0  0  0  0  0  0
  161.9480  211.5780  139.4200 C   0  0  0  0  0  2  0  0  0  0  0  0
  162.3300  211.1900  137.9990 C   0  0  0  0  0  1  0  0  0  0  0  0
  162.6550  206.9840  148.1710 C   0  0  0  0  0  2  0  0  0  0  0  0
  160.9070  208.4640  147.5170 O   0  0  0  0  0  0  0  0  0  0  0  0
  161.7520  208.1500  148.3980 C   0  0  0  0  0  0  0  0  0  0  0  0
  161.8720  210.2400  149.6990 C   0  0  0  0  0  0  0  0  0  0  0  0
  161.9300  208.9400  149.5860 N   0  0  0  0  0  0  0  0  0  0  0  0
  161.3470  212.5450  149.0070 C   0  0  1  0  0  3  0  0  0  0  0  0
  162.6740  211.5580  147.7820 N   0  0  0  0  0  2  0  0  0  0  0  0
  161.4980  211.1330  148.5340 C   0  0  1  0  0  3  0  0  0  0  0  0
  162.5360  212.8850  148.2350 N   0  0  0  0  0  2  0  0  0  0  0  0
  160.1260  213.1880  148.3680 C   0  0  0  0  0  2  0  0  0  0  0  0
  161.3870  214.4530  145.0300 C   0  0  0  0  0  3  0  0  0  0  0  0
  161.1660  214.3350  146.4060 C   0  0  0  0  0  3  0  0  0  0  0  0
  160.7730  213.5610  144.1430 C   0  0  0  0  0  0  0  0  0  0  0  0
  159.7110  212.4360  146.0090 C   0  0  0  0  0  3  0  0  0  0  0  0
  160.3270  213.3290  146.8980 C   0  0  0  0  0  0  0  0  0  0  0  0
  159.9360  212.5520  144.6330 C   0  0  0  0  0  3  0  0  0  0  0  0
  161.0970  213.6800  142.3890 S   0  0  0  0  0  0  0  0  0  0  0  0
  159.5220  212.8810  141.9510 C   0  0  0  0  0  2  0  0  0  0  0  0
  158.9690  213.5310  140.7030 C   0  0  0  0  0  2  0  0  0  0  0  0
  157.8970  212.6410  140.1000 C   0  0  0  0  0  2  0  0  0  0  0  0
  157.2660  211.3320  138.0920 C   0  0  0  0  0  1  0  0  0  0  0  0
  158.3970  212.0610  138.7940 C   0  0  0  0  0  2  0  0  0  0  0  0
  162.8670  209.9050  151.8710 N   0  0  0  0  0  1  0  0  0  0  0  0
  162.0990  210.8310  151.0560 C   0  0  0  0  0  2  0  0  0  0  0  0
  161.0620  204.7140  149.2850 N   0  0  0  0  0  0  0  0  0  0  0  0
  162.0300  204.2670  150.2360 C   0  0  0  0  0  3  0  0  0  0  0  0
  161.8280  204.3860  151.5430 C   0  0  0  0  0  2  0  0  0  0  0  0
  160.5770  204.9780  152.1180 C   0  0  0  0  0  2  0  0  0  0  0  0
  160.9140  207.1250  153.4410 C   0  0  0  0  0  0  0  0  0  0  0  0
  160.6800  207.8280  152.4190 O   0  0  0  0  0  0  0  0  0  0  0  0
  160.8700  205.6970  153.3540 N   0  0  0  0  0  2  0  0  0  0  0  0
  160.8520  209.2970  154.7350 C   0  0  0  0  0  2  0  0  0  0  0  0
  160.3570  207.1150  155.9060 C   0  0  0  0  0  2  0  0  0  0  0  0
  162.7000  210.5510  155.8600 C   0  0  0  0  0  1  0  0  0  0  0  0
  161.3060  209.9800  156.0370 C   0  0  2  0  0  3  0  0  0  0  0  0
  160.1680  208.0120  157.1390 C   0  0  0  0  0  2  0  0  0  0  0  0
  161.2880  209.0480  157.2570 C   0  0  0  0  0  2  0  0  0  0  0  0
  161.1450  207.7940  154.7700 C   0  0  1  0  0  3  0  0  0  0  0  0
  1  3  1  0  0  0  0
  1 20  1  0  0  0  0
  2  6  2  0  0  0  0
  2  5  1  0  0  0  0
  3 44  1  0  0  0  0
  4  3  2  0  0  0  0
  5  1  2  0  0  0  0
  6  4  1  0  0  0  0
  7  2  1  0  0  0  0
  8  7  1  0  0  0  0
  9  8  1  0  0  0  0
 10  9  1  0  0  0  0
 11 15  1  6  0  0  0
 11 10  1  0  0  0  0
 12 13  1  0  0  0  0
 13 11  1  0  0  0  0
 14 13  2  0  0  0  0
 15 16  1  0  0  0  0
 16 17  1  6  0  0  0
 18 16  1  0  0  0  0
 19 18  1  0  0  0  0
 20 22  1  0  0  0  0
 21 22  2  0  0  0  0
 22 24  1  0  0  0  0
 23 43  1  0  0  0  0
 24 23  2  0  0  0  0
 25 29  1  6  0  0  0
 26 28  1  0  0  0  0
 26 27  1  0  0  0  0
 27 25  1  0  0  0  0
 27 23  1  1  0  0  0
 28 25  1  0  0  0  0
 30 31  1  0  0  0  0
 31 34  2  0  0  0  0
 32 35  1  0  0  0  0
 32 30  2  0  0  0  0
 33 34  1  0  0  0  0
 34 29  1  0  0  0  0
 35 33  2  0  0  0  0
 36 32  1  0  0  0  0
 37 36  1  0  0  0  0
 38 37  1  0  0  0  0
 39 38  1  0  0  0  0
 40 41  1  0  0  0  0
 41 39  1  0  0  0  0
 43 42  1  0  0  0  0
 44 45  2  0  0  0  0
 45 46  1  0  0  0  0
 46 47  1  0  0  0  0
 47 50  1  0  0  0  0
 49 48  2  0  0  0  0
 50 48  1  0  0  0  0
 51 57  1  0  0  0  0
 51 54  1  0  0  0  0
 52 55  1  0  0  0  0
 54 53  1  6  0  0  0
 54 56  1  0  0  0  0
 55 56  1  0  0  0  0
 57 48  1  6  0  0  0
 57 52  1  0  0  0  0
M  END
>  <MODEL>
3

>  <REMARK>
 VINA RESULT:      -4.2      3.503      9.022
  Name = 
  26 active torsions:
  status: ('A' for Active; 'I' for Inactive)
    1  A    between atoms: C_1  and  C_14
    2  A    between atoms: C_2  and  C_38
    3  A    between atoms: C_2  and  C_51
    4  A    between atoms: C_3  and  N_45
    5  A    between atoms: C_4  and  C_39
    6  A    between atoms: C_7  and  C_15
    7  A    between atoms: C_8  and  C_40
    8  A    between atoms: C_8  and  C_47
    9  A    between atoms: C_9  and  C_43
   10  A    between atoms: N_10  and  N_13
   11  A    between atoms: N_10  and  N_33
   12  A    between atoms: C_11  and  C_18
   13  A    between atoms: C_11  and  C_23
   14  A    between atoms: N_13  and  C_23
   15  A    between atoms: C_14  and  C_52
   16  A    between atoms: C_15  and  N_33
   17  A    between atoms: C_18  and  C_19
   18  A    between atoms: C_22  and  C_56
   19  A    between atoms: C_23  and  C_31
   20  A    between atoms: S_24  and  C_37
   21  A    between atoms: S_24  and  C_40
   22  A    between atoms: C_28  and  N_45
   23  A    between atoms: C_34  and  C_39
   24  A    between atoms: C_34  and  N_53
   25  A    between atoms: C_35  and  C_47
   26  A    between atoms: N_36  and  C_43
                            x       y       z     vdW  Elec       q    Type
                         _______ _______ _______ _____ _____    ______ ____

>  <TORSDO>
F 26

$$$$
=
 OpenBabel11052410173D

 57 60  0  0  1  0  0  0  0  0999 V2000
  161.9770  212.4640  147.6370 C   0  0  0  0  0  0  0  0  0  0  0  0
  161.5820  213.1130  145.3750 C   0  0  0  0  0  0  0  0  0  0  0  0
  160.8010  213.1310  148.0480 C   0  0  0  0  0  0  0  0  0  0  0  0
  160.0230  213.7730  147.0810 C   0  0  0  0  0  3  0  0  0  0  0  0
  162.3170  212.4660  146.3160 N   0  0  0  0  0  0  0  0  0  0  0  0
  160.4130  213.7750  145.7420 C   0  0  0  0  0  3  0  0  0  0  0  0
  162.0150  213.1070  143.9470 C   0  0  0  0  0  2  0  0  0  0  0  0
  161.1010  212.2960  143.1530 N   0  0  0  0  0  2  0  0  0  0  0  0
  161.7660  211.9580  141.9650 N   0  0  0  0  0  2  0  0  0  0  0  0
  161.4450  212.9460  141.0250 N   0  0  0  0  0  2  0  0  0  0  0  0
  161.3920  212.2910  139.7260 C   0  0  2  0  0  3  0  0  0  0  0  0
  162.0540  213.1640  137.5940 O   0  0  0  0  0  0  0  0  0  0  0  0
  161.3580  213.3140  138.6350 C   0  0  0  0  0  0  0  0  0  0  0  0
  160.5720  214.4490  138.7820 O   0  0  0  0  0  1  0  0  0  0  0  0
  160.1730  211.3770  139.6690 C   0  0  0  0  0  2  0  0  0  0  0  0
  160.5140  210.0050  139.0940 C   0  0  2  0  0  3  0  0  0  0  0  0
  161.3320  209.3170  139.9770 F   0  0  0  0  0  0  0  0  0  0  0  0
  161.1730  210.0930  137.7170 C   0  0  0  0  0  2  0  0  0  0  0  0
  162.0650  208.8920  137.4380 C   0  0  0  0  0  1  0  0  0  0  0  0
  162.7750  211.6250  148.5940 C   0  0  0  0  0  2  0  0  0  0  0  0
  161.5370  209.6220  148.2340 O   0  0  0  0  0  0  0  0  0  0  0  0
  162.0030  210.4400  149.0720 C   0  0  0  0  0  0  0  0  0  0  0  0
  161.7150  209.2150  151.1900 C   0  0  0  0  0  0  0  0  0  0  0  0
  161.7390  210.3090  150.4780 N   0  0  0  0  0  0  0  0  0  0  0  0
  161.0930  206.8350  151.0670 C   0  0  1  0  0  3  0  0  0  0  0  0
  161.5370  207.7050  149.2560 N   0  0  0  0  0  2  0  0  0  0  0  0
  162.0740  207.8650  150.6030 C   0  0  1  0  0  3  0  0  0  0  0  0
  160.6080  206.7410  149.6960 N   0  0  0  0  0  2  0  0  0  0  0  0
  161.8140  205.5490  151.4390 C   0  0  0  0  0  2  0  0  0  0  0  0
  160.6100  202.3320  149.8470 C   0  0  0  0  0  3  0  0  0  0  0  0
  160.8980  203.3130  150.8020 C   0  0  0  0  0  3  0  0  0  0  0  0
  160.9660  202.5320  148.5090 C   0  0  0  0  0  0  0  0  0  0  0  0
  161.9030  204.6930  149.0800 C   0  0  0  0  0  3  0  0  0  0  0  0
  161.5450  204.4940  150.4210 C   0  0  0  0  0  0  0  0  0  0  0  0
  161.6120  203.7140  148.1250 C   0  0  0  0  0  3  0  0  0  0  0  0
  160.5530  201.3010  147.2800 S   0  0  0  0  0  0  0  0  0  0  0  0
  159.9820  202.5510  146.0870 C   0  0  0  0  0  2  0  0  0  0  0  0
  161.1740  203.3280  145.5770 C   0  0  0  0  0  2  0  0  0  0  0  0
  160.7430  204.2210  144.4270 C   0  0  0  0  0  2  0  0  0  0  0  0
  160.8440  206.2060  145.9080 C   0  0  0  0  0  1  0  0  0  0  0  0
  161.3410  205.6010  144.6090 C   0  0  0  0  0  2  0  0  0  0  0  0
  161.0290  210.7110  152.9540 N   0  0  0  0  0  1  0  0  0  0  0  0
  161.4090  209.3410  152.6500 C   0  0  0  0  0  2  0  0  0  0  0  0
  160.3350  213.1480  149.4030 N   0  0  0  0  0  2  0  0  0  0  0  0
  160.1250  214.3320  150.1740 C   0  0  0  0  0  3  0  0  0  0  0  0
  159.0880  214.4530  150.9950 C   0  0  0  0  0  3  0  0  0  0  0  0
  158.0790  213.3620  151.1890 C   0  0  0  0  0  2  0  0  0  0  0  0
  158.5720  213.2010  153.6800 C   0  0  0  0  0  0  0  0  0  0  0  0
  158.4790  214.4520  153.8110 O   0  0  0  0  0  0  0  0  0  0  0  0
  158.3750  212.5970  152.3970 N   0  0  0  0  0  2  0  0  0  0  0  0
  159.2690  213.1390  156.1100 C   0  0  0  0  0  2  0  0  0  0  0  0
  157.5530  211.5000  155.2480 C   0  0  0  0  0  2  0  0  0  0  0  0
  161.1940  211.9750  157.2010 C   0  0  0  0  0  1  0  0  0  0  0  0
  159.6960  212.2060  157.2560 C   0  0  2  0  0  3  0  0  0  0  0  0
  157.5490  210.9970  156.6990 C   0  0  0  0  0  2  0  0  0  0  0  0
  158.9690  210.8530  157.2480 C   0  0  0  0  0  2  0  0  0  0  0  0
  158.7960  212.3380  154.8930 C   0  0  1  0  0  3  0  0  0  0  0  0
  1  3  1  0  0  0  0
  1 20  1  0  0  0  0
  2  6  2  0  0  0  0
  2  5  1  0  0  0  0
  3 44  1  0  0  0  0
  4  3  2  0  0  0  0
  5  1  2  0  0  0  0
  6  4  1  0  0  0  0
  7  2  1  0  0  0  0
  8  7  1  0  0  0  0
  9  8  1  0  0  0  0
 10  9  1  0  0  0  0
 11 15  1  1  0  0  0
 11 10  1  0  0  0  0
 12 13  2  0  0  0  0
 13 14  1  0  0  0  0
 13 11  1  0  0  0  0
 16 15  1  0  0  0  0
 16 17  1  1  0  0  0
 18 16  1  0  0  0  0
 19 18  1  0  0  0  0
 20 22  1  0  0  0  0
 21 22  2  0  0  0  0
 22 24  1  0  0  0  0
 23 43  1  0  0  0  0
 24 23  2  0  0  0  0
 25 29  1  6  0  0  0
 26 28  1  0  0  0  0
 26 27  1  0  0  0  0
 27 25  1  0  0  0  0
 27 23  1  1  0  0  0
 28 25  1  0  0  0  0
 30 31  1  0  0  0  0
 32 30  2  0  0  0  0
 33 34  1  0  0  0  0
 34 31  2  0  0  0  0
 34 29  1  0  0  0  0
 35 32  1  0  0  0  0
 35 33  2  0  0  0  0
 36 32  1  0  0  0  0
 37 36  1  0  0  0  0
 38 37  1  0  0  0  0
 39 41  1  0  0  0  0
 39 38  1  0  0  0  0
 41 40  1  0  0  0  0
 43 42  1  0  0  0  0
 44 45  1  0  0  0  0
 45 46  2  0  0  0  0
 46 47  1  0  0  0  0
 47 50  1  0  0  0  0
 48 49  2  0  0  0  0
 50 48  1  0  0  0  0
 51 54  1  0  0  0  0
 52 55  1  0  0  0  0
 54 53  1  6  0  0  0
 55 56  1  0  0  0  0
 56 54  1  0  0  0  0
 57 48  1  6  0  0  0
 57 52  1  0  0  0  0
 57 51  1  0  0  0  0
M  END
>  <MODEL>
4

>  <REMARK>
 VINA RESULT:      -3.7      3.915     11.391
  Name = 
  26 active torsions:
  status: ('A' for Active; 'I' for Inactive)
    1  A    between atoms: C_1  and  C_14
    2  A    between atoms: C_2  and  C_38
    3  A    between atoms: C_2  and  C_51
    4  A    between atoms: C_3  and  N_45
    5  A    between atoms: C_4  and  C_39
    6  A    between atoms: C_7  and  C_15
    7  A    between atoms: C_8  and  C_40
    8  A    between atoms: C_8  and  C_47
    9  A    between atoms: C_9  and  C_43
   10  A    between atoms: N_10  and  N_13
   11  A    between atoms: N_10  and  N_33
   12  A    between atoms: C_11  and  C_18
   13  A    between atoms: C_11  and  C_23
   14  A    between atoms: N_13  and  C_23
   15  A    between atoms: C_14  and  C_52
   16  A    between atoms: C_15  and  N_33
   17  A    between atoms: C_18  and  C_19
   18  A    between atoms: C_22  and  C_56
   19  A    between atoms: C_23  and  C_31
   20  A    between atoms: S_24  and  C_37
   21  A    between atoms: S_24  and  C_40
   22  A    between atoms: C_28  and  N_45
   23  A    between atoms: C_34  and  C_39
   24  A    between atoms: C_34  and  N_53
   25  A    between atoms: C_35  and  C_47
   26  A    between atoms: N_36  and  C_43
                            x       y       z     vdW  Elec       q    Type
                         _______ _______ _______ _____ _____    ______ ____

>  <TORSDO>
F 26

$$$$
=
 OpenBabel11052410173D

 57 60  0  0  1  0  0  0  0  0999 V2000
  161.3550  207.2340  151.6840 C   0  0  0  0  0  0  0  0  0  0  0  0
  161.7950  209.0950  150.2560 C   0  0  0  0  0  0  0  0  0  0  0  0
  161.6820  208.0110  152.8180 C   0  0  0  0  0  0  0  0  0  0  0  0
  162.0520  209.3450  152.6320 C   0  0  0  0  0  3  0  0  0  0  0  0
  161.4080  207.8070  150.4470 N   0  0  0  0  0  0  0  0  0  0  0  0
  162.1190  209.8920  151.3510 C   0  0  0  0  0  3  0  0  0  0  0  0
  161.8630  209.6620  148.8780 C   0  0  0  0  0  2  0  0  0  0  0  0
  162.0610  211.1050  148.9420 N   0  0  0  0  0  2  0  0  0  0  0  0
  161.1800  211.6890  148.0200 N   0  0  0  0  0  2  0  0  0  0  0  0
  161.8040  212.8470  147.5390 N   0  0  0  0  0  2  0  0  0  0  0  0
  160.9330  213.4020  146.5140 C   0  0  2  0  0  3  0  0  0  0  0  0
  158.5440  213.2010  146.4940 O   0  0  0  0  0  0  0  0  0  0  0  0
  159.5690  213.6510  147.0750 C   0  0  0  0  0  0  0  0  0  0  0  0
  159.4300  214.4050  148.2330 O   0  0  0  0  0  1  0  0  0  0  0  0
  160.8780  212.4480  145.3250 C   0  0  0  0  0  2  0  0  0  0  0  0
  160.2860  213.1140  144.0850 C   0  0  2  0  0  3  0  0  0  0  0  0
  159.2470  212.3420  143.5900 F   0  0  0  0  0  0  0  0  0  0  0  0
  161.3310  213.3600  142.9960 C   0  0  0  0  0  2  0  0  0  0  0  0
  161.4660  212.1670  142.0600 C   0  0  0  0  0  1  0  0  0  0  0  0
  160.8010  205.8450  151.8200 C   0  0  0  0  0  2  0  0  0  0  0  0
  163.0830  205.1790  151.9710 O   0  0  0  0  0  0  0  0  0  0  0  0
  161.8820  204.8160  151.8540 C   0  0  0  0  0  0  0  0  0  0  0  0
  160.9120  202.8990  150.6460 C   0  0  0  0  0  0  0  0  0  0  0  0
  161.5270  203.4360  151.6650 N   0  0  0  0  0  0  0  0  0  0  0  0
  161.7980  204.1670  148.7290 C   0  0  1  0  0  3  0  0  0  0  0  0
  160.2990  202.8360  148.2640 N   0  0  0  0  0  2  0  0  0  0  0  0
  160.5500  203.7010  149.4120 C   0  0  1  0  0  3  0  0  0  0  0  0
  161.4770  203.2700  147.6260 N   0  0  0  0  0  2  0  0  0  0  0  0
  161.6410  205.6090  148.2720 C   0  0  0  0  0  2  0  0  0  0  0  0
  162.5960  205.3730  144.6170 C   0  0  0  0  0  3  0  0  0  0  0  0
  162.6770  205.3500  146.0130 C   0  0  0  0  0  3  0  0  0  0  0  0
  161.3930  205.7170  143.9900 C   0  0  0  0  0  0  0  0  0  0  0  0
  160.3500  206.0180  146.1570 C   0  0  0  0  0  3  0  0  0  0  0  0
  161.5560  205.6730  146.7850 C   0  0  0  0  0  0  0  0  0  0  0  0
  160.2690  206.0380  144.7620 C   0  0  0  0  0  3  0  0  0  0  0  0
  161.2760  205.6970  142.2070 S   0  0  0  0  0  0  0  0  0  0  0  0
  162.8840  206.5220  142.0000 C   0  0  0  0  0  2  0  0  0  0  0  0
  163.0380  206.9510  140.5590 C   0  0  0  0  0  2  0  0  0  0  0  0
  161.6690  207.2340  139.9650 C   0  0  0  0  0  2  0  0  0  0  0  0
  160.5860  208.2210  137.9660 C   0  0  0  0  0  1  0  0  0  0  0  0
  161.8040  207.4740  138.4760 C   0  0  0  0  0  2  0  0  0  0  0  0
  161.4270  200.7620  149.6520 N   0  0  0  0  0  1  0  0  0  0  0  0
  160.6510  201.4260  150.6880 C   0  0  0  0  0  2  0  0  0  0  0  0
  161.6130  207.5150  154.1610 N   0  0  0  0  0  2  0  0  0  0  0  0
  160.4190  207.0530  154.7950 C   0  0  0  0  0  3  0  0  0  0  0  0
  159.7680  207.7990  155.6810 C   0  0  0  0  0  3  0  0  0  0  0  0
  160.2210  209.1740  156.0680 C   0  0  0  0  0  2  0  0  0  0  0  0
  159.6070  211.5870  155.5450 C   0  0  0  0  0  0  0  0  0  0  0  0
  160.6900  212.0030  156.0420 O   0  0  0  0  0  0  0  0  0  0  0  0
  159.3200  210.1850  155.5230 N   0  0  0  0  0  2  0  0  0  0  0  0
  158.4330  212.2570  153.4080 C   0  0  0  0  0  2  0  0  0  0  0  0
  157.3180  212.6570  155.6380 C   0  0  0  0  0  2  0  0  0  0  0  0
  158.6060  214.3620  152.0700 C   0  0  0  0  0  1  0  0  0  0  0  0
  157.6450  213.3880  152.7250 C   0  0  2  0  0  3  0  0  0  0  0  0
  156.1820  213.2310  154.7780 C   0  0  0  0  0  2  0  0  0  0  0  0
  156.7180  214.1530  153.6820 C   0  0  0  0  0  2  0  0  0  0  0  0
  158.6620  212.5610  154.8920 C   0  0  1  0  0  3  0  0  0  0  0  0
  1 20  1  0  0  0  0
  1  3  1  0  0  0  0
  2  5  1  0  0  0  0
  2  6  2  0  0  0  0
  3 44  1  0  0  0  0
  4  3  2  0  0  0  0
  5  1  2  0  0  0  0
  6  4  1  0  0  0  0
  7  8  1  0  0  0  0
  7  2  1  0  0  0  0
  9  8  1  0  0  0  0
 10  9  1  0  0  0  0
 11 15  1  6  0  0  0
 11 13  1  0  0  0  0
 11 10  1  0  0  0  0
 12 13  2  0  0  0  0
 13 14  1  0  0  0  0
 16 17  1  6  0  0  0
 16 15  1  0  0  0  0
 18 16  1  0  0  0  0
 19 18  1  0  0  0  0
 20 22  1  0  0  0  0
 22 21  2  0  0  0  0
 23 43  1  0  0  0  0
 23 24  2  0  0  0  0
 24 22  1  0  0  0  0
 25 29  1  6  0  0  0
 25 27  1  0  0  0  0
 26 27  1  0  0  0  0
 27 23  1  1  0  0  0
 28 26  1  0  0  0  0
 28 25  1  0  0  0  0
 30 31  1  0  0  0  0
 31 34  2  0  0  0  0
 32 30  2  0  0  0  0
 32 35  1  0  0  0  0
 33 34  1  0  0  0  0
 34 29  1  0  0  0  0
 35 33  2  0  0  0  0
 36 32  1  0  0  0  0
 37 36  1  0  0  0  0
 38 37  1  0  0  0  0
 39 38  1  0  0  0  0
 40 41  1  0  0  0  0
 41 39  1  0  0  0  0
 42 43  1  0  0  0  0
 44 45  1  0  0  0  0
 45 46  2  0  0  0  0
 46 47  1  0  0  0  0
 48 49  2  0  0  0  0
 50 48  1  0  0  0  0
 50 47  1  0  0  0  0
 51 57  1  0  0  0  0
 54 53  1  1  0  0  0
 54 51  1  0  0  0  0
 54 56  1  0  0  0  0
 55 52  1  0  0  0  0
 56 55  1  0  0  0  0
 57 48  1  1  0  0  0
 57 52  1  0  0  0  0
M  END
>  <MODEL>
5

>  <REMARK>
 VINA RESULT:      -3.4      2.844      9.305
  Name = 
  26 active torsions:
  status: ('A' for Active; 'I' for Inactive)
    1  A    between atoms: C_1  and  C_14
    2  A    between atoms: C_2  and  C_38
    3  A    between atoms: C_2  and  C_51
    4  A    between atoms: C_3  and  N_45
    5  A    between atoms: C_4  and  C_39
    6  A    between atoms: C_7  and  C_15
    7  A    between atoms: C_8  and  C_40
    8  A    between atoms: C_8  and  C_47
    9  A    between atoms: C_9  and  C_43
   10  A    between atoms: N_10  and  N_13
   11  A    between atoms: N_10  and  N_33
   12  A    between atoms: C_11  and  C_18
   13  A    between atoms: C_11  and  C_23
   14  A    between atoms: N_13  and  C_23
   15  A    between atoms: C_14  and  C_52
   16  A    between atoms: C_15  and  N_33
   17  A    between atoms: C_18  and  C_19
   18  A    between atoms: C_22  and  C_56
   19  A    between atoms: C_23  and  C_31
   20  A    between atoms: S_24  and  C_37
   21  A    between atoms: S_24  and  C_40
   22  A    between atoms: C_28  and  N_45
   23  A    between atoms: C_34  and  C_39
   24  A    between atoms: C_34  and  N_53
   25  A    between atoms: C_35  and  C_47
   26  A    between atoms: N_36  and  C_43
                            x       y       z     vdW  Elec       q    Type
                         _______ _______ _______ _____ _____    ______ ____

>  <TORSDO>
F 26

$$$$
=
 OpenBabel11052410173D

 57 60  0  0  1  0  0  0  0  0999 V2000
  161.5090  207.1060  147.5500 C   0  0  0  0  0  0  0  0  0  0  0  0
  162.3050  205.8610  145.6760 C   0  0  0  0  0  0  0  0  0  0  0  0
  161.9050  206.0680  148.4230 C   0  0  0  0  0  0  0  0  0  0  0  0
  162.5170  204.9350  147.8830 C   0  0  0  0  0  3  0  0  0  0  0  0
  161.7370  206.9730  146.2110 N   0  0  0  0  0  0  0  0  0  0  0  0
  162.7130  204.8210  146.5070 C   0  0  0  0  0  3  0  0  0  0  0  0
  162.5050  205.7560  144.2010 C   0  0  0  0  0  2  0  0  0  0  0  0
  161.2150  205.7230  143.5240 N   0  0  0  0  0  2  0  0  0  0  0  0
  161.2210  206.7450  142.5630 N   0  0  0  0  0  2  0  0  0  0  0  0
  162.0960  206.3420  141.5470 N   0  0  0  0  0  2  0  0  0  0  0  0
  161.8140  207.1790  140.3900 C   0  0  2  0  0  3  0  0  0  0  0  0
  163.2530  205.6710  139.2070 O   0  0  0  0  0  1  0  0  0  0  0  0
  162.3330  206.5310  139.1460 C   0  0  0  0  0  0  0  0  0  0  0  0
  161.8140  206.9000  137.9110 O   0  0  0  0  0  0  0  0  0  0  0  0
  162.4320  208.5570  140.5980 C   0  0  0  0  0  2  0  0  0  0  0  0
  161.5250  209.6740  140.0880 C   0  0  2  0  0  3  0  0  0  0  0  0
  161.0970  209.3800  138.8030 F   0  0  0  0  0  0  0  0  0  0  0  0
  162.2050  211.0430  140.1200 C   0  0  0  0  0  2  0  0  0  0  0  0
  162.2940  211.5980  141.5350 C   0  0  0  0  0  1  0  0  0  0  0  0
  160.9890  208.4140  148.0740 C   0  0  0  0  0  2  0  0  0  0  0  0
  162.0470  208.6440  150.1960 O   0  0  0  0  0  0  0  0  0  0  0  0
  161.9550  209.0620  149.0100 C   0  0  0  0  0  0  0  0  0  0  0  0
  162.2730  211.4330  148.4190 C   0  0  0  0  0  0  0  0  0  0  0  0
  162.6970  210.2050  148.5550 N   0  0  0  0  0  0  0  0  0  0  0  0
  160.9270  212.5010  150.1840 C   0  0  1  0  0  3  0  0  0  0  0  0
  160.5170  213.1500  148.2740 N   0  0  0  0  0  2  0  0  0  0  0  0
  160.8780  211.8520  148.8350 C   0  0  1  0  0  3  0  0  0  0  0  0
  160.5710  213.7610  149.5430 N   0  0  0  0  0  2  0  0  0  0  0  0
  159.7660  212.0230  151.0420 C   0  0  0  0  0  2  0  0  0  0  0  0
  160.1400  212.1290  154.8070 C   0  0  0  0  0  3  0  0  0  0  0  0
  159.7280  212.4360  153.5060 C   0  0  0  0  0  3  0  0  0  0  0  0
  161.0600  211.0970  155.0260 C   0  0  0  0  0  0  0  0  0  0  0  0
  161.1600  210.6800  152.6410 C   0  0  0  0  0  3  0  0  0  0  0  0
  160.2380  211.7130  152.4210 C   0  0  0  0  0  0  0  0  0  0  0  0
  161.5680  210.3720  153.9420 C   0  0  0  0  0  3  0  0  0  0  0  0
  161.5460  210.6720  156.6930 S   0  0  0  0  0  0  0  0  0  0  0  0
  160.2450  209.4090  156.8480 C   0  0  0  0  0  2  0  0  0  0  0  0
  160.8760  208.0980  157.2580 C   0  0  0  0  0  2  0  0  0  0  0  0
  160.2840  206.9700  156.4310 C   0  0  0  0  0  2  0  0  0  0  0  0
  160.9430  206.6010  154.0710 C   0  0  0  0  0  1  0  0  0  0  0  0
  160.0890  207.4370  155.0040 C   0  0  0  0  0  2  0  0  0  0  0  0
  162.8750  212.8650  146.5730 N   0  0  0  0  0  1  0  0  0  0  0  0
  163.2460  212.4540  147.9170 C   0  0  0  0  0  2  0  0  0  0  0  0
  161.7500  206.1320  149.8470 N   0  0  0  0  0  2  0  0  0  0  0  0
  160.5430  205.8240  150.5460 C   0  0  0  0  0  3  0  0  0  0  0  0
  160.2750  204.5910  150.9600 C   0  0  0  0  0  3  0  0  0  0  0  0
  161.2130  203.4430  150.7420 C   0  0  0  0  0  2  0  0  0  0  0  0
  160.9130  201.4710  149.1610 C   0  0  0  0  0  0  0  0  0  0  0  0
  160.9530  200.6550  150.1230 O   0  0  0  0  0  0  0  0  0  0  0  0
  161.0300  202.8770  149.4090 N   0  0  0  0  0  2  0  0  0  0  0  0
  160.9360  202.0260  146.6940 C   0  0  0  0  0  2  0  0  0  0  0  0
  161.4110  199.6680  147.4620 C   0  0  0  0  0  2  0  0  0  0  0  0
  159.0580  202.1010  145.0460 C   0  0  0  0  0  1  0  0  0  0  0  0
  160.4490  201.5590  145.3120 C   0  0  2  0  0  3  0  0  0  0  0  0
  161.5670  199.3880  145.9590 C   0  0  0  0  0  2  0  0  0  0  0  0
  160.4420  200.0320  145.1480 C   0  0  0  0  0  2  0  0  0  0  0  0
  160.6480  200.9700  147.7660 C   0  0  1  0  0  3  0  0  0  0  0  0
  1 20  1  0  0  0  0
  1  3  1  0  0  0  0
  2  5  1  0  0  0  0
  2  6  2  0  0  0  0
  3 44  1  0  0  0  0
  4  3  2  0  0  0  0
  5  1  2  0  0  0  0
  6  4  1  0  0  0  0
  7  2  1  0  0  0  0
  8  7  1  0  0  0  0
  9  8  1  0  0  0  0
 10  9  1  0  0  0  0
 11 15  1  1  0  0  0
 11 10  1  0  0  0  0
 13 12  1  0  0  0  0
 13 11  1  0  0  0  0
 14 13  2  0  0  0  0
 16 17  1  6  0  0  0
 16 18  1  0  0  0  0
 16 15  1  0  0  0  0
 18 19  1  0  0  0  0
 20 22  1  0  0  0  0
 22 21  2  0  0  0  0
 23 24  2  0  0  0  0
 24 22  1  0  0  0  0
 25 29  1  1  0  0  0
 26 27  1  0  0  0  0
 26 28  1  0  0  0  0
 27 23  1  6  0  0  0
 27 25  1  0  0  0  0
 28 25  1  0  0  0  0
 29 34  1  0  0  0  0
 30 32  1  0  0  0  0
 31 30  2  0  0  0  0
 32 36  1  0  0  0  0
 33 35  1  0  0  0  0
 34 33  2  0  0  0  0
 34 31  1  0  0  0  0
 35 32  2  0  0  0  0
 36 37  1  0  0  0  0
 37 38  1  0  0  0  0
 39 38  1  0  0  0  0
 40 41  1  0  0  0  0
 41 39  1  0  0  0  0
 42 43  1  0  0  0  0
 43 23  1  0  0  0  0
 44 45  1  0  0  0  0
 45 46  2  0  0  0  0
 47 46  1  0  0  0  0
 48 50  1  0  0  0  0
 48 49  2  0  0  0  0
 50 47  1  0  0  0  0
 51 57  1  0  0  0  0
 52 57  1  0  0  0  0
 54 53  1  1  0  0  0
 54 51  1  0  0  0  0
 55 52  1  0  0  0  0
 56 54  1  0  0  0  0
 56 55  1  0  0  0  0
 57 48  1  1  0  0  0
M  END
>  <MODEL>
6

>  <REMARK>
 VINA RESULT:      -2.8      4.233     10.714
  Name = 
  26 active torsions:
  status: ('A' for Active; 'I' for Inactive)
    1  A    between atoms: C_1  and  C_14
    2  A    between atoms: C_2  and  C_38
    3  A    between atoms: C_2  and  C_51
    4  A    between atoms: C_3  and  N_45
    5  A    between atoms: C_4  and  C_39
    6  A    between atoms: C_7  and  C_15
    7  A    between atoms: C_8  and  C_40
    8  A    between atoms: C_8  and  C_47
    9  A    between atoms: C_9  and  C_43
   10  A    between atoms: N_10  and  N_13
   11  A    between atoms: N_10  and  N_33
   12  A    between atoms: C_11  and  C_18
   13  A    between atoms: C_11  and  C_23
   14  A    between atoms: N_13  and  C_23
   15  A    between atoms: C_14  and  C_52
   16  A    between atoms: C_15  and  N_33
   17  A    between atoms: C_18  and  C_19
   18  A    between atoms: C_22  and  C_56
   19  A    between atoms: C_23  and  C_31
   20  A    between atoms: S_24  and  C_37
   21  A    between atoms: S_24  and  C_40
   22  A    between atoms: C_28  and  N_45
   23  A    between atoms: C_34  and  C_39
   24  A    between atoms: C_34  and  N_53
   25  A    between atoms: C_35  and  C_47
   26  A    between atoms: N_36  and  C_43
                            x       y       z     vdW  Elec       q    Type
                         _______ _______ _______ _____ _____    ______ ____

>  <TORSDO>
F 26

$$$$
=
 OpenBabel11052410173D

 57 60  0  0  1  0  0  0  0  0999 V2000
  161.1620  211.9450  149.5430 C   0  0  0  0  0  0  0  0  0  0  0  0
  159.5230  213.1520  150.7880 C   0  0  0  0  0  0  0  0  0  0  0  0
  161.0960  212.9020  148.5040 C   0  0  0  0  0  0  0  0  0  0  0  0
  160.2320  213.9900  148.6510 C   0  0  0  0  0  3  0  0  0  0  0  0
  160.3860  212.1120  150.6530 N   0  0  0  0  0  0  0  0  0  0  0  0
  159.4350  214.1170  149.7890 C   0  0  0  0  0  3  0  0  0  0  0  0
  158.6770  213.2700  152.0120 C   0  0  0  0  0  2  0  0  0  0  0  0
  159.3620  214.0740  153.0160 N   0  0  0  0  0  2  0  0  0  0  0  0
  159.3900  213.3270  154.2020 N   0  0  0  0  0  2  0  0  0  0  0  0
  159.0460  214.2020  155.2410 N   0  0  0  0  0  2  0  0  0  0  0  0
  158.1800  213.4620  156.1470 C   0  0  2  0  0  3  0  0  0  0  0  0
  158.1830  211.1880  156.9060 O   0  0  0  0  0  1  0  0  0  0  0  0
  158.8580  212.2090  156.6010 C   0  0  0  0  0  0  0  0  0  0  0  0
  160.2430  212.1780  156.7100 O   0  0  0  0  0  0  0  0  0  0  0  0
  156.8590  213.1560  155.4480 C   0  0  0  0  0  2  0  0  0  0  0  0
  155.8840  214.3290  155.5310 C   0  0  2  0  0  3  0  0  0  0  0  0
  155.4070  214.4510  156.8260 F   0  0  0  0  0  0  0  0  0  0  0  0
  154.7210  214.1950  154.5470 C   0  0  0  0  0  2  0  0  0  0  0  0
  155.1140  213.3990  153.3100 C   0  0  0  0  0  1  0  0  0  0  0  0
  162.1770  210.8380  149.5230 C   0  0  0  0  0  2  0  0  0  0  0  0
  161.3020  208.8940  150.5850 O   0  0  0  0  0  0  0  0  0  0  0  0
  162.0240  209.9220  150.6910 C   0  0  0  0  0  0  0  0  0  0  0  0
  162.2280  210.0050  153.1450 C   0  0  0  0  0  0  0  0  0  0  0  0
  162.6400  210.2830  151.9380 N   0  0  0  0  0  0  0  0  0  0  0  0
  161.1420  208.4690  154.7360 C   0  0  1  0  0  3  0  0  0  0  0  0
  159.9010  209.9040  153.9390 N   0  0  0  0  0  2  0  0  0  0  0  0
  161.0160  209.1320  153.4000 C   0  0  1  0  0  3  0  0  0  0  0  0
  160.0270  209.2850  155.1980 N   0  0  0  0  0  2  0  0  0  0  0  0
  160.7050  207.0150  154.6470 C   0  0  0  0  0  2  0  0  0  0  0  0
  162.0120  204.8740  151.8120 C   0  0  0  0  0  3  0  0  0  0  0  0
  161.8060  205.3980  153.0920 C   0  0  0  0  0  3  0  0  0  0  0  0
  161.3570  205.4380  150.7110 C   0  0  0  0  0  0  0  0  0  0  0  0
  160.2920  207.0520  152.1700 C   0  0  0  0  0  3  0  0  0  0  0  0
  160.9470  206.4870  153.2740 C   0  0  0  0  0  0  0  0  0  0  0  0
  160.4960  206.5260  150.8910 C   0  0  0  0  0  3  0  0  0  0  0  0
  161.5810  204.7360  149.0820 S   0  0  0  0  0  0  0  0  0  0  0  0
  161.4930  203.0290  149.7050 C   0  0  0  0  0  2  0  0  0  0  0  0
  160.4360  202.2740  148.9310 C   0  0  0  0  0  2  0  0  0  0  0  0
  160.8580  200.8240  148.7770 C   0  0  0  0  0  2  0  0  0  0  0  0
  160.8350  201.6630  146.4450 C   0  0  0  0  0  1  0  0  0  0  0  0
  161.3810  200.5950  147.3750 C   0  0  0  0  0  2  0  0  0  0  0  0
  164.3790  210.8580  153.8250 N   0  0  0  0  0  1  0  0  0  0  0  0
  163.0500  210.5020  154.2940 C   0  0  0  0  0  2  0  0  0  0  0  0
  161.9020  212.8400  147.3210 N   0  0  0  0  0  2  0  0  0  0  0  0
  162.0720  213.9180  146.3980 C   0  0  0  0  0  3  0  0  0  0  0  0
  161.4200  213.9520  145.2420 C   0  0  0  0  0  3  0  0  0  0  0  0
  160.4540  212.8840  144.8260 C   0  0  0  0  0  2  0  0  0  0  0  0
  160.1260  212.3930  142.3510 C   0  0  0  0  0  0  0  0  0  0  0  0
  159.0550  213.0590  142.3290 O   0  0  0  0  0  0  0  0  0  0  0  0
  160.8730  212.2750  143.5660 N   0  0  0  0  0  2  0  0  0  0  0  0
  160.4470  212.7140  139.8630 C   0  0  0  0  0  2  0  0  0  0  0  0
  162.1480  211.4100  141.1970 C   0  0  0  0  0  2  0  0  0  0  0  0
  159.5600  211.3820  137.9420 C   0  0  0  0  0  1  0  0  0  0  0  0
  160.8070  211.9920  138.5540 C   0  0  2  0  0  3  0  0  0  0  0  0
  162.8570  211.2700  139.8410 C   0  0  0  0  0  2  0  0  0  0  0  0
  161.8740  210.9010  138.7290 C   0  0  0  0  0  2  0  0  0  0  0  0
  160.6640  211.8020  141.0740 C   0  0  1  0  0  3  0  0  0  0  0  0
  1  5  1  0  0  0  0
  2  7  1  0  0  0  0
  3  4  1  0  0  0  0
  3  1  2  0  0  0  0
  4  6  2  0  0  0  0
  5  2  2  0  0  0  0
  6  2  1  0  0  0  0
  7  8  1  0  0  0  0
  8  9  1  0  0  0  0
  9 10  1  0  0  0  0
 10 11  1  0  0  0  0
 11 15  1  6  0  0  0
 11 13  1  0  0  0  0
 13 14  2  0  0  0  0
 13 12  1  0  0  0  0
 15 16  1  0  0  0  0
 16 17  1  1  0  0  0
 18 16  1  0  0  0  0
 19 18  1  0  0  0  0
 20  1  1  0  0  0  0
 20 22  1  0  0  0  0
 21 22  2  0  0  0  0
 22 24  1  0  0  0  0
 23 43  1  0  0  0  0
 24 23  2  0  0  0  0
 25 29  1  6  0  0  0
 25 28  1  0  0  0  0
 26 28  1  0  0  0  0
 27 23  1  1  0  0  0
 27 26  1  0  0  0  0
 27 25  1  0  0  0  0
 30 31  1  0  0  0  0
 31 34  2  0  0  0  0
 32 35  1  0  0  0  0
 32 30  2  0  0  0  0
 33 34  1  0  0  0  0
 34 29  1  0  0  0  0
 35 33  2  0  0  0  0
 36 37  1  0  0  0  0
 36 32  1  0  0  0  0
 38 37  1  0  0  0  0
 39 38  1  0  0  0  0
 40 41  1  0  0  0  0
 41 39  1  0  0  0  0
 42 43  1  0  0  0  0
 44  3  1  0  0  0  0
 45 44  1  0  0  0  0
 46 45  2  0  0  0  0
 47 46  1  0  0  0  0
 48 50  1  0  0  0  0
 49 48  2  0  0  0  0
 50 47  1  0  0  0  0
 51 57  1  0  0  0  0
 54 53  1  1  0  0  0
 54 56  1  0  0  0  0
 54 51  1  0  0  0  0
 55 52  1  0  0  0  0
 56 55  1  0  0  0  0
 57 52  1  0  0  0  0
 57 48  1  1  0  0  0
M  END
>  <MODEL>
7

>  <REMARK>
 VINA RESULT:      -2.7      3.132      9.576
  Name = 
  26 active torsions:
  status: ('A' for Active; 'I' for Inactive)
    1  A    between atoms: C_1  and  C_14
    2  A    between atoms: C_2  and  C_38
    3  A    between atoms: C_2  and  C_51
    4  A    between atoms: C_3  and  N_45
    5  A    between atoms: C_4  and  C_39
    6  A    between atoms: C_7  and  C_15
    7  A    between atoms: C_8  and  C_40
    8  A    between atoms: C_8  and  C_47
    9  A    between atoms: C_9  and  C_43
   10  A    between atoms: N_10  and  N_13
   11  A    between atoms: N_10  and  N_33
   12  A    between atoms: C_11  and  C_18
   13  A    between atoms: C_11  and  C_23
   14  A    between atoms: N_13  and  C_23
   15  A    between atoms: C_14  and  C_52
   16  A    between atoms: C_15  and  N_33
   17  A    between atoms: C_18  and  C_19
   18  A    between atoms: C_22  and  C_56
   19  A    between atoms: C_23  and  C_31
   20  A    between atoms: S_24  and  C_37
   21  A    between atoms: S_24  and  C_40
   22  A    between atoms: C_28  and  N_45
   23  A    between atoms: C_34  and  C_39
   24  A    between atoms: C_34  and  N_53
   25  A    between atoms: C_35  and  C_47
   26  A    between atoms: N_36  and  C_43
                            x       y       z     vdW  Elec       q    Type
                         _______ _______ _______ _____ _____    ______ ____

>  <TORSDO>
F 26

$$$$
