=
 OpenBabel11052411513D

 32 35  0  0  1  0  0  0  0  0999 V2000
  161.7880  208.5010  149.9020 O   0  0  0  0  0  1  0  0  0  0  0  0
  161.4380  208.2760  152.2920 C   0  0  0  0  0  0  0  0  0  0  0  0
  161.2620  207.4360  153.4110 C   0  0  0  0  0  0  0  0  0  0  0  0
  161.2060  207.9570  154.6980 O   0  0  0  0  0  1  0  0  0  0  0  0
  161.4970  207.7020  151.0040 C   0  0  0  0  0  0  0  0  0  0  0  0
  161.3090  206.3130  150.8370 C   0  0  0  0  0  0  0  0  0  0  0  0
  161.1270  206.0580  153.2390 C   0  0  0  0  0  3  0  0  0  0  0  0
  161.1490  205.5020  151.9610 C   0  0  0  0  0  3  0  0  0  0  0  0
  160.4130  210.5470  152.7060 N   0  0  0  0  0  0  0  0  0  0  0  0
  159.7520  211.8560  152.9340 C   0  0  2  0  0  0  0  0  0  0  0  0
  160.0930  212.3950  154.1750 O   0  0  0  0  0  1  0  0  0  0  0  0
  161.5660  209.7400  152.4720 C   0  0  0  0  0  0  0  0  0  0  0  0
  158.9450  210.7430  152.9440 C   0  0  0  0  0  2  0  0  0  0  0  0
  162.7010  210.2860  152.4460 O   0  0  0  0  0  0  0  0  0  0  0  0
  159.7940  212.7510  151.7060 C   0  0  0  0  0  2  0  0  0  0  0  0
  158.3310  213.6090  149.8540 C   0  0  0  0  0  1  0  0  0  0  0  0
  158.3970  213.2380  151.3270 C   0  0  2  0  0  3  0  0  0  0  0  0
  157.9330  214.3340  152.1820 N   0  0  0  0  0  2  0  0  0  0  0  0
  156.6330  214.0210  152.7700 C   0  0  0  0  0  2  0  0  0  0  0  0
  156.0580  212.4600  154.5970 C   0  0  0  0  0  1  0  0  0  0  0  0
  156.8030  213.7300  154.2450 C   0  0  0  0  0  2  0  0  0  0  0  0
  161.3250  205.6830  149.5460 N   0  0  0  0  0  2  0  0  0  0  0  0
  161.0260  201.3430  148.1350 C   0  0  0  0  0  3  0  0  0  0  0  0
  161.1870  204.2800  149.2740 C   0  0  0  0  0  0  0  0  0  0  0  0
  161.3280  202.5010  146.1130 O   0  0  0  0  0  0  0  0  0  0  0  0
  161.1930  202.4850  147.4850 C   0  0  0  0  0  0  0  0  0  0  0  0
  161.2670  203.8370  148.0030 C   0  0  0  0  0  0  0  0  0  0  0  0
  161.4980  203.8150  145.6070 C   0  0  0  0  0  3  0  0  0  0  0  0
  160.9310  203.4730  150.3910 O   0  0  0  0  0  0  0  0  0  0  0  0
  160.8120  202.0860  150.5220 C   0  0  0  0  0  3  0  0  0  0  0  0
  160.8560  201.1590  149.5710 C   0  0  0  0  0  3  0  0  0  0  0  0
  161.4290  204.7440  146.8220 C   0  0  0  0  0  3  0  0  0  0  0  0
  1  5  1  0  0  0  0
  2 12  1  0  0  0  0
  2  3  1  0  0  0  0
  3  4  1  0  0  0  0
  5  2  2  0  0  0  0
  6  5  1  0  0  0  0
  6  8  2  0  0  0  0
  7  3  2  0  0  0  0
  8  7  1  0  0  0  0
  9 10  1  0  0  0  0
  9 13  1  0  0  0  0
 10 13  1  0  0  0  0
 10 11  1  1  0  0  0
 12  9  1  0  0  0  0
 14 12  2  0  0  0  0
 15 10  1  0  0  0  0
 17 16  1  6  0  0  0
 17 15  1  0  0  0  0
 17 18  1  0  0  0  0
 18 19  1  0  0  0  0
 19 21  1  0  0  0  0
 21 20  1  0  0  0  0
 22  6  1  0  0  0  0
 23 31  1  0  0  0  0
 24 22  1  0  0  0  0
 24 29  1  0  0  0  0
 25 26  1  0  0  0  0
 26 27  1  0  0  0  0
 26 23  2  0  0  0  0
 27 24  2  0  0  0  0
 28 25  1  0  0  0  0
 28 32  2  0  0  0  0
 29 30  1  0  0  0  0
 31 30  2  0  0  0  0
 32 27  1  0  0  0  0
M  END
>  <MODEL>
1

>  <REMARK>
 VINA RESULT:      -8.5      0.000      0.000
  Name = 
  8 active torsions:
  status: ('A' for Active; 'I' for Inactive)
    1  A    between atoms: N_1  and  C_13
    2  A    between atoms: N_1  and  C_30
    3  A    between atoms: C_3  and  C_8
    4  A    between atoms: C_3  and  C_30
    5  A    between atoms: C_5  and  C_22
    6  A    between atoms: C_10  and  N_24
    7  A    between atoms: C_13  and  C_23
    8  A    between atoms: C_21  and  N_24
                            x       y       z     vdW  Elec       q    Type
                         _______ _______ _______ _____ _____    ______ ____

>  <TORSDO>
F 8

$$$$
=
 OpenBabel11052411513D

 32 35  0  0  1  0  0  0  0  0999 V2000
  161.8070  208.5980  149.9400 O   0  0  0  0  0  1  0  0  0  0  0  0
  161.4390  208.3180  152.3220 C   0  0  0  0  0  0  0  0  0  0  0  0
  161.2430  207.4520  153.4180 C   0  0  0  0  0  0  0  0  0  0  0  0
  161.1880  207.9420  154.7180 O   0  0  0  0  0  1  0  0  0  0  0  0
  161.4960  207.7770  151.0200 C   0  0  0  0  0  0  0  0  0  0  0  0
  161.2870  206.3950  150.8170 C   0  0  0  0  0  0  0  0  0  0  0  0
  161.0870  206.0820  153.2100 C   0  0  0  0  0  3  0  0  0  0  0  0
  161.1080  205.5580  151.9190 C   0  0  0  0  0  3  0  0  0  0  0  0
  160.4430  210.6050  152.7160 N   0  0  0  0  0  0  0  0  0  0  0  0
  159.8000  211.9260  152.9280 C   0  0  2  0  0  0  0  0  0  0  0  0
  160.0710  212.4320  154.1990 O   0  0  0  0  0  1  0  0  0  0  0  0
  161.5900  209.7750  152.5400 C   0  0  0  0  0  0  0  0  0  0  0  0
  158.9680  210.8330  152.8620 C   0  0  0  0  0  2  0  0  0  0  0  0
  162.7360  210.2930  152.5990 O   0  0  0  0  0  0  0  0  0  0  0  0
  159.9430  212.8430  151.7230 C   0  0  0  0  0  2  0  0  0  0  0  0
  158.1910  214.1240  152.9880 C   0  0  0  0  0  1  0  0  0  0  0  0
  158.7600  213.8030  151.6140 C   0  0  2  0  0  3  0  0  0  0  0  0
  157.7230  213.3160  150.6990 N   0  0  0  0  0  2  0  0  0  0  0  0
  158.0970  213.5650  149.3100 C   0  0  0  0  0  2  0  0  0  0  0  0
  157.4150  212.6500  147.1180 C   0  0  0  0  0  1  0  0  0  0  0  0
  156.9190  213.2660  148.4080 C   0  0  0  0  0  2  0  0  0  0  0  0
  161.3000  205.7990  149.5100 N   0  0  0  0  0  2  0  0  0  0  0  0
  161.0090  201.4940  147.9930 C   0  0  0  0  0  3  0  0  0  0  0  0
  161.1600  204.4030  149.2020 C   0  0  0  0  0  0  0  0  0  0  0  0
  161.3700  202.6950  146.0060 O   0  0  0  0  0  0  0  0  0  0  0  0
  161.2000  202.6490  147.3730 C   0  0  0  0  0  0  0  0  0  0  0  0
  161.2700  203.9880  147.9240 C   0  0  0  0  0  0  0  0  0  0  0  0
  161.5610  204.0190  145.5350 C   0  0  0  0  0  3  0  0  0  0  0  0
  160.8710  203.5720  150.2940 O   0  0  0  0  0  0  0  0  0  0  0  0
  160.7400  202.1840  150.3900 C   0  0  0  0  0  3  0  0  0  0  0  0
  160.8020  201.2790  149.4200 C   0  0  0  0  0  3  0  0  0  0  0  0
  161.4670  204.9210  146.7690 C   0  0  0  0  0  3  0  0  0  0  0  0
  1  5  1  0  0  0  0
  2 12  1  0  0  0  0
  2  3  1  0  0  0  0
  3  4  1  0  0  0  0
  5  2  2  0  0  0  0
  6  5  1  0  0  0  0
  6  8  2  0  0  0  0
  7  3  2  0  0  0  0
  8  7  1  0  0  0  0
  9 13  1  0  0  0  0
  9 10  1  0  0  0  0
 10 11  1  1  0  0  0
 12 14  2  0  0  0  0
 12  9  1  0  0  0  0
 13 10  1  0  0  0  0
 15 10  1  0  0  0  0
 17 15  1  0  0  0  0
 17 16  1  1  0  0  0
 18 17  1  0  0  0  0
 19 18  1  0  0  0  0
 20 21  1  0  0  0  0
 21 19  1  0  0  0  0
 22  6  1  0  0  0  0
 23 31  1  0  0  0  0
 24 22  1  0  0  0  0
 24 29  1  0  0  0  0
 25 26  1  0  0  0  0
 26 27  1  0  0  0  0
 26 23  2  0  0  0  0
 27 24  2  0  0  0  0
 28 25  1  0  0  0  0
 28 32  2  0  0  0  0
 29 30  1  0  0  0  0
 31 30  2  0  0  0  0
 32 27  1  0  0  0  0
M  END
>  <MODEL>
2

>  <REMARK>
 VINA RESULT:      -7.9      0.805      1.943
  Name = 
  8 active torsions:
  status: ('A' for Active; 'I' for Inactive)
    1  A    between atoms: N_1  and  C_13
    2  A    between atoms: N_1  and  C_30
    3  A    between atoms: C_3  and  C_8
    4  A    between atoms: C_3  and  C_30
    5  A    between atoms: C_5  and  C_22
    6  A    between atoms: C_10  and  N_24
    7  A    between atoms: C_13  and  C_23
    8  A    between atoms: C_21  and  N_24
                            x       y       z     vdW  Elec       q    Type
                         _______ _______ _______ _____ _____    ______ ____

>  <TORSDO>
F 8

$$$$
=
 OpenBabel11052411513D

 32 35  0  0  1  0  0  0  0  0999 V2000
  161.8590  209.6290  151.4340 O   0  0  0  0  0  1  0  0  0  0  0  0
  161.6310  207.4150  152.4020 C   0  0  0  0  0  0  0  0  0  0  0  0
  161.1800  206.6040  153.4630 C   0  0  0  0  0  0  0  0  0  0  0  0
  161.2550  205.2180  153.3890 O   0  0  0  0  0  1  0  0  0  0  0  0
  161.5290  208.8180  152.5170 C   0  0  0  0  0  0  0  0  0  0  0  0
  161.0460  209.3980  153.7100 C   0  0  0  0  0  0  0  0  0  0  0  0
  160.6580  207.1870  154.6180 C   0  0  0  0  0  3  0  0  0  0  0  0
  160.5930  208.5730  154.7400 C   0  0  0  0  0  3  0  0  0  0  0  0
  161.3460  206.2480  150.1800 N   0  0  0  0  0  0  0  0  0  0  0  0
  161.1160  205.5490  148.8900 C   0  0  2  0  0  0  0  0  0  0  0  0
  161.4950  206.3370  147.8040 O   0  0  0  0  0  1  0  0  0  0  0  0
  162.2000  206.7980  151.1810 C   0  0  0  0  0  0  0  0  0  0  0  0
  160.0000  205.9510  149.5870 C   0  0  0  0  0  2  0  0  0  0  0  0
  163.4460  206.7760  151.0040 O   0  0  0  0  0  0  0  0  0  0  0  0
  161.5520  204.0930  148.9330 C   0  0  0  0  0  2  0  0  0  0  0  0
  161.1300  202.8220  151.0570 C   0  0  0  0  0  1  0  0  0  0  0  0
  160.5550  203.2390  149.7120 C   0  0  2  0  0  3  0  0  0  0  0  0
  160.0840  202.0820  148.9440 N   0  0  0  0  0  2  0  0  0  0  0  0
  161.0000  200.9540  149.0870 C   0  0  0  0  0  2  0  0  0  0  0  0
  160.7850  201.3410  146.6550 C   0  0  0  0  0  1  0  0  0  0  0  0
  161.4310  200.4770  147.7170 C   0  0  0  0  0  2  0  0  0  0  0  0
  160.9530  210.8200  153.8910 N   0  0  0  0  0  2  0  0  0  0  0  0
  157.4010  213.5190  152.8820 C   0  0  0  0  0  3  0  0  0  0  0  0
  159.9090  211.6800  153.4080 C   0  0  0  0  0  0  0  0  0  0  0  0
  156.8330  212.7320  155.0220 O   0  0  0  0  0  0  0  0  0  0  0  0
  157.6870  212.7760  153.9410 C   0  0  0  0  0  0  0  0  0  0  0  0
  158.8370  211.9290  154.1880 C   0  0  0  0  0  0  0  0  0  0  0  0
  157.3150  211.8840  156.0520 C   0  0  0  0  0  3  0  0  0  0  0  0
  160.0860  212.1690  152.1070 O   0  0  0  0  0  0  0  0  0  0  0  0
  159.3330  213.0690  151.3470 C   0  0  0  0  0  3  0  0  0  0  0  0
  158.1870  213.6610  151.6630 C   0  0  0  0  0  3  0  0  0  0  0  0
  158.6290  211.2980  155.5300 C   0  0  0  0  0  3  0  0  0  0  0  0
  1  5  1  0  0  0  0
  2  5  2  0  0  0  0
  2  3  1  0  0  0  0
  3  7  2  0  0  0  0
  4  3  1  0  0  0  0
  5  6  1  0  0  0  0
  6 22  1  0  0  0  0
  6  8  2  0  0  0  0
  7  8  1  0  0  0  0
  9 12  1  0  0  0  0
 10 11  1  6  0  0  0
 10 15  1  0  0  0  0
 10 13  1  0  0  0  0
 10  9  1  0  0  0  0
 12  2  1  0  0  0  0
 13  9  1  0  0  0  0
 14 12  2  0  0  0  0
 15 17  1  0  0  0  0
 17 16  1  1  0  0  0
 18 19  1  0  0  0  0
 18 17  1  0  0  0  0
 20 21  1  0  0  0  0
 21 19  1  0  0  0  0
 23 26  2  0  0  0  0
 24 22  1  0  0  0  0
 24 27  2  0  0  0  0
 25 28  1  0  0  0  0
 26 27  1  0  0  0  0
 26 25  1  0  0  0  0
 27 32  1  0  0  0  0
 29 24  1  0  0  0  0
 30 31  2  0  0  0  0
 30 29  1  0  0  0  0
 31 23  1  0  0  0  0
 32 28  2  0  0  0  0
M  END
>  <MODEL>
3

>  <REMARK>
 VINA RESULT:      -7.9      1.893      9.490
  Name = 
  8 active torsions:
  status: ('A' for Active; 'I' for Inactive)
    1  A    between atoms: N_1  and  C_13
    2  A    between atoms: N_1  and  C_30
    3  A    between atoms: C_3  and  C_8
    4  A    between atoms: C_3  and  C_30
    5  A    between atoms: C_5  and  C_22
    6  A    between atoms: C_10  and  N_24
    7  A    between atoms: C_13  and  C_23
    8  A    between atoms: C_21  and  N_24
                            x       y       z     vdW  Elec       q    Type
                         _______ _______ _______ _____ _____    ______ ____

>  <TORSDO>
F 8

$$$$
=
 OpenBabel11052411513D

 32 35  0  0  1  0  0  0  0  0999 V2000
  161.6930  209.5930  151.5870 O   0  0  0  0  0  1  0  0  0  0  0  0
  161.5580  207.3520  152.5080 C   0  0  0  0  0  0  0  0  0  0  0  0
  161.1320  206.5000  153.5480 C   0  0  0  0  0  0  0  0  0  0  0  0
  161.2730  205.1210  153.4480 O   0  0  0  0  0  1  0  0  0  0  0  0
  161.3890  208.7470  152.6490 C   0  0  0  0  0  0  0  0  0  0  0  0
  160.8670  209.2790  153.8480 C   0  0  0  0  0  0  0  0  0  0  0  0
  160.5710  207.0350  154.7080 C   0  0  0  0  0  3  0  0  0  0  0  0
  160.4410  208.4140  154.8560 C   0  0  0  0  0  3  0  0  0  0  0  0
  161.3490  206.3280  150.2080 N   0  0  0  0  0  0  0  0  0  0  0  0
  161.1630  205.7150  148.8690 C   0  0  2  0  0  0  0  0  0  0  0  0
  161.6250  206.5500  147.8530 O   0  0  0  0  0  1  0  0  0  0  0  0
  162.1680  206.7870  151.2830 C   0  0  0  0  0  0  0  0  0  0  0  0
  160.0270  206.1170  149.5320 C   0  0  0  0  0  2  0  0  0  0  0  0
  163.4210  206.7280  151.1670 O   0  0  0  0  0  0  0  0  0  0  0  0
  161.5460  204.2440  148.8450 C   0  0  0  0  0  2  0  0  0  0  0  0
  161.2510  203.0240  151.0210 C   0  0  0  0  0  1  0  0  0  0  0  0
  160.5970  203.4100  149.7030 C   0  0  2  0  0  3  0  0  0  0  0  0
  160.0790  202.2380  148.9920 N   0  0  0  0  0  2  0  0  0  0  0  0
  160.9360  201.0760  149.2110 C   0  0  0  0  0  2  0  0  0  0  0  0
  160.7950  201.3330  146.7580 C   0  0  0  0  0  1  0  0  0  0  0  0
  161.4810  200.5920  147.8850 C   0  0  0  0  0  2  0  0  0  0  0  0
  160.7060  210.6920  154.0560 N   0  0  0  0  0  2  0  0  0  0  0  0
  156.8190  213.1030  154.0570 C   0  0  0  0  0  3  0  0  0  0  0  0
  159.4670  211.3980  154.2290 C   0  0  0  0  0  0  0  0  0  0  0  0
  157.7470  213.6610  151.9710 O   0  0  0  0  0  0  0  0  0  0  0  0
  157.7970  212.9850  153.1720 C   0  0  0  0  0  0  0  0  0  0  0  0
  159.0170  212.2030  153.2460 C   0  0  0  0  0  0  0  0  0  0  0  0
  158.8840  213.4040  151.1640 C   0  0  0  0  0  3  0  0  0  0  0  0
  158.8350  211.2100  155.4660 O   0  0  0  0  0  0  0  0  0  0  0  0
  157.6080  211.6660  155.9560 C   0  0  0  0  0  3  0  0  0  0  0  0
  156.7300  212.4690  155.3670 C   0  0  0  0  0  3  0  0  0  0  0  0
  159.7770  212.4670  151.9830 C   0  0  0  0  0  3  0  0  0  0  0  0
  1  5  1  0  0  0  0
  2  5  2  0  0  0  0
  2  3  1  0  0  0  0
  3  7  2  0  0  0  0
  4  3  1  0  0  0  0
  5  6  1  0  0  0  0
  6 22  1  0  0  0  0
  6  8  2  0  0  0  0
  7  8  1  0  0  0  0
  9 12  1  0  0  0  0
 10 11  1  6  0  0  0
 10 13  1  0  0  0  0
 10  9  1  0  0  0  0
 12  2  1  0  0  0  0
 13  9  1  0  0  0  0
 14 12  2  0  0  0  0
 15 10  1  0  0  0  0
 15 17  1  0  0  0  0
 17 16  1  1  0  0  0
 18 19  1  0  0  0  0
 18 17  1  0  0  0  0
 20 21  1  0  0  0  0
 21 19  1  0  0  0  0
 22 24  1  0  0  0  0
 23 31  1  0  0  0  0
 24 29  1  0  0  0  0
 25 26  1  0  0  0  0
 26 27  1  0  0  0  0
 26 23  2  0  0  0  0
 27 24  2  0  0  0  0
 28 25  1  0  0  0  0
 28 32  2  0  0  0  0
 29 30  1  0  0  0  0
 31 30  2  0  0  0  0
 32 27  1  0  0  0  0
M  END
>  <MODEL>
4

>  <REMARK>
 VINA RESULT:      -7.8      1.897      9.270
  Name = 
  8 active torsions:
  status: ('A' for Active; 'I' for Inactive)
    1  A    between atoms: N_1  and  C_13
    2  A    between atoms: N_1  and  C_30
    3  A    between atoms: C_3  and  C_8
    4  A    between atoms: C_3  and  C_30
    5  A    between atoms: C_5  and  C_22
    6  A    between atoms: C_10  and  N_24
    7  A    between atoms: C_13  and  C_23
    8  A    between atoms: C_21  and  N_24
                            x       y       z     vdW  Elec       q    Type
                         _______ _______ _______ _____ _____    ______ ____

>  <TORSDO>
F 8

$$$$
=
 OpenBabel11052411513D

 32 35  0  0  1  0  0  0  0  0999 V2000
  162.1300  209.5640  152.4250 O   0  0  0  0  0  1  0  0  0  0  0  0
  160.6750  209.4330  154.3620 C   0  0  0  0  0  0  0  0  0  0  0  0
  160.0810  208.6490  155.3730 C   0  0  0  0  0  0  0  0  0  0  0  0
  159.3250  209.2330  156.3830 O   0  0  0  0  0  1  0  0  0  0  0  0
  161.4400  208.7980  153.3600 C   0  0  0  0  0  0  0  0  0  0  0  0
  161.5480  207.3900  153.3360 C   0  0  0  0  0  0  0  0  0  0  0  0
  160.2350  207.2620  155.3670 C   0  0  0  0  0  3  0  0  0  0  0  0
  160.9620  206.6390  154.3550 C   0  0  0  0  0  3  0  0  0  0  0  0
  159.4930  211.5130  153.5510 N   0  0  0  0  0  0  0  0  0  0  0  0
  158.7740  212.7000  153.0260 C   0  0  2  0  0  0  0  0  0  0  0  0
  158.0270  213.3310  154.0210 O   0  0  0  0  0  1  0  0  0  0  0  0
  160.4990  210.9030  154.3590 C   0  0  0  0  0  0  0  0  0  0  0  0
  158.3290  211.4680  152.6060 C   0  0  0  0  0  2  0  0  0  0  0  0
  161.2210  211.6300  155.0910 O   0  0  0  0  0  0  0  0  0  0  0  0
  159.6410  213.5460  152.1070 C   0  0  0  0  0  2  0  0  0  0  0  0
  160.4730  213.1570  149.7700 C   0  0  0  0  0  1  0  0  0  0  0  0
  159.2450  213.3580  150.6440 C   0  0  2  0  0  3  0  0  0  0  0  0
  158.3990  214.4470  150.1460 N   0  0  0  0  0  2  0  0  0  0  0  0
  158.1220  214.2810  148.7220 C   0  0  0  0  0  2  0  0  0  0  0  0
  155.7670  214.0870  149.4450 C   0  0  0  0  0  1  0  0  0  0  0  0
  156.8350  213.5050  148.5450 C   0  0  0  0  0  2  0  0  0  0  0  0
  162.2860  206.6930  152.3200 N   0  0  0  0  0  2  0  0  0  0  0  0
  160.7480  203.8080  149.1210 C   0  0  0  0  0  3  0  0  0  0  0  0
  161.7870  205.6660  151.4490 C   0  0  0  0  0  0  0  0  0  0  0  0
  160.8750  205.8350  147.9390 O   0  0  0  0  0  0  0  0  0  0  0  0
  161.0260  205.1030  149.0980 C   0  0  0  0  0  0  0  0  0  0  0  0
  161.5030  205.9610  150.1640 C   0  0  0  0  0  0  0  0  0  0  0  0
  161.2240  207.1980  148.1190 C   0  0  0  0  0  3  0  0  0  0  0  0
  161.5950  204.4120  152.0460 O   0  0  0  0  0  0  0  0  0  0  0  0
  161.2010  203.1830  151.5080 C   0  0  0  0  0  3  0  0  0  0  0  0
  160.8420  202.9030  150.2600 C   0  0  0  0  0  3  0  0  0  0  0  0
  161.6150  207.3410  149.5920 C   0  0  0  0  0  3  0  0  0  0  0  0
  1  5  1  0  0  0  0
  2  3  1  0  0  0  0
  3  4  1  0  0  0  0
  5  2  2  0  0  0  0
  6  5  1  0  0  0  0
  6  8  2  0  0  0  0
  7  3  2  0  0  0  0
  8  7  1  0  0  0  0
  9 12  1  0  0  0  0
 10  9  1  0  0  0  0
 10 11  1  1  0  0  0
 12  2  1  0  0  0  0
 12 14  2  0  0  0  0
 13 10  1  0  0  0  0
 13  9  1  0  0  0  0
 15 10  1  0  0  0  0
 17 16  1  6  0  0  0
 17 15  1  0  0  0  0
 18 17  1  0  0  0  0
 19 18  1  0  0  0  0
 21 19  1  0  0  0  0
 21 20  1  0  0  0  0
 22  6  1  0  0  0  0
 23 31  1  0  0  0  0
 24 29  1  0  0  0  0
 24 22  1  0  0  0  0
 25 28  1  0  0  0  0
 25 26  1  0  0  0  0
 26 23  2  0  0  0  0
 26 27  1  0  0  0  0
 27 24  2  0  0  0  0
 28 32  2  0  0  0  0
 30 29  1  0  0  0  0
 31 30  2  0  0  0  0
 32 27  1  0  0  0  0
M  END
>  <MODEL>
5

>  <REMARK>
 VINA RESULT:      -7.7      1.999      2.932
  Name = 
  8 active torsions:
  status: ('A' for Active; 'I' for Inactive)
    1  A    between atoms: N_1  and  C_13
    2  A    between atoms: N_1  and  C_30
    3  A    between atoms: C_3  and  C_8
    4  A    between atoms: C_3  and  C_30
    5  A    between atoms: C_5  and  C_22
    6  A    between atoms: C_10  and  N_24
    7  A    between atoms: C_13  and  C_23
    8  A    between atoms: C_21  and  N_24
                            x       y       z     vdW  Elec       q    Type
                         _______ _______ _______ _____ _____    ______ ____

>  <TORSDO>
F 8

$$$$
=
 OpenBabel11052411513D

 32 35  0  0  1  0  0  0  0  0999 V2000
  162.0220  209.7300  152.4680 O   0  0  0  0  0  1  0  0  0  0  0  0
  160.5530  209.5080  154.3870 C   0  0  0  0  0  0  0  0  0  0  0  0
  159.9800  208.6840  155.3770 C   0  0  0  0  0  0  0  0  0  0  0  0
  159.1920  209.2210  156.3890 O   0  0  0  0  0  1  0  0  0  0  0  0
  161.3520  208.9210  153.3820 C   0  0  0  0  0  0  0  0  0  0  0  0
  161.5150  207.5200  153.3350 C   0  0  0  0  0  0  0  0  0  0  0  0
  160.1880  207.3050  155.3490 C   0  0  0  0  0  3  0  0  0  0  0  0
  160.9480  206.7280  154.3340 C   0  0  0  0  0  3  0  0  0  0  0  0
  159.3110  211.5570  153.5860 N   0  0  0  0  0  0  0  0  0  0  0  0
  158.5590  212.7260  153.0650 C   0  0  2  0  0  0  0  0  0  0  0  0
  157.7650  213.3080  154.0530 O   0  0  0  0  0  1  0  0  0  0  0  0
  160.3200  210.9710  154.4070 C   0  0  0  0  0  0  0  0  0  0  0  0
  158.1730  211.4870  152.6120 C   0  0  0  0  0  2  0  0  0  0  0  0
  160.9960  211.7100  155.1700 O   0  0  0  0  0  0  0  0  0  0  0  0
  159.4140  213.6230  152.1840 C   0  0  0  0  0  2  0  0  0  0  0  0
  160.6410  213.1090  150.0540 C   0  0  0  0  0  1  0  0  0  0  0  0
  159.2760  213.2460  150.7110 C   0  0  2  0  0  3  0  0  0  0  0  0
  158.4110  214.1720  149.9730 N   0  0  0  0  0  2  0  0  0  0  0  0
  157.1270  213.5510  149.6650 C   0  0  0  0  0  2  0  0  0  0  0  0
  157.9650  214.1340  147.4150 C   0  0  0  0  0  1  0  0  0  0  0  0
  157.0800  213.1880  148.1970 C   0  0  0  0  0  2  0  0  0  0  0  0
  162.2900  206.8690  152.3150 N   0  0  0  0  0  2  0  0  0  0  0  0
  160.8190  205.5450  148.1920 C   0  0  0  0  0  3  0  0  0  0  0  0
  161.8850  206.6150  150.9610 C   0  0  0  0  0  0  0  0  0  0  0  0
  160.5870  203.5770  149.4550 O   0  0  0  0  0  0  0  0  0  0  0  0
  160.9460  204.9040  149.3430 C   0  0  0  0  0  0  0  0  0  0  0  0
  161.4360  205.3900  150.6190 C   0  0  0  0  0  0  0  0  0  0  0  0
  160.7970  203.0740  150.7640 C   0  0  0  0  0  3  0  0  0  0  0  0
  162.0370  207.6900  150.0750 O   0  0  0  0  0  0  0  0  0  0  0  0
  161.6900  207.8360  148.7290 C   0  0  0  0  0  3  0  0  0  0  0  0
  161.1630  206.9330  147.9090 C   0  0  0  0  0  3  0  0  0  0  0  0
  161.3930  204.2320  151.5680 C   0  0  0  0  0  3  0  0  0  0  0  0
  1  5  1  0  0  0  0
  2 12  1  0  0  0  0
  2  3  1  0  0  0  0
  3  4  1  0  0  0  0
  5  2  2  0  0  0  0
  6  5  1  0  0  0  0
  6  8  2  0  0  0  0
  7  3  2  0  0  0  0
  8  7  1  0  0  0  0
  9 12  1  0  0  0  0
 10  9  1  0  0  0  0
 10 11  1  1  0  0  0
 12 14  2  0  0  0  0
 13 10  1  0  0  0  0
 13  9  1  0  0  0  0
 15 10  1  0  0  0  0
 17 16  1  6  0  0  0
 17 15  1  0  0  0  0
 18 17  1  0  0  0  0
 19 18  1  0  0  0  0
 20 21  1  0  0  0  0
 21 19  1  0  0  0  0
 22  6  1  0  0  0  0
 23 26  2  0  0  0  0
 24 22  1  0  0  0  0
 25 28  1  0  0  0  0
 26 25  1  0  0  0  0
 26 27  1  0  0  0  0
 27 24  2  0  0  0  0
 27 32  1  0  0  0  0
 28 32  2  0  0  0  0
 29 24  1  0  0  0  0
 30 29  1  0  0  0  0
 31 23  1  0  0  0  0
 31 30  2  0  0  0  0
M  END
>  <MODEL>
6

>  <REMARK>
 VINA RESULT:      -7.6      1.950      3.624
  Name = 
  8 active torsions:
  status: ('A' for Active; 'I' for Inactive)
    1  A    between atoms: N_1  and  C_13
    2  A    between atoms: N_1  and  C_30
    3  A    between atoms: C_3  and  C_8
    4  A    between atoms: C_3  and  C_30
    5  A    between atoms: C_5  and  C_22
    6  A    between atoms: C_10  and  N_24
    7  A    between atoms: C_13  and  C_23
    8  A    between atoms: C_21  and  N_24
                            x       y       z     vdW  Elec       q    Type
                         _______ _______ _______ _____ _____    ______ ____

>  <TORSDO>
F 8

$$$$
=
 OpenBabel11052411513D

 32 35  0  0  1  0  0  0  0  0999 V2000
  160.8430  207.1570  152.2830 O   0  0  0  0  0  1  0  0  0  0  0  0
  161.5640  209.1200  151.0510 C   0  0  0  0  0  0  0  0  0  0  0  0
  161.8720  209.7200  149.8130 C   0  0  0  0  0  0  0  0  0  0  0  0
  162.1670  211.0760  149.7260 O   0  0  0  0  0  1  0  0  0  0  0  0
  161.2640  207.7410  151.0910 C   0  0  0  0  0  0  0  0  0  0  0  0
  161.3410  206.9650  149.9140 C   0  0  0  0  0  0  0  0  0  0  0  0
  161.8970  208.9530  148.6480 C   0  0  0  0  0  3  0  0  0  0  0  0
  161.6340  207.5850  148.7000 C   0  0  0  0  0  3  0  0  0  0  0  0
  160.3260  210.4270  152.8230 N   0  0  0  0  0  0  0  0  0  0  0  0
  159.5460  211.1960  153.8240 C   0  0  2  0  0  0  0  0  0  0  0  0
  159.5710  210.5830  155.0770 O   0  0  0  0  0  1  0  0  0  0  0  0
  161.5530  209.9300  152.2900 C   0  0  0  0  0  0  0  0  0  0  0  0
  158.8320  210.5580  152.8370 C   0  0  0  0  0  2  0  0  0  0  0  0
  162.6270  210.1680  152.9030 O   0  0  0  0  0  0  0  0  0  0  0  0
  159.7960  212.6930  153.7310 C   0  0  0  0  0  2  0  0  0  0  0  0
  159.7500  213.7540  151.4550 C   0  0  0  0  0  1  0  0  0  0  0  0
  158.9190  213.3360  152.6590 C   0  0  2  0  0  3  0  0  0  0  0  0
  158.1210  214.4500  153.1790 N   0  0  0  0  0  2  0  0  0  0  0  0
  157.3900  214.0510  154.3780 C   0  0  0  0  0  2  0  0  0  0  0  0
  156.0160  212.0650  154.9020 C   0  0  0  0  0  1  0  0  0  0  0  0
  156.1640  213.2580  153.9820 C   0  0  0  0  0  2  0  0  0  0  0  0
  161.0780  205.5520  149.9060 N   0  0  0  0  0  2  0  0  0  0  0  0
  161.2010  202.3220  146.6710 C   0  0  0  0  0  3  0  0  0  0  0  0
  161.1670  204.6700  148.7770 C   0  0  0  0  0  0  0  0  0  0  0  0
  160.8460  201.0570  148.6200 O   0  0  0  0  0  0  0  0  0  0  0  0
  161.0380  202.2660  147.9840 C   0  0  0  0  0  0  0  0  0  0  0  0
  161.0220  203.3410  148.9570 C   0  0  0  0  0  0  0  0  0  0  0  0
  160.6910  201.2080  150.0210 C   0  0  0  0  0  3  0  0  0  0  0  0
  161.4470  205.2880  147.5500 O   0  0  0  0  0  0  0  0  0  0  0  0
  161.5340  204.7730  146.2530 C   0  0  0  0  0  3  0  0  0  0  0  0
  161.4250  203.5100  145.8570 C   0  0  0  0  0  3  0  0  0  0  0  0
  160.8350  202.7070  150.3000 C   0  0  0  0  0  3  0  0  0  0  0  0
  2  5  1  0  0  0  0
  2 12  1  0  0  0  0
  3  2  2  0  0  0  0
  4  3  1  0  0  0  0
  5  1  1  0  0  0  0
  6  5  2  0  0  0  0
  7  8  2  0  0  0  0
  7  3  1  0  0  0  0
  8  6  1  0  0  0  0
  9 13  1  0  0  0  0
  9 10  1  0  0  0  0
 10 11  1  1  0  0  0
 12  9  1  0  0  0  0
 12 14  2  0  0  0  0
 13 10  1  0  0  0  0
 15 10  1  0  0  0  0
 17 16  1  6  0  0  0
 17 18  1  0  0  0  0
 17 15  1  0  0  0  0
 18 19  1  0  0  0  0
 21 19  1  0  0  0  0
 21 20  1  0  0  0  0
 22  6  1  0  0  0  0
 23 26  2  0  0  0  0
 24 27  2  0  0  0  0
 24 22  1  0  0  0  0
 25 28  1  0  0  0  0
 26 25  1  0  0  0  0
 26 27  1  0  0  0  0
 27 32  1  0  0  0  0
 28 32  2  0  0  0  0
 29 24  1  0  0  0  0
 30 29  1  0  0  0  0
 31 30  2  0  0  0  0
 31 23  1  0  0  0  0
M  END
>  <MODEL>
7

>  <REMARK>
 VINA RESULT:      -7.6      1.529      2.782
  Name = 
  8 active torsions:
  status: ('A' for Active; 'I' for Inactive)
    1  A    between atoms: N_1  and  C_13
    2  A    between atoms: N_1  and  C_30
    3  A    between atoms: C_3  and  C_8
    4  A    between atoms: C_3  and  C_30
    5  A    between atoms: C_5  and  C_22
    6  A    between atoms: C_10  and  N_24
    7  A    between atoms: C_13  and  C_23
    8  A    between atoms: C_21  and  N_24
                            x       y       z     vdW  Elec       q    Type
                         _______ _______ _______ _____ _____    ______ ____

>  <TORSDO>
F 8

$$$$
=
 OpenBabel11052411513D

 32 35  0  0  1  0  0  0  0  0999 V2000
  160.7440  207.6470  152.6190 O   0  0  0  0  0  1  0  0  0  0  0  0
  161.2060  207.5920  150.2370 C   0  0  0  0  0  0  0  0  0  0  0  0
  161.7640  208.2160  149.1030 C   0  0  0  0  0  0  0  0  0  0  0  0
  161.8140  207.5630  147.8770 O   0  0  0  0  0  1  0  0  0  0  0  0
  161.1820  208.2900  151.4640 C   0  0  0  0  0  0  0  0  0  0  0  0
  161.6480  209.6210  151.5320 C   0  0  0  0  0  0  0  0  0  0  0  0
  162.2680  209.5140  149.1930 C   0  0  0  0  0  3  0  0  0  0  0  0
  162.2090  210.2110  150.3990 C   0  0  0  0  0  3  0  0  0  0  0  0
  161.2280  205.1540  150.8950 N   0  0  0  0  0  0  0  0  0  0  0  0
  161.3000  203.7290  151.3070 C   0  0  2  0  0  0  0  0  0  0  0  0
  160.1860  203.3520  152.0550 O   0  0  0  0  0  1  0  0  0  0  0  0
  160.6570  206.2200  150.1390 C   0  0  0  0  0  0  0  0  0  0  0  0
  162.1850  204.5950  151.9060 C   0  0  0  0  0  2  0  0  0  0  0  0
  159.6610  205.9860  149.4050 O   0  0  0  0  0  0  0  0  0  0  0  0
  161.7730  202.8220  150.1810 C   0  0  0  0  0  2  0  0  0  0  0  0
  159.8970  201.3760  149.3490 C   0  0  0  0  0  1  0  0  0  0  0  0
  160.6930  202.6510  149.1160 C   0  0  2  0  0  3  0  0  0  0  0  0
  161.2320  202.7120  147.7540 N   0  0  0  0  0  2  0  0  0  0  0  0
  161.9070  203.9850  147.5190 C   0  0  0  0  0  2  0  0  0  0  0  0
  161.1050  203.2320  145.3060 C   0  0  0  0  0  1  0  0  0  0  0  0
  161.8750  204.3070  146.0400 C   0  0  0  0  0  2  0  0  0  0  0  0
  161.6160  210.3860  152.7470 N   0  0  0  0  0  2  0  0  0  0  0  0
  158.1480  211.5500  155.4910 C   0  0  0  0  0  3  0  0  0  0  0  0
  160.4450  210.8150  153.4600 C   0  0  0  0  0  0  0  0  0  0  0  0
  159.5270  210.3130  156.9360 O   0  0  0  0  0  0  0  0  0  0  0  0
  159.2500  210.8450  155.6950 C   0  0  0  0  0  0  0  0  0  0  0  0
  160.3090  210.5030  154.7650 C   0  0  0  0  0  0  0  0  0  0  0  0
  160.7500  209.5940  156.9490 C   0  0  0  0  0  3  0  0  0  0  0  0
  159.4970  211.5100  152.6970 O   0  0  0  0  0  0  0  0  0  0  0  0
  158.2960  212.1300  153.0550 C   0  0  0  0  0  3  0  0  0  0  0  0
  157.7070  212.1640  154.2450 C   0  0  0  0  0  3  0  0  0  0  0  0
  161.2920  209.6620  155.5190 C   0  0  0  0  0  3  0  0  0  0  0  0
  2  5  1  0  0  0  0
  3  7  1  0  0  0  0
  3  2  2  0  0  0  0
  4  3  1  0  0  0  0
  5  6  2  0  0  0  0
  5  1  1  0  0  0  0
  6 22  1  0  0  0  0
  7  8  2  0  0  0  0
  8  6  1  0  0  0  0
  9 10  1  0  0  0  0
  9 13  1  0  0  0  0
 10 13  1  0  0  0  0
 10 11  1  1  0  0  0
 12  2  1  0  0  0  0
 12  9  1  0  0  0  0
 14 12  2  0  0  0  0
 15 10  1  0  0  0  0
 17 16  1  1  0  0  0
 17 15  1  0  0  0  0
 18 17  1  0  0  0  0
 19 18  1  0  0  0  0
 20 21  1  0  0  0  0
 21 19  1  0  0  0  0
 22 24  1  0  0  0  0
 23 26  2  0  0  0  0
 24 27  2  0  0  0  0
 25 28  1  0  0  0  0
 26 25  1  0  0  0  0
 27 32  1  0  0  0  0
 27 26  1  0  0  0  0
 29 30  1  0  0  0  0
 29 24  1  0  0  0  0
 30 31  2  0  0  0  0
 31 23  1  0  0  0  0
 32 28  2  0  0  0  0
M  END
>  <MODEL>
8

>  <REMARK>
 VINA RESULT:      -7.4      2.178      9.350
  Name = 
  8 active torsions:
  status: ('A' for Active; 'I' for Inactive)
    1  A    between atoms: N_1  and  C_13
    2  A    between atoms: N_1  and  C_30
    3  A    between atoms: C_3  and  C_8
    4  A    between atoms: C_3  and  C_30
    5  A    between atoms: C_5  and  C_22
    6  A    between atoms: C_10  and  N_24
    7  A    between atoms: C_13  and  C_23
    8  A    between atoms: C_21  and  N_24
                            x       y       z     vdW  Elec       q    Type
                         _______ _______ _______ _____ _____    ______ ____

>  <TORSDO>
F 8

$$$$
=
 OpenBabel11052411513D

 32 35  0  0  1  0  0  0  0  0999 V2000
  160.4870  206.1290  152.0260 O   0  0  0  0  0  1  0  0  0  0  0  0
  161.3450  208.3450  151.5330 C   0  0  0  0  0  0  0  0  0  0  0  0
  161.8460  209.2600  150.5850 C   0  0  0  0  0  0  0  0  0  0  0  0
  162.1030  210.5820  150.9290 O   0  0  0  0  0  1  0  0  0  0  0  0
  161.0920  207.0140  151.1370 C   0  0  0  0  0  0  0  0  0  0  0  0
  161.4070  206.5920  149.8270 C   0  0  0  0  0  0  0  0  0  0  0  0
  162.1080  208.8440  149.2790 C   0  0  0  0  0  3  0  0  0  0  0  0
  161.8900  207.5200  148.9040 C   0  0  0  0  0  3  0  0  0  0  0  0
  160.2920  209.9400  153.1850 N   0  0  0  0  0  0  0  0  0  0  0  0
  159.6640  210.9200  154.1070 C   0  0  2  0  0  0  0  0  0  0  0  0
  158.6400  210.3390  154.8540 O   0  0  0  0  0  1  0  0  0  0  0  0
  161.0820  208.7810  152.9240 C   0  0  0  0  0  0  0  0  0  0  0  0
  159.4280  211.0920  152.7630 C   0  0  0  0  0  2  0  0  0  0  0  0
  161.5330  208.1160  153.8930 O   0  0  0  0  0  0  0  0  0  0  0  0
  160.6890  211.7920  154.8140 C   0  0  0  0  0  2  0  0  0  0  0  0
  161.0830  212.3310  157.2350 C   0  0  0  0  0  1  0  0  0  0  0  0
  161.0430  211.2280  156.1880 C   0  0  2  0  0  3  0  0  0  0  0  0
  162.2860  210.4500  156.1730 N   0  0  0  0  0  2  0  0  0  0  0  0
  162.2040  209.3220  157.0950 C   0  0  0  0  0  2  0  0  0  0  0  0
  160.7170  207.3500  157.1830 C   0  0  0  0  0  1  0  0  0  0  0  0
  160.7660  208.8620  157.2050 C   0  0  0  0  0  2  0  0  0  0  0  0
  161.2020  205.2410  149.3840 N   0  0  0  0  0  2  0  0  0  0  0  0
  161.1980  203.2150  145.2830 C   0  0  0  0  0  3  0  0  0  0  0  0
  161.2290  204.7700  148.0270 C   0  0  0  0  0  0  0  0  0  0  0  0
  161.1520  201.3750  146.7440 O   0  0  0  0  0  0  0  0  0  0  0  0
  161.1850  202.7350  146.5170 C   0  0  0  0  0  0  0  0  0  0  0  0
  161.2000  203.4450  147.7820 C   0  0  0  0  0  0  0  0  0  0  0  0
  161.1420  201.0640  148.1280 C   0  0  0  0  0  3  0  0  0  0  0  0
  161.3270  205.7660  147.0460 O   0  0  0  0  0  0  0  0  0  0  0  0
  161.3070  205.6950  145.6500 C   0  0  0  0  0  3  0  0  0  0  0  0
  161.2460  204.6150  144.8790 C   0  0  0  0  0  3  0  0  0  0  0  0
  161.2080  202.4060  148.8610 C   0  0  0  0  0  3  0  0  0  0  0  0
  2 12  1  0  0  0  0
  3  4  1  0  0  0  0
  3  2  2  0  0  0  0
  5  2  1  0  0  0  0
  5  1  1  0  0  0  0
  6  5  2  0  0  0  0
  7  3  1  0  0  0  0
  8  7  2  0  0  0  0
  8  6  1  0  0  0  0
  9 10  1  0  0  0  0
 10 15  1  0  0  0  0
 10 11  1  1  0  0  0
 12  9  1  0  0  0  0
 12 14  2  0  0  0  0
 13  9  1  0  0  0  0
 13 10  1  0  0  0  0
 15 17  1  0  0  0  0
 17 16  1  1  0  0  0
 18 17  1  0  0  0  0
 18 19  1  0  0  0  0
 19 21  1  0  0  0  0
 20 21  1  0  0  0  0
 22  6  1  0  0  0  0
 23 26  2  0  0  0  0
 24 22  1  0  0  0  0
 25 28  1  0  0  0  0
 26 25  1  0  0  0  0
 26 27  1  0  0  0  0
 27 24  2  0  0  0  0
 27 32  1  0  0  0  0
 28 32  2  0  0  0  0
 29 24  1  0  0  0  0
 30 29  1  0  0  0  0
 31 23  1  0  0  0  0
 31 30  2  0  0  0  0
M  END
>  <MODEL>
9

>  <REMARK>
 VINA RESULT:      -7.3      2.250      4.213
  Name = 
  8 active torsions:
  status: ('A' for Active; 'I' for Inactive)
    1  A    between atoms: N_1  and  C_13
    2  A    between atoms: N_1  and  C_30
    3  A    between atoms: C_3  and  C_8
    4  A    between atoms: C_3  and  C_30
    5  A    between atoms: C_5  and  C_22
    6  A    between atoms: C_10  and  N_24
    7  A    between atoms: C_13  and  C_23
    8  A    between atoms: C_21  and  N_24
                            x       y       z     vdW  Elec       q    Type
                         _______ _______ _______ _____ _____    ______ ____

>  <TORSDO>
F 8

$$$$
