=
 OpenBabel11042421513D

 47 51  0  0  1  0  0  0  0  0999 V2000
  156.3140  214.4520  153.8280 O   0  0  0  0  0  0  0  0  0  0  0  0
  161.5910  208.0500  152.6500 S   0  0  0  0  0  0  0  0  0  0  0  0
  156.7760  212.1440  153.8870 C   0  0  0  0  0  2  0  0  0  0  0  0
  160.9750  212.5570  147.4290 C   0  0  2  0  0  3  0  0  0  0  0  0
  158.5470  212.3480  147.8200 N   0  0  0  0  0  2  0  0  0  0  0  0
  162.2390  207.6170  147.8840 C   0  0  0  0  0  0  0  0  0  0  0  0
  160.9130  206.5420  150.3530 C   0  0  0  0  0  0  0  0  0  0  0  0
  162.9010  210.0620  151.0490 S   0  0  0  0  0  0  0  0  0  0  0  0
  157.6640  212.8750  148.7620 N   0  0  0  0  0  0  0  0  0  0  0  0
  157.5110  211.9440  155.1740 C   0  0  0  0  0  3  0  0  0  0  0  0
  159.6360  211.1500  154.1440 C   0  0  0  0  0  0  0  0  0  0  0  0
  158.7800  211.5410  155.2890 C   0  0  0  0  0  0  0  0  0  0  0  0
  162.7100  211.1140  148.2760 N   0  0  0  0  0  0  0  0  0  0  0  0
  157.4040  213.5330  151.0120 N   0  0  0  0  0  2  0  0  0  0  0  0
  159.8650  212.0500  148.3530 C   0  0  2  0  0  3  0  0  0  0  0  0
  159.7440  206.0080  151.1090 C   0  0  0  0  0  1  0  0  0  0  0  0
  161.9620  209.9670  147.9700 N   0  0  0  0  0  2  0  0  0  0  0  0
  162.2430  208.6650  150.1310 C   0  0  0  0  0  0  0  0  0  0  0  0
  162.2880  212.2890  148.0100 N   0  0  0  0  0  0  0  0  0  0  0  0
  162.1430  207.7080  146.5320 F   0  0  0  0  0  0  0  0  0  0  0  0
  162.1690  208.7190  148.6380 C   0  0  0  0  0  0  0  0  0  0  0  0
  161.0630  211.1140  154.3240 N   0  0  0  0  0  0  0  0  0  0  0  0
  158.1970  213.1130  149.9040 C   0  0  0  0  0  0  0  0  0  0  0  0
  161.6040  209.8250  152.2900 C   0  0  2  0  0  3  0  0  0  0  0  0
  161.2860  205.9070  149.2810 N   0  0  0  0  0  0  0  0  0  0  0  0
  161.9470  210.5820  153.5300 C   0  0  0  0  0  3  0  0  0  0  0  0
  162.4490  206.2670  148.4850 C   0  0  0  0  0  2  0  0  0  0  0  0
  159.9470  212.7670  150.0340 S   0  0  0  0  0  0  0  0  0  0  0  0
  157.9920  213.7950  152.3140 C   0  0  0  0  0  2  0  0  0  0  0  0
  159.1230  210.8530  153.0310 O   0  0  0  0  0  0  0  0  0  0  0  0
  161.6550  207.7140  150.8870 C   0  0  0  0  0  0  0  0  0  0  0  0
  156.9840  213.5330  153.3810 C   0  0  0  0  0  0  0  0  0  0  0  0
  159.3560  211.4660  156.6690 C   0  0  0  0  0  2  0  0  0  0  0  0
  159.2760  210.0450  157.2190 C   0  0  0  0  0  2  0  0  0  0  0  0
  160.2460  209.1200  156.4940 C   0  0  0  0  0  3  0  0  0  0  0  0
  161.5580  209.0980  157.2520 C   0  0  0  0  0  1  0  0  0  0  0  0
  159.6720  207.7100  156.4520 C   0  0  0  0  0  1  0  0  0  0  0  0
  160.8360  214.0540  147.1540 C   0  0  0  0  0  2  0  0  0  0  0  0
  161.5070  214.4250  145.8420 C   0  0  0  0  0  2  0  0  0  0  0  0
  160.4840  214.4510  144.7170 C   0  0  0  0  0  2  0  0  0  0  0  0
  160.3080  213.0610  144.1080 C   0  0  0  0  0  2  0  0  0  0  0  0
  162.8960  213.6220  141.3850 C   0  0  0  0  0  3  0  0  0  0  0  0
  160.8200  211.8340  141.9750 C   0  0  0  0  0  3  0  0  0  0  0  0
  161.0980  212.8920  142.8480 C   0  0  0  0  0  0  0  0  0  0  0  0
  162.6200  212.5640  140.5140 C   0  0  0  0  0  3  0  0  0  0  0  0
  161.5820  211.6690  140.8090 C   0  0  0  0  0  3  0  0  0  0  0  0
  162.1350  213.7870  142.5500 C   0  0  0  0  0  3  0  0  0  0  0  0
  3 10  1  0  0  0  0
  4 38  1  1  0  0  0
  4 19  1  0  0  0  0
  4 15  1  0  0  0  0
  5  9  1  0  0  0  0
  6 27  1  0  0  0  0
  6 21  2  0  0  0  0
  7 31  1  0  0  0  0
  7 16  1  0  0  0  0
  8 24  1  0  0  0  0
  9 23  2  0  0  0  0
 10 12  2  0  0  0  0
 11 22  1  0  0  0  0
 11 12  1  0  0  0  0
 12 33  1  0  0  0  0
 14 29  1  0  0  0  0
 15  5  1  6  0  0  0
 15 28  1  0  0  0  0
 17 13  1  0  0  0  0
 17 21  1  0  0  0  0
 18 31  2  0  0  0  0
 18  8  1  0  0  0  0
 19 13  2  0  0  0  0
 20  6  1  0  0  0  0
 21 18  1  0  0  0  0
 23 28  1  0  0  0  0
 23 14  1  0  0  0  0
 24  2  1  0  0  0  0
 24 26  1  1  0  0  0
 25  7  2  0  0  0  0
 26 22  2  0  0  0  0
 27 25  1  0  0  0  0
 29 32  1  0  0  0  0
 30 11  2  0  0  0  0
 31  2  1  0  0  0  0
 32  1  2  0  0  0  0
 32  3  1  0  0  0  0
 33 34  1  0  0  0  0
 35 34  1  0  0  0  0
 35 36  1  0  0  0  0
 37 35  1  0  0  0  0
 39 38  1  0  0  0  0
 40 39  1  0  0  0  0
 41 40  1  0  0  0  0
 42 47  1  0  0  0  0
 43 44  1  0  0  0  0
 44 41  1  0  0  0  0
 45 46  1  0  0  0  0
 45 42  2  0  0  0  0
 46 43  2  0  0  0  0
 47 44  2  0  0  0  0
M  END
>  <MODEL>
1

>  <REMARK>
 VINA RESULT:      -1.5      0.000      0.000
  Name = 
  8 active torsions:
  status: ('A' for Active; 'I' for Inactive)
    1  A    between atoms: C_3  and  C_6
    2  A    between atoms: C_3  and  C_25
    3  A    between atoms: C_5  and  C_40
    4  A    between atoms: C_10  and  C_33
    5  A    between atoms: C_10  and  C_40
    6  A    between atoms: C_19  and  C_25
    7  A    between atoms: C_23  and  C_46
    8  A    between atoms: C_33  and  C_46
                            x       y       z     vdW  Elec       q    Type
                         _______ _______ _______ _____ _____    ______ ____

>  <TORSDO>
F 8

$$$$
=
 OpenBabel11042421513D

 47 51  0  0  1  0  0  0  0  0999 V2000
  162.9990  208.3080  148.3730 O   0  0  0  0  0  0  0  0  0  0  0  0
  157.9270  214.4530  150.9660 S   0  0  0  0  0  0  0  0  0  0  0  0
  160.9480  209.4570  148.2480 C   0  0  0  0  0  2  0  0  0  0  0  0
  160.7730  210.5010  155.8900 C   0  0  2  0  0  3  0  0  0  0  0  0
  160.0990  208.6080  154.4570 N   0  0  0  0  0  2  0  0  0  0  0  0
  156.5260  213.3260  155.4490 C   0  0  0  0  0  0  0  0  0  0  0  0
  155.7950  213.4580  152.5400 C   0  0  0  0  0  0  0  0  0  0  0  0
  159.7440  214.3450  153.2040 S   0  0  0  0  0  0  0  0  0  0  0  0
  160.6140  208.0360  153.2940 N   0  0  0  0  0  0  0  0  0  0  0  0
  161.2410  210.6510  147.3970 C   0  0  0  0  0  3  0  0  0  0  0  0
  160.7460  212.3530  149.1480 C   0  0  0  0  0  0  0  0  0  0  0  0
  161.1870  211.9250  147.8010 C   0  0  0  0  0  0  0  0  0  0  0  0
  160.0240  212.7870  155.7190 N   0  0  0  0  0  0  0  0  0  0  0  0
  161.7130  208.4660  151.2510 N   0  0  0  0  0  2  0  0  0  0  0  0
  160.2560  210.0500  154.5210 C   0  0  2  0  0  3  0  0  0  0  0  0
  155.1990  212.9010  151.2930 C   0  0  0  0  0  1  0  0  0  0  0  0
  158.6950  212.3800  155.5300 N   0  0  0  0  0  2  0  0  0  0  0  0
  158.0540  213.8610  153.5710 C   0  0  0  0  0  0  0  0  0  0  0  0
  160.9680  211.9490  155.9110 N   0  0  0  0  0  0  0  0  0  0  0  0
  156.2650  212.6970  156.6230 F   0  0  0  0  0  0  0  0  0  0  0  0
  157.7290  213.2080  154.8760 C   0  0  0  0  0  0  0  0  0  0  0  0
  161.0900  213.6730  149.6060 N   0  0  0  0  0  0  0  0  0  0  0  0
  161.2380  208.8620  152.5350 C   0  0  0  0  0  0  0  0  0  0  0  0
  159.5140  213.7680  151.5040 C   0  0  2  0  0  3  0  0  0  0  0  0
  155.0270  213.5720  153.5840 N   0  0  0  0  0  0  0  0  0  0  0  0
  160.6060  214.3030  150.6370 C   0  0  0  0  0  3  0  0  0  0  0  0
  155.4480  214.1640  154.8440 C   0  0  0  0  0  2  0  0  0  0  0  0
  161.3550  210.5400  153.1420 S   0  0  0  0  0  0  0  0  0  0  0  0
  162.4110  209.3920  150.3770 C   0  0  0  0  0  2  0  0  0  0  0  0
  160.0780  211.5740  149.8820 O   0  0  0  0  0  0  0  0  0  0  0  0
  157.2020  213.9390  152.5270 C   0  0  0  0  0  0  0  0  0  0  0  0
  162.1840  209.0070  148.9550 C   0  0  0  0  0  0  0  0  0  0  0  0
  161.5840  212.9770  146.8110 C   0  0  0  0  0  2  0  0  0  0  0  0
  160.4550  213.2520  145.8220 C   0  0  0  0  0  2  0  0  0  0  0  0
  161.0020  213.5270  144.4270 C   0  0  0  0  0  3  0  0  0  0  0  0
  162.5170  213.5330  144.4900 C   0  0  0  0  0  1  0  0  0  0  0  0
  160.5490  212.4290  143.4740 C   0  0  0  0  0  1  0  0  0  0  0  0
  162.0840  209.8050  156.2520 C   0  0  0  0  0  2  0  0  0  0  0  0
  163.2710  210.7080  155.9620 C   0  0  0  0  0  2  0  0  0  0  0  0
  164.0050  211.0410  157.2520 C   0  0  0  0  0  2  0  0  0  0  0  0
  164.4830  212.4920  157.2490 C   0  0  0  0  0  2  0  0  0  0  0  0
  167.5720  213.7690  155.4440 C   0  0  0  0  0  3  0  0  0  0  0  0
  166.8840  211.7480  157.2600 C   0  0  0  0  0  3  0  0  0  0  0  0
  165.8990  212.6190  156.7800 C   0  0  0  0  0  0  0  0  0  0  0  0
  168.5560  212.9010  155.9260 C   0  0  0  0  0  3  0  0  0  0  0  0
  168.2130  211.8900  156.8350 C   0  0  0  0  0  3  0  0  0  0  0  0
  166.2450  213.6270  155.8700 C   0  0  0  0  0  3  0  0  0  0  0  0
  1 32  2  0  0  0  0
  2 24  1  0  0  0  0
  2 31  1  0  0  0  0
  3 32  1  0  0  0  0
  4 19  1  0  0  0  0
  4 38  1  6  0  0  0
  5 15  1  0  0  0  0
  6 20  1  0  0  0  0
  7 25  2  0  0  0  0
  8 18  1  0  0  0  0
  9  5  1  0  0  0  0
 10 12  2  0  0  0  0
 10  3  1  0  0  0  0
 11 22  1  0  0  0  0
 11 30  2  0  0  0  0
 12 11  1  0  0  0  0
 13 19  2  0  0  0  0
 14 23  1  0  0  0  0
 15 28  1  6  0  0  0
 15  4  1  0  0  0  0
 16  7  1  0  0  0  0
 17 13  1  0  0  0  0
 18 21  1  0  0  0  0
 21  6  2  0  0  0  0
 21 17  1  0  0  0  0
 22 26  2  0  0  0  0
 23 28  1  0  0  0  0
 23  9  2  0  0  0  0
 24 26  1  6  0  0  0
 24  8  1  0  0  0  0
 25 27  1  0  0  0  0
 27  6  1  0  0  0  0
 29 14  1  0  0  0  0
 31  7  1  0  0  0  0
 31 18  2  0  0  0  0
 32 29  1  0  0  0  0
 33 12  1  0  0  0  0
 34 33  1  0  0  0  0
 35 36  1  0  0  0  0
 35 34  1  0  0  0  0
 37 35  1  0  0  0  0
 39 38  1  0  0  0  0
 39 40  1  0  0  0  0
 41 40  1  0  0  0  0
 42 47  2  0  0  0  0
 42 45  1  0  0  0  0
 44 41  1  0  0  0  0
 44 43  2  0  0  0  0
 45 46  2  0  0  0  0
 46 43  1  0  0  0  0
 47 44  1  0  0  0  0
M  END
>  <MODEL>
2

>  <REMARK>
 VINA RESULT:       0.8      3.725     10.210
  Name = 
  8 active torsions:
  status: ('A' for Active; 'I' for Inactive)
    1  A    between atoms: C_3  and  C_6
    2  A    between atoms: C_3  and  C_25
    3  A    between atoms: C_5  and  C_40
    4  A    between atoms: C_10  and  C_33
    5  A    between atoms: C_10  and  C_40
    6  A    between atoms: C_19  and  C_25
    7  A    between atoms: C_23  and  C_46
    8  A    between atoms: C_33  and  C_46
                            x       y       z     vdW  Elec       q    Type
                         _______ _______ _______ _____ _____    ______ ____

>  <TORSDO>
F 8

$$$$
