=
 OpenBabel11042420283D

 31 34  0  0  0  0  0  0  0  0999 V2000
  158.0280  212.6030  153.5320 C   0  0  0  0  0  0  0  0  0  0  0  0
  156.4070  213.1650  155.2400 C   0  0  0  0  0  0  0  0  0  0  0  0
  156.8450  213.2390  153.9150 C   0  0  0  0  0  3  0  0  0  0  0  0
  159.9850  211.2510  154.0900 C   0  0  0  0  0  0  0  0  0  0  0  0
  159.6510  212.0630  151.8250 C   0  0  0  0  0  3  0  0  0  0  0  0
  158.3360  211.8150  155.8100 C   0  0  0  0  0  3  0  0  0  0  0  0
  158.4640  212.6860  152.2100 C   0  0  0  0  0  3  0  0  0  0  0  0
  157.1510  212.4540  156.1850 C   0  0  0  0  0  3  0  0  0  0  0  0
  160.4200  211.3470  152.7560 C   0  0  0  0  0  0  0  0  0  0  0  0
  158.7880  211.8820  154.4840 C   0  0  0  0  0  0  0  0  0  0  0  0
  155.2340  213.8030  155.6180 O   0  0  0  0  0  1  0  0  0  0  0  0
  160.7650  210.5120  155.0430 N   0  0  0  0  0  0  0  0  0  0  0  0
  160.9140  208.1910  154.1920 C   0  0  0  0  0  3  0  0  0  0  0  0
  160.0630  208.5830  156.4220 C   0  0  0  0  0  3  0  0  0  0  0  0
  159.8840  207.2080  156.5930 C   0  0  0  0  0  3  0  0  0  0  0  0
  160.2200  206.3250  155.5630 C   0  0  0  0  0  3  0  0  0  0  0  0
  160.7340  206.8160  154.3630 C   0  0  0  0  0  3  0  0  0  0  0  0
  160.5780  209.0920  155.2190 C   0  0  0  0  0  0  0  0  0  0  0  0
  162.9880  210.7260  155.7310 O   0  0  0  0  0  1  0  0  0  0  0  0
  161.7030  211.2560  155.8760 C   0  0  0  0  0  2  0  0  0  0  0  0
  161.6170  210.7240  152.3770 O   0  0  0  0  0  0  0  0  0  0  0  0
  161.9210  210.3640  151.0350 C   0  0  0  0  0  2  0  0  0  0  0  0
  162.2610  208.8860  150.9510 C   0  0  0  0  0  2  0  0  0  0  0  0
  161.6170  208.2940  149.8280 O   0  0  0  0  0  0  0  0  0  0  0  0
  160.9260  204.9330  148.3880 C   0  0  0  0  0  3  0  0  0  0  0  0
  161.3780  206.1350  150.8740 C   0  0  0  0  0  3  0  0  0  0  0  0
  160.9190  204.1580  149.5520 C   0  0  0  0  0  3  0  0  0  0  0  0
  161.3840  206.9190  149.7150 C   0  0  0  0  0  0  0  0  0  0  0  0
  161.1570  206.3090  148.4690 C   0  0  0  0  0  3  0  0  0  0  0  0
  161.1200  203.9350  152.0320 C   0  0  0  0  0  1  0  0  0  0  0  0
  161.1450  204.7580  150.7940 C   0  0  0  0  0  0  0  0  0  0  0  0
  1  3  1  0  0  0  0
  1 10  1  0  0  0  0
  2 11  1  0  0  0  0
  2  8  1  0  0  0  0
  3  2  2  0  0  0  0
  4 10  2  0  0  0  0
  4 12  1  0  0  0  0
  5  7  1  0  0  0  0
  5  9  2  0  0  0  0
  6  8  2  0  0  0  0
  7  1  2  0  0  0  0
  9  4  1  0  0  0  0
 10  6  1  0  0  0  0
 12 18  1  0  0  0  0
 12 20  1  0  0  0  0
 13 17  2  0  0  0  0
 13 18  1  0  0  0  0
 14 15  1  0  0  0  0
 16 15  2  0  0  0  0
 17 16  1  0  0  0  0
 18 14  2  0  0  0  0
 19 20  1  0  0  0  0
 21  9  1  0  0  0  0
 22 21  1  0  0  0  0
 23 22  1  0  0  0  0
 24 23  1  0  0  0  0
 25 29  2  0  0  0  0
 25 27  1  0  0  0  0
 27 31  2  0  0  0  0
 28 24  1  0  0  0  0
 28 26  2  0  0  0  0
 29 28  1  0  0  0  0
 31 26  1  0  0  0  0
 31 30  1  0  0  0  0
M  END
>  <MODEL>
1

>  <REMARK>
 VINA RESULT:      -7.1      0.000      0.000
  Name = 
  8 active torsions:
  status: ('A' for Active; 'I' for Inactive)
    1  A    between atoms: C_10  and  N_28
    2  A    between atoms: C_16  and  O_23
    3  A    between atoms: C_18  and  C_22
    4  A    between atoms: C_18  and  O_23
    5  A    between atoms: C_19  and  O_29
    6  A    between atoms: C_22  and  O_29
    7  A    between atoms: C_24  and  N_28
    8  A    between atoms: N_28  and  C_30
                            x       y       z     vdW  Elec       q    Type
                         _______ _______ _______ _____ _____    ______ ____

>  <TORSDO>
F 8

$$$$
=
 OpenBabel11042420283D

 31 34  0  0  0  0  0  0  0  0999 V2000
  160.9770  203.9240  150.7310 C   0  0  0  0  0  0  0  0  0  0  0  0
  160.8670  201.9070  149.3960 C   0  0  0  0  0  0  0  0  0  0  0  0
  160.7550  202.5480  150.6320 C   0  0  0  0  0  3  0  0  0  0  0  0
  161.5480  206.0590  149.6920 C   0  0  0  0  0  0  0  0  0  0  0  0
  161.1030  205.9270  152.0760 C   0  0  0  0  0  3  0  0  0  0  0  0
  161.4250  204.0180  148.3460 C   0  0  0  0  0  3  0  0  0  0  0  0
  160.8700  204.5560  151.9700 C   0  0  0  0  0  3  0  0  0  0  0  0
  161.2010  202.6420  148.2540 C   0  0  0  0  0  3  0  0  0  0  0  0
  161.4460  206.6860  150.9470 C   0  0  0  0  0  0  0  0  0  0  0  0
  161.3170  204.6730  149.5810 C   0  0  0  0  0  0  0  0  0  0  0  0
  160.6510  200.5400  149.3020 O   0  0  0  0  0  1  0  0  0  0  0  0
  161.8890  206.8350  148.5330 N   0  0  0  0  0  0  0  0  0  0  0  0
  162.6040  205.7410  146.4290 C   0  0  0  0  0  3  0  0  0  0  0  0
  160.3140  206.4860  146.6590 C   0  0  0  0  0  3  0  0  0  0  0  0
  160.0350  206.0190  145.3720 C   0  0  0  0  0  3  0  0  0  0  0  0
  161.0410  205.4140  144.6140 C   0  0  0  0  0  3  0  0  0  0  0  0
  162.3250  205.2750  145.1430 C   0  0  0  0  0  3  0  0  0  0  0  0
  161.6020  206.3550  147.2030 C   0  0  0  0  0  0  0  0  0  0  0  0
  161.8070  209.1600  148.3150 O   0  0  0  0  0  1  0  0  0  0  0  0
  162.6000  208.0920  148.7420 C   0  0  0  0  0  2  0  0  0  0  0  0
  161.6880  208.0630  151.0480 O   0  0  0  0  0  0  0  0  0  0  0  0
  160.8780  208.9450  151.8160 C   0  0  0  0  0  2  0  0  0  0  0  0
  161.7050  210.1180  152.3150 C   0  0  0  0  0  2  0  0  0  0  0  0
  161.1700  210.6140  153.5380 O   0  0  0  0  0  0  0  0  0  0  0  0
  162.6490  209.9160  156.8800 C   0  0  0  0  0  3  0  0  0  0  0  0
  160.6750  208.9110  155.1720 C   0  0  0  0  0  3  0  0  0  0  0  0
  161.8970  208.8010  157.2600 C   0  0  0  0  0  3  0  0  0  0  0  0
  161.4270  210.0250  154.7810 C   0  0  0  0  0  0  0  0  0  0  0  0
  162.4160  210.5250  155.6450 C   0  0  0  0  0  3  0  0  0  0  0  0
  160.1220  207.1030  156.8050 C   0  0  0  0  0  1  0  0  0  0  0  0
  160.9100  208.2990  156.4070 C   0  0  0  0  0  0  0  0  0  0  0  0
  1  7  1  0  0  0  0
  2  3  1  0  0  0  0
  3  1  2  0  0  0  0
  4  9  2  0  0  0  0
  6 10  2  0  0  0  0
  7  5  2  0  0  0  0
  8  6  1  0  0  0  0
  8  2  2  0  0  0  0
  9 21  1  0  0  0  0
  9  5  1  0  0  0  0
 10  4  1  0  0  0  0
 10  1  1  0  0  0  0
 11  2  1  0  0  0  0
 12 20  1  0  0  0  0
 12  4  1  0  0  0  0
 13 18  1  0  0  0  0
 14 18  2  0  0  0  0
 15 14  1  0  0  0  0
 16 17  1  0  0  0  0
 16 15  2  0  0  0  0
 17 13  2  0  0  0  0
 18 12  1  0  0  0  0
 19 20  1  0  0  0  0
 21 22  1  0  0  0  0
 22 23  1  0  0  0  0
 23 24  1  0  0  0  0
 24 28  1  0  0  0  0
 25 27  1  0  0  0  0
 26 31  1  0  0  0  0
 28 26  2  0  0  0  0
 28 29  1  0  0  0  0
 29 25  2  0  0  0  0
 31 30  1  0  0  0  0
 31 27  2  0  0  0  0
M  END
>  <MODEL>
2

>  <REMARK>
 VINA RESULT:      -7.0      3.157      8.826
  Name = 
  8 active torsions:
  status: ('A' for Active; 'I' for Inactive)
    1  A    between atoms: C_10  and  N_28
    2  A    between atoms: C_16  and  O_23
    3  A    between atoms: C_18  and  C_22
    4  A    between atoms: C_18  and  O_23
    5  A    between atoms: C_19  and  O_29
    6  A    between atoms: C_22  and  O_29
    7  A    between atoms: C_24  and  N_28
    8  A    between atoms: N_28  and  C_30
                            x       y       z     vdW  Elec       q    Type
                         _______ _______ _______ _____ _____    ______ ____

>  <TORSDO>
F 8

$$$$
=
 OpenBabel11042420283D

 31 34  0  0  0  0  0  0  0  0999 V2000
  161.5510  206.8240  150.6000 C   0  0  0  0  0  0  0  0  0  0  0  0
  161.0560  205.0650  152.1870 C   0  0  0  0  0  0  0  0  0  0  0  0
  161.3530  205.4710  150.8840 C   0  0  0  0  0  3  0  0  0  0  0  0
  161.6460  209.1530  151.3330 C   0  0  0  0  0  0  0  0  0  0  0  0
  162.0270  208.5750  149.0040 C   0  0  0  0  0  3  0  0  0  0  0  0
  161.1570  207.3670  152.9350 C   0  0  0  0  0  3  0  0  0  0  0  0
  161.8400  207.2240  149.2950 C   0  0  0  0  0  3  0  0  0  0  0  0
  160.9600  206.0120  153.2120 C   0  0  0  0  0  3  0  0  0  0  0  0
  161.9290  209.5460  150.0130 C   0  0  0  0  0  0  0  0  0  0  0  0
  161.4530  207.7880  151.6300 C   0  0  0  0  0  0  0  0  0  0  0  0
  160.8540  203.7210  152.4650 O   0  0  0  0  0  1  0  0  0  0  0  0
  161.5550  210.1430  152.3680 N   0  0  0  0  0  0  0  0  0  0  0  0
  159.2760  210.6050  153.2210 C   0  0  0  0  0  3  0  0  0  0  0  0
  160.3860  212.2600  151.8490 C   0  0  0  0  0  3  0  0  0  0  0  0
  159.2700  213.0940  151.9570 C   0  0  0  0  0  3  0  0  0  0  0  0
  158.1580  212.6830  152.6960 C   0  0  0  0  0  3  0  0  0  0  0  0
  158.1610  211.4390  153.3280 C   0  0  0  0  0  3  0  0  0  0  0  0
  160.4020  211.0040  152.4770 C   0  0  0  0  0  0  0  0  0  0  0  0
  162.2510  210.6070  154.5500 O   0  0  0  0  0  1  0  0  0  0  0  0
  162.6970  210.2980  153.2630 C   0  0  0  0  0  2  0  0  0  0  0  0
  162.1100  210.9070  149.7250 O   0  0  0  0  0  0  0  0  0  0  0  0
  162.1970  211.4220  148.4020 C   0  0  0  0  0  2  0  0  0  0  0  0
  162.0380  212.9330  148.4150 C   0  0  0  0  0  2  0  0  0  0  0  0
  161.3220  213.3640  147.2630 O   0  0  0  0  0  0  0  0  0  0  0  0
  158.0630  212.4810  145.6970 C   0  0  0  0  0  3  0  0  0  0  0  0
  159.0830  213.3340  148.1600 C   0  0  0  0  0  3  0  0  0  0  0  0
  157.2010  212.6880  146.7780 C   0  0  0  0  0  3  0  0  0  0  0  0
  159.9530  213.1330  147.0820 C   0  0  0  0  0  0  0  0  0  0  0  0
  159.4350  212.7030  145.8480 C   0  0  0  0  0  3  0  0  0  0  0  0
  156.7890  213.3500  149.1510 C   0  0  0  0  0  1  0  0  0  0  0  0
  157.7100  213.1140  148.0080 C   0  0  0  0  0  0  0  0  0  0  0  0
  1  3  1  0  0  0  0
  1 10  1  0  0  0  0
  2 11  1  0  0  0  0
  2  8  1  0  0  0  0
  3  2  2  0  0  0  0
  4 10  2  0  0  0  0
  4 12  1  0  0  0  0
  5  7  1  0  0  0  0
  5  9  2  0  0  0  0
  6  8  2  0  0  0  0
  7  1  2  0  0  0  0
  9  4  1  0  0  0  0
 10  6  1  0  0  0  0
 12 18  1  0  0  0  0
 12 20  1  0  0  0  0
 13 17  1  0  0  0  0
 14 15  2  0  0  0  0
 14 18  1  0  0  0  0
 15 16  1  0  0  0  0
 16 17  2  0  0  0  0
 18 13  2  0  0  0  0
 20 19  1  0  0  0  0
 21  9  1  0  0  0  0
 22 23  1  0  0  0  0
 22 21  1  0  0  0  0
 24 23  1  0  0  0  0
 25 29  2  0  0  0  0
 25 27  1  0  0  0  0
 27 31  2  0  0  0  0
 28 24  1  0  0  0  0
 28 26  2  0  0  0  0
 29 28  1  0  0  0  0
 31 26  1  0  0  0  0
 31 30  1  0  0  0  0
M  END
>  <MODEL>
3

>  <REMARK>
 VINA RESULT:      -7.0      3.125      6.810
  Name = 
  8 active torsions:
  status: ('A' for Active; 'I' for Inactive)
    1  A    between atoms: C_10  and  N_28
    2  A    between atoms: C_16  and  O_23
    3  A    between atoms: C_18  and  C_22
    4  A    between atoms: C_18  and  O_23
    5  A    between atoms: C_19  and  O_29
    6  A    between atoms: C_22  and  O_29
    7  A    between atoms: C_24  and  N_28
    8  A    between atoms: N_28  and  C_30
                            x       y       z     vdW  Elec       q    Type
                         _______ _______ _______ _____ _____    ______ ____

>  <TORSDO>
F 8

$$$$
=
 OpenBabel11042420283D

 31 34  0  0  0  0  0  0  0  0999 V2000
  160.4150  208.2770  154.5830 C   0  0  0  0  0  0  0  0  0  0  0  0
  159.4540  210.4090  155.2060 C   0  0  0  0  0  0  0  0  0  0  0  0
  159.7460  209.0790  155.5130 C   0  0  0  0  0  3  0  0  0  0  0  0
  161.4630  207.9910  152.3960 C   0  0  0  0  0  0  0  0  0  0  0  0
  161.3530  206.1390  153.9630 C   0  0  0  0  0  3  0  0  0  0  0  0
  160.4990  210.1480  153.0370 C   0  0  0  0  0  3  0  0  0  0  0  0
  160.6980  206.9460  154.8920 C   0  0  0  0  0  3  0  0  0  0  0  0
  159.8300  210.9440  153.9710 C   0  0  0  0  0  3  0  0  0  0  0  0
  161.7370  206.6490  152.7130 C   0  0  0  0  0  0  0  0  0  0  0  0
  160.7970  208.8100  153.3300 C   0  0  0  0  0  0  0  0  0  0  0  0
  158.7850  211.2010  156.1290 O   0  0  0  0  0  1  0  0  0  0  0  0
  161.8620  208.5180  151.1210 N   0  0  0  0  0  0  0  0  0  0  0  0
  162.6630  207.6520  148.9440 C   0  0  0  0  0  3  0  0  0  0  0  0
  160.4070  207.1520  149.6610 C   0  0  0  0  0  3  0  0  0  0  0  0
  160.1960  206.4290  148.4830 C   0  0  0  0  0  3  0  0  0  0  0  0
  161.2180  206.3200  147.5370 C   0  0  0  0  0  3  0  0  0  0  0  0
  162.4510  206.9300  147.7670 C   0  0  0  0  0  3  0  0  0  0  0  0
  161.6420  207.7740  149.9040 C   0  0  0  0  0  0  0  0  0  0  0  0
  162.0230  210.6180  150.1080 O   0  0  0  0  0  1  0  0  0  0  0  0
  162.5610  209.7990  151.1040 C   0  0  0  0  0  2  0  0  0  0  0  0
  162.3910  205.8400  151.7730 O   0  0  0  0  0  0  0  0  0  0  0  0
  162.1780  204.4380  151.6650 C   0  0  0  0  0  2  0  0  0  0  0  0
  160.8950  204.1580  150.9010 C   0  0  0  0  0  2  0  0  0  0  0  0
  160.7650  202.7630  150.6480 O   0  0  0  0  0  0  0  0  0  0  0  0
  161.2280  200.2640  147.9300 C   0  0  0  0  0  3  0  0  0  0  0  0
  161.0310  203.0350  148.2670 C   0  0  0  0  0  3  0  0  0  0  0  0
  161.3150  201.1110  146.8220 C   0  0  0  0  0  3  0  0  0  0  0  0
  160.9470  202.1940  149.3830 C   0  0  0  0  0  0  0  0  0  0  0  0
  161.0460  200.8030  149.2060 C   0  0  0  0  0  3  0  0  0  0  0  0
  161.3270  203.3960  145.8120 C   0  0  0  0  0  1  0  0  0  0  0  0
  161.2170  202.4960  146.9900 C   0  0  0  0  0  0  0  0  0  0  0  0
  1  7  1  0  0  0  0
  1  3  2  0  0  0  0
  2  3  1  0  0  0  0
  2 11  1  0  0  0  0
  4  9  2  0  0  0  0
  4 10  1  0  0  0  0
  5  7  2  0  0  0  0
  6 10  2  0  0  0  0
  6  8  1  0  0  0  0
  8  2  2  0  0  0  0
  9  5  1  0  0  0  0
 10  1  1  0  0  0  0
 12  4  1  0  0  0  0
 13 18  1  0  0  0  0
 14 18  2  0  0  0  0
 15 14  1  0  0  0  0
 16 17  1  0  0  0  0
 16 15  2  0  0  0  0
 17 13  2  0  0  0  0
 18 12  1  0  0  0  0
 19 20  1  0  0  0  0
 20 12  1  0  0  0  0
 21  9  1  0  0  0  0
 22 21  1  0  0  0  0
 23 22  1  0  0  0  0
 24 23  1  0  0  0  0
 25 29  1  0  0  0  0
 26 28  1  0  0  0  0
 27 31  1  0  0  0  0
 27 25  2  0  0  0  0
 28 24  1  0  0  0  0
 29 28  2  0  0  0  0
 30 31  1  0  0  0  0
 31 26  2  0  0  0  0
M  END
>  <MODEL>
4

>  <REMARK>
 VINA RESULT:      -6.9      2.429      5.427
  Name = 
  8 active torsions:
  status: ('A' for Active; 'I' for Inactive)
    1  A    between atoms: C_10  and  N_28
    2  A    between atoms: C_16  and  O_23
    3  A    between atoms: C_18  and  C_22
    4  A    between atoms: C_18  and  O_23
    5  A    between atoms: C_19  and  O_29
    6  A    between atoms: C_22  and  O_29
    7  A    between atoms: C_24  and  N_28
    8  A    between atoms: N_28  and  C_30
                            x       y       z     vdW  Elec       q    Type
                         _______ _______ _______ _____ _____    ______ ____

>  <TORSDO>
F 8

$$$$
=
 OpenBabel11042420283D

 31 34  0  0  0  0  0  0  0  0999 V2000
  160.9260  203.4840  150.4600 C   0  0  0  0  0  0  0  0  0  0  0  0
  161.0360  201.5750  148.9770 C   0  0  0  0  0  0  0  0  0  0  0  0
  160.8130  202.1080  150.2480 C   0  0  0  0  0  3  0  0  0  0  0  0
  161.3860  205.7290  149.6150 C   0  0  0  0  0  0  0  0  0  0  0  0
  160.8330  205.3810  151.9540 C   0  0  0  0  0  3  0  0  0  0  0  0
  161.4850  203.7950  148.1170 C   0  0  0  0  0  3  0  0  0  0  0  0
  160.7090  204.0090  151.7340 C   0  0  0  0  0  3  0  0  0  0  0  0
  161.3700  202.4170  147.9120 C   0  0  0  0  0  3  0  0  0  0  0  0
  161.1740  206.2480  150.9040 C   0  0  0  0  0  0  0  0  0  0  0  0
  161.2660  204.3430  149.3890 C   0  0  0  0  0  0  0  0  0  0  0  0
  160.9280  200.2070  148.7700 O   0  0  0  0  0  1  0  0  0  0  0  0
  161.7260  206.6150  148.5370 N   0  0  0  0  0  0  0  0  0  0  0  0
  160.2610  206.2380  146.5760 C   0  0  0  0  0  3  0  0  0  0  0  0
  162.6360  205.8210  146.3790 C   0  0  0  0  0  3  0  0  0  0  0  0
  162.4570  205.4420  145.0460 C   0  0  0  0  0  3  0  0  0  0  0  0
  161.1790  205.4600  144.4790 C   0  0  0  0  0  3  0  0  0  0  0  0
  160.0820  205.8580  145.2440 C   0  0  0  0  0  3  0  0  0  0  0  0
  161.5410  206.2210  147.1610 C   0  0  0  0  0  0  0  0  0  0  0  0
  161.6190  208.9330  148.2650 O   0  0  0  0  0  1  0  0  0  0  0  0
  162.3310  207.8990  148.8770 C   0  0  0  0  0  2  0  0  0  0  0  0
  161.3050  207.6270  151.1200 O   0  0  0  0  0  0  0  0  0  0  0  0
  161.2780  208.2230  152.4110 C   0  0  0  0  0  2  0  0  0  0  0  0
  161.9250  209.5980  152.3690 C   0  0  0  0  0  2  0  0  0  0  0  0
  160.9500  210.5930  152.0760 O   0  0  0  0  0  0  0  0  0  0  0  0
  157.9580  212.0130  153.7740 C   0  0  0  0  0  3  0  0  0  0  0  0
  160.6410  211.4340  154.3150 C   0  0  0  0  0  3  0  0  0  0  0  0
  158.4920  212.2900  155.0350 C   0  0  0  0  0  3  0  0  0  0  0  0
  160.1150  211.1570  153.0480 C   0  0  0  0  0  0  0  0  0  0  0  0
  158.7670  211.4500  152.7830 C   0  0  0  0  0  3  0  0  0  0  0  0
  160.4040  212.3110  156.6430 C   0  0  0  0  0  1  0  0  0  0  0  0
  159.8330  212.0010  155.3060 C   0  0  0  0  0  0  0  0  0  0  0  0
  1  7  1  0  0  0  0
  2  3  1  0  0  0  0
  3  1  2  0  0  0  0
  4  9  2  0  0  0  0
  6 10  2  0  0  0  0
  7  5  2  0  0  0  0
  8  6  1  0  0  0  0
  8  2  2  0  0  0  0
  9 21  1  0  0  0  0
  9  5  1  0  0  0  0
 10  4  1  0  0  0  0
 10  1  1  0  0  0  0
 11  2  1  0  0  0  0
 12 20  1  0  0  0  0
 12  4  1  0  0  0  0
 13 18  1  0  0  0  0
 14 18  2  0  0  0  0
 15 14  1  0  0  0  0
 16 15  2  0  0  0  0
 16 17  1  0  0  0  0
 17 13  2  0  0  0  0
 18 12  1  0  0  0  0
 19 20  1  0  0  0  0
 21 22  1  0  0  0  0
 23 22  1  0  0  0  0
 24 23  1  0  0  0  0
 24 28  1  0  0  0  0
 25 27  1  0  0  0  0
 26 31  1  0  0  0  0
 27 31  2  0  0  0  0
 28 26  2  0  0  0  0
 29 28  1  0  0  0  0
 29 25  2  0  0  0  0
 31 30  1  0  0  0  0
M  END
>  <MODEL>
5

>  <REMARK>
 VINA RESULT:      -6.7      2.726      9.202
  Name = 
  8 active torsions:
  status: ('A' for Active; 'I' for Inactive)
    1  A    between atoms: C_10  and  N_28
    2  A    between atoms: C_16  and  O_23
    3  A    between atoms: C_18  and  C_22
    4  A    between atoms: C_18  and  O_23
    5  A    between atoms: C_19  and  O_29
    6  A    between atoms: C_22  and  O_29
    7  A    between atoms: C_24  and  N_28
    8  A    between atoms: N_28  and  C_30
                            x       y       z     vdW  Elec       q    Type
                         _______ _______ _______ _____ _____    ______ ____

>  <TORSDO>
F 8

$$$$
=
 OpenBabel11042420283D

 31 34  0  0  0  0  0  0  0  0999 V2000
  161.1940  202.4360  150.0440 C   0  0  0  0  0  0  0  0  0  0  0  0
  161.2020  200.9990  148.0960 C   0  0  0  0  0  0  0  0  0  0  0  0
  161.1950  201.1560  149.4840 C   0  0  0  0  0  3  0  0  0  0  0  0
  161.2090  204.8640  149.7830 C   0  0  0  0  0  0  0  0  0  0  0  0
  161.2070  203.8610  151.9950 C   0  0  0  0  0  3  0  0  0  0  0  0
  161.2050  203.4050  147.8170 C   0  0  0  0  0  3  0  0  0  0  0  0
  161.1950  202.5860  151.4310 C   0  0  0  0  0  3  0  0  0  0  0  0
  161.2060  202.1220  147.2630 C   0  0  0  0  0  3  0  0  0  0  0  0
  161.2170  205.0050  151.1820 C   0  0  0  0  0  0  0  0  0  0  0  0
  161.2000  203.5770  149.2080 C   0  0  0  0  0  0  0  0  0  0  0  0
  161.2080  199.7260  147.5430 O   0  0  0  0  0  1  0  0  0  0  0  0
  161.2100  206.0330  148.9480 N   0  0  0  0  0  0  0  0  0  0  0  0
  160.2590  206.2030  146.6680 C   0  0  0  0  0  3  0  0  0  0  0  0
  162.5730  205.5530  146.9410 C   0  0  0  0  0  3  0  0  0  0  0  0
  162.7070  205.4530  145.5540 C   0  0  0  0  0  3  0  0  0  0  0  0
  161.6150  205.7270  144.7250 C   0  0  0  0  0  3  0  0  0  0  0  0
  160.3920  206.1020  145.2820 C   0  0  0  0  0  3  0  0  0  0  0  0
  161.3470  205.9270  147.5150 C   0  0  0  0  0  0  0  0  0  0  0  0
  162.2110  208.1310  149.1900 O   0  0  0  0  0  1  0  0  0  0  0  0
  161.1390  207.3350  149.6030 C   0  0  0  0  0  2  0  0  0  0  0  0
  161.2350  206.2900  151.7420 O   0  0  0  0  0  0  0  0  0  0  0  0
  161.8550  206.5920  152.9870 C   0  0  0  0  0  2  0  0  0  0  0  0
  160.8220  207.1040  153.9770 C   0  0  0  0  0  2  0  0  0  0  0  0
  161.2450  208.3460  154.5320 O   0  0  0  0  0  0  0  0  0  0  0  0
  159.9540  211.1020  152.3900 C   0  0  0  0  0  3  0  0  0  0  0  0
  160.4770  210.5640  155.0860 C   0  0  0  0  0  3  0  0  0  0  0  0
  159.7060  212.0780  153.3600 C   0  0  0  0  0  3  0  0  0  0  0  0
  160.7320  209.5820  154.1220 C   0  0  0  0  0  0  0  0  0  0  0  0
  160.4660  209.8590  152.7690 C   0  0  0  0  0  3  0  0  0  0  0  0
  159.7190  212.8550  155.7340 C   0  0  0  0  0  1  0  0  0  0  0  0
  159.9670  211.8090  154.7060 C   0  0  0  0  0  0  0  0  0  0  0  0
  1  7  1  0  0  0  0
  2  3  1  0  0  0  0
  3  1  2  0  0  0  0
  4  9  2  0  0  0  0
  6 10  2  0  0  0  0
  7  5  2  0  0  0  0
  8  6  1  0  0  0  0
  8  2  2  0  0  0  0
  9 21  1  0  0  0  0
  9  5  1  0  0  0  0
 10  4  1  0  0  0  0
 10  1  1  0  0  0  0
 11  2  1  0  0  0  0
 12 20  1  0  0  0  0
 12  4  1  0  0  0  0
 13 18  1  0  0  0  0
 14 18  2  0  0  0  0
 15 14  1  0  0  0  0
 16 17  1  0  0  0  0
 16 15  2  0  0  0  0
 17 13  2  0  0  0  0
 18 12  1  0  0  0  0
 19 20  1  0  0  0  0
 21 22  1  0  0  0  0
 22 23  1  0  0  0  0
 23 24  1  0  0  0  0
 25 29  2  0  0  0  0
 25 27  1  0  0  0  0
 27 31  2  0  0  0  0
 28 24  1  0  0  0  0
 28 26  2  0  0  0  0
 29 28  1  0  0  0  0
 31 26  1  0  0  0  0
 31 30  1  0  0  0  0
M  END
>  <MODEL>
6

>  <REMARK>
 VINA RESULT:      -6.6      2.876      9.444
  Name = 
  8 active torsions:
  status: ('A' for Active; 'I' for Inactive)
    1  A    between atoms: C_10  and  N_28
    2  A    between atoms: C_16  and  O_23
    3  A    between atoms: C_18  and  C_22
    4  A    between atoms: C_18  and  O_23
    5  A    between atoms: C_19  and  O_29
    6  A    between atoms: C_22  and  O_29
    7  A    between atoms: C_24  and  N_28
    8  A    between atoms: N_28  and  C_30
                            x       y       z     vdW  Elec       q    Type
                         _______ _______ _______ _____ _____    ______ ____

>  <TORSDO>
F 8

$$$$
=
 OpenBabel11042420283D

 31 34  0  0  0  0  0  0  0  0999 V2000
  160.9540  203.7030  150.5520 C   0  0  0  0  0  0  0  0  0  0  0  0
  160.8430  201.7470  149.1290 C   0  0  0  0  0  0  0  0  0  0  0  0
  160.7130  202.3360  150.3890 C   0  0  0  0  0  3  0  0  0  0  0  0
  161.5790  205.8710  149.6170 C   0  0  0  0  0  0  0  0  0  0  0  0
  161.0810  205.6440  151.9840 C   0  0  0  0  0  3  0  0  0  0  0  0
  161.4550  203.8910  148.1820 C   0  0  0  0  0  3  0  0  0  0  0  0
  160.8290  204.2830  151.8140 C   0  0  0  0  0  3  0  0  0  0  0  0
  161.2120  202.5240  148.0270 C   0  0  0  0  0  3  0  0  0  0  0  0
  161.4590  206.4450  150.8950 C   0  0  0  0  0  0  0  0  0  0  0  0
  161.3300  204.4950  149.4420 C   0  0  0  0  0  0  0  0  0  0  0  0
  160.6090  200.3880  148.9720 O   0  0  0  0  0  1  0  0  0  0  0  0
  161.9570  206.6900  148.5000 N   0  0  0  0  0  0  0  0  0  0  0  0
  162.6970  205.6730  146.3670 C   0  0  0  0  0  3  0  0  0  0  0  0
  160.4160  206.4500  146.5810 C   0  0  0  0  0  3  0  0  0  0  0  0
  160.1570  206.0440  145.2690 C   0  0  0  0  0  3  0  0  0  0  0  0
  161.1680  205.4530  144.5070 C   0  0  0  0  0  3  0  0  0  0  0  0
  162.4380  205.2680  145.0560 C   0  0  0  0  0  3  0  0  0  0  0  0
  161.6900  206.2730  147.1450 C   0  0  0  0  0  0  0  0  0  0  0  0
  161.9560  209.0180  148.2990 O   0  0  0  0  0  1  0  0  0  0  0  0
  162.6830  207.9250  148.7780 C   0  0  0  0  0  2  0  0  0  0  0  0
  161.7190  207.8130  151.0600 O   0  0  0  0  0  0  0  0  0  0  0  0
  161.1190  208.6060  152.0780 C   0  0  0  0  0  2  0  0  0  0  0  0
  161.5950  210.0450  151.9720 C   0  0  0  0  0  2  0  0  0  0  0  0
  161.2160  210.7770  153.1330 O   0  0  0  0  0  0  0  0  0  0  0  0
  158.4910  213.2370  152.5180 C   0  0  0  0  0  3  0  0  0  0  0  0
  159.0780  211.0830  154.2060 C   0  0  0  0  0  3  0  0  0  0  0  0
  157.5700  212.8400  153.4920 C   0  0  0  0  0  3  0  0  0  0  0  0
  160.0070  211.4760  153.2360 C   0  0  0  0  0  0  0  0  0  0  0  0
  159.7060  212.5580  152.3910 C   0  0  0  0  0  3  0  0  0  0  0  0
  156.8900  211.3550  155.3820 C   0  0  0  0  0  1  0  0  0  0  0  0
  157.8630  211.7640  154.3360 C   0  0  0  0  0  0  0  0  0  0  0  0
  1  7  1  0  0  0  0
  2  3  1  0  0  0  0
  3  1  2  0  0  0  0
  4  9  2  0  0  0  0
  6 10  2  0  0  0  0
  7  5  2  0  0  0  0
  8  6  1  0  0  0  0
  8  2  2  0  0  0  0
  9 21  1  0  0  0  0
  9  5  1  0  0  0  0
 10  4  1  0  0  0  0
 10  1  1  0  0  0  0
 11  2  1  0  0  0  0
 12 20  1  0  0  0  0
 12  4  1  0  0  0  0
 13 18  1  0  0  0  0
 14 18  2  0  0  0  0
 15 14  1  0  0  0  0
 16 17  1  0  0  0  0
 16 15  2  0  0  0  0
 17 13  2  0  0  0  0
 18 12  1  0  0  0  0
 19 20  1  0  0  0  0
 21 22  1  0  0  0  0
 23 22  1  0  0  0  0
 23 24  1  0  0  0  0
 24 28  1  0  0  0  0
 25 27  1  0  0  0  0
 26 31  1  0  0  0  0
 27 31  2  0  0  0  0
 28 26  2  0  0  0  0
 29 25  2  0  0  0  0
 29 28  1  0  0  0  0
 31 30  1  0  0  0  0
M  END
>  <MODEL>
7

>  <REMARK>
 VINA RESULT:      -6.6      2.667      9.110
  Name = 
  8 active torsions:
  status: ('A' for Active; 'I' for Inactive)
    1  A    between atoms: C_10  and  N_28
    2  A    between atoms: C_16  and  O_23
    3  A    between atoms: C_18  and  C_22
    4  A    between atoms: C_18  and  O_23
    5  A    between atoms: C_19  and  O_29
    6  A    between atoms: C_22  and  O_29
    7  A    between atoms: C_24  and  N_28
    8  A    between atoms: N_28  and  C_30
                            x       y       z     vdW  Elec       q    Type
                         _______ _______ _______ _____ _____    ______ ____

>  <TORSDO>
F 8

$$$$
=
 OpenBabel11042420283D

 31 34  0  0  0  0  0  0  0  0999 V2000
  161.5250  206.8270  150.7130 C   0  0  0  0  0  0  0  0  0  0  0  0
  161.0440  205.0640  152.3000 C   0  0  0  0  0  0  0  0  0  0  0  0
  161.3290  205.4730  150.9950 C   0  0  0  0  0  3  0  0  0  0  0  0
  161.6270  209.1540  151.4500 C   0  0  0  0  0  0  0  0  0  0  0  0
  161.9870  208.5820  149.1170 C   0  0  0  0  0  3  0  0  0  0  0  0
  161.1520  207.3650  153.0520 C   0  0  0  0  0  3  0  0  0  0  0  0
  161.8020  207.2300  149.4060 C   0  0  0  0  0  3  0  0  0  0  0  0
  160.9560  206.0090  153.3270 C   0  0  0  0  0  3  0  0  0  0  0  0
  161.8980  209.5510  150.1280 C   0  0  0  0  0  0  0  0  0  0  0  0
  161.4360  207.7890  151.7460 C   0  0  0  0  0  0  0  0  0  0  0  0
  160.8440  203.7190  152.5770 O   0  0  0  0  0  1  0  0  0  0  0  0
  161.5450  210.1420  152.4890 N   0  0  0  0  0  0  0  0  0  0  0  0
  159.2860  210.5560  153.4140 C   0  0  0  0  0  3  0  0  0  0  0  0
  160.3130  212.2310  152.0020 C   0  0  0  0  0  3  0  0  0  0  0  0
  159.1840  213.0410  152.1440 C   0  0  0  0  0  3  0  0  0  0  0  0
  158.1050  212.6070  152.9200 C   0  0  0  0  0  3  0  0  0  0  0  0
  158.1560  211.3650  153.5550 C   0  0  0  0  0  3  0  0  0  0  0  0
  160.3770  210.9780  152.6330 C   0  0  0  0  0  0  0  0  0  0  0  0
  162.2970  210.5070  154.6710 O   0  0  0  0  0  1  0  0  0  0  0  0
  162.7100  210.3220  153.3490 C   0  0  0  0  0  2  0  0  0  0  0  0
  162.0760  210.9120  149.8430 O   0  0  0  0  0  0  0  0  0  0  0  0
  162.1530  211.4300  148.5200 C   0  0  0  0  0  2  0  0  0  0  0  0
  161.3960  212.7450  148.4270 C   0  0  0  0  0  2  0  0  0  0  0  0
  161.7040  213.4050  147.2040 O   0  0  0  0  0  0  0  0  0  0  0  0
  159.2870  212.2740  144.6100 C   0  0  0  0  0  3  0  0  0  0  0  0
  161.9660  213.0500  144.8330 C   0  0  0  0  0  3  0  0  0  0  0  0
  160.1060  212.2910  143.4780 C   0  0  0  0  0  3  0  0  0  0  0  0
  161.1530  213.0310  145.9720 C   0  0  0  0  0  0  0  0  0  0  0  0
  159.8080  212.6420  145.8530 C   0  0  0  0  0  3  0  0  0  0  0  0
  162.3200  212.6800  142.3870 C   0  0  0  0  0  1  0  0  0  0  0  0
  161.4450  212.6790  143.5890 C   0  0  0  0  0  0  0  0  0  0  0  0
  1  3  1  0  0  0  0
  1 10  1  0  0  0  0
  2 11  1  0  0  0  0
  2  8  1  0  0  0  0
  3  2  2  0  0  0  0
  4 10  2  0  0  0  0
  4 12  1  0  0  0  0
  5  7  1  0  0  0  0
  5  9  2  0  0  0  0
  6  8  2  0  0  0  0
  7  1  2  0  0  0  0
  9  4  1  0  0  0  0
 10  6  1  0  0  0  0
 12 18  1  0  0  0  0
 12 20  1  0  0  0  0
 13 17  1  0  0  0  0
 14 15  2  0  0  0  0
 14 18  1  0  0  0  0
 15 16  1  0  0  0  0
 16 17  2  0  0  0  0
 18 13  2  0  0  0  0
 20 19  1  0  0  0  0
 21  9  1  0  0  0  0
 22 21  1  0  0  0  0
 23 22  1  0  0  0  0
 24 23  1  0  0  0  0
 25 29  1  0  0  0  0
 26 28  1  0  0  0  0
 27 31  1  0  0  0  0
 27 25  2  0  0  0  0
 28 24  1  0  0  0  0
 29 28  2  0  0  0  0
 30 31  1  0  0  0  0
 31 26  2  0  0  0  0
M  END
>  <MODEL>
8

>  <REMARK>
 VINA RESULT:      -6.5      3.983      7.021
  Name = 
  8 active torsions:
  status: ('A' for Active; 'I' for Inactive)
    1  A    between atoms: C_10  and  N_28
    2  A    between atoms: C_16  and  O_23
    3  A    between atoms: C_18  and  C_22
    4  A    between atoms: C_18  and  O_23
    5  A    between atoms: C_19  and  O_29
    6  A    between atoms: C_22  and  O_29
    7  A    between atoms: C_24  and  N_28
    8  A    between atoms: N_28  and  C_30
                            x       y       z     vdW  Elec       q    Type
                         _______ _______ _______ _____ _____    ______ ____

>  <TORSDO>
F 8

$$$$
=
 OpenBabel11042420283D

 31 34  0  0  0  0  0  0  0  0999 V2000
  160.9680  206.9520  153.5750 C   0  0  0  0  0  0  0  0  0  0  0  0
  160.8900  207.4250  155.9480 C   0  0  0  0  0  0  0  0  0  0  0  0
  160.8540  206.5080  154.8950 C   0  0  0  0  0  3  0  0  0  0  0  0
  161.2230  208.7710  151.9650 C   0  0  0  0  0  0  0  0  0  0  0  0
  161.0240  206.4710  151.2080 C   0  0  0  0  0  3  0  0  0  0  0  0
  161.1550  209.2410  154.3660 C   0  0  0  0  0  3  0  0  0  0  0  0
  160.9240  206.0320  152.5280 C   0  0  0  0  0  3  0  0  0  0  0  0
  161.0410  208.7900  155.6840 C   0  0  0  0  0  3  0  0  0  0  0  0
  161.1700  207.8360  150.9150 C   0  0  0  0  0  0  0  0  0  0  0  0
  161.1190  208.3310  153.3000 C   0  0  0  0  0  0  0  0  0  0  0  0
  160.7710  206.9820  157.2570 O   0  0  0  0  0  1  0  0  0  0  0  0
  161.3820  210.1670  151.6690 N   0  0  0  0  0  0  0  0  0  0  0  0
  160.4040  212.4340  151.4810 C   0  0  0  0  0  3  0  0  0  0  0  0
  159.2350  210.7410  152.7530 C   0  0  0  0  0  3  0  0  0  0  0  0
  158.2240  211.6600  153.0430 C   0  0  0  0  0  3  0  0  0  0  0  0
  158.3040  212.9660  152.5530 C   0  0  0  0  0  3  0  0  0  0  0  0
  159.3940  213.3530  151.7720 C   0  0  0  0  0  3  0  0  0  0  0  0
  160.3390  211.1170  151.9710 C   0  0  0  0  0  0  0  0  0  0  0  0
  162.3000  211.0220  149.6970 O   0  0  0  0  0  1  0  0  0  0  0  0
  162.6050  210.5820  150.9880 C   0  0  0  0  0  2  0  0  0  0  0  0
  161.2660  208.2850  149.5900 O   0  0  0  0  0  0  0  0  0  0  0  0
  162.1490  207.7130  148.6330 C   0  0  0  0  0  2  0  0  0  0  0  0
  161.3610  206.9430  147.5860 C   0  0  0  0  0  2  0  0  0  0  0  0
  162.1030  205.8120  147.1440 O   0  0  0  0  0  0  0  0  0  0  0  0
  161.1480  202.2810  146.4570 C   0  0  0  0  0  3  0  0  0  0  0  0
  161.3100  204.0660  148.6060 C   0  0  0  0  0  3  0  0  0  0  0  0
  160.7880  201.8640  147.7410 C   0  0  0  0  0  3  0  0  0  0  0  0
  161.6690  204.4930  147.3220 C   0  0  0  0  0  0  0  0  0  0  0  0
  161.5850  203.5920  146.2470 C   0  0  0  0  0  3  0  0  0  0  0  0
  160.4700  202.3140  150.1780 C   0  0  0  0  0  1  0  0  0  0  0  0
  160.8690  202.7550  148.8150 C   0  0  0  0  0  0  0  0  0  0  0  0
  1  3  1  0  0  0  0
  2 11  1  0  0  0  0
  3  2  2  0  0  0  0
  4 10  2  0  0  0  0
  5  7  1  0  0  0  0
  6  8  2  0  0  0  0
  7  1  2  0  0  0  0
  8  2  1  0  0  0  0
  9  5  2  0  0  0  0
  9  4  1  0  0  0  0
 10  1  1  0  0  0  0
 10  6  1  0  0  0  0
 12  4  1  0  0  0  0
 12 18  1  0  0  0  0
 13 17  2  0  0  0  0
 13 18  1  0  0  0  0
 14 15  1  0  0  0  0
 16 15  2  0  0  0  0
 17 16  1  0  0  0  0
 18 14  2  0  0  0  0
 19 20  1  0  0  0  0
 20 12  1  0  0  0  0
 21  9  1  0  0  0  0
 22 21  1  0  0  0  0
 23 22  1  0  0  0  0
 24 28  1  0  0  0  0
 24 23  1  0  0  0  0
 25 27  1  0  0  0  0
 26 31  1  0  0  0  0
 27 31  2  0  0  0  0
 28 26  2  0  0  0  0
 29 25  2  0  0  0  0
 29 28  1  0  0  0  0
 31 30  1  0  0  0  0
M  END
>  <MODEL>
9

>  <REMARK>
 VINA RESULT:      -6.5      2.484      5.124
  Name = 
  8 active torsions:
  status: ('A' for Active; 'I' for Inactive)
    1  A    between atoms: C_10  and  N_28
    2  A    between atoms: C_16  and  O_23
    3  A    between atoms: C_18  and  C_22
    4  A    between atoms: C_18  and  O_23
    5  A    between atoms: C_19  and  O_29
    6  A    between atoms: C_22  and  O_29
    7  A    between atoms: C_24  and  N_28
    8  A    between atoms: N_28  and  C_30
                            x       y       z     vdW  Elec       q    Type
                         _______ _______ _______ _____ _____    ______ ____

>  <TORSDO>
F 8

$$$$
