=
 OpenBabel11052409393D

 38 40  0  0  1  0  0  0  0  0999 V2000
  160.7750  205.0270  152.9480 C   0  0  0  0  0  0  0  0  0  0  0  0
  161.5810  204.8190  150.0780 C   0  0  2  0  0  3  0  0  0  0  0  0
  162.4100  206.6020  152.6790 C   0  0  0  0  0  2  0  0  0  0  0  0
  162.2850  207.0330  151.4230 C   0  0  1  0  0  3  0  0  0  0  0  0
  160.4630  206.9840  154.2340 O   0  0  0  0  0  0  0  0  0  0  0  0
  161.2170  206.1650  153.3880 C   0  0  0  0  0  0  0  0  0  0  0  0
  163.0480  205.9450  150.2070 S   0  0  0  0  0  0  0  0  0  0  0  0
  160.2530  208.5280  151.9440 C   0  0  0  0  0  2  0  0  0  0  0  0
  161.5580  203.6920  151.1310 C   0  0  0  0  0  2  0  0  0  0  0  0
  161.2250  207.9380  151.0150 N   0  0  0  0  0  0  0  0  0  0  0  0
  160.5730  203.9580  152.2400 C   0  0  0  0  0  3  0  0  0  0  0  0
  160.9430  209.1710  153.1450 C   0  0  0  0  0  2  0  0  0  0  0  0
  160.7400  208.3760  154.4440 C   0  0  2  0  0  3  0  0  0  0  0  0
  161.6020  205.0770  147.5950 C   0  0  0  0  0  3  0  0  0  0  0  0
  161.2620  203.1930  146.1130 C   0  0  0  0  0  3  0  0  0  0  0  0
  161.4830  204.2350  148.7050 C   0  0  0  0  0  0  0  0  0  0  0  0
  160.8760  200.8970  147.0200 C   0  0  0  0  0  1  0  0  0  0  0  0
  161.1280  202.3480  147.2190 C   0  0  0  0  0  0  0  0  0  0  0  0
  161.6380  205.4580  145.1270 C   0  0  0  0  0  1  0  0  0  0  0  0
  161.2350  202.8670  148.5120 C   0  0  0  0  0  3  0  0  0  0  0  0
  161.4990  204.5570  146.3020 C   0  0  0  0  0  0  0  0  0  0  0  0
  162.9160  209.2690  157.2600 O   0  0  0  0  0  0  0  0  0  0  0  0
  161.8580  209.1620  156.5880 C   0  0  0  0  0  0  0  0  0  0  0  0
  161.9060  208.5380  155.3020 N   0  0  0  0  0  2  0  0  0  0  0  0
  160.5880  209.7340  157.1300 C   0  0  0  0  0  2  0  0  0  0  0  0
  161.1630  211.8170  156.1200 O   0  0  0  0  0  0  0  0  0  0  0  0
  160.2520  211.0080  156.4330 C   0  0  0  0  0  0  0  0  0  0  0  0
  158.8980  211.3030  156.1100 N   0  0  0  0  0  1  0  0  0  0  0  0
  161.2160  208.4660  149.6560 C   0  0  0  0  0  2  0  0  0  0  0  0
  162.2440  209.5730  149.5010 C   0  0  0  0  0  2  0  0  0  0  0  0
  161.8410  210.4780  148.4390 N   0  0  0  0  0  2  0  0  0  0  0  0
  161.9810  211.8260  148.9620 C   0  0  0  0  0  2  0  0  0  0  0  0
  161.1380  212.7890  148.1390 C   0  0  0  0  0  2  0  0  0  0  0  0
  160.8390  212.2140  146.8360 N   0  0  0  0  0  2  0  0  0  0  0  0
  160.0420  213.1870  146.1030 C   0  0  0  0  0  2  0  0  0  0  0  0
  159.0380  212.4720  145.2190 C   0  0  0  0  0  2  0  0  0  0  0  0
  159.2590  212.8450  143.7650 C   0  0  0  0  0  2  0  0  0  0  0  0
  160.6720  212.4790  143.3600 C   0  0  0  0  0  1  0  0  0  0  0  0
  1  6  2  0  0  0  0
  2 16  1  6  0  0  0
  2  7  1  0  0  0  0
  2  9  1  0  0  0  0
  3  6  1  0  0  0  0
  4  3  1  1  0  0  0
  5 13  1  0  0  0  0
  6  5  1  0  0  0  0
  7  4  1  0  0  0  0
  8 12  1  0  0  0  0
  9 11  1  0  0  0  0
 10  4  1  0  0  0  0
 10  8  1  0  0  0  0
 11  1  2  0  0  0  0
 12 13  1  0  0  0  0
 13 24  1  1  0  0  0
 14 16  1  0  0  0  0
 15 21  1  0  0  0  0
 15 18  2  0  0  0  0
 17 18  1  0  0  0  0
 18 20  1  0  0  0  0
 19 21  1  0  0  0  0
 20 16  2  0  0  0  0
 21 14  2  0  0  0  0
 23 25  1  0  0  0  0
 23 22  2  0  0  0  0
 24 23  1  0  0  0  0
 26 27  2  0  0  0  0
 27 25  1  0  0  0  0
 28 27  1  0  0  0  0
 29 10  1  0  0  0  0
 30 29  1  0  0  0  0
 31 32  1  0  0  0  0
 31 30  1  0  0  0  0
 33 32  1  0  0  0  0
 34 33  1  0  0  0  0
 35 34  1  0  0  0  0
 36 35  1  0  0  0  0
 37 36  1  0  0  0  0
 38 37  1  0  0  0  0
M  END
>  <MODEL>
1

>  <REMARK>
 VINA RESULT:      -5.4      0.000      0.000
  Name = 
  13 active torsions:
  status: ('A' for Active; 'I' for Inactive)
    1  A    between atoms: N_2  and  C_3
    2  A    between atoms: N_2  and  C_15
    3  A    between atoms: C_3  and  C_8
    4  A    between atoms: C_5  and  C_9
    5  A    between atoms: C_8  and  N_33
    6  A    between atoms: C_15  and  C_30
    7  A    between atoms: C_16  and  C_27
    8  A    between atoms: C_19  and  C_27
    9  A    between atoms: C_20  and  C_30
   10  A    between atoms: N_24  and  C_29
   11  A    between atoms: C_29  and  C_37
   12  A    between atoms: C_31  and  N_38
   13  A    between atoms: N_33  and  C_37
                            x       y       z     vdW  Elec       q    Type
                         _______ _______ _______ _____ _____    ______ ____

>  <TORSDO>
F 13

$$$$
=
 OpenBabel11052409393D

 38 40  0  0  1  0  0  0  0  0999 V2000
  162.0070  209.2300  150.7200 C   0  0  0  0  0  0  0  0  0  0  0  0
  161.5890  206.9910  148.7850 C   0  0  2  0  0  3  0  0  0  0  0  0
  160.3510  207.9530  151.6450 C   0  0  0  0  0  2  0  0  0  0  0  0
  160.6190  206.7000  151.2710 C   0  0  1  0  0  3  0  0  0  0  0  0
  162.0630  209.1230  153.0790 O   0  0  0  0  0  0  0  0  0  0  0  0
  161.4620  208.8720  151.8420 C   0  0  0  0  0  0  0  0  0  0  0  0
  160.0690  206.3130  149.6000 S   0  0  0  0  0  0  0  0  0  0  0  0
  162.4980  206.3880  153.0050 C   0  0  0  0  0  2  0  0  0  0  0  0
  161.5260  208.5060  148.4970 C   0  0  0  0  0  2  0  0  0  0  0  0
  161.6810  205.9190  151.8780 N   0  0  0  0  0  0  0  0  0  0  0  0
  162.3460  209.3130  149.4690 C   0  0  0  0  0  3  0  0  0  0  0  0
  161.6300  206.9150  154.1460 C   0  0  0  0  0  2  0  0  0  0  0  0
  161.6990  208.4440  154.2900 C   0  0  2  0  0  3  0  0  0  0  0  0
  160.9690  206.2860  146.4720 C   0  0  0  0  0  3  0  0  0  0  0  0
  162.3880  204.8310  145.1570 C   0  0  0  0  0  3  0  0  0  0  0  0
  161.8900  206.2460  147.5230 C   0  0  0  0  0  0  0  0  0  0  0  0
  164.5490  203.9740  146.0720 C   0  0  0  0  0  1  0  0  0  0  0  0
  163.3060  204.7750  146.2100 C   0  0  0  0  0  0  0  0  0  0  0  0
  160.2410  205.6420  144.1720 C   0  0  0  0  0  1  0  0  0  0  0  0
  163.0570  205.4790  147.3920 C   0  0  0  0  0  3  0  0  0  0  0  0
  161.2190  205.5860  145.2890 C   0  0  0  0  0  0  0  0  0  0  0  0
  159.1220  209.9200  156.4450 O   0  0  0  0  0  0  0  0  0  0  0  0
  160.2610  209.5210  156.0880 C   0  0  0  0  0  0  0  0  0  0  0  0
  160.4260  208.9440  154.7900 N   0  0  0  0  0  2  0  0  0  0  0  0
  161.4020  209.6150  157.0500 C   0  0  0  0  0  2  0  0  0  0  0  0
  161.4580  212.0000  157.0070 O   0  0  0  0  0  0  0  0  0  0  0  0
  162.1010  210.9230  156.9020 C   0  0  0  0  0  0  0  0  0  0  0  0
  163.5010  210.9540  156.6530 N   0  0  0  0  0  1  0  0  0  0  0  0
  161.8420  204.5180  151.5100 C   0  0  0  0  0  2  0  0  0  0  0  0
  160.8440  203.6470  152.2520 C   0  0  0  0  0  2  0  0  0  0  0  0
  160.7130  202.3640  151.5850 N   0  0  0  0  0  2  0  0  0  0  0  0
  160.7320  202.6300  150.1570 C   0  0  0  0  0  2  0  0  0  0  0  0
  160.2910  201.3900  149.3940 C   0  0  0  0  0  2  0  0  0  0  0  0
  161.4300  200.7700  148.7340 N   0  0  0  0  0  2  0  0  0  0  0  0
  161.1230  200.6940  147.3130 C   0  0  0  0  0  2  0  0  0  0  0  0
  160.8020  202.0760  146.7790 C   0  0  0  0  0  2  0  0  0  0  0  0
  160.4150  201.9970  145.3140 C   0  0  0  0  0  2  0  0  0  0  0  0
  159.9890  200.5820  144.9810 C   0  0  0  0  0  1  0  0  0  0  0  0
  1  6  2  0  0  0  0
  2 16  1  6  0  0  0
  2  7  1  0  0  0  0
  3  6  1  0  0  0  0
  4  3  1  6  0  0  0
  4 10  1  0  0  0  0
  5 13  1  0  0  0  0
  6  5  1  0  0  0  0
  7  4  1  0  0  0  0
  8 12  1  0  0  0  0
  9  2  1  0  0  0  0
  9 11  1  0  0  0  0
 10  8  1  0  0  0  0
 11  1  2  0  0  0  0
 12 13  1  0  0  0  0
 13 24  1  6  0  0  0
 14 16  1  0  0  0  0
 15 21  1  0  0  0  0
 15 18  2  0  0  0  0
 17 18  1  0  0  0  0
 18 20  1  0  0  0  0
 19 21  1  0  0  0  0
 20 16  2  0  0  0  0
 21 14  2  0  0  0  0
 23 22  2  0  0  0  0
 23 25  1  0  0  0  0
 24 23  1  0  0  0  0
 27 26  2  0  0  0  0
 27 25  1  0  0  0  0
 28 27  1  0  0  0  0
 29 10  1  0  0  0  0
 29 30  1  0  0  0  0
 31 30  1  0  0  0  0
 32 31  1  0  0  0  0
 33 32  1  0  0  0  0
 34 33  1  0  0  0  0
 35 34  1  0  0  0  0
 36 35  1  0  0  0  0
 37 36  1  0  0  0  0
 38 37  1  0  0  0  0
M  END
>  <MODEL>
2

>  <REMARK>
 VINA RESULT:      -4.5      3.040      5.868
  Name = 
  13 active torsions:
  status: ('A' for Active; 'I' for Inactive)
    1  A    between atoms: N_2  and  C_3
    2  A    between atoms: N_2  and  C_15
    3  A    between atoms: C_3  and  C_8
    4  A    between atoms: C_5  and  C_9
    5  A    between atoms: C_8  and  N_33
    6  A    between atoms: C_15  and  C_30
    7  A    between atoms: C_16  and  C_27
    8  A    between atoms: C_19  and  C_27
    9  A    between atoms: C_20  and  C_30
   10  A    between atoms: N_24  and  C_29
   11  A    between atoms: C_29  and  C_37
   12  A    between atoms: C_31  and  N_38
   13  A    between atoms: N_33  and  C_37
                            x       y       z     vdW  Elec       q    Type
                         _______ _______ _______ _____ _____    ______ ____

>  <TORSDO>
F 13

$$$$
=
 OpenBabel11052409393D

 38 40  0  0  1  0  0  0  0  0999 V2000
  162.1990  207.5390  147.6100 C   0  0  0  0  0  0  0  0  0  0  0  0
  161.1760  204.8880  148.5350 C   0  0  2  0  0  3  0  0  0  0  0  0
  160.6540  208.0330  149.2200 C   0  0  0  0  0  2  0  0  0  0  0  0
  160.7150  207.0250  150.0920 C   0  0  1  0  0  3  0  0  0  0  0  0
  162.7300  209.4320  148.9200 O   0  0  0  0  0  0  0  0  0  0  0  0
  161.8650  208.4130  148.5090 C   0  0  0  0  0  0  0  0  0  0  0  0
  159.7970  205.5650  149.5720 S   0  0  0  0  0  0  0  0  0  0  0  0
  162.8710  207.8810  151.2110 C   0  0  0  0  0  2  0  0  0  0  0  0
  161.2030  205.4330  147.0910 C   0  0  0  0  0  2  0  0  0  0  0  0
  161.7980  206.8920  151.0500 N   0  0  0  0  0  0  0  0  0  0  0  0
  162.2810  206.4650  146.8840 C   0  0  0  0  0  3  0  0  0  0  0  0
  162.3120  209.2940  151.3710 C   0  0  0  0  0  2  0  0  0  0  0  0
  162.5580  210.1750  150.1360 C   0  0  2  0  0  3  0  0  0  0  0  0
  161.1070  202.7300  147.2820 C   0  0  0  0  0  3  0  0  0  0  0  0
  161.0180  200.5950  148.4210 C   0  0  0  0  0  3  0  0  0  0  0  0
  161.1360  203.3930  148.5130 C   0  0  0  0  0  0  0  0  0  0  0  0
  160.9940  200.4690  150.9160 C   0  0  0  0  0  1  0  0  0  0  0  0
  161.0320  201.2530  149.6540 C   0  0  0  0  0  0  0  0  0  0  0  0
  161.0350  200.6360  145.9230 C   0  0  0  0  0  1  0  0  0  0  0  0
  161.0890  202.6490  149.7010 C   0  0  0  0  0  3  0  0  0  0  0  0
  161.0550  201.3340  147.2350 C   0  0  0  0  0  0  0  0  0  0  0  0
  160.5110  213.0070  149.0170 O   0  0  0  0  0  0  0  0  0  0  0  0
  161.4900  212.2180  149.0650 C   0  0  0  0  0  0  0  0  0  0  0  0
  161.4700  211.1330  149.9970 N   0  0  0  0  0  2  0  0  0  0  0  0
  162.6710  212.4660  148.1830 C   0  0  0  0  0  2  0  0  0  0  0  0
  161.4880  212.5290  146.1120 O   0  0  0  0  0  0  0  0  0  0  0  0
  162.2450  213.1300  146.9180 C   0  0  0  0  0  0  0  0  0  0  0  0
  162.6850  214.4510  146.6280 N   0  0  0  0  0  1  0  0  0  0  0  0
  161.7420  205.8370  152.0540 C   0  0  0  0  0  2  0  0  0  0  0  0
  161.8860  206.4140  153.4510 C   0  0  0  0  0  2  0  0  0  0  0  0
  160.6800  207.1350  153.8160 N   0  0  0  0  0  2  0  0  0  0  0  0
  160.7730  207.4150  155.2380 C   0  0  0  0  0  2  0  0  0  0  0  0
  160.4790  208.8850  155.4960 C   0  0  0  0  0  2  0  0  0  0  0  0
  161.4750  209.7230  154.8450 N   0  0  0  0  0  2  0  0  0  0  0  0
  160.8590  211.0170  154.5930 C   0  0  0  0  0  2  0  0  0  0  0  0
  159.3900  210.8360  154.2640 C   0  0  0  0  0  2  0  0  0  0  0  0
  159.1250  211.2110  152.8180 C   0  0  0  0  0  2  0  0  0  0  0  0
  159.5810  212.6350  152.5750 C   0  0  0  0  0  1  0  0  0  0  0  0
  1  6  2  0  0  0  0
  2 16  1  6  0  0  0
  2  7  1  0  0  0  0
  4  3  1  6  0  0  0
  4 10  1  0  0  0  0
  5 13  1  0  0  0  0
  6  5  1  0  0  0  0
  6  3  1  0  0  0  0
  7  4  1  0  0  0  0
  8 12  1  0  0  0  0
  9  2  1  0  0  0  0
 10  8  1  0  0  0  0
 10 29  1  0  0  0  0
 11  9  1  0  0  0  0
 11  1  2  0  0  0  0
 13 24  1  6  0  0  0
 13 12  1  0  0  0  0
 14 16  1  0  0  0  0
 15 18  2  0  0  0  0
 16 20  2  0  0  0  0
 18 20  1  0  0  0  0
 18 17  1  0  0  0  0
 19 21  1  0  0  0  0
 21 14  2  0  0  0  0
 21 15  1  0  0  0  0
 22 23  2  0  0  0  0
 23 24  1  0  0  0  0
 25 23  1  0  0  0  0
 26 27  2  0  0  0  0
 27 25  1  0  0  0  0
 28 27  1  0  0  0  0
 29 30  1  0  0  0  0
 30 31  1  0  0  0  0
 31 32  1  0  0  0  0
 32 33  1  0  0  0  0
 34 33  1  0  0  0  0
 35 34  1  0  0  0  0
 36 35  1  0  0  0  0
 37 36  1  0  0  0  0
 38 37  1  0  0  0  0
M  END
>  <MODEL>
3

>  <REMARK>
 VINA RESULT:      -4.4      2.820      6.333
  Name = 
  13 active torsions:
  status: ('A' for Active; 'I' for Inactive)
    1  A    between atoms: N_2  and  C_3
    2  A    between atoms: N_2  and  C_15
    3  A    between atoms: C_3  and  C_8
    4  A    between atoms: C_5  and  C_9
    5  A    between atoms: C_8  and  N_33
    6  A    between atoms: C_15  and  C_30
    7  A    between atoms: C_16  and  C_27
    8  A    between atoms: C_19  and  C_27
    9  A    between atoms: C_20  and  C_30
   10  A    between atoms: N_24  and  C_29
   11  A    between atoms: C_29  and  C_37
   12  A    between atoms: C_31  and  N_38
   13  A    between atoms: N_33  and  C_37
                            x       y       z     vdW  Elec       q    Type
                         _______ _______ _______ _____ _____    ______ ____

>  <TORSDO>
F 13

$$$$
=
 OpenBabel11052409393D

 38 40  0  0  1  0  0  0  0  0999 V2000
  160.8680  206.6230  154.0980 C   0  0  0  0  0  0  0  0  0  0  0  0
  161.4750  205.5870  151.3620 C   0  0  2  0  0  3  0  0  0  0  0  0
  162.3830  208.1000  153.2320 C   0  0  0  0  0  2  0  0  0  0  0  0
  162.1420  208.1270  151.9200 C   0  0  1  0  0  3  0  0  0  0  0  0
  160.5330  208.8650  154.7640 O   0  0  0  0  0  0  0  0  0  0  0  0
  161.2720  207.8550  154.1390 C   0  0  0  0  0  0  0  0  0  0  0  0
  162.8780  206.7490  151.0230 S   0  0  0  0  0  0  0  0  0  0  0  0
  160.0670  209.6370  152.1460 C   0  0  0  0  0  2  0  0  0  0  0  0
  161.5950  204.8300  152.7020 C   0  0  0  0  0  2  0  0  0  0  0  0
  161.0030  208.8280  151.3540 N   0  0  0  0  0  0  0  0  0  0  0  0
  160.6790  205.3830  153.7610 C   0  0  0  0  0  3  0  0  0  0  0  0
  160.8030  210.6360  153.0360 C   0  0  0  0  0  2  0  0  0  0  0  0
  160.7420  210.2640  154.5260 C   0  0  2  0  0  3  0  0  0  0  0  0
  161.5140  205.0450  148.9250 C   0  0  0  0  0  3  0  0  0  0  0  0
  160.9790  202.8330  148.1010 C   0  0  0  0  0  3  0  0  0  0  0  0
  161.3130  204.6120  150.2400 C   0  0  0  0  0  0  0  0  0  0  0  0
  160.3640  200.9890  149.6710 C   0  0  0  0  0  1  0  0  0  0  0  0
  160.7630  202.3970  149.4120 C   0  0  0  0  0  0  0  0  0  0  0  0
  161.5790  204.6230  146.4650 C   0  0  0  0  0  1  0  0  0  0  0  0
  160.9270  203.2840  150.4790 C   0  0  0  0  0  3  0  0  0  0  0  0
  161.3540  204.1570  147.8590 C   0  0  0  0  0  0  0  0  0  0  0  0
  163.0590  211.6780  156.9940 O   0  0  0  0  0  0  0  0  0  0  0  0
  161.9660  211.3040  156.4960 C   0  0  0  0  0  0  0  0  0  0  0  0
  161.9550  210.7180  155.1920 N   0  0  0  0  0  2  0  0  0  0  0  0
  160.7010  211.5290  157.2600 C   0  0  0  0  0  2  0  0  0  0  0  0
  158.9970  212.5650  155.9510 O   0  0  0  0  0  0  0  0  0  0  0  0
  159.9750  212.7170  156.7280 C   0  0  0  0  0  0  0  0  0  0  0  0
  160.3810  214.0250  157.1110 N   0  0  0  0  0  1  0  0  0  0  0  0
  160.8650  208.9210  149.9060 C   0  0  0  0  0  2  0  0  0  0  0  0
  162.2150  208.7870  149.2250 C   0  0  0  0  0  2  0  0  0  0  0  0
  162.3980  209.8650  148.2700 N   0  0  0  0  0  2  0  0  0  0  0  0
  162.1590  211.1060  148.9870 C   0  0  0  0  0  2  0  0  0  0  0  0
  161.8060  212.2110  148.0030 C   0  0  0  0  0  2  0  0  0  0  0  0
  161.7100  213.4900  148.6920 N   0  0  0  0  0  2  0  0  0  0  0  0
  160.4890  213.4690  149.4830 C   0  0  0  0  0  2  0  0  0  0  0  0
  159.2820  213.6030  148.5750 C   0  0  0  0  0  2  0  0  0  0  0  0
  158.0030  213.5530  149.3890 C   0  0  0  0  0  2  0  0  0  0  0  0
  156.8100  213.5690  148.4560 C   0  0  0  0  0  1  0  0  0  0  0  0
  1  6  2  0  0  0  0
  2 16  1  6  0  0  0
  2  9  1  0  0  0  0
  3  6  1  0  0  0  0
  4  3  1  1  0  0  0
  6  5  1  0  0  0  0
  7  2  1  0  0  0  0
  7  4  1  0  0  0  0
  8 12  1  0  0  0  0
  9 11  1  0  0  0  0
 10  4  1  0  0  0  0
 10  8  1  0  0  0  0
 11  1  2  0  0  0  0
 12 13  1  0  0  0  0
 13  5  1  0  0  0  0
 13 24  1  1  0  0  0
 14 16  1  0  0  0  0
 15 18  2  0  0  0  0
 16 20  2  0  0  0  0
 18 17  1  0  0  0  0
 18 20  1  0  0  0  0
 19 21  1  0  0  0  0
 21 15  1  0  0  0  0
 21 14  2  0  0  0  0
 23 22  2  0  0  0  0
 23 25  1  0  0  0  0
 24 23  1  0  0  0  0
 26 27  2  0  0  0  0
 27 28  1  0  0  0  0
 27 25  1  0  0  0  0
 29 10  1  0  0  0  0
 30 29  1  0  0  0  0
 31 32  1  0  0  0  0
 31 30  1  0  0  0  0
 33 34  1  0  0  0  0
 33 32  1  0  0  0  0
 34 35  1  0  0  0  0
 36 37  1  0  0  0  0
 36 35  1  0  0  0  0
 38 37  1  0  0  0  0
M  END
>  <MODEL>
4

>  <REMARK>
 VINA RESULT:      -4.1      1.927      2.358
  Name = 
  13 active torsions:
  status: ('A' for Active; 'I' for Inactive)
    1  A    between atoms: N_2  and  C_3
    2  A    between atoms: N_2  and  C_15
    3  A    between atoms: C_3  and  C_8
    4  A    between atoms: C_5  and  C_9
    5  A    between atoms: C_8  and  N_33
    6  A    between atoms: C_15  and  C_30
    7  A    between atoms: C_16  and  C_27
    8  A    between atoms: C_19  and  C_27
    9  A    between atoms: C_20  and  C_30
   10  A    between atoms: N_24  and  C_29
   11  A    between atoms: C_29  and  C_37
   12  A    between atoms: C_31  and  N_38
   13  A    between atoms: N_33  and  C_37
                            x       y       z     vdW  Elec       q    Type
                         _______ _______ _______ _____ _____    ______ ____

>  <TORSDO>
F 13

$$$$
=
 OpenBabel11052409393D

 38 40  0  0  1  0  0  0  0  0999 V2000
  161.9130  209.1560  150.8710 C   0  0  0  0  0  0  0  0  0  0  0  0
  161.5800  206.9340  148.9010 C   0  0  2  0  0  3  0  0  0  0  0  0
  160.2910  207.8150  151.7650 C   0  0  0  0  0  2  0  0  0  0  0  0
  160.6000  206.5770  151.3750 C   0  0  1  0  0  3  0  0  0  0  0  0
  161.9550  209.0170  153.2290 O   0  0  0  0  0  0  0  0  0  0  0  0
  161.3710  208.7660  151.9840 C   0  0  0  0  0  0  0  0  0  0  0  0
  160.0750  206.1980  149.6940 S   0  0  0  0  0  0  0  0  0  0  0  0
  162.4750  206.2980  153.1200 C   0  0  0  0  0  2  0  0  0  0  0  0
  161.4720  208.4500  148.6350 C   0  0  0  0  0  2  0  0  0  0  0  0
  161.6820  205.8200  151.9800 N   0  0  0  0  0  0  0  0  0  0  0  0
  162.2600  209.2680  149.6250 C   0  0  0  0  0  3  0  0  0  0  0  0
  161.5820  206.7810  154.2610 C   0  0  0  0  0  2  0  0  0  0  0  0
  161.6020  208.3100  154.4270 C   0  0  2  0  0  3  0  0  0  0  0  0
  163.0790  205.4470  147.5700 C   0  0  0  0  0  3  0  0  0  0  0  0
  162.6030  204.8900  145.2630 C   0  0  0  0  0  3  0  0  0  0  0  0
  161.9130  206.2170  147.6320 C   0  0  0  0  0  0  0  0  0  0  0  0
  160.5740  205.7890  144.1150 C   0  0  0  0  0  1  0  0  0  0  0  0
  161.4440  205.6700  145.3140 C   0  0  0  0  0  0  0  0  0  0  0  0
  164.6560  203.9540  146.3370 C   0  0  0  0  0  1  0  0  0  0  0  0
  161.1000  206.3350  146.4940 C   0  0  0  0  0  3  0  0  0  0  0  0
  163.4210  204.7790  146.3910 C   0  0  0  0  0  0  0  0  0  0  0  0
  158.7710  210.4400  155.3800 O   0  0  0  0  0  0  0  0  0  0  0  0
  159.9030  210.1340  154.9230 C   0  0  0  0  0  0  0  0  0  0  0  0
  160.3110  208.7630  154.9240 N   0  0  0  0  0  2  0  0  0  0  0  0
  160.8110  211.2170  154.4360 C   0  0  0  0  0  2  0  0  0  0  0  0
  160.1080  211.9400  152.2740 O   0  0  0  0  0  0  0  0  0  0  0  0
  160.0800  212.1350  153.5170 C   0  0  0  0  0  0  0  0  0  0  0  0
  159.3390  213.2270  154.0480 N   0  0  0  0  0  1  0  0  0  0  0  0
  161.8890  204.4310  151.5930 C   0  0  0  0  0  2  0  0  0  0  0  0
  160.8880  203.5230  152.2860 C   0  0  0  0  0  2  0  0  0  0  0  0
  160.8330  202.2390  151.6100 N   0  0  0  0  0  2  0  0  0  0  0  0
  161.1100  202.4910  150.2070 C   0  0  0  0  0  2  0  0  0  0  0  0
  160.5110  201.3820  149.3540 C   0  0  0  0  0  2  0  0  0  0  0  0
  161.5620  200.6590  148.6530 N   0  0  0  0  0  2  0  0  0  0  0  0
  161.2160  200.6500  147.2390 C   0  0  0  0  0  2  0  0  0  0  0  0
  160.8220  202.0450  146.7940 C   0  0  0  0  0  2  0  0  0  0  0  0
  160.6320  202.0830  145.2890 C   0  0  0  0  0  2  0  0  0  0  0  0
  159.6270  201.0260  144.8820 C   0  0  0  0  0  1  0  0  0  0  0  0
  1  6  2  0  0  0  0
  2 16  1  6  0  0  0
  2  7  1  0  0  0  0
  3  6  1  0  0  0  0
  4  3  1  6  0  0  0
  4 10  1  0  0  0  0
  5 13  1  0  0  0  0
  6  5  1  0  0  0  0
  7  4  1  0  0  0  0
  8 12  1  0  0  0  0
  9  2  1  0  0  0  0
  9 11  1  0  0  0  0
 10  8  1  0  0  0  0
 11  1  2  0  0  0  0
 12 13  1  0  0  0  0
 13 24  1  6  0  0  0
 14 16  1  0  0  0  0
 15 18  2  0  0  0  0
 15 21  1  0  0  0  0
 17 18  1  0  0  0  0
 18 20  1  0  0  0  0
 19 21  1  0  0  0  0
 20 16  2  0  0  0  0
 21 14  2  0  0  0  0
 23 24  1  0  0  0  0
 23 22  2  0  0  0  0
 25 23  1  0  0  0  0
 26 27  2  0  0  0  0
 27 28  1  0  0  0  0
 27 25  1  0  0  0  0
 29 10  1  0  0  0  0
 29 30  1  0  0  0  0
 31 30  1  0  0  0  0
 32 31  1  0  0  0  0
 33 32  1  0  0  0  0
 34 33  1  0  0  0  0
 35 34  1  0  0  0  0
 36 35  1  0  0  0  0
 37 36  1  0  0  0  0
 38 37  1  0  0  0  0
M  END
>  <MODEL>
5

>  <REMARK>
 VINA RESULT:      -4.0      3.129      5.977
  Name = 
  13 active torsions:
  status: ('A' for Active; 'I' for Inactive)
    1  A    between atoms: N_2  and  C_3
    2  A    between atoms: N_2  and  C_15
    3  A    between atoms: C_3  and  C_8
    4  A    between atoms: C_5  and  C_9
    5  A    between atoms: C_8  and  N_33
    6  A    between atoms: C_15  and  C_30
    7  A    between atoms: C_16  and  C_27
    8  A    between atoms: C_19  and  C_27
    9  A    between atoms: C_20  and  C_30
   10  A    between atoms: N_24  and  C_29
   11  A    between atoms: C_29  and  C_37
   12  A    between atoms: C_31  and  N_38
   13  A    between atoms: N_33  and  C_37
                            x       y       z     vdW  Elec       q    Type
                         _______ _______ _______ _____ _____    ______ ____

>  <TORSDO>
F 13

$$$$
=
 OpenBabel11052409393D

 38 40  0  0  1  0  0  0  0  0999 V2000
  161.5610  204.5380  150.2480 C   0  0  0  0  0  0  0  0  0  0  0  0
  161.0850  206.7750  152.1710 C   0  0  2  0  0  3  0  0  0  0  0  0
  160.3810  206.0930  149.0610 C   0  0  0  0  0  2  0  0  0  0  0  0
  160.7540  207.2760  149.5540 C   0  0  1  0  0  3  0  0  0  0  0  0
  162.1600  204.6810  147.9680 O   0  0  0  0  0  0  0  0  0  0  0  0
  161.3460  205.0040  149.0570 C   0  0  0  0  0  0  0  0  0  0  0  0
  159.9140  207.7160  151.0860 S   0  0  0  0  0  0  0  0  0  0  0  0
  162.9990  207.3010  148.2910 C   0  0  0  0  0  2  0  0  0  0  0  0
  160.7180  205.2870  152.3510 C   0  0  0  0  0  2  0  0  0  0  0  0
  162.0370  207.8790  149.2380 N   0  0  0  0  0  0  0  0  0  0  0  0
  161.5950  204.3730  151.5360 C   0  0  0  0  0  3  0  0  0  0  0  0
  162.3350  206.9510  146.9600 C   0  0  0  0  0  2  0  0  0  0  0  0
  162.1900  205.4360  146.7480 C   0  0  2  0  0  3  0  0  0  0  0  0
  160.7980  206.7410  154.6510 C   0  0  0  0  0  3  0  0  0  0  0  0
  161.3870  208.6400  156.0300 C   0  0  0  0  0  3  0  0  0  0  0  0
  161.2110  207.4330  153.5080 C   0  0  0  0  0  0  0  0  0  0  0  0
  162.3160  210.7260  155.0170 C   0  0  0  0  0  1  0  0  0  0  0  0
  161.7890  209.3440  154.8900 C   0  0  0  0  0  0  0  0  0  0  0  0
  160.4590  206.5930  157.1200 C   0  0  0  0  0  1  0  0  0  0  0  0
  161.6990  208.7430  153.6310 C   0  0  0  0  0  3  0  0  0  0  0  0
  160.8910  207.3390  155.9090 C   0  0  0  0  0  0  0  0  0  0  0  0
  159.6260  203.7340  144.7480 O   0  0  0  0  0  0  0  0  0  0  0  0
  160.6730  203.8760  145.4320 C   0  0  0  0  0  0  0  0  0  0  0  0
  160.9980  205.1680  145.9560 N   0  0  0  0  0  2  0  0  0  0  0  0
  161.5760  202.7030  145.6380 C   0  0  0  0  0  2  0  0  0  0  0  0
  160.4470  200.6010  145.6570 O   0  0  0  0  0  0  0  0  0  0  0  0
  160.8450  201.5960  146.3170 C   0  0  0  0  0  0  0  0  0  0  0  0
  160.6070  201.6580  147.7180 N   0  0  0  0  0  1  0  0  0  0  0  0
  162.3330  209.2250  149.7120 C   0  0  0  0  0  2  0  0  0  0  0  0
  162.0230  210.2540  148.6400 C   0  0  0  0  0  2  0  0  0  0  0  0
  162.0310  211.5870  149.2150 N   0  0  0  0  0  2  0  0  0  0  0  0
  161.3730  212.4610  148.2600 C   0  0  0  0  0  2  0  0  0  0  0  0
  160.8650  213.7100  148.9650 C   0  0  0  0  0  2  0  0  0  0  0  0
  160.4920  213.4000  150.3370 N   0  0  0  0  0  2  0  0  0  0  0  0
  159.0640  213.6470  150.4670 C   0  0  0  0  0  2  0  0  0  0  0  0
  158.5230  212.9270  151.6880 C   0  0  0  0  0  2  0  0  0  0  0  0
  159.5930  212.0330  152.2870 C   0  0  0  0  0  2  0  0  0  0  0  0
  158.9540  211.0710  153.2660 C   0  0  0  0  0  1  0  0  0  0  0  0
  1 11  2  0  0  0  0
  2  9  1  0  0  0  0
  2 16  1  1  0  0  0
  4  3  1  1  0  0  0
  4  7  1  0  0  0  0
  5  6  1  0  0  0  0
  6  3  1  0  0  0  0
  6  1  2  0  0  0  0
  7  2  1  0  0  0  0
  8 10  1  0  0  0  0
 10  4  1  0  0  0  0
 10 29  1  0  0  0  0
 11  9  1  0  0  0  0
 12  8  1  0  0  0  0
 13 24  1  1  0  0  0
 13 12  1  0  0  0  0
 13  5  1  0  0  0  0
 14 21  1  0  0  0  0
 16 20  1  0  0  0  0
 16 14  2  0  0  0  0
 18 17  1  0  0  0  0
 18 15  1  0  0  0  0
 20 18  2  0  0  0  0
 21 15  2  0  0  0  0
 21 19  1  0  0  0  0
 22 23  2  0  0  0  0
 23 25  1  0  0  0  0
 23 24  1  0  0  0  0
 25 27  1  0  0  0  0
 26 27  2  0  0  0  0
 27 28  1  0  0  0  0
 30 31  1  0  0  0  0
 30 29  1  0  0  0  0
 32 33  1  0  0  0  0
 32 31  1  0  0  0  0
 33 34  1  0  0  0  0
 34 35  1  0  0  0  0
 35 36  1  0  0  0  0
 36 37  1  0  0  0  0
 37 38  1  0  0  0  0
M  END
>  <MODEL>
6

>  <REMARK>
 VINA RESULT:      -3.9      3.598      8.192
  Name = 
  13 active torsions:
  status: ('A' for Active; 'I' for Inactive)
    1  A    between atoms: N_2  and  C_3
    2  A    between atoms: N_2  and  C_15
    3  A    between atoms: C_3  and  C_8
    4  A    between atoms: C_5  and  C_9
    5  A    between atoms: C_8  and  N_33
    6  A    between atoms: C_15  and  C_30
    7  A    between atoms: C_16  and  C_27
    8  A    between atoms: C_19  and  C_27
    9  A    between atoms: C_20  and  C_30
   10  A    between atoms: N_24  and  C_29
   11  A    between atoms: C_29  and  C_37
   12  A    between atoms: C_31  and  N_38
   13  A    between atoms: N_33  and  C_37
                            x       y       z     vdW  Elec       q    Type
                         _______ _______ _______ _____ _____    ______ ____

>  <TORSDO>
F 13

$$$$
=
 OpenBabel11052409393D

 38 40  0  0  1  0  0  0  0  0999 V2000
  161.5110  204.0690  150.3050 C   0  0  0  0  0  0  0  0  0  0  0  0
  161.0180  206.4640  152.0220 C   0  0  2  0  0  3  0  0  0  0  0  0
  160.4480  205.5640  148.9400 C   0  0  0  0  0  2  0  0  0  0  0  0
  160.8380  206.7680  149.3610 C   0  0  1  0  0  3  0  0  0  0  0  0
  162.2290  204.0140  148.0550 O   0  0  0  0  0  0  0  0  0  0  0  0
  161.3720  204.4470  149.0720 C   0  0  0  0  0  0  0  0  0  0  0  0
  159.9370  207.3540  150.8070 S   0  0  0  0  0  0  0  0  0  0  0  0
  163.1430  206.6240  148.2210 C   0  0  0  0  0  2  0  0  0  0  0  0
  160.5890  205.0070  152.2960 C   0  0  0  0  0  2  0  0  0  0  0  0
  162.1560  207.3040  149.0680 N   0  0  0  0  0  0  0  0  0  0  0  0
  161.4740  204.0050  151.6010 C   0  0  0  0  0  3  0  0  0  0  0  0
  162.5360  206.1920  146.8870 C   0  0  0  0  0  2  0  0  0  0  0  0
  162.3470  204.6700  146.7840 C   0  0  2  0  0  3  0  0  0  0  0  0
  161.4930  208.5630  153.2880 C   0  0  0  0  0  3  0  0  0  0  0  0
  161.3100  208.6680  155.7000 C   0  0  0  0  0  3  0  0  0  0  0  0
  161.1000  207.2210  153.3100 C   0  0  0  0  0  0  0  0  0  0  0  0
  160.6290  206.6630  157.0260 C   0  0  0  0  0  1  0  0  0  0  0  0
  160.9290  207.3230  155.7300 C   0  0  0  0  0  0  0  0  0  0  0  0
  162.0010  210.7160  154.4470 C   0  0  0  0  0  1  0  0  0  0  0  0
  160.8270  206.5990  154.5380 C   0  0  0  0  0  3  0  0  0  0  0  0
  161.5920  209.2870  154.4790 C   0  0  0  0  0  0  0  0  0  0  0  0
  159.7720  202.8890  144.8700 O   0  0  0  0  0  0  0  0  0  0  0  0
  160.7820  203.0520  145.6020 C   0  0  0  0  0  0  0  0  0  0  0  0
  161.1870  204.3780  145.9530 N   0  0  0  0  0  2  0  0  0  0  0  0
  161.5620  201.8560  146.0460 C   0  0  0  0  0  2  0  0  0  0  0  0
  159.9050  201.7550  147.7590 O   0  0  0  0  0  0  0  0  0  0  0  0
  160.9660  201.2740  147.2820 C   0  0  0  0  0  0  0  0  0  0  0  0
  161.5900  200.1640  147.9160 N   0  0  0  0  0  1  0  0  0  0  0  0
  162.4750  208.6730  149.4520 C   0  0  0  0  0  2  0  0  0  0  0  0
  161.9560  209.6580  148.4210 C   0  0  0  0  0  2  0  0  0  0  0  0
  161.9550  211.0010  148.9740 N   0  0  0  0  0  2  0  0  0  0  0  0
  161.6110  211.9010  147.8870 C   0  0  0  0  0  2  0  0  0  0  0  0
  162.7740  212.8420  147.6070 C   0  0  0  0  0  2  0  0  0  0  0  0
  162.3330  213.9620  146.7890 N   0  0  0  0  0  2  0  0  0  0  0  0
  161.7760  213.4130  145.5620 C   0  0  0  0  0  2  0  0  0  0  0  0
  162.8530  213.3260  144.4970 C   0  0  0  0  0  2  0  0  0  0  0  0
  162.3280  212.5930  143.2770 C   0  0  0  0  0  2  0  0  0  0  0  0
  160.8470  212.8640  143.1250 C   0  0  0  0  0  1  0  0  0  0  0  0
  1 11  2  0  0  0  0
  2  9  1  0  0  0  0
  2 16  1  1  0  0  0
  3  6  1  0  0  0  0
  4  3  1  1  0  0  0
  4  7  1  0  0  0  0
  5  6  1  0  0  0  0
  6  1  2  0  0  0  0
  7  2  1  0  0  0  0
  8 10  1  0  0  0  0
 10  4  1  0  0  0  0
 10 29  1  0  0  0  0
 11  9  1  0  0  0  0
 12  8  1  0  0  0  0
 13 24  1  6  0  0  0
 13 12  1  0  0  0  0
 13  5  1  0  0  0  0
 14 16  2  0  0  0  0
 14 21  1  0  0  0  0
 15 18  1  0  0  0  0
 16 20  1  0  0  0  0
 18 17  1  0  0  0  0
 19 21  1  0  0  0  0
 20 18  2  0  0  0  0
 21 15  2  0  0  0  0
 22 23  2  0  0  0  0
 23 24  1  0  0  0  0
 23 25  1  0  0  0  0
 25 27  1  0  0  0  0
 27 26  2  0  0  0  0
 27 28  1  0  0  0  0
 30 31  1  0  0  0  0
 30 29  1  0  0  0  0
 32 31  1  0  0  0  0
 33 32  1  0  0  0  0
 34 33  1  0  0  0  0
 35 34  1  0  0  0  0
 36 35  1  0  0  0  0
 37 36  1  0  0  0  0
 38 37  1  0  0  0  0
M  END
>  <MODEL>
7

>  <REMARK>
 VINA RESULT:      -3.9      3.517      7.634
  Name = 
  13 active torsions:
  status: ('A' for Active; 'I' for Inactive)
    1  A    between atoms: N_2  and  C_3
    2  A    between atoms: N_2  and  C_15
    3  A    between atoms: C_3  and  C_8
    4  A    between atoms: C_5  and  C_9
    5  A    between atoms: C_8  and  N_33
    6  A    between atoms: C_15  and  C_30
    7  A    between atoms: C_16  and  C_27
    8  A    between atoms: C_19  and  C_27
    9  A    between atoms: C_20  and  C_30
   10  A    between atoms: N_24  and  C_29
   11  A    between atoms: C_29  and  C_37
   12  A    between atoms: C_31  and  N_38
   13  A    between atoms: N_33  and  C_37
                            x       y       z     vdW  Elec       q    Type
                         _______ _______ _______ _____ _____    ______ ____

>  <TORSDO>
F 13

$$$$
=
 OpenBabel11052409393D

 38 40  0  0  1  0  0  0  0  0999 V2000
  161.5760  204.5100  150.2260 C   0  0  0  0  0  0  0  0  0  0  0  0
  161.1030  206.7560  152.1390 C   0  0  2  0  0  3  0  0  0  0  0  0
  160.4310  206.0790  149.0200 C   0  0  0  0  0  2  0  0  0  0  0  0
  160.8140  207.2570  149.5170 C   0  0  1  0  0  3  0  0  0  0  0  0
  162.2070  204.6420  147.9530 O   0  0  0  0  0  0  0  0  0  0  0  0
  161.3820  204.9770  149.0310 C   0  0  0  0  0  0  0  0  0  0  0  0
  159.9590  207.7100  151.0360 S   0  0  0  0  0  0  0  0  0  0  0  0
  163.0750  207.2510  148.2830 C   0  0  0  0  0  2  0  0  0  0  0  0
  160.7150  205.2730  152.3160 C   0  0  0  0  0  2  0  0  0  0  0  0
  162.1080  207.8430  149.2170 N   0  0  0  0  0  0  0  0  0  0  0  0
  161.5910  204.3470  151.5140 C   0  0  0  0  0  3  0  0  0  0  0  0
  162.4250  206.9080  146.9450 C   0  0  0  0  0  2  0  0  0  0  0  0
  162.2620  205.3940  146.7320 C   0  0  2  0  0  3  0  0  0  0  0  0
  160.7910  206.7260  154.6150 C   0  0  0  0  0  3  0  0  0  0  0  0
  161.3790  208.6230  155.9990 C   0  0  0  0  0  3  0  0  0  0  0  0
  161.2200  207.4150  153.4760 C   0  0  0  0  0  0  0  0  0  0  0  0
  162.3320  210.7020  154.9930 C   0  0  0  0  0  1  0  0  0  0  0  0
  161.7960  209.3230  154.8630 C   0  0  0  0  0  0  0  0  0  0  0  0
  160.4270  206.5830  157.0820 C   0  0  0  0  0  1  0  0  0  0  0  0
  161.7150  208.7220  153.6030 C   0  0  0  0  0  3  0  0  0  0  0  0
  160.8750  207.3260  155.8740 C   0  0  0  0  0  0  0  0  0  0  0  0
  159.7000  203.7210  144.7080 O   0  0  0  0  0  0  0  0  0  0  0  0
  160.7390  203.8510  145.4060 C   0  0  0  0  0  0  0  0  0  0  0  0
  161.0770  205.1400  145.9250 N   0  0  0  0  0  2  0  0  0  0  0  0
  161.6190  202.6640  145.6320 C   0  0  0  0  0  2  0  0  0  0  0  0
  160.4990  200.5610  145.5190 O   0  0  0  0  0  0  0  0  0  0  0  0
  160.8380  201.5430  146.2290 C   0  0  0  0  0  0  0  0  0  0  0  0
  160.4860  201.5780  147.6070 N   0  0  0  0  0  1  0  0  0  0  0  0
  162.4150  209.1860  149.6920 C   0  0  0  0  0  2  0  0  0  0  0  0
  161.9760  210.2300  148.6810 C   0  0  0  0  0  2  0  0  0  0  0  0
  162.0270  211.5520  149.2800 N   0  0  0  0  0  2  0  0  0  0  0  0
  162.5130  212.4580  148.2540 C   0  0  0  0  0  2  0  0  0  0  0  0
  161.3370  213.0770  147.5120 C   0  0  0  0  0  2  0  0  0  0  0  0
  161.6310  213.1740  146.0900 N   0  0  0  0  0  2  0  0  0  0  0  0
  160.3680  213.3840  145.3970 C   0  0  0  0  0  2  0  0  0  0  0  0
  159.4540  212.1940  145.6160 C   0  0  0  0  0  2  0  0  0  0  0  0
  158.0100  212.6490  145.7060 C   0  0  0  0  0  2  0  0  0  0  0  0
  157.5480  212.5780  147.1470 C   0  0  0  0  0  1  0  0  0  0  0  0
  1 11  2  0  0  0  0
  2  9  1  0  0  0  0
  2 16  1  1  0  0  0
  3  6  1  0  0  0  0
  4  3  1  1  0  0  0
  4  7  1  0  0  0  0
  5  6  1  0  0  0  0
  6  1  2  0  0  0  0
  7  2  1  0  0  0  0
  8 10  1  0  0  0  0
 10  4  1  0  0  0  0
 10 29  1  0  0  0  0
 11  9  1  0  0  0  0
 12  8  1  0  0  0  0
 13 24  1  1  0  0  0
 13 12  1  0  0  0  0
 13  5  1  0  0  0  0
 14 21  1  0  0  0  0
 16 20  1  0  0  0  0
 16 14  2  0  0  0  0
 18 17  1  0  0  0  0
 18 15  1  0  0  0  0
 20 18  2  0  0  0  0
 21 15  2  0  0  0  0
 21 19  1  0  0  0  0
 22 23  2  0  0  0  0
 23 25  1  0  0  0  0
 23 24  1  0  0  0  0
 25 27  1  0  0  0  0
 26 27  2  0  0  0  0
 27 28  1  0  0  0  0
 30 31  1  0  0  0  0
 30 29  1  0  0  0  0
 32 31  1  0  0  0  0
 33 32  1  0  0  0  0
 34 33  1  0  0  0  0
 35 36  1  0  0  0  0
 35 34  1  0  0  0  0
 36 37  1  0  0  0  0
 37 38  1  0  0  0  0
M  END
>  <MODEL>
8

>  <REMARK>
 VINA RESULT:      -3.8      3.422      7.844
  Name = 
  13 active torsions:
  status: ('A' for Active; 'I' for Inactive)
    1  A    between atoms: N_2  and  C_3
    2  A    between atoms: N_2  and  C_15
    3  A    between atoms: C_3  and  C_8
    4  A    between atoms: C_5  and  C_9
    5  A    between atoms: C_8  and  N_33
    6  A    between atoms: C_15  and  C_30
    7  A    between atoms: C_16  and  C_27
    8  A    between atoms: C_19  and  C_27
    9  A    between atoms: C_20  and  C_30
   10  A    between atoms: N_24  and  C_29
   11  A    between atoms: C_29  and  C_37
   12  A    between atoms: C_31  and  N_38
   13  A    between atoms: N_33  and  C_37
                            x       y       z     vdW  Elec       q    Type
                         _______ _______ _______ _____ _____    ______ ____

>  <TORSDO>
F 13

$$$$
=
 OpenBabel11052409393D

 38 40  0  0  1  0  0  0  0  0999 V2000
  161.4900  204.3890  150.2560 C   0  0  0  0  0  0  0  0  0  0  0  0
  161.0710  206.7000  152.1040 C   0  0  2  0  0  3  0  0  0  0  0  0
  160.4090  205.9620  148.9970 C   0  0  0  0  0  2  0  0  0  0  0  0
  160.8250  207.1400  149.4670 C   0  0  1  0  0  3  0  0  0  0  0  0
  162.1480  204.4400  147.9880 O   0  0  0  0  0  0  0  0  0  0  0  0
  161.3230  204.8310  149.0480 C   0  0  0  0  0  0  0  0  0  0  0  0
  159.9700  207.6610  150.9650 S   0  0  0  0  0  0  0  0  0  0  0  0
  163.0970  207.0280  148.2590 C   0  0  0  0  0  2  0  0  0  0  0  0
  160.6330  205.2360  152.3160 C   0  0  0  0  0  2  0  0  0  0  0  0
  162.1400  207.6750  149.1660 N   0  0  0  0  0  0  0  0  0  0  0  0
  161.4860  204.2600  151.5480 C   0  0  0  0  0  3  0  0  0  0  0  0
  162.4490  206.6710  146.9230 C   0  0  0  0  0  2  0  0  0  0  0  0
  162.2390  205.1580  146.7490 C   0  0  2  0  0  3  0  0  0  0  0  0
  160.8360  206.7040  154.5890 C   0  0  0  0  0  3  0  0  0  0  0  0
  161.3710  208.6550  155.9190 C   0  0  0  0  0  3  0  0  0  0  0  0
  161.1960  207.3900  153.4250 C   0  0  0  0  0  0  0  0  0  0  0  0
  162.1900  210.7570  154.8460 C   0  0  0  0  0  1  0  0  0  0  0  0
  161.7200  209.3510  154.7580 C   0  0  0  0  0  0  0  0  0  0  0  0
  160.5540  206.5920  157.0680 C   0  0  0  0  0  1  0  0  0  0  0  0
  161.6300  208.7220  153.5130 C   0  0  0  0  0  3  0  0  0  0  0  0
  160.9290  207.3320  155.8340 C   0  0  0  0  0  0  0  0  0  0  0  0
  159.6730  203.5260  144.6960 O   0  0  0  0  0  0  0  0  0  0  0  0
  160.7110  203.6400  145.3980 C   0  0  0  0  0  0  0  0  0  0  0  0
  161.0550  204.9210  145.9350 N   0  0  0  0  0  2  0  0  0  0  0  0
  161.5850  202.4460  145.6100 C   0  0  0  0  0  2  0  0  0  0  0  0
  160.3910  200.3810  145.6720 O   0  0  0  0  0  0  0  0  0  0  0  0
  160.8320  201.3690  146.3140 C   0  0  0  0  0  0  0  0  0  0  0  0
  160.6240  201.4530  147.7190 N   0  0  0  0  0  1  0  0  0  0  0  0
  162.4870  209.0200  149.6090 C   0  0  0  0  0  2  0  0  0  0  0  0
  161.9610  210.0610  148.6370 C   0  0  0  0  0  2  0  0  0  0  0  0
  162.3170  211.3920  149.0960 N   0  0  0  0  0  2  0  0  0  0  0  0
  162.2010  212.2750  147.9490 C   0  0  0  0  0  2  0  0  0  0  0  0
  160.7850  212.8260  147.8620 C   0  0  0  0  0  2  0  0  0  0  0  0
  160.2280  212.5850  146.5390 N   0  0  0  0  0  2  0  0  0  0  0  0
  161.0370  213.3260  145.5830 C   0  0  0  0  0  2  0  0  0  0  0  0
  161.0520  212.6040  144.2490 C   0  0  0  0  0  2  0  0  0  0  0  0
  162.1480  213.1630  143.3610 C   0  0  0  0  0  2  0  0  0  0  0  0
  163.4180  213.3260  144.1690 C   0  0  0  0  0  1  0  0  0  0  0  0
  1 11  2  0  0  0  0
  2  9  1  0  0  0  0
  2 16  1  1  0  0  0
  3  6  1  0  0  0  0
  4  3  1  1  0  0  0
  4  7  1  0  0  0  0
  5  6  1  0  0  0  0
  6  1  2  0  0  0  0
  7  2  1  0  0  0  0
  8 10  1  0  0  0  0
 10  4  1  0  0  0  0
 10 29  1  0  0  0  0
 11  9  1  0  0  0  0
 12  8  1  0  0  0  0
 13 24  1  1  0  0  0
 13 12  1  0  0  0  0
 13  5  1  0  0  0  0
 14 21  1  0  0  0  0
 16 20  1  0  0  0  0
 16 14  2  0  0  0  0
 18 17  1  0  0  0  0
 18 15  1  0  0  0  0
 20 18  2  0  0  0  0
 21 15  2  0  0  0  0
 21 19  1  0  0  0  0
 22 23  2  0  0  0  0
 23 25  1  0  0  0  0
 23 24  1  0  0  0  0
 25 27  1  0  0  0  0
 26 27  2  0  0  0  0
 27 28  1  0  0  0  0
 30 31  1  0  0  0  0
 30 29  1  0  0  0  0
 32 31  1  0  0  0  0
 33 32  1  0  0  0  0
 34 33  1  0  0  0  0
 35 34  1  0  0  0  0
 36 35  1  0  0  0  0
 37 38  1  0  0  0  0
 37 36  1  0  0  0  0
M  END
>  <MODEL>
9

>  <REMARK>
 VINA RESULT:      -3.8      3.448      7.846
  Name = 
  13 active torsions:
  status: ('A' for Active; 'I' for Inactive)
    1  A    between atoms: N_2  and  C_3
    2  A    between atoms: N_2  and  C_15
    3  A    between atoms: C_3  and  C_8
    4  A    between atoms: C_5  and  C_9
    5  A    between atoms: C_8  and  N_33
    6  A    between atoms: C_15  and  C_30
    7  A    between atoms: C_16  and  C_27
    8  A    between atoms: C_19  and  C_27
    9  A    between atoms: C_20  and  C_30
   10  A    between atoms: N_24  and  C_29
   11  A    between atoms: C_29  and  C_37
   12  A    between atoms: C_31  and  N_38
   13  A    between atoms: N_33  and  C_37
                            x       y       z     vdW  Elec       q    Type
                         _______ _______ _______ _____ _____    ______ ____

>  <TORSDO>
F 13

$$$$
