=
 OpenBabel11052412093D

 50 54  0  0  1  0  0  0  0  0999 V2000
  160.2340  214.2810  148.4170 C   0  0  2  0  0  3  0  0  0  0  0  0
  162.0700  212.2820  148.8010 C   0  0  0  0  0  0  0  0  0  0  0  0
  162.9480  211.4750  149.3210 C   0  0  0  0  0  3  0  0  0  0  0  0
  160.2460  213.5530  147.1890 C   0  0  2  0  0  3  0  0  0  0  0  0
  161.1760  213.0880  148.3040 C   0  0  0  0  0  0  0  0  0  0  0  0
  158.8200  214.4520  150.4070 C   0  0  0  0  0  3  0  0  0  0  0  0
  159.0430  213.8900  149.2230 C   0  0  0  0  0  3  0  0  0  0  0  0
  157.6210  214.0600  151.2040 C   0  0  0  0  0  2  0  0  0  0  0  0
  157.8390  212.7160  151.8750 C   0  0  0  0  0  2  0  0  0  0  0  0
  157.8370  212.8780  153.3870 C   0  0  0  0  0  2  0  0  0  0  0  0
  157.3460  211.4390  155.3320 C   0  0  0  0  0  1  0  0  0  0  0  0
  158.1800  211.5670  154.0720 C   0  0  2  0  0  3  0  0  0  0  0  0
  159.5960  211.5380  154.4170 N   0  0  0  0  0  2  0  0  0  0  0  0
  159.9750  210.1450  154.6080 C   0  0  0  0  0  2  0  0  0  0  0  0
  161.3620  210.0590  155.2190 C   0  0  0  0  0  2  0  0  0  0  0  0
  162.2820  210.7190  154.4050 O   0  0  0  0  0  1  0  0  0  0  0  0
  161.1880  210.8540  151.1480 O   0  0  0  0  0  0  0  0  0  0  0  0
  162.4190  210.2510  150.4840 S   0  0  1  0  0  0  0  0  0  0  0  0
  161.0500  206.5650  149.1350 C   0  0  0  0  0  2  0  0  0  0  0  0
  162.0270  208.0300  152.3170 O   0  0  0  0  0  0  0  0  0  0  0  0
  161.5540  207.6880  149.9790 C   0  0  0  0  0  0  0  0  0  0  0  0
  161.7500  207.2560  151.3620 C   0  0  0  0  0  0  0  0  0  0  0  0
  161.4580  205.5250  151.6260 S   0  0  0  0  0  0  0  0  0  0  0  0
  161.6000  209.1900  148.0220 C   0  0  0  0  0  1  0  0  0  0  0  0
  160.4670  205.5130  150.0850 C   0  0  2  0  0  3  0  0  0  0  0  0
  161.8050  208.9140  149.4770 C   0  0  0  0  0  0  0  0  0  0  0  0
  161.3200  201.6200  148.1370 N   0  0  0  0  0  0  0  0  0  0  0  0
  161.7930  202.9040  147.7090 C   0  0  0  0  0  3  0  0  0  0  0  0
  159.0880  201.1190  149.4800 O   0  0  0  0  0  0  0  0  0  0  0  0
  161.4440  204.0450  148.3190 C   0  0  0  0  0  3  0  0  0  0  0  0
  161.2170  200.3870  150.4870 O   0  0  0  0  0  0  0  0  0  0  0  0
  160.4470  204.1210  149.4480 C   0  0  1  0  0  3  0  0  0  0  0  0
  160.7010  203.0250  150.4830 C   0  0  0  0  0  2  0  0  0  0  0  0
  160.5410  201.4540  149.6720 S   0  0  0  0  0  0  0  0  0  0  0  0
  161.5280  200.4420  147.3070 C   0  0  0  0  0  2  0  0  0  0  0  0
  160.4900  200.3730  146.1980 C   0  0  2  0  0  3  0  0  0  0  0  0
  160.8060  199.3420  145.3120 O   0  0  0  0  0  1  0  0  0  0  0  0
  160.4730  201.6880  145.4470 C   0  0  0  0  0  1  0  0  0  0  0  0
  161.0600  214.2930  146.1440 C   0  0  0  0  0  2  0  0  0  0  0  0
  161.9570  214.1710  143.8530 C   0  0  0  0  0  3  0  0  0  0  0  0
  159.4560  212.9650  143.0940 C   0  0  0  0  0  2  0  0  0  0  0  0
  163.3020  214.2510  141.8190 C   0  0  0  0  0  2  0  0  0  0  0  0
  159.6370  213.6730  144.3140 O   0  0  0  0  0  0  0  0  0  0  0  0
  162.9000  212.5420  140.1700 O   0  0  0  0  0  0  0  0  0  0  0  0
  161.7480  212.2170  142.2570 C   0  0  1  0  0  3  0  0  0  0  0  0
  161.6660  212.1690  140.7300 C   0  0  0  0  0  2  0  0  0  0  0  0
  162.2820  213.5800  142.6940 C   0  0  0  0  0  0  0  0  0  0  0  0
  163.0070  213.9330  140.3520 C   0  0  0  0  0  2  0  0  0  0  0  0
  160.9610  213.5810  144.8080 C   0  0  2  0  0  3  0  0  0  0  0  0
  160.4080  211.7800  142.8680 C   0  0  0  0  0  2  0  0  0  0  0  0
  1  7  1  1  0  0  0
  2  3  2  0  0  0  0
  3 18  1  0  0  0  0
  4 39  1  6  0  0  0
  4  5  1  0  0  0  0
  4  1  1  0  0  0  0
  5  1  1  0  0  0  0
  5  2  2  0  0  0  0
  6  8  1  0  0  0  0
  7  6  2  0  0  0  0
  8  9  1  0  0  0  0
  9 10  1  0  0  0  0
 10 12  1  0  0  0  0
 12 13  1  0  0  0  0
 12 11  1  1  0  0  0
 13 14  1  0  0  0  0
 14 15  1  0  0  0  0
 16 15  1  0  0  0  0
 18 17  2  1  0  0  0
 19 21  1  0  0  0  0
 21 22  1  0  0  0  0
 22 23  1  0  0  0  0
 22 20  2  0  0  0  0
 24 26  1  0  0  0  0
 25 19  1  6  0  0  0
 25 23  1  0  0  0  0
 26 21  2  0  0  0  0
 26 18  1  0  0  0  0
 27 34  1  0  0  0  0
 28 27  1  0  0  0  0
 28 30  2  0  0  0  0
 29 34  2  0  0  0  0
 32 30  1  6  0  0  0
 32 25  1  0  0  0  0
 32 33  1  0  0  0  0
 34 33  1  0  0  0  0
 34 31  2  0  0  0  0
 35 27  1  0  0  0  0
 36 38  1  6  0  0  0
 36 35  1  0  0  0  0
 37 36  1  0  0  0  0
 40 49  1  0  0  0  0
 41 43  1  0  0  0  0
 42 47  1  0  0  0  0
 43 49  1  0  0  0  0
 44 48  1  0  0  0  0
 44 46  1  0  0  0  0
 45 46  1  6  0  0  0
 45 47  1  0  0  0  0
 45 50  1  0  0  0  0
 47 40  2  0  0  0  0
 48 42  1  0  0  0  0
 49 39  1  1  0  0  0
 50 41  1  0  0  0  0
M  END
>  <MODEL>
1

>  <REMARK>
 VINA RESULT:      -5.7      0.000      0.000
  Name = 
  15 active torsions:
  status: ('A' for Active; 'I' for Inactive)
    1  A    between atoms: C_3  and  C_23
    2  A    between atoms: C_5  and  N_17
    3  A    between atoms: C_5  and  C_18
    4  A    between atoms: C_7  and  C_33
    5  A    between atoms: C_8  and  C_28
    6  A    between atoms: C_9  and  C_33
    7  A    between atoms: C_9  and  C_46
    8  A    between atoms: N_14  and  C_23
    9  A    between atoms: N_17  and  C_41
   10  A    between atoms: C_27  and  C_48
   11  A    between atoms: C_34  and  S_42
   12  A    between atoms: C_35  and  C_40
   13  A    between atoms: C_37  and  C_40
   14  A    between atoms: C_41  and  C_46
   15  A    between atoms: S_42  and  C_44
                            x       y       z     vdW  Elec       q    Type
                         _______ _______ _______ _____ _____    ______ ____

>  <TORSDO>
F 15

$$$$
=
 OpenBabel11052412093D

 50 54  0  0  1  0  0  0  0  0999 V2000
  158.7340  213.8770  150.6170 C   0  0  2  0  0  3  0  0  0  0  0  0
  160.9410  212.4720  149.7940 C   0  0  0  0  0  0  0  0  0  0  0  0
  162.1040  211.8940  149.7400 C   0  0  0  0  0  3  0  0  0  0  0  0
  158.3850  213.3660  149.3310 C   0  0  2  0  0  3  0  0  0  0  0  0
  159.7720  213.0420  149.8750 C   0  0  0  0  0  0  0  0  0  0  0  0
  158.3250  213.3090  152.9620 C   0  0  0  0  0  3  0  0  0  0  0  0
  158.1030  213.0430  151.6790 C   0  0  0  0  0  3  0  0  0  0  0  0
  157.6830  212.4740  154.0190 C   0  0  0  0  0  2  0  0  0  0  0  0
  158.2600  212.8000  155.3850 C   0  0  0  0  0  2  0  0  0  0  0  0
  159.7480  212.4860  155.4140 C   0  0  0  0  0  2  0  0  0  0  0  0
  161.5100  211.0980  156.4440 C   0  0  0  0  0  1  0  0  0  0  0  0
  160.0170  211.2200  156.2080 C   0  0  2  0  0  3  0  0  0  0  0  0
  159.5400  210.0550  155.4720 N   0  0  0  0  0  2  0  0  0  0  0  0
  160.6190  209.0770  155.4480 C   0  0  0  0  0  2  0  0  0  0  0  0
  160.1250  207.7410  155.9730 C   0  0  0  0  0  2  0  0  0  0  0  0
  160.5630  206.7120  155.1390 O   0  0  0  0  0  1  0  0  0  0  0  0
  161.3930  210.4950  151.8280 O   0  0  0  0  0  0  0  0  0  0  0  0
  162.3830  210.4160  150.6730 S   0  0  1  0  0  0  0  0  0  0  0  0
  161.0270  206.7670  149.2150 C   0  0  0  0  0  2  0  0  0  0  0  0
  161.9580  208.1530  152.4460 O   0  0  0  0  0  0  0  0  0  0  0  0
  161.5210  207.8680  150.0930 C   0  0  0  0  0  0  0  0  0  0  0  0
  161.6940  207.4030  151.4690 C   0  0  0  0  0  0  0  0  0  0  0  0
  161.3950  205.6670  151.6860 S   0  0  0  0  0  0  0  0  0  0  0  0
  161.6000  209.4170  148.1740 C   0  0  0  0  0  1  0  0  0  0  0  0
  160.4280  205.6930  150.1300 C   0  0  2  0  0  3  0  0  0  0  0  0
  161.7820  209.1060  149.6250 C   0  0  0  0  0  0  0  0  0  0  0  0
  161.3010  201.8530  148.0890 N   0  0  0  0  0  0  0  0  0  0  0  0
  161.7690  203.1500  147.6930 C   0  0  0  0  0  3  0  0  0  0  0  0
  159.0710  201.3090  149.4180 O   0  0  0  0  0  0  0  0  0  0  0  0
  161.4130  204.2730  148.3300 C   0  0  0  0  0  3  0  0  0  0  0  0
  161.2030  200.5640  150.4090 O   0  0  0  0  0  0  0  0  0  0  0  0
  160.4150  204.3170  149.4600 C   0  0  1  0  0  3  0  0  0  0  0  0
  160.6740  203.1980  150.4680 C   0  0  0  0  0  2  0  0  0  0  0  0
  160.5220  201.6460  149.6190 S   0  0  0  0  0  0  0  0  0  0  0  0
  161.5160  200.6970  147.2310 C   0  0  0  0  0  2  0  0  0  0  0  0
  160.8430  200.8940  145.8820 C   0  0  2  0  0  3  0  0  0  0  0  0
  159.6120  201.5310  146.0510 O   0  0  0  0  0  1  0  0  0  0  0  0
  160.6220  199.5450  145.2310 C   0  0  0  0  0  1  0  0  0  0  0  0
  158.5100  214.4520  148.2790 C   0  0  0  0  0  2  0  0  0  0  0  0
  160.3520  214.2300  146.6570 C   0  0  0  0  0  3  0  0  0  0  0  0
  158.3410  213.6790  144.6710 C   0  0  0  0  0  2  0  0  0  0  0  0
  162.4920  214.0870  145.4960 C   0  0  0  0  0  2  0  0  0  0  0  0
  158.0460  214.2670  145.9320 O   0  0  0  0  0  0  0  0  0  0  0  0
  162.6180  212.5990  143.6060 O   0  0  0  0  0  0  0  0  0  0  0  0
  160.5730  212.4550  144.8650 C   0  0  1  0  0  3  0  0  0  0  0  0
  161.2220  212.4990  143.4800 C   0  0  0  0  0  2  0  0  0  0  0  0
  161.0750  213.6330  145.6980 C   0  0  0  0  0  0  0  0  0  0  0  0
  162.8800  213.9150  144.0260 C   0  0  0  0  0  2  0  0  0  0  0  0
  158.9310  213.8450  146.9530 C   0  0  2  0  0  3  0  0  0  0  0  0
  159.0490  212.3170  144.7260 C   0  0  0  0  0  2  0  0  0  0  0  0
  1  7  1  1  0  0  0
  2  5  2  0  0  0  0
  3  2  2  0  0  0  0
  3 18  1  0  0  0  0
  4 39  1  6  0  0  0
  4  5  1  0  0  0  0
  4  1  1  0  0  0  0
  5  1  1  0  0  0  0
  6  8  1  0  0  0  0
  7  6  2  0  0  0  0
  8  9  1  0  0  0  0
  9 10  1  0  0  0  0
 10 12  1  0  0  0  0
 12 11  1  6  0  0  0
 13 12  1  0  0  0  0
 14 13  1  0  0  0  0
 14 15  1  0  0  0  0
 16 15  1  0  0  0  0
 18 17  2  1  0  0  0
 19 21  1  0  0  0  0
 21 22  1  0  0  0  0
 22 23  1  0  0  0  0
 22 20  2  0  0  0  0
 24 26  1  0  0  0  0
 25 19  1  6  0  0  0
 25 23  1  0  0  0  0
 26 21  2  0  0  0  0
 26 18  1  0  0  0  0
 27 34  1  0  0  0  0
 28 27  1  0  0  0  0
 28 30  2  0  0  0  0
 29 34  2  0  0  0  0
 32 30  1  6  0  0  0
 32 25  1  0  0  0  0
 32 33  1  0  0  0  0
 34 31  2  0  0  0  0
 34 33  1  0  0  0  0
 35 27  1  0  0  0  0
 36 38  1  1  0  0  0
 36 37  1  0  0  0  0
 36 35  1  0  0  0  0
 40 49  1  0  0  0  0
 41 50  1  0  0  0  0
 41 43  1  0  0  0  0
 42 47  1  0  0  0  0
 43 49  1  0  0  0  0
 44 48  1  0  0  0  0
 45 46  1  6  0  0  0
 45 47  1  0  0  0  0
 46 44  1  0  0  0  0
 47 40  2  0  0  0  0
 48 42  1  0  0  0  0
 49 39  1  1  0  0  0
 50 45  1  0  0  0  0
M  END
>  <MODEL>
2

>  <REMARK>
 VINA RESULT:      -5.6      1.380      2.255
  Name = 
  15 active torsions:
  status: ('A' for Active; 'I' for Inactive)
    1  A    between atoms: C_3  and  C_23
    2  A    between atoms: C_5  and  N_17
    3  A    between atoms: C_5  and  C_18
    4  A    between atoms: C_7  and  C_33
    5  A    between atoms: C_8  and  C_28
    6  A    between atoms: C_9  and  C_33
    7  A    between atoms: C_9  and  C_46
    8  A    between atoms: N_14  and  C_23
    9  A    between atoms: N_17  and  C_41
   10  A    between atoms: C_27  and  C_48
   11  A    between atoms: C_34  and  S_42
   12  A    between atoms: C_35  and  C_40
   13  A    between atoms: C_37  and  C_40
   14  A    between atoms: C_41  and  C_46
   15  A    between atoms: S_42  and  C_44
                            x       y       z     vdW  Elec       q    Type
                         _______ _______ _______ _____ _____    ______ ____

>  <TORSDO>
F 15

$$$$
=
 OpenBabel11052412093D

 50 54  0  0  1  0  0  0  0  0999 V2000
  159.3920  212.8430  150.6980 C   0  0  2  0  0  3  0  0  0  0  0  0
  159.8910  211.4990  153.0350 C   0  0  0  0  0  0  0  0  0  0  0  0
  160.1050  210.5710  153.9210 C   0  0  0  0  0  3  0  0  0  0  0  0
  159.6110  213.8650  151.6700 C   0  0  2  0  0  3  0  0  0  0  0  0
  159.6920  212.4150  152.1300 C   0  0  0  0  0  0  0  0  0  0  0  0
  161.1090  213.6890  149.1730 C   0  0  0  0  0  3  0  0  0  0  0  0
  160.6180  212.6680  149.8670 C   0  0  0  0  0  3  0  0  0  0  0  0
  162.3410  213.5070  148.3510 C   0  0  0  0  0  2  0  0  0  0  0  0
  162.2070  214.2240  147.0190 C   0  0  0  0  0  2  0  0  0  0  0  0
  160.8910  213.8530  146.3540 C   0  0  0  0  0  2  0  0  0  0  0  0
  162.0850  214.2460  144.2290 C   0  0  0  0  0  1  0  0  0  0  0  0
  161.1250  213.3200  144.9520 C   0  0  2  0  0  3  0  0  0  0  0  0
  159.8650  213.2540  144.2230 N   0  0  0  0  0  2  0  0  0  0  0  0
  160.0100  212.2480  143.1800 C   0  0  0  0  0  2  0  0  0  0  0  0
  159.8190  212.8800  141.8130 C   0  0  0  0  0  2  0  0  0  0  0  0
  159.5370  211.8930  140.8680 O   0  0  0  0  0  1  0  0  0  0  0  0
  161.4150  208.4860  154.7920 O   0  0  0  0  0  0  0  0  0  0  0  0
  161.6510  209.7120  153.9200 S   0  0  1  0  0  0  0  0  0  0  0  0
  161.6570  207.2800  150.5480 C   0  0  0  0  0  2  0  0  0  0  0  0
  160.7020  206.9670  154.0430 O   0  0  0  0  0  0  0  0  0  0  0  0
  161.5130  207.8090  151.9360 C   0  0  0  0  0  0  0  0  0  0  0  0
  161.0480  206.7660  152.8490 C   0  0  0  0  0  0  0  0  0  0  0  0
  160.9020  205.1640  152.0990 S   0  0  0  0  0  0  0  0  0  0  0  0
  162.3260  210.0250  151.2170 C   0  0  0  0  0  1  0  0  0  0  0  0
  160.8270  205.9940  150.4670 C   0  0  2  0  0  3  0  0  0  0  0  0
  161.8120  209.0840  152.2590 C   0  0  0  0  0  0  0  0  0  0  0  0
  161.4080  202.9320  147.3110 N   0  0  0  0  0  0  0  0  0  0  0  0
  160.8550  202.7110  148.6150 C   0  0  0  0  0  3  0  0  0  0  0  0
  163.1530  204.8090  146.6250 O   0  0  0  0  0  0  0  0  0  0  0  0
  160.7640  203.6790  149.5370 C   0  0  0  0  0  3  0  0  0  0  0  0
  161.0000  204.7570  145.4240 O   0  0  0  0  0  0  0  0  0  0  0  0
  161.3180  205.0700  149.3500 C   0  0  1  0  0  3  0  0  0  0  0  0
  160.9670  205.6220  147.9690 C   0  0  0  0  0  2  0  0  0  0  0  0
  161.6780  204.5450  146.7490 S   0  0  0  0  0  0  0  0  0  0  0  0
  161.7060  201.8080  146.4350 C   0  0  0  0  0  2  0  0  0  0  0  0
  160.4350  201.0600  146.0660 C   0  0  2  0  0  3  0  0  0  0  0  0
  160.7360  199.7330  145.7520 O   0  0  0  0  0  1  0  0  0  0  0  0
  159.7940  201.7240  144.8660 C   0  0  0  0  0  1  0  0  0  0  0  0
  158.2880  214.4530  152.1250 C   0  0  0  0  0  2  0  0  0  0  0  0
  156.5710  214.4090  153.8920 C   0  0  0  0  0  3  0  0  0  0  0  0
  158.7150  213.9770  155.7630 C   0  0  0  0  0  2  0  0  0  0  0  0
  154.5220  214.4120  155.2150 C   0  0  0  0  0  2  0  0  0  0  0  0
  158.9250  214.4520  154.4390 O   0  0  0  0  0  0  0  0  0  0  0  0
  154.5130  213.0880  157.2270 O   0  0  0  0  0  0  0  0  0  0  0  0
  156.4550  212.7940  155.8380 C   0  0  1  0  0  3  0  0  0  0  0  0
  155.9120  212.9670  157.2580 C   0  0  0  0  0  2  0  0  0  0  0  0
  155.9120  213.9100  154.9480 C   0  0  0  0  0  0  0  0  0  0  0  0
  154.2430  214.3710  156.7190 C   0  0  0  0  0  2  0  0  0  0  0  0
  157.9580  213.9680  153.5250 C   0  0  2  0  0  3  0  0  0  0  0  0
  157.9820  212.6310  155.8750 C   0  0  0  0  0  2  0  0  0  0  0  0
  1  7  1  6  0  0  0
  1  4  1  0  0  0  0
  1  5  1  0  0  0  0
  2  3  2  0  0  0  0
  4 39  1  1  0  0  0
  4  5  1  0  0  0  0
  5  2  2  0  0  0  0
  6  7  2  0  0  0  0
  8  6  1  0  0  0  0
  9  8  1  0  0  0  0
 10  9  1  0  0  0  0
 12 11  1  6  0  0  0
 12 10  1  0  0  0  0
 13 12  1  0  0  0  0
 14 13  1  0  0  0  0
 15 14  1  0  0  0  0
 16 15  1  0  0  0  0
 18  3  1  0  0  0  0
 18 17  2  1  0  0  0
 19 21  1  0  0  0  0
 21 26  2  0  0  0  0
 21 22  1  0  0  0  0
 22 20  2  0  0  0  0
 23 22  1  0  0  0  0
 24 26  1  0  0  0  0
 25 19  1  1  0  0  0
 25 23  1  0  0  0  0
 26 18  1  0  0  0  0
 27 28  1  0  0  0  0
 28 30  2  0  0  0  0
 29 34  2  0  0  0  0
 31 34  2  0  0  0  0
 32 33  1  6  0  0  0
 32 30  1  0  0  0  0
 32 25  1  0  0  0  0
 34 27  1  0  0  0  0
 34 33  1  0  0  0  0
 35 27  1  0  0  0  0
 36 38  1  6  0  0  0
 36 35  1  0  0  0  0
 37 36  1  0  0  0  0
 40 47  2  0  0  0  0
 41 50  1  0  0  0  0
 42 48  1  0  0  0  0
 43 41  1  0  0  0  0
 44 46  1  0  0  0  0
 45 50  1  1  0  0  0
 45 46  1  0  0  0  0
 47 42  1  0  0  0  0
 47 45  1  0  0  0  0
 48 44  1  0  0  0  0
 49 39  1  6  0  0  0
 49 40  1  0  0  0  0
 49 43  1  0  0  0  0
M  END
>  <MODEL>
3

>  <REMARK>
 VINA RESULT:      -5.3      3.003      8.588
  Name = 
  15 active torsions:
  status: ('A' for Active; 'I' for Inactive)
    1  A    between atoms: C_3  and  C_23
    2  A    between atoms: C_5  and  N_17
    3  A    between atoms: C_5  and  C_18
    4  A    between atoms: C_7  and  C_33
    5  A    between atoms: C_8  and  C_28
    6  A    between atoms: C_9  and  C_33
    7  A    between atoms: C_9  and  C_46
    8  A    between atoms: N_14  and  C_23
    9  A    between atoms: N_17  and  C_41
   10  A    between atoms: C_27  and  C_48
   11  A    between atoms: C_34  and  S_42
   12  A    between atoms: C_35  and  C_40
   13  A    between atoms: C_37  and  C_40
   14  A    between atoms: C_41  and  C_46
   15  A    between atoms: S_42  and  C_44
                            x       y       z     vdW  Elec       q    Type
                         _______ _______ _______ _____ _____    ______ ____

>  <TORSDO>
F 15

$$$$
=
 OpenBabel11052412093D

 50 54  0  0  1  0  0  0  0  0999 V2000
  159.3060  213.2560  149.5830 C   0  0  2  0  0  3  0  0  0  0  0  0
  159.4580  211.6090  151.7700 C   0  0  0  0  0  0  0  0  0  0  0  0
  159.6070  210.5800  152.5500 C   0  0  0  0  0  3  0  0  0  0  0  0
  159.1240  214.1190  150.7050 C   0  0  2  0  0  3  0  0  0  0  0  0
  159.3300  212.6330  150.9740 C   0  0  0  0  0  0  0  0  0  0  0  0
  161.1860  212.4780  148.2240 C   0  0  0  0  0  3  0  0  0  0  0  0
  160.7020  213.3770  149.0760 C   0  0  0  0  0  3  0  0  0  0  0  0
  162.5830  212.6100  147.7150 C   0  0  0  0  0  2  0  0  0  0  0  0
  162.8440  214.0230  147.2260 C   0  0  0  0  0  2  0  0  0  0  0  0
  162.0270  214.3050  145.9740 C   0  0  0  0  0  2  0  0  0  0  0  0
  163.0350  213.1080  144.0650 C   0  0  0  0  0  1  0  0  0  0  0  0
  161.9290  213.0650  145.1020 C   0  0  2  0  0  3  0  0  0  0  0  0
  160.6330  213.0220  144.4360 N   0  0  0  0  0  2  0  0  0  0  0  0
  159.6670  213.6740  145.3080 C   0  0  0  0  0  2  0  0  0  0  0  0
  158.2540  213.3010  144.8950 C   0  0  0  0  0  2  0  0  0  0  0  0
  157.4810  214.4530  144.7490 O   0  0  0  0  0  1  0  0  0  0  0  0
  161.4390  210.0380  154.3320 O   0  0  0  0  0  0  0  0  0  0  0  0
  161.2300  209.9310  152.8270 S   0  0  1  0  0  0  0  0  0  0  0  0
  161.1240  206.2050  150.9860 C   0  0  0  0  0  2  0  0  0  0  0  0
  161.9040  209.6230  150.0170 O   0  0  0  0  0  0  0  0  0  0  0  0
  161.2630  207.6650  151.2660 C   0  0  0  0  0  0  0  0  0  0  0  0
  161.5880  208.4040  150.0470 C   0  0  0  0  0  0  0  0  0  0  0  0
  161.6070  207.4030  148.5810 S   0  0  0  0  0  0  0  0  0  0  0  0
  160.6970  207.3010  153.6410 C   0  0  0  0  0  1  0  0  0  0  0  0
  161.8280  205.9330  149.6520 C   0  0  2  0  0  3  0  0  0  0  0  0
  161.0760  208.1860  152.4960 C   0  0  0  0  0  0  0  0  0  0  0  0
  161.1280  202.2340  147.3070 N   0  0  0  0  0  0  0  0  0  0  0  0
  161.7320  203.4420  146.8250 C   0  0  0  0  0  3  0  0  0  0  0  0
  159.3560  202.0200  149.2690 O   0  0  0  0  0  0  0  0  0  0  0  0
  161.8570  204.5400  147.5810 C   0  0  0  0  0  3  0  0  0  0  0  0
  161.4600  200.7540  149.4880 O   0  0  0  0  0  0  0  0  0  0  0  0
  161.2950  204.6680  148.9750 C   0  0  1  0  0  3  0  0  0  0  0  0
  161.5910  203.4200  149.8060 C   0  0  0  0  0  2  0  0  0  0  0  0
  160.8350  202.0300  148.9990 S   0  0  0  0  0  0  0  0  0  0  0  0
  160.7980  201.1550  146.3870 C   0  0  0  0  0  2  0  0  0  0  0  0
  159.8680  201.6480  145.2900 C   0  0  2  0  0  3  0  0  0  0  0  0
  159.8540  200.7380  144.2320 O   0  0  0  0  0  1  0  0  0  0  0  0
  160.3550  202.9910  144.7870 C   0  0  0  0  0  1  0  0  0  0  0  0
  157.6550  214.4530  150.8830 C   0  0  0  0  0  2  0  0  0  0  0  0
  158.4340  213.7910  153.1250 C   0  0  0  0  0  3  0  0  0  0  0  0
  155.6790  213.2630  153.7670 C   0  0  0  0  0  2  0  0  0  0  0  0
  159.6990  213.2940  155.1510 C   0  0  0  0  0  2  0  0  0  0  0  0
  156.1490  213.4090  152.4340 O   0  0  0  0  0  0  0  0  0  0  0  0
  158.5640  213.5980  157.2530 O   0  0  0  0  0  0  0  0  0  0  0  0
  157.3500  214.3890  155.3330 C   0  0  1  0  0  3  0  0  0  0  0  0
  157.2900  213.6330  156.6620 C   0  0  0  0  0  2  0  0  0  0  0  0
  158.4630  213.8020  154.4650 C   0  0  0  0  0  0  0  0  0  0  0  0
  159.3200  212.6820  156.5010 C   0  0  0  0  0  2  0  0  0  0  0  0
  157.2560  214.2870  152.3380 C   0  0  2  0  0  3  0  0  0  0  0  0
  155.9520  214.4520  154.7000 C   0  0  0  0  0  2  0  0  0  0  0  0
  1  7  1  1  0  0  0
  1  4  1  0  0  0  0
  1  5  1  0  0  0  0
  2  3  2  0  0  0  0
  3 18  1  0  0  0  0
  4 39  1  6  0  0  0
  4  5  1  0  0  0  0
  5  2  2  0  0  0  0
  6  7  2  0  0  0  0
  8  6  1  0  0  0  0
  9  8  1  0  0  0  0
 10  9  1  0  0  0  0
 12 11  1  6  0  0  0
 12 10  1  0  0  0  0
 13 12  1  0  0  0  0
 13 14  1  0  0  0  0
 15 14  1  0  0  0  0
 16 15  1  0  0  0  0
 18 17  2  1  0  0  0
 19 21  1  0  0  0  0
 20 22  2  0  0  0  0
 21 26  2  0  0  0  0
 22 21  1  0  0  0  0
 23 25  1  0  0  0  0
 23 22  1  0  0  0  0
 25 19  1  1  0  0  0
 26 18  1  0  0  0  0
 26 24  1  0  0  0  0
 27 34  1  0  0  0  0
 28 27  1  0  0  0  0
 28 30  2  0  0  0  0
 32 30  1  6  0  0  0
 32 25  1  0  0  0  0
 32 33  1  0  0  0  0
 34 29  2  0  0  0  0
 34 31  2  0  0  0  0
 34 33  1  0  0  0  0
 35 27  1  0  0  0  0
 36 38  1  6  0  0  0
 36 35  1  0  0  0  0
 37 36  1  0  0  0  0
 40 47  2  0  0  0  0
 41 50  1  0  0  0  0
 42 48  1  0  0  0  0
 43 41  1  0  0  0  0
 45 50  1  6  0  0  0
 45 46  1  0  0  0  0
 46 44  1  0  0  0  0
 47 42  1  0  0  0  0
 47 45  1  0  0  0  0
 48 44  1  0  0  0  0
 49 39  1  6  0  0  0
 49 43  1  0  0  0  0
 49 40  1  0  0  0  0
M  END
>  <MODEL>
4

>  <REMARK>
 VINA RESULT:      -5.1      2.543      7.820
  Name = 
  15 active torsions:
  status: ('A' for Active; 'I' for Inactive)
    1  A    between atoms: C_3  and  C_23
    2  A    between atoms: C_5  and  N_17
    3  A    between atoms: C_5  and  C_18
    4  A    between atoms: C_7  and  C_33
    5  A    between atoms: C_8  and  C_28
    6  A    between atoms: C_9  and  C_33
    7  A    between atoms: C_9  and  C_46
    8  A    between atoms: N_14  and  C_23
    9  A    between atoms: N_17  and  C_41
   10  A    between atoms: C_27  and  C_48
   11  A    between atoms: C_34  and  S_42
   12  A    between atoms: C_35  and  C_40
   13  A    between atoms: C_37  and  C_40
   14  A    between atoms: C_41  and  C_46
   15  A    between atoms: S_42  and  C_44
                            x       y       z     vdW  Elec       q    Type
                         _______ _______ _______ _____ _____    ______ ____

>  <TORSDO>
F 15

$$$$
=
 OpenBabel11052412093D

 50 54  0  0  1  0  0  0  0  0999 V2000
  159.5670  213.1930  152.3130 C   0  0  2  0  0  3  0  0  0  0  0  0
  161.5530  211.3580  151.8580 C   0  0  0  0  0  0  0  0  0  0  0  0
  162.4780  210.4560  152.0070 C   0  0  0  0  0  3  0  0  0  0  0  0
  159.6820  213.1210  150.8920 C   0  0  2  0  0  3  0  0  0  0  0  0
  160.6110  212.2480  151.7280 C   0  0  0  0  0  0  0  0  0  0  0  0
  157.6420  212.8270  153.7780 C   0  0  0  0  0  3  0  0  0  0  0  0
  158.3870  212.4010  152.7630 C   0  0  0  0  0  3  0  0  0  0  0  0
  156.4580  212.0320  154.2180 C   0  0  0  0  0  2  0  0  0  0  0  0
  156.8580  211.0080  155.2650 C   0  0  0  0  0  2  0  0  0  0  0  0
  156.8620  211.6440  156.6460 C   0  0  0  0  0  2  0  0  0  0  0  0
  158.6900  213.2040  157.2090 C   0  0  0  0  0  1  0  0  0  0  0  0
  158.2750  211.7450  157.1910 C   0  0  2  0  0  3  0  0  0  0  0  0
  159.1920  210.9850  156.3500 N   0  0  0  0  0  2  0  0  0  0  0  0
  160.3520  211.8260  156.0900 C   0  0  0  0  0  2  0  0  0  0  0  0
  161.6130  211.1510  156.6020 C   0  0  0  0  0  2  0  0  0  0  0  0
  162.3240  210.6020  155.5350 O   0  0  0  0  0  1  0  0  0  0  0  0
  160.6490  208.9400  153.0930 O   0  0  0  0  0  0  0  0  0  0  0  0
  162.0160  208.8030  152.4360 S   0  0  1  0  0  0  0  0  0  0  0  0
  161.3290  205.9980  149.4460 C   0  0  0  0  0  2  0  0  0  0  0  0
  161.7300  205.9780  153.0610 O   0  0  0  0  0  0  0  0  0  0  0  0
  161.5750  206.6680  150.7570 C   0  0  0  0  0  0  0  0  0  0  0  0
  161.6720  205.6860  151.8370 C   0  0  0  0  0  0  0  0  0  0  0  0
  161.5940  204.0000  151.2880 S   0  0  0  0  0  0  0  0  0  0  0  0
  161.6340  208.8770  149.6600 C   0  0  0  0  0  1  0  0  0  0  0  0
  160.7940  204.5940  149.7510 C   0  0  2  0  0  3  0  0  0  0  0  0
  161.7100  208.0050  150.8720 C   0  0  0  0  0  0  0  0  0  0  0  0
  160.5910  201.6300  146.4570 N   0  0  0  0  0  0  0  0  0  0  0  0
  160.0000  201.4950  147.7570 C   0  0  0  0  0  3  0  0  0  0  0  0
  162.7500  203.0410  145.8340 O   0  0  0  0  0  0  0  0  0  0  0  0
  160.1550  202.4120  148.7210 C   0  0  0  0  0  3  0  0  0  0  0  0
  160.6520  203.5820  144.6570 O   0  0  0  0  0  0  0  0  0  0  0  0
  161.0380  203.6280  148.5890 C   0  0  1  0  0  3  0  0  0  0  0  0
  160.8370  204.3120  147.2370 C   0  0  0  0  0  2  0  0  0  0  0  0
  161.2560  203.1480  145.9630 S   0  0  0  0  0  0  0  0  0  0  0  0
  160.5990  200.5080  145.5290 C   0  0  0  0  0  2  0  0  0  0  0  0
  161.1050  199.2470  146.2120 C   0  0  2  0  0  3  0  0  0  0  0  0
  162.0190  199.5810  147.2140 O   0  0  0  0  0  1  0  0  0  0  0  0
  161.7870  198.3630  145.1890 C   0  0  0  0  0  1  0  0  0  0  0  0
  160.4650  214.3080  150.3640 C   0  0  0  0  0  2  0  0  0  0  0  0
  159.6880  213.6300  148.1260 C   0  0  0  0  0  3  0  0  0  0  0  0
  162.4060  212.8590  147.5760 C   0  0  0  0  0  2  0  0  0  0  0  0
  158.4350  213.1630  146.0860 C   0  0  0  0  0  2  0  0  0  0  0  0
  161.9170  213.0910  148.8910 O   0  0  0  0  0  0  0  0  0  0  0  0
  159.6410  213.2990  144.0050 O   0  0  0  0  0  0  0  0  0  0  0  0
  160.8690  214.0580  145.9290 C   0  0  1  0  0  3  0  0  0  0  0  0
  160.8980  213.2520  144.6280 C   0  0  0  0  0  2  0  0  0  0  0  0
  159.6920  213.5940  146.7860 C   0  0  0  0  0  0  0  0  0  0  0  0
  158.7950  212.4740  144.7680 C   0  0  0  0  0  2  0  0  0  0  0  0
  160.8830  214.0580  148.9270 C   0  0  2  0  0  3  0  0  0  0  0  0
  162.2520  214.0320  146.5950 C   0  0  0  0  0  2  0  0  0  0  0  0
  1  7  1  6  0  0  0
  2  3  2  0  0  0  0
  3 18  1  0  0  0  0
  4 39  1  1  0  0  0
  4  5  1  0  0  0  0
  4  1  1  0  0  0  0
  5  2  2  0  0  0  0
  5  1  1  0  0  0  0
  6  8  1  0  0  0  0
  7  6  2  0  0  0  0
  8  9  1  0  0  0  0
  9 10  1  0  0  0  0
 10 12  1  0  0  0  0
 12 11  1  6  0  0  0
 13 12  1  0  0  0  0
 14 13  1  0  0  0  0
 14 15  1  0  0  0  0
 16 15  1  0  0  0  0
 18 17  2  1  0  0  0
 19 21  1  0  0  0  0
 21 26  2  0  0  0  0
 21 22  1  0  0  0  0
 22 20  2  0  0  0  0
 23 22  1  0  0  0  0
 24 26  1  0  0  0  0
 25 19  1  6  0  0  0
 25 23  1  0  0  0  0
 26 18  1  0  0  0  0
 27 28  1  0  0  0  0
 28 30  2  0  0  0  0
 29 34  2  0  0  0  0
 31 34  2  0  0  0  0
 32 33  1  6  0  0  0
 32 30  1  0  0  0  0
 32 25  1  0  0  0  0
 34 27  1  0  0  0  0
 34 33  1  0  0  0  0
 35 36  1  0  0  0  0
 35 27  1  0  0  0  0
 36 38  1  6  0  0  0
 36 37  1  0  0  0  0
 40 49  1  0  0  0  0
 41 43  1  0  0  0  0
 42 47  1  0  0  0  0
 43 49  1  0  0  0  0
 44 46  1  0  0  0  0
 44 48  1  0  0  0  0
 45 46  1  6  0  0  0
 45 50  1  0  0  0  0
 45 47  1  0  0  0  0
 47 40  2  0  0  0  0
 48 42  1  0  0  0  0
 49 39  1  1  0  0  0
 50 41  1  0  0  0  0
M  END
>  <MODEL>
5

>  <REMARK>
 VINA RESULT:      -5.1      2.126      3.595
  Name = 
  15 active torsions:
  status: ('A' for Active; 'I' for Inactive)
    1  A    between atoms: C_3  and  C_23
    2  A    between atoms: C_5  and  N_17
    3  A    between atoms: C_5  and  C_18
    4  A    between atoms: C_7  and  C_33
    5  A    between atoms: C_8  and  C_28
    6  A    between atoms: C_9  and  C_33
    7  A    between atoms: C_9  and  C_46
    8  A    between atoms: N_14  and  C_23
    9  A    between atoms: N_17  and  C_41
   10  A    between atoms: C_27  and  C_48
   11  A    between atoms: C_34  and  S_42
   12  A    between atoms: C_35  and  C_40
   13  A    between atoms: C_37  and  C_40
   14  A    between atoms: C_41  and  C_46
   15  A    between atoms: S_42  and  C_44
                            x       y       z     vdW  Elec       q    Type
                         _______ _______ _______ _____ _____    ______ ____

>  <TORSDO>
F 15

$$$$
=
 OpenBabel11052412093D

 50 54  0  0  1  0  0  0  0  0999 V2000
  159.9730  214.2220  149.2650 C   0  0  2  0  0  3  0  0  0  0  0  0
  161.8460  212.2200  149.3230 C   0  0  0  0  0  0  0  0  0  0  0  0
  162.7660  211.3810  149.6980 C   0  0  0  0  0  3  0  0  0  0  0  0
  159.8960  213.6100  147.9770 C   0  0  2  0  0  3  0  0  0  0  0  0
  160.9120  213.0570  148.9710 C   0  0  0  0  0  0  0  0  0  0  0  0
  158.8130  214.0430  151.4120 C   0  0  0  0  0  3  0  0  0  0  0  0
  158.8490  213.7410  150.1180 C   0  0  0  0  0  3  0  0  0  0  0  0
  157.6810  213.5650  152.2580 C   0  0  0  0  0  2  0  0  0  0  0  0
  158.0930  213.4950  153.7170 C   0  0  0  0  0  2  0  0  0  0  0  0
  157.9820  212.0670  154.2270 C   0  0  0  0  0  2  0  0  0  0  0  0
  159.4040  211.4630  156.1520 C   0  0  0  0  0  1  0  0  0  0  0  0
  158.0560  212.0260  155.7430 C   0  0  2  0  0  3  0  0  0  0  0  0
  156.9920  211.1830  156.2750 N   0  0  0  0  0  2  0  0  0  0  0  0
  156.2460  211.9750  157.2430 C   0  0  0  0  0  2  0  0  0  0  0  0
  155.5690  213.1450  156.5520 C   0  0  0  0  0  2  0  0  0  0  0  0
  154.3390  213.4070  157.1570 O   0  0  0  0  0  1  0  0  0  0  0  0
  161.0440  210.4970  151.4520 O   0  0  0  0  0  0  0  0  0  0  0  0
  162.3350  210.0480  150.7790 S   0  0  1  0  0  0  0  0  0  0  0  0
  161.1830  206.3710  149.2200 C   0  0  0  0  0  2  0  0  0  0  0  0
  161.7630  207.7910  152.5180 O   0  0  0  0  0  0  0  0  0  0  0  0
  161.5700  207.4850  150.1350 C   0  0  0  0  0  0  0  0  0  0  0  0
  161.6100  207.0310  151.5250 C   0  0  0  0  0  0  0  0  0  0  0  0
  161.3130  205.2920  151.7240 S   0  0  0  0  0  0  0  0  0  0  0  0
  161.8220  209.0220  148.2210 C   0  0  0  0  0  1  0  0  0  0  0  0
  160.5090  205.2950  150.0790 C   0  0  2  0  0  3  0  0  0  0  0  0
  161.8610  208.7230  149.6860 C   0  0  0  0  0  0  0  0  0  0  0  0
  161.5570  201.5810  147.8920 N   0  0  0  0  0  0  0  0  0  0  0  0
  161.7200  202.9220  147.4120 C   0  0  0  0  0  3  0  0  0  0  0  0
  159.7570  200.7320  149.6460 O   0  0  0  0  0  0  0  0  0  0  0  0
  161.3250  203.9950  148.1110 C   0  0  0  0  0  3  0  0  0  0  0  0
  162.1360  200.3620  150.1800 O   0  0  0  0  0  0  0  0  0  0  0  0
  160.5820  203.9150  149.4210 C   0  0  1  0  0  3  0  0  0  0  0  0
  161.2140  202.8810  150.3530 C   0  0  0  0  0  2  0  0  0  0  0  0
  161.1450  201.3000  149.5480 S   0  0  0  0  0  0  0  0  0  0  0  0
  161.7770  200.4470  147.0060 C   0  0  0  0  0  2  0  0  0  0  0  0
  160.5100  200.1110  146.2360 C   0  0  2  0  0  3  0  0  0  0  0  0
  160.7490  199.0460  145.3650 O   0  0  0  0  0  1  0  0  0  0  0  0
  160.0740  201.3210  145.4360 C   0  0  0  0  0  1  0  0  0  0  0  0
  160.6240  214.4530  146.9470 C   0  0  0  0  0  2  0  0  0  0  0  0
  161.3910  214.3860  144.6070 C   0  0  0  0  0  3  0  0  0  0  0  0
  158.6420  213.9550  143.8710 C   0  0  0  0  0  2  0  0  0  0  0  0
  162.6520  214.3680  142.5180 C   0  0  0  0  0  2  0  0  0  0  0  0
  159.0360  214.4400  145.1480 O   0  0  0  0  0  0  0  0  0  0  0  0
  161.7730  213.0290  140.7190 O   0  0  0  0  0  0  0  0  0  0  0  0
  160.6370  212.7570  142.8220 C   0  0  1  0  0  3  0  0  0  0  0  0
  160.5020  212.9160  141.3060 C   0  0  0  0  0  2  0  0  0  0  0  0
  161.5190  213.8760  143.3730 C   0  0  0  0  0  0  0  0  0  0  0  0
  162.2420  214.3150  141.0450 C   0  0  0  0  0  2  0  0  0  0  0  0
  160.3050  213.9560  145.5490 C   0  0  2  0  0  3  0  0  0  0  0  0
  159.2480  212.6040  143.4600 C   0  0  0  0  0  2  0  0  0  0  0  0
  1  7  1  1  0  0  0
  2  3  2  0  0  0  0
  3 18  1  0  0  0  0
  4 39  1  6  0  0  0
  4  5  1  0  0  0  0
  4  1  1  0  0  0  0
  5  1  1  0  0  0  0
  5  2  2  0  0  0  0
  6  8  1  0  0  0  0
  7  6  2  0  0  0  0
  8  9  1  0  0  0  0
  9 10  1  0  0  0  0
 10 12  1  0  0  0  0
 12 11  1  6  0  0  0
 12 13  1  0  0  0  0
 13 14  1  0  0  0  0
 15 16  1  0  0  0  0
 15 14  1  0  0  0  0
 18 17  2  1  0  0  0
 19 21  1  0  0  0  0
 21 22  1  0  0  0  0
 22 23  1  0  0  0  0
 22 20  2  0  0  0  0
 24 26  1  0  0  0  0
 25 19  1  6  0  0  0
 25 23  1  0  0  0  0
 26 21  2  0  0  0  0
 26 18  1  0  0  0  0
 27 34  1  0  0  0  0
 28 27  1  0  0  0  0
 28 30  2  0  0  0  0
 32 30  1  6  0  0  0
 32 25  1  0  0  0  0
 32 33  1  0  0  0  0
 34 29  2  0  0  0  0
 34 31  2  0  0  0  0
 34 33  1  0  0  0  0
 35 27  1  0  0  0  0
 36 38  1  6  0  0  0
 36 35  1  0  0  0  0
 37 36  1  0  0  0  0
 40 49  1  0  0  0  0
 41 43  1  0  0  0  0
 42 47  1  0  0  0  0
 43 49  1  0  0  0  0
 44 48  1  0  0  0  0
 44 46  1  0  0  0  0
 45 46  1  6  0  0  0
 45 47  1  0  0  0  0
 45 50  1  0  0  0  0
 47 40  2  0  0  0  0
 48 42  1  0  0  0  0
 49 39  1  1  0  0  0
 50 41  1  0  0  0  0
M  END
>  <MODEL>
6

>  <REMARK>
 VINA RESULT:      -4.0      1.621      1.997
  Name = 
  15 active torsions:
  status: ('A' for Active; 'I' for Inactive)
    1  A    between atoms: C_3  and  C_23
    2  A    between atoms: C_5  and  N_17
    3  A    between atoms: C_5  and  C_18
    4  A    between atoms: C_7  and  C_33
    5  A    between atoms: C_8  and  C_28
    6  A    between atoms: C_9  and  C_33
    7  A    between atoms: C_9  and  C_46
    8  A    between atoms: N_14  and  C_23
    9  A    between atoms: N_17  and  C_41
   10  A    between atoms: C_27  and  C_48
   11  A    between atoms: C_34  and  S_42
   12  A    between atoms: C_35  and  C_40
   13  A    between atoms: C_37  and  C_40
   14  A    between atoms: C_41  and  C_46
   15  A    between atoms: S_42  and  C_44
                            x       y       z     vdW  Elec       q    Type
                         _______ _______ _______ _____ _____    ______ ____

>  <TORSDO>
F 15

$$$$
=
 OpenBabel11052412093D

 50 55  0  0  1  0  0  0  0  0999 V2000
  159.8350  214.1850  150.9090 C   0  0  2  0  0  3  0  0  0  0  0  0
  161.1050  211.7980  151.3650 C   0  0  0  0  0  2  0  0  0  0  0  0
  161.7170  210.7960  151.9230 C   0  0  1  0  0  3  0  0  0  0  0  0
  159.7840  213.4980  149.6590 C   0  0  2  0  0  3  0  0  0  0  0  0
  160.4750  212.8040  150.8270 C   0  0  1  0  0  3  0  0  0  0  0  0
  158.4200  214.3130  152.9020 C   0  0  0  0  0  3  0  0  0  0  0  0
  158.5170  214.0750  151.5980 C   0  0  0  0  0  3  0  0  0  0  0  0
  157.0960  214.2080  153.5820 C   0  0  0  0  0  2  0  0  0  0  0  0
  157.2600  214.2840  155.0890 C   0  0  0  0  0  2  0  0  0  0  0  0
  157.3800  212.8850  155.6750 C   0  0  0  0  0  2  0  0  0  0  0  0
  159.7500  213.4070  156.1280 C   0  0  0  0  0  1  0  0  0  0  0  0
  158.4790  212.8290  156.7210 C   0  0  2  0  0  3  0  0  0  0  0  0
  158.7130  211.4500  157.1300 N   0  0  0  0  0  2  0  0  0  0  0  0
  159.9940  211.0360  156.5750 C   0  0  0  0  0  2  0  0  0  0  0  0
  160.3090  209.6100  156.9920 C   0  0  0  0  0  2  0  0  0  0  0  0
  159.7270  208.7140  156.0950 O   0  0  0  0  0  1  0  0  0  0  0  0
  159.3480  209.9850  152.6670 O   0  0  0  0  0  0  0  0  0  0  0  0
  160.8110  209.7120  152.9900 S   0  0  1  0  0  0  0  0  0  0  0  0
  161.7250  206.4940  150.5230 C   0  0  0  0  0  2  0  0  0  0  0  0
  161.5420  210.1120  150.2050 O   0  0  0  0  0  0  0  0  0  0  0  0
  161.4600  207.8610  151.0600 C   0  0  0  0  0  0  0  0  0  0  0  0
  161.5710  208.8690  150.0060 C   0  0  0  0  0  0  0  0  0  0  0  0
  161.8620  208.1940  148.3910 S   0  0  0  0  0  0  0  0  0  0  0  0
  161.0170  206.9340  153.3040 C   0  0  0  0  0  1  0  0  0  0  0  0
  162.4760  206.6680  149.1970 C   0  0  2  0  0  3  0  0  0  0  0  0
  161.1390  208.0810  152.3510 C   0  0  2  0  0  3  0  0  0  0  0  0
  161.1710  203.0540  146.9800 N   0  0  0  0  0  0  0  0  0  0  0  0
  161.0890  203.2550  148.3980 C   0  0  0  0  0  3  0  0  0  0  0  0
  162.9300  204.1470  145.3220 O   0  0  0  0  0  0  0  0  0  0  0  0
  161.5590  204.3550  149.0020 C   0  0  0  0  0  3  0  0  0  0  0  0
  160.5370  204.5400  144.8720 O   0  0  0  0  0  0  0  0  0  0  0  0
  162.3080  205.4500  148.2850 C   0  0  1  0  0  3  0  0  0  0  0  0
  161.6200  205.8220  146.9720 C   0  0  0  0  0  2  0  0  0  0  0  0
  161.5800  204.3760  145.9420 S   0  0  0  0  0  0  0  0  0  0  0  0
  160.8710  201.7530  146.4000 C   0  0  0  0  0  2  0  0  0  0  0  0
  161.6400  200.6540  147.1150 C   0  0  2  0  0  3  0  0  0  0  0  0
  161.4540  199.4360  146.4570 O   0  0  0  0  0  1  0  0  0  0  0  0
  161.1370  200.5340  148.5380 C   0  0  0  0  0  1  0  0  0  0  0  0
  160.8410  214.0410  148.7150 C   0  0  0  0  0  2  0  0  0  0  0  0
  161.7220  213.8890  146.4180 C   0  0  0  0  0  3  0  0  0  0  0  0
  158.9860  213.9170  145.5230 C   0  0  0  0  0  2  0  0  0  0  0  0
  163.0820  213.7020  144.4020 C   0  0  0  0  0  2  0  0  0  0  0  0
  159.3780  214.3120  146.8320 O   0  0  0  0  0  0  0  0  0  0  0  0
  162.1060  212.5510  142.5240 O   0  0  0  0  0  0  0  0  0  0  0  0
  160.8220  212.4310  144.5550 C   0  0  1  0  0  3  0  0  0  0  0  0
  160.8010  212.6340  143.0380 C   0  0  0  0  0  2  0  0  0  0  0  0
  161.8370  213.3850  145.1810 C   0  0  0  0  0  0  0  0  0  0  0  0
  162.7540  213.7390  142.9080 C   0  0  0  0  0  2  0  0  0  0  0  0
  160.5280  213.6240  147.2890 C   0  0  2  0  0  3  0  0  0  0  0  0
  159.3920  212.4930  145.1130 C   0  0  0  0  0  2  0  0  0  0  0  0
  1  7  1  1  0  0  0
  3  2  1  6  0  0  0
  3 18  1  0  0  0  0
  4 39  1  6  0  0  0
  4  5  1  0  0  0  0
  4  1  1  0  0  0  0
  5  1  1  0  0  0  0
  5  2  1  1  0  0  0
  6  8  1  0  0  0  0
  7  6  2  0  0  0  0
  8  9  1  0  0  0  0
  9 10  1  0  0  0  0
 10 12  1  0  0  0  0
 12 11  1  6  0  0  0
 12 13  1  0  0  0  0
 14 15  1  0  0  0  0
 14 13  1  0  0  0  0
 16 15  1  0  0  0  0
 18 17  2  6  0  0  0
 19 21  1  0  0  0  0
 20  3  1  0  0  0  0
 21 26  1  0  0  0  0
 22 20  1  0  0  0  0
 22 21  2  0  0  0  0
 23 25  1  0  0  0  0
 23 22  1  0  0  0  0
 25 19  1  1  0  0  0
 26 18  1  0  0  0  0
 26 24  1  6  0  0  0
 27 28  1  0  0  0  0
 28 30  2  0  0  0  0
 29 34  2  0  0  0  0
 31 34  2  0  0  0  0
 32 33  1  6  0  0  0
 32 30  1  0  0  0  0
 32 25  1  0  0  0  0
 34 33  1  0  0  0  0
 34 27  1  0  0  0  0
 35 27  1  0  0  0  0
 35 36  1  0  0  0  0
 36 38  1  1  0  0  0
 37 36  1  0  0  0  0
 40 49  1  0  0  0  0
 41 43  1  0  0  0  0
 42 47  1  0  0  0  0
 43 49  1  0  0  0  0
 44 48  1  0  0  0  0
 44 46  1  0  0  0  0
 45 46  1  6  0  0  0
 45 50  1  0  0  0  0
 45 47  1  0  0  0  0
 47 40  2  0  0  0  0
 48 42  1  0  0  0  0
 49 39  1  1  0  0  0
 50 41  1  0  0  0  0
M  END
>  <MODEL>
7

>  <REMARK>
 VINA RESULT:      -2.9      2.207      3.052
  Name = 
  15 active torsions:
  status: ('A' for Active; 'I' for Inactive)
    1  A    between atoms: C_3  and  C_23
    2  A    between atoms: C_5  and  N_17
    3  A    between atoms: C_5  and  C_18
    4  A    between atoms: C_7  and  C_33
    5  A    between atoms: C_8  and  C_28
    6  A    between atoms: C_9  and  C_33
    7  A    between atoms: C_9  and  C_46
    8  A    between atoms: N_14  and  C_23
    9  A    between atoms: N_17  and  C_41
   10  A    between atoms: C_27  and  C_48
   11  A    between atoms: C_34  and  S_42
   12  A    between atoms: C_35  and  C_40
   13  A    between atoms: C_37  and  C_40
   14  A    between atoms: C_41  and  C_46
   15  A    between atoms: S_42  and  C_44
                            x       y       z     vdW  Elec       q    Type
                         _______ _______ _______ _____ _____    ______ ____

>  <TORSDO>
F 15

$$$$
