=
 OpenBabel11052410273D

 36 40  0  0  1  0  0  0  0  0999 V2000
  161.3370  204.6830  150.3940 C   0  0  0  0  0  3  0  0  0  0  0  0
  161.0430  206.6780  151.7110 C   0  0  0  0  0  0  0  0  0  0  0  0
  161.4660  204.5620  152.7400 N   0  0  0  0  0  0  0  0  0  0  0  0
  160.9360  207.8530  154.2540 C   0  0  0  0  0  3  0  0  0  0  0  0
  161.1010  206.0570  150.4550 C   0  0  0  0  0  0  0  0  0  0  0  0
  160.8010  208.0530  151.8460 C   0  0  0  0  0  3  0  0  0  0  0  0
  161.1810  206.4820  154.1320 C   0  0  0  0  0  3  0  0  0  0  0  0
  161.2340  205.8930  152.8650 C   0  0  0  0  0  0  0  0  0  0  0  0
  161.5160  203.9750  151.5410 N   0  0  0  0  0  0  0  0  0  0  0  0
  160.7440  208.6440  153.1130 C   0  0  0  0  0  0  0  0  0  0  0  0
  160.4820  210.0840  153.2350 C   0  0  0  0  0  0  0  0  0  0  0  0
  160.2850  212.0050  154.1430 N   0  0  0  0  0  0  0  0  0  0  0  0
  160.5700  210.7570  154.3570 O   0  0  0  0  0  0  0  0  0  0  0  0
  160.1270  210.8800  152.2060 N   0  0  0  0  0  0  0  0  0  0  0  0
  160.0070  212.0720  152.8270 C   0  0  0  0  0  0  0  0  0  0  0  0
  159.6670  213.3480  152.1260 C   0  0  2  0  0  3  0  0  0  0  0  0
  158.7670  214.1070  152.8850 O   0  0  0  0  0  1  0  0  0  0  0  0
  157.4640  213.5980  149.1600 C   0  0  0  0  0  2  0  0  0  0  0  0
  159.1640  213.0860  150.7720 N   0  0  0  0  0  0  0  0  0  0  0  0
  159.9410  213.8860  149.8370 C   0  0  0  0  0  2  0  0  0  0  0  0
  158.9720  214.1430  148.3200 S   0  0  0  0  0  0  0  0  0  0  0  0
  157.7790  213.5200  150.6340 C   0  0  0  0  0  2  0  0  0  0  0  0
  160.8880  206.8210  149.1880 C   0  0  0  0  0  2  0  0  0  0  0  0
  161.8250  206.3090  148.1070 C   0  0  0  0  0  2  0  0  0  0  0  0
  160.4870  206.5540  146.0940 N   0  0  0  0  0  1  0  0  0  0  0  0
  161.0330  205.5860  147.0300 C   0  0  1  0  0  3  0  0  0  0  0  0
  161.9000  204.6050  146.3000 C   0  0  0  0  0  0  0  0  0  0  0  0
  163.1140  204.6270  146.4410 O   0  0  0  0  0  0  0  0  0  0  0  0
  161.2610  203.5690  145.4230 C   0  0  0  0  0  2  0  0  0  0  0  0
  160.1220  201.4000  145.5170 N   0  0  0  0  0  1  0  0  0  0  0  0
  161.2290  202.1750  146.0600 C   0  0  2  0  0  3  0  0  0  0  0  0
  161.8570  201.0400  148.2180 C   0  0  0  0  0  2  0  0  0  0  0  0
  159.8170  201.5340  149.4600 C   0  0  0  0  0  2  0  0  0  0  0  0
  161.1560  202.2280  147.5890 C   0  0  0  0  0  3  0  0  0  0  0  0
  161.0970  200.7200  149.4920 C   0  0  0  0  0  2  0  0  0  0  0  0
  159.7260  202.1350  148.0750 C   0  0  0  0  0  2  0  0  0  0  0  0
  1  5  2  0  0  0  0
  1  9  1  0  0  0  0
  2  6  2  0  0  0  0
  2  8  1  0  0  0  0
  3  8  1  0  0  0  0
  5  2  1  0  0  0  0
  6 10  1  0  0  0  0
  7  4  1  0  0  0  0
  8  7  2  0  0  0  0
  9  3  2  0  0  0  0
 10 11  1  0  0  0  0
 10  4  2  0  0  0  0
 11 13  1  0  0  0  0
 12 13  1  0  0  0  0
 14 15  1  0  0  0  0
 14 11  2  0  0  0  0
 15 12  2  0  0  0  0
 16 15  1  0  0  0  0
 16 17  1  1  0  0  0
 18 22  1  0  0  0  0
 19 16  1  0  0  0  0
 20 19  1  0  0  0  0
 21 18  1  0  0  0  0
 21 20  1  0  0  0  0
 22 19  1  0  0  0  0
 23  5  1  0  0  0  0
 24 23  1  0  0  0  0
 26 25  1  6  0  0  0
 26 24  1  0  0  0  0
 27 28  2  0  0  0  0
 27 26  1  0  0  0  0
 29 31  1  0  0  0  0
 29 27  1  0  0  0  0
 31 30  1  6  0  0  0
 31 34  1  0  0  0  0
 32 35  1  0  0  0  0
 33 35  1  0  0  0  0
 34 36  1  0  0  0  0
 34 32  1  0  0  0  0
 36 33  1  0  0  0  0
M  END
>  <MODEL>
1

>  <REMARK>
 VINA RESULT:      -8.2      0.000      0.000
  Name = 
  10 active torsions:
  status: ('A' for Active; 'I' for Inactive)
    1  A    between atoms: N_5  and  C_7
    2  A    between atoms: C_7  and  C_32
    3  A    between atoms: C_11  and  C_21
    4  A    between atoms: C_14  and  C_35
    5  A    between atoms: C_20  and  C_31
    6  A    between atoms: C_20  and  C_34
    7  A    between atoms: C_21  and  C_25
    8  A    between atoms: C_25  and  C_31
    9  A    between atoms: C_26  and  C_27
   10  A    between atoms: C_27  and  C_34
                            x       y       z     vdW  Elec       q    Type
                         _______ _______ _______ _____ _____    ______ ____

>  <TORSDO>
F 10

$$$$
=
 OpenBabel11052410273D

 36 40  0  0  1  0  0  0  0  0999 V2000
  161.3660  204.6110  150.0660 C   0  0  0  0  0  3  0  0  0  0  0  0
  161.0780  206.5510  151.4640 C   0  0  0  0  0  0  0  0  0  0  0  0
  161.5000  204.3930  152.4040 N   0  0  0  0  0  0  0  0  0  0  0  0
  160.9790  207.6210  154.0530 C   0  0  0  0  0  3  0  0  0  0  0  0
  161.1310  205.9810  150.1830 C   0  0  0  0  0  0  0  0  0  0  0  0
  160.8380  207.9190  151.6550 C   0  0  0  0  0  3  0  0  0  0  0  0
  161.2220  206.2560  153.8740 C   0  0  0  0  0  3  0  0  0  0  0  0
  161.2710  205.7190  152.5850 C   0  0  0  0  0  0  0  0  0  0  0  0
  161.5460  203.8560  151.1820 N   0  0  0  0  0  0  0  0  0  0  0  0
  160.7860  208.4580  152.9450 C   0  0  0  0  0  0  0  0  0  0  0  0
  160.5260  209.8920  153.1270 C   0  0  0  0  0  0  0  0  0  0  0  0
  160.3400  211.9620  152.6420 N   0  0  0  0  0  0  0  0  0  0  0  0
  160.6400  210.7880  152.1760 O   0  0  0  0  0  0  0  0  0  0  0  0
  160.1360  210.4510  154.2900 N   0  0  0  0  0  0  0  0  0  0  0  0
  160.0410  211.7500  153.9370 C   0  0  0  0  0  0  0  0  0  0  0  0
  159.5890  212.8350  154.8610 C   0  0  2  0  0  3  0  0  0  0  0  0
  159.7230  212.4380  156.1980 O   0  0  0  0  0  1  0  0  0  0  0  0
  155.9100  212.6100  154.4950 C   0  0  0  0  0  2  0  0  0  0  0  0
  158.2190  213.2580  154.5450 N   0  0  0  0  0  0  0  0  0  0  0  0
  157.7170  214.0400  155.6640 C   0  0  0  0  0  2  0  0  0  0  0  0
  155.8980  213.9980  155.6560 S   0  0  0  0  0  0  0  0  0  0  0  0
  157.3320  212.1080  154.4150 C   0  0  0  0  0  2  0  0  0  0  0  0
  160.9160  206.7970  148.9490 C   0  0  0  0  0  2  0  0  0  0  0  0
  161.8020  206.2840  147.8250 C   0  0  0  0  0  2  0  0  0  0  0  0
  160.4490  206.5200  145.8210 N   0  0  0  0  0  1  0  0  0  0  0  0
  160.9610  205.5620  146.7860 C   0  0  1  0  0  3  0  0  0  0  0  0
  161.7680  204.5120  146.0830 C   0  0  0  0  0  0  0  0  0  0  0  0
  162.9860  204.4930  146.1910 O   0  0  0  0  0  0  0  0  0  0  0  0
  161.0660  203.4600  145.2770 C   0  0  0  0  0  2  0  0  0  0  0  0
  160.0370  201.2400  145.4160 N   0  0  0  0  0  1  0  0  0  0  0  0
  161.1240  202.0690  145.9180 C   0  0  2  0  0  3  0  0  0  0  0  0
  161.8090  200.9280  148.0550 C   0  0  0  0  0  2  0  0  0  0  0  0
  159.8170  201.4500  149.3640 C   0  0  0  0  0  2  0  0  0  0  0  0
  161.1020  202.1240  147.4480 C   0  0  0  0  0  3  0  0  0  0  0  0
  161.0880  200.6190  149.3540 C   0  0  0  0  0  2  0  0  0  0  0  0
  159.6880  202.0510  147.9820 C   0  0  0  0  0  2  0  0  0  0  0  0
  1  5  2  0  0  0  0
  1  9  1  0  0  0  0
  2  6  2  0  0  0  0
  2  8  1  0  0  0  0
  3  8  1  0  0  0  0
  5  2  1  0  0  0  0
  6 10  1  0  0  0  0
  7  4  1  0  0  0  0
  8  7  2  0  0  0  0
  9  3  2  0  0  0  0
 10 11  1  0  0  0  0
 10  4  2  0  0  0  0
 11 14  2  0  0  0  0
 12 15  2  0  0  0  0
 13 12  1  0  0  0  0
 13 11  1  0  0  0  0
 15 14  1  0  0  0  0
 15 16  1  0  0  0  0
 16 17  1  1  0  0  0
 18 21  1  0  0  0  0
 19 16  1  0  0  0  0
 19 20  1  0  0  0  0
 21 20  1  0  0  0  0
 22 18  1  0  0  0  0
 22 19  1  0  0  0  0
 23  5  1  0  0  0  0
 24 23  1  0  0  0  0
 26 25  1  6  0  0  0
 26 24  1  0  0  0  0
 27 28  2  0  0  0  0
 27 26  1  0  0  0  0
 29 31  1  0  0  0  0
 29 27  1  0  0  0  0
 31 30  1  6  0  0  0
 31 34  1  0  0  0  0
 32 35  1  0  0  0  0
 34 36  1  0  0  0  0
 34 32  1  0  0  0  0
 35 33  1  0  0  0  0
 36 33  1  0  0  0  0
M  END
>  <MODEL>
2

>  <REMARK>
 VINA RESULT:      -8.1      2.169      2.374
  Name = 
  10 active torsions:
  status: ('A' for Active; 'I' for Inactive)
    1  A    between atoms: N_5  and  C_7
    2  A    between atoms: C_7  and  C_32
    3  A    between atoms: C_11  and  C_21
    4  A    between atoms: C_14  and  C_35
    5  A    between atoms: C_20  and  C_31
    6  A    between atoms: C_20  and  C_34
    7  A    between atoms: C_21  and  C_25
    8  A    between atoms: C_25  and  C_31
    9  A    between atoms: C_26  and  C_27
   10  A    between atoms: C_27  and  C_34
                            x       y       z     vdW  Elec       q    Type
                         _______ _______ _______ _____ _____    ______ ____

>  <TORSDO>
F 10

$$$$
=
 OpenBabel11052410273D

 36 40  0  0  1  0  0  0  0  0999 V2000
  160.3930  209.3900  155.0290 C   0  0  0  0  0  3  0  0  0  0  0  0
  160.9160  208.1190  153.0510 C   0  0  0  0  0  0  0  0  0  0  0  0
  160.6380  207.0550  155.1740 N   0  0  0  0  0  0  0  0  0  0  0  0
  161.4390  205.6160  151.9040 C   0  0  0  0  0  3  0  0  0  0  0  0
  160.6520  209.3560  153.6590 C   0  0  0  0  0  0  0  0  0  0  0  0
  161.1920  208.0130  151.6800 C   0  0  0  0  0  3  0  0  0  0  0  0
  161.1630  205.7090  153.2710 C   0  0  0  0  0  3  0  0  0  0  0  0
  160.9020  206.9560  153.8460 C   0  0  0  0  0  0  0  0  0  0  0  0
  160.3910  208.2350  155.7470 N   0  0  0  0  0  0  0  0  0  0  0  0
  161.4560  206.7660  151.1030 C   0  0  0  0  0  0  0  0  0  0  0  0
  161.7510  206.6740  149.6670 C   0  0  0  0  0  0  0  0  0  0  0  0
  162.3040  207.2940  147.7020 N   0  0  0  0  0  0  0  0  0  0  0  0
  162.1100  207.6920  148.9220 O   0  0  0  0  0  0  0  0  0  0  0  0
  161.6910  205.5330  148.9520 N   0  0  0  0  0  0  0  0  0  0  0  0
  162.0380  205.9750  147.7250 C   0  0  0  0  0  0  0  0  0  0  0  0
  162.1790  205.0900  146.5280 C   0  0  2  0  0  3  0  0  0  0  0  0
  162.1000  205.8380  145.3450 O   0  0  0  0  0  1  0  0  0  0  0  0
  160.4700  201.9590  145.5330 C   0  0  0  0  0  2  0  0  0  0  0  0
  161.1940  204.0020  146.5600 N   0  0  0  0  0  0  0  0  0  0  0  0
  161.6030  203.0500  147.5820 C   0  0  0  0  0  2  0  0  0  0  0  0
  160.8740  201.4250  147.2150 S   0  0  0  0  0  0  0  0  0  0  0  0
  161.1800  203.2700  145.2990 C   0  0  0  0  0  2  0  0  0  0  0  0
  160.6700  210.6340  152.8830 C   0  0  0  0  0  2  0  0  0  0  0  0
  159.9420  211.7220  153.6560 C   0  0  0  0  0  2  0  0  0  0  0  0
  157.5580  212.0870  153.9440 N   0  0  0  0  0  1  0  0  0  0  0  0
  158.6320  212.0630  152.9660 C   0  0  1  0  0  3  0  0  0  0  0  0
  158.7240  213.3920  152.2770 C   0  0  0  0  0  0  0  0  0  0  0  0
  158.1270  214.3610  152.7220 O   0  0  0  0  0  0  0  0  0  0  0  0
  159.5870  213.5310  151.0590 C   0  0  0  0  0  2  0  0  0  0  0  0
  157.6860  213.3380  149.5240 N   0  0  0  0  0  1  0  0  0  0  0  0
  158.8500  214.1440  149.8630 C   0  0  2  0  0  3  0  0  0  0  0  0
  159.7140  213.1150  147.7340 C   0  0  0  0  0  2  0  0  0  0  0  0
  162.0000  213.9550  147.8610 C   0  0  0  0  0  2  0  0  0  0  0  0
  159.7580  214.3270  148.6430 C   0  0  0  0  0  3  0  0  0  0  0  0
  161.0940  212.9930  147.1140 C   0  0  0  0  0  2  0  0  0  0  0  0
  161.2100  214.4520  149.0510 C   0  0  0  0  0  2  0  0  0  0  0  0
  1  9  1  0  0  0  0
  2  5  1  0  0  0  0
  2  8  1  0  0  0  0
  3  9  2  0  0  0  0
  4  7  1  0  0  0  0
  5  1  2  0  0  0  0
  6  2  2  0  0  0  0
  7  8  2  0  0  0  0
  8  3  1  0  0  0  0
 10  6  1  0  0  0  0
 10  4  2  0  0  0  0
 11 10  1  0  0  0  0
 12 15  2  0  0  0  0
 12 13  1  0  0  0  0
 13 11  1  0  0  0  0
 14 11  2  0  0  0  0
 15 14  1  0  0  0  0
 16 17  1  6  0  0  0
 16 19  1  0  0  0  0
 16 15  1  0  0  0  0
 18 21  1  0  0  0  0
 19 20  1  0  0  0  0
 21 20  1  0  0  0  0
 22 18  1  0  0  0  0
 22 19  1  0  0  0  0
 23 24  1  0  0  0  0
 23  5  1  0  0  0  0
 26 24  1  0  0  0  0
 26 25  1  1  0  0  0
 27 28  2  0  0  0  0
 27 26  1  0  0  0  0
 29 27  1  0  0  0  0
 31 30  1  6  0  0  0
 31 29  1  0  0  0  0
 32 34  1  0  0  0  0
 33 36  1  0  0  0  0
 34 36  1  0  0  0  0
 34 31  1  0  0  0  0
 35 32  1  0  0  0  0
 35 33  1  0  0  0  0
M  END
>  <MODEL>
3

>  <REMARK>
 VINA RESULT:      -7.5      2.887      9.309
  Name = 
  10 active torsions:
  status: ('A' for Active; 'I' for Inactive)
    1  A    between atoms: N_5  and  C_7
    2  A    between atoms: C_7  and  C_32
    3  A    between atoms: C_11  and  C_21
    4  A    between atoms: C_14  and  C_35
    5  A    between atoms: C_20  and  C_31
    6  A    between atoms: C_20  and  C_34
    7  A    between atoms: C_21  and  C_25
    8  A    between atoms: C_25  and  C_31
    9  A    between atoms: C_26  and  C_27
   10  A    between atoms: C_27  and  C_34
                            x       y       z     vdW  Elec       q    Type
                         _______ _______ _______ _____ _____    ______ ____

>  <TORSDO>
F 10

$$$$
=
 OpenBabel11052410273D

 36 40  0  0  1  0  0  0  0  0999 V2000
  160.2570  209.9690  155.1720 C   0  0  0  0  0  3  0  0  0  0  0  0
  160.8230  208.6450  153.2410 C   0  0  0  0  0  0  0  0  0  0  0  0
  160.4740  207.6370  155.3810 N   0  0  0  0  0  0  0  0  0  0  0  0
  161.3530  206.1080  152.1720 C   0  0  0  0  0  3  0  0  0  0  0  0
  160.5550  209.8990  153.8110 C   0  0  0  0  0  0  0  0  0  0  0  0
  161.1370  208.5020  151.8830 C   0  0  0  0  0  3  0  0  0  0  0  0
  161.0380  206.2390  153.5280 C   0  0  0  0  0  3  0  0  0  0  0  0
  160.7740  207.5020  154.0640 C   0  0  0  0  0  0  0  0  0  0  0  0
  160.2230  208.8330  155.9180 N   0  0  0  0  0  0  0  0  0  0  0  0
  161.4050  207.2380  151.3440 C   0  0  0  0  0  0  0  0  0  0  0  0
  161.7390  207.1080  149.9200 C   0  0  0  0  0  0  0  0  0  0  0  0
  162.6600  207.5290  148.0420 N   0  0  0  0  0  0  0  0  0  0  0  0
  162.5680  207.8990  149.2820 O   0  0  0  0  0  0  0  0  0  0  0  0
  161.2370  206.1570  149.1070 N   0  0  0  0  0  0  0  0  0  0  0  0
  161.8380  206.4680  147.9390 C   0  0  0  0  0  0  0  0  0  0  0  0
  161.6660  205.6850  146.6770 C   0  0  2  0  0  3  0  0  0  0  0  0
  160.4170  205.9460  146.0960 O   0  0  0  0  0  1  0  0  0  0  0  0
  161.1000  202.3050  148.0820 C   0  0  0  0  0  2  0  0  0  0  0  0
  161.8760  204.2520  146.9150 N   0  0  0  0  0  0  0  0  0  0  0  0
  161.2840  203.5160  145.8070 C   0  0  0  0  0  2  0  0  0  0  0  0
  160.9000  201.8230  146.3490 S   0  0  0  0  0  0  0  0  0  0  0  0
  161.1810  203.8120  148.1190 C   0  0  0  0  0  2  0  0  0  0  0  0
  160.6080  211.1570  153.0050 C   0  0  0  0  0  2  0  0  0  0  0  0
  159.2200  211.7680  152.9030 C   0  0  0  0  0  2  0  0  0  0  0  0
  160.0620  212.9550  150.9580 N   0  0  0  0  0  1  0  0  0  0  0  0
  159.2910  213.1030  152.1800 C   0  0  1  0  0  3  0  0  0  0  0  0
  157.9160  213.6070  151.8570 C   0  0  0  0  0  0  0  0  0  0  0  0
  157.4150  213.3820  150.7650 O   0  0  0  0  0  0  0  0  0  0  0  0
  157.1440  214.3570  152.9020 C   0  0  0  0  0  2  0  0  0  0  0  0
  154.7170  214.4520  153.2290 N   0  0  0  0  0  1  0  0  0  0  0  0
  155.8950  213.6100  153.3830 C   0  0  2  0  0  3  0  0  0  0  0  0
  157.2860  213.6440  155.4810 C   0  0  0  0  0  2  0  0  0  0  0  0
  156.9250  211.3280  156.1570 C   0  0  0  0  0  2  0  0  0  0  0  0
  156.0250  213.1150  154.8270 C   0  0  0  0  0  3  0  0  0  0  0  0
  157.7490  212.5690  156.4470 C   0  0  0  0  0  2  0  0  0  0  0  0
  156.1610  211.6090  154.8830 C   0  0  0  0  0  2  0  0  0  0  0  0
  1  9  1  0  0  0  0
  2  5  1  0  0  0  0
  2  8  1  0  0  0  0
  3  9  2  0  0  0  0
  4  7  1  0  0  0  0
  5  1  2  0  0  0  0
  6  2  2  0  0  0  0
  7  8  2  0  0  0  0
  8  3  1  0  0  0  0
 10  6  1  0  0  0  0
 10  4  2  0  0  0  0
 11 10  1  0  0  0  0
 12 13  1  0  0  0  0
 13 11  1  0  0  0  0
 14 11  2  0  0  0  0
 15 12  2  0  0  0  0
 15 14  1  0  0  0  0
 16 17  1  1  0  0  0
 16 19  1  0  0  0  0
 16 15  1  0  0  0  0
 18 22  1  0  0  0  0
 19 22  1  0  0  0  0
 20 21  1  0  0  0  0
 20 19  1  0  0  0  0
 21 18  1  0  0  0  0
 23  5  1  0  0  0  0
 24 23  1  0  0  0  0
 26 25  1  6  0  0  0
 26 24  1  0  0  0  0
 27 26  1  0  0  0  0
 27 29  1  0  0  0  0
 28 27  2  0  0  0  0
 29 31  1  0  0  0  0
 31 30  1  1  0  0  0
 31 34  1  0  0  0  0
 32 35  1  0  0  0  0
 33 35  1  0  0  0  0
 34 36  1  0  0  0  0
 34 32  1  0  0  0  0
 36 33  1  0  0  0  0
M  END
>  <MODEL>
4

>  <REMARK>
 VINA RESULT:      -7.5      3.373      9.595
  Name = 
  10 active torsions:
  status: ('A' for Active; 'I' for Inactive)
    1  A    between atoms: N_5  and  C_7
    2  A    between atoms: C_7  and  C_32
    3  A    between atoms: C_11  and  C_21
    4  A    between atoms: C_14  and  C_35
    5  A    between atoms: C_20  and  C_31
    6  A    between atoms: C_20  and  C_34
    7  A    between atoms: C_21  and  C_25
    8  A    between atoms: C_25  and  C_31
    9  A    between atoms: C_26  and  C_27
   10  A    between atoms: C_27  and  C_34
                            x       y       z     vdW  Elec       q    Type
                         _______ _______ _______ _____ _____    ______ ____

>  <TORSDO>
F 10

$$$$
=
 OpenBabel11052410273D

 36 40  0  0  1  0  0  0  0  0999 V2000
  161.5750  210.5390  153.2750 C   0  0  0  0  0  3  0  0  0  0  0  0
  161.3570  208.1770  152.8580 C   0  0  0  0  0  0  0  0  0  0  0  0
  161.0600  209.0840  155.0500 N   0  0  0  0  0  0  0  0  0  0  0  0
  160.8570  205.6180  153.8870 C   0  0  0  0  0  3  0  0  0  0  0  0
  161.6050  209.4720  152.3780 C   0  0  0  0  0  0  0  0  0  0  0  0
  161.3790  207.0580  152.0130 C   0  0  0  0  0  3  0  0  0  0  0  0
  160.8300  206.7270  154.7380 C   0  0  0  0  0  3  0  0  0  0  0  0
  161.0800  208.0030  154.2280 C   0  0  0  0  0  0  0  0  0  0  0  0
  161.3000  210.3130  154.5880 N   0  0  0  0  0  0  0  0  0  0  0  0
  161.1320  205.7780  152.5220 C   0  0  0  0  0  0  0  0  0  0  0  0
  161.1670  204.6170  151.6230 C   0  0  0  0  0  0  0  0  0  0  0  0
  161.4160  202.5960  150.9850 N   0  0  0  0  0  0  0  0  0  0  0  0
  161.4790  203.4010  152.0010 O   0  0  0  0  0  0  0  0  0  0  0  0
  160.8750  204.6670  150.3080 N   0  0  0  0  0  0  0  0  0  0  0  0
  161.0540  203.3780  149.9510 C   0  0  0  0  0  0  0  0  0  0  0  0
  160.8140  202.8530  148.5720 C   0  0  2  0  0  3  0  0  0  0  0  0
  161.0000  201.4640  148.5290 O   0  0  0  0  0  1  0  0  0  0  0  0
  161.9550  204.0840  145.2700 C   0  0  0  0  0  2  0  0  0  0  0  0
  161.6510  203.5520  147.5900 N   0  0  0  0  0  0  0  0  0  0  0  0
  161.2890  204.9620  147.6080 C   0  0  0  0  0  2  0  0  0  0  0  0
  161.7490  205.7190  146.0190 S   0  0  0  0  0  0  0  0  0  0  0  0
  161.3830  203.0760  146.2380 C   0  0  0  0  0  2  0  0  0  0  0  0
  161.9260  209.7300  150.9410 C   0  0  0  0  0  2  0  0  0  0  0  0
  161.5890  211.1680  150.5830 C   0  0  0  0  0  2  0  0  0  0  0  0
  161.9710  210.2310  148.3740 N   0  0  0  0  0  1  0  0  0  0  0  0
  162.0020  211.4590  149.1500 C   0  0  1  0  0  3  0  0  0  0  0  0
  161.0920  212.4770  148.5290 C   0  0  0  0  0  0  0  0  0  0  0  0
  160.5090  213.2930  149.2280 O   0  0  0  0  0  0  0  0  0  0  0  0
  160.9330  212.5100  147.0380 C   0  0  0  0  0  2  0  0  0  0  0  0
  162.4320  214.4480  146.9960 N   0  0  0  0  0  1  0  0  0  0  0  0
  162.0970  213.2030  146.3210 C   0  0  2  0  0  3  0  0  0  0  0  0
  160.6130  212.6490  144.3640 C   0  0  0  0  0  2  0  0  0  0  0  0
  162.3320  212.6460  142.6330 C   0  0  0  0  0  2  0  0  0  0  0  0
  161.8100  213.4500  144.8370 C   0  0  0  0  0  3  0  0  0  0  0  0
  160.8820  212.2920  142.9130 C   0  0  0  0  0  2  0  0  0  0  0  0
  162.9570  212.9810  143.9690 C   0  0  0  0  0  2  0  0  0  0  0  0
  1  9  1  0  0  0  0
  2  8  1  0  0  0  0
  4  7  1  0  0  0  0
  5  2  1  0  0  0  0
  5  1  2  0  0  0  0
  6 10  1  0  0  0  0
  6  2  2  0  0  0  0
  8  7  2  0  0  0  0
  8  3  1  0  0  0  0
  9  3  2  0  0  0  0
 10  4  2  0  0  0  0
 11 13  1  0  0  0  0
 11 10  1  0  0  0  0
 12 13  1  0  0  0  0
 14 11  2  0  0  0  0
 15 14  1  0  0  0  0
 15 12  2  0  0  0  0
 16 17  1  1  0  0  0
 16 15  1  0  0  0  0
 18 21  1  0  0  0  0
 18 22  1  0  0  0  0
 19 20  1  0  0  0  0
 19 16  1  0  0  0  0
 21 20  1  0  0  0  0
 22 19  1  0  0  0  0
 23  5  1  0  0  0  0
 24 23  1  0  0  0  0
 26 25  1  6  0  0  0
 26 24  1  0  0  0  0
 27 26  1  0  0  0  0
 27 28  2  0  0  0  0
 29 27  1  0  0  0  0
 31 30  1  1  0  0  0
 31 29  1  0  0  0  0
 32 34  1  0  0  0  0
 33 35  1  0  0  0  0
 33 36  1  0  0  0  0
 34 31  1  0  0  0  0
 35 32  1  0  0  0  0
 36 34  1  0  0  0  0
M  END
>  <MODEL>
5

>  <REMARK>
 VINA RESULT:      -7.5      3.787      8.756
  Name = 
  10 active torsions:
  status: ('A' for Active; 'I' for Inactive)
    1  A    between atoms: N_5  and  C_7
    2  A    between atoms: C_7  and  C_32
    3  A    between atoms: C_11  and  C_21
    4  A    between atoms: C_14  and  C_35
    5  A    between atoms: C_20  and  C_31
    6  A    between atoms: C_20  and  C_34
    7  A    between atoms: C_21  and  C_25
    8  A    between atoms: C_25  and  C_31
    9  A    between atoms: C_26  and  C_27
   10  A    between atoms: C_27  and  C_34
                            x       y       z     vdW  Elec       q    Type
                         _______ _______ _______ _____ _____    ______ ____

>  <TORSDO>
F 10

$$$$
=
 OpenBabel11052410273D

 36 40  0  0  1  0  0  0  0  0999 V2000
  161.3360  205.4350  147.0540 C   0  0  0  0  0  3  0  0  0  0  0  0
  161.2410  205.7790  149.4360 C   0  0  0  0  0  0  0  0  0  0  0  0
  161.3540  203.5810  148.5020 N   0  0  0  0  0  0  0  0  0  0  0  0
  161.1790  204.6480  152.0000 C   0  0  0  0  0  3  0  0  0  0  0  0
  161.2710  206.3100  148.1380 C   0  0  0  0  0  0  0  0  0  0  0  0
  161.1670  206.6010  150.5690 C   0  0  0  0  0  3  0  0  0  0  0  0
  161.2560  203.8200  150.8770 C   0  0  0  0  0  3  0  0  0  0  0  0
  161.2860  204.3800  149.5970 C   0  0  0  0  0  0  0  0  0  0  0  0
  161.3790  204.0930  147.2690 N   0  0  0  0  0  0  0  0  0  0  0  0
  161.1340  206.0410  151.8520 C   0  0  0  0  0  0  0  0  0  0  0  0
  161.0500  206.9170  153.0280 C   0  0  0  0  0  0  0  0  0  0  0  0
  161.0740  207.5130  155.0770 N   0  0  0  0  0  0  0  0  0  0  0  0
  161.1990  206.5080  154.2650 O   0  0  0  0  0  0  0  0  0  0  0  0
  160.8140  208.2430  152.9700 N   0  0  0  0  0  0  0  0  0  0  0  0
  160.8310  208.5690  154.2790 C   0  0  0  0  0  0  0  0  0  0  0  0
  160.6630  209.9630  154.7950 C   0  0  2  0  0  3  0  0  0  0  0  0
  160.4650  209.9590  156.1820 O   0  0  0  0  0  1  0  0  0  0  0  0
  157.7760  212.2250  154.2780 C   0  0  0  0  0  2  0  0  0  0  0  0
  159.5840  210.6600  154.0850 N   0  0  0  0  0  0  0  0  0  0  0  0
  160.1630  211.7970  153.3850 C   0  0  0  0  0  2  0  0  0  0  0  0
  158.8680  213.0390  153.0860 S   0  0  0  0  0  0  0  0  0  0  0  0
  158.6070  211.2060  155.0200 C   0  0  0  0  0  2  0  0  0  0  0  0
  161.2060  207.7830  147.8880 C   0  0  0  0  0  2  0  0  0  0  0  0
  162.3270  208.4870  148.6360 C   0  0  0  0  0  2  0  0  0  0  0  0
  162.3880  209.9630  150.5640 N   0  0  0  0  0  1  0  0  0  0  0  0
  161.8160  209.7840  149.2410 C   0  0  1  0  0  3  0  0  0  0  0  0
  162.1680  210.9530  148.3700 C   0  0  0  0  0  0  0  0  0  0  0  0
  163.3170  211.3670  148.3260 O   0  0  0  0  0  0  0  0  0  0  0  0
  161.1050  211.5850  147.5220 C   0  0  0  0  0  2  0  0  0  0  0  0
  160.7870  213.1610  149.3720 N   0  0  0  0  0  1  0  0  0  0  0  0
  160.7940  213.0320  147.9220 C   0  0  2  0  0  3  0  0  0  0  0  0
  158.3840  213.6040  148.3730 C   0  0  0  0  0  2  0  0  0  0  0  0
  157.4500  212.7920  146.2710 C   0  0  0  0  0  2  0  0  0  0  0  0
  159.4770  213.5370  147.3250 C   0  0  0  0  0  3  0  0  0  0  0  0
  157.0830  213.2970  147.6550 C   0  0  0  0  0  2  0  0  0  0  0  0
  158.9480  212.5860  146.2730 C   0  0  0  0  0  2  0  0  0  0  0  0
  1  9  2  0  0  0  0
  1  5  1  0  0  0  0
  2  8  1  0  0  0  0
  2  6  1  0  0  0  0
  3  8  2  0  0  0  0
  5  2  2  0  0  0  0
  6 10  2  0  0  0  0
  7  4  2  0  0  0  0
  8  7  1  0  0  0  0
  9  3  1  0  0  0  0
 10  4  1  0  0  0  0
 10 11  1  0  0  0  0
 11 13  1  0  0  0  0
 13 12  1  0  0  0  0
 14 11  2  0  0  0  0
 14 15  1  0  0  0  0
 15 16  1  0  0  0  0
 15 12  2  0  0  0  0
 16 17  1  1  0  0  0
 18 22  1  0  0  0  0
 19 16  1  0  0  0  0
 19 22  1  0  0  0  0
 20 19  1  0  0  0  0
 21 20  1  0  0  0  0
 21 18  1  0  0  0  0
 23  5  1  0  0  0  0
 23 24  1  0  0  0  0
 24 26  1  0  0  0  0
 26 25  1  1  0  0  0
 27 26  1  0  0  0  0
 28 27  2  0  0  0  0
 29 31  1  0  0  0  0
 29 27  1  0  0  0  0
 31 30  1  1  0  0  0
 33 36  1  0  0  0  0
 33 35  1  0  0  0  0
 34 31  1  0  0  0  0
 34 32  1  0  0  0  0
 35 32  1  0  0  0  0
 36 34  1  0  0  0  0
M  END
>  <MODEL>
6

>  <REMARK>
 VINA RESULT:      -7.4      2.705      6.651
  Name = 
  10 active torsions:
  status: ('A' for Active; 'I' for Inactive)
    1  A    between atoms: N_5  and  C_7
    2  A    between atoms: C_7  and  C_32
    3  A    between atoms: C_11  and  C_21
    4  A    between atoms: C_14  and  C_35
    5  A    between atoms: C_20  and  C_31
    6  A    between atoms: C_20  and  C_34
    7  A    between atoms: C_21  and  C_25
    8  A    between atoms: C_25  and  C_31
    9  A    between atoms: C_26  and  C_27
   10  A    between atoms: C_27  and  C_34
                            x       y       z     vdW  Elec       q    Type
                         _______ _______ _______ _____ _____    ______ ____

>  <TORSDO>
F 10

$$$$
=
 OpenBabel11052410273D

 36 40  0  0  1  0  0  0  0  0999 V2000
  161.5650  206.7840  153.7910 C   0  0  0  0  0  3  0  0  0  0  0  0
  160.7390  209.0020  153.3460 C   0  0  0  0  0  0  0  0  0  0  0  0
  160.2770  207.8970  155.4150 N   0  0  0  0  0  0  0  0  0  0  0  0
  159.2650  211.2140  154.2380 C   0  0  0  0  0  3  0  0  0  0  0  0
  161.4670  207.8770  152.9300 C   0  0  0  0  0  0  0  0  0  0  0  0
  160.5930  210.1310  152.5280 C   0  0  0  0  0  3  0  0  0  0  0  0
  159.4070  210.0940  155.0630 C   0  0  0  0  0  3  0  0  0  0  0  0
  160.1400  208.9890  154.6210 C   0  0  0  0  0  0  0  0  0  0  0  0
  160.9680  206.8280  155.0120 N   0  0  0  0  0  0  0  0  0  0  0  0
  159.8570  211.2370  152.9680 C   0  0  0  0  0  0  0  0  0  0  0  0
  159.7080  212.4090  152.0940 C   0  0  0  0  0  0  0  0  0  0  0  0
  159.4850  214.4510  151.5190 N   0  0  0  0  0  0  0  0  0  0  0  0
  159.5960  213.6420  152.5270 O   0  0  0  0  0  0  0  0  0  0  0  0
  159.6760  212.3510  150.7480 N   0  0  0  0  0  0  0  0  0  0  0  0
  159.5260  213.6550  150.4340 C   0  0  0  0  0  0  0  0  0  0  0  0
  159.4770  214.1770  149.0330 C   0  0  2  0  0  3  0  0  0  0  0  0
  158.4960  213.5090  148.2890 O   0  0  0  0  0  1  0  0  0  0  0  0
  162.5920  212.6600  147.7250 C   0  0  0  0  0  2  0  0  0  0  0  0
  160.7980  214.1030  148.3980 N   0  0  0  0  0  0  0  0  0  0  0  0
  160.6100  214.1290  146.9550 C   0  0  0  0  0  2  0  0  0  0  0  0
  162.0540  213.3700  146.1490 S   0  0  0  0  0  0  0  0  0  0  0  0
  161.4590  212.8390  148.7050 C   0  0  0  0  0  2  0  0  0  0  0  0
  162.1120  207.8100  151.5830 C   0  0  0  0  0  2  0  0  0  0  0  0
  161.2260  207.0380  150.6190 C   0  0  0  0  0  2  0  0  0  0  0  0
  161.9290  208.9880  149.3520 N   0  0  0  0  0  1  0  0  0  0  0  0
  161.1730  207.7500  149.2780 C   0  0  1  0  0  3  0  0  0  0  0  0
  161.7270  206.8780  148.1910 C   0  0  0  0  0  0  0  0  0  0  0  0
  162.8890  207.0020  147.8310 O   0  0  0  0  0  0  0  0  0  0  0  0
  160.8550  205.8250  147.5750 C   0  0  0  0  0  2  0  0  0  0  0  0
  161.0630  204.1190  145.8280 N   0  0  0  0  0  1  0  0  0  0  0  0
  161.6390  204.6080  147.0720 C   0  0  2  0  0  3  0  0  0  0  0  0
  161.3360  202.1480  147.5120 C   0  0  0  0  0  2  0  0  0  0  0  0
  160.4140  202.3230  149.7640 C   0  0  0  0  0  2  0  0  0  0  0  0
  161.7160  203.4870  148.1120 C   0  0  0  0  0  3  0  0  0  0  0  0
  160.6640  201.3570  148.6200 C   0  0  0  0  0  2  0  0  0  0  0  0
  160.7230  203.7050  149.2330 C   0  0  0  0  0  2  0  0  0  0  0  0
  1  9  1  0  0  0  0
  2  8  1  0  0  0  0
  4  7  1  0  0  0  0
  5  2  1  0  0  0  0
  5  1  2  0  0  0  0
  6 10  1  0  0  0  0
  6  2  2  0  0  0  0
  8  7  2  0  0  0  0
  8  3  1  0  0  0  0
  9  3  2  0  0  0  0
 10  4  2  0  0  0  0
 11 13  1  0  0  0  0
 11 10  1  0  0  0  0
 12 13  1  0  0  0  0
 14 11  2  0  0  0  0
 15 14  1  0  0  0  0
 15 12  2  0  0  0  0
 16 17  1  6  0  0  0
 16 15  1  0  0  0  0
 18 22  1  0  0  0  0
 19 22  1  0  0  0  0
 19 16  1  0  0  0  0
 20 19  1  0  0  0  0
 21 20  1  0  0  0  0
 21 18  1  0  0  0  0
 23  5  1  0  0  0  0
 24 23  1  0  0  0  0
 26 25  1  1  0  0  0
 26 24  1  0  0  0  0
 27 26  1  0  0  0  0
 28 27  2  0  0  0  0
 29 27  1  0  0  0  0
 31 30  1  6  0  0  0
 31 29  1  0  0  0  0
 31 34  1  0  0  0  0
 32 34  1  0  0  0  0
 32 35  1  0  0  0  0
 34 36  1  0  0  0  0
 35 33  1  0  0  0  0
 36 33  1  0  0  0  0
M  END
>  <MODEL>
7

>  <REMARK>
 VINA RESULT:      -7.4      2.122      3.276
  Name = 
  10 active torsions:
  status: ('A' for Active; 'I' for Inactive)
    1  A    between atoms: N_5  and  C_7
    2  A    between atoms: C_7  and  C_32
    3  A    between atoms: C_11  and  C_21
    4  A    between atoms: C_14  and  C_35
    5  A    between atoms: C_20  and  C_31
    6  A    between atoms: C_20  and  C_34
    7  A    between atoms: C_21  and  C_25
    8  A    between atoms: C_25  and  C_31
    9  A    between atoms: C_26  and  C_27
   10  A    between atoms: C_27  and  C_34
                            x       y       z     vdW  Elec       q    Type
                         _______ _______ _______ _____ _____    ______ ____

>  <TORSDO>
F 10

$$$$
=
 OpenBabel11052410273D

 36 40  0  0  1  0  0  0  0  0999 V2000
  161.2320  207.6530  154.6220 C   0  0  0  0  0  3  0  0  0  0  0  0
  160.4630  209.7380  153.6960 C   0  0  0  0  0  0  0  0  0  0  0  0
  160.1920  209.2350  156.0180 N   0  0  0  0  0  0  0  0  0  0  0  0
  159.2040  212.2070  154.1210 C   0  0  0  0  0  3  0  0  0  0  0  0
  161.0850  208.4940  153.5190 C   0  0  0  0  0  0  0  0  0  0  0  0
  160.2740  210.6290  152.6300 C   0  0  0  0  0  3  0  0  0  0  0  0
  159.3880  211.3270  155.1920 C   0  0  0  0  0  3  0  0  0  0  0  0
  160.0140  210.0960  154.9830 C   0  0  0  0  0  0  0  0  0  0  0  0
  160.7820  208.0500  155.8420 N   0  0  0  0  0  0  0  0  0  0  0  0
  159.6450  211.8620  152.8360 C   0  0  0  0  0  0  0  0  0  0  0  0
  159.4500  212.7800  151.7060 C   0  0  0  0  0  0  0  0  0  0  0  0
  159.8380  214.3750  150.3430 N   0  0  0  0  0  0  0  0  0  0  0  0
  160.2800  213.7440  151.3870 O   0  0  0  0  0  0  0  0  0  0  0  0
  158.4000  212.7320  150.8620 N   0  0  0  0  0  0  0  0  0  0  0  0
  158.6840  213.7560  150.0320 C   0  0  0  0  0  0  0  0  0  0  0  0
  157.8470  214.1300  148.8500 C   0  0  2  0  0  3  0  0  0  0  0  0
  156.6810  213.3550  148.8020 O   0  0  0  0  0  1  0  0  0  0  0  0
  159.9780  212.6310  146.2180 C   0  0  0  0  0  2  0  0  0  0  0  0
  158.6220  214.0410  147.6070 N   0  0  0  0  0  0  0  0  0  0  0  0
  157.6950  213.8070  146.5100 C   0  0  0  0  0  2  0  0  0  0  0  0
  158.5850  213.0240  145.1300 S   0  0  0  0  0  0  0  0  0  0  0  0
  159.5260  212.8960  147.6340 C   0  0  0  0  0  2  0  0  0  0  0  0
  161.5680  208.0380  152.1790 C   0  0  0  0  0  2  0  0  0  0  0  0
  160.6850  206.9140  151.6630 C   0  0  0  0  0  2  0  0  0  0  0  0
  161.2930  204.6700  152.3710 N   0  0  0  0  0  1  0  0  0  0  0  0
  161.5280  205.6870  151.3600 C   0  0  1  0  0  3  0  0  0  0  0  0
  161.2020  205.1400  150.0020 C   0  0  0  0  0  0  0  0  0  0  0  0
  161.1920  203.9330  149.8070 O   0  0  0  0  0  0  0  0  0  0  0  0
  160.8510  206.0860  148.8930 C   0  0  0  0  0  2  0  0  0  0  0  0
  162.0930  208.1040  148.2680 N   0  0  0  0  0  1  0  0  0  0  0  0
  162.0780  206.6520  148.1690 C   0  0  2  0  0  3  0  0  0  0  0  0
  160.7860  206.2100  146.0530 C   0  0  0  0  0  2  0  0  0  0  0  0
  162.0470  204.2650  145.2940 C   0  0  0  0  0  2  0  0  0  0  0  0
  162.1550  206.2070  146.7060 C   0  0  0  0  0  3  0  0  0  0  0  0
  160.7930  205.0800  145.0390 C   0  0  0  0  0  2  0  0  0  0  0  0
  162.6360  204.7770  146.5900 C   0  0  0  0  0  2  0  0  0  0  0  0
  1  9  1  0  0  0  0
  2  8  1  0  0  0  0
  4  7  1  0  0  0  0
  5  2  1  0  0  0  0
  5  1  2  0  0  0  0
  6 10  1  0  0  0  0
  6  2  2  0  0  0  0
  8  7  2  0  0  0  0
  8  3  1  0  0  0  0
  9  3  2  0  0  0  0
 10  4  2  0  0  0  0
 11 10  1  0  0  0  0
 12 13  1  0  0  0  0
 13 11  1  0  0  0  0
 14 11  2  0  0  0  0
 15 12  2  0  0  0  0
 15 14  1  0  0  0  0
 16 17  1  6  0  0  0
 16 15  1  0  0  0  0
 18 22  1  0  0  0  0
 19 22  1  0  0  0  0
 19 16  1  0  0  0  0
 20 19  1  0  0  0  0
 21 18  1  0  0  0  0
 21 20  1  0  0  0  0
 23  5  1  0  0  0  0
 24 23  1  0  0  0  0
 26 24  1  0  0  0  0
 26 25  1  1  0  0  0
 27 26  1  0  0  0  0
 28 27  2  0  0  0  0
 29 27  1  0  0  0  0
 31 30  1  6  0  0  0
 31 29  1  0  0  0  0
 32 34  1  0  0  0  0
 33 36  1  0  0  0  0
 34 31  1  0  0  0  0
 35 33  1  0  0  0  0
 35 32  1  0  0  0  0
 36 34  1  0  0  0  0
M  END
>  <MODEL>
8

>  <REMARK>
 VINA RESULT:      -7.4      2.555      4.551
  Name = 
  10 active torsions:
  status: ('A' for Active; 'I' for Inactive)
    1  A    between atoms: N_5  and  C_7
    2  A    between atoms: C_7  and  C_32
    3  A    between atoms: C_11  and  C_21
    4  A    between atoms: C_14  and  C_35
    5  A    between atoms: C_20  and  C_31
    6  A    between atoms: C_20  and  C_34
    7  A    between atoms: C_21  and  C_25
    8  A    between atoms: C_25  and  C_31
    9  A    between atoms: C_26  and  C_27
   10  A    between atoms: C_27  and  C_34
                            x       y       z     vdW  Elec       q    Type
                         _______ _______ _______ _____ _____    ______ ____

>  <TORSDO>
F 10

$$$$
=
 OpenBabel11052410273D

 36 40  0  0  1  0  0  0  0  0999 V2000
  161.8390  206.3620  148.7410 C   0  0  0  0  0  3  0  0  0  0  0  0
  161.5240  207.9960  150.4820 C   0  0  0  0  0  0  0  0  0  0  0  0
  162.3160  208.6260  148.3150 N   0  0  0  0  0  0  0  0  0  0  0  0
  161.6850  210.6780  151.2820 C   0  0  0  0  0  3  0  0  0  0  0  0
  161.4590  206.6630  150.0480 C   0  0  0  0  0  0  0  0  0  0  0  0
  161.1660  208.3680  151.7850 C   0  0  0  0  0  3  0  0  0  0  0  0
  162.0420  210.3190  149.9790 C   0  0  0  0  0  3  0  0  0  0  0  0
  161.9650  208.9830  149.5770 C   0  0  0  0  0  0  0  0  0  0  0  0
  162.2550  207.3560  147.9100 N   0  0  0  0  0  0  0  0  0  0  0  0
  161.2460  209.7050  152.1910 C   0  0  0  0  0  0  0  0  0  0  0  0
  160.8730  210.0750  153.5620 C   0  0  0  0  0  0  0  0  0  0  0  0
  160.5720  209.8880  155.6660 N   0  0  0  0  0  0  0  0  0  0  0  0
  160.9720  209.2740  154.5950 O   0  0  0  0  0  0  0  0  0  0  0  0
  160.3910  211.2830  153.9170 N   0  0  0  0  0  0  0  0  0  0  0  0
  160.2100  211.1130  155.2430 C   0  0  0  0  0  0  0  0  0  0  0  0
  159.7230  212.1860  156.1640 C   0  0  2  0  0  3  0  0  0  0  0  0
  160.5880  212.3340  157.2560 O   0  0  0  0  0  1  0  0  0  0  0  0
  156.1910  212.9040  157.0170 C   0  0  0  0  0  2  0  0  0  0  0  0
  158.3400  211.9300  156.5840 N   0  0  0  0  0  0  0  0  0  0  0  0
  157.6020  211.4260  155.4360 C   0  0  0  0  0  2  0  0  0  0  0  0
  155.8280  211.7430  155.6780 S   0  0  0  0  0  0  0  0  0  0  0  0
  157.6780  213.1650  156.9900 C   0  0  0  0  0  2  0  0  0  0  0  0
  161.0220  205.5600  150.9580 C   0  0  0  0  0  2  0  0  0  0  0  0
  160.3550  204.4560  150.1530 C   0  0  0  0  0  2  0  0  0  0  0  0
  161.1270  202.5820  151.4930 N   0  0  0  0  0  1  0  0  0  0  0  0
  161.2120  203.2010  150.1820 C   0  0  1  0  0  3  0  0  0  0  0  0
  160.7680  202.2300  149.1300 C   0  0  0  0  0  0  0  0  0  0  0  0
  159.7360  201.5900  149.2750 O   0  0  0  0  0  0  0  0  0  0  0  0
  161.5800  202.0770  147.8780 C   0  0  0  0  0  2  0  0  0  0  0  0
  160.4430  200.9690  146.0120 N   0  0  0  0  0  1  0  0  0  0  0  0
  160.7590  202.2640  146.5980 C   0  0  2  0  0  3  0  0  0  0  0  0
  162.3600  204.1760  146.2570 C   0  0  0  0  0  2  0  0  0  0  0  0
  161.2180  205.2360  144.3800 C   0  0  0  0  0  2  0  0  0  0  0  0
  161.4580  203.1660  145.5760 C   0  0  0  0  0  3  0  0  0  0  0  0
  162.3310  205.4250  145.3940 C   0  0  0  0  0  2  0  0  0  0  0  0
  160.4590  203.9980  144.8020 C   0  0  0  0  0  2  0  0  0  0  0  0
  1  5  1  0  0  0  0
  2  6  1  0  0  0  0
  3  8  2  0  0  0  0
  4 10  1  0  0  0  0
  5  2  2  0  0  0  0
  5 23  1  0  0  0  0
  6 10  2  0  0  0  0
  7  4  2  0  0  0  0
  8  7  1  0  0  0  0
  8  2  1  0  0  0  0
  9  3  1  0  0  0  0
  9  1  2  0  0  0  0
 10 11  1  0  0  0  0
 11 14  2  0  0  0  0
 11 13  1  0  0  0  0
 13 12  1  0  0  0  0
 14 15  1  0  0  0  0
 15 12  2  0  0  0  0
 15 16  1  0  0  0  0
 16 19  1  0  0  0  0
 16 17  1  1  0  0  0
 19 22  1  0  0  0  0
 20 21  1  0  0  0  0
 20 19  1  0  0  0  0
 21 18  1  0  0  0  0
 22 18  1  0  0  0  0
 24 26  1  0  0  0  0
 24 23  1  0  0  0  0
 26 25  1  1  0  0  0
 27 28  2  0  0  0  0
 27 26  1  0  0  0  0
 29 27  1  0  0  0  0
 31 30  1  6  0  0  0
 31 29  1  0  0  0  0
 33 36  1  0  0  0  0
 33 35  1  0  0  0  0
 34 32  1  0  0  0  0
 34 31  1  0  0  0  0
 35 32  1  0  0  0  0
 36 34  1  0  0  0  0
M  END
>  <MODEL>
9

>  <REMARK>
 VINA RESULT:      -7.3      2.819      4.425
  Name = 
  10 active torsions:
  status: ('A' for Active; 'I' for Inactive)
    1  A    between atoms: N_5  and  C_7
    2  A    between atoms: C_7  and  C_32
    3  A    between atoms: C_11  and  C_21
    4  A    between atoms: C_14  and  C_35
    5  A    between atoms: C_20  and  C_31
    6  A    between atoms: C_20  and  C_34
    7  A    between atoms: C_21  and  C_25
    8  A    between atoms: C_25  and  C_31
    9  A    between atoms: C_26  and  C_27
   10  A    between atoms: C_27  and  C_34
                            x       y       z     vdW  Elec       q    Type
                         _______ _______ _______ _____ _____    ______ ____

>  <TORSDO>
F 10

$$$$
