=
 OpenBabel11052410283D

 35 39  0  0  1  0  0  0  0  0999 V2000
  161.3010  207.7160  150.7650 C   0  0  0  0  0  0  0  0  0  0  0  0
  161.1860  207.6870  149.3800 O   0  0  0  0  0  1  0  0  0  0  0  0
  161.5710  208.4630  152.8080 O   0  0  0  0  0  0  0  0  0  0  0  0
  161.4540  208.8360  151.5530 C   0  0  0  0  0  0  0  0  0  0  0  0
  161.4780  207.1490  152.8920 C   0  0  0  0  0  3  0  0  0  0  0  0
  161.3050  206.6350  151.6170 C   0  0  0  0  0  0  0  0  0  0  0  0
  161.2020  202.9520  151.4650 N   0  0  0  0  0  0  0  0  0  0  0  0
  161.1570  204.0290  147.8230 C   0  0  0  0  0  0  0  0  0  0  0  0
  160.6130  202.2480  149.2680 N   0  0  0  0  0  0  0  0  0  0  0  0
  161.5270  204.1240  146.5750 O   0  0  0  0  0  0  0  0  0  0  0  0
  160.4520  204.6660  150.0730 C   0  0  2  0  0  3  0  0  0  0  0  0
  161.0750  205.0080  148.7320 C   0  0  0  0  0  3  0  0  0  0  0  0
  161.1600  205.2110  151.2660 C   0  0  0  0  0  0  0  0  0  0  0  0
  161.5110  204.2070  152.0620 C   0  0  0  0  0  3  0  0  0  0  0  0
  160.8610  202.7170  148.0790 C   0  0  0  0  0  0  0  0  0  0  0  0
  161.4490  202.9040  146.0620 C   0  0  0  0  0  3  0  0  0  0  0  0
  160.6020  203.1950  150.3480 C   0  0  0  0  0  0  0  0  0  0  0  0
  161.0390  201.9790  146.9730 N   0  0  0  0  0  0  0  0  0  0  0  0
  161.5430  210.2380  151.1080 C   0  0  0  0  0  0  0  0  0  0  0  0
  160.8340  211.2360  151.6650 C   0  0  0  0  0  3  0  0  0  0  0  0
  157.8720  211.3500  154.0330 C   0  0  0  0  0  3  0  0  0  0  0  0
  158.6310  211.4590  152.8650 C   0  0  0  0  0  3  0  0  0  0  0  0
  160.6040  210.7610  154.0770 C   0  0  0  0  0  3  0  0  0  0  0  0
  158.4810  210.9500  155.2240 C   0  0  0  0  0  3  0  0  0  0  0  0
  159.8520  210.6520  155.2520 C   0  0  0  0  0  0  0  0  0  0  0  0
  160.0070  211.1840  152.8850 C   0  0  0  0  0  0  0  0  0  0  0  0
  160.4960  210.2270  156.4560 N   0  0  0  0  0  2  0  0  0  0  0  0
  161.4790  209.1540  156.5080 C   0  0  1  0  0  3  0  0  0  0  0  0
  162.7040  209.6400  157.2610 C   0  0  0  0  0  1  0  0  0  0  0  0
  160.8850  207.9440  157.2120 C   0  0  0  0  0  2  0  0  0  0  0  0
  159.9020  207.2330  156.3040 C   0  0  0  0  0  1  0  0  0  0  0  0
  162.4100  210.5170  150.0020 N   0  0  0  0  0  2  0  0  0  0  0  0
  161.9560  211.0010  148.7020 C   0  0  0  0  0  2  0  0  0  0  0  0
  162.7140  212.2560  148.3030 C   0  0  0  0  0  2  0  0  0  0  0  0
  161.7820  213.4530  148.2890 C   0  0  0  0  0  1  0  0  0  0  0  0
  1  4  2  0  0  0  0
  1  6  1  0  0  0  0
  2  1  1  0  0  0  0
  3  5  1  0  0  0  0
  4  3  1  0  0  0  0
  6  5  2  0  0  0  0
  7 14  1  0  0  0  0
  8 15  1  0  0  0  0
  8 12  2  0  0  0  0
  9 17  1  0  0  0  0
 10  8  1  0  0  0  0
 11 12  1  6  0  0  0
 11 17  1  0  0  0  0
 11 13  1  0  0  0  0
 13  6  1  0  0  0  0
 13 14  2  0  0  0  0
 15  9  2  0  0  0  0
 16 10  1  0  0  0  0
 16 18  2  0  0  0  0
 17  7  2  0  0  0  0
 18 15  1  0  0  0  0
 19  4  1  0  0  0  0
 19 20  2  0  0  0  0
 20 26  1  0  0  0  0
 21 24  1  0  0  0  0
 22 26  1  0  0  0  0
 22 21  2  0  0  0  0
 23 25  1  0  0  0  0
 24 25  2  0  0  0  0
 25 27  1  0  0  0  0
 26 23  2  0  0  0  0
 27 28  1  0  0  0  0
 28 30  1  0  0  0  0
 28 29  1  1  0  0  0
 31 30  1  0  0  0  0
 32 19  1  0  0  0  0
 33 32  1  0  0  0  0
 34 33  1  0  0  0  0
 35 34  1  0  0  0  0
M  END
>  <MODEL>
1

>  <REMARK>
 VINA RESULT:      -8.6      0.000      0.000
  Name = 
  9 active torsions:
  status: ('A' for Active; 'I' for Inactive)
    1  A    between atoms: C_5  and  C_8
    2  A    between atoms: C_8  and  N_19
    3  A    between atoms: C_10  and  C_23
    4  A    between atoms: N_14  and  C_23
    5  A    between atoms: N_14  and  C_28
    6  A    between atoms: C_15  and  N_19
    7  A    between atoms: C_15  and  C_30
    8  A    between atoms: C_17  and  C_35
    9  A    between atoms: C_25  and  C_31
                            x       y       z     vdW  Elec       q    Type
                         _______ _______ _______ _____ _____    ______ ____

>  <TORSDO>
F 9

$$$$
=
 OpenBabel11052410283D

 35 39  0  0  1  0  0  0  0  0999 V2000
  161.1800  208.2910  152.7160 C   0  0  0  0  0  0  0  0  0  0  0  0
  160.5770  207.5200  153.7020 O   0  0  0  0  0  1  0  0  0  0  0  0
  162.0190  210.0170  151.6570 O   0  0  0  0  0  0  0  0  0  0  0  0
  161.5040  209.6280  152.8020 C   0  0  0  0  0  0  0  0  0  0  0  0
  162.0750  208.9960  150.8240 C   0  0  0  0  0  3  0  0  0  0  0  0
  161.5530  207.8780  151.4570 C   0  0  0  0  0  0  0  0  0  0  0  0
  161.4120  204.2660  150.7320 N   0  0  0  0  0  0  0  0  0  0  0  0
  161.8200  205.8790  147.3170 C   0  0  0  0  0  0  0  0  0  0  0  0
  161.0800  203.9200  148.3990 N   0  0  0  0  0  0  0  0  0  0  0  0
  162.3390  206.1480  146.1500 O   0  0  0  0  0  0  0  0  0  0  0  0
  160.8610  206.1930  149.5420 C   0  0  2  0  0  3  0  0  0  0  0  0
  161.6450  206.7120  148.3500 C   0  0  0  0  0  3  0  0  0  0  0  0
  161.4290  206.5290  150.8780 C   0  0  0  0  0  0  0  0  0  0  0  0
  161.6670  205.4060  151.5460 C   0  0  0  0  0  3  0  0  0  0  0  0
  161.4760  204.5540  147.3340 C   0  0  0  0  0  0  0  0  0  0  0  0
  162.3050  205.0210  145.4510 C   0  0  0  0  0  3  0  0  0  0  0  0
  160.9540  204.6940  149.6040 C   0  0  0  0  0  0  0  0  0  0  0  0
  161.7740  203.9840  146.1560 N   0  0  0  0  0  0  0  0  0  0  0  0
  161.2730  210.5330  153.9410 C   0  0  0  0  0  0  0  0  0  0  0  0
  160.5800  211.6820  153.8430 C   0  0  0  0  0  3  0  0  0  0  0  0
  157.6760  212.6760  151.6130 C   0  0  0  0  0  3  0  0  0  0  0  0
  158.3880  212.1620  152.7000 C   0  0  0  0  0  3  0  0  0  0  0  0
  160.4710  212.7240  151.6070 C   0  0  0  0  0  3  0  0  0  0  0  0
  158.3630  213.2100  150.5210 C   0  0  0  0  0  3  0  0  0  0  0  0
  159.7660  213.2370  150.5130 C   0  0  0  0  0  0  0  0  0  0  0  0
  159.7910  212.1650  152.6950 C   0  0  0  0  0  0  0  0  0  0  0  0
  160.4930  213.7920  149.4130 N   0  0  0  0  0  2  0  0  0  0  0  0
  160.4290  213.2630  148.0580 C   0  0  1  0  0  3  0  0  0  0  0  0
  159.7870  214.2970  147.1510 C   0  0  0  0  0  1  0  0  0  0  0  0
  161.8300  212.9400  147.5640 C   0  0  0  0  0  2  0  0  0  0  0  0
  162.4160  211.7850  148.3520 C   0  0  0  0  0  1  0  0  0  0  0  0
  161.8570  210.1630  155.1970 N   0  0  0  0  0  2  0  0  0  0  0  0
  161.0940  209.7140  156.3570 C   0  0  0  0  0  2  0  0  0  0  0  0
  161.7040  208.4510  156.9420 C   0  0  0  0  0  2  0  0  0  0  0  0
  160.6200  207.4390  157.2610 C   0  0  0  0  0  1  0  0  0  0  0  0
  1  4  2  0  0  0  0
  1  2  1  0  0  0  0
  3  4  1  0  0  0  0
  4 19  1  0  0  0  0
  5  6  2  0  0  0  0
  5  3  1  0  0  0  0
  6  1  1  0  0  0  0
  7 14  1  0  0  0  0
  8 15  1  0  0  0  0
  8 12  2  0  0  0  0
  9 17  1  0  0  0  0
 10  8  1  0  0  0  0
 11 12  1  6  0  0  0
 11 17  1  0  0  0  0
 11 13  1  0  0  0  0
 13  6  1  0  0  0  0
 13 14  2  0  0  0  0
 15  9  2  0  0  0  0
 16 10  1  0  0  0  0
 16 18  2  0  0  0  0
 17  7  2  0  0  0  0
 18 15  1  0  0  0  0
 19 32  1  0  0  0  0
 20 19  2  0  0  0  0
 21 22  1  0  0  0  0
 23 26  1  0  0  0  0
 24 21  2  0  0  0  0
 25 24  1  0  0  0  0
 25 23  2  0  0  0  0
 26 22  2  0  0  0  0
 26 20  1  0  0  0  0
 27 25  1  0  0  0  0
 28 29  1  6  0  0  0
 28 27  1  0  0  0  0
 30 28  1  0  0  0  0
 30 31  1  0  0  0  0
 32 33  1  0  0  0  0
 33 34  1  0  0  0  0
 34 35  1  0  0  0  0
M  END
>  <MODEL>
2

>  <REMARK>
 VINA RESULT:      -8.6      1.670      5.239
  Name = 
  9 active torsions:
  status: ('A' for Active; 'I' for Inactive)
    1  A    between atoms: C_5  and  C_8
    2  A    between atoms: C_8  and  N_19
    3  A    between atoms: C_10  and  C_23
    4  A    between atoms: N_14  and  C_23
    5  A    between atoms: N_14  and  C_28
    6  A    between atoms: C_15  and  N_19
    7  A    between atoms: C_15  and  C_30
    8  A    between atoms: C_17  and  C_35
    9  A    between atoms: C_25  and  C_31
                            x       y       z     vdW  Elec       q    Type
                         _______ _______ _______ _____ _____    ______ ____

>  <TORSDO>
F 9

$$$$
=
 OpenBabel11052410283D

 35 39  0  0  1  0  0  0  0  0999 V2000
  161.2730  207.5060  151.0830 C   0  0  0  0  0  0  0  0  0  0  0  0
  161.2270  207.5960  149.6970 O   0  0  0  0  0  1  0  0  0  0  0  0
  161.4370  208.0750  153.1930 O   0  0  0  0  0  0  0  0  0  0  0  0
  161.3800  208.5550  151.9710 C   0  0  0  0  0  0  0  0  0  0  0  0
  161.3490  206.7600  153.1600 C   0  0  0  0  0  3  0  0  0  0  0  0
  161.2420  206.3560  151.8390 C   0  0  0  0  0  0  0  0  0  0  0  0
  161.1900  202.7000  151.3600 N   0  0  0  0  0  0  0  0  0  0  0  0
  161.2130  204.0950  147.8270 C   0  0  0  0  0  0  0  0  0  0  0  0
  160.6590  202.1870  149.0960 N   0  0  0  0  0  0  0  0  0  0  0  0
  161.6100  204.3040  146.6020 O   0  0  0  0  0  0  0  0  0  0  0  0
  160.4490  204.5220  150.1080 C   0  0  2  0  0  3  0  0  0  0  0  0
  161.0980  204.9880  148.8170 C   0  0  0  0  0  3  0  0  0  0  0  0
  161.1230  204.9670  151.3600 C   0  0  0  0  0  0  0  0  0  0  0  0
  161.4690  203.9010  152.0730 C   0  0  0  0  0  3  0  0  0  0  0  0
  160.9280  202.7620  147.9600 C   0  0  0  0  0  0  0  0  0  0  0  0
  161.5590  203.1330  145.9820 C   0  0  0  0  0  3  0  0  0  0  0  0
  160.6120  203.0350  150.2550 C   0  0  0  0  0  0  0  0  0  0  0  0
  161.1410  202.1270  146.7980 N   0  0  0  0  0  0  0  0  0  0  0  0
  161.4820  209.9900  151.6530 C   0  0  0  0  0  0  0  0  0  0  0  0
  161.0910  210.9630  152.4950 C   0  0  0  0  0  3  0  0  0  0  0  0
  161.1720  210.5920  156.2700 C   0  0  0  0  0  3  0  0  0  0  0  0
  161.6030  210.6680  154.9430 C   0  0  0  0  0  3  0  0  0  0  0  0
  159.3150  210.9440  154.2110 C   0  0  0  0  0  3  0  0  0  0  0  0
  159.8110  210.6870  156.5660 C   0  0  0  0  0  3  0  0  0  0  0  0
  158.8740  210.8650  155.5360 C   0  0  0  0  0  0  0  0  0  0  0  0
  160.6750  210.8250  153.9030 C   0  0  0  0  0  0  0  0  0  0  0  0
  157.4760  210.9800  155.8140 N   0  0  0  0  0  2  0  0  0  0  0  0
  156.4660  211.1990  154.7890 C   0  0  1  0  0  3  0  0  0  0  0  0
  155.3080  210.2460  155.0210 C   0  0  0  0  0  1  0  0  0  0  0  0
  155.9730  212.6360  154.8490 C   0  0  0  0  0  2  0  0  0  0  0  0
  156.6750  213.4810  153.8040 C   0  0  0  0  0  1  0  0  0  0  0  0
  161.9970  210.3370  150.3600 N   0  0  0  0  0  2  0  0  0  0  0  0
  161.7950  211.6300  149.7160 C   0  0  0  0  0  2  0  0  0  0  0  0
  162.0760  211.5350  148.2250 C   0  0  0  0  0  2  0  0  0  0  0  0
  163.1220  212.5550  147.8180 C   0  0  0  0  0  1  0  0  0  0  0  0
  1  6  1  0  0  0  0
  1  4  2  0  0  0  0
  2  1  1  0  0  0  0
  4  3  1  0  0  0  0
  5  3  1  0  0  0  0
  6  5  2  0  0  0  0
  7 14  1  0  0  0  0
  8 15  1  0  0  0  0
  8 12  2  0  0  0  0
  9 17  1  0  0  0  0
 10  8  1  0  0  0  0
 11 12  1  6  0  0  0
 11 17  1  0  0  0  0
 11 13  1  0  0  0  0
 13  6  1  0  0  0  0
 13 14  2  0  0  0  0
 15  9  2  0  0  0  0
 16 10  1  0  0  0  0
 16 18  2  0  0  0  0
 17  7  2  0  0  0  0
 18 15  1  0  0  0  0
 19  4  1  0  0  0  0
 19 20  2  0  0  0  0
 20 26  1  0  0  0  0
 21 24  1  0  0  0  0
 22 21  2  0  0  0  0
 23 25  1  0  0  0  0
 25 27  1  0  0  0  0
 25 24  2  0  0  0  0
 26 23  2  0  0  0  0
 26 22  1  0  0  0  0
 28 30  1  0  0  0  0
 28 29  1  1  0  0  0
 28 27  1  0  0  0  0
 31 30  1  0  0  0  0
 32 19  1  0  0  0  0
 33 32  1  0  0  0  0
 34 33  1  0  0  0  0
 35 34  1  0  0  0  0
M  END
>  <MODEL>
3

>  <REMARK>
 VINA RESULT:      -8.3      1.210      2.708
  Name = 
  9 active torsions:
  status: ('A' for Active; 'I' for Inactive)
    1  A    between atoms: C_5  and  C_8
    2  A    between atoms: C_8  and  N_19
    3  A    between atoms: C_10  and  C_23
    4  A    between atoms: N_14  and  C_23
    5  A    between atoms: N_14  and  C_28
    6  A    between atoms: C_15  and  N_19
    7  A    between atoms: C_15  and  C_30
    8  A    between atoms: C_17  and  C_35
    9  A    between atoms: C_25  and  C_31
                            x       y       z     vdW  Elec       q    Type
                         _______ _______ _______ _____ _____    ______ ____

>  <TORSDO>
F 9

$$$$
=
 OpenBabel11052410283D

 35 39  0  0  1  0  0  0  0  0999 V2000
  161.3880  208.7240  151.4330 C   0  0  0  0  0  0  0  0  0  0  0  0
  160.5840  209.8560  151.4580 O   0  0  0  0  0  1  0  0  0  0  0  0
  162.7130  207.1360  150.7040 O   0  0  0  0  0  0  0  0  0  0  0  0
  162.1110  208.2530  150.3580 C   0  0  0  0  0  0  0  0  0  0  0  0
  162.4420  206.8570  151.9650 C   0  0  0  0  0  3  0  0  0  0  0  0
  161.6040  207.8410  152.4670 C   0  0  0  0  0  0  0  0  0  0  0  0
  160.1440  207.2380  155.7990 N   0  0  0  0  0  0  0  0  0  0  0  0
  159.7590  210.9810  155.2840 C   0  0  0  0  0  0  0  0  0  0  0  0
  159.8490  209.3060  156.9400 N   0  0  0  0  0  0  0  0  0  0  0  0
  159.1750  212.1440  155.1790 O   0  0  0  0  0  0  0  0  0  0  0  0
  161.1770  209.0590  154.7730 C   0  0  2  0  0  3  0  0  0  0  0  0
  160.4500  210.3210  154.3470 C   0  0  0  0  0  3  0  0  0  0  0  0
  161.0630  207.9060  153.8360 C   0  0  0  0  0  0  0  0  0  0  0  0
  160.5310  206.8720  154.4780 C   0  0  0  0  0  3  0  0  0  0  0  0
  159.5410  210.5090  156.5500 C   0  0  0  0  0  0  0  0  0  0  0  0
  158.6190  212.3960  156.3560 C   0  0  0  0  0  3  0  0  0  0  0  0
  160.5060  208.4630  155.9800 C   0  0  0  0  0  0  0  0  0  0  0  0
  158.8160  211.3930  157.2540 N   0  0  0  0  0  0  0  0  0  0  0  0
  162.1820  208.8320  149.0050 C   0  0  0  0  0  0  0  0  0  0  0  0
  162.1720  208.0890  147.8830 C   0  0  0  0  0  3  0  0  0  0  0  0
  162.1480  204.5180  146.6040 C   0  0  0  0  0  3  0  0  0  0  0  0
  162.3650  205.8970  146.6590 C   0  0  0  0  0  3  0  0  0  0  0  0
  161.2860  205.9840  148.8210 C   0  0  0  0  0  3  0  0  0  0  0  0
  161.4950  203.8730  147.6560 C   0  0  0  0  0  3  0  0  0  0  0  0
  161.0610  204.6050  148.7720 C   0  0  0  0  0  0  0  0  0  0  0  0
  161.9170  206.6420  147.7600 C   0  0  0  0  0  0  0  0  0  0  0  0
  160.4020  203.9650  149.8690 N   0  0  0  0  0  2  0  0  0  0  0  0
  161.0530  203.0070  150.7510 C   0  0  1  0  0  3  0  0  0  0  0  0
  160.8460  203.4390  152.1920 C   0  0  0  0  0  1  0  0  0  0  0  0
  160.4610  201.6230  150.5360 C   0  0  0  0  0  2  0  0  0  0  0  0
  161.1600  200.9200  149.3890 C   0  0  0  0  0  1  0  0  0  0  0  0
  162.3010  210.2570  148.9110 N   0  0  0  0  0  2  0  0  0  0  0  0
  161.2970  211.1270  148.3060 C   0  0  0  0  0  2  0  0  0  0  0  0
  161.9610  212.2740  147.5630 C   0  0  0  0  0  2  0  0  0  0  0  0
  163.4330  212.3540  147.9210 C   0  0  0  0  0  1  0  0  0  0  0  0
  1  2  1  0  0  0  0
  1  6  1  0  0  0  0
  3  5  1  0  0  0  0
  4  3  1  0  0  0  0
  4  1  2  0  0  0  0
  5  6  2  0  0  0  0
  6 13  1  0  0  0  0
  7 17  2  0  0  0  0
  8 15  1  0  0  0  0
 10  8  1  0  0  0  0
 10 16  1  0  0  0  0
 11 12  1  6  0  0  0
 11 17  1  0  0  0  0
 12  8  2  0  0  0  0
 13 14  2  0  0  0  0
 13 11  1  0  0  0  0
 14  7  1  0  0  0  0
 15  9  2  0  0  0  0
 15 18  1  0  0  0  0
 16 18  2  0  0  0  0
 17  9  1  0  0  0  0
 19  4  1  0  0  0  0
 20 19  2  0  0  0  0
 21 22  2  0  0  0  0
 21 24  1  0  0  0  0
 22 26  1  0  0  0  0
 24 25  2  0  0  0  0
 25 23  1  0  0  0  0
 25 27  1  0  0  0  0
 26 20  1  0  0  0  0
 26 23  2  0  0  0  0
 27 28  1  0  0  0  0
 28 29  1  1  0  0  0
 30 28  1  0  0  0  0
 31 30  1  0  0  0  0
 32 19  1  0  0  0  0
 33 32  1  0  0  0  0
 34 35  1  0  0  0  0
 34 33  1  0  0  0  0
M  END
>  <MODEL>
4

>  <REMARK>
 VINA RESULT:      -7.9      1.846      7.719
  Name = 
  9 active torsions:
  status: ('A' for Active; 'I' for Inactive)
    1  A    between atoms: C_5  and  C_8
    2  A    between atoms: C_8  and  N_19
    3  A    between atoms: C_10  and  C_23
    4  A    between atoms: N_14  and  C_23
    5  A    between atoms: N_14  and  C_28
    6  A    between atoms: C_15  and  N_19
    7  A    between atoms: C_15  and  C_30
    8  A    between atoms: C_17  and  C_35
    9  A    between atoms: C_25  and  C_31
                            x       y       z     vdW  Elec       q    Type
                         _______ _______ _______ _____ _____    ______ ____

>  <TORSDO>
F 9

$$$$
=
 OpenBabel11052410283D

 35 39  0  0  1  0  0  0  0  0999 V2000
  161.6720  208.9860  152.1810 C   0  0  0  0  0  0  0  0  0  0  0  0
  162.4650  209.9470  151.5660 O   0  0  0  0  0  1  0  0  0  0  0  0
  160.5290  207.9100  153.7110 O   0  0  0  0  0  0  0  0  0  0  0  0
  161.2090  209.0110  153.4790 C   0  0  0  0  0  0  0  0  0  0  0  0
  160.4980  207.1680  152.6210 C   0  0  0  0  0  3  0  0  0  0  0  0
  161.2120  207.8150  151.6240 C   0  0  0  0  0  0  0  0  0  0  0  0
  161.5880  207.3310  147.9880 N   0  0  0  0  0  0  0  0  0  0  0  0
  161.0830  203.8180  149.3410 C   0  0  0  0  0  0  0  0  0  0  0  0
  161.9470  205.0260  147.5100 N   0  0  0  0  0  0  0  0  0  0  0  0
  160.5510  202.6370  149.4980 O   0  0  0  0  0  0  0  0  0  0  0  0
  162.0160  206.0140  149.8640 C   0  0  2  0  0  3  0  0  0  0  0  0
  161.2020  204.7930  150.2510 C   0  0  0  0  0  3  0  0  0  0  0  0
  161.4240  207.3260  150.2500 C   0  0  0  0  0  0  0  0  0  0  0  0
  161.2580  208.0680  149.1610 C   0  0  0  0  0  3  0  0  0  0  0  0
  161.5130  203.9220  148.0450 C   0  0  0  0  0  0  0  0  0  0  0  0
  160.6600  202.0140  148.3320 C   0  0  0  0  0  3  0  0  0  0  0  0
  162.0200  206.1760  148.3690 C   0  0  0  0  0  0  0  0  0  0  0  0
  161.2550  202.7850  147.3810 N   0  0  0  0  0  0  0  0  0  0  0  0
  161.4600  210.0450  154.4990 C   0  0  0  0  0  0  0  0  0  0  0  0
  160.9540  211.2890  154.4300 C   0  0  0  0  0  3  0  0  0  0  0  0
  157.6580  212.2830  152.8360 C   0  0  0  0  0  3  0  0  0  0  0  0
  158.5740  211.7380  153.7390 C   0  0  0  0  0  3  0  0  0  0  0  0
  160.4000  212.4570  152.3260 C   0  0  0  0  0  3  0  0  0  0  0  0
  158.1140  212.9120  151.6760 C   0  0  0  0  0  3  0  0  0  0  0  0
  159.4890  213.0030  151.4150 C   0  0  0  0  0  0  0  0  0  0  0  0
  159.9510  211.8040  153.4790 C   0  0  0  0  0  0  0  0  0  0  0  0
  159.9820  213.6540  150.2410 N   0  0  0  0  0  2  0  0  0  0  0  0
  160.1840  212.9750  148.9690 C   0  0  1  0  0  3  0  0  0  0  0  0
  159.3230  213.6390  147.9100 C   0  0  0  0  0  1  0  0  0  0  0  0
  161.6490  213.0550  148.5690 C   0  0  0  0  0  2  0  0  0  0  0  0
  162.2460  211.6650  148.4680 C   0  0  0  0  0  1  0  0  0  0  0  0
  162.3170  209.6880  155.5910 N   0  0  0  0  0  2  0  0  0  0  0  0
  161.8740  209.5580  156.9750 C   0  0  0  0  0  2  0  0  0  0  0  0
  160.4750  208.9660  157.0360 C   0  0  0  0  0  2  0  0  0  0  0  0
  160.5450  207.4680  157.2610 C   0  0  0  0  0  1  0  0  0  0  0  0
  1  4  2  0  0  0  0
  2  1  1  0  0  0  0
  4  3  1  0  0  0  0
  4 19  1  0  0  0  0
  5  3  1  0  0  0  0
  6  1  1  0  0  0  0
  6  5  2  0  0  0  0
  7 17  2  0  0  0  0
  7 14  1  0  0  0  0
  8 10  1  0  0  0  0
  8 12  2  0  0  0  0
  9 15  2  0  0  0  0
  9 17  1  0  0  0  0
 11 13  1  0  0  0  0
 11 12  1  6  0  0  0
 13  6  1  0  0  0  0
 14 13  2  0  0  0  0
 15  8  1  0  0  0  0
 16 10  1  0  0  0  0
 17 11  1  0  0  0  0
 18 15  1  0  0  0  0
 18 16  2  0  0  0  0
 19 32  1  0  0  0  0
 20 19  2  0  0  0  0
 21 22  1  0  0  0  0
 23 26  1  0  0  0  0
 24 21  2  0  0  0  0
 25 24  1  0  0  0  0
 25 23  2  0  0  0  0
 26 22  2  0  0  0  0
 26 20  1  0  0  0  0
 27 25  1  0  0  0  0
 28 29  1  6  0  0  0
 28 27  1  0  0  0  0
 30 28  1  0  0  0  0
 31 30  1  0  0  0  0
 32 33  1  0  0  0  0
 33 34  1  0  0  0  0
 34 35  1  0  0  0  0
M  END
>  <MODEL>
5

>  <REMARK>
 VINA RESULT:      -7.8      1.780      5.201
  Name = 
  9 active torsions:
  status: ('A' for Active; 'I' for Inactive)
    1  A    between atoms: C_5  and  C_8
    2  A    between atoms: C_8  and  N_19
    3  A    between atoms: C_10  and  C_23
    4  A    between atoms: N_14  and  C_23
    5  A    between atoms: N_14  and  C_28
    6  A    between atoms: C_15  and  N_19
    7  A    between atoms: C_15  and  C_30
    8  A    between atoms: C_17  and  C_35
    9  A    between atoms: C_25  and  C_31
                            x       y       z     vdW  Elec       q    Type
                         _______ _______ _______ _____ _____    ______ ____

>  <TORSDO>
F 9

$$$$
=
 OpenBabel11052410283D

 35 39  0  0  1  0  0  0  0  0999 V2000
  161.0840  207.0040  150.0980 C   0  0  0  0  0  0  0  0  0  0  0  0
  160.4440  205.8560  150.5490 O   0  0  0  0  0  1  0  0  0  0  0  0
  162.0240  208.9840  150.0830 O   0  0  0  0  0  0  0  0  0  0  0  0
  161.5000  208.0680  150.8680 C   0  0  0  0  0  0  0  0  0  0  0  0
  161.9960  208.5670  148.8310 C   0  0  0  0  0  3  0  0  0  0  0  0
  161.4070  207.3130  148.7960 C   0  0  0  0  0  0  0  0  0  0  0  0
  160.4640  205.8920  145.5260 N   0  0  0  0  0  0  0  0  0  0  0  0
  161.2910  202.8540  147.6500 C   0  0  0  0  0  0  0  0  0  0  0  0
  161.1060  203.6020  145.4220 N   0  0  0  0  0  0  0  0  0  0  0  0
  161.1300  201.7090  148.2550 O   0  0  0  0  0  0  0  0  0  0  0  0
  161.8510  205.2010  147.2690 C   0  0  2  0  0  3  0  0  0  0  0  0
  161.5330  204.0490  148.2040 C   0  0  0  0  0  3  0  0  0  0  0  0
  161.1810  206.4920  147.5930 C   0  0  0  0  0  0  0  0  0  0  0  0
  160.4550  206.8820  146.5510 C   0  0  0  0  0  3  0  0  0  0  0  0
  161.1610  202.6450  146.3030 C   0  0  0  0  0  0  0  0  0  0  0  0
  160.9190  200.8060  147.3070 C   0  0  0  0  0  3  0  0  0  0  0  0
  161.2490  204.9440  145.9150 C   0  0  0  0  0  0  0  0  0  0  0  0
  160.9230  201.3480  146.0580 N   0  0  0  0  0  0  0  0  0  0  0  0
  161.3500  208.2330  152.3240 C   0  0  0  0  0  0  0  0  0  0  0  0
  160.8960  209.3610  152.8970 C   0  0  0  0  0  3  0  0  0  0  0  0
  158.5860  212.2380  152.0130 C   0  0  0  0  0  3  0  0  0  0  0  0
  159.0840  211.0910  152.6360 C   0  0  0  0  0  3  0  0  0  0  0  0
  161.0470  211.1720  151.2250 C   0  0  0  0  0  3  0  0  0  0  0  0
  159.3180  212.8490  150.9930 C   0  0  0  0  0  3  0  0  0  0  0  0
  160.5540  212.3190  150.5940 C   0  0  0  0  0  0  0  0  0  0  0  0
  160.3090  210.5390  152.2320 C   0  0  0  0  0  0  0  0  0  0  0  0
  161.3290  212.9350  149.5610 N   0  0  0  0  0  2  0  0  0  0  0  0
  161.7660  212.2400  148.3590 C   0  0  1  0  0  3  0  0  0  0  0  0
  160.6340  212.2390  147.3480 C   0  0  0  0  0  1  0  0  0  0  0  0
  162.9830  212.9370  147.7730 C   0  0  0  0  0  2  0  0  0  0  0  0
  162.6130  214.3230  147.2810 C   0  0  0  0  0  1  0  0  0  0  0  0
  161.7490  207.1300  153.1490 N   0  0  0  0  0  2  0  0  0  0  0  0
  160.9260  206.5570  154.2090 C   0  0  0  0  0  2  0  0  0  0  0  0
  160.9070  207.4690  155.4240 C   0  0  0  0  0  2  0  0  0  0  0  0
  159.6510  207.2340  156.2420 C   0  0  0  0  0  1  0  0  0  0  0  0
  1  2  1  0  0  0  0
  1  4  2  0  0  0  0
  3  4  1  0  0  0  0
  4 19  1  0  0  0  0
  5  3  1  0  0  0  0
  6  5  2  0  0  0  0
  6  1  1  0  0  0  0
  7 17  2  0  0  0  0
  7 14  1  0  0  0  0
  8 12  2  0  0  0  0
  8 10  1  0  0  0  0
  9 17  1  0  0  0  0
  9 15  2  0  0  0  0
 11 13  1  0  0  0  0
 11 12  1  1  0  0  0
 13  6  1  0  0  0  0
 14 13  2  0  0  0  0
 15  8  1  0  0  0  0
 16 10  1  0  0  0  0
 17 11  1  0  0  0  0
 18 15  1  0  0  0  0
 18 16  2  0  0  0  0
 19 20  2  0  0  0  0
 19 32  1  0  0  0  0
 21 22  1  0  0  0  0
 23 26  1  0  0  0  0
 24 21  2  0  0  0  0
 25 24  1  0  0  0  0
 25 23  2  0  0  0  0
 26 22  2  0  0  0  0
 26 20  1  0  0  0  0
 27 25  1  0  0  0  0
 28 29  1  6  0  0  0
 28 27  1  0  0  0  0
 30 28  1  0  0  0  0
 31 30  1  0  0  0  0
 32 33  1  0  0  0  0
 33 34  1  0  0  0  0
 34 35  1  0  0  0  0
M  END
>  <MODEL>
6

>  <REMARK>
 VINA RESULT:      -7.8      2.156      5.453
  Name = 
  9 active torsions:
  status: ('A' for Active; 'I' for Inactive)
    1  A    between atoms: C_5  and  C_8
    2  A    between atoms: C_8  and  N_19
    3  A    between atoms: C_10  and  C_23
    4  A    between atoms: N_14  and  C_23
    5  A    between atoms: N_14  and  C_28
    6  A    between atoms: C_15  and  N_19
    7  A    between atoms: C_15  and  C_30
    8  A    between atoms: C_17  and  C_35
    9  A    between atoms: C_25  and  C_31
                            x       y       z     vdW  Elec       q    Type
                         _______ _______ _______ _____ _____    ______ ____

>  <TORSDO>
F 9

$$$$
=
 OpenBabel11052410283D

 35 39  0  0  1  0  0  0  0  0999 V2000
  160.4100  210.6400  152.9660 C   0  0  0  0  0  0  0  0  0  0  0  0
  159.1870  210.7490  152.3140 O   0  0  0  0  0  1  0  0  0  0  0  0
  162.5360  210.2570  153.3340 O   0  0  0  0  0  0  0  0  0  0  0  0
  161.6170  210.2980  152.3950 C   0  0  0  0  0  0  0  0  0  0  0  0
  162.0010  210.5780  154.4960 C   0  0  0  0  0  3  0  0  0  0  0  0
  160.6510  210.8300  154.3080 C   0  0  0  0  0  0  0  0  0  0  0  0
  158.4610  211.1420  157.2580 N   0  0  0  0  0  0  0  0  0  0  0  0
  156.9160  213.4940  154.7070 C   0  0  0  0  0  0  0  0  0  0  0  0
  157.0420  213.0380  157.0170 N   0  0  0  0  0  0  0  0  0  0  0  0
  156.0180  214.0170  153.9180 O   0  0  0  0  0  0  0  0  0  0  0  0
  159.0300  212.5510  155.4890 C   0  0  2  0  0  3  0  0  0  0  0  0
  158.0830  212.9320  154.3660 C   0  0  0  0  0  3  0  0  0  0  0  0
  159.6860  211.2200  155.3500 C   0  0  0  0  0  0  0  0  0  0  0  0
  159.3890  210.4740  156.4080 C   0  0  0  0  0  3  0  0  0  0  0  0
  156.4640  213.6010  155.9950 C   0  0  0  0  0  0  0  0  0  0  0  0
  155.0370  214.4520  154.6970 C   0  0  0  0  0  3  0  0  0  0  0  0
  158.2540  212.3130  156.7560 C   0  0  0  0  0  0  0  0  0  0  0  0
  155.2680  214.2080  156.0160 N   0  0  0  0  0  0  0  0  0  0  0  0
  161.8770  209.9630  150.9840 C   0  0  0  0  0  0  0  0  0  0  0  0
  161.9950  208.7000  150.5350 C   0  0  0  0  0  3  0  0  0  0  0  0
  161.0080  206.2480  153.2560 C   0  0  0  0  0  3  0  0  0  0  0  0
  161.3060  207.4510  152.6090 C   0  0  0  0  0  3  0  0  0  0  0  0
  161.7980  206.2390  150.5750 C   0  0  0  0  0  3  0  0  0  0  0  0
  161.1100  205.0410  152.5610 C   0  0  0  0  0  3  0  0  0  0  0  0
  161.5050  205.0310  151.2150 C   0  0  0  0  0  0  0  0  0  0  0  0
  161.7220  207.4510  151.2700 C   0  0  0  0  0  0  0  0  0  0  0  0
  161.6040  203.8090  150.4780 N   0  0  0  0  0  2  0  0  0  0  0  0
  160.7450  203.4770  149.3500 C   0  0  1  0  0  3  0  0  0  0  0  0
  161.4700  203.8090  148.0600 C   0  0  0  0  0  1  0  0  0  0  0  0
  160.3980  201.9970  149.3830 C   0  0  0  0  0  2  0  0  0  0  0  0
  161.1510  201.2530  148.2980 C   0  0  0  0  0  1  0  0  0  0  0  0
  162.0420  211.0570  150.0740 N   0  0  0  0  0  2  0  0  0  0  0  0
  162.0780  210.9200  148.6210 C   0  0  0  0  0  2  0  0  0  0  0  0
  161.8830  212.2700  147.9500 C   0  0  0  0  0  2  0  0  0  0  0  0
  160.4870  212.3730  147.3670 C   0  0  0  0  0  1  0  0  0  0  0  0
  1  6  1  0  0  0  0
  2  1  1  0  0  0  0
  3  5  1  0  0  0  0
  4  1  2  0  0  0  0
  4  3  1  0  0  0  0
  6  5  2  0  0  0  0
  6 13  1  0  0  0  0
  8 15  1  0  0  0  0
 10 16  1  0  0  0  0
 10  8  1  0  0  0  0
 11 12  1  6  0  0  0
 11 17  1  0  0  0  0
 12  8  2  0  0  0  0
 13 11  1  0  0  0  0
 13 14  2  0  0  0  0
 14  7  1  0  0  0  0
 15 18  1  0  0  0  0
 15  9  2  0  0  0  0
 16 18  2  0  0  0  0
 17  9  1  0  0  0  0
 17  7  2  0  0  0  0
 19  4  1  0  0  0  0
 20 19  2  0  0  0  0
 20 26  1  0  0  0  0
 22 21  1  0  0  0  0
 23 25  2  0  0  0  0
 23 26  1  0  0  0  0
 24 21  2  0  0  0  0
 25 24  1  0  0  0  0
 26 22  2  0  0  0  0
 27 25  1  0  0  0  0
 28 29  1  6  0  0  0
 28 30  1  0  0  0  0
 28 27  1  0  0  0  0
 31 30  1  0  0  0  0
 32 19  1  0  0  0  0
 33 32  1  0  0  0  0
 34 33  1  0  0  0  0
 35 34  1  0  0  0  0
M  END
>  <MODEL>
7

>  <REMARK>
 VINA RESULT:      -7.7      2.494      8.593
  Name = 
  9 active torsions:
  status: ('A' for Active; 'I' for Inactive)
    1  A    between atoms: C_5  and  C_8
    2  A    between atoms: C_8  and  N_19
    3  A    between atoms: C_10  and  C_23
    4  A    between atoms: N_14  and  C_23
    5  A    between atoms: N_14  and  C_28
    6  A    between atoms: C_15  and  N_19
    7  A    between atoms: C_15  and  C_30
    8  A    between atoms: C_17  and  C_35
    9  A    between atoms: C_25  and  C_31
                            x       y       z     vdW  Elec       q    Type
                         _______ _______ _______ _____ _____    ______ ____

>  <TORSDO>
F 9

$$$$
=
 OpenBabel11052410283D

 35 39  0  0  1  0  0  0  0  0999 V2000
  161.2850  208.2770  151.9010 C   0  0  0  0  0  0  0  0  0  0  0  0
  160.5370  209.4270  151.6830 O   0  0  0  0  0  1  0  0  0  0  0  0
  162.5450  206.5210  151.5310 O   0  0  0  0  0  0  0  0  0  0  0  0
  162.0050  207.5750  150.9590 C   0  0  0  0  0  0  0  0  0  0  0  0
  162.2370  206.5040  152.8140 C   0  0  0  0  0  3  0  0  0  0  0  0
  161.4380  207.6030  153.0920 C   0  0  0  0  0  0  0  0  0  0  0  0
  159.7710  207.7520  156.3780 N   0  0  0  0  0  0  0  0  0  0  0  0
  160.1690  211.3950  155.3760 C   0  0  0  0  0  0  0  0  0  0  0  0
  159.8610  209.9740  157.2310 N   0  0  0  0  0  0  0  0  0  0  0  0
  159.8360  212.6240  155.0910 O   0  0  0  0  0  0  0  0  0  0  0  0
  161.1860  209.1810  155.1980 C   0  0  2  0  0  3  0  0  0  0  0  0
  160.7450  210.4920  154.5730 C   0  0  0  0  0  3  0  0  0  0  0  0
  160.8740  207.9570  154.4060 C   0  0  0  0  0  0  0  0  0  0  0  0
  160.1220  207.1440  155.1390 C   0  0  0  0  0  3  0  0  0  0  0  0
  159.8160  211.1500  156.6760 C   0  0  0  0  0  0  0  0  0  0  0  0
  159.3020  213.1370  156.1910 C   0  0  0  0  0  3  0  0  0  0  0  0
  160.3670  208.8960  156.4260 C   0  0  0  0  0  0  0  0  0  0  0  0
  159.2610  212.2450  157.2180 N   0  0  0  0  0  0  0  0  0  0  0  0
  162.1310  207.8750  149.5220 C   0  0  0  0  0  0  0  0  0  0  0  0
  161.9980  206.9450  148.5590 C   0  0  0  0  0  3  0  0  0  0  0  0
  160.5010  203.7610  149.9780 C   0  0  0  0  0  3  0  0  0  0  0  0
  160.9660  205.0770  149.8940 C   0  0  0  0  0  3  0  0  0  0  0  0
  161.6140  204.7050  147.5940 C   0  0  0  0  0  3  0  0  0  0  0  0
  160.5970  202.9170  148.8700 C   0  0  0  0  0  3  0  0  0  0  0  0
  161.1540  203.3860  147.6700 C   0  0  0  0  0  0  0  0  0  0  0  0
  161.5440  205.5500  148.7070 C   0  0  0  0  0  0  0  0  0  0  0  0
  161.2510  202.5450  146.5170 N   0  0  0  0  0  2  0  0  0  0  0  0
  160.4780  201.3240  146.3440 C   0  0  1  0  0  3  0  0  0  0  0  0
  160.0390  201.2160  144.8950 C   0  0  0  0  0  1  0  0  0  0  0  0
  161.3270  200.1190  146.7180 C   0  0  0  0  0  2  0  0  0  0  0  0
  161.2100  199.0400  145.6590 C   0  0  0  0  0  1  0  0  0  0  0  0
  162.4430  209.2270  149.1630 N   0  0  0  0  0  2  0  0  0  0  0  0
  161.5910  210.0760  148.3370 C   0  0  0  0  0  2  0  0  0  0  0  0
  162.1440  211.4900  148.2730 C   0  0  0  0  0  2  0  0  0  0  0  0
  161.2090  212.4550  148.9770 C   0  0  0  0  0  1  0  0  0  0  0  0
  1  6  1  0  0  0  0
  2  1  1  0  0  0  0
  3  5  1  0  0  0  0
  4  3  1  0  0  0  0
  4  1  2  0  0  0  0
  5  6  2  0  0  0  0
  6 13  1  0  0  0  0
  7 17  2  0  0  0  0
  8 15  1  0  0  0  0
 10  8  1  0  0  0  0
 10 16  1  0  0  0  0
 11 12  1  6  0  0  0
 11 17  1  0  0  0  0
 12  8  2  0  0  0  0
 13 14  2  0  0  0  0
 13 11  1  0  0  0  0
 14  7  1  0  0  0  0
 15 18  1  0  0  0  0
 15  9  2  0  0  0  0
 16 18  2  0  0  0  0
 17  9  1  0  0  0  0
 19  4  1  0  0  0  0
 20 26  1  0  0  0  0
 20 19  2  0  0  0  0
 22 21  1  0  0  0  0
 23 25  2  0  0  0  0
 23 26  1  0  0  0  0
 24 21  2  0  0  0  0
 25 24  1  0  0  0  0
 26 22  2  0  0  0  0
 27 25  1  0  0  0  0
 28 29  1  6  0  0  0
 28 27  1  0  0  0  0
 28 30  1  0  0  0  0
 31 30  1  0  0  0  0
 32 19  1  0  0  0  0
 33 32  1  0  0  0  0
 34 33  1  0  0  0  0
 34 35  1  0  0  0  0
M  END
>  <MODEL>
8

>  <REMARK>
 VINA RESULT:      -7.7      2.045      8.762
  Name = 
  9 active torsions:
  status: ('A' for Active; 'I' for Inactive)
    1  A    between atoms: C_5  and  C_8
    2  A    between atoms: C_8  and  N_19
    3  A    between atoms: C_10  and  C_23
    4  A    between atoms: N_14  and  C_23
    5  A    between atoms: N_14  and  C_28
    6  A    between atoms: C_15  and  N_19
    7  A    between atoms: C_15  and  C_30
    8  A    between atoms: C_17  and  C_35
    9  A    between atoms: C_25  and  C_31
                            x       y       z     vdW  Elec       q    Type
                         _______ _______ _______ _____ _____    ______ ____

>  <TORSDO>
F 9

$$$$
=
 OpenBabel11052410283D

 35 39  0  0  1  0  0  0  0  0999 V2000
  160.7550  209.6560  152.3430 C   0  0  0  0  0  0  0  0  0  0  0  0
  159.7170  210.1220  153.1400 O   0  0  0  0  0  1  0  0  0  0  0  0
  162.3690  208.3900  151.5700 O   0  0  0  0  0  0  0  0  0  0  0  0
  161.4230  208.4590  152.4810 C   0  0  0  0  0  0  0  0  0  0  0  0
  162.3440  209.4750  150.8200 C   0  0  0  0  0  3  0  0  0  0  0  0
  161.3330  210.3060  151.2760 C   0  0  0  0  0  0  0  0  0  0  0  0
  160.0810  213.7020  150.5700 N   0  0  0  0  0  0  0  0  0  0  0  0
  160.7960  212.2480  147.1350 C   0  0  0  0  0  0  0  0  0  0  0  0
  160.5330  214.2780  148.3040 N   0  0  0  0  0  0  0  0  0  0  0  0
  160.5830  211.8560  145.9090 O   0  0  0  0  0  0  0  0  0  0  0  0
  161.5140  212.2280  149.4700 C   0  0  2  0  0  3  0  0  0  0  0  0
  161.1650  211.5020  148.1840 C   0  0  0  0  0  3  0  0  0  0  0  0
  160.9690  211.6200  150.7170 C   0  0  0  0  0  0  0  0  0  0  0  0
  160.2120  212.5140  151.3440 C   0  0  0  0  0  3  0  0  0  0  0  0
  160.5670  213.5960  147.1960 C   0  0  0  0  0  0  0  0  0  0  0  0
  160.2440  212.9370  145.2190 C   0  0  0  0  0  3  0  0  0  0  0  0
  160.8110  213.5570  149.5160 C   0  0  0  0  0  0  0  0  0  0  0  0
  160.2130  214.0600  145.9880 N   0  0  0  0  0  0  0  0  0  0  0  0
  161.1970  207.4200  153.5010 C   0  0  0  0  0  0  0  0  0  0  0  0
  160.9380  206.1340  153.2020 C   0  0  0  0  0  3  0  0  0  0  0  0
  161.2740  203.5250  150.4680 C   0  0  0  0  0  3  0  0  0  0  0  0
  161.2710  204.1140  151.7350 C   0  0  0  0  0  3  0  0  0  0  0  0
  160.7020  206.2470  150.7460 C   0  0  0  0  0  3  0  0  0  0  0  0
  160.9960  204.2990  149.3400 C   0  0  0  0  0  3  0  0  0  0  0  0
  160.7070  205.6660  149.4740 C   0  0  0  0  0  0  0  0  0  0  0  0
  161.0040  205.4840  151.8800 C   0  0  0  0  0  0  0  0  0  0  0  0
  160.4050  206.4770  148.3350 N   0  0  0  0  0  2  0  0  0  0  0  0
  161.4150  206.9860  147.4180 C   0  0  1  0  0  3  0  0  0  0  0  0
  162.6950  207.2530  148.1890 C   0  0  0  0  0  1  0  0  0  0  0  0
  161.6750  205.9680  146.3200 C   0  0  0  0  0  2  0  0  0  0  0  0
  160.4650  205.8440  145.4150 C   0  0  0  0  0  1  0  0  0  0  0  0
  161.2260  207.8360  154.8720 N   0  0  0  0  0  2  0  0  0  0  0  0
  160.2890  207.3750  155.8910 C   0  0  0  0  0  2  0  0  0  0  0  0
  160.6820  207.9060  157.2600 C   0  0  0  0  0  2  0  0  0  0  0  0
  161.8810  208.8280  157.1440 C   0  0  0  0  0  1  0  0  0  0  0  0
  1  4  2  0  0  0  0
  1  2  1  0  0  0  0
  3  4  1  0  0  0  0
  4 19  1  0  0  0  0
  5  6  2  0  0  0  0
  5  3  1  0  0  0  0
  6  1  1  0  0  0  0
  7 14  1  0  0  0  0
  8 15  1  0  0  0  0
  8 12  2  0  0  0  0
  9 17  1  0  0  0  0
 10  8  1  0  0  0  0
 11 12  1  6  0  0  0
 11 17  1  0  0  0  0
 11 13  1  0  0  0  0
 13  6  1  0  0  0  0
 13 14  2  0  0  0  0
 15  9  2  0  0  0  0
 16 10  1  0  0  0  0
 16 18  2  0  0  0  0
 17  7  2  0  0  0  0
 18 15  1  0  0  0  0
 19 32  1  0  0  0  0
 20 19  2  0  0  0  0
 21 22  1  0  0  0  0
 22 26  2  0  0  0  0
 23 26  1  0  0  0  0
 24 25  1  0  0  0  0
 24 21  2  0  0  0  0
 25 23  2  0  0  0  0
 26 20  1  0  0  0  0
 27 25  1  0  0  0  0
 28 29  1  1  0  0  0
 28 27  1  0  0  0  0
 30 28  1  0  0  0  0
 31 30  1  0  0  0  0
 32 33  1  0  0  0  0
 33 34  1  0  0  0  0
 35 34  1  0  0  0  0
M  END
>  <MODEL>
9

>  <REMARK>
 VINA RESULT:      -7.5      2.556      8.181
  Name = 
  9 active torsions:
  status: ('A' for Active; 'I' for Inactive)
    1  A    between atoms: C_5  and  C_8
    2  A    between atoms: C_8  and  N_19
    3  A    between atoms: C_10  and  C_23
    4  A    between atoms: N_14  and  C_23
    5  A    between atoms: N_14  and  C_28
    6  A    between atoms: C_15  and  N_19
    7  A    between atoms: C_15  and  C_30
    8  A    between atoms: C_17  and  C_35
    9  A    between atoms: C_25  and  C_31
                            x       y       z     vdW  Elec       q    Type
                         _______ _______ _______ _____ _____    ______ ____

>  <TORSDO>
F 9

$$$$
