=
 OpenBabel11052411143D

 26 29  0  0  1  0  0  0  0  0999 V2000
  161.1160  205.7310  145.8860 C   0  0  0  0  0  3  0  0  0  0  0  0
  161.3000  203.2930  148.8970 C   0  0  2  0  0  3  0  0  0  0  0  0
  160.6220  206.6610  150.6870 C   0  0  1  0  0  3  0  0  0  0  0  0
  160.9340  204.8380  144.8300 C   0  0  0  0  0  3  0  0  0  0  0  0
  160.8740  203.4680  145.0810 C   0  0  0  0  0  3  0  0  0  0  0  0
  161.2490  205.2610  147.1980 C   0  0  0  0  0  0  0  0  0  0  0  0
  161.6890  206.4480  149.7300 C   0  0  2  0  0  0  0  0  0  0  0  0
  160.9830  202.9890  146.3880 C   0  0  0  0  0  3  0  0  0  0  0  0
  161.4250  206.2030  148.2580 N   0  0  0  0  0  0  0  0  0  0  0  0
  160.4750  204.0050  149.9390 C   0  0  0  0  0  3  0  0  0  0  0  0
  160.7650  205.2810  150.1460 C   0  0  0  0  0  0  0  0  0  0  0  0
  161.1490  203.8650  147.4740 C   0  0  0  0  0  0  0  0  0  0  0  0
  161.3980  207.5210  148.8860 C   0  0  2  0  0  3  0  0  0  0  0  0
  161.0730  201.8130  148.9950 C   0  0  0  0  0  0  0  0  0  0  0  0
  161.9950  201.0020  148.7160 O   0  0  0  0  0  0  0  0  0  0  0  0
  159.8120  201.3270  149.4380 N   0  0  0  0  0  1  0  0  0  0  0  0
  161.2110  205.3950  152.8640 C   0  0  0  0  0  1  0  0  0  0  0  0
  161.3070  207.7840  152.7870 N   0  0  0  0  0  0  0  0  0  0  0  0
  161.1010  206.6850  152.1210 C   0  0  0  0  0  0  0  0  0  0  0  0
  162.2770  209.7240  151.8430 C   0  0  0  0  0  2  0  0  0  0  0  0
  161.1800  209.1110  152.2670 C   0  0  0  0  0  0  0  0  0  0  0  0
  160.0510  209.9740  152.7250 C   0  0  0  0  0  2  0  0  0  0  0  0
  160.0820  210.3180  155.3770 C   0  0  0  0  0  3  0  0  0  0  0  0
  160.0720  210.1610  154.1810 C   0  0  0  0  0  0  0  0  0  0  0  0
  162.6640  208.2600  148.5020 C   0  0  0  0  0  2  0  0  0  0  0  0
  162.4180  209.6330  148.4780 O   0  0  0  0  0  1  0  0  0  0  0  0
  1  6  1  0  0  0  0
  2 14  1  6  0  0  0
  2 10  1  0  0  0  0
  3 19  1  1  0  0  0
  4  5  1  0  0  0  0
  4  1  2  0  0  0  0
  5  8  2  0  0  0  0
  6 12  2  0  0  0  0
  6  9  1  0  0  0  0
  7 11  1  1  0  0  0
  7  3  1  0  0  0  0
  8 12  1  0  0  0  0
  9 13  1  0  0  0  0
  9  7  1  0  0  0  0
 10 11  2  0  0  0  0
 11  3  1  0  0  0  0
 12  2  1  0  0  0  0
 13 25  1  6  0  0  0
 13  7  1  0  0  0  0
 14 16  1  0  0  0  0
 15 14  2  0  0  0  0
 19 18  2  0  0  0  0
 19 17  1  0  0  0  0
 20 21  2  0  0  0  0
 21 22  1  0  0  0  0
 21 18  1  0  0  0  0
 22 24  1  0  0  0  0
 24 23  3  0  0  0  0
 26 25  1  0  0  0  0
M  END
>  <MODEL>
1

>  <REMARK>
 VINA RESULT:      -8.2      0.000      0.000
  Name = 
  6 active torsions:
  status: ('A' for Active; 'I' for Inactive)
    1  A    between atoms: C_1  and  C_8
    2  A    between atoms: N_4  and  C_25
    3  A    between atoms: C_9  and  C_20
    4  A    between atoms: C_11  and  C_23
    5  A    between atoms: C_14  and  C_26
    6  A    between atoms: C_25  and  C_26
                            x       y       z     vdW  Elec       q    Type
                         _______ _______ _______ _____ _____    ______ ____

>  <TORSDO>
F 6

$$$$
=
 OpenBabel11052411143D

 26 29  0  0  1  0  0  0  0  0999 V2000
  161.1960  203.7640  151.8110 C   0  0  0  0  0  3  0  0  0  0  0  0
  160.9300  206.3650  148.9470 C   0  0  2  0  0  3  0  0  0  0  0  0
  162.1470  208.5850  151.8800 C   0  0  1  0  0  3  0  0  0  0  0  0
  161.1900  202.5700  151.0890 C   0  0  0  0  0  3  0  0  0  0  0  0
  161.0980  202.5990  149.6980 C   0  0  0  0  0  3  0  0  0  0  0  0
  161.1010  204.9940  151.1500 C   0  0  0  0  0  0  0  0  0  0  0  0
  160.9960  207.7080  151.9470 C   0  0  2  0  0  0  0  0  0  0  0  0
  161.0250  203.8210  149.0260 C   0  0  0  0  0  3  0  0  0  0  0  0
  161.1200  206.1980  151.9190 N   0  0  0  0  0  0  0  0  0  0  0  0
  161.9110  207.4250  149.3840 C   0  0  0  0  0  3  0  0  0  0  0  0
  161.7960  207.8530  150.6320 C   0  0  0  0  0  0  0  0  0  0  0  0
  161.0480  205.0410  149.7250 C   0  0  0  0  0  0  0  0  0  0  0  0
  161.3550  207.0170  153.1040 C   0  0  2  0  0  3  0  0  0  0  0  0
  160.9800  206.2130  147.4560 C   0  0  0  0  0  0  0  0  0  0  0  0
  159.9220  206.2360  146.7730 O   0  0  0  0  0  0  0  0  0  0  0  0
  162.2380  206.0720  146.8080 N   0  0  0  0  0  1  0  0  0  0  0  0
  161.9240  210.6780  150.3790 C   0  0  0  0  0  1  0  0  0  0  0  0
  161.4600  210.8130  152.7210 N   0  0  0  0  0  0  0  0  0  0  0  0
  161.7800  210.0430  151.7210 C   0  0  0  0  0  0  0  0  0  0  0  0
  160.1290  210.3010  154.6090 C   0  0  0  0  0  2  0  0  0  0  0  0
  161.3440  210.4010  154.0860 C   0  0  0  0  0  0  0  0  0  0  0  0
  162.4710  210.6620  155.0300 C   0  0  0  0  0  2  0  0  0  0  0  0
  162.2530  209.2020  157.2600 C   0  0  0  0  0  3  0  0  0  0  0  0
  162.3470  209.8600  156.2530 C   0  0  0  0  0  0  0  0  0  0  0  0
  160.1660  206.8690  154.0320 C   0  0  0  0  0  2  0  0  0  0  0  0
  160.5940  206.9170  155.3580 O   0  0  0  0  0  1  0  0  0  0  0  0
  2 14  1  6  0  0  0
  2 10  1  0  0  0  0
  2 12  1  0  0  0  0
  3 19  1  6  0  0  0
  3  7  1  0  0  0  0
  4  1  2  0  0  0  0
  5  4  1  0  0  0  0
  6  1  1  0  0  0  0
  6  9  1  0  0  0  0
  7 11  1  6  0  0  0
  7 13  1  0  0  0  0
  8  5  2  0  0  0  0
  8 12  1  0  0  0  0
  9  7  1  0  0  0  0
  9 13  1  0  0  0  0
 10 11  2  0  0  0  0
 11  3  1  0  0  0  0
 12  6  2  0  0  0  0
 13 25  1  1  0  0  0
 15 14  2  0  0  0  0
 16 14  1  0  0  0  0
 17 19  1  0  0  0  0
 18 21  1  0  0  0  0
 19 18  2  0  0  0  0
 21 20  2  0  0  0  0
 21 22  1  0  0  0  0
 22 24  1  0  0  0  0
 24 23  3  0  0  0  0
 25 26  1  0  0  0  0
M  END
>  <MODEL>
2

>  <REMARK>
 VINA RESULT:      -7.6      2.395      4.412
  Name = 
  6 active torsions:
  status: ('A' for Active; 'I' for Inactive)
    1  A    between atoms: C_1  and  C_8
    2  A    between atoms: N_4  and  C_25
    3  A    between atoms: C_9  and  C_20
    4  A    between atoms: C_11  and  C_23
    5  A    between atoms: C_14  and  C_26
    6  A    between atoms: C_25  and  C_26
                            x       y       z     vdW  Elec       q    Type
                         _______ _______ _______ _____ _____    ______ ____

>  <TORSDO>
F 6

$$$$
=
 OpenBabel11052411143D

 26 29  0  0  1  0  0  0  0  0999 V2000
  161.1860  204.1330  152.5260 C   0  0  0  0  0  3  0  0  0  0  0  0
  160.8960  206.8290  149.7530 C   0  0  2  0  0  3  0  0  0  0  0  0
  161.7930  209.0000  152.8330 C   0  0  1  0  0  3  0  0  0  0  0  0
  161.3030  202.9730  151.7600 C   0  0  0  0  0  3  0  0  0  0  0  0
  161.2850  203.0540  150.3680 C   0  0  0  0  0  3  0  0  0  0  0  0
  161.0420  205.3800  151.9070 C   0  0  0  0  0  0  0  0  0  0  0  0
  160.7040  208.0460  152.8000 C   0  0  2  0  0  0  0  0  0  0  0  0
  161.1640  204.2960  149.7400 C   0  0  0  0  0  3  0  0  0  0  0  0
  160.9350  206.5500  152.7220 N   0  0  0  0  0  0  0  0  0  0  0  0
  161.7750  207.9330  150.2840 C   0  0  0  0  0  3  0  0  0  0  0  0
  161.5630  208.2990  151.5400 C   0  0  0  0  0  0  0  0  0  0  0  0
  161.0630  205.4830  150.4850 C   0  0  0  0  0  0  0  0  0  0  0  0
  161.0470  207.3320  153.9490 C   0  0  2  0  0  3  0  0  0  0  0  0
  161.0370  206.7420  148.2620 C   0  0  0  0  0  0  0  0  0  0  0  0
  160.0370  206.5040  147.5350 O   0  0  0  0  0  0  0  0  0  0  0  0
  162.3090  206.9640  147.6660 N   0  0  0  0  0  1  0  0  0  0  0  0
  161.1740  211.0240  151.3470 C   0  0  0  0  0  1  0  0  0  0  0  0
  161.1870  211.2300  153.7300 N   0  0  0  0  0  0  0  0  0  0  0  0
  161.3340  210.4360  152.7090 C   0  0  0  0  0  0  0  0  0  0  0  0
  162.5840  210.5190  155.5010 C   0  0  0  0  0  2  0  0  0  0  0  0
  161.3680  210.8670  155.1020 C   0  0  0  0  0  0  0  0  0  0  0  0
  160.2150  210.3180  155.8740 C   0  0  0  0  0  2  0  0  0  0  0  0
  157.8810  211.2600  154.9690 C   0  0  0  0  0  3  0  0  0  0  0  0
  158.9360  210.8380  155.3760 C   0  0  0  0  0  0  0  0  0  0  0  0
  159.8220  207.0660  154.8010 C   0  0  0  0  0  2  0  0  0  0  0  0
  160.2010  206.9010  156.1320 O   0  0  0  0  0  1  0  0  0  0  0  0
  2 14  1  6  0  0  0
  2 10  1  0  0  0  0
  2 12  1  0  0  0  0
  3 19  1  6  0  0  0
  4  1  2  0  0  0  0
  5  4  1  0  0  0  0
  6  1  1  0  0  0  0
  6  9  1  0  0  0  0
  7 11  1  6  0  0  0
  7  3  1  0  0  0  0
  7 13  1  0  0  0  0
  8  5  2  0  0  0  0
  8 12  1  0  0  0  0
  9  7  1  0  0  0  0
  9 13  1  0  0  0  0
 10 11  2  0  0  0  0
 11  3  1  0  0  0  0
 12  6  2  0  0  0  0
 13 25  1  1  0  0  0
 15 14  2  0  0  0  0
 16 14  1  0  0  0  0
 17 19  1  0  0  0  0
 18 21  1  0  0  0  0
 19 18  2  0  0  0  0
 21 20  2  0  0  0  0
 21 22  1  0  0  0  0
 23 24  3  0  0  0  0
 24 22  1  0  0  0  0
 25 26  1  0  0  0  0
M  END
>  <MODEL>
3

>  <REMARK>
 VINA RESULT:      -6.9      2.648      4.858
  Name = 
  6 active torsions:
  status: ('A' for Active; 'I' for Inactive)
    1  A    between atoms: C_1  and  C_8
    2  A    between atoms: N_4  and  C_25
    3  A    between atoms: C_9  and  C_20
    4  A    between atoms: C_11  and  C_23
    5  A    between atoms: C_14  and  C_26
    6  A    between atoms: C_25  and  C_26
                            x       y       z     vdW  Elec       q    Type
                         _______ _______ _______ _____ _____    ______ ____

>  <TORSDO>
F 6

$$$$
=
 OpenBabel11052411143D

 26 29  0  0  1  0  0  0  0  0999 V2000
  161.0820  207.2130  148.4320 C   0  0  0  0  0  3  0  0  0  0  0  0
  161.5190  204.5830  151.2480 C   0  0  2  0  0  3  0  0  0  0  0  0
  160.4900  207.7130  153.2850 C   0  0  1  0  0  3  0  0  0  0  0  0
  160.9950  206.3910  147.3090 C   0  0  0  0  0  3  0  0  0  0  0  0
  161.0800  205.0070  147.4530 C   0  0  0  0  0  3  0  0  0  0  0  0
  161.2630  206.6600  149.7050 C   0  0  0  0  0  0  0  0  0  0  0  0
  161.5740  207.6880  152.3250 C   0  0  2  0  0  0  0  0  0  0  0  0
  161.2380  204.4420  148.7200 C   0  0  0  0  0  3  0  0  0  0  0  0
  161.3380  207.5310  150.8350 N   0  0  0  0  0  0  0  0  0  0  0  0
  160.6230  205.1220  152.3340 C   0  0  0  0  0  3  0  0  0  0  0  0
  160.7770  206.4010  152.6410 C   0  0  0  0  0  0  0  0  0  0  0  0
  161.3100  205.2440  149.8720 C   0  0  0  0  0  0  0  0  0  0  0  0
  161.1730  208.7860  151.5630 C   0  0  2  0  0  3  0  0  0  0  0  0
  161.4490  203.0840  151.2300 C   0  0  0  0  0  0  0  0  0  0  0  0
  162.3210  202.3930  151.8190 O   0  0  0  0  0  0  0  0  0  0  0  0
  160.3660  202.4430  150.5660 N   0  0  0  0  0  1  0  0  0  0  0  0
  161.0320  206.3600  155.4210 C   0  0  0  0  0  1  0  0  0  0  0  0
  161.1980  208.7460  155.4240 N   0  0  0  0  0  0  0  0  0  0  0  0
  160.9630  207.6760  154.7210 C   0  0  0  0  0  0  0  0  0  0  0  0
  162.2260  210.8070  154.8860 C   0  0  0  0  0  2  0  0  0  0  0  0
  161.1110  210.0920  154.9480 C   0  0  0  0  0  0  0  0  0  0  0  0
  159.8290  210.8420  155.0970 C   0  0  0  0  0  2  0  0  0  0  0  0
  158.7640  211.4620  152.7230 C   0  0  0  0  0  3  0  0  0  0  0  0
  159.2470  211.1790  153.7920 C   0  0  0  0  0  0  0  0  0  0  0  0
  162.3550  209.6810  151.2480 C   0  0  0  0  0  2  0  0  0  0  0  0
  162.1840  210.2620  149.9920 O   0  0  0  0  0  1  0  0  0  0  0  0
  1  6  1  0  0  0  0
  2 14  1  6  0  0  0
  2 10  1  0  0  0  0
  3 19  1  1  0  0  0
  4  5  1  0  0  0  0
  4  1  2  0  0  0  0
  5  8  2  0  0  0  0
  6 12  2  0  0  0  0
  6  9  1  0  0  0  0
  7 11  1  1  0  0  0
  7  3  1  0  0  0  0
  8 12  1  0  0  0  0
  9 13  1  0  0  0  0
  9  7  1  0  0  0  0
 10 11  2  0  0  0  0
 11  3  1  0  0  0  0
 12  2  1  0  0  0  0
 13 25  1  6  0  0  0
 13  7  1  0  0  0  0
 14 15  2  0  0  0  0
 16 14  1  0  0  0  0
 19 17  1  0  0  0  0
 19 18  2  0  0  0  0
 20 21  2  0  0  0  0
 21 22  1  0  0  0  0
 21 18  1  0  0  0  0
 23 24  3  0  0  0  0
 24 22  1  0  0  0  0
 26 25  1  0  0  0  0
M  END
>  <MODEL>
4

>  <REMARK>
 VINA RESULT:      -6.6      1.722      2.758
  Name = 
  6 active torsions:
  status: ('A' for Active; 'I' for Inactive)
    1  A    between atoms: C_1  and  C_8
    2  A    between atoms: N_4  and  C_25
    3  A    between atoms: C_9  and  C_20
    4  A    between atoms: C_11  and  C_23
    5  A    between atoms: C_14  and  C_26
    6  A    between atoms: C_25  and  C_26
                            x       y       z     vdW  Elec       q    Type
                         _______ _______ _______ _____ _____    ______ ____

>  <TORSDO>
F 6

$$$$
=
 OpenBabel11052411143D

 26 29  0  0  1  0  0  0  0  0999 V2000
  161.3690  203.7090  150.8750 C   0  0  0  0  0  3  0  0  0  0  0  0
  161.0310  206.1680  147.8960 C   0  0  2  0  0  3  0  0  0  0  0  0
  162.3310  208.5240  150.6830 C   0  0  1  0  0  3  0  0  0  0  0  0
  161.3410  202.4810  150.2130 C   0  0  0  0  0  3  0  0  0  0  0  0
  161.2110  202.4430  148.8260 C   0  0  0  0  0  3  0  0  0  0  0  0
  161.2580  204.9050  150.1570 C   0  0  0  0  0  0  0  0  0  0  0  0
  161.1800  207.6560  150.8230 C   0  0  2  0  0  0  0  0  0  0  0  0
  161.1220  203.6300  148.0970 C   0  0  0  0  0  3  0  0  0  0  0  0
  161.3010  206.1450  150.8660 N   0  0  0  0  0  0  0  0  0  0  0  0
  162.0250  207.2440  148.2530 C   0  0  0  0  0  3  0  0  0  0  0  0
  161.9450  207.7330  149.4820 C   0  0  0  0  0  0  0  0  0  0  0  0
  161.1670  204.8820  148.7340 C   0  0  0  0  0  0  0  0  0  0  0  0
  161.5700  207.0200  152.0030 C   0  0  2  0  0  3  0  0  0  0  0  0
  161.0390  205.9420  146.4130 C   0  0  0  0  0  0  0  0  0  0  0  0
  160.0210  206.1980  145.7180 O   0  0  0  0  0  0  0  0  0  0  0  0
  162.2230  205.4640  145.7850 N   0  0  0  0  0  1  0  0  0  0  0  0
  162.0650  210.5400  149.0850 C   0  0  0  0  0  1  0  0  0  0  0  0
  161.6770  210.7940  151.4320 N   0  0  0  0  0  0  0  0  0  0  0  0
  161.9630  209.9740  150.4620 C   0  0  0  0  0  0  0  0  0  0  0  0
  162.6870  209.9540  153.3990 C   0  0  0  0  0  2  0  0  0  0  0  0
  161.6040  210.4520  152.8190 C   0  0  0  0  0  0  0  0  0  0  0  0
  160.2840  210.0890  153.4170 C   0  0  0  0  0  2  0  0  0  0  0  0
  158.3920  211.8720  152.7900 C   0  0  0  0  0  3  0  0  0  0  0  0
  159.2490  211.0710  153.0730 C   0  0  0  0  0  0  0  0  0  0  0  0
  160.4050  206.9230  152.9690 C   0  0  0  0  0  2  0  0  0  0  0  0
  160.8460  206.4030  154.1850 O   0  0  0  0  0  1  0  0  0  0  0  0
  2 14  1  6  0  0  0
  2 10  1  0  0  0  0
  2 12  1  0  0  0  0
  3 19  1  6  0  0  0
  3  7  1  0  0  0  0
  4  1  1  0  0  0  0
  5  4  2  0  0  0  0
  6  9  1  0  0  0  0
  6  1  2  0  0  0  0
  7 11  1  6  0  0  0
  7  9  1  0  0  0  0
  7 13  1  0  0  0  0
  8 12  2  0  0  0  0
  8  5  1  0  0  0  0
  9 13  1  0  0  0  0
 10 11  2  0  0  0  0
 11  3  1  0  0  0  0
 12  6  1  0  0  0  0
 13 25  1  1  0  0  0
 15 14  2  0  0  0  0
 16 14  1  0  0  0  0
 17 19  1  0  0  0  0
 18 21  1  0  0  0  0
 19 18  2  0  0  0  0
 21 20  2  0  0  0  0
 21 22  1  0  0  0  0
 23 24  3  0  0  0  0
 24 22  1  0  0  0  0
 25 26  1  0  0  0  0
M  END
>  <MODEL>
5

>  <REMARK>
 VINA RESULT:      -6.5      2.350      3.981
  Name = 
  6 active torsions:
  status: ('A' for Active; 'I' for Inactive)
    1  A    between atoms: C_1  and  C_8
    2  A    between atoms: N_4  and  C_25
    3  A    between atoms: C_9  and  C_20
    4  A    between atoms: C_11  and  C_23
    5  A    between atoms: C_14  and  C_26
    6  A    between atoms: C_25  and  C_26
                            x       y       z     vdW  Elec       q    Type
                         _______ _______ _______ _____ _____    ______ ____

>  <TORSDO>
F 6

$$$$
=
 OpenBabel11052411143D

 26 29  0  0  1  0  0  0  0  0999 V2000
  162.0460  208.8440  148.6830 C   0  0  0  0  0  3  0  0  0  0  0  0
  160.8810  207.4660  152.1160 C   0  0  2  0  0  3  0  0  0  0  0  0
  161.6040  204.1860  150.1850 C   0  0  1  0  0  3  0  0  0  0  0  0
  162.3310  210.1700  149.0100 C   0  0  0  0  0  3  0  0  0  0  0  0
  162.1480  210.6190  150.3170 C   0  0  0  0  0  3  0  0  0  0  0  0
  161.5670  207.9600  149.6570 C   0  0  0  0  0  0  0  0  0  0  0  0
  160.7520  205.2490  149.6930 C   0  0  2  0  0  0  0  0  0  0  0  0
  161.6920  209.7400  151.3020 C   0  0  0  0  0  3  0  0  0  0  0  0
  161.2950  206.6060  149.2900 N   0  0  0  0  0  0  0  0  0  0  0  0
  161.5490  206.1150  152.1630 C   0  0  0  0  0  3  0  0  0  0  0  0
  161.3960  205.3470  151.0940 C   0  0  0  0  0  0  0  0  0  0  0  0
  161.4150  208.3940  151.0070 C   0  0  0  0  0  0  0  0  0  0  0  0
  161.3630  205.4150  148.4490 C   0  0  2  0  0  3  0  0  0  0  0  0
  160.8780  208.0790  153.4850 C   0  0  0  0  0  0  0  0  0  0  0  0
  160.4290  209.2410  153.6680 O   0  0  0  0  0  0  0  0  0  0  0  0
  161.3600  207.3230  154.5900 N   0  0  0  0  0  1  0  0  0  0  0  0
  160.4460  202.9740  152.1540 C   0  0  0  0  0  1  0  0  0  0  0  0
  160.5900  201.9320  150.0050 N   0  0  0  0  0  0  0  0  0  0  0  0
  160.8320  202.9970  150.7130 C   0  0  0  0  0  0  0  0  0  0  0  0
  160.0760  202.1050  147.7030 C   0  0  0  0  0  2  0  0  0  0  0  0
  160.9480  201.7420  148.6340 C   0  0  0  0  0  0  0  0  0  0  0  0
  161.9250  200.6730  148.2710 C   0  0  0  0  0  2  0  0  0  0  0  0
  161.2130  199.4270  146.0140 C   0  0  0  0  0  3  0  0  0  0  0  0
  161.5380  199.9870  147.0330 C   0  0  0  0  0  0  0  0  0  0  0  0
  160.3230  205.5420  147.3530 C   0  0  0  0  0  2  0  0  0  0  0  0
  160.8140  206.3520  146.3300 O   0  0  0  0  0  1  0  0  0  0  0  0
  1  4  2  0  0  0  0
  1  6  1  0  0  0  0
  2 10  1  0  0  0  0
  2 14  1  1  0  0  0
  3 19  1  1  0  0  0
  3 11  1  0  0  0  0
  4  5  1  0  0  0  0
  5  8  2  0  0  0  0
  6 12  2  0  0  0  0
  7  3  1  0  0  0  0
  7 11  1  1  0  0  0
  9  6  1  0  0  0  0
  9  7  1  0  0  0  0
 11 10  2  0  0  0  0
 12  8  1  0  0  0  0
 12  2  1  0  0  0  0
 13 25  1  6  0  0  0
 13  9  1  0  0  0  0
 13  7  1  0  0  0  0
 14 15  2  0  0  0  0
 14 16  1  0  0  0  0
 18 19  2  0  0  0  0
 19 17  1  0  0  0  0
 20 21  2  0  0  0  0
 21 18  1  0  0  0  0
 22 21  1  0  0  0  0
 23 24  3  0  0  0  0
 24 22  1  0  0  0  0
 26 25  1  0  0  0  0
M  END
>  <MODEL>
6

>  <REMARK>
 VINA RESULT:      -6.4      2.155      6.952
  Name = 
  6 active torsions:
  status: ('A' for Active; 'I' for Inactive)
    1  A    between atoms: C_1  and  C_8
    2  A    between atoms: N_4  and  C_25
    3  A    between atoms: C_9  and  C_20
    4  A    between atoms: C_11  and  C_23
    5  A    between atoms: C_14  and  C_26
    6  A    between atoms: C_25  and  C_26
                            x       y       z     vdW  Elec       q    Type
                         _______ _______ _______ _____ _____    ______ ____

>  <TORSDO>
F 6

$$$$
=
 OpenBabel11052411143D

 26 29  0  0  1  0  0  0  0  0999 V2000
  161.2480  201.1910  148.4340 C   0  0  0  0  0  3  0  0  0  0  0  0
  160.7620  204.3560  146.2460 C   0  0  2  0  0  3  0  0  0  0  0  0
  162.0850  205.9050  149.5420 C   0  0  1  0  0  3  0  0  0  0  0  0
  161.2310  200.1900  147.4620 C   0  0  0  0  0  3  0  0  0  0  0  0
  161.0610  200.5260  146.1200 C   0  0  0  0  0  3  0  0  0  0  0  0
  161.0870  202.5330  148.0720 C   0  0  0  0  0  0  0  0  0  0  0  0
  160.9610  204.9950  149.4640 C   0  0  2  0  0  0  0  0  0  0  0  0
  160.9220  201.8640  145.7450 C   0  0  0  0  0  3  0  0  0  0  0  0
  161.1200  203.5350  149.0910 N   0  0  0  0  0  0  0  0  0  0  0  0
  161.7400  205.3260  146.8620 C   0  0  0  0  0  3  0  0  0  0  0  0
  161.6840  205.4590  148.1790 C   0  0  0  0  0  0  0  0  0  0  0  0
  160.9550  202.8960  146.6990 C   0  0  0  0  0  0  0  0  0  0  0  0
  161.4000  204.0760  150.4180 C   0  0  2  0  0  3  0  0  0  0  0  0
  160.7330  204.5430  144.7580 C   0  0  0  0  0  0  0  0  0  0  0  0
  159.8280  204.0130  144.0620 O   0  0  0  0  0  0  0  0  0  0  0  0
  161.7210  205.3550  144.1350 N   0  0  0  0  0  1  0  0  0  0  0  0
  161.4930  208.2090  148.5290 C   0  0  0  0  0  1  0  0  0  0  0  0
  161.5900  207.9180  150.9010 N   0  0  0  0  0  0  0  0  0  0  0  0
  161.6750  207.3480  149.7330 C   0  0  0  0  0  0  0  0  0  0  0  0
  162.7970  206.4020  152.2580 C   0  0  0  0  0  2  0  0  0  0  0  0
  161.8020  207.2740  152.1600 C   0  0  0  0  0  0  0  0  0  0  0  0
  160.6540  207.1050  153.1010 C   0  0  0  0  0  2  0  0  0  0  0  0
  161.2550  207.9750  155.5570 C   0  0  0  0  0  3  0  0  0  0  0  0
  160.9860  207.5860  154.4470 C   0  0  0  0  0  0  0  0  0  0  0  0
  160.2670  203.6820  151.3450 C   0  0  0  0  0  2  0  0  0  0  0  0
  160.7500  203.5440  152.6460 O   0  0  0  0  0  1  0  0  0  0  0  0
  2 14  1  6  0  0  0
  2 12  1  0  0  0  0
  2 10  1  0  0  0  0
  3 19  1  6  0  0  0
  4  1  2  0  0  0  0
  5  4  1  0  0  0  0
  6  1  1  0  0  0  0
  6  9  1  0  0  0  0
  7 11  1  1  0  0  0
  7  3  1  0  0  0  0
  7 13  1  0  0  0  0
  8  5  2  0  0  0  0
  8 12  1  0  0  0  0
  9  7  1  0  0  0  0
  9 13  1  0  0  0  0
 10 11  2  0  0  0  0
 11  3  1  0  0  0  0
 12  6  2  0  0  0  0
 13 25  1  1  0  0  0
 15 14  2  0  0  0  0
 16 14  1  0  0  0  0
 17 19  1  0  0  0  0
 18 21  1  0  0  0  0
 19 18  2  0  0  0  0
 21 20  2  0  0  0  0
 21 22  1  0  0  0  0
 22 24  1  0  0  0  0
 24 23  3  0  0  0  0
 25 26  1  0  0  0  0
M  END
>  <MODEL>
7

>  <REMARK>
 VINA RESULT:      -6.4      2.402      3.962
  Name = 
  6 active torsions:
  status: ('A' for Active; 'I' for Inactive)
    1  A    between atoms: C_1  and  C_8
    2  A    between atoms: N_4  and  C_25
    3  A    between atoms: C_9  and  C_20
    4  A    between atoms: C_11  and  C_23
    5  A    between atoms: C_14  and  C_26
    6  A    between atoms: C_25  and  C_26
                            x       y       z     vdW  Elec       q    Type
                         _______ _______ _______ _____ _____    ______ ____

>  <TORSDO>
F 6

$$$$
=
 OpenBabel11052411143D

 26 29  0  0  1  0  0  0  0  0999 V2000
  160.6270  205.9930  153.4880 C   0  0  0  0  0  3  0  0  0  0  0  0
  162.0540  208.1120  150.5710 C   0  0  2  0  0  3  0  0  0  0  0  0
  160.8940  204.9260  148.6990 C   0  0  1  0  0  3  0  0  0  0  0  0
  160.4750  206.9660  154.4760 C   0  0  0  0  0  3  0  0  0  0  0  0
  160.8300  208.2880  154.2100 C   0  0  0  0  0  3  0  0  0  0  0  0
  161.1440  206.3310  152.2320 C   0  0  0  0  0  0  0  0  0  0  0  0
  161.7620  204.9170  149.8590 C   0  0  2  0  0  0  0  0  0  0  0  0
  161.3250  208.6410  152.9530 C   0  0  0  0  0  3  0  0  0  0  0  0
  161.2770  205.3120  151.2400 N   0  0  0  0  0  0  0  0  0  0  0  0
  161.3000  207.5720  149.3820 C   0  0  0  0  0  3  0  0  0  0  0  0
  161.2810  206.2540  149.2490 C   0  0  0  0  0  0  0  0  0  0  0  0
  161.4720  207.6870  151.9320 C   0  0  0  0  0  0  0  0  0  0  0  0
  161.0340  204.0090  150.6280 C   0  0  2  0  0  3  0  0  0  0  0  0
  162.2490  209.5920  150.4180 C   0  0  0  0  0  0  0  0  0  0  0  0
  162.6940  210.2840  151.3710 O   0  0  0  0  0  0  0  0  0  0  0  0
  161.9560  210.2110  149.1710 N   0  0  0  0  0  1  0  0  0  0  0  0
  162.3800  205.8260  146.7830 C   0  0  0  0  0  1  0  0  0  0  0  0
  161.5490  203.5840  146.7200 N   0  0  0  0  0  0  0  0  0  0  0  0
  161.6320  204.6920  147.3990 C   0  0  0  0  0  0  0  0  0  0  0  0
  161.2150  201.7690  148.1990 C   0  0  0  0  0  2  0  0  0  0  0  0
  160.8190  202.4180  147.1120 C   0  0  0  0  0  0  0  0  0  0  0  0
  160.0830  201.6310  146.0790 C   0  0  0  0  0  2  0  0  0  0  0  0
  161.2060  199.2360  145.6790 C   0  0  0  0  0  3  0  0  0  0  0  0
  160.7030  200.3190  145.8580 C   0  0  0  0  0  0  0  0  0  0  0  0
  161.9560  202.9950  151.2770 C   0  0  0  0  0  2  0  0  0  0  0  0
  161.2050  202.0780  152.0100 O   0  0  0  0  0  1  0  0  0  0  0  0
  1  4  1  0  0  0  0
  2 14  1  1  0  0  0
  2 12  1  0  0  0  0
  3 19  1  6  0  0  0
  3 11  1  0  0  0  0
  3  7  1  0  0  0  0
  5  4  2  0  0  0  0
  6  1  2  0  0  0  0
  7 11  1  6  0  0  0
  7 13  1  0  0  0  0
  7  9  1  0  0  0  0
  8  5  1  0  0  0  0
  9  6  1  0  0  0  0
 10  2  1  0  0  0  0
 11 10  2  0  0  0  0
 12  6  1  0  0  0  0
 12  8  2  0  0  0  0
 13  9  1  0  0  0  0
 13 25  1  1  0  0  0
 14 15  2  0  0  0  0
 16 14  1  0  0  0  0
 17 19  1  0  0  0  0
 18 21  1  0  0  0  0
 18 19  2  0  0  0  0
 21 20  2  0  0  0  0
 22 21  1  0  0  0  0
 23 24  3  0  0  0  0
 24 22  1  0  0  0  0
 25 26  1  0  0  0  0
M  END
>  <MODEL>
8

>  <REMARK>
 VINA RESULT:      -6.2      2.089      7.823
  Name = 
  6 active torsions:
  status: ('A' for Active; 'I' for Inactive)
    1  A    between atoms: C_1  and  C_8
    2  A    between atoms: N_4  and  C_25
    3  A    between atoms: C_9  and  C_20
    4  A    between atoms: C_11  and  C_23
    5  A    between atoms: C_14  and  C_26
    6  A    between atoms: C_25  and  C_26
                            x       y       z     vdW  Elec       q    Type
                         _______ _______ _______ _____ _____    ______ ____

>  <TORSDO>
F 6

$$$$
=
 OpenBabel11052411143D

 26 29  0  0  1  0  0  0  0  0999 V2000
  160.4920  209.2070  153.0470 C   0  0  0  0  0  3  0  0  0  0  0  0
  162.0010  209.6870  149.5060 C   0  0  2  0  0  3  0  0  0  0  0  0
  160.8480  205.9920  149.3470 C   0  0  1  0  0  3  0  0  0  0  0  0
  160.3300  210.5330  153.4490 C   0  0  0  0  0  3  0  0  0  0  0  0
  160.7030  211.5690  152.5960 C   0  0  0  0  0  3  0  0  0  0  0  0
  161.0380  208.9080  151.7930 C   0  0  0  0  0  0  0  0  0  0  0  0
  161.6910  206.5360  150.3920 C   0  0  2  0  0  0  0  0  0  0  0  0
  161.2280  211.2840  151.3340 C   0  0  0  0  0  3  0  0  0  0  0  0
  161.1820  207.5400  151.4070 N   0  0  0  0  0  0  0  0  0  0  0  0
  161.2670  208.6450  148.7000 C   0  0  0  0  0  3  0  0  0  0  0  0
  161.2370  207.4220  149.2090 C   0  0  0  0  0  0  0  0  0  0  0  0
  161.3860  209.9590  150.8930 C   0  0  0  0  0  0  0  0  0  0  0  0
  160.9380  206.1030  151.4830 C   0  0  2  0  0  3  0  0  0  0  0  0
  162.2140  210.9160  148.6730 C   0  0  0  0  0  0  0  0  0  0  0  0
  163.3060  211.5410  148.7170 O   0  0  0  0  0  0  0  0  0  0  0  0
  161.1800  211.3580  147.8020 N   0  0  0  0  0  1  0  0  0  0  0  0
  162.3190  205.8720  147.2240 C   0  0  0  0  0  1  0  0  0  0  0  0
  161.5800  203.8680  148.3000 N   0  0  0  0  0  0  0  0  0  0  0  0
  161.6100  205.1690  148.3320 C   0  0  0  0  0  0  0  0  0  0  0  0
  161.3770  202.9320  150.4630 C   0  0  0  0  0  2  0  0  0  0  0  0
  160.8950  203.0260  149.2310 C   0  0  0  0  0  0  0  0  0  0  0  0
  160.0910  201.8740  148.7260 C   0  0  0  0  0  2  0  0  0  0  0  0
  161.6060  200.1430  147.3610 C   0  0  0  0  0  3  0  0  0  0  0  0
  160.9240  200.9220  147.9810 C   0  0  0  0  0  0  0  0  0  0  0  0
  161.8360  205.5200  152.5570 C   0  0  0  0  0  2  0  0  0  0  0  0
  161.3300  205.8370  153.8170 O   0  0  0  0  0  1  0  0  0  0  0  0
  1  4  1  0  0  0  0
  2 14  1  6  0  0  0
  2 12  1  0  0  0  0
  3 19  1  6  0  0  0
  3  7  1  0  0  0  0
  5  4  2  0  0  0  0
  6  1  2  0  0  0  0
  7 11  1  6  0  0  0
  7  9  1  0  0  0  0
  7 13  1  0  0  0  0
  8  5  1  0  0  0  0
  9 13  1  0  0  0  0
  9  6  1  0  0  0  0
 10 11  2  0  0  0  0
 10  2  1  0  0  0  0
 11  3  1  0  0  0  0
 12  8  2  0  0  0  0
 12  6  1  0  0  0  0
 13 25  1  1  0  0  0
 14 15  2  0  0  0  0
 16 14  1  0  0  0  0
 17 19  1  0  0  0  0
 18 19  2  0  0  0  0
 18 21  1  0  0  0  0
 21 20  2  0  0  0  0
 22 21  1  0  0  0  0
 23 24  3  0  0  0  0
 24 22  1  0  0  0  0
 25 26  1  0  0  0  0
M  END
>  <MODEL>
9

>  <REMARK>
 VINA RESULT:      -5.8      2.190      7.576
  Name = 
  6 active torsions:
  status: ('A' for Active; 'I' for Inactive)
    1  A    between atoms: C_1  and  C_8
    2  A    between atoms: N_4  and  C_25
    3  A    between atoms: C_9  and  C_20
    4  A    between atoms: C_11  and  C_23
    5  A    between atoms: C_14  and  C_26
    6  A    between atoms: C_25  and  C_26
                            x       y       z     vdW  Elec       q    Type
                         _______ _______ _______ _____ _____    ______ ____

>  <TORSDO>
F 6

$$$$
