=
 OpenBabel11052410023D

 39 43  0  0  1  0  0  0  0  0999 V2000
  161.3580  211.5740  157.2610 N   0  0  0  0  0  2  0  0  0  0  0  0
  159.9980  211.9160  155.2880 C   0  0  2  0  0  3  0  0  0  0  0  0
  160.2590  213.6220  156.9910 O   0  0  0  0  0  0  0  0  0  0  0  0
  160.4810  210.4630  155.3400 C   0  0  2  0  0  3  0  0  0  0  0  0
  161.5330  210.3800  156.4540 C   0  0  0  0  0  2  0  0  0  0  0  0
  160.5000  212.4590  156.5720 C   0  0  0  0  0  0  0  0  0  0  0  0
  157.8360  212.5250  154.0650 C   0  0  0  0  0  0  0  0  0  0  0  0
  156.1790  212.4480  154.3330 S   0  0  0  0  0  0  0  0  0  0  0  0
  155.2440  211.3780  156.7530 C   0  0  0  0  0  1  0  0  0  0  0  0
  158.4960  212.0010  155.1780 C   0  0  0  0  0  0  0  0  0  0  0  0
  156.3660  211.7390  155.8460 C   0  0  0  0  0  0  0  0  0  0  0  0
  157.6650  211.5650  156.1670 N   0  0  0  0  0  0  0  0  0  0  0  0
  158.9710  213.6610  151.9640 C   0  0  0  0  0  0  0  0  0  0  0  0
  158.4410  213.1590  152.9250 C   0  0  0  0  0  0  0  0  0  0  0  0
  159.6320  214.2410  150.7870 C   0  0  0  0  0  2  0  0  0  0  0  0
  159.9630  213.2930  148.4160 C   0  0  0  0  0  2  0  0  0  0  0  0
  159.2640  212.7350  147.2510 N   0  0  0  0  0  0  0  0  0  0  0  0
  159.0330  213.7210  149.5200 C   0  0  0  0  0  0  0  0  0  0  0  0
  157.8400  212.8200  147.1060 C   0  0  0  0  0  3  0  0  0  0  0  0
  157.0870  213.3060  148.0880 C   0  0  0  0  0  3  0  0  0  0  0  0
  157.7070  213.7560  149.3410 C   0  0  0  0  0  3  0  0  0  0  0  0
  160.0630  212.2440  146.1420 C   0  0  0  0  0  2  0  0  0  0  0  0
  160.5760  213.3960  145.2900 C   0  0  0  0  0  2  0  0  0  0  0  0
  162.8390  213.4930  144.7530 C   0  0  0  0  0  1  0  0  0  0  0  0
  161.5700  212.9140  144.3470 N   0  0  0  0  0  2  0  0  0  0  0  0
  160.8630  207.7730  154.4860 O   0  0  0  0  0  0  0  0  0  0  0  0
  161.0340  210.0600  154.0530 N   0  0  0  0  0  2  0  0  0  0  0  0
  161.1240  208.6870  153.6570 C   0  0  0  0  0  0  0  0  0  0  0  0
  161.4750  208.3430  152.2280 C   0  0  2  0  0  3  0  0  0  0  0  0
  161.2130  209.4870  151.2640 C   0  0  0  0  0  1  0  0  0  0  0  0
  161.7300  205.7930  150.0700 C   0  0  1  0  0  3  0  0  0  0  0  0
  160.5010  203.6270  150.2690 C   0  0  0  0  0  3  0  0  0  0  0  0
  160.6820  203.6270  151.7260 C   0  0  0  0  0  3  0  0  0  0  0  0
  161.8660  205.8120  151.6040 C   0  0  2  0  0  0  0  0  0  0  0  0
  161.3160  204.6220  152.3470 C   0  0  0  0  0  3  0  0  0  0  0  0
  160.9760  204.6120  149.5080 C   0  0  0  0  0  3  0  0  0  0  0  0
  160.9250  207.0150  151.6700 C   0  0  2  0  0  3  0  0  0  0  0  0
  163.1800  206.0900  151.9920 O   0  0  0  0  0  1  0  0  0  0  0  0
  160.8050  207.0010  150.1490 C   0  0  0  0  0  2  0  0  0  0  0  0
  2 10  1  1  0  0  0
  2  4  1  0  0  0  0
  2  6  1  0  0  0  0
  4 27  1  6  0  0  0
  4  5  1  0  0  0  0
  5  1  1  0  0  0  0
  6  3  2  0  0  0  0
  6  1  1  0  0  0  0
  7  8  1  0  0  0  0
  7 10  2  0  0  0  0
  8 11  1  0  0  0  0
 10 12  1  0  0  0  0
 11 12  2  0  0  0  0
 11  9  1  0  0  0  0
 13 14  3  0  0  0  0
 14  7  1  0  0  0  0
 15 13  1  0  0  0  0
 16 18  1  0  0  0  0
 17 16  1  0  0  0  0
 18 15  1  0  0  0  0
 19 17  1  0  0  0  0
 19 20  2  0  0  0  0
 20 21  1  0  0  0  0
 21 18  2  0  0  0  0
 22 17  1  0  0  0  0
 23 22  1  0  0  0  0
 25 24  1  0  0  0  0
 25 23  1  0  0  0  0
 28 27  1  0  0  0  0
 28 26  2  0  0  0  0
 29 30  1  6  0  0  0
 29 28  1  0  0  0  0
 31 36  1  1  0  0  0
 31 39  1  0  0  0  0
 31 34  1  0  0  0  0
 32 33  1  0  0  0  0
 33 35  2  0  0  0  0
 34 37  1  0  0  0  0
 34 38  1  1  0  0  0
 34 35  1  0  0  0  0
 36 32  2  0  0  0  0
 37 29  1  6  0  0  0
 39 37  1  0  0  0  0
M  END
>  <MODEL>
1

>  <REMARK>
 VINA RESULT:      -7.2      0.000      0.000
  Name = 
  10 active torsions:
  status: ('A' for Active; 'I' for Inactive)
    1  A    between atoms: C_2  and  C_34
    2  A    between atoms: C_3  and  C_25
    3  A    between atoms: C_4  and  C_29
    4  A    between atoms: C_4  and  C_30
    5  A    between atoms: C_5  and  C_18
    6  A    between atoms: C_5  and  C_21
    7  A    between atoms: C_8  and  N_14
    8  A    between atoms: N_17  and  C_20
    9  A    between atoms: C_20  and  C_27
   10  A    between atoms: C_27  and  N_33
                            x       y       z     vdW  Elec       q    Type
                         _______ _______ _______ _____ _____    ______ ____

>  <TORSDO>
F 10

$$$$
=
 OpenBabel11052410023D

 39 43  0  0  1  0  0  0  0  0999 V2000
  161.3510  206.8440  154.6570 N   0  0  0  0  0  2  0  0  0  0  0  0
  161.2800  208.8580  153.3160 C   0  0  2  0  0  3  0  0  0  0  0  0
  161.8510  208.8920  155.6720 O   0  0  0  0  0  0  0  0  0  0  0  0
  160.7590  207.6710  152.4980 C   0  0  2  0  0  3  0  0  0  0  0  0
  161.0700  206.4020  153.3030 C   0  0  0  0  0  2  0  0  0  0  0  0
  161.4970  208.2490  154.6490 C   0  0  0  0  0  0  0  0  0  0  0  0
  160.1710  210.9520  152.3550 C   0  0  0  0  0  0  0  0  0  0  0  0
  158.9520  212.0320  152.7740 S   0  0  0  0  0  0  0  0  0  0  0  0
  157.5720  211.6490  155.1870 C   0  0  0  0  0  1  0  0  0  0  0  0
  160.2810  209.9870  153.3570 C   0  0  0  0  0  0  0  0  0  0  0  0
  158.6040  211.2210  154.2070 C   0  0  0  0  0  0  0  0  0  0  0  0
  159.4010  210.1470  154.3870 N   0  0  0  0  0  0  0  0  0  0  0  0
  161.7350  211.2080  150.2390 C   0  0  0  0  0  0  0  0  0  0  0  0
  161.0290  211.1080  151.2120 C   0  0  0  0  0  0  0  0  0  0  0  0
  162.5750  211.3020  149.0370 C   0  0  0  0  0  2  0  0  0  0  0  0
  160.6970  212.1500  147.4940 C   0  0  0  0  0  2  0  0  0  0  0  0
  160.2720  213.2710  146.6460 N   0  0  0  0  0  0  0  0  0  0  0  0
  162.0620  212.3460  148.0990 C   0  0  0  0  0  0  0  0  0  0  0  0
  161.1720  214.3180  146.2600 C   0  0  0  0  0  3  0  0  0  0  0  0
  162.4030  214.3710  146.7600 C   0  0  0  0  0  3  0  0  0  0  0  0
  162.8540  213.3580  147.7230 C   0  0  0  0  0  3  0  0  0  0  0  0
  158.9500  213.2150  146.0460 C   0  0  0  0  0  2  0  0  0  0  0  0
  157.9200  212.7180  147.0500 C   0  0  0  0  0  2  0  0  0  0  0  0
  156.9080  213.2160  149.0870 C   0  0  0  0  0  1  0  0  0  0  0  0
  157.4750  213.8160  147.8920 N   0  0  0  0  0  2  0  0  0  0  0  0
  160.4520  205.5890  150.5800 O   0  0  0  0  0  0  0  0  0  0  0  0
  161.3910  207.6380  151.1850 N   0  0  0  0  0  2  0  0  0  0  0  0
  161.1290  206.5970  150.2380 C   0  0  0  0  0  0  0  0  0  0  0  0
  161.6150  206.7400  148.8150 C   0  0  2  0  0  3  0  0  0  0  0  0
  161.5320  208.1680  148.3040 C   0  0  0  0  0  1  0  0  0  0  0  0
  161.5780  205.5550  145.6810 C   0  0  1  0  0  3  0  0  0  0  0  0
  160.5760  203.3720  144.9940 C   0  0  0  0  0  3  0  0  0  0  0  0
  161.0670  202.7300  146.2190 C   0  0  0  0  0  3  0  0  0  0  0  0
  162.0400  204.8870  146.9900 C   0  0  2  0  0  0  0  0  0  0  0  0
  161.7480  203.4160  147.1380 C   0  0  0  0  0  3  0  0  0  0  0  0
  160.8050  204.6610  144.7430 C   0  0  0  0  0  3  0  0  0  0  0  0
  161.0530  205.7490  147.7760 C   0  0  2  0  0  3  0  0  0  0  0  0
  163.3840  205.1670  147.2540 O   0  0  0  0  0  1  0  0  0  0  0  0
  160.6080  206.4190  146.4790 C   0  0  0  0  0  2  0  0  0  0  0  0
  2 10  1  1  0  0  0
  2  6  1  0  0  0  0
  4 27  1  6  0  0  0
  4  5  1  0  0  0  0
  4  2  1  0  0  0  0
  5  1  1  0  0  0  0
  6  1  1  0  0  0  0
  6  3  2  0  0  0  0
  7  8  1  0  0  0  0
  7 10  2  0  0  0  0
  8 11  1  0  0  0  0
 10 12  1  0  0  0  0
 11 12  2  0  0  0  0
 11  9  1  0  0  0  0
 13 14  3  0  0  0  0
 14  7  1  0  0  0  0
 15 13  1  0  0  0  0
 16 18  1  0  0  0  0
 17 16  1  0  0  0  0
 18 15  1  0  0  0  0
 19 17  1  0  0  0  0
 19 20  2  0  0  0  0
 20 21  1  0  0  0  0
 21 18  2  0  0  0  0
 22 17  1  0  0  0  0
 22 23  1  0  0  0  0
 23 25  1  0  0  0  0
 25 24  1  0  0  0  0
 28 26  2  0  0  0  0
 28 27  1  0  0  0  0
 29 30  1  6  0  0  0
 29 28  1  0  0  0  0
 31 36  1  6  0  0  0
 31 39  1  0  0  0  0
 31 34  1  0  0  0  0
 32 33  1  0  0  0  0
 33 35  2  0  0  0  0
 34 35  1  0  0  0  0
 34 38  1  1  0  0  0
 34 37  1  0  0  0  0
 36 32  2  0  0  0  0
 37 29  1  1  0  0  0
 39 37  1  0  0  0  0
M  END
>  <MODEL>
2

>  <REMARK>
 VINA RESULT:      -7.0      2.559      4.273
  Name = 
  10 active torsions:
  status: ('A' for Active; 'I' for Inactive)
    1  A    between atoms: C_2  and  C_34
    2  A    between atoms: C_3  and  C_25
    3  A    between atoms: C_4  and  C_29
    4  A    between atoms: C_4  and  C_30
    5  A    between atoms: C_5  and  C_18
    6  A    between atoms: C_5  and  C_21
    7  A    between atoms: C_8  and  N_14
    8  A    between atoms: N_17  and  C_20
    9  A    between atoms: C_20  and  C_27
   10  A    between atoms: C_27  and  N_33
                            x       y       z     vdW  Elec       q    Type
                         _______ _______ _______ _____ _____    ______ ____

>  <TORSDO>
F 10

$$$$
=
 OpenBabel11052410023D

 39 43  0  0  1  0  0  0  0  0999 V2000
  163.0950  213.4100  148.0350 N   0  0  0  0  0  2  0  0  0  0  0  0
  161.3850  212.1500  146.8730 C   0  0  2  0  0  3  0  0  0  0  0  0
  162.3130  214.2040  145.9780 O   0  0  0  0  0  0  0  0  0  0  0  0
  161.6230  211.5460  148.2610 C   0  0  2  0  0  3  0  0  0  0  0  0
  162.8800  212.2170  148.8330 C   0  0  0  0  0  2  0  0  0  0  0  0
  162.2560  213.3500  146.9010 C   0  0  0  0  0  0  0  0  0  0  0  0
  159.3190  212.4920  145.4060 C   0  0  0  0  0  0  0  0  0  0  0  0
  157.7110  212.9440  145.5900 S   0  0  0  0  0  0  0  0  0  0  0  0
  156.7580  213.5540  148.1570 C   0  0  0  0  0  1  0  0  0  0  0  0
  159.9340  212.5010  146.6590 C   0  0  0  0  0  0  0  0  0  0  0  0
  157.8570  213.1190  147.2560 C   0  0  0  0  0  0  0  0  0  0  0  0
  159.1080  212.8520  147.6850 N   0  0  0  0  0  0  0  0  0  0  0  0
  160.5220  212.1050  143.0830 C   0  0  0  0  0  0  0  0  0  0  0  0
  159.9560  212.2740  144.1360 C   0  0  0  0  0  0  0  0  0  0  0  0
  161.2430  211.9070  141.8190 C   0  0  0  0  0  2  0  0  0  0  0  0
  160.8280  210.2290  139.9100 C   0  0  0  0  0  2  0  0  0  0  0  0
  159.8270  209.7440  138.9510 N   0  0  0  0  0  0  0  0  0  0  0  0
  160.3360  211.3720  140.7570 C   0  0  0  0  0  0  0  0  0  0  0  0
  158.6060  210.4520  138.7020 C   0  0  0  0  0  3  0  0  0  0  0  0
  158.2830  211.5200  139.4270 C   0  0  0  0  0  3  0  0  0  0  0  0
  159.1730  211.9830  140.4990 C   0  0  0  0  0  3  0  0  0  0  0  0
  160.1740  208.6100  138.1120 C   0  0  0  0  0  2  0  0  0  0  0  0
  161.6830  208.4300  138.0400 C   0  0  0  0  0  2  0  0  0  0  0  0
  162.1220  206.8300  139.6730 C   0  0  0  0  0  1  0  0  0  0  0  0
  162.0290  207.0330  138.2380 N   0  0  0  0  0  2  0  0  0  0  0  0
  161.8810  209.7760  150.4770 O   0  0  0  0  0  0  0  0  0  0  0  0
  161.7860  210.1000  148.1680 N   0  0  0  0  0  2  0  0  0  0  0  0
  161.8300  209.2610  149.3270 C   0  0  0  0  0  0  0  0  0  0  0  0
  161.7550  207.7610  149.1680 C   0  0  2  0  0  3  0  0  0  0  0  0
  161.1130  207.3380  147.8580 C   0  0  0  0  0  1  0  0  0  0  0  0
  161.7330  204.9720  151.0240 C   0  0  1  0  0  3  0  0  0  0  0  0
  160.6690  204.7650  153.2750 C   0  0  0  0  0  3  0  0  0  0  0  0
  161.1140  206.1150  153.6400 C   0  0  0  0  0  3  0  0  0  0  0  0
  162.1480  206.4080  151.3960 C   0  0  2  0  0  0  0  0  0  0  0  0
  161.8020  206.8730  152.7860 C   0  0  0  0  0  3  0  0  0  0  0  0
  160.9470  204.2380  152.0830 C   0  0  0  0  0  3  0  0  0  0  0  0
  161.1770  206.9560  150.3490 C   0  0  2  0  0  3  0  0  0  0  0  0
  163.4960  206.6370  151.1030 O   0  0  0  0  0  1  0  0  0  0  0  0
  160.7800  205.5310  149.9750 C   0  0  0  0  0  2  0  0  0  0  0  0
  1  5  1  0  0  0  0
  2 10  1  1  0  0  0
  2  6  1  0  0  0  0
  2  4  1  0  0  0  0
  3  6  2  0  0  0  0
  4 27  1  6  0  0  0
  4  5  1  0  0  0  0
  6  1  1  0  0  0  0
  7  8  1  0  0  0  0
  7 10  2  0  0  0  0
  8 11  1  0  0  0  0
 10 12  1  0  0  0  0
 11 12  2  0  0  0  0
 11  9  1  0  0  0  0
 13 14  3  0  0  0  0
 14  7  1  0  0  0  0
 15 13  1  0  0  0  0
 16 18  1  0  0  0  0
 17 16  1  0  0  0  0
 18 15  1  0  0  0  0
 19 17  1  0  0  0  0
 19 20  2  0  0  0  0
 20 21  1  0  0  0  0
 21 18  2  0  0  0  0
 22 17  1  0  0  0  0
 23 22  1  0  0  0  0
 23 25  1  0  0  0  0
 25 24  1  0  0  0  0
 27 28  1  0  0  0  0
 28 26  2  0  0  0  0
 29 30  1  6  0  0  0
 29 28  1  0  0  0  0
 31 39  1  6  0  0  0
 31 34  1  0  0  0  0
 31 36  1  0  0  0  0
 32 33  1  0  0  0  0
 34 38  1  6  0  0  0
 34 35  1  0  0  0  0
 35 33  2  0  0  0  0
 36 32  2  0  0  0  0
 37 29  1  6  0  0  0
 37 34  1  0  0  0  0
 39 37  1  0  0  0  0
M  END
>  <MODEL>
3

>  <REMARK>
 VINA RESULT:      -6.9      4.590      7.419
  Name = 
  10 active torsions:
  status: ('A' for Active; 'I' for Inactive)
    1  A    between atoms: C_2  and  C_34
    2  A    between atoms: C_3  and  C_25
    3  A    between atoms: C_4  and  C_29
    4  A    between atoms: C_4  and  C_30
    5  A    between atoms: C_5  and  C_18
    6  A    between atoms: C_5  and  C_21
    7  A    between atoms: C_8  and  N_14
    8  A    between atoms: N_17  and  C_20
    9  A    between atoms: C_20  and  C_27
   10  A    between atoms: C_27  and  N_33
                            x       y       z     vdW  Elec       q    Type
                         _______ _______ _______ _____ _____    ______ ____

>  <TORSDO>
F 10

$$$$
=
 OpenBabel11052410023D

 39 43  0  0  1  0  0  0  0  0999 V2000
  161.4830  206.6510  154.6840 N   0  0  0  0  0  2  0  0  0  0  0  0
  161.3300  208.6900  153.3880 C   0  0  2  0  0  3  0  0  0  0  0  0
  161.9370  208.6910  155.7360 O   0  0  0  0  0  0  0  0  0  0  0  0
  160.8330  207.5060  152.5530 C   0  0  2  0  0  3  0  0  0  0  0  0
  161.1940  206.2300  153.3250 C   0  0  0  0  0  2  0  0  0  0  0  0
  161.5860  208.0600  154.7050 C   0  0  0  0  0  0  0  0  0  0  0  0
  160.1400  210.7670  152.4870 C   0  0  0  0  0  0  0  0  0  0  0  0
  158.8980  211.8010  152.9490 S   0  0  0  0  0  0  0  0  0  0  0  0
  157.5770  211.3330  155.3800 C   0  0  0  0  0  1  0  0  0  0  0  0
  160.2990  209.7870  153.4690 C   0  0  0  0  0  0  0  0  0  0  0  0
  158.6030  210.9540  154.3720 C   0  0  0  0  0  0  0  0  0  0  0  0
  159.4350  209.9020  154.5180 N   0  0  0  0  0  0  0  0  0  0  0  0
  161.6650  211.1030  150.3530 C   0  0  0  0  0  0  0  0  0  0  0  0
  160.9710  210.9690  151.3310 C   0  0  0  0  0  0  0  0  0  0  0  0
  162.5010  211.2310  149.1520 C   0  0  0  0  0  2  0  0  0  0  0  0
  162.7560  212.6150  146.9960 C   0  0  0  0  0  2  0  0  0  0  0  0
  162.0860  213.5870  146.1210 N   0  0  0  0  0  0  0  0  0  0  0  0
  161.9520  212.2630  148.2200 C   0  0  0  0  0  0  0  0  0  0  0  0
  160.9040  214.2890  146.5290 C   0  0  0  0  0  3  0  0  0  0  0  0
  160.3030  213.9930  147.6770 C   0  0  0  0  0  3  0  0  0  0  0  0
  160.8390  212.9330  148.5410 C   0  0  0  0  0  3  0  0  0  0  0  0
  162.7460  213.9660  144.8840 C   0  0  0  0  0  2  0  0  0  0  0  0
  162.4590  212.9530  143.7840 C   0  0  0  0  0  2  0  0  0  0  0  0
  160.9680  212.3790  142.0910 C   0  0  0  0  0  1  0  0  0  0  0  0
  161.5070  213.5040  142.8360 N   0  0  0  0  0  2  0  0  0  0  0  0
  160.5420  205.4650  150.5880 O   0  0  0  0  0  0  0  0  0  0  0  0
  161.4450  207.5190  151.2300 N   0  0  0  0  0  2  0  0  0  0  0  0
  161.1910  206.4970  150.2610 C   0  0  0  0  0  0  0  0  0  0  0  0
  161.6520  206.6860  148.8350 C   0  0  2  0  0  3  0  0  0  0  0  0
  161.5890  208.1350  148.3820 C   0  0  0  0  0  1  0  0  0  0  0  0
  161.4830  205.6680  145.6470 C   0  0  1  0  0  3  0  0  0  0  0  0
  160.4560  203.5210  144.8880 C   0  0  0  0  0  3  0  0  0  0  0  0
  161.0000  202.8170  146.0560 C   0  0  0  0  0  3  0  0  0  0  0  0
  162.0020  204.9330  146.8980 C   0  0  2  0  0  0  0  0  0  0  0  0
  161.7180  203.4560  146.9800 C   0  0  0  0  0  3  0  0  0  0  0  0
  160.6730  204.8210  144.6960 C   0  0  0  0  0  3  0  0  0  0  0  0
  161.0470  205.7490  147.7700 C   0  0  2  0  0  3  0  0  0  0  0  0
  163.3550  205.2040  147.1200 O   0  0  0  0  0  1  0  0  0  0  0  0
  160.5470  206.4850  146.5300 C   0  0  0  0  0  2  0  0  0  0  0  0
  1  6  1  0  0  0  0
  2 10  1  1  0  0  0
  2  6  1  0  0  0  0
  4 27  1  6  0  0  0
  4  5  1  0  0  0  0
  4  2  1  0  0  0  0
  5  1  1  0  0  0  0
  6  3  2  0  0  0  0
  7  8  1  0  0  0  0
  7 10  2  0  0  0  0
  8 11  1  0  0  0  0
 10 12  1  0  0  0  0
 11 12  2  0  0  0  0
 11  9  1  0  0  0  0
 13 14  3  0  0  0  0
 14  7  1  0  0  0  0
 15 13  1  0  0  0  0
 16 18  1  0  0  0  0
 17 19  1  0  0  0  0
 17 16  1  0  0  0  0
 18 21  2  0  0  0  0
 18 15  1  0  0  0  0
 19 20  2  0  0  0  0
 20 21  1  0  0  0  0
 22 17  1  0  0  0  0
 23 22  1  0  0  0  0
 24 25  1  0  0  0  0
 25 23  1  0  0  0  0
 28 26  2  0  0  0  0
 28 27  1  0  0  0  0
 29 30  1  6  0  0  0
 29 28  1  0  0  0  0
 31 36  1  6  0  0  0
 31 39  1  0  0  0  0
 31 34  1  0  0  0  0
 32 33  1  0  0  0  0
 33 35  2  0  0  0  0
 34 35  1  0  0  0  0
 34 38  1  1  0  0  0
 34 37  1  0  0  0  0
 36 32  2  0  0  0  0
 37 29  1  1  0  0  0
 39 37  1  0  0  0  0
M  END
>  <MODEL>
4

>  <REMARK>
 VINA RESULT:      -6.6      2.586      4.040
  Name = 
  10 active torsions:
  status: ('A' for Active; 'I' for Inactive)
    1  A    between atoms: C_2  and  C_34
    2  A    between atoms: C_3  and  C_25
    3  A    between atoms: C_4  and  C_29
    4  A    between atoms: C_4  and  C_30
    5  A    between atoms: C_5  and  C_18
    6  A    between atoms: C_5  and  C_21
    7  A    between atoms: C_8  and  N_14
    8  A    between atoms: N_17  and  C_20
    9  A    between atoms: C_20  and  C_27
   10  A    between atoms: C_27  and  N_33
                            x       y       z     vdW  Elec       q    Type
                         _______ _______ _______ _____ _____    ______ ____

>  <TORSDO>
F 10

$$$$
=
 OpenBabel11052410023D

 39 43  0  0  1  0  0  0  0  0999 V2000
  161.3530  208.8170  155.1470 N   0  0  0  0  0  2  0  0  0  0  0  0
  160.9220  210.1950  153.2040 C   0  0  2  0  0  3  0  0  0  0  0  0
  161.9430  211.0800  155.2180 O   0  0  0  0  0  0  0  0  0  0  0  0
  160.3100  208.8050  153.0010 C   0  0  2  0  0  3  0  0  0  0  0  0
  160.8340  207.9140  154.1360 C   0  0  0  0  0  2  0  0  0  0  0  0
  161.4260  210.1150  154.5960 C   0  0  0  0  0  0  0  0  0  0  0  0
  159.8150  212.0870  151.8870 C   0  0  0  0  0  0  0  0  0  0  0  0
  158.5530  213.1800  152.0820 S   0  0  0  0  0  0  0  0  0  0  0  0
  157.0640  213.1230  154.4600 C   0  0  0  0  0  1  0  0  0  0  0  0
  159.8970  211.2870  153.0290 C   0  0  0  0  0  0  0  0  0  0  0  0
  158.1530  212.5840  153.6030 C   0  0  0  0  0  0  0  0  0  0  0  0
  158.9640  211.5740  153.9810 N   0  0  0  0  0  0  0  0  0  0  0  0
  161.4610  212.0860  149.8180 C   0  0  0  0  0  0  0  0  0  0  0  0
  160.7240  212.0940  150.7740 C   0  0  0  0  0  0  0  0  0  0  0  0
  162.3290  212.0700  148.6330 C   0  0  0  0  0  2  0  0  0  0  0  0
  162.2910  212.9740  146.2230 C   0  0  0  0  0  2  0  0  0  0  0  0
  161.4430  213.1660  145.0390 N   0  0  0  0  0  0  0  0  0  0  0  0
  161.5540  212.3760  147.3910 C   0  0  0  0  0  0  0  0  0  0  0  0
  160.0180  213.0150  145.0910 C   0  0  0  0  0  3  0  0  0  0  0  0
  159.4240  212.5760  146.1960 C   0  0  0  0  0  3  0  0  0  0  0  0
  160.2230  212.2310  147.3790 C   0  0  0  0  0  3  0  0  0  0  0  0
  162.0570  213.6920  143.8330 C   0  0  0  0  0  2  0  0  0  0  0  0
  162.3350  212.5780  142.8340 C   0  0  0  0  0  2  0  0  0  0  0  0
  160.6430  211.5400  141.6170 C   0  0  0  0  0  1  0  0  0  0  0  0
  161.4790  212.7260  141.6700 N   0  0  0  0  0  2  0  0  0  0  0  0
  162.7490  209.3340  151.6300 O   0  0  0  0  0  0  0  0  0  0  0  0
  160.6720  208.2730  151.6930 N   0  0  0  0  0  2  0  0  0  0  0  0
  161.9510  208.5160  151.0970 C   0  0  0  0  0  0  0  0  0  0  0  0
  162.3600  207.7460  149.8640 C   0  0  2  0  0  3  0  0  0  0  0  0
  161.7880  208.3330  148.5850 C   0  0  0  0  0  1  0  0  0  0  0  0
  160.4960  205.0780  150.6630 C   0  0  1  0  0  3  0  0  0  0  0  0
  160.8660  202.7670  149.7900 C   0  0  0  0  0  3  0  0  0  0  0  0
  161.2060  203.2940  148.4620 C   0  0  0  0  0  3  0  0  0  0  0  0
  160.9080  205.6240  149.2820 C   0  0  2  0  0  0  0  0  0  0  0  0
  161.2190  204.6040  148.2180 C   0  0  0  0  0  3  0  0  0  0  0  0
  160.5420  203.5760  150.7980 C   0  0  0  0  0  3  0  0  0  0  0  0
  162.1770  206.2150  149.8980 C   0  0  2  0  0  3  0  0  0  0  0  0
  159.9960  206.5780  148.8220 O   0  0  0  0  0  1  0  0  0  0  0  0
  161.7570  205.6850  151.2660 C   0  0  0  0  0  2  0  0  0  0  0  0
  2 10  1  1  0  0  0
  2  6  1  0  0  0  0
  4 27  1  6  0  0  0
  4  2  1  0  0  0  0
  4  5  1  0  0  0  0
  5  1  1  0  0  0  0
  6  1  1  0  0  0  0
  6  3  2  0  0  0  0
  7  8  1  0  0  0  0
  7 10  2  0  0  0  0
  8 11  1  0  0  0  0
 10 12  1  0  0  0  0
 11 12  2  0  0  0  0
 11  9  1  0  0  0  0
 13 14  3  0  0  0  0
 14  7  1  0  0  0  0
 15 13  1  0  0  0  0
 16 18  1  0  0  0  0
 17 19  1  0  0  0  0
 17 16  1  0  0  0  0
 18 15  1  0  0  0  0
 19 20  2  0  0  0  0
 20 21  1  0  0  0  0
 21 18  2  0  0  0  0
 22 17  1  0  0  0  0
 23 22  1  0  0  0  0
 24 25  1  0  0  0  0
 25 23  1  0  0  0  0
 28 26  2  0  0  0  0
 28 27  1  0  0  0  0
 29 30  1  6  0  0  0
 29 28  1  0  0  0  0
 31 36  1  6  0  0  0
 31 39  1  0  0  0  0
 32 36  2  0  0  0  0
 33 32  1  0  0  0  0
 34 38  1  6  0  0  0
 34 37  1  0  0  0  0
 34 31  1  0  0  0  0
 35 33  2  0  0  0  0
 35 34  1  0  0  0  0
 37 29  1  1  0  0  0
 37 39  1  0  0  0  0
M  END
>  <MODEL>
5

>  <REMARK>
 VINA RESULT:      -6.6      2.152      3.143
  Name = 
  10 active torsions:
  status: ('A' for Active; 'I' for Inactive)
    1  A    between atoms: C_2  and  C_34
    2  A    between atoms: C_3  and  C_25
    3  A    between atoms: C_4  and  C_29
    4  A    between atoms: C_4  and  C_30
    5  A    between atoms: C_5  and  C_18
    6  A    between atoms: C_5  and  C_21
    7  A    between atoms: C_8  and  N_14
    8  A    between atoms: N_17  and  C_20
    9  A    between atoms: C_20  and  C_27
   10  A    between atoms: C_27  and  N_33
                            x       y       z     vdW  Elec       q    Type
                         _______ _______ _______ _____ _____    ______ ____

>  <TORSDO>
F 10

$$$$
=
 OpenBabel11052410023D

 39 43  0  0  1  0  0  0  0  0999 V2000
  163.2400  213.5800  147.3800 N   0  0  0  0  0  2  0  0  0  0  0  0
  161.0920  212.4940  147.1250 C   0  0  2  0  0  3  0  0  0  0  0  0
  161.7370  214.4160  145.7940 O   0  0  0  0  0  0  0  0  0  0  0  0
  161.8380  211.8940  148.3210 C   0  0  2  0  0  3  0  0  0  0  0  0
  163.2740  212.4340  148.2700 C   0  0  0  0  0  2  0  0  0  0  0  0
  161.9980  213.5910  146.7090 C   0  0  0  0  0  0  0  0  0  0  0  0
  158.6900  213.1990  146.6020 C   0  0  0  0  0  0  0  0  0  0  0  0
  157.3420  213.7690  147.4280 S   0  0  0  0  0  0  0  0  0  0  0  0
  157.5090  214.1430  150.2040 C   0  0  0  0  0  1  0  0  0  0  0  0
  159.7260  212.9980  147.5170 C   0  0  0  0  0  0  0  0  0  0  0  0
  158.1230  213.7240  148.9170 C   0  0  0  0  0  0  0  0  0  0  0  0
  159.3980  213.2950  148.8070 N   0  0  0  0  0  0  0  0  0  0  0  0
  158.8300  213.0190  143.9680 C   0  0  0  0  0  0  0  0  0  0  0  0
  158.7700  213.0820  145.1710 C   0  0  0  0  0  0  0  0  0  0  0  0
  158.9020  212.9800  142.5010 C   0  0  0  0  0  2  0  0  0  0  0  0
  160.4090  211.3940  141.1440 C   0  0  0  0  0  2  0  0  0  0  0  0
  161.7880  211.1580  140.6970 N   0  0  0  0  0  0  0  0  0  0  0  0
  160.2710  212.5980  142.0370 C   0  0  0  0  0  0  0  0  0  0  0  0
  162.9020  211.8690  141.2550 C   0  0  0  0  0  3  0  0  0  0  0  0
  162.7070  212.8590  142.1210 C   0  0  0  0  0  3  0  0  0  0  0  0
  161.3440  213.2430  142.5100 C   0  0  0  0  0  3  0  0  0  0  0  0
  162.0360  210.0510  139.7900 C   0  0  0  0  0  2  0  0  0  0  0  0
  160.8750  209.8730  138.8220 C   0  0  0  0  0  2  0  0  0  0  0  0
  161.5810  207.7020  139.2810 C   0  0  0  0  0  1  0  0  0  0  0  0
  160.4560  208.4820  138.7970 N   0  0  0  0  0  2  0  0  0  0  0  0
  162.1870  210.1530  150.5470 O   0  0  0  0  0  0  0  0  0  0  0  0
  161.8130  210.4370  148.2620 N   0  0  0  0  0  2  0  0  0  0  0  0
  161.9160  209.6240  149.4350 C   0  0  0  0  0  0  0  0  0  0  0  0
  161.6410  208.1410  149.3430 C   0  0  2  0  0  3  0  0  0  0  0  0
  162.3410  207.3430  150.4300 C   0  0  0  0  0  1  0  0  0  0  0  0
  162.1730  205.3820  147.5190 C   0  0  1  0  0  3  0  0  0  0  0  0
  161.7870  205.2040  145.0570 C   0  0  0  0  0  3  0  0  0  0  0  0
  160.5740  206.0240  145.1600 C   0  0  0  0  0  3  0  0  0  0  0  0
  160.9310  206.2880  147.6090 C   0  0  2  0  0  0  0  0  0  0  0  0
  160.1680  206.5190  146.3300 C   0  0  0  0  0  3  0  0  0  0  0  0
  162.5210  204.9080  146.1290 C   0  0  0  0  0  3  0  0  0  0  0  0
  161.8260  207.4760  147.9650 C   0  0  2  0  0  3  0  0  0  0  0  0
  160.0810  205.8810  148.6410 O   0  0  0  0  0  1  0  0  0  0  0  0
  163.0520  206.5700  147.8880 C   0  0  0  0  0  2  0  0  0  0  0  0
  1  5  1  0  0  0  0
  2 10  1  1  0  0  0
  2  4  1  0  0  0  0
  3  6  2  0  0  0  0
  4 27  1  6  0  0  0
  5  4  1  0  0  0  0
  6  2  1  0  0  0  0
  6  1  1  0  0  0  0
  7  8  1  0  0  0  0
  7 10  2  0  0  0  0
  8 11  1  0  0  0  0
 10 12  1  0  0  0  0
 11  9  1  0  0  0  0
 12 11  2  0  0  0  0
 13 14  3  0  0  0  0
 14  7  1  0  0  0  0
 15 13  1  0  0  0  0
 16 18  1  0  0  0  0
 17 16  1  0  0  0  0
 17 19  1  0  0  0  0
 18 15  1  0  0  0  0
 18 21  2  0  0  0  0
 19 20  2  0  0  0  0
 20 21  1  0  0  0  0
 22 17  1  0  0  0  0
 23 22  1  0  0  0  0
 25 23  1  0  0  0  0
 25 24  1  0  0  0  0
 27 28  1  0  0  0  0
 28 26  2  0  0  0  0
 29 28  1  0  0  0  0
 29 30  1  1  0  0  0
 31 36  1  6  0  0  0
 31 34  1  0  0  0  0
 31 39  1  0  0  0  0
 32 33  1  0  0  0  0
 32 36  2  0  0  0  0
 33 35  2  0  0  0  0
 34 37  1  0  0  0  0
 34 38  1  1  0  0  0
 35 34  1  0  0  0  0
 37 29  1  1  0  0  0
 39 37  1  0  0  0  0
M  END
>  <MODEL>
6

>  <REMARK>
 VINA RESULT:      -6.5      4.456      7.048
  Name = 
  10 active torsions:
  status: ('A' for Active; 'I' for Inactive)
    1  A    between atoms: C_2  and  C_34
    2  A    between atoms: C_3  and  C_25
    3  A    between atoms: C_4  and  C_29
    4  A    between atoms: C_4  and  C_30
    5  A    between atoms: C_5  and  C_18
    6  A    between atoms: C_5  and  C_21
    7  A    between atoms: C_8  and  N_14
    8  A    between atoms: N_17  and  C_20
    9  A    between atoms: C_20  and  C_27
   10  A    between atoms: C_27  and  N_33
                            x       y       z     vdW  Elec       q    Type
                         _______ _______ _______ _____ _____    ______ ____

>  <TORSDO>
F 10

$$$$
=
 OpenBabel11052410023D

 39 43  0  0  1  0  0  0  0  0999 V2000
  161.6000  204.5310  152.3870 N   0  0  0  0  0  2  0  0  0  0  0  0
  161.0490  206.0230  150.5610 C   0  0  2  0  0  3  0  0  0  0  0  0
  159.9760  203.8670  150.8400 O   0  0  0  0  0  0  0  0  0  0  0  0
  162.2430  206.5800  151.3450 C   0  0  2  0  0  3  0  0  0  0  0  0
  162.3730  205.7380  152.6210 C   0  0  0  0  0  2  0  0  0  0  0  0
  160.8250  204.7150  151.2210 C   0  0  0  0  0  0  0  0  0  0  0  0
  161.7680  206.9430  148.2860 C   0  0  0  0  0  0  0  0  0  0  0  0
  162.0140  206.3740  146.7240 S   0  0  0  0  0  0  0  0  0  0  0  0
  161.5810  203.6540  146.1860 C   0  0  0  0  0  1  0  0  0  0  0  0
  161.3650  205.8780  149.0940 C   0  0  0  0  0  0  0  0  0  0  0  0
  161.6120  204.7940  147.1400 C   0  0  0  0  0  0  0  0  0  0  0  0
  161.2810  204.6830  148.4430 N   0  0  0  0  0  0  0  0  0  0  0  0
  161.9120  209.4820  149.0070 C   0  0  0  0  0  0  0  0  0  0  0  0
  161.8380  208.3290  148.6610 C   0  0  0  0  0  0  0  0  0  0  0  0
  162.0230  210.8770  149.4570 C   0  0  0  0  0  2  0  0  0  0  0  0
  160.5970  212.2210  147.7880 C   0  0  0  0  0  2  0  0  0  0  0  0
  160.6540  213.2080  146.7010 N   0  0  0  0  0  0  0  0  0  0  0  0
  161.9550  211.8240  148.3030 C   0  0  0  0  0  0  0  0  0  0  0  0
  161.8860  213.5600  146.0570 C   0  0  0  0  0  3  0  0  0  0  0  0
  163.0450  213.0880  146.5080 C   0  0  0  0  0  3  0  0  0  0  0  0
  163.0770  212.2030  147.6790 C   0  0  0  0  0  3  0  0  0  0  0  0
  159.4020  213.7020  146.1570 C   0  0  0  0  0  2  0  0  0  0  0  0
  158.6180  212.5790  145.4930 C   0  0  0  0  0  2  0  0  0  0  0  0
  157.1350  213.6700  146.9180 C   0  0  0  0  0  1  0  0  0  0  0  0
  157.2670  212.5330  146.0240 N   0  0  0  0  0  2  0  0  0  0  0  0
  160.4550  207.5870  153.3200 O   0  0  0  0  0  0  0  0  0  0  0  0
  162.0390  207.9900  151.6540 N   0  0  0  0  0  2  0  0  0  0  0  0
  161.1820  208.4220  152.7160 C   0  0  0  0  0  0  0  0  0  0  0  0
  161.1970  209.8700  153.1470 C   0  0  2  0  0  3  0  0  0  0  0  0
  162.5630  210.3280  153.6290 C   0  0  0  0  0  1  0  0  0  0  0  0
  159.9160  212.2160  155.1670 C   0  0  1  0  0  3  0  0  0  0  0  0
  157.5710  212.2310  156.0290 C   0  0  0  0  0  3  0  0  0  0  0  0
  157.0650  211.7450  154.7390 C   0  0  0  0  0  3  0  0  0  0  0  0
  159.3820  211.6530  153.8360 C   0  0  2  0  0  0  0  0  0  0  0  0
  157.8900  211.4850  153.7230 C   0  0  0  0  0  3  0  0  0  0  0  0
  158.8700  212.4470  156.2300 C   0  0  0  0  0  3  0  0  0  0  0  0
  160.0890  210.3270  154.1170 C   0  0  2  0  0  3  0  0  0  0  0  0
  159.8990  212.3580  152.7450 O   0  0  0  0  0  1  0  0  0  0  0  0
  160.6270  210.8940  155.4280 C   0  0  0  0  0  2  0  0  0  0  0  0
  1  5  1  0  0  0  0
  2 10  1  6  0  0  0
  2  6  1  0  0  0  0
  2  4  1  0  0  0  0
  3  6  2  0  0  0  0
  4 27  1  1  0  0  0
  4  5  1  0  0  0  0
  6  1  1  0  0  0  0
  7 14  1  0  0  0  0
  7 10  2  0  0  0  0
  8 11  1  0  0  0  0
  8  7  1  0  0  0  0
  9 11  1  0  0  0  0
 11 12  2  0  0  0  0
 12 10  1  0  0  0  0
 13 15  1  0  0  0  0
 14 13  3  0  0  0  0
 16 18  1  0  0  0  0
 17 16  1  0  0  0  0
 18 15  1  0  0  0  0
 19 20  2  0  0  0  0
 19 17  1  0  0  0  0
 20 21  1  0  0  0  0
 21 18  2  0  0  0  0
 22 17  1  0  0  0  0
 23 25  1  0  0  0  0
 23 22  1  0  0  0  0
 25 24  1  0  0  0  0
 27 28  1  0  0  0  0
 28 29  1  0  0  0  0
 28 26  2  0  0  0  0
 29 30  1  1  0  0  0
 31 39  1  1  0  0  0
 31 36  1  0  0  0  0
 32 36  2  0  0  0  0
 33 32  1  0  0  0  0
 34 38  1  6  0  0  0
 34 37  1  0  0  0  0
 34 31  1  0  0  0  0
 35 34  1  0  0  0  0
 35 33  2  0  0  0  0
 37 29  1  6  0  0  0
 37 39  1  0  0  0  0
M  END
>  <MODEL>
7

>  <REMARK>
 VINA RESULT:      -6.3      3.088      7.351
  Name = 
  10 active torsions:
  status: ('A' for Active; 'I' for Inactive)
    1  A    between atoms: C_2  and  C_34
    2  A    between atoms: C_3  and  C_25
    3  A    between atoms: C_4  and  C_29
    4  A    between atoms: C_4  and  C_30
    5  A    between atoms: C_5  and  C_18
    6  A    between atoms: C_5  and  C_21
    7  A    between atoms: C_8  and  N_14
    8  A    between atoms: N_17  and  C_20
    9  A    between atoms: C_20  and  C_27
   10  A    between atoms: C_27  and  N_33
                            x       y       z     vdW  Elec       q    Type
                         _______ _______ _______ _____ _____    ______ ____

>  <TORSDO>
F 10

$$$$
=
 OpenBabel11052410023D

 39 43  0  0  1  0  0  0  0  0999 V2000
  161.5210  209.1300  156.3050 N   0  0  0  0  0  2  0  0  0  0  0  0
  161.1620  210.3670  154.2550 C   0  0  2  0  0  3  0  0  0  0  0  0
  161.5020  211.4680  156.3890 O   0  0  0  0  0  0  0  0  0  0  0  0
  160.9690  208.8690  153.9980 C   0  0  2  0  0  3  0  0  0  0  0  0
  161.4590  208.1320  155.2520 C   0  0  0  0  0  2  0  0  0  0  0  0
  161.3780  210.4080  155.7210 C   0  0  0  0  0  0  0  0  0  0  0  0
  159.7450  211.6060  152.5240 C   0  0  0  0  0  0  0  0  0  0  0  0
  158.2980  212.4600  152.4660 S   0  0  0  0  0  0  0  0  0  0  0  0
  156.8030  212.7580  154.8220 C   0  0  0  0  0  1  0  0  0  0  0  0
  159.9540  211.1650  153.8320 C   0  0  0  0  0  0  0  0  0  0  0  0
  157.9890  212.2230  154.1020 C   0  0  0  0  0  0  0  0  0  0  0  0
  158.9670  211.5150  154.7050 N   0  0  0  0  0  0  0  0  0  0  0  0
  161.4340  211.4240  150.4980 C   0  0  0  0  0  0  0  0  0  0  0  0
  160.6570  211.4880  151.4190 C   0  0  0  0  0  0  0  0  0  0  0  0
  162.3940  211.3780  149.3860 C   0  0  0  0  0  2  0  0  0  0  0  0
  160.9110  211.7580  147.3160 C   0  0  0  0  0  2  0  0  0  0  0  0
  160.5210  212.7430  146.2990 N   0  0  0  0  0  0  0  0  0  0  0  0
  161.9640  212.2670  148.2640 C   0  0  0  0  0  0  0  0  0  0  0  0
  161.2480  213.9640  146.1030 C   0  0  0  0  0  3  0  0  0  0  0  0
  162.2380  214.3010  146.9240 C   0  0  0  0  0  3  0  0  0  0  0  0
  162.5950  213.4280  148.0500 C   0  0  0  0  0  3  0  0  0  0  0  0
  159.4760  212.3800  145.3580 C   0  0  0  0  0  2  0  0  0  0  0  0
  158.2250  213.2150  145.5880 C   0  0  0  0  0  2  0  0  0  0  0  0
  157.3670  212.7990  147.7120 C   0  0  0  0  0  1  0  0  0  0  0  0
  157.2330  212.4380  146.3110 N   0  0  0  0  0  2  0  0  0  0  0  0
  160.6980  206.3540  152.6900 O   0  0  0  0  0  0  0  0  0  0  0  0
  161.7090  208.4530  152.8120 N   0  0  0  0  0  2  0  0  0  0  0  0
  161.4640  207.2030  152.1590 C   0  0  0  0  0  0  0  0  0  0  0  0
  162.0800  206.9330  150.8070 C   0  0  2  0  0  3  0  0  0  0  0  0
  161.6110  207.9070  149.7390 C   0  0  0  0  0  1  0  0  0  0  0  0
  160.4100  204.0500  150.4520 C   0  0  1  0  0  3  0  0  0  0  0  0
  161.0370  202.2240  148.8680 C   0  0  0  0  0  3  0  0  0  0  0  0
  161.4150  203.2050  147.8430 C   0  0  0  0  0  3  0  0  0  0  0  0
  160.8610  205.0720  149.3920 C   0  0  2  0  0  0  0  0  0  0  0  0
  161.3290  204.5160  148.0730 C   0  0  0  0  0  3  0  0  0  0  0  0
  160.5790  202.6030  150.0600 C   0  0  0  0  0  3  0  0  0  0  0  0
  162.0310  205.4820  150.2880 C   0  0  2  0  0  3  0  0  0  0  0  0
  159.9010  206.0720  149.2110 O   0  0  0  0  0  1  0  0  0  0  0  0
  161.5710  204.4780  151.3420 C   0  0  0  0  0  2  0  0  0  0  0  0
  2 10  1  1  0  0  0
  2  6  1  0  0  0  0
  4 27  1  6  0  0  0
  4  2  1  0  0  0  0
  4  5  1  0  0  0  0
  5  1  1  0  0  0  0
  6  1  1  0  0  0  0
  6  3  2  0  0  0  0
  7 10  2  0  0  0  0
  8  7  1  0  0  0  0
  8 11  1  0  0  0  0
 10 12  1  0  0  0  0
 11 12  2  0  0  0  0
 11  9  1  0  0  0  0
 13 14  3  0  0  0  0
 14  7  1  0  0  0  0
 15 13  1  0  0  0  0
 16 18  1  0  0  0  0
 17 16  1  0  0  0  0
 18 15  1  0  0  0  0
 19 17  1  0  0  0  0
 19 20  2  0  0  0  0
 20 21  1  0  0  0  0
 21 18  2  0  0  0  0
 22 23  1  0  0  0  0
 22 17  1  0  0  0  0
 23 25  1  0  0  0  0
 25 24  1  0  0  0  0
 28 26  2  0  0  0  0
 28 27  1  0  0  0  0
 29 30  1  6  0  0  0
 29 28  1  0  0  0  0
 31 36  1  6  0  0  0
 31 39  1  0  0  0  0
 32 36  2  0  0  0  0
 33 35  2  0  0  0  0
 33 32  1  0  0  0  0
 34 38  1  6  0  0  0
 34 37  1  0  0  0  0
 34 31  1  0  0  0  0
 35 34  1  0  0  0  0
 37 29  1  1  0  0  0
 37 39  1  0  0  0  0
M  END
>  <MODEL>
8

>  <REMARK>
 VINA RESULT:      -6.3      1.867      3.122
  Name = 
  10 active torsions:
  status: ('A' for Active; 'I' for Inactive)
    1  A    between atoms: C_2  and  C_34
    2  A    between atoms: C_3  and  C_25
    3  A    between atoms: C_4  and  C_29
    4  A    between atoms: C_4  and  C_30
    5  A    between atoms: C_5  and  C_18
    6  A    between atoms: C_5  and  C_21
    7  A    between atoms: C_8  and  N_14
    8  A    between atoms: N_17  and  C_20
    9  A    between atoms: C_20  and  C_27
   10  A    between atoms: C_27  and  N_33
                            x       y       z     vdW  Elec       q    Type
                         _______ _______ _______ _____ _____    ______ ____

>  <TORSDO>
F 10

$$$$
=
 OpenBabel11052410023D

 39 43  0  0  1  0  0  0  0  0999 V2000
  161.6810  208.3910  156.6020 N   0  0  0  0  0  2  0  0  0  0  0  0
  161.1680  209.7810  154.6870 C   0  0  2  0  0  3  0  0  0  0  0  0
  161.9370  210.7090  156.7910 O   0  0  0  0  0  0  0  0  0  0  0  0
  160.7720  208.3290  154.3960 C   0  0  2  0  0  3  0  0  0  0  0  0
  161.3530  207.4710  155.5280 C   0  0  0  0  0  2  0  0  0  0  0  0
  161.5990  209.7100  156.1030 C   0  0  0  0  0  0  0  0  0  0  0  0
  159.6950  211.3060  153.2580 C   0  0  0  0  0  0  0  0  0  0  0  0
  158.3490  212.2930  153.4540 S   0  0  0  0  0  0  0  0  0  0  0  0
  157.1800  212.5050  155.9970 C   0  0  0  0  0  1  0  0  0  0  0  0
  160.0090  210.7250  154.4880 C   0  0  0  0  0  0  0  0  0  0  0  0
  158.2110  211.9320  155.0910 C   0  0  0  0  0  0  0  0  0  0  0  0
  159.1740  211.0820  155.5050 N   0  0  0  0  0  0  0  0  0  0  0  0
  161.1180  211.1450  151.0350 C   0  0  0  0  0  0  0  0  0  0  0  0
  160.4540  211.2090  152.0410 C   0  0  0  0  0  0  0  0  0  0  0  0
  161.9570  211.0800  149.8310 C   0  0  0  0  0  2  0  0  0  0  0  0
  162.4320  212.3130  147.6210 C   0  0  0  0  0  2  0  0  0  0  0  0
  161.9310  213.3460  146.7050 N   0  0  0  0  0  0  0  0  0  0  0  0
  161.5850  212.1500  148.8550 C   0  0  0  0  0  0  0  0  0  0  0  0
  160.8840  214.2510  147.0790 C   0  0  0  0  0  3  0  0  0  0  0  0
  160.2450  214.1060  148.2360 C   0  0  0  0  0  3  0  0  0  0  0  0
  160.6000  213.0090  149.1440 C   0  0  0  0  0  3  0  0  0  0  0  0
  162.6410  213.5580  145.4560 C   0  0  0  0  0  2  0  0  0  0  0  0
  161.6660  213.7910  144.3100 C   0  0  0  0  0  2  0  0  0  0  0  0
  160.1720  212.1730  143.5550 C   0  0  0  0  0  1  0  0  0  0  0  0
  161.5610  212.5940  143.4940 N   0  0  0  0  0  2  0  0  0  0  0  0
  160.3630  205.7690  153.2190 O   0  0  0  0  0  0  0  0  0  0  0  0
  161.2790  207.9110  153.0950 N   0  0  0  0  0  2  0  0  0  0  0  0
  160.9680  206.6340  152.5290 C   0  0  0  0  0  0  0  0  0  0  0  0
  161.3140  206.3510  151.0860 C   0  0  2  0  0  3  0  0  0  0  0  0
  161.1240  207.5590  150.1850 C   0  0  0  0  0  1  0  0  0  0  0  0
  161.6240  203.6910  149.0720 C   0  0  1  0  0  3  0  0  0  0  0  0
  160.0780  201.7290  149.0520 C   0  0  0  0  0  3  0  0  0  0  0  0
  159.9610  201.7720  150.5150 C   0  0  0  0  0  3  0  0  0  0  0  0
  161.4510  203.7630  150.6000 C   0  0  2  0  0  0  0  0  0  0  0  0
  160.5960  202.6980  151.2350 C   0  0  0  0  0  3  0  0  0  0  0  0
  160.8350  202.6020  148.3880 C   0  0  0  0  0  3  0  0  0  0  0  0
  160.7000  205.0870  150.4500 C   0  0  2  0  0  3  0  0  0  0  0  0
  162.6860  203.8750  151.2450 O   0  0  0  0  0  1  0  0  0  0  0  0
  160.8870  205.0180  148.9370 C   0  0  0  0  0  2  0  0  0  0  0  0
  2 10  1  1  0  0  0
  2  6  1  0  0  0  0
  4 27  1  6  0  0  0
  4  2  1  0  0  0  0
  4  5  1  0  0  0  0
  5  1  1  0  0  0  0
  6  1  1  0  0  0  0
  6  3  2  0  0  0  0
  7  8  1  0  0  0  0
  7 10  2  0  0  0  0
  8 11  1  0  0  0  0
 10 12  1  0  0  0  0
 11 12  2  0  0  0  0
 11  9  1  0  0  0  0
 13 14  3  0  0  0  0
 14  7  1  0  0  0  0
 15 13  1  0  0  0  0
 16 18  1  0  0  0  0
 17 19  1  0  0  0  0
 17 16  1  0  0  0  0
 18 21  2  0  0  0  0
 18 15  1  0  0  0  0
 19 20  2  0  0  0  0
 20 21  1  0  0  0  0
 22 17  1  0  0  0  0
 23 22  1  0  0  0  0
 25 24  1  0  0  0  0
 25 23  1  0  0  0  0
 28 27  1  0  0  0  0
 28 26  2  0  0  0  0
 29 30  1  6  0  0  0
 29 28  1  0  0  0  0
 31 36  1  6  0  0  0
 31 34  1  0  0  0  0
 32 33  1  0  0  0  0
 33 35  2  0  0  0  0
 34 35  1  0  0  0  0
 34 38  1  1  0  0  0
 36 32  2  0  0  0  0
 37 34  1  0  0  0  0
 37 29  1  1  0  0  0
 39 31  1  0  0  0  0
 39 37  1  0  0  0  0
M  END
>  <MODEL>
9

>  <REMARK>
 VINA RESULT:      -6.2      1.947      2.635
  Name = 
  10 active torsions:
  status: ('A' for Active; 'I' for Inactive)
    1  A    between atoms: C_2  and  C_34
    2  A    between atoms: C_3  and  C_25
    3  A    between atoms: C_4  and  C_29
    4  A    between atoms: C_4  and  C_30
    5  A    between atoms: C_5  and  C_18
    6  A    between atoms: C_5  and  C_21
    7  A    between atoms: C_8  and  N_14
    8  A    between atoms: N_17  and  C_20
    9  A    between atoms: C_20  and  C_27
   10  A    between atoms: C_27  and  N_33
                            x       y       z     vdW  Elec       q    Type
                         _______ _______ _______ _____ _____    ______ ____

>  <TORSDO>
F 10

$$$$
