=
 OpenBabel11052410493D

 28 29  0  0  1  0  0  0  0  0999 V2000
  161.2240  204.6130  152.8710 C   0  0  0  0  0  3  0  0  0  0  0  0
  161.1560  206.6150  150.9030 C   0  0  0  0  0  0  0  0  0  0  0  0
  161.4570  206.9580  152.2440 C   0  0  0  0  0  0  0  0  0  0  0  0
  160.9360  204.2730  151.5490 C   0  0  0  0  0  0  0  0  0  0  0  0
  161.4840  205.9410  153.2120 C   0  0  0  0  0  3  0  0  0  0  0  0
  160.9070  205.2790  150.5730 C   0  0  0  0  0  3  0  0  0  0  0  0
  160.6780  202.9020  151.2260 N   0  0  0  0  0  0  0  0  0  0  0  0
  160.4930  200.9900  149.7710 C   0  0  0  0  0  1  0  0  0  0  0  0
  160.7770  202.4260  150.0270 C   0  0  0  0  0  3  0  0  0  0  0  0
  161.1060  207.5810  149.8410 N   0  0  0  0  0  2  0  0  0  0  0  0
  161.9820  209.5380  148.6970 C   0  0  0  0  0  1  0  0  0  0  0  0
  162.2500  208.1000  149.1050 C   0  0  2  0  0  3  0  0  0  0  0  0
  162.4770  207.2460  147.8710 C   0  0  0  0  0  2  0  0  0  0  0  0
  161.1550  206.6750  147.3710 C   0  0  0  0  0  2  0  0  0  0  0  0
  160.2020  206.2480  145.2010 O   0  0  0  0  0  1  0  0  0  0  0  0
  161.3010  205.9800  146.0210 C   0  0  2  0  0  3  0  0  0  0  0  0
  161.0650  203.6310  145.1840 O   0  0  0  0  0  0  0  0  0  0  0  0
  162.0330  204.0530  147.2170 O   0  0  0  0  0  1  0  0  0  0  0  0
  161.4990  204.5060  146.1720 C   0  0  0  0  0  0  0  0  0  0  0  0
  161.7530  208.2910  152.5760 O   0  0  0  0  0  0  0  0  0  0  0  0
  160.7530  209.2200  154.5710 N   0  0  0  0  0  0  0  0  0  0  0  0
  159.1960  211.0280  154.4380 C   0  0  0  0  0  0  0  0  0  0  0  0
  159.3360  211.0310  153.0490 C   0  0  0  0  0  3  0  0  0  0  0  0
  160.1920  210.1180  152.4350 C   0  0  0  0  0  3  0  0  0  0  0  0
  158.3440  211.9390  155.0490 O   0  0  0  0  0  1  0  0  0  0  0  0
  160.9070  209.2080  153.2170 C   0  0  0  0  0  0  0  0  0  0  0  0
  159.8030  210.0620  156.6790 C   0  0  0  0  0  1  0  0  0  0  0  0
  159.9240  210.1000  155.1960 C   0  0  0  0  0  0  0  0  0  0  0  0
  1  5  1  0  0  0  0
  2  3  1  0  0  0  0
  3 20  1  0  0  0  0
  3  5  2  0  0  0  0
  4  1  2  0  0  0  0
  6  2  2  0  0  0  0
  6  4  1  0  0  0  0
  7  4  1  0  0  0  0
  8  9  1  0  0  0  0
  9  7  2  0  0  0  0
 10  2  1  0  0  0  0
 12 11  1  6  0  0  0
 12 10  1  0  0  0  0
 13 12  1  0  0  0  0
 14 13  1  0  0  0  0
 16 15  1  6  0  0  0
 16 19  1  0  0  0  0
 16 14  1  0  0  0  0
 17 19  2  0  0  0  0
 19 18  1  0  0  0  0
 20 26  1  0  0  0  0
 21 28  1  0  0  0  0
 22 25  1  0  0  0  0
 22 28  2  0  0  0  0
 23 22  1  0  0  0  0
 24 23  2  0  0  0  0
 24 26  1  0  0  0  0
 26 21  2  0  0  0  0
 28 27  1  0  0  0  0
M  END
>  <MODEL>
1

>  <REMARK>
 VINA RESULT:      -7.8      0.000      0.000
  Name = 
  9 active torsions:
  status: ('A' for Active; 'I' for Inactive)
    1  A    between atoms: C_6  and  N_10
    2  A    between atoms: C_8  and  C_12
    3  A    between atoms: C_8  and  C_27
    4  A    between atoms: N_9  and  C_23
    5  A    between atoms: N_10  and  C_21
    6  A    between atoms: C_12  and  C_14
    7  A    between atoms: C_14  and  C_21
    8  A    between atoms: C_15  and  O_17
    9  A    between atoms: C_16  and  O_17
                            x       y       z     vdW  Elec       q    Type
                         _______ _______ _______ _____ _____    ______ ____

>  <TORSDO>
F 9

$$$$
=
 OpenBabel11052410493D

 28 29  0  0  1  0  0  0  0  0999 V2000
  161.4250  209.6440  151.9560 C   0  0  0  0  0  3  0  0  0  0  0  0
  161.8180  206.9110  151.4480 C   0  0  0  0  0  0  0  0  0  0  0  0
  162.2360  207.8700  150.4940 C   0  0  0  0  0  0  0  0  0  0  0  0
  161.0200  208.7020  152.9010 C   0  0  0  0  0  0  0  0  0  0  0  0
  162.0300  209.2320  150.7680 C   0  0  0  0  0  3  0  0  0  0  0  0
  161.2220  207.3390  152.6390 C   0  0  0  0  0  3  0  0  0  0  0  0
  160.4080  209.1530  154.1140 N   0  0  0  0  0  0  0  0  0  0  0  0
  160.1270  209.3080  156.5030 C   0  0  0  0  0  1  0  0  0  0  0  0
  160.8160  208.7960  155.2890 C   0  0  0  0  0  3  0  0  0  0  0  0
  161.9870  205.4970  151.2620 N   0  0  0  0  0  2  0  0  0  0  0  0
  161.4260  203.1990  151.8210 C   0  0  0  0  0  1  0  0  0  0  0  0
  160.9210  204.5070  151.2340 C   0  0  2  0  0  3  0  0  0  0  0  0
  160.4760  204.2920  149.7990 C   0  0  0  0  0  2  0  0  0  0  0  0
  161.2030  203.0980  149.1930 C   0  0  0  0  0  2  0  0  0  0  0  0
  159.6130  201.3060  149.4330 O   0  0  0  0  0  1  0  0  0  0  0  0
  160.2480  202.1300  148.5020 C   0  0  2  0  0  3  0  0  0  0  0  0
  160.9040  201.6940  146.1240 O   0  0  0  0  0  0  0  0  0  0  0  0
  161.5340  200.2540  147.7900 O   0  0  0  0  0  1  0  0  0  0  0  0
  160.9410  201.3130  147.4590 C   0  0  0  0  0  0  0  0  0  0  0  0
  162.8760  207.4520  149.3150 O   0  0  0  0  0  0  0  0  0  0  0  0
  162.9460  205.9230  147.4440 N   0  0  0  0  0  0  0  0  0  0  0  0
  161.0640  205.6660  145.9950 C   0  0  0  0  0  0  0  0  0  0  0  0
  160.3640  206.6040  146.7560 C   0  0  0  0  0  3  0  0  0  0  0  0
  160.9720  207.1930  147.8640 C   0  0  0  0  0  3  0  0  0  0  0  0
  160.4550  205.0790  144.8920 O   0  0  0  0  0  1  0  0  0  0  0  0
  162.2800  206.8370  148.2040 C   0  0  0  0  0  0  0  0  0  0  0  0
  163.1570  204.3400  145.5720 C   0  0  0  0  0  1  0  0  0  0  0  0
  162.3750  205.3330  146.3590 C   0  0  0  0  0  0  0  0  0  0  0  0
  1  4  1  0  0  0  0
  2  6  1  0  0  0  0
  3  5  1  0  0  0  0
  3  2  2  0  0  0  0
  4  7  1  0  0  0  0
  5  1  2  0  0  0  0
  6  4  2  0  0  0  0
  7  9  2  0  0  0  0
  9  8  1  0  0  0  0
 10  2  1  0  0  0  0
 12 10  1  0  0  0  0
 12 11  1  6  0  0  0
 13 12  1  0  0  0  0
 14 13  1  0  0  0  0
 16 14  1  0  0  0  0
 16 15  1  1  0  0  0
 17 19  2  0  0  0  0
 19 18  1  0  0  0  0
 19 16  1  0  0  0  0
 20  3  1  0  0  0  0
 21 26  2  0  0  0  0
 22 28  2  0  0  0  0
 22 23  1  0  0  0  0
 23 24  2  0  0  0  0
 24 26  1  0  0  0  0
 25 22  1  0  0  0  0
 26 20  1  0  0  0  0
 27 28  1  0  0  0  0
 28 21  1  0  0  0  0
M  END
>  <MODEL>
2

>  <REMARK>
 VINA RESULT:      -7.7      2.359      6.680
  Name = 
  9 active torsions:
  status: ('A' for Active; 'I' for Inactive)
    1  A    between atoms: C_6  and  N_10
    2  A    between atoms: C_8  and  C_12
    3  A    between atoms: C_8  and  C_27
    4  A    between atoms: N_9  and  C_23
    5  A    between atoms: N_10  and  C_21
    6  A    between atoms: C_12  and  C_14
    7  A    between atoms: C_14  and  C_21
    8  A    between atoms: C_15  and  O_17
    9  A    between atoms: C_16  and  O_17
                            x       y       z     vdW  Elec       q    Type
                         _______ _______ _______ _____ _____    ______ ____

>  <TORSDO>
F 9

$$$$
=
 OpenBabel11052410493D

 28 29  0  0  1  0  0  0  0  0999 V2000
  161.0960  203.5330  151.8640 C   0  0  0  0  0  3  0  0  0  0  0  0
  161.0640  206.2160  151.0380 C   0  0  0  0  0  0  0  0  0  0  0  0
  161.5120  205.8870  152.3410 C   0  0  0  0  0  0  0  0  0  0  0  0
  160.6630  203.8540  150.5780 C   0  0  0  0  0  0  0  0  0  0  0  0
  161.5190  204.5380  152.7340 C   0  0  0  0  0  3  0  0  0  0  0  0
  160.6520  205.1960  150.1740 C   0  0  0  0  0  3  0  0  0  0  0  0
  160.2390  202.8000  149.7050 N   0  0  0  0  0  0  0  0  0  0  0  0
  160.4550  201.2560  147.8680 C   0  0  0  0  0  1  0  0  0  0  0  0
  160.9650  202.3530  148.7320 C   0  0  0  0  0  3  0  0  0  0  0  0
  161.0210  207.5630  150.5430 N   0  0  0  0  0  2  0  0  0  0  0  0
  162.1500  209.7070  150.3570 C   0  0  0  0  0  1  0  0  0  0  0  0
  162.1120  208.2650  149.8830 C   0  0  2  0  0  3  0  0  0  0  0  0
  161.8990  208.2190  148.3820 C   0  0  0  0  0  2  0  0  0  0  0  0
  162.5090  206.9500  147.7980 C   0  0  0  0  0  2  0  0  0  0  0  0
  160.3330  206.3520  146.9570 O   0  0  0  0  0  1  0  0  0  0  0  0
  161.6910  206.3980  146.6350 C   0  0  2  0  0  3  0  0  0  0  0  0
  163.5370  204.7780  146.1430 O   0  0  0  0  0  1  0  0  0  0  0  0
  161.3460  204.1710  145.8590 O   0  0  0  0  0  0  0  0  0  0  0  0
  162.1760  205.0520  146.2020 C   0  0  0  0  0  0  0  0  0  0  0  0
  161.9700  206.9000  153.2010 O   0  0  0  0  0  0  0  0  0  0  0  0
  161.0540  209.0920  153.6450 N   0  0  0  0  0  0  0  0  0  0  0  0
  159.6420  209.4750  155.5340 C   0  0  0  0  0  0  0  0  0  0  0  0
  159.7660  208.1300  155.8850 C   0  0  0  0  0  3  0  0  0  0  0  0
  160.5410  207.2760  155.1020 C   0  0  0  0  0  3  0  0  0  0  0  0
  158.8680  210.3250  156.3150 O   0  0  0  0  0  1  0  0  0  0  0  0
  161.1860  207.7750  153.9670 C   0  0  0  0  0  0  0  0  0  0  0  0
  160.1990  211.3750  153.9840 C   0  0  0  0  0  1  0  0  0  0  0  0
  160.3040  209.9470  154.3920 C   0  0  0  0  0  0  0  0  0  0  0  0
  1  5  1  0  0  0  0
  2  3  1  0  0  0  0
  3  5  2  0  0  0  0
  3 20  1  0  0  0  0
  4  1  2  0  0  0  0
  6  4  1  0  0  0  0
  6  2  2  0  0  0  0
  7  4  1  0  0  0  0
  8  9  1  0  0  0  0
  9  7  2  0  0  0  0
 10  2  1  0  0  0  0
 12 11  1  1  0  0  0
 12 10  1  0  0  0  0
 13 12  1  0  0  0  0
 14 13  1  0  0  0  0
 16 15  1  1  0  0  0
 16 14  1  0  0  0  0
 17 19  1  0  0  0  0
 18 19  2  0  0  0  0
 19 16  1  0  0  0  0
 20 26  1  0  0  0  0
 21 26  2  0  0  0  0
 21 28  1  0  0  0  0
 22 23  1  0  0  0  0
 22 25  1  0  0  0  0
 24 23  2  0  0  0  0
 26 24  1  0  0  0  0
 27 28  1  0  0  0  0
 28 22  2  0  0  0  0
M  END
>  <MODEL>
3

>  <REMARK>
 VINA RESULT:      -7.6      1.323      1.834
  Name = 
  9 active torsions:
  status: ('A' for Active; 'I' for Inactive)
    1  A    between atoms: C_6  and  N_10
    2  A    between atoms: C_8  and  C_12
    3  A    between atoms: C_8  and  C_27
    4  A    between atoms: N_9  and  C_23
    5  A    between atoms: N_10  and  C_21
    6  A    between atoms: C_12  and  C_14
    7  A    between atoms: C_14  and  C_21
    8  A    between atoms: C_15  and  O_17
    9  A    between atoms: C_16  and  O_17
                            x       y       z     vdW  Elec       q    Type
                         _______ _______ _______ _____ _____    ______ ____

>  <TORSDO>
F 9

$$$$
=
 OpenBabel11052410493D

 28 29  0  0  1  0  0  0  0  0999 V2000
  161.2880  204.6290  152.9480 C   0  0  0  0  0  3  0  0  0  0  0  0
  161.1840  206.6480  151.0000 C   0  0  0  0  0  0  0  0  0  0  0  0
  161.4490  206.9870  152.3490 C   0  0  0  0  0  0  0  0  0  0  0  0
  161.0360  204.2930  151.6180 C   0  0  0  0  0  0  0  0  0  0  0  0
  161.4950  205.9610  153.3080 C   0  0  0  0  0  3  0  0  0  0  0  0
  160.9880  205.3080  150.6520 C   0  0  0  0  0  3  0  0  0  0  0  0
  160.8320  202.9170  151.2770 N   0  0  0  0  0  0  0  0  0  0  0  0
  160.5720  201.0450  149.7820 C   0  0  0  0  0  1  0  0  0  0  0  0
  160.7880  202.4890  150.0560 C   0  0  0  0  0  3  0  0  0  0  0  0
  161.1190  207.6230  149.9470 N   0  0  0  0  0  2  0  0  0  0  0  0
  162.0210  209.6380  148.9310 C   0  0  0  0  0  1  0  0  0  0  0  0
  162.2540  208.1640  149.2130 C   0  0  2  0  0  3  0  0  0  0  0  0
  162.4100  207.4050  147.9080 C   0  0  0  0  0  2  0  0  0  0  0  0
  161.0790  206.7930  147.4880 C   0  0  0  0  0  2  0  0  0  0  0  0
  162.5690  204.9660  146.9980 O   0  0  0  0  0  1  0  0  0  0  0  0
  161.2480  205.4040  146.8820 C   0  0  2  0  0  3  0  0  0  0  0  0
  160.9410  204.1970  144.7080 O   0  0  0  0  0  0  0  0  0  0  0  0
  160.3240  206.3940  144.9200 O   0  0  0  0  0  1  0  0  0  0  0  0
  160.8010  205.3600  145.4560 C   0  0  0  0  0  0  0  0  0  0  0  0
  161.6920  208.3260  152.7010 O   0  0  0  0  0  0  0  0  0  0  0  0
  160.1600  210.1920  152.5900 N   0  0  0  0  0  0  0  0  0  0  0  0
  159.0350  210.9770  154.5460 C   0  0  0  0  0  0  0  0  0  0  0  0
  159.6740  209.9880  155.2970 C   0  0  0  0  0  3  0  0  0  0  0  0
  160.5560  209.1050  154.6750 C   0  0  0  0  0  3  0  0  0  0  0  0
  158.1550  211.8550  155.1670 O   0  0  0  0  0  1  0  0  0  0  0  0
  160.7910  209.2170  153.3020 C   0  0  0  0  0  0  0  0  0  0  0  0
  158.6360  212.1070  152.3360 C   0  0  0  0  0  1  0  0  0  0  0  0
  159.2950  211.0660  153.1720 C   0  0  0  0  0  0  0  0  0  0  0  0
  1  5  1  0  0  0  0
  2  3  1  0  0  0  0
  3 20  1  0  0  0  0
  3  5  2  0  0  0  0
  4  1  2  0  0  0  0
  6  2  2  0  0  0  0
  6  4  1  0  0  0  0
  7  4  1  0  0  0  0
  8  9  1  0  0  0  0
  9  7  2  0  0  0  0
 10  2  1  0  0  0  0
 12 11  1  6  0  0  0
 12 10  1  0  0  0  0
 13 12  1  0  0  0  0
 14 13  1  0  0  0  0
 16 15  1  6  0  0  0
 16 14  1  0  0  0  0
 17 19  2  0  0  0  0
 18 19  1  0  0  0  0
 19 16  1  0  0  0  0
 20 26  1  0  0  0  0
 21 28  1  0  0  0  0
 21 26  2  0  0  0  0
 22 25  1  0  0  0  0
 22 23  1  0  0  0  0
 24 23  2  0  0  0  0
 26 24  1  0  0  0  0
 27 28  1  0  0  0  0
 28 22  2  0  0  0  0
M  END
>  <MODEL>
4

>  <REMARK>
 VINA RESULT:      -7.6      0.701      1.641
  Name = 
  9 active torsions:
  status: ('A' for Active; 'I' for Inactive)
    1  A    between atoms: C_6  and  N_10
    2  A    between atoms: C_8  and  C_12
    3  A    between atoms: C_8  and  C_27
    4  A    between atoms: N_9  and  C_23
    5  A    between atoms: N_10  and  C_21
    6  A    between atoms: C_12  and  C_14
    7  A    between atoms: C_14  and  C_21
    8  A    between atoms: C_15  and  O_17
    9  A    between atoms: C_16  and  O_17
                            x       y       z     vdW  Elec       q    Type
                         _______ _______ _______ _____ _____    ______ ____

>  <TORSDO>
F 9

$$$$
=
 OpenBabel11052410493D

 28 29  0  0  1  0  0  0  0  0999 V2000
  161.8620  209.0390  148.4290 C   0  0  0  0  0  3  0  0  0  0  0  0
  162.0960  207.7180  150.8950 C   0  0  0  0  0  0  0  0  0  0  0  0
  162.2410  209.1260  150.8360 C   0  0  0  0  0  0  0  0  0  0  0  0
  161.7100  207.6540  148.4870 C   0  0  0  0  0  0  0  0  0  0  0  0
  162.1200  209.7670  149.5910 C   0  0  0  0  0  3  0  0  0  0  0  0
  161.8270  207.0030  149.7240 C   0  0  0  0  0  3  0  0  0  0  0  0
  161.4400  206.9340  147.2790 N   0  0  0  0  0  0  0  0  0  0  0  0
  161.8410  205.2710  145.5820 C   0  0  0  0  0  1  0  0  0  0  0  0
  162.1880  205.9710  146.8460 C   0  0  0  0  0  3  0  0  0  0  0  0
  162.1990  206.9730  152.1190 N   0  0  0  0  0  2  0  0  0  0  0  0
  161.1450  206.8170  154.3030 C   0  0  0  0  0  1  0  0  0  0  0  0
  161.0910  206.3760  152.8500 C   0  0  2  0  0  3  0  0  0  0  0  0
  161.1930  204.8650  152.7640 C   0  0  0  0  0  2  0  0  0  0  0  0
  160.4990  204.3580  151.5040 C   0  0  0  0  0  2  0  0  0  0  0  0
  162.0360  202.5180  151.7290 O   0  0  0  0  0  1  0  0  0  0  0  0
  160.7770  202.8800  151.2470 C   0  0  2  0  0  3  0  0  0  0  0  0
  160.0630  201.3330  149.4110 O   0  0  0  0  0  1  0  0  0  0  0  0
  161.0970  203.3190  148.9260 O   0  0  0  0  0  0  0  0  0  0  0  0
  160.6460  202.5330  149.7990 C   0  0  0  0  0  0  0  0  0  0  0  0
  162.4660  209.8580  152.0140 O   0  0  0  0  0  0  0  0  0  0  0  0
  161.8030  210.5250  154.2410 N   0  0  0  0  0  0  0  0  0  0  0  0
  159.5440  211.1340  154.7210 C   0  0  0  0  0  0  0  0  0  0  0  0
  159.2090  210.9000  153.3870 C   0  0  0  0  0  3  0  0  0  0  0  0
  160.1880  210.4780  152.4880 C   0  0  0  0  0  3  0  0  0  0  0  0
  158.5670  211.5560  155.6150 O   0  0  0  0  0  1  0  0  0  0  0  0
  161.5000  210.2950  152.9330 C   0  0  0  0  0  0  0  0  0  0  0  0
  161.2650  211.1730  156.5530 C   0  0  0  0  0  1  0  0  0  0  0  0
  160.8670  210.9380  155.1380 C   0  0  0  0  0  0  0  0  0  0  0  0
  1  4  2  0  0  0  0
  1  5  1  0  0  0  0
  2 10  1  0  0  0  0
  3  2  1  0  0  0  0
  3 20  1  0  0  0  0
  4  6  1  0  0  0  0
  5  3  2  0  0  0  0
  6  2  2  0  0  0  0
  7  4  1  0  0  0  0
  8  9  1  0  0  0  0
  9  7  2  0  0  0  0
 10 12  1  0  0  0  0
 12 11  1  1  0  0  0
 13 12  1  0  0  0  0
 14 13  1  0  0  0  0
 16 14  1  0  0  0  0
 16 15  1  6  0  0  0
 17 19  1  0  0  0  0
 18 19  2  0  0  0  0
 19 16  1  0  0  0  0
 20 26  1  0  0  0  0
 21 28  1  0  0  0  0
 22 28  2  0  0  0  0
 22 25  1  0  0  0  0
 23 22  1  0  0  0  0
 24 26  1  0  0  0  0
 24 23  2  0  0  0  0
 26 21  2  0  0  0  0
 28 27  1  0  0  0  0
M  END
>  <MODEL>
5

>  <REMARK>
 VINA RESULT:      -7.3      1.851      4.114
  Name = 
  9 active torsions:
  status: ('A' for Active; 'I' for Inactive)
    1  A    between atoms: C_6  and  N_10
    2  A    between atoms: C_8  and  C_12
    3  A    between atoms: C_8  and  C_27
    4  A    between atoms: N_9  and  C_23
    5  A    between atoms: N_10  and  C_21
    6  A    between atoms: C_12  and  C_14
    7  A    between atoms: C_14  and  C_21
    8  A    between atoms: C_15  and  O_17
    9  A    between atoms: C_16  and  O_17
                            x       y       z     vdW  Elec       q    Type
                         _______ _______ _______ _____ _____    ______ ____

>  <TORSDO>
F 9

$$$$
=
 OpenBabel11052410493D

 28 29  0  0  1  0  0  0  0  0999 V2000
  161.0470  207.1000  154.8260 C   0  0  0  0  0  3  0  0  0  0  0  0
  161.1160  207.8930  152.1340 C   0  0  0  0  0  0  0  0  0  0  0  0
  161.6590  206.6400  152.5120 C   0  0  0  0  0  0  0  0  0  0  0  0
  160.5040  208.3300  154.4550 C   0  0  0  0  0  0  0  0  0  0  0  0
  161.6140  206.2640  153.8640 C   0  0  0  0  0  3  0  0  0  0  0  0
  160.5410  208.7160  153.1070 C   0  0  0  0  0  3  0  0  0  0  0  0
  159.9230  209.1650  155.4620 N   0  0  0  0  0  0  0  0  0  0  0  0
  158.9560  211.1900  156.3410 C   0  0  0  0  0  1  0  0  0  0  0  0
  159.5510  210.3850  155.2430 C   0  0  0  0  0  3  0  0  0  0  0  0
  161.1120  208.3660  150.7780 N   0  0  0  0  0  2  0  0  0  0  0  0
  161.9850  210.6050  150.4140 C   0  0  0  0  0  1  0  0  0  0  0  0
  162.1760  209.1240  150.1350 C   0  0  2  0  0  3  0  0  0  0  0  0
  162.1360  208.8690  148.6400 C   0  0  0  0  0  2  0  0  0  0  0  0
  162.2860  207.3800  148.3520 C   0  0  0  0  0  2  0  0  0  0  0  0
  160.1460  206.3770  147.8890 O   0  0  0  0  0  1  0  0  0  0  0  0
  161.3000  206.8940  147.2950 C   0  0  2  0  0  3  0  0  0  0  0  0
  161.2750  205.5160  145.2030 O   0  0  0  0  0  0  0  0  0  0  0  0
  163.0110  205.3480  146.6900 O   0  0  0  0  0  1  0  0  0  0  0  0
  161.9170  205.8870  146.3780 C   0  0  0  0  0  0  0  0  0  0  0  0
  162.1980  205.7860  151.5340 O   0  0  0  0  0  0  0  0  0  0  0  0
  161.5540  204.2470  149.7850 N   0  0  0  0  0  0  0  0  0  0  0  0
  160.6000  202.1200  150.3080 C   0  0  0  0  0  0  0  0  0  0  0  0
  160.7090  202.4180  151.6670 C   0  0  0  0  0  3  0  0  0  0  0  0
  161.2450  203.6410  152.0700 C   0  0  0  0  0  3  0  0  0  0  0  0
  160.0670  200.9010  149.9080 O   0  0  0  0  0  1  0  0  0  0  0  0
  161.6730  204.5580  151.1060 C   0  0  0  0  0  0  0  0  0  0  0  0
  160.9340  202.7840  147.9060 C   0  0  0  0  0  1  0  0  0  0  0  0
  161.0340  203.0610  149.3650 C   0  0  0  0  0  0  0  0  0  0  0  0
  2  3  2  0  0  0  0
  2  6  1  0  0  0  0
  3  5  1  0  0  0  0
  4  1  1  0  0  0  0
  4  7  1  0  0  0  0
  5  1  2  0  0  0  0
  6  4  2  0  0  0  0
  9  7  2  0  0  0  0
  9  8  1  0  0  0  0
 10  2  1  0  0  0  0
 12 11  1  6  0  0  0
 12 10  1  0  0  0  0
 13 12  1  0  0  0  0
 14 13  1  0  0  0  0
 16 15  1  1  0  0  0
 16 14  1  0  0  0  0
 17 19  2  0  0  0  0
 19 18  1  0  0  0  0
 19 16  1  0  0  0  0
 20  3  1  0  0  0  0
 21 26  2  0  0  0  0
 22 23  1  0  0  0  0
 23 24  2  0  0  0  0
 25 22  1  0  0  0  0
 26 20  1  0  0  0  0
 26 24  1  0  0  0  0
 27 28  1  0  0  0  0
 28 21  1  0  0  0  0
 28 22  2  0  0  0  0
M  END
>  <MODEL>
6

>  <REMARK>
 VINA RESULT:      -7.1      2.014      6.148
  Name = 
  9 active torsions:
  status: ('A' for Active; 'I' for Inactive)
    1  A    between atoms: C_6  and  N_10
    2  A    between atoms: C_8  and  C_12
    3  A    between atoms: C_8  and  C_27
    4  A    between atoms: N_9  and  C_23
    5  A    between atoms: N_10  and  C_21
    6  A    between atoms: C_12  and  C_14
    7  A    between atoms: C_14  and  C_21
    8  A    between atoms: C_15  and  O_17
    9  A    between atoms: C_16  and  O_17
                            x       y       z     vdW  Elec       q    Type
                         _______ _______ _______ _____ _____    ______ ____

>  <TORSDO>
F 9

$$$$
=
 OpenBabel11052410493D

 28 29  0  0  1  0  0  0  0  0999 V2000
  161.9780  211.0380  150.1360 C   0  0  0  0  0  3  0  0  0  0  0  0
  162.0100  208.4120  149.1420 C   0  0  0  0  0  0  0  0  0  0  0  0
  162.0300  208.6340  150.5410 C   0  0  0  0  0  0  0  0  0  0  0  0
  161.9510  210.8210  148.7590 C   0  0  0  0  0  0  0  0  0  0  0  0
  162.0140  209.9560  151.0160 C   0  0  0  0  0  3  0  0  0  0  0  0
  161.9650  209.5060  148.2720 C   0  0  0  0  0  3  0  0  0  0  0  0
  161.9090  211.9500  147.8790 N   0  0  0  0  0  0  0  0  0  0  0  0
  160.9240  213.4160  146.2390 C   0  0  0  0  0  1  0  0  0  0  0  0
  160.8910  212.2250  147.1270 C   0  0  0  0  0  3  0  0  0  0  0  0
  162.0220  207.1000  148.5580 N   0  0  0  0  0  2  0  0  0  0  0  0
  160.8400  205.1130  149.3080 C   0  0  0  0  0  1  0  0  0  0  0  0
  160.8550  206.2640  148.3160 C   0  0  2  0  0  3  0  0  0  0  0  0
  160.9130  205.7250  146.8990 C   0  0  0  0  0  2  0  0  0  0  0  0
  161.8770  204.5470  146.8190 C   0  0  0  0  0  2  0  0  0  0  0  0
  160.8870  204.3270  144.6350 O   0  0  0  0  0  1  0  0  0  0  0  0
  161.5800  203.6370  145.6320 C   0  0  2  0  0  3  0  0  0  0  0  0
  160.0920  201.6890  145.1140 O   0  0  0  0  0  0  0  0  0  0  0  0
  160.8400  202.0500  147.2490 O   0  0  0  0  0  1  0  0  0  0  0  0
  160.8300  202.4120  146.0440 C   0  0  0  0  0  0  0  0  0  0  0  0
  162.0300  207.5410  151.4240 O   0  0  0  0  0  0  0  0  0  0  0  0
  161.1930  208.6420  153.4060 N   0  0  0  0  0  0  0  0  0  0  0  0
  160.4660  207.3810  155.3000 C   0  0  0  0  0  0  0  0  0  0  0  0
  160.7730  206.2020  154.6190 C   0  0  0  0  0  3  0  0  0  0  0  0
  161.2910  206.2610  153.3250 C   0  0  0  0  0  3  0  0  0  0  0  0
  159.9480  207.3190  156.5880 O   0  0  0  0  0  1  0  0  0  0  0  0
  161.4960  207.5040  152.7200 C   0  0  0  0  0  0  0  0  0  0  0  0
  160.3740  209.8920  155.3610 C   0  0  0  0  0  1  0  0  0  0  0  0
  160.6860  208.6120  154.6680 C   0  0  0  0  0  0  0  0  0  0  0  0
  1  5  1  0  0  0  0
  2  3  1  0  0  0  0
  3  5  2  0  0  0  0
  3 20  1  0  0  0  0
  4  1  2  0  0  0  0
  6  4  1  0  0  0  0
  6  2  2  0  0  0  0
  7  4  1  0  0  0  0
  8  9  1  0  0  0  0
  9  7  2  0  0  0  0
 10  2  1  0  0  0  0
 12 10  1  0  0  0  0
 12 11  1  1  0  0  0
 13 12  1  0  0  0  0
 14 13  1  0  0  0  0
 16 15  1  6  0  0  0
 16 19  1  0  0  0  0
 16 14  1  0  0  0  0
 17 19  2  0  0  0  0
 19 18  1  0  0  0  0
 20 26  1  0  0  0  0
 21 28  1  0  0  0  0
 22 25  1  0  0  0  0
 23 22  1  0  0  0  0
 24 23  2  0  0  0  0
 26 24  1  0  0  0  0
 26 21  2  0  0  0  0
 28 22  2  0  0  0  0
 28 27  1  0  0  0  0
M  END
>  <MODEL>
7

>  <REMARK>
 VINA RESULT:      -7.0      2.210      4.968
  Name = 
  9 active torsions:
  status: ('A' for Active; 'I' for Inactive)
    1  A    between atoms: C_6  and  N_10
    2  A    between atoms: C_8  and  C_12
    3  A    between atoms: C_8  and  C_27
    4  A    between atoms: N_9  and  C_23
    5  A    between atoms: N_10  and  C_21
    6  A    between atoms: C_12  and  C_14
    7  A    between atoms: C_14  and  C_21
    8  A    between atoms: C_15  and  O_17
    9  A    between atoms: C_16  and  O_17
                            x       y       z     vdW  Elec       q    Type
                         _______ _______ _______ _____ _____    ______ ____

>  <TORSDO>
F 9

$$$$
=
 OpenBabel11052410493D

 28 29  0  0  1  0  0  0  0  0999 V2000
  162.2030  207.6610  148.6960 C   0  0  0  0  0  3  0  0  0  0  0  0
  161.0520  205.6730  150.3110 C   0  0  0  0  0  0  0  0  0  0  0  0
  161.8860  206.6570  150.8960 C   0  0  0  0  0  0  0  0  0  0  0  0
  161.3750  206.6970  148.1210 C   0  0  0  0  0  0  0  0  0  0  0  0
  162.4520  207.6420  150.0690 C   0  0  0  0  0  3  0  0  0  0  0  0
  160.8030  205.7100  148.9350 C   0  0  0  0  0  3  0  0  0  0  0  0
  161.1320  206.7440  146.7100 N   0  0  0  0  0  0  0  0  0  0  0  0
  160.8930  205.8240  144.4950 C   0  0  0  0  0  1  0  0  0  0  0  0
  161.1550  205.6950  145.9520 C   0  0  0  0  0  3  0  0  0  0  0  0
  160.4250  204.6270  151.0710 N   0  0  0  0  0  2  0  0  0  0  0  0
  161.6500  202.6110  151.6550 C   0  0  0  0  0  1  0  0  0  0  0  0
  160.5340  203.2000  150.8090 C   0  0  2  0  0  3  0  0  0  0  0  0
  160.8320  202.9840  149.3370 C   0  0  0  0  0  2  0  0  0  0  0  0
  159.9480  201.8780  148.7740 C   0  0  0  0  0  2  0  0  0  0  0  0
  161.9570  200.6390  148.2960 O   0  0  0  0  0  1  0  0  0  0  0  0
  160.6990  200.9800  147.7950 C   0  0  2  0  0  3  0  0  0  0  0  0
  161.5850  202.7550  146.2660 O   0  0  0  0  0  1  0  0  0  0  0  0
  160.2000  201.1130  145.4680 O   0  0  0  0  0  0  0  0  0  0  0  0
  160.8200  201.6080  146.4440 C   0  0  0  0  0  0  0  0  0  0  0  0
  162.1050  206.6550  152.2840 O   0  0  0  0  0  0  0  0  0  0  0  0
  161.0940  206.9460  154.4600 N   0  0  0  0  0  0  0  0  0  0  0  0
  160.1270  209.0360  155.0970 C   0  0  0  0  0  0  0  0  0  0  0  0
  160.4770  209.5640  153.8540 C   0  0  0  0  0  3  0  0  0  0  0  0
  161.1400  208.7670  152.9210 C   0  0  0  0  0  3  0  0  0  0  0  0
  159.4680  209.8320  156.0260 O   0  0  0  0  0  1  0  0  0  0  0  0
  161.4500  207.4430  153.2420 C   0  0  0  0  0  0  0  0  0  0  0  0
  160.0900  207.1000  156.7010 C   0  0  0  0  0  1  0  0  0  0  0  0
  160.4470  207.7030  155.3880 C   0  0  0  0  0  0  0  0  0  0  0  0
  1  5  1  0  0  0  0
  2  3  1  0  0  0  0
  2 10  1  0  0  0  0
  3 20  1  0  0  0  0
  4  1  2  0  0  0  0
  4  6  1  0  0  0  0
  5  3  2  0  0  0  0
  6  2  2  0  0  0  0
  7  4  1  0  0  0  0
  8  9  1  0  0  0  0
  9  7  2  0  0  0  0
 12 10  1  0  0  0  0
 12 11  1  1  0  0  0
 13 12  1  0  0  0  0
 14 13  1  0  0  0  0
 16 15  1  1  0  0  0
 16 14  1  0  0  0  0
 17 19  1  0  0  0  0
 18 19  2  0  0  0  0
 19 16  1  0  0  0  0
 20 26  1  0  0  0  0
 21 28  1  0  0  0  0
 22 28  2  0  0  0  0
 22 25  1  0  0  0  0
 23 22  1  0  0  0  0
 24 26  1  0  0  0  0
 24 23  2  0  0  0  0
 26 21  2  0  0  0  0
 28 27  1  0  0  0  0
M  END
>  <MODEL>
8

>  <REMARK>
 VINA RESULT:      -6.8      1.868      4.100
  Name = 
  9 active torsions:
  status: ('A' for Active; 'I' for Inactive)
    1  A    between atoms: C_6  and  N_10
    2  A    between atoms: C_8  and  C_12
    3  A    between atoms: C_8  and  C_27
    4  A    between atoms: N_9  and  C_23
    5  A    between atoms: N_10  and  C_21
    6  A    between atoms: C_12  and  C_14
    7  A    between atoms: C_14  and  C_21
    8  A    between atoms: C_15  and  O_17
    9  A    between atoms: C_16  and  O_17
                            x       y       z     vdW  Elec       q    Type
                         _______ _______ _______ _____ _____    ______ ____

>  <TORSDO>
F 9

$$$$
=
 OpenBabel11052410493D

 28 29  0  0  1  0  0  0  0  0999 V2000
  160.7940  203.5970  151.6080 C   0  0  0  0  0  3  0  0  0  0  0  0
  161.6960  206.1860  151.0040 C   0  0  0  0  0  0  0  0  0  0  0  0
  161.6190  205.7660  152.3540 C   0  0  0  0  0  0  0  0  0  0  0  0
  160.8770  204.0060  150.2770 C   0  0  0  0  0  0  0  0  0  0  0  0
  161.1650  204.4670  152.6340 C   0  0  0  0  0  3  0  0  0  0  0  0
  161.3300  205.3010  149.9850 C   0  0  0  0  0  3  0  0  0  0  0  0
  160.4950  203.0910  149.2440 N   0  0  0  0  0  0  0  0  0  0  0  0
  160.8240  201.7640  147.2600 C   0  0  0  0  0  1  0  0  0  0  0  0
  161.2950  202.7180  148.2970 C   0  0  0  0  0  3  0  0  0  0  0  0
  162.1490  207.4930  150.6160 N   0  0  0  0  0  2  0  0  0  0  0  0
  162.7060  207.7240  148.2610 C   0  0  0  0  0  1  0  0  0  0  0  0
  161.7970  208.1880  149.3860 C   0  0  2  0  0  3  0  0  0  0  0  0
  161.9550  209.6820  149.5960 C   0  0  0  0  0  2  0  0  0  0  0  0
  161.8900  210.4140  148.2600 C   0  0  0  0  0  2  0  0  0  0  0  0
  160.4370  212.2580  147.7200 O   0  0  0  0  0  1  0  0  0  0  0  0
  161.5860  211.8990  148.4290 C   0  0  2  0  0  3  0  0  0  0  0  0
  164.0120  212.2040  147.8870 O   0  0  0  0  0  1  0  0  0  0  0  0
  162.5740  213.9870  147.8390 O   0  0  0  0  0  0  0  0  0  0  0  0
  162.7440  212.7540  148.0250 C   0  0  0  0  0  0  0  0  0  0  0  0
  162.0270  206.6340  153.3820 O   0  0  0  0  0  0  0  0  0  0  0  0
  161.2070  208.8920  153.6420 N   0  0  0  0  0  0  0  0  0  0  0  0
  159.6850  209.4540  155.3960 C   0  0  0  0  0  0  0  0  0  0  0  0
  159.7070  208.1260  155.8250 C   0  0  0  0  0  3  0  0  0  0  0  0
  160.4870  207.1890  155.1470 C   0  0  0  0  0  3  0  0  0  0  0  0
  158.9050  210.3850  156.0710 O   0  0  0  0  0  1  0  0  0  0  0  0
  161.2400  207.5900  154.0400 C   0  0  0  0  0  0  0  0  0  0  0  0
  160.4610  211.2320  153.7970 C   0  0  0  0  0  1  0  0  0  0  0  0
  160.4540  209.8260  154.2850 C   0  0  0  0  0  0  0  0  0  0  0  0
  1  5  1  0  0  0  0
  2  3  1  0  0  0  0
  3  5  2  0  0  0  0
  3 20  1  0  0  0  0
  4  1  2  0  0  0  0
  6  4  1  0  0  0  0
  6  2  2  0  0  0  0
  7  4  1  0  0  0  0
  8  9  1  0  0  0  0
  9  7  2  0  0  0  0
 10  2  1  0  0  0  0
 12 11  1  6  0  0  0
 12 13  1  0  0  0  0
 12 10  1  0  0  0  0
 14 16  1  0  0  0  0
 14 13  1  0  0  0  0
 16 15  1  6  0  0  0
 17 19  1  0  0  0  0
 18 19  2  0  0  0  0
 19 16  1  0  0  0  0
 20 26  1  0  0  0  0
 21 26  2  0  0  0  0
 21 28  1  0  0  0  0
 22 23  1  0  0  0  0
 22 25  1  0  0  0  0
 24 23  2  0  0  0  0
 26 24  1  0  0  0  0
 27 28  1  0  0  0  0
 28 22  2  0  0  0  0
M  END
>  <MODEL>
9

>  <REMARK>
 VINA RESULT:      -6.7      2.839      4.048
  Name = 
  9 active torsions:
  status: ('A' for Active; 'I' for Inactive)
    1  A    between atoms: C_6  and  N_10
    2  A    between atoms: C_8  and  C_12
    3  A    between atoms: C_8  and  C_27
    4  A    between atoms: N_9  and  C_23
    5  A    between atoms: N_10  and  C_21
    6  A    between atoms: C_12  and  C_14
    7  A    between atoms: C_14  and  C_21
    8  A    between atoms: C_15  and  O_17
    9  A    between atoms: C_16  and  O_17
                            x       y       z     vdW  Elec       q    Type
                         _______ _______ _______ _____ _____    ______ ____

>  <TORSDO>
F 9

$$$$
