=
 OpenBabel11042421323D

 27 30  0  0  1  0  0  0  0  0999 V2000
  161.3160  209.4880  152.8490 N   0  0  0  0  0  0  0  0  0  0  0  0
  161.6370  210.7150  150.7150 C   0  0  0  0  0  3  0  0  0  0  0  0
  161.9140  210.7410  149.3500 C   0  0  0  0  0  0  0  0  0  0  0  0
  161.0390  207.0710  152.7400 C   0  0  1  0  0  3  0  0  0  0  0  0
  161.1440  203.8440  152.1190 C   0  0  0  0  0  2  0  0  0  0  0  0
  162.2110  204.5170  151.2500 C   0  0  0  0  0  2  0  0  0  0  0  0
  161.6350  209.5010  151.4300 C   0  0  0  0  0  0  0  0  0  0  0  0
  161.5120  208.2370  153.6010 C   0  0  0  0  0  2  0  0  0  0  0  0
  161.9400  206.9900  151.4890 C   0  0  2  0  0  3  0  0  0  0  0  0
  161.8780  208.2970  150.7310 C   0  0  0  0  0  0  0  0  0  0  0  0
  161.9670  212.0320  148.6190 C   0  0  0  0  0  1  0  0  0  0  0  0
  162.1520  208.3320  149.3550 C   0  0  0  0  0  3  0  0  0  0  0  0
  160.2240  204.7950  152.7530 N   0  0  0  0  0  2  0  0  0  0  0  0
  160.9780  205.7680  153.5390 C   0  0  0  0  0  2  0  0  0  0  0  0
  161.6710  205.7750  150.5840 C   0  0  0  0  0  2  0  0  0  0  0  0
  162.1440  209.5440  148.6590 C   0  0  0  0  0  3  0  0  0  0  0  0
  161.7630  210.5830  154.9750 C   0  0  0  0  0  0  0  0  0  0  0  0
  160.8510  210.2380  156.0780 C   0  0  0  0  0  0  0  0  0  0  0  0
  159.0040  211.0420  154.7390 C   0  0  0  0  0  0  0  0  0  0  0  0
  161.1940  210.7520  153.5920 C   0  0  2  0  0  3  0  0  0  0  0  0
  162.9990  210.7160  155.1760 O   0  0  0  0  0  0  0  0  0  0  0  0
  159.7620  211.2270  153.6480 C   0  0  0  0  0  3  0  0  0  0  0  0
  159.5770  210.4630  155.9360 N   0  0  0  0  0  0  0  0  0  0  0  0
  161.3320  209.7650  157.2610 F   0  0  0  0  0  0  0  0  0  0  0  0
  157.5570  211.4710  154.7510 C   0  0  1  0  0  3  0  0  0  0  0  0
  157.0880  211.5090  156.0700 O   0  0  0  0  0  1  0  0  0  0  0  0
  157.3730  212.8470  154.1250 C   0  0  0  0  0  1  0  0  0  0  0  0
  1  8  1  0  0  0  0
  2  7  1  0  0  0  0
  3  2  2  0  0  0  0
  4 14  1  1  0  0  0
  4  8  1  0  0  0  0
  5 13  1  0  0  0  0
  6  5  1  0  0  0  0
  7  1  1  0  0  0  0
  9 15  1  6  0  0  0
  9  4  1  0  0  0  0
 10  7  2  0  0  0  0
 10  9  1  0  0  0  0
 11  3  1  0  0  0  0
 12 10  1  0  0  0  0
 13 14  1  0  0  0  0
 15  6  1  0  0  0  0
 16  3  1  0  0  0  0
 16 12  2  0  0  0  0
 17 21  2  0  0  0  0
 17 18  1  0  0  0  0
 18 24  1  0  0  0  0
 19 25  1  0  0  0  0
 19 23  1  0  0  0  0
 20  1  1  1  0  0  0
 20 22  1  0  0  0  0
 20 17  1  0  0  0  0
 22 19  2  0  0  0  0
 23 18  2  0  0  0  0
 25 27  1  1  0  0  0
 25 26  1  0  0  0  0
M  END
>  <MODEL>
1

>  <REMARK>
 VINA RESULT:      -6.4      0.000      0.000
  Name = 
  2 active torsions:
  status: ('A' for Active; 'I' for Inactive)
    1  A    between atoms: N_1  and  C_17
    2  A    between atoms: C_4  and  C_16
                            x       y       z     vdW  Elec       q    Type
                         _______ _______ _______ _____ _____    ______ ____

>  <TORSDO>
F 2

$$$$
=
 OpenBabel11042421323D

 27 30  0  0  1  0  0  0  0  0999 V2000
  161.5170  209.0860  152.8700 N   0  0  0  0  0  0  0  0  0  0  0  0
  161.7890  210.3480  150.7500 C   0  0  0  0  0  3  0  0  0  0  0  0
  161.9920  210.3930  149.3720 C   0  0  0  0  0  0  0  0  0  0  0  0
  161.1010  206.6920  152.7230 C   0  0  1  0  0  3  0  0  0  0  0  0
  160.9950  203.4810  152.0260 C   0  0  0  0  0  2  0  0  0  0  0  0
  162.0480  204.1170  151.1140 C   0  0  0  0  0  2  0  0  0  0  0  0
  161.7580  209.1180  151.4360 C   0  0  0  0  0  0  0  0  0  0  0  0
  161.6840  207.8090  153.5820 C   0  0  0  0  0  2  0  0  0  0  0  0
  161.9270  206.5940  151.4220 C   0  0  2  0  0  3  0  0  0  0  0  0
  161.8970  207.9210  150.6980 C   0  0  0  0  0  0  0  0  0  0  0  0
  162.0770  211.6980  148.6680 C   0  0  0  0  0  1  0  0  0  0  0  0
  162.0960  207.9760  149.3110 C   0  0  0  0  0  3  0  0  0  0  0  0
  160.1640  204.4630  152.7310 N   0  0  0  0  0  2  0  0  0  0  0  0
  161.0130  205.3740  153.4950 C   0  0  0  0  0  2  0  0  0  0  0  0
  161.5430  205.4190  150.5070 C   0  0  0  0  0  2  0  0  0  0  0  0
  162.1180  209.2040  148.6430 C   0  0  0  0  0  3  0  0  0  0  0  0
  161.3630  210.0210  155.1120 C   0  0  0  0  0  0  0  0  0  0  0  0
  160.0190  210.0310  155.7110 C   0  0  0  0  0  0  0  0  0  0  0  0
  159.2540  211.3780  153.8520 C   0  0  0  0  0  0  0  0  0  0  0  0
  161.5050  210.3360  153.6470 C   0  0  2  0  0  3  0  0  0  0  0  0
  162.3760  209.7330  155.8030 O   0  0  0  0  0  0  0  0  0  0  0  0
  160.4120  211.2690  153.1840 C   0  0  0  0  0  3  0  0  0  0  0  0
  159.0630  210.6700  155.1000 N   0  0  0  0  0  0  0  0  0  0  0  0
  159.7880  209.4540  156.9210 F   0  0  0  0  0  0  0  0  0  0  0  0
  158.1520  212.2700  153.3370 C   0  0  1  0  0  3  0  0  0  0  0  0
  157.9590  213.3390  154.2210 O   0  0  0  0  0  1  0  0  0  0  0  0
  158.4770  212.8270  151.9570 C   0  0  0  0  0  1  0  0  0  0  0  0
  1  8  1  0  0  0  0
  2  7  1  0  0  0  0
  3  2  2  0  0  0  0
  4 14  1  1  0  0  0
  4  8  1  0  0  0  0
  5 13  1  0  0  0  0
  6  5  1  0  0  0  0
  7  1  1  0  0  0  0
  9 15  1  6  0  0  0
  9  4  1  0  0  0  0
 10  9  1  0  0  0  0
 10  7  2  0  0  0  0
 11  3  1  0  0  0  0
 12 10  1  0  0  0  0
 13 14  1  0  0  0  0
 15  6  1  0  0  0  0
 16 12  2  0  0  0  0
 16  3  1  0  0  0  0
 17 18  1  0  0  0  0
 17 21  2  0  0  0  0
 18 24  1  0  0  0  0
 19 23  1  0  0  0  0
 20  1  1  6  0  0  0
 20 17  1  0  0  0  0
 22 20  1  0  0  0  0
 22 19  2  0  0  0  0
 23 18  2  0  0  0  0
 25 27  1  6  0  0  0
 25 19  1  0  0  0  0
 25 26  1  0  0  0  0
M  END
>  <MODEL>
2

>  <REMARK>
 VINA RESULT:      -6.2      0.971      1.010
  Name = 
  2 active torsions:
  status: ('A' for Active; 'I' for Inactive)
    1  A    between atoms: N_1  and  C_17
    2  A    between atoms: C_4  and  C_16
                            x       y       z     vdW  Elec       q    Type
                         _______ _______ _______ _____ _____    ______ ____

>  <TORSDO>
F 2

$$$$
=
 OpenBabel11042421323D

 27 30  0  0  1  0  0  0  0  0999 V2000
  161.5490  209.4890  151.1890 N   0  0  0  0  0  0  0  0  0  0  0  0
  162.1540  211.0200  149.3310 C   0  0  0  0  0  3  0  0  0  0  0  0
  162.0520  212.2440  148.6730 C   0  0  0  0  0  0  0  0  0  0  0  0
  160.4150  210.4410  153.1230 C   0  0  1  0  0  3  0  0  0  0  0  0
  158.5490  212.0870  155.2710 C   0  0  0  0  0  2  0  0  0  0  0  0
  158.1260  212.5210  153.8640 C   0  0  0  0  0  2  0  0  0  0  0  0
  161.4100  210.7620  150.4990 C   0  0  0  0  0  0  0  0  0  0  0  0
  160.6190  209.1820  152.2880 C   0  0  0  0  0  2  0  0  0  0  0  0
  159.7310  211.5070  152.2390 C   0  0  2  0  0  3  0  0  0  0  0  0
  160.5850  211.7830  151.0210 C   0  0  0  0  0  0  0  0  0  0  0  0
  162.8000  212.4840  147.4130 C   0  0  0  0  0  1  0  0  0  0  0  0
  160.4910  213.0140  150.3550 C   0  0  0  0  0  3  0  0  0  0  0  0
  159.7910  211.3080  155.2920 N   0  0  0  0  0  2  0  0  0  0  0  0
  159.6610  210.1430  154.4200 C   0  0  0  0  0  2  0  0  0  0  0  0
  159.3360  212.7950  152.9810 C   0  0  0  0  0  2  0  0  0  0  0  0
  161.2410  213.2560  149.2000 C   0  0  0  0  0  3  0  0  0  0  0  0
  161.6290  207.9610  149.2970 C   0  0  0  0  0  0  0  0  0  0  0  0
  160.6830  206.8340  149.3440 C   0  0  0  0  0  0  0  0  0  0  0  0
  161.6970  206.1340  151.4260 C   0  0  0  0  0  0  0  0  0  0  0  0
  162.3070  208.3900  150.5700 C   0  0  2  0  0  3  0  0  0  0  0  0
  161.8530  208.5730  148.2190 O   0  0  0  0  0  0  0  0  0  0  0  0
  162.4710  207.2250  151.5170 C   0  0  0  0  0  3  0  0  0  0  0  0
  160.7420  206.0050  150.3460 N   0  0  0  0  0  0  0  0  0  0  0  0
  159.8130  206.6080  148.3220 F   0  0  0  0  0  0  0  0  0  0  0  0
  161.8370  205.0080  152.4210 C   0  0  1  0  0  3  0  0  0  0  0  0
  161.2970  205.3980  153.6530 O   0  0  0  0  0  1  0  0  0  0  0  0
  161.1240  203.7470  151.9490 C   0  0  0  0  0  1  0  0  0  0  0  0
  1  8  1  0  0  0  0
  2  7  1  0  0  0  0
  3 16  1  0  0  0  0
  3  2  2  0  0  0  0
  4  8  1  6  0  0  0
  4 14  1  0  0  0  0
  5 13  1  0  0  0  0
  6  5  1  0  0  0  0
  7 10  2  0  0  0  0
  7  1  1  0  0  0  0
  9 15  1  1  0  0  0
  9  4  1  0  0  0  0
 10  9  1  0  0  0  0
 11  3  1  0  0  0  0
 12 10  1  0  0  0  0
 14 13  1  0  0  0  0
 15  6  1  0  0  0  0
 16 12  2  0  0  0  0
 17 18  1  0  0  0  0
 17 20  1  0  0  0  0
 18 23  2  0  0  0  0
 19 22  2  0  0  0  0
 19 25  1  0  0  0  0
 20  1  1  1  0  0  0
 20 22  1  0  0  0  0
 21 17  2  0  0  0  0
 23 19  1  0  0  0  0
 24 18  1  0  0  0  0
 25 27  1  6  0  0  0
 25 26  1  0  0  0  0
M  END
>  <MODEL>
3

>  <REMARK>
 VINA RESULT:      -6.0      2.922      6.149
  Name = 
  2 active torsions:
  status: ('A' for Active; 'I' for Inactive)
    1  A    between atoms: N_1  and  C_17
    2  A    between atoms: C_4  and  C_16
                            x       y       z     vdW  Elec       q    Type
                         _______ _______ _______ _____ _____    ______ ____

>  <TORSDO>
F 2

$$$$
=
 OpenBabel11042421323D

 27 30  0  0  1  0  0  0  0  0999 V2000
  162.2890  205.2920  147.6960 N   0  0  0  0  0  0  0  0  0  0  0  0
  161.2430  203.3380  148.8130 C   0  0  0  0  0  3  0  0  0  0  0  0
  160.6220  202.7460  149.9100 C   0  0  0  0  0  0  0  0  0  0  0  0
  161.9770  207.4840  148.7110 C   0  0  1  0  0  3  0  0  0  0  0  0
  161.6440  210.1080  150.6630 C   0  0  0  0  0  2  0  0  0  0  0  0
  161.9580  208.9050  151.5560 C   0  0  0  0  0  2  0  0  0  0  0  0
  161.6670  204.6800  148.8600 C   0  0  0  0  0  0  0  0  0  0  0  0
  162.8920  206.6270  147.8430 C   0  0  0  0  0  2  0  0  0  0  0  0
  161.9170  206.8590  150.1220 C   0  0  2  0  0  3  0  0  0  0  0  0
  161.4170  205.4350  150.0270 C   0  0  0  0  0  0  0  0  0  0  0  0
  160.2280  201.3140  149.8680 C   0  0  0  0  0  1  0  0  0  0  0  0
  160.7860  204.8320  151.1260 C   0  0  0  0  0  3  0  0  0  0  0  0
  161.3180  209.7390  149.2810 N   0  0  0  0  0  2  0  0  0  0  0  0
  162.4070  208.9510  148.7070 C   0  0  0  0  0  2  0  0  0  0  0  0
  161.1360  207.6870  151.1560 C   0  0  0  0  0  2  0  0  0  0  0  0
  160.3650  203.5000  151.0620 C   0  0  0  0  0  3  0  0  0  0  0  0
  162.3750  205.2200  145.2650 C   0  0  0  0  0  0  0  0  0  0  0  0
  161.0900  204.9940  144.5850 C   0  0  0  0  0  0  0  0  0  0  0  0
  160.8760  202.9050  145.7880 C   0  0  0  0  0  0  0  0  0  0  0  0
  162.6640  204.4670  146.5360 C   0  0  2  0  0  3  0  0  0  0  0  0
  163.2130  206.0420  144.8080 O   0  0  0  0  0  0  0  0  0  0  0  0
  161.9550  203.1340  146.5510 C   0  0  0  0  0  3  0  0  0  0  0  0
  160.4190  203.9100  144.8510 N   0  0  0  0  0  0  0  0  0  0  0  0
  160.6400  205.8570  143.6340 F   0  0  0  0  0  0  0  0  0  0  0  0
  160.1480  201.5860  145.8630 C   0  0  1  0  0  3  0  0  0  0  0  0
  159.7470  201.1950  144.5800 O   0  0  0  0  0  1  0  0  0  0  0  0
  161.0250  200.4920  146.4580 C   0  0  0  0  0  1  0  0  0  0  0  0
  1  8  1  0  0  0  0
  1  7  1  0  0  0  0
  2  7  2  0  0  0  0
  2  3  1  0  0  0  0
  3 16  2  0  0  0  0
  4  8  1  6  0  0  0
  4  9  1  0  0  0  0
  5  6  1  0  0  0  0
  7 10  1  0  0  0  0
  9 15  1  1  0  0  0
 10  9  1  0  0  0  0
 10 12  2  0  0  0  0
 11  3  1  0  0  0  0
 13  5  1  0  0  0  0
 14  4  1  0  0  0  0
 14 13  1  0  0  0  0
 15  6  1  0  0  0  0
 16 12  1  0  0  0  0
 17 20  1  0  0  0  0
 18 23  2  0  0  0  0
 18 17  1  0  0  0  0
 19 25  1  0  0  0  0
 19 22  2  0  0  0  0
 20 22  1  6  0  0  0
 20  1  1  0  0  0  0
 21 17  2  0  0  0  0
 23 19  1  0  0  0  0
 24 18  1  0  0  0  0
 25 27  1  6  0  0  0
 26 25  1  0  0  0  0
M  END
>  <MODEL>
4

>  <REMARK>
 VINA RESULT:      -5.9      5.821      9.392
  Name = 
  2 active torsions:
  status: ('A' for Active; 'I' for Inactive)
    1  A    between atoms: N_1  and  C_17
    2  A    between atoms: C_4  and  C_16
                            x       y       z     vdW  Elec       q    Type
                         _______ _______ _______ _____ _____    ______ ____

>  <TORSDO>
F 2

$$$$
=
 OpenBabel11042421323D

 27 30  0  0  1  0  0  0  0  0999 V2000
  161.7030  208.3530  152.5610 N   0  0  0  0  0  0  0  0  0  0  0  0
  161.9220  210.0500  150.7620 C   0  0  0  0  0  3  0  0  0  0  0  0
  162.0120  210.4000  149.4170 C   0  0  0  0  0  0  0  0  0  0  0  0
  161.0370  206.1000  151.9220 C   0  0  1  0  0  3  0  0  0  0  0  0
  160.5490  203.1590  150.5350 C   0  0  0  0  0  2  0  0  0  0  0  0
  161.5810  203.9060  149.6840 C   0  0  0  0  0  2  0  0  0  0  0  0
  161.8250  208.7000  151.1530 C   0  0  0  0  0  0  0  0  0  0  0  0
  161.7990  206.9350  152.9450 C   0  0  0  0  0  2  0  0  0  0  0  0
  161.7370  206.2440  150.5540 C   0  0  2  0  0  3  0  0  0  0  0  0
  161.7800  207.7020  150.1550 C   0  0  0  0  0  0  0  0  0  0  0  0
  162.1680  211.8230  149.0200 C   0  0  0  0  0  1  0  0  0  0  0  0
  161.8670  208.0630  148.8020 C   0  0  0  0  0  3  0  0  0  0  0  0
  159.8840  204.0120  151.5260 N   0  0  0  0  0  2  0  0  0  0  0  0
  160.8810  204.6490  152.3820 C   0  0  0  0  0  2  0  0  0  0  0  0
  161.1610  205.3490  149.4420 C   0  0  0  0  0  2  0  0  0  0  0  0
  161.9560  209.4080  148.4300 C   0  0  0  0  0  3  0  0  0  0  0  0
  161.2870  208.9060  154.8930 C   0  0  0  0  0  0  0  0  0  0  0  0
  159.9070  209.2940  155.2240 C   0  0  0  0  0  0  0  0  0  0  0  0
  160.0850  211.1050  153.6300 C   0  0  0  0  0  0  0  0  0  0  0  0
  161.8820  209.3830  153.5960 C   0  0  2  0  0  3  0  0  0  0  0  0
  161.9560  208.1720  155.6680 O   0  0  0  0  0  0  0  0  0  0  0  0
  161.2820  210.7040  153.1760 C   0  0  0  0  0  3  0  0  0  0  0  0
  159.3790  210.3180  154.6190 N   0  0  0  0  0  0  0  0  0  0  0  0
  159.2140  208.6480  156.2010 F   0  0  0  0  0  0  0  0  0  0  0  0
  159.4770  212.4000  153.1500 C   0  0  1  0  0  3  0  0  0  0  0  0
  159.7550  212.5750  151.7890 O   0  0  0  0  0  1  0  0  0  0  0  0
  157.9670  212.4210  153.3490 C   0  0  0  0  0  1  0  0  0  0  0  0
  1  8  1  0  0  0  0
  2  7  1  0  0  0  0
  3  2  2  0  0  0  0
  4 14  1  1  0  0  0
  4  8  1  0  0  0  0
  5 13  1  0  0  0  0
  6  5  1  0  0  0  0
  7  1  1  0  0  0  0
  9 15  1  6  0  0  0
  9  4  1  0  0  0  0
 10  9  1  0  0  0  0
 10  7  2  0  0  0  0
 11  3  1  0  0  0  0
 12 10  1  0  0  0  0
 13 14  1  0  0  0  0
 15  6  1  0  0  0  0
 16 12  2  0  0  0  0
 16  3  1  0  0  0  0
 17 18  1  0  0  0  0
 17 21  2  0  0  0  0
 18 24  1  0  0  0  0
 19 23  1  0  0  0  0
 20  1  1  6  0  0  0
 20 17  1  0  0  0  0
 22 20  1  0  0  0  0
 22 19  2  0  0  0  0
 23 18  2  0  0  0  0
 25 27  1  6  0  0  0
 25 19  1  0  0  0  0
 26 25  1  0  0  0  0
M  END
>  <MODEL>
5

>  <REMARK>
 VINA RESULT:      -5.9      1.631      1.798
  Name = 
  2 active torsions:
  status: ('A' for Active; 'I' for Inactive)
    1  A    between atoms: N_1  and  C_17
    2  A    between atoms: C_4  and  C_16
                            x       y       z     vdW  Elec       q    Type
                         _______ _______ _______ _____ _____    ______ ____

>  <TORSDO>
F 2

$$$$
=
 OpenBabel11042421323D

 27 30  0  0  1  0  0  0  0  0999 V2000
  161.9050  210.2320  149.6770 N   0  0  0  0  0  0  0  0  0  0  0  0
  161.7690  210.3330  152.1530 C   0  0  0  0  0  3  0  0  0  0  0  0
  161.5460  209.7320  153.3910 C   0  0  0  0  0  0  0  0  0  0  0  0
  161.9760  208.0350  148.6300 C   0  0  1  0  0  3  0  0  0  0  0  0
  161.6140  204.9070  147.6870 C   0  0  0  0  0  2  0  0  0  0  0  0
  160.6430  205.1560  148.8440 C   0  0  0  0  0  2  0  0  0  0  0  0
  161.6410  209.5970  150.9590 C   0  0  0  0  0  0  0  0  0  0  0  0
  161.5750  209.4940  148.4470 C   0  0  0  0  0  2  0  0  0  0  0  0
  161.1170  207.4310  149.7620 C   0  0  2  0  0  3  0  0  0  0  0  0
  161.3200  208.2240  151.0340 C   0  0  0  0  0  0  0  0  0  0  0  0
  161.6310  210.5300  154.6400 C   0  0  0  0  0  1  0  0  0  0  0  0
  161.1010  207.6260  152.2840 C   0  0  0  0  0  3  0  0  0  0  0  0
  162.5900  205.9870  147.5020 N   0  0  0  0  0  2  0  0  0  0  0  0
  161.8940  207.2580  147.3160 C   0  0  0  0  0  2  0  0  0  0  0  0
  161.3130  205.9200  149.9770 C   0  0  0  0  0  2  0  0  0  0  0  0
  161.2390  208.3670  153.4610 C   0  0  0  0  0  3  0  0  0  0  0  0
  160.8110  212.3970  149.8750 C   0  0  0  0  0  0  0  0  0  0  0  0
  159.9660  212.7950  148.7380 C   0  0  0  0  0  0  0  0  0  0  0  0
  161.9030  212.6170  147.2990 C   0  0  0  0  0  0  0  0  0  0  0  0
  162.1090  211.6880  149.5990 C   0  0  2  0  0  3  0  0  0  0  0  0
  160.4490  212.6250  151.0600 O   0  0  0  0  0  0  0  0  0  0  0  0
  162.6790  212.0990  148.2630 C   0  0  0  0  0  3  0  0  0  0  0  0
  160.5040  212.8870  147.5560 N   0  0  0  0  0  0  0  0  0  0  0  0
  158.6620  213.1400  148.9220 F   0  0  0  0  0  0  0  0  0  0  0  0
  162.4820  212.9640  145.9500 C   0  0  1  0  0  3  0  0  0  0  0  0
  161.5790  212.6040  144.9420 O   0  0  0  0  0  1  0  0  0  0  0  0
  162.7820  214.4530  145.8320 C   0  0  0  0  0  1  0  0  0  0  0  0
  1  7  1  0  0  0  0
  2  3  1  0  0  0  0
  3 16  2  0  0  0  0
  3 11  1  0  0  0  0
  4 14  1  6  0  0  0
  4  9  1  0  0  0  0
  5  6  1  0  0  0  0
  6 15  1  0  0  0  0
  7 10  1  0  0  0  0
  7  2  2  0  0  0  0
  8  4  1  0  0  0  0
  8  1  1  0  0  0  0
  9 15  1  1  0  0  0
  9 10  1  0  0  0  0
 10 12  2  0  0  0  0
 12 16  1  0  0  0  0
 13  5  1  0  0  0  0
 14 13  1  0  0  0  0
 17 21  2  0  0  0  0
 18 24  1  0  0  0  0
 18 17  1  0  0  0  0
 19 23  1  0  0  0  0
 19 22  2  0  0  0  0
 20 22  1  6  0  0  0
 20  1  1  0  0  0  0
 20 17  1  0  0  0  0
 23 18  2  0  0  0  0
 25 27  1  1  0  0  0
 25 19  1  0  0  0  0
 26 25  1  0  0  0  0
M  END
>  <MODEL>
6

>  <REMARK>
 VINA RESULT:      -5.8      3.710      6.140
  Name = 
  2 active torsions:
  status: ('A' for Active; 'I' for Inactive)
    1  A    between atoms: N_1  and  C_17
    2  A    between atoms: C_4  and  C_16
                            x       y       z     vdW  Elec       q    Type
                         _______ _______ _______ _____ _____    ______ ____

>  <TORSDO>
F 2

$$$$
=
 OpenBabel11042421323D

 27 30  0  0  1  0  0  0  0  0999 V2000
  160.9240  210.1270  152.6300 N   0  0  0  0  0  0  0  0  0  0  0  0
  160.7340  208.7520  154.6880 C   0  0  0  0  0  3  0  0  0  0  0  0
  160.1980  208.5110  155.9520 C   0  0  0  0  0  0  0  0  0  0  0  0
  159.2480  211.8520  152.2560 C   0  0  1  0  0  3  0  0  0  0  0  0
  157.0470  214.2890  152.4160 C   0  0  0  0  0  2  0  0  0  0  0  0
  157.6370  214.1070  153.8170 C   0  0  0  0  0  2  0  0  0  0  0  0
  160.3780  209.9040  153.9600 C   0  0  0  0  0  0  0  0  0  0  0  0
  160.6860  211.4260  151.9820 C   0  0  0  0  0  2  0  0  0  0  0  0
  159.0850  212.0700  153.7760 C   0  0  2  0  0  3  0  0  0  0  0  0
  159.4350  210.7980  154.5140 C   0  0  0  0  0  0  0  0  0  0  0  0
  160.6220  207.3210  156.7330 C   0  0  0  0  0  1  0  0  0  0  0  0
  158.8970  210.5460  155.7850 C   0  0  0  0  0  3  0  0  0  0  0  0
  157.3970  213.2060  151.4910 N   0  0  0  0  0  2  0  0  0  0  0  0
  158.8490  213.0660  151.4160 C   0  0  0  0  0  2  0  0  0  0  0  0
  157.7180  212.6350  154.1990 C   0  0  0  0  0  2  0  0  0  0  0  0
  159.2550  209.3940  156.4930 C   0  0  0  0  0  3  0  0  0  0  0  0
  162.2520  209.5750  150.6670 C   0  0  0  0  0  0  0  0  0  0  0  0
  161.5750  208.7660  149.6410 C   0  0  0  0  0  0  0  0  0  0  0  0
  161.2170  207.0460  151.3040 C   0  0  0  0  0  0  0  0  0  0  0  0
  162.0010  209.2630  152.1180 C   0  0  2  0  0  3  0  0  0  0  0  0
  163.0130  210.5250  150.3430 O   0  0  0  0  0  0  0  0  0  0  0  0
  161.6800  207.8010  152.3110 C   0  0  0  0  0  3  0  0  0  0  0  0
  161.1060  207.5980  149.9700 N   0  0  0  0  0  0  0  0  0  0  0  0
  161.5050  209.1900  148.3490 F   0  0  0  0  0  0  0  0  0  0  0  0
  160.8460  205.6010  151.5350 C   0  0  1  0  0  3  0  0  0  0  0  0
  161.4780  204.7940  150.5810 O   0  0  0  0  0  1  0  0  0  0  0  0
  161.2550  205.1300  152.9240 C   0  0  0  0  0  1  0  0  0  0  0  0
  1  7  1  0  0  0  0
  2  3  1  0  0  0  0
  3 16  2  0  0  0  0
  3 11  1  0  0  0  0
  4 14  1  6  0  0  0
  4  9  1  0  0  0  0
  5  6  1  0  0  0  0
  6 15  1  0  0  0  0
  7 10  1  0  0  0  0
  7  2  2  0  0  0  0
  8  4  1  0  0  0  0
  8  1  1  0  0  0  0
  9 15  1  6  0  0  0
  9 10  1  0  0  0  0
 10 12  2  0  0  0  0
 12 16  1  0  0  0  0
 13  5  1  0  0  0  0
 14 13  1  0  0  0  0
 17 20  1  0  0  0  0
 18 23  2  0  0  0  0
 18 17  1  0  0  0  0
 19 25  1  0  0  0  0
 19 22  2  0  0  0  0
 20 22  1  6  0  0  0
 20  1  1  0  0  0  0
 21 17  2  0  0  0  0
 23 19  1  0  0  0  0
 24 18  1  0  0  0  0
 25 27  1  1  0  0  0
 26 25  1  0  0  0  0
M  END
>  <MODEL>
7

>  <REMARK>
 VINA RESULT:      -5.2      3.077      7.099
  Name = 
  2 active torsions:
  status: ('A' for Active; 'I' for Inactive)
    1  A    between atoms: N_1  and  C_17
    2  A    between atoms: C_4  and  C_16
                            x       y       z     vdW  Elec       q    Type
                         _______ _______ _______ _____ _____    ______ ____

>  <TORSDO>
F 2

$$$$
=
 OpenBabel11042421323D

 27 30  0  0  1  0  0  0  0  0999 V2000
  161.1200  209.9260  152.8310 N   0  0  0  0  0  0  0  0  0  0  0  0
  161.5690  211.0150  150.6460 C   0  0  0  0  0  3  0  0  0  0  0  0
  161.9540  210.9580  149.3080 C   0  0  0  0  0  0  0  0  0  0  0  0
  160.9360  207.4990  152.8740 C   0  0  1  0  0  3  0  0  0  0  0  0
  161.2050  204.2440  152.4970 C   0  0  0  0  0  2  0  0  0  0  0  0
  162.3140  204.8980  151.6680 C   0  0  0  0  0  2  0  0  0  0  0  0
  161.5510  209.8540  151.4430 C   0  0  0  0  0  0  0  0  0  0  0  0
  161.2970  208.7390  153.6830 C   0  0  0  0  0  2  0  0  0  0  0  0
  161.9380  207.3680  151.7070 C   0  0  2  0  0  3  0  0  0  0  0  0
  161.8920  208.6170  150.8540 C   0  0  0  0  0  0  0  0  0  0  0  0
  162.0210  212.1970  148.4920 C   0  0  0  0  0  1  0  0  0  0  0  0
  162.2750  208.5670  149.5050 C   0  0  0  0  0  3  0  0  0  0  0  0
  160.2030  205.1970  152.9870 N   0  0  0  0  0  2  0  0  0  0  0  0
  160.8570  206.2520  153.7580 C   0  0  0  0  0  2  0  0  0  0  0  0
  161.7860  206.0840  150.8730 C   0  0  0  0  0  2  0  0  0  0  0  0
  162.2810  209.7280  148.7250 C   0  0  0  0  0  3  0  0  0  0  0  0
  160.2320  211.0350  154.8060 C   0  0  0  0  0  0  0  0  0  0  0  0
  158.7650  211.1180  154.8900 C   0  0  0  0  0  0  0  0  0  0  0  0
  158.7640  212.3310  152.7960 C   0  0  0  0  0  0  0  0  0  0  0  0
  160.8930  211.2330  153.4690 C   0  0  2  0  0  3  0  0  0  0  0  0
  160.9240  210.7820  155.8280 O   0  0  0  0  0  0  0  0  0  0  0  0
  160.0760  212.1480  152.5890 C   0  0  0  0  0  3  0  0  0  0  0  0
  158.1150  211.7260  153.9400 N   0  0  0  0  0  0  0  0  0  0  0  0
  158.0970  210.6420  155.9760 F   0  0  0  0  0  0  0  0  0  0  0  0
  157.9550  213.2030  151.8680 C   0  0  1  0  0  3  0  0  0  0  0  0
  157.5300  214.3510  152.5490 O   0  0  0  0  0  1  0  0  0  0  0  0
  158.7610  213.6270  150.6470 C   0  0  0  0  0  1  0  0  0  0  0  0
  1 20  1  0  0  0  0
  1  8  1  0  0  0  0
  2  7  1  0  0  0  0
  3  2  2  0  0  0  0
  4  8  1  1  0  0  0
  4 14  1  0  0  0  0
  5 13  1  0  0  0  0
  6  5  1  0  0  0  0
  7  1  1  0  0  0  0
  9 15  1  6  0  0  0
  9  4  1  0  0  0  0
 10  7  2  0  0  0  0
 10  9  1  0  0  0  0
 11  3  1  0  0  0  0
 12 10  1  0  0  0  0
 13 14  1  0  0  0  0
 15  6  1  0  0  0  0
 16  3  1  0  0  0  0
 16 12  2  0  0  0  0
 17 18  1  0  0  0  0
 17 21  2  0  0  0  0
 18 24  1  0  0  0  0
 19 23  1  0  0  0  0
 20 22  1  6  0  0  0
 20 17  1  0  0  0  0
 22 19  2  0  0  0  0
 23 18  2  0  0  0  0
 25 27  1  6  0  0  0
 25 26  1  0  0  0  0
 25 19  1  0  0  0  0
M  END
>  <MODEL>
8

>  <REMARK>
 VINA RESULT:      -5.1      1.678      1.846
  Name = 
  2 active torsions:
  status: ('A' for Active; 'I' for Inactive)
    1  A    between atoms: N_1  and  C_17
    2  A    between atoms: C_4  and  C_16
                            x       y       z     vdW  Elec       q    Type
                         _______ _______ _______ _____ _____    ______ ____

>  <TORSDO>
F 2

$$$$
=
 OpenBabel11042421323D

 27 30  0  0  1  0  0  0  0  0999 V2000
  160.9850  209.7380  152.4500 N   0  0  0  0  0  0  0  0  0  0  0  0
  160.8710  208.4970  154.5970 C   0  0  0  0  0  3  0  0  0  0  0  0
  160.8310  207.3060  155.3200 C   0  0  0  0  0  0  0  0  0  0  0  0
  161.6040  208.4950  150.4500 C   0  0  1  0  0  3  0  0  0  0  0  0
  162.0460  206.3330  148.0130 C   0  0  0  0  0  2  0  0  0  0  0  0
  161.0630  205.7120  149.0090 C   0  0  0  0  0  2  0  0  0  0  0  0
  160.9160  208.4870  153.1890 C   0  0  0  0  0  0  0  0  0  0  0  0
  160.8360  209.6970  150.9870 C   0  0  0  0  0  2  0  0  0  0  0  0
  160.9500  207.2110  151.0050 C   0  0  2  0  0  3  0  0  0  0  0  0
  160.9620  207.2450  152.5170 C   0  0  0  0  0  0  0  0  0  0  0  0
  160.7290  207.3310  156.8020 C   0  0  0  0  0  1  0  0  0  0  0  0
  160.9260  206.0510  153.2530 C   0  0  0  0  0  3  0  0  0  0  0  0
  162.7060  207.5400  148.5220 N   0  0  0  0  0  2  0  0  0  0  0  0
  161.7030  208.5230  148.9240 C   0  0  0  0  0  2  0  0  0  0  0  0
  161.5320  205.9010  150.4450 C   0  0  0  0  0  2  0  0  0  0  0  0
  160.8880  206.0780  154.6500 C   0  0  0  0  0  3  0  0  0  0  0  0
  159.5340  210.9860  153.9530 C   0  0  0  0  0  0  0  0  0  0  0  0
  158.3020  211.5250  153.3540 C   0  0  0  0  0  0  0  0  0  0  0  0
  159.6650  212.7630  151.7840 C   0  0  0  0  0  0  0  0  0  0  0  0
  160.8050  211.0210  153.1480 C   0  0  2  0  0  3  0  0  0  0  0  0
  159.5250  210.4860  155.1080 O   0  0  0  0  0  0  0  0  0  0  0  0
  160.8060  212.1830  152.1840 C   0  0  0  0  0  3  0  0  0  0  0  0
  158.3990  212.3460  152.3480 N   0  0  0  0  0  0  0  0  0  0  0  0
  157.0830  211.2380  153.8850 F   0  0  0  0  0  0  0  0  0  0  0  0
  159.6860  213.8830  150.7730 C   0  0  1  0  0  3  0  0  0  0  0  0
  160.4560  213.5040  149.6660 O   0  0  0  0  0  1  0  0  0  0  0  0
  158.2830  214.2380  150.2970 C   0  0  0  0  0  1  0  0  0  0  0  0
  1 20  1  0  0  0  0
  1  7  1  0  0  0  0
  2  3  1  0  0  0  0
  3 11  1  0  0  0  0
  4 14  1  6  0  0  0
  4  8  1  0  0  0  0
  4  9  1  0  0  0  0
  5 13  1  0  0  0  0
  5  6  1  0  0  0  0
  6 15  1  0  0  0  0
  7  2  2  0  0  0  0
  8  1  1  0  0  0  0
  9 15  1  1  0  0  0
  9 10  1  0  0  0  0
 10  7  1  0  0  0  0
 10 12  2  0  0  0  0
 12 16  1  0  0  0  0
 13 14  1  0  0  0  0
 16  3  2  0  0  0  0
 17 21  2  0  0  0  0
 18 24  1  0  0  0  0
 18 17  1  0  0  0  0
 19 22  2  0  0  0  0
 19 23  1  0  0  0  0
 20 22  1  6  0  0  0
 20 17  1  0  0  0  0
 23 18  2  0  0  0  0
 25 27  1  6  0  0  0
 25 19  1  0  0  0  0
 26 25  1  0  0  0  0
M  END
>  <MODEL>
9

>  <REMARK>
 VINA RESULT:      -4.9      2.707      4.522
  Name = 
  2 active torsions:
  status: ('A' for Active; 'I' for Inactive)
    1  A    between atoms: N_1  and  C_17
    2  A    between atoms: C_4  and  C_16
                            x       y       z     vdW  Elec       q    Type
                         _______ _______ _______ _____ _____    ______ ____

>  <TORSDO>
F 2

$$$$
