=
 OpenBabel11042421223D

 39 44  0  0  1  0  0  0  0  0999 V2000
  161.5470  210.4880  150.6630 C   0  0  0  0  0  0  0  0  0  0  0  0
  162.3610  209.7140  151.6610 C   0  0  0  0  0  3  0  0  0  0  0  0
  158.6060  212.3690  151.6230 C   0  0  1  0  0  3  0  0  0  0  0  0
  159.0000  212.3630  153.9600 C   0  0  1  0  0  3  0  0  0  0  0  0
  159.3110  211.8110  152.7240 N   0  0  0  0  0  0  0  0  0  0  0  0
  159.7840  212.0830  154.9790 N   0  0  0  0  0  2  0  0  0  0  0  0
  156.7650  213.3280  154.2580 C   0  0  0  0  0  1  0  0  0  0  0  0
  158.1750  213.5850  153.7640 C   0  0  2  0  0  3  0  0  0  0  0  0
  160.8810  211.1280  154.7590 C   0  0  0  0  0  2  0  0  0  0  0  0
  158.1690  213.7400  152.2030 C   0  0  0  0  0  2  0  0  0  0  0  0
  159.6240  212.2360  150.4260 C   0  0  2  0  0  3  0  0  0  0  0  0
  160.8060  211.5300  151.0830 C   0  0  0  0  0  0  0  0  0  0  0  0
  161.3240  210.9370  153.4870 C   0  0  0  0  0  0  0  0  0  0  0  0
  160.7080  211.8310  152.4920 C   0  0  0  0  0  0  0  0  0  0  0  0
  162.2610  209.9140  152.9950 C   0  0  0  0  0  3  0  0  0  0  0  0
  159.9850  213.6190  149.8140 C   0  0  1  0  0  3  0  0  0  0  0  0
  159.3910  213.4280  146.8830 N   0  0  0  0  0  2  0  0  0  0  0  0
  160.6090  212.8800  147.4540 C   0  0  0  0  0  2  0  0  0  0  0  0
  161.0230  213.6840  148.6790 C   0  0  2  0  0  3  0  0  0  0  0  0
  158.8720  214.4530  149.5240 O   0  0  0  0  0  0  0  0  0  0  0  0
  158.2850  212.8690  147.6440 C   0  0  1  0  0  3  0  0  0  0  0  0
  157.8400  213.8220  148.7700 C   0  0  1  0  0  3  0  0  0  0  0  0
  155.8070  214.0500  149.6200 C   0  0  0  0  0  1  0  0  0  0  0  0
  156.9140  213.2020  149.6170 O   0  0  0  0  0  0  0  0  0  0  0  0
  157.1240  212.4950  146.7200 C   0  0  0  0  0  2  0  0  0  0  0  0
  156.9060  213.5040  145.5980 C   0  0  0  0  0  2  0  0  0  0  0  0
  155.9580  214.4520  145.9820 O   0  0  0  0  0  1  0  0  0  0  0  0
  162.4270  213.3290  149.1500 C   0  0  0  0  0  2  0  0  0  0  0  0
  163.9890  211.9810  147.8430 C   0  0  0  0  0  2  0  0  0  0  0  0
  163.3410  213.1310  147.9900 C   0  0  0  0  0  3  0  0  0  0  0  0
  161.4970  210.0320  149.2450 C   0  0  0  0  0  2  0  0  0  0  0  0
  162.2680  208.8790  149.0930 O   0  0  0  0  0  0  0  0  0  0  0  0
  161.5020  208.0490  148.2740 C   0  0  0  0  0  2  0  0  0  0  0  0
  160.9290  204.2430  150.1570 C   0  0  0  0  0  3  0  0  0  0  0  0
  161.3240  206.7250  148.9310 C   0  0  0  0  0  0  0  0  0  0  0  0
  160.9710  205.4070  150.9320 C   0  0  0  0  0  3  0  0  0  0  0  0
  161.1650  206.6470  150.3190 C   0  0  0  0  0  3  0  0  0  0  0  0
  161.2710  205.5620  148.1560 C   0  0  0  0  0  3  0  0  0  0  0  0
  161.0760  204.3210  148.7690 C   0  0  0  0  0  3  0  0  0  0  0  0
  1 12  2  0  0  0  0
  1  2  1  0  0  0  0
  2 15  2  0  0  0  0
  3 10  1  1  0  0  0
  3  5  1  0  0  0  0
  4  6  1  6  0  0  0
  5  4  1  0  0  0  0
  8  4  1  0  0  0  0
  8  7  1  6  0  0  0
  9  6  1  0  0  0  0
 10  8  1  0  0  0  0
 11 12  1  1  0  0  0
 11  3  1  0  0  0  0
 12 14  1  0  0  0  0
 13  9  1  0  0  0  0
 14  5  1  0  0  0  0
 14 13  2  0  0  0  0
 15 13  1  0  0  0  0
 16 20  1  6  0  0  0
 16 11  1  0  0  0  0
 17 18  1  0  0  0  0
 17 21  1  0  0  0  0
 18 19  1  0  0  0  0
 19 28  1  1  0  0  0
 19 16  1  0  0  0  0
 21 25  1  6  0  0  0
 21 22  1  0  0  0  0
 22 20  1  0  0  0  0
 22 24  1  1  0  0  0
 24 23  1  0  0  0  0
 26 27  1  0  0  0  0
 26 25  1  0  0  0  0
 29 30  2  0  0  0  0
 30 28  1  0  0  0  0
 31  1  1  0  0  0  0
 32 31  1  0  0  0  0
 33 35  1  0  0  0  0
 33 32  1  0  0  0  0
 34 36  1  0  0  0  0
 35 37  1  0  0  0  0
 37 36  2  0  0  0  0
 38 39  1  0  0  0  0
 38 35  2  0  0  0  0
 39 34  2  0  0  0  0
M  END
>  <MODEL>
1

>  <REMARK>
 VINA RESULT:      -4.4      0.000      0.000
  Name = 
  10 active torsions:
  status: ('A' for Active; 'I' for Inactive)
    1  A    between atoms: C_1  and  C_22
    2  A    between atoms: C_4  and  C_23
    3  A    between atoms: O_5  and  C_22
    4  A    between atoms: O_5  and  C_31
    5  A    between atoms: C_8  and  C_9
    6  A    between atoms: C_9  and  C_33
    7  A    between atoms: C_16  and  C_21
    8  A    between atoms: C_16  and  C_26
    9  A    between atoms: C_20  and  C_31
   10  A    between atoms: O_34  and  C_35
                            x       y       z     vdW  Elec       q    Type
                         _______ _______ _______ _____ _____    ______ ____

>  <TORSDO>
F 10

$$$$
=
 OpenBabel11042421223D

 39 44  0  0  1  0  0  0  0  0999 V2000
  161.2420  209.3150  151.1330 C   0  0  0  0  0  0  0  0  0  0  0  0
  161.9050  208.2350  151.9400 C   0  0  0  0  0  3  0  0  0  0  0  0
  159.0680  211.7860  152.6410 C   0  0  1  0  0  3  0  0  0  0  0  0
  159.6870  211.3900  154.8950 C   0  0  1  0  0  3  0  0  0  0  0  0
  159.6990  210.9300  153.5840 N   0  0  0  0  0  0  0  0  0  0  0  0
  160.4620  210.7870  155.7710 N   0  0  0  0  0  2  0  0  0  0  0  0
  157.8580  212.8760  155.5740 C   0  0  0  0  0  1  0  0  0  0  0  0
  159.2240  212.8030  154.9200 C   0  0  2  0  0  3  0  0  0  0  0  0
  161.2170  209.6060  155.3210 C   0  0  0  0  0  2  0  0  0  0  0  0
  159.0980  213.1430  153.3940 C   0  0  0  0  0  2  0  0  0  0  0  0
  159.8760  211.5310  151.3110 C   0  0  2  0  0  3  0  0  0  0  0  0
  160.8730  210.4590  151.7390 C   0  0  0  0  0  0  0  0  0  0  0  0
  161.4520  209.4590  153.9900 C   0  0  0  0  0  0  0  0  0  0  0  0
  161.0130  210.6010  153.1690 C   0  0  0  0  0  0  0  0  0  0  0  0
  162.0060  208.2900  153.2890 C   0  0  0  0  0  3  0  0  0  0  0  0
  160.5460  212.8300  150.7810 C   0  0  1  0  0  3  0  0  0  0  0  0
  159.3790  213.3360  148.0670 N   0  0  0  0  0  2  0  0  0  0  0  0
  160.4360  212.3610  148.2760 C   0  0  0  0  0  2  0  0  0  0  0  0
  161.3140  212.7820  149.4480 C   0  0  2  0  0  3  0  0  0  0  0  0
  159.7320  213.9930  150.8490 O   0  0  0  0  0  0  0  0  0  0  0  0
  158.3170  213.0040  149.0030 C   0  0  1  0  0  3  0  0  0  0  0  0
  158.4280  213.8360  150.2960 C   0  0  1  0  0  3  0  0  0  0  0  0
  156.6330  214.4340  151.4470 C   0  0  0  0  0  1  0  0  0  0  0  0
  157.5290  213.3800  151.2660 O   0  0  0  0  0  0  0  0  0  0  0  0
  156.9440  213.1570  148.3430 C   0  0  0  0  0  2  0  0  0  0  0  0
  157.0250  213.3080  146.8270 C   0  0  0  0  0  2  0  0  0  0  0  0
  157.0020  212.0540  146.2180 O   0  0  0  0  0  1  0  0  0  0  0  0
  162.5880  211.9510  149.5370 C   0  0  0  0  0  2  0  0  0  0  0  0
  163.7790  212.6880  147.5370 C   0  0  0  0  0  2  0  0  0  0  0  0
  163.1570  211.7070  148.1820 C   0  0  0  0  0  3  0  0  0  0  0  0
  160.9170  209.0650  149.7000 C   0  0  0  0  0  2  0  0  0  0  0  0
  161.6170  207.9480  149.2450 O   0  0  0  0  0  0  0  0  0  0  0  0
  160.6690  206.9250  149.2200 C   0  0  0  0  0  2  0  0  0  0  0  0
  161.7760  203.9430  146.3500 C   0  0  0  0  0  3  0  0  0  0  0  0
  161.0730  205.8920  148.2280 C   0  0  0  0  0  0  0  0  0  0  0  0
  161.5400  203.5800  147.6800 C   0  0  0  0  0  3  0  0  0  0  0  0
  161.1860  204.5520  148.6170 C   0  0  0  0  0  3  0  0  0  0  0  0
  161.3000  206.2530  146.8960 C   0  0  0  0  0  3  0  0  0  0  0  0
  161.6540  205.2790  145.9570 C   0  0  0  0  0  3  0  0  0  0  0  0
  1 12  2  0  0  0  0
  1  2  1  0  0  0  0
  2 15  2  0  0  0  0
  3 10  1  1  0  0  0
  3  5  1  0  0  0  0
  4  8  1  0  0  0  0
  4  6  1  6  0  0  0
  5  4  1  0  0  0  0
  8  7  1  1  0  0  0
  9  6  1  0  0  0  0
 10  8  1  0  0  0  0
 11 12  1  1  0  0  0
 11  3  1  0  0  0  0
 12 14  1  0  0  0  0
 13  9  1  0  0  0  0
 14  5  1  0  0  0  0
 14 13  2  0  0  0  0
 15 13  1  0  0  0  0
 16 20  1  6  0  0  0
 16 11  1  0  0  0  0
 17 18  1  0  0  0  0
 17 21  1  0  0  0  0
 18 19  1  0  0  0  0
 19 28  1  1  0  0  0
 19 16  1  0  0  0  0
 21 25  1  6  0  0  0
 21 22  1  0  0  0  0
 22 20  1  0  0  0  0
 22 24  1  1  0  0  0
 24 23  1  0  0  0  0
 26 25  1  0  0  0  0
 27 26  1  0  0  0  0
 29 30  2  0  0  0  0
 30 28  1  0  0  0  0
 31  1  1  0  0  0  0
 32 31  1  0  0  0  0
 33 32  1  0  0  0  0
 34 36  1  0  0  0  0
 35 37  1  0  0  0  0
 35 33  1  0  0  0  0
 36 37  2  0  0  0  0
 38 35  2  0  0  0  0
 39 34  2  0  0  0  0
 39 38  1  0  0  0  0
M  END
>  <MODEL>
2

>  <REMARK>
 VINA RESULT:      -2.4      1.401      1.797
  Name = 
  10 active torsions:
  status: ('A' for Active; 'I' for Inactive)
    1  A    between atoms: C_1  and  C_22
    2  A    between atoms: C_4  and  C_23
    3  A    between atoms: O_5  and  C_22
    4  A    between atoms: O_5  and  C_31
    5  A    between atoms: C_8  and  C_9
    6  A    between atoms: C_9  and  C_33
    7  A    between atoms: C_16  and  C_21
    8  A    between atoms: C_16  and  C_26
    9  A    between atoms: C_20  and  C_31
   10  A    between atoms: O_34  and  C_35
                            x       y       z     vdW  Elec       q    Type
                         _______ _______ _______ _____ _____    ______ ____

>  <TORSDO>
F 10

$$$$
