=
 OpenBabel11042422213D

 43 46  0  0  1  0  0  0  0  0999 V2000
  161.5600  212.3730  149.8770 C   0  0  2  0  0  3  0  0  0  0  0  0
  161.7510  214.4530  148.7470 N   0  0  0  0  0  0  0  0  0  0  0  0
  159.2810  212.4850  151.1250 C   0  0  0  0  0  2  0  0  0  0  0  0
  159.9670  209.9950  152.6150 C   0  0  0  0  0  2  0  0  0  0  0  0
  158.4730  211.2520  153.6590 C   0  0  0  0  0  2  0  0  0  0  0  0
  161.6260  208.7190  150.2480 C   0  0  1  0  0  3  0  0  0  0  0  0
  158.5710  212.7720  153.5240 C   0  0  0  0  0  2  0  0  0  0  0  0
  162.3450  212.4830  147.3960 C   0  0  2  0  0  3  0  0  0  0  0  0
  161.2240  213.7700  149.6540 N   0  0  0  0  0  0  0  0  0  0  0  0
  161.8360  211.6840  148.5610 C   0  0  0  0  0  0  0  0  0  0  0  0
  162.7090  209.0490  152.4370 O   0  0  0  0  0  1  0  0  0  0  0  0
  164.3480  213.9010  148.5830 Cl  0  0  0  0  0  0  0  0  0  0  0  0
  162.7320  213.9040  147.8280 C   0  0  2  0  0  3  0  0  0  0  0  0
  160.4730  211.6140  150.6890 C   0  0  2  0  0  3  0  0  0  0  0  0
  162.1300  209.6990  151.3420 C   0  0  2  0  0  3  0  0  0  0  0  0
  161.0580  210.7050  151.8120 C   0  0  2  0  0  3  0  0  0  0  0  0
  162.1310  209.1390  148.9000 C   0  0  0  0  0  3  0  0  0  0  0  0
  159.5520  213.2110  152.4370 C   0  0  0  0  0  2  0  0  0  0  0  0
  159.7390  210.6850  153.8100 O   0  0  0  0  0  0  0  0  0  0  0  0
  162.0130  210.3980  148.5980 C   0  0  0  0  0  0  0  0  0  0  0  0
  161.3520  212.4990  146.2720 C   0  0  0  0  0  0  0  0  0  0  0  0
  159.0970  212.2150  145.4230 C   0  0  0  0  0  3  0  0  0  0  0  0
  160.8890  212.8240  143.9150 C   0  0  0  0  0  3  0  0  0  0  0  0
  159.5390  212.5300  144.1290 C   0  0  0  0  0  0  0  0  0  0  0  0
  161.7930  212.8080  144.9810 C   0  0  0  0  0  3  0  0  0  0  0  0
  160.0000  212.1990  146.4890 C   0  0  0  0  0  3  0  0  0  0  0  0
  159.0110  213.1280  141.7880 C   0  0  0  0  0  1  0  0  0  0  0  0
  158.6620  212.5570  143.0420 O   0  0  0  0  0  0  0  0  0  0  0  0
  161.9800  207.2540  150.4880 C   0  0  0  0  0  2  0  0  0  0  0  0
  160.9050  206.5500  151.3030 C   0  0  0  0  0  2  0  0  0  0  0  0
  161.3690  205.1680  151.7240 C   0  0  0  0  0  2  0  0  0  0  0  0
  160.2390  204.1780  151.5270 C   0  0  0  0  0  2  0  0  0  0  0  0
  160.7710  202.8670  150.9670 C   0  0  2  0  0  3  0  0  0  0  0  0
  161.8720  202.4810  151.7310 O   0  0  0  0  0  1  0  0  0  0  0  0
  160.5770  204.1690  148.9530 O   0  0  0  0  0  1  0  0  0  0  0  0
  161.1700  203.0200  149.4880 C   0  0  2  0  0  3  0  0  0  0  0  0
  160.8060  201.7950  148.6230 C   0  0  0  0  0  0  0  0  0  0  0  0
  159.4700  201.4480  148.8500 O   0  0  0  0  0  1  0  0  0  0  0  0
  161.6150  200.7070  148.9630 O   0  0  0  0  0  1  0  0  0  0  0  0
  161.0140  202.1090  147.1570 C   0  0  0  0  0  0  0  0  0  0  0  0
  160.8690  201.1940  146.3020 O   0  0  0  0  0  0  0  0  0  0  0  0
  161.3800  203.7520  145.3320 C   0  0  0  0  0  1  0  0  0  0  0  0
  161.3490  203.3910  146.7060 O   0  0  0  0  0  0  0  0  0  0  0  0
  1 10  1  6  0  0  0
  1 14  1  0  0  0  0
  2  9  2  0  0  0  0
  3 18  1  0  0  0  0
  4 19  1  0  0  0  0
  5 19  1  0  0  0  0
  6 29  1  1  0  0  0
  6 15  1  0  0  0  0
  7  5  1  0  0  0  0
  8 21  1  6  0  0  0
  8 13  1  0  0  0  0
  8 10  1  0  0  0  0
  9  1  1  0  0  0  0
 10 20  2  0  0  0  0
 13 12  1  1  0  0  0
 13  2  1  0  0  0  0
 14  3  1  1  0  0  0
 14 16  1  0  0  0  0
 15 16  1  0  0  0  0
 15 11  1  1  0  0  0
 16  4  1  6  0  0  0
 17  6  1  0  0  0  0
 18  7  1  0  0  0  0
 20 17  2  0  0  0  0
 21 26  1  0  0  0  0
 22 26  2  0  0  0  0
 23 24  2  0  0  0  0
 23 25  1  0  0  0  0
 24 22  1  0  0  0  0
 25 21  2  0  0  0  0
 27 28  1  0  0  0  0
 28 24  1  0  0  0  0
 29 30  1  0  0  0  0
 30 31  1  0  0  0  0
 32 31  1  0  0  0  0
 33 32  1  0  0  0  0
 33 34  1  1  0  0  0
 36 35  1  6  0  0  0
 36 33  1  0  0  0  0
 37 38  1  0  0  0  0
 37 39  1  0  0  0  0
 37 36  1  0  0  0  0
 40 37  1  0  0  0  0
 41 40  2  0  0  0  0
 42 43  1  0  0  0  0
 43 40  1  0  0  0  0
M  END
>  <MODEL>
1

>  <REMARK>
 VINA RESULT:      -5.2      0.000      0.000
  Name = 
  11 active torsions:
  status: ('A' for Active; 'I' for Inactive)
    1  A    between atoms: C_1  and  C_25
    2  A    between atoms: C_1  and  C_39
    3  A    between atoms: C_2  and  C_16
    4  A    between atoms: C_2  and  O_18
    5  A    between atoms: C_4  and  C_14
    6  A    between atoms: C_11  and  C_30
    7  A    between atoms: C_16  and  C_39
    8  A    between atoms: C_22  and  O_32
    9  A    between atoms: C_25  and  C_27
   10  A    between atoms: C_27  and  C_41
   11  A    between atoms: C_30  and  C_41
                            x       y       z     vdW  Elec       q    Type
                         _______ _______ _______ _____ _____    ______ ____

>  <TORSDO>
F 11

$$$$
=
 OpenBabel11042422213D

 43 46  0  0  1  0  0  0  0  0999 V2000
  161.6140  208.8420  153.8280 C   0  0  2  0  0  3  0  0  0  0  0  0
  161.5160  209.1860  156.1760 N   0  0  0  0  0  0  0  0  0  0  0  0
  160.2700  206.6560  153.4050 C   0  0  0  0  0  2  0  0  0  0  0  0
  161.2430  206.5950  150.5870 C   0  0  0  0  0  2  0  0  0  0  0  0
  160.6340  204.6040  151.3430 C   0  0  0  0  0  2  0  0  0  0  0  0
  161.3480  209.7370  150.2750 C   0  0  1  0  0  3  0  0  0  0  0  0
  160.8630  204.2800  152.8200 C   0  0  0  0  0  2  0  0  0  0  0  0
  161.1010  211.1950  154.8170 C   0  0  2  0  0  3  0  0  0  0  0  0
  161.4080  208.4090  155.2000 N   0  0  0  0  0  0  0  0  0  0  0  0
  161.1180  210.2570  153.6450 C   0  0  0  0  0  0  0  0  0  0  0  0
  163.3920  208.4180  149.8800 O   0  0  0  0  0  1  0  0  0  0  0  0
  163.6010  210.8000  155.8270 Cl  0  0  0  0  0  0  0  0  0  0  0  0
  161.8410  210.5920  156.0190 C   0  0  2  0  0  3  0  0  0  0  0  0
  160.9670  207.8830  152.7890 C   0  0  2  0  0  3  0  0  0  0  0  0
  162.4490  208.8000  150.8410 C   0  0  2  0  0  3  0  0  0  0  0  0
  161.8920  207.5640  151.5770 C   0  0  2  0  0  3  0  0  0  0  0  0
  161.1860  210.9410  151.1540 C   0  0  0  0  0  3  0  0  0  0  0  0
  161.2410  205.5080  153.6480 C   0  0  0  0  0  2  0  0  0  0  0  0
  161.7220  205.3010  150.8150 O   0  0  0  0  0  0  0  0  0  0  0  0
  161.1110  210.7250  152.4330 C   0  0  0  0  0  0  0  0  0  0  0  0
  159.7000  211.5940  155.1750 C   0  0  0  0  0  0  0  0  0  0  0  0
  157.3580  211.0590  155.5140 C   0  0  0  0  0  3  0  0  0  0  0  0
  158.1370  213.3280  155.8260 C   0  0  0  0  0  3  0  0  0  0  0  0
  157.0930  212.3980  155.8390 C   0  0  0  0  0  0  0  0  0  0  0  0
  159.4340  212.9300  155.4950 C   0  0  0  0  0  3  0  0  0  0  0  0
  158.6540  210.6600  155.1820 C   0  0  0  0  0  3  0  0  0  0  0  0
  155.5700  213.9720  156.9880 C   0  0  0  0  0  1  0  0  0  0  0  0
  155.8080  212.8300  156.1770 O   0  0  0  0  0  0  0  0  0  0  0  0
  161.5680  210.1870  148.8340 C   0  0  0  0  0  2  0  0  0  0  0  0
  161.6320  211.7040  148.7300 C   0  0  0  0  0  2  0  0  0  0  0  0
  162.7230  212.1310  147.7650 C   0  0  0  0  0  2  0  0  0  0  0  0
  162.3040  213.4090  147.0690 C   0  0  0  0  0  2  0  0  0  0  0  0
  162.0360  213.1490  145.5940 C   0  0  2  0  0  3  0  0  0  0  0  0
  163.1550  213.5610  144.8680 O   0  0  0  0  0  1  0  0  0  0  0  0
  160.1000  214.4320  146.2220 O   0  0  0  0  0  1  0  0  0  0  0  0
  160.7810  213.9020  145.1190 C   0  0  2  0  0  3  0  0  0  0  0  0
  159.8200  213.0310  144.2830 C   0  0  0  0  0  0  0  0  0  0  0  0
  158.5920  213.6880  144.1540 O   0  0  0  0  0  1  0  0  0  0  0  0
  159.6080  211.8030  144.9160 O   0  0  0  0  0  1  0  0  0  0  0  0
  160.4090  212.7690  142.9130 C   0  0  0  0  0  0  0  0  0  0  0  0
  160.8510  213.7350  142.2350 O   0  0  0  0  0  0  0  0  0  0  0  0
  160.5730  211.2280  140.9730 C   0  0  0  0  0  1  0  0  0  0  0  0
  160.4970  211.4820  142.3690 O   0  0  0  0  0  0  0  0  0  0  0  0
  1 10  1  1  0  0  0
  1  9  1  0  0  0  0
  3 18  1  0  0  0  0
  4 19  1  0  0  0  0
  5  7  1  0  0  0  0
  6 29  1  6  0  0  0
  6 15  1  0  0  0  0
  6 17  1  0  0  0  0
  7 18  1  0  0  0  0
  8 21  1  1  0  0  0
  8 13  1  0  0  0  0
  9  2  2  0  0  0  0
 10  8  1  0  0  0  0
 13 12  1  6  0  0  0
 13  2  1  0  0  0  0
 14  3  1  1  0  0  0
 14  1  1  0  0  0  0
 15 11  1  6  0  0  0
 15 16  1  0  0  0  0
 16  4  1  6  0  0  0
 16 14  1  0  0  0  0
 17 20  2  0  0  0  0
 19  5  1  0  0  0  0
 20 10  2  0  0  0  0
 21 26  2  0  0  0  0
 21 25  1  0  0  0  0
 22 24  2  0  0  0  0
 23 24  1  0  0  0  0
 24 28  1  0  0  0  0
 25 23  2  0  0  0  0
 26 22  1  0  0  0  0
 28 27  1  0  0  0  0
 30 29  1  0  0  0  0
 31 30  1  0  0  0  0
 32 31  1  0  0  0  0
 33 34  1  6  0  0  0
 33 32  1  0  0  0  0
 36 33  1  0  0  0  0
 36 35  1  1  0  0  0
 37 39  1  0  0  0  0
 37 36  1  0  0  0  0
 38 37  1  0  0  0  0
 40 37  1  0  0  0  0
 41 40  2  0  0  0  0
 42 43  1  0  0  0  0
 43 40  1  0  0  0  0
M  END
>  <MODEL>
2

>  <REMARK>
 VINA RESULT:      -5.0      3.384      9.108
  Name = 
  11 active torsions:
  status: ('A' for Active; 'I' for Inactive)
    1  A    between atoms: C_1  and  C_25
    2  A    between atoms: C_1  and  C_39
    3  A    between atoms: C_2  and  C_16
    4  A    between atoms: C_2  and  O_18
    5  A    between atoms: C_4  and  C_14
    6  A    between atoms: C_11  and  C_30
    7  A    between atoms: C_16  and  C_39
    8  A    between atoms: C_22  and  O_32
    9  A    between atoms: C_25  and  C_27
   10  A    between atoms: C_27  and  C_41
   11  A    between atoms: C_30  and  C_41
                            x       y       z     vdW  Elec       q    Type
                         _______ _______ _______ _____ _____    ______ ____

>  <TORSDO>
F 11

$$$$
=
 OpenBabel11042422213D

 43 46  0  0  1  0  0  0  0  0999 V2000
  161.5750  212.4010  149.8720 C   0  0  2  0  0  3  0  0  0  0  0  0
  161.8910  214.4530  148.7170 N   0  0  0  0  0  0  0  0  0  0  0  0
  159.3040  212.6620  151.1110 C   0  0  0  0  0  2  0  0  0  0  0  0
  159.8400  210.1540  152.6330 C   0  0  0  0  0  2  0  0  0  0  0  0
  158.4190  211.5100  153.6580 C   0  0  0  0  0  2  0  0  0  0  0  0
  161.4250  208.7550  150.2870 C   0  0  1  0  0  3  0  0  0  0  0  0
  158.6070  213.0200  153.5040 C   0  0  0  0  0  2  0  0  0  0  0  0
  162.3700  212.4350  147.3920 C   0  0  2  0  0  3  0  0  0  0  0  0
  161.3220  213.8130  149.6300 N   0  0  0  0  0  0  0  0  0  0  0  0
  161.8130  211.6820  148.5650 C   0  0  0  0  0  0  0  0  0  0  0  0
  162.5210  209.0470  152.4740 O   0  0  0  0  0  1  0  0  0  0  0  0
  164.4510  213.7470  148.5670 Cl  0  0  0  0  0  0  0  0  0  0  0  0
  162.8400  213.8360  147.8080 C   0  0  2  0  0  3  0  0  0  0  0  0
  160.4440  211.7170  150.6900 C   0  0  2  0  0  3  0  0  0  0  0  0
  161.9830  209.7170  151.3700 C   0  0  2  0  0  3  0  0  0  0  0  0
  160.9720  210.7900  151.8250 C   0  0  2  0  0  3  0  0  0  0  0  0
  161.9570  209.1280  148.9350 C   0  0  0  0  0  3  0  0  0  0  0  0
  159.6150  213.3870  152.4150 C   0  0  0  0  0  2  0  0  0  0  0  0
  159.6500  210.8720  153.8190 O   0  0  0  0  0  0  0  0  0  0  0  0
  161.9140  210.3870  148.6170 C   0  0  0  0  0  0  0  0  0  0  0  0
  161.3830  212.4950  146.2650 C   0  0  0  0  0  0  0  0  0  0  0  0
  159.1480  212.1730  145.3760 C   0  0  0  0  0  3  0  0  0  0  0  0
  160.9140  212.9930  143.9390 C   0  0  0  0  0  3  0  0  0  0  0  0
  159.5790  212.6150  144.1160 C   0  0  0  0  0  0  0  0  0  0  0  0
  161.8130  212.9330  145.0070 C   0  0  0  0  0  3  0  0  0  0  0  0
  160.0460  212.1120  146.4440 C   0  0  0  0  0  3  0  0  0  0  0  0
  158.8140  213.6900  142.0240 C   0  0  0  0  0  1  0  0  0  0  0  0
  158.7070  212.6900  143.0280 O   0  0  0  0  0  0  0  0  0  0  0  0
  161.6920  207.2740  150.5450 C   0  0  0  0  0  2  0  0  0  0  0  0
  160.5900  206.4030  149.9620 C   0  0  0  0  0  2  0  0  0  0  0  0
  161.1410  205.0550  149.5320 C   0  0  0  0  0  2  0  0  0  0  0  0
  160.9330  204.8800  148.0420 C   0  0  0  0  0  2  0  0  0  0  0  0
  162.2170  205.1850  147.2840 C   0  0  2  0  0  3  0  0  0  0  0  0
  162.2640  206.5570  147.0410 O   0  0  0  0  0  1  0  0  0  0  0  0
  163.4920  204.6560  145.3140 O   0  0  0  0  0  1  0  0  0  0  0  0
  162.2770  204.4010  145.9610 C   0  0  2  0  0  3  0  0  0  0  0  0
  161.1040  204.7130  145.0080 C   0  0  0  0  0  0  0  0  0  0  0  0
  161.6090  205.1390  143.7750 O   0  0  0  0  0  1  0  0  0  0  0  0
  160.3060  205.7280  145.5410 O   0  0  0  0  0  1  0  0  0  0  0  0
  160.2460  203.4800  144.8130 C   0  0  0  0  0  0  0  0  0  0  0  0
  159.2000  203.5590  144.1150 O   0  0  0  0  0  0  0  0  0  0  0  0
  160.0640  201.0060  144.8930 C   0  0  0  0  0  1  0  0  0  0  0  0
  160.5800  202.2390  145.3700 O   0  0  0  0  0  0  0  0  0  0  0  0
  1 10  1  6  0  0  0
  1 14  1  0  0  0  0
  2  9  2  0  0  0  0
  3 18  1  0  0  0  0
  4 19  1  0  0  0  0
  5 19  1  0  0  0  0
  6 29  1  1  0  0  0
  6 15  1  0  0  0  0
  7  5  1  0  0  0  0
  8 21  1  6  0  0  0
  8 13  1  0  0  0  0
  8 10  1  0  0  0  0
  9  1  1  0  0  0  0
 10 20  2  0  0  0  0
 13 12  1  1  0  0  0
 13  2  1  0  0  0  0
 14  3  1  1  0  0  0
 14 16  1  0  0  0  0
 15 16  1  0  0  0  0
 15 11  1  1  0  0  0
 16  4  1  6  0  0  0
 17  6  1  0  0  0  0
 18  7  1  0  0  0  0
 20 17  2  0  0  0  0
 21 26  1  0  0  0  0
 22 26  2  0  0  0  0
 23 24  2  0  0  0  0
 23 25  1  0  0  0  0
 24 22  1  0  0  0  0
 25 21  2  0  0  0  0
 27 28  1  0  0  0  0
 28 24  1  0  0  0  0
 30 29  1  0  0  0  0
 31 30  1  0  0  0  0
 32 31  1  0  0  0  0
 33 34  1  6  0  0  0
 33 32  1  0  0  0  0
 36 35  1  6  0  0  0
 36 33  1  0  0  0  0
 37 39  1  0  0  0  0
 37 36  1  0  0  0  0
 38 37  1  0  0  0  0
 40 37  1  0  0  0  0
 40 43  1  0  0  0  0
 41 40  2  0  0  0  0
 42 43  1  0  0  0  0
M  END
>  <MODEL>
3

>  <REMARK>
 VINA RESULT:      -5.0      1.736      2.444
  Name = 
  11 active torsions:
  status: ('A' for Active; 'I' for Inactive)
    1  A    between atoms: C_1  and  C_25
    2  A    between atoms: C_1  and  C_39
    3  A    between atoms: C_2  and  C_16
    4  A    between atoms: C_2  and  O_18
    5  A    between atoms: C_4  and  C_14
    6  A    between atoms: C_11  and  C_30
    7  A    between atoms: C_16  and  C_39
    8  A    between atoms: C_22  and  O_32
    9  A    between atoms: C_25  and  C_27
   10  A    between atoms: C_27  and  C_41
   11  A    between atoms: C_30  and  C_41
                            x       y       z     vdW  Elec       q    Type
                         _______ _______ _______ _____ _____    ______ ____

>  <TORSDO>
F 11

$$$$
=
 OpenBabel11042422213D

 43 46  0  0  1  0  0  0  0  0999 V2000
  161.5520  208.7730  154.0810 C   0  0  2  0  0  3  0  0  0  0  0  0
  161.3780  209.2870  156.3940 N   0  0  0  0  0  0  0  0  0  0  0  0
  160.2220  206.5600  153.7760 C   0  0  0  0  0  2  0  0  0  0  0  0
  161.2860  206.2950  151.0020 C   0  0  0  0  0  2  0  0  0  0  0  0
  160.6520  204.3640  151.8810 C   0  0  0  0  0  2  0  0  0  0  0  0
  161.4010  209.4070  150.4660 C   0  0  1  0  0  3  0  0  0  0  0  0
  160.8330  204.1480  153.3850 C   0  0  0  0  0  2  0  0  0  0  0  0
  161.0070  211.1910  154.8790 C   0  0  2  0  0  3  0  0  0  0  0  0
  161.3010  208.4400  155.4740 N   0  0  0  0  0  0  0  0  0  0  0  0
  161.0620  210.1700  153.7800 C   0  0  0  0  0  0  0  0  0  0  0  0
  163.4560  208.0670  150.2350 O   0  0  0  0  0  1  0  0  0  0  0  0
  163.4740  210.8760  155.9960 Cl  0  0  0  0  0  0  0  0  0  0  0  0
  161.7080  210.6790  156.1450 C   0  0  2  0  0  3  0  0  0  0  0  0
  160.9380  207.7400  153.0950 C   0  0  2  0  0  3  0  0  0  0  0  0
  162.4830  208.5160  151.1340 C   0  0  2  0  0  3  0  0  0  0  0  0
  161.9020  207.3350  151.9390 C   0  0  2  0  0  3  0  0  0  0  0  0
  161.2110  210.6710  151.2490 C   0  0  0  0  0  3  0  0  0  0  0  0
  161.1850  205.4340  154.1330 C   0  0  0  0  0  2  0  0  0  0  0  0
  161.7570  205.0220  151.3390 O   0  0  0  0  0  0  0  0  0  0  0  0
  161.0950  210.5490  152.5380 C   0  0  0  0  0  0  0  0  0  0  0  0
  159.5950  211.6120  155.1610 C   0  0  0  0  0  0  0  0  0  0  0  0
  157.2190  211.1350  155.2880 C   0  0  0  0  0  3  0  0  0  0  0  0
  158.0390  213.3490  155.8220 C   0  0  0  0  0  3  0  0  0  0  0  0
  156.9700  212.4560  155.6900 C   0  0  0  0  0  0  0  0  0  0  0  0
  159.3450  212.9300  155.5580 C   0  0  0  0  0  3  0  0  0  0  0  0
  158.5250  210.7160  155.0240 C   0  0  0  0  0  3  0  0  0  0  0  0
  155.2050  214.1830  155.5520 C   0  0  0  0  0  1  0  0  0  0  0  0
  155.6770  212.9070  155.9630 O   0  0  0  0  0  0  0  0  0  0  0  0
  161.6670  209.7510  149.0040 C   0  0  0  0  0  2  0  0  0  0  0  0
  162.3820  208.6150  148.2870 C   0  0  0  0  0  2  0  0  0  0  0  0
  161.4010  207.5240  147.8990 C   0  0  0  0  0  2  0  0  0  0  0  0
  162.1050  206.1830  147.9310 C   0  0  0  0  0  2  0  0  0  0  0  0
  161.2220  205.1030  147.3240 C   0  0  2  0  0  3  0  0  0  0  0  0
  161.2110  204.0100  148.1910 O   0  0  0  0  0  1  0  0  0  0  0  0
  162.9080  205.3870  145.6320 O   0  0  0  0  0  1  0  0  0  0  0  0
  161.7370  204.6820  145.9360 C   0  0  2  0  0  3  0  0  0  0  0  0
  160.7020  204.8790  144.8090 C   0  0  0  0  0  0  0  0  0  0  0  0
  161.3500  205.3440  143.6600 O   0  0  0  0  0  1  0  0  0  0  0  0
  159.7420  205.8190  145.1950 O   0  0  0  0  0  1  0  0  0  0  0  0
  160.0000  203.5710  144.5090 C   0  0  0  0  0  0  0  0  0  0  0  0
  158.9560  203.5780  143.8040 O   0  0  0  0  0  0  0  0  0  0  0  0
  159.7320  201.1340  144.8990 C   0  0  0  0  0  1  0  0  0  0  0  0
  160.4770  202.3400  144.9760 O   0  0  0  0  0  0  0  0  0  0  0  0
  1 10  1  6  0  0  0
  1  9  1  0  0  0  0
  3 18  1  0  0  0  0
  4 19  1  0  0  0  0
  5  7  1  0  0  0  0
  6 29  1  6  0  0  0
  6 15  1  0  0  0  0
  6 17  1  0  0  0  0
  7 18  1  0  0  0  0
  8 21  1  1  0  0  0
  8 13  1  0  0  0  0
  9  2  2  0  0  0  0
 10  8  1  0  0  0  0
 13 12  1  6  0  0  0
 13  2  1  0  0  0  0
 14  3  1  1  0  0  0
 14  1  1  0  0  0  0
 15 11  1  6  0  0  0
 15 16  1  0  0  0  0
 16  4  1  6  0  0  0
 16 14  1  0  0  0  0
 17 20  2  0  0  0  0
 19  5  1  0  0  0  0
 20 10  2  0  0  0  0
 21 25  1  0  0  0  0
 22 24  2  0  0  0  0
 24 23  1  0  0  0  0
 24 28  1  0  0  0  0
 25 23  2  0  0  0  0
 26 21  2  0  0  0  0
 26 22  1  0  0  0  0
 27 28  1  0  0  0  0
 30 29  1  0  0  0  0
 31 32  1  0  0  0  0
 31 30  1  0  0  0  0
 33 32  1  0  0  0  0
 33 34  1  1  0  0  0
 36 35  1  6  0  0  0
 36 33  1  0  0  0  0
 37 39  1  0  0  0  0
 37 36  1  0  0  0  0
 38 37  1  0  0  0  0
 40 37  1  0  0  0  0
 40 43  1  0  0  0  0
 41 40  2  0  0  0  0
 42 43  1  0  0  0  0
M  END
>  <MODEL>
4

>  <REMARK>
 VINA RESULT:      -4.8      3.909      7.024
  Name = 
  11 active torsions:
  status: ('A' for Active; 'I' for Inactive)
    1  A    between atoms: C_1  and  C_25
    2  A    between atoms: C_1  and  C_39
    3  A    between atoms: C_2  and  C_16
    4  A    between atoms: C_2  and  O_18
    5  A    between atoms: C_4  and  C_14
    6  A    between atoms: C_11  and  C_30
    7  A    between atoms: C_16  and  C_39
    8  A    between atoms: C_22  and  O_32
    9  A    between atoms: C_25  and  C_27
   10  A    between atoms: C_27  and  C_41
   11  A    between atoms: C_30  and  C_41
                            x       y       z     vdW  Elec       q    Type
                         _______ _______ _______ _____ _____    ______ ____

>  <TORSDO>
F 11

$$$$
=
 OpenBabel11042422213D

 43 46  0  0  1  0  0  0  0  0999 V2000
  161.5910  208.3900  153.3990 C   0  0  2  0  0  3  0  0  0  0  0  0
  161.2910  209.2060  155.6100 N   0  0  0  0  0  0  0  0  0  0  0  0
  160.2410  206.1700  153.3050 C   0  0  0  0  0  2  0  0  0  0  0  0
  161.4620  205.5310  150.6610 C   0  0  0  0  0  2  0  0  0  0  0  0
  160.7430  203.7390  151.7440 C   0  0  0  0  0  2  0  0  0  0  0  0
  161.6660  208.5440  149.7300 C   0  0  1  0  0  3  0  0  0  0  0  0
  160.8300  203.7220  153.2710 C   0  0  0  0  0  2  0  0  0  0  0  0
  161.0440  210.8980  153.8390 C   0  0  2  0  0  3  0  0  0  0  0  0
  161.2530  208.2460  154.8060 N   0  0  0  0  0  0  0  0  0  0  0  0
  161.1450  209.7400  152.8890 C   0  0  0  0  0  0  0  0  0  0  0  0
  163.7060  207.1640  149.8010 O   0  0  0  0  0  1  0  0  0  0  0  0
  163.4350  210.7060  155.1360 Cl  0  0  0  0  0  0  0  0  0  0  0  0
  161.6600  210.5490  155.2020 C   0  0  2  0  0  3  0  0  0  0  0  0
  161.0180  207.2420  152.5210 C   0  0  2  0  0  3  0  0  0  0  0  0
  162.6900  207.7370  150.5730 C   0  0  2  0  0  3  0  0  0  0  0  0
  162.0410  206.6790  151.4890 C   0  0  2  0  0  3  0  0  0  0  0  0
  161.4530  209.9020  150.3280 C   0  0  0  0  0  3  0  0  0  0  0  0
  161.1600  205.0910  153.8640 C   0  0  0  0  0  2  0  0  0  0  0  0
  161.8890  204.3090  151.1890 O   0  0  0  0  0  0  0  0  0  0  0  0
  161.2590  209.9520  151.6120 C   0  0  0  0  0  0  0  0  0  0  0  0
  159.6260  211.3670  153.9770 C   0  0  0  0  0  0  0  0  0  0  0  0
  157.4620  211.3010  155.0730 C   0  0  0  0  0  3  0  0  0  0  0  0
  157.8210  212.7800  153.1920 C   0  0  0  0  0  3  0  0  0  0  0  0
  156.9760  212.2700  154.1830 C   0  0  0  0  0  0  0  0  0  0  0  0
  159.1400  212.3310  153.0880 C   0  0  0  0  0  3  0  0  0  0  0  0
  158.7810  210.8500  154.9700 C   0  0  0  0  0  3  0  0  0  0  0  0
  155.2200  213.8960  153.5570 C   0  0  0  0  0  1  0  0  0  0  0  0
  155.6640  212.7430  154.2600 O   0  0  0  0  0  0  0  0  0  0  0  0
  162.0240  208.6900  148.2540 C   0  0  0  0  0  2  0  0  0  0  0  0
  162.2870  207.3370  147.6100 C   0  0  0  0  0  2  0  0  0  0  0  0
  160.9810  206.6600  147.2320 C   0  0  0  0  0  2  0  0  0  0  0  0
  161.2420  205.6460  146.1370 C   0  0  0  0  0  2  0  0  0  0  0  0
  162.0500  204.4750  146.6760 C   0  0  2  0  0  3  0  0  0  0  0  0
  163.3950  204.7030  146.3840 O   0  0  0  0  0  1  0  0  0  0  0  0
  160.8250  203.4040  144.9040 O   0  0  0  0  0  1  0  0  0  0  0  0
  161.5830  203.1470  146.0530 C   0  0  2  0  0  3  0  0  0  0  0  0
  160.7750  202.2620  147.0240 C   0  0  0  0  0  0  0  0  0  0  0  0
  159.4130  202.3640  146.7200 O   0  0  0  0  0  1  0  0  0  0  0  0
  160.9730  202.6860  148.3410 O   0  0  0  0  0  1  0  0  0  0  0  0
  161.2200  200.8200  146.9120 C   0  0  0  0  0  0  0  0  0  0  0  0
  161.6550  200.2250  147.9340 O   0  0  0  0  0  0  0  0  0  0  0  0
  161.2100  198.6900  145.6360 C   0  0  0  0  0  1  0  0  0  0  0  0
  161.1530  200.1070  145.7080 O   0  0  0  0  0  0  0  0  0  0  0  0
  1 10  1  6  0  0  0
  1  9  1  0  0  0  0
  3 18  1  0  0  0  0
  4 19  1  0  0  0  0
  5  7  1  0  0  0  0
  6 29  1  6  0  0  0
  6 17  1  0  0  0  0
  6 15  1  0  0  0  0
  7 18  1  0  0  0  0
  8 21  1  1  0  0  0
  8 13  1  0  0  0  0
  9  2  2  0  0  0  0
 10  8  1  0  0  0  0
 13 12  1  6  0  0  0
 13  2  1  0  0  0  0
 14  3  1  1  0  0  0
 14  1  1  0  0  0  0
 15 11  1  6  0  0  0
 15 16  1  0  0  0  0
 16  4  1  6  0  0  0
 16 14  1  0  0  0  0
 17 20  2  0  0  0  0
 19  5  1  0  0  0  0
 20 10  2  0  0  0  0
 21 26  1  0  0  0  0
 23 24  2  0  0  0  0
 24 28  1  0  0  0  0
 24 22  1  0  0  0  0
 25 23  1  0  0  0  0
 25 21  2  0  0  0  0
 26 22  2  0  0  0  0
 27 28  1  0  0  0  0
 30 29  1  0  0  0  0
 31 30  1  0  0  0  0
 32 33  1  0  0  0  0
 32 31  1  0  0  0  0
 33 34  1  6  0  0  0
 36 35  1  6  0  0  0
 36 33  1  0  0  0  0
 36 37  1  0  0  0  0
 37 39  1  0  0  0  0
 38 37  1  0  0  0  0
 40 37  1  0  0  0  0
 40 41  2  0  0  0  0
 42 43  1  0  0  0  0
 43 40  1  0  0  0  0
M  END
>  <MODEL>
5

>  <REMARK>
 VINA RESULT:      -4.6      3.895      6.448
  Name = 
  11 active torsions:
  status: ('A' for Active; 'I' for Inactive)
    1  A    between atoms: C_1  and  C_25
    2  A    between atoms: C_1  and  C_39
    3  A    between atoms: C_2  and  C_16
    4  A    between atoms: C_2  and  O_18
    5  A    between atoms: C_4  and  C_14
    6  A    between atoms: C_11  and  C_30
    7  A    between atoms: C_16  and  C_39
    8  A    between atoms: C_22  and  O_32
    9  A    between atoms: C_25  and  C_27
   10  A    between atoms: C_27  and  C_41
   11  A    between atoms: C_30  and  C_41
                            x       y       z     vdW  Elec       q    Type
                         _______ _______ _______ _____ _____    ______ ____

>  <TORSDO>
F 11

$$$$
=
 OpenBabel11042422213D

 43 46  0  0  1  0  0  0  0  0999 V2000
  161.6530  208.9330  153.7440 C   0  0  2  0  0  3  0  0  0  0  0  0
  161.5620  209.1360  156.1090 N   0  0  0  0  0  0  0  0  0  0  0  0
  160.3050  206.7780  153.1950 C   0  0  0  0  0  2  0  0  0  0  0  0
  161.2710  206.8850  150.3750 C   0  0  0  0  0  2  0  0  0  0  0  0
  160.6620  204.8530  151.0120 C   0  0  0  0  0  2  0  0  0  0  0  0
  161.3780  210.0400  150.2520 C   0  0  1  0  0  3  0  0  0  0  0  0
  160.8940  204.4410  152.4670 C   0  0  0  0  0  2  0  0  0  0  0  0
  161.1450  211.2240  154.8740 C   0  0  2  0  0  3  0  0  0  0  0  0
  161.4500  208.4190  155.0880 N   0  0  0  0  0  0  0  0  0  0  0  0
  161.1570  210.3570  153.6480 C   0  0  0  0  0  0  0  0  0  0  0  0
  163.4190  208.7450  149.7730 O   0  0  0  0  0  1  0  0  0  0  0  0
  163.6480  210.7660  155.8510 Cl  0  0  0  0  0  0  0  0  0  0  0  0
  161.8880  210.5490  156.0350 C   0  0  2  0  0  3  0  0  0  0  0  0
  161.0010  208.0390  152.6510 C   0  0  2  0  0  3  0  0  0  0  0  0
  162.4800  209.0700  150.7570 C   0  0  2  0  0  3  0  0  0  0  0  0
  161.9230  207.7920  151.4190 C   0  0  2  0  0  3  0  0  0  0  0  0
  161.2190  211.1890  151.2010 C   0  0  0  0  0  3  0  0  0  0  0  0
  161.2760  205.6170  153.3660 C   0  0  0  0  0  2  0  0  0  0  0  0
  161.7490  205.5790  150.5240 O   0  0  0  0  0  0  0  0  0  0  0  0
  161.1480  210.8970  152.4660 C   0  0  0  0  0  0  0  0  0  0  0  0
  159.7450  211.6020  155.2580 C   0  0  0  0  0  0  0  0  0  0  0  0
  158.0720  213.2650  155.8240 C   0  0  0  0  0  3  0  0  0  0  0  0
  157.4820  210.9190  155.7920 C   0  0  0  0  0  3  0  0  0  0  0  0
  157.1140  212.2530  155.9910 C   0  0  0  0  0  0  0  0  0  0  0  0
  158.7910  210.5930  155.4290 C   0  0  0  0  0  3  0  0  0  0  0  0
  159.3810  212.9410  155.4610 C   0  0  0  0  0  3  0  0  0  0  0  0
  155.4520  213.6430  157.1840 C   0  0  0  0  0  1  0  0  0  0  0  0
  155.7970  212.5440  156.3510 O   0  0  0  0  0  0  0  0  0  0  0  0
  161.5940  210.5760  148.8390 C   0  0  0  0  0  2  0  0  0  0  0  0
  162.7500  211.5630  148.7920 C   0  0  0  0  0  2  0  0  0  0  0  0
  162.7380  212.3420  147.4890 C   0  0  0  0  0  2  0  0  0  0  0  0
  161.6570  213.4020  147.5500 C   0  0  0  0  0  2  0  0  0  0  0  0
  160.7410  213.3000  146.3390 C   0  0  2  0  0  3  0  0  0  0  0  0
  161.4510  213.7330  145.2190 O   0  0  0  0  0  1  0  0  0  0  0  0
  159.3070  214.4530  147.8890 O   0  0  0  0  0  1  0  0  0  0  0  0
  159.4720  214.1480  146.5320 C   0  0  2  0  0  3  0  0  0  0  0  0
  158.1940  213.4750  145.9900 C   0  0  0  0  0  0  0  0  0  0  0  0
  158.4790  212.1500  145.6440 O   0  0  0  0  0  1  0  0  0  0  0  0
  157.7390  214.1480  144.8530 O   0  0  0  0  0  1  0  0  0  0  0  0
  157.1000  213.5090  147.0370 C   0  0  0  0  0  0  0  0  0  0  0  0
  156.1220  214.2880  146.8850 O   0  0  0  0  0  0  0  0  0  0  0  0
  156.8040  213.1520  149.4760 C   0  0  0  0  0  1  0  0  0  0  0  0
  157.1250  212.6890  148.1730 O   0  0  0  0  0  0  0  0  0  0  0  0
  1 10  1  1  0  0  0
  1  9  1  0  0  0  0
  3 18  1  0  0  0  0
  4 19  1  0  0  0  0
  5  7  1  0  0  0  0
  6 29  1  6  0  0  0
  6 15  1  0  0  0  0
  6 17  1  0  0  0  0
  7 18  1  0  0  0  0
  8 21  1  1  0  0  0
  8 13  1  0  0  0  0
  9  2  2  0  0  0  0
 10  8  1  0  0  0  0
 13 12  1  6  0  0  0
 13  2  1  0  0  0  0
 14  3  1  1  0  0  0
 14  1  1  0  0  0  0
 15 11  1  6  0  0  0
 15 16  1  0  0  0  0
 16  4  1  6  0  0  0
 16 14  1  0  0  0  0
 17 20  2  0  0  0  0
 19  5  1  0  0  0  0
 20 10  2  0  0  0  0
 21 25  2  0  0  0  0
 21 26  1  0  0  0  0
 22 24  1  0  0  0  0
 23 24  2  0  0  0  0
 24 28  1  0  0  0  0
 25 23  1  0  0  0  0
 26 22  2  0  0  0  0
 28 27  1  0  0  0  0
 30 29  1  0  0  0  0
 31 32  1  0  0  0  0
 31 30  1  0  0  0  0
 33 34  1  6  0  0  0
 33 36  1  0  0  0  0
 33 32  1  0  0  0  0
 36 35  1  1  0  0  0
 37 36  1  0  0  0  0
 37 40  1  0  0  0  0
 38 37  1  0  0  0  0
 39 37  1  0  0  0  0
 40 43  1  0  0  0  0
 41 40  2  0  0  0  0
 43 42  1  0  0  0  0
M  END
>  <MODEL>
6

>  <REMARK>
 VINA RESULT:      -4.1      3.490      9.289
  Name = 
  11 active torsions:
  status: ('A' for Active; 'I' for Inactive)
    1  A    between atoms: C_1  and  C_25
    2  A    between atoms: C_1  and  C_39
    3  A    between atoms: C_2  and  C_16
    4  A    between atoms: C_2  and  O_18
    5  A    between atoms: C_4  and  C_14
    6  A    between atoms: C_11  and  C_30
    7  A    between atoms: C_16  and  C_39
    8  A    between atoms: C_22  and  O_32
    9  A    between atoms: C_25  and  C_27
   10  A    between atoms: C_27  and  C_41
   11  A    between atoms: C_30  and  C_41
                            x       y       z     vdW  Elec       q    Type
                         _______ _______ _______ _____ _____    ______ ____

>  <TORSDO>
F 11

$$$$
=
 OpenBabel11042422213D

 43 46  0  0  1  0  0  0  0  0999 V2000
  160.6480  209.4830  152.1340 C   0  0  2  0  0  3  0  0  0  0  0  0
  160.1940  211.7110  152.8190 N   0  0  0  0  0  0  0  0  0  0  0  0
  162.3840  209.7040  150.2110 C   0  0  0  0  0  2  0  0  0  0  0  0
  162.0470  206.8120  149.5650 C   0  0  0  0  0  2  0  0  0  0  0  0
  162.7960  208.0060  147.8560 C   0  0  0  0  0  2  0  0  0  0  0  0
  161.5060  205.9360  152.5520 C   0  0  1  0  0  3  0  0  0  0  0  0
  162.3180  209.4510  147.7070 C   0  0  0  0  0  2  0  0  0  0  0  0
  160.5560  210.1160  154.6580 C   0  0  2  0  0  3  0  0  0  0  0  0
  160.6280  210.9240  151.9470 N   0  0  0  0  0  0  0  0  0  0  0  0
  160.9370  209.1460  153.5780 C   0  0  0  0  0  0  0  0  0  0  0  0
  159.8300  205.4170  150.8210 O   0  0  0  0  0  1  0  0  0  0  0  0
  157.9960  210.7110  153.9350 Cl  0  0  0  0  0  0  0  0  0  0  0  0
  159.6870  211.2510  154.1000 C   0  0  2  0  0  3  0  0  0  0  0  0
  161.6440  208.7650  151.1810 C   0  0  2  0  0  3  0  0  0  0  0  0
  160.4760  206.4490  151.5090 C   0  0  2  0  0  3  0  0  0  0  0  0
  161.0580  207.4810  150.5210 C   0  0  2  0  0  3  0  0  0  0  0  0
  161.2840  206.6020  153.8760 C   0  0  0  0  0  3  0  0  0  0  0  0
  161.5810  209.9660  148.9430 C   0  0  0  0  0  2  0  0  0  0  0  0
  161.7460  207.1750  148.2480 O   0  0  0  0  0  0  0  0  0  0  0  0
  161.1220  207.8920  153.8620 C   0  0  0  0  0  0  0  0  0  0  0  0
  161.7680  210.6450  155.3660 C   0  0  0  0  0  0  0  0  0  0  0  0
  162.8130  211.7480  157.2590 C   0  0  0  0  0  3  0  0  0  0  0  0
  164.1630  211.0200  155.3870 C   0  0  0  0  0  3  0  0  0  0  0  0
  164.0680  211.6300  156.6420 C   0  0  0  0  0  0  0  0  0  0  0  0
  163.0190  210.5310  154.7510 C   0  0  0  0  0  3  0  0  0  0  0  0
  161.6690  211.2590  156.6230 C   0  0  0  0  0  3  0  0  0  0  0  0
  166.3490  212.5760  156.5100 C   0  0  0  0  0  1  0  0  0  0  0  0
  165.2310  212.1060  157.2510 O   0  0  0  0  0  0  0  0  0  0  0  0
  161.5240  204.4220  152.7430 C   0  0  0  0  0  2  0  0  0  0  0  0
  161.3760  203.6930  151.4150 C   0  0  0  0  0  2  0  0  0  0  0  0
  161.1580  202.2080  151.6390 C   0  0  0  0  0  2  0  0  0  0  0  0
  161.2560  201.4820  150.3130 C   0  0  0  0  0  2  0  0  0  0  0  0
  160.1910  201.9860  149.3490 C   0  0  2  0  0  3  0  0  0  0  0  0
  159.0210  201.2610  149.5750 O   0  0  0  0  0  1  0  0  0  0  0  0
  161.5610  200.7700  147.7890 O   0  0  0  0  0  1  0  0  0  0  0  0
  160.6480  201.8270  147.8880 C   0  0  2  0  0  3  0  0  0  0  0  0
  161.2680  203.1090  147.2950 C   0  0  0  0  0  0  0  0  0  0  0  0
  162.6060  203.2040  147.6920 O   0  0  0  0  0  1  0  0  0  0  0  0
  160.5830  204.2360  147.7570 O   0  0  0  0  0  1  0  0  0  0  0  0
  161.1830  203.0810  145.7830 C   0  0  0  0  0  0  0  0  0  0  0  0
  160.4610  202.2150  145.2210 O   0  0  0  0  0  0  0  0  0  0  0  0
  161.3260  205.2520  144.5860 C   0  0  0  0  0  1  0  0  0  0  0  0
  161.8680  203.9990  144.9770 O   0  0  0  0  0  0  0  0  0  0  0  0
  1  9  1  1  0  0  0
  1 10  1  0  0  0  0
  2 13  1  0  0  0  0
  5 19  1  0  0  0  0
  6 29  1  1  0  0  0
  6 17  1  0  0  0  0
  7  5  1  0  0  0  0
  7 18  1  0  0  0  0
  8 21  1  6  0  0  0
  9  2  2  0  0  0  0
 10 20  2  0  0  0  0
 10  8  1  0  0  0  0
 13 12  1  6  0  0  0
 13  8  1  0  0  0  0
 14  3  1  6  0  0  0
 14  1  1  0  0  0  0
 15 11  1  6  0  0  0
 15  6  1  0  0  0  0
 16  4  1  1  0  0  0
 16 14  1  0  0  0  0
 16 15  1  0  0  0  0
 18  3  1  0  0  0  0
 19  4  1  0  0  0  0
 20 17  2  0  0  0  0
 21 26  1  0  0  0  0
 23 24  2  0  0  0  0
 24 28  1  0  0  0  0
 24 22  1  0  0  0  0
 25 21  2  0  0  0  0
 25 23  1  0  0  0  0
 26 22  2  0  0  0  0
 27 28  1  0  0  0  0
 30 31  1  0  0  0  0
 30 29  1  0  0  0  0
 32 31  1  0  0  0  0
 33 34  1  6  0  0  0
 33 32  1  0  0  0  0
 36 35  1  1  0  0  0
 36 33  1  0  0  0  0
 37 38  1  0  0  0  0
 37 39  1  0  0  0  0
 37 36  1  0  0  0  0
 40 37  1  0  0  0  0
 41 40  2  0  0  0  0
 42 43  1  0  0  0  0
 43 40  1  0  0  0  0
M  END
>  <MODEL>
7

>  <REMARK>
 VINA RESULT:      -4.0      3.512      6.938
  Name = 
  11 active torsions:
  status: ('A' for Active; 'I' for Inactive)
    1  A    between atoms: C_1  and  C_25
    2  A    between atoms: C_1  and  C_39
    3  A    between atoms: C_2  and  C_16
    4  A    between atoms: C_2  and  O_18
    5  A    between atoms: C_4  and  C_14
    6  A    between atoms: C_11  and  C_30
    7  A    between atoms: C_16  and  C_39
    8  A    between atoms: C_22  and  O_32
    9  A    between atoms: C_25  and  C_27
   10  A    between atoms: C_27  and  C_41
   11  A    between atoms: C_30  and  C_41
                            x       y       z     vdW  Elec       q    Type
                         _______ _______ _______ _____ _____    ______ ____

>  <TORSDO>
F 11

$$$$
