=
 OpenBabel11042422243D

 64 70  0  0  1  0  0  0  0  0999 V2000
  159.2560  211.2650  152.0910 C   0  0  2  0  0  3  0  0  0  0  0  0
  160.2980  211.4640  154.6670 C   0  0  0  0  0  3  0  0  0  0  0  0
  161.4790  211.5030  151.2270 C   0  0  1  0  0  3  0  0  0  0  0  0
  160.3430  212.1760  151.9850 C   0  0  2  0  0  0  0  0  0  0  0  0
  160.0470  211.5960  153.3620 C   0  0  0  0  0  0  0  0  0  0  0  0
  160.9960  210.2010  150.7710 N   0  0  2  0  0  0  0  0  0  0  0  0
  159.7550  209.9560  151.5090 C   0  0  0  0  0  2  0  0  0  0  0  0
  160.7580  205.9560  150.2290 C   0  0  0  0  0  3  0  0  0  0  0  0
  160.8240  204.1550  151.9800 C   0  0  0  0  0  0  0  0  0  0  0  0
  161.5390  207.1500  152.2100 C   0  0  0  0  0  0  0  0  0  0  0  0
  162.0520  208.0700  150.1050 C   0  0  0  0  0  2  0  0  0  0  0  0
  161.8740  206.7420  150.8330 C   0  0  2  0  0  3  0  0  0  0  0  0
  161.9900  209.1920  151.1590 C   0  0  2  0  0  3  0  0  0  0  0  0
  161.2390  204.8400  153.0590 C   0  0  0  0  0  3  0  0  0  0  0  0
  160.3270  204.7980  150.7360 C   0  0  0  0  0  3  0  0  0  0  0  0
  161.3240  206.3050  153.2130 C   0  0  0  0  0  3  0  0  0  0  0  0
  161.6140  208.5460  152.4080 N   0  0  0  0  0  2  0  0  0  0  0  0
  160.8530  202.7570  152.0830 O   0  0  0  0  0  0  0  0  0  0  0  0
  161.4760  201.3600  150.1900 N   0  0  0  0  0  2  0  0  0  0  0  0
  162.9100  201.6880  151.9890 O   0  0  0  0  0  0  0  0  0  0  0  0
  161.7870  201.9200  151.4630 C   0  0  0  0  0  0  0  0  0  0  0  0
  161.9650  201.9430  148.9530 C   0  0  2  0  0  3  0  0  0  0  0  0
  161.0160  203.0120  148.4890 C   0  0  2  0  0  3  0  0  0  0  0  0
  161.8300  200.9250  147.8510 C   0  0  0  0  0  2  0  0  0  0  0  0
  160.4970  200.9320  147.4250 O   0  0  0  0  0  0  0  0  0  0  0  0
  160.0160  202.2390  147.6450 C   0  0  0  0  0  2  0  0  0  0  0  0
  161.6970  203.9120  147.6640 O   0  0  0  0  0  0  0  0  0  0  0  0
  160.9190  204.0190  146.5050 C   0  0  0  0  0  2  0  0  0  0  0  0
  162.4060  206.0000  146.4800 C   0  0  0  0  0  1  0  0  0  0  0  0
  161.3870  205.2100  145.6850 C   0  0  2  0  0  3  0  0  0  0  0  0
  160.3050  206.0320  145.3700 O   0  0  0  0  0  1  0  0  0  0  0  0
  159.9480  213.6090  151.7610 C   0  0  0  0  0  0  0  0  0  0  0  0
  159.2910  214.0190  150.4860 C   0  0  0  0  0  1  0  0  0  0  0  0
  160.1930  214.4530  152.6090 O   0  0  0  0  0  0  0  0  0  0  0  0
  159.4760  210.5700  155.5470 C   0  0  2  0  0  3  0  0  0  0  0  0
  158.3130  211.2260  155.9600 O   0  0  0  0  0  0  0  0  0  0  0  0
  158.4630  211.3820  157.2590 O   0  0  0  0  0  1  0  0  0  0  0  0
  160.2880  210.1140  156.7540 C   0  0  0  0  0  2  0  0  0  0  0  0
  161.1440  208.9000  156.4210 C   0  0  0  0  0  2  0  0  0  0  0  0
  160.5960  207.6460  157.0860 C   0  0  0  0  0  2  0  0  0  0  0  0
  159.5910  206.9570  156.1820 C   0  0  0  0  0  1  0  0  0  0  0  0
  161.9080  212.2950  150.0820 N   0  0  0  0  0  2  0  0  0  0  0  0
  160.7490  211.3370  148.1460 C   0  0  0  0  0  2  0  0  0  0  0  0
  162.8930  212.4520  146.7770 C   0  0  0  0  0  2  0  0  0  0  0  0
  163.2630  211.7820  148.1030 C   0  0  0  0  0  2  0  0  0  0  0  0
  162.0480  211.3810  148.9580 C   0  0  1  0  0  3  0  0  0  0  0  0
  161.7180  213.4070  146.9650 C   0  0  2  0  0  3  0  0  0  0  0  0
  160.4540  212.6680  147.4370 C   0  0  0  0  0  2  0  0  0  0  0  0
  160.5460  213.5960  144.7320 C   0  0  0  0  0  0  0  0  0  0  0  0
  159.9660  212.4900  144.9010 O   0  0  0  0  0  0  0  0  0  0  0  0
  161.4490  214.1020  145.7160 N   0  0  0  0  0  2  0  0  0  0  0  0
  160.2930  214.3910  143.4970 C   0  0  0  0  0  2  0  0  0  0  0  0
  158.7740  213.9700  141.6050 C   0  0  0  0  0  2  0  0  0  0  0  0
  160.0350  213.4770  142.3010 C   0  0  1  0  0  3  0  0  0  0  0  0
  161.1700  213.5280  141.3580 N   0  0  0  0  0  0  0  0  0  0  0  0
  159.5150  212.6440  139.6860 C   0  0  0  0  0  0  0  0  0  0  0  0
  158.4910  213.1600  140.4780 O   0  0  0  0  0  0  0  0  0  0  0  0
  160.9570  212.7280  140.1310 C   0  0  1  0  0  3  0  0  0  0  0  0
  159.2210  212.0340  138.6230 O   0  0  0  0  0  0  0  0  0  0  0  0
  161.6490  214.4410  138.6140 O   0  0  0  0  0  1  0  0  0  0  0  0
  161.8130  213.2610  139.0200 C   0  0  0  0  0  0  0  0  0  0  0  0
  162.7870  212.4570  138.4360 O   0  0  0  0  0  0  0  0  0  0  0  0
  162.3790  213.0120  142.0160 C   0  0  0  0  0  2  0  0  0  0  0  0
  163.3510  214.0140  142.1510 O   0  0  0  0  0  1  0  0  0  0  0  0
  1  7  1  6  0  0  0
  1  5  1  0  0  0  0
  3 42  1  6  0  0  0
  3  4  1  0  0  0  0
  4 32  1  6  0  0  0
  4  1  1  0  0  0  0
  4  5  1  0  0  0  0
  5  2  2  0  0  0  0
  6 13  1  0  0  0  0
  6  3  1  0  0  0  0
  6  7  1  1  0  0  0
  8 15  2  0  0  0  0
  8 12  1  0  0  0  0
  9 18  1  0  0  0  0
  9 14  2  0  0  0  0
 10 17  1  0  0  0  0
 10 16  2  0  0  0  0
 12 11  1  6  0  0  0
 12 10  1  0  0  0  0
 13 11  1  6  0  0  0
 13 17  1  0  0  0  0
 14 16  1  0  0  0  0
 15  9  1  0  0  0  0
 19 21  1  0  0  0  0
 21 20  2  0  0  0  0
 21 18  1  0  0  0  0
 22 19  1  1  0  0  0
 23 27  1  6  0  0  0
 23 22  1  0  0  0  0
 24 22  1  0  0  0  0
 25 26  1  0  0  0  0
 25 24  1  0  0  0  0
 26 23  1  0  0  0  0
 28 27  1  0  0  0  0
 30 29  1  1  0  0  0
 30 28  1  0  0  0  0
 31 30  1  0  0  0  0
 32 34  2  0  0  0  0
 33 32  1  0  0  0  0
 35  2  1  6  0  0  0
 35 36  1  0  0  0  0
 35 38  1  0  0  0  0
 36 37  1  0  0  0  0
 39 38  1  0  0  0  0
 39 40  1  0  0  0  0
 41 40  1  0  0  0  0
 43 46  1  0  0  0  0
 44 47  1  0  0  0  0
 44 45  1  0  0  0  0
 45 46  1  0  0  0  0
 46 42  1  1  0  0  0
 47 51  1  6  0  0  0
 47 48  1  0  0  0  0
 48 43  1  0  0  0  0
 49 50  2  0  0  0  0
 49 51  1  0  0  0  0
 52 49  1  0  0  0  0
 53 54  1  0  0  0  0
 54 52  1  1  0  0  0
 55 63  1  0  0  0  0
 55 54  1  0  0  0  0
 56 58  1  0  0  0  0
 56 57  1  0  0  0  0
 57 53  1  0  0  0  0
 58 61  1  6  0  0  0
 58 55  1  0  0  0  0
 59 56  2  0  0  0  0
 60 61  1  0  0  0  0
 62 61  2  0  0  0  0
 63 64  1  0  0  0  0
M  END
>  <MODEL>
1

>  <REMARK>
 VINA RESULT:      -2.6      0.000      0.000
  Name = 
  20 active torsions:
  status: ('A' for Active; 'I' for Inactive)
    1  A    between atoms: C_1  and  C_38
    2  A    between atoms: N_5  and  C_6
    3  A    between atoms: C_7  and  C_47
    4  A    between atoms: C_13  and  C_51
    5  A    between atoms: C_14  and  C_38
    6  A    between atoms: C_14  and  C_47
    7  A    between atoms: C_15  and  N_50
    8  A    between atoms: C_16  and  O_55
    9  A    between atoms: C_17  and  C_51
   10  A    between atoms: C_18  and  C_30
   11  A    between atoms: N_19  and  C_28
   12  A    between atoms: C_21  and  O_35
   13  A    between atoms: C_25  and  N_50
   14  A    between atoms: N_27  and  C_33
   15  A    between atoms: C_29  and  C_36
   16  A    between atoms: O_32  and  C_47
   17  A    between atoms: O_35  and  C_43
   18  A    between atoms: C_41  and  N_57
   19  A    between atoms: O_55  and  C_56
   20  A    between atoms: C_56  and  C_63
                            x       y       z     vdW  Elec       q    Type
                         _______ _______ _______ _____ _____    ______ ____

>  <TORSDO>
F 20

$$$$
=
 OpenBabel11042422243D

 64 70  0  0  1  0  0  0  0  0999 V2000
  159.5310  211.4480  151.5890 C   0  0  2  0  0  3  0  0  0  0  0  0
  160.6770  211.6280  154.1220 C   0  0  0  0  0  3  0  0  0  0  0  0
  161.7070  211.7660  150.6370 C   0  0  1  0  0  3  0  0  0  0  0  0
  160.5860  212.3910  151.4560 C   0  0  2  0  0  0  0  0  0  0  0  0
  160.3660  211.7780  152.8330 C   0  0  0  0  0  0  0  0  0  0  0  0
  161.2420  210.4590  150.1760 N   0  0  2  0  0  0  0  0  0  0  0  0
  160.0410  210.1650  150.9620 C   0  0  0  0  0  2  0  0  0  0  0  0
  160.8430  206.1930  150.3000 C   0  0  0  0  0  3  0  0  0  0  0  0
  161.2330  204.6470  152.2430 C   0  0  0  0  0  0  0  0  0  0  0  0
  162.0190  207.6130  151.9000 C   0  0  0  0  0  0  0  0  0  0  0  0
  162.1150  208.2160  149.6270 C   0  0  0  0  0  2  0  0  0  0  0  0
  162.0680  207.0080  150.5560 C   0  0  2  0  0  3  0  0  0  0  0  0
  162.2800  209.4720  150.5010 C   0  0  2  0  0  3  0  0  0  0  0  0
  161.8640  205.4560  153.1100 C   0  0  0  0  0  3  0  0  0  0  0  0
  160.5070  205.1340  151.0410 C   0  0  0  0  0  3  0  0  0  0  0  0
  161.9980  206.9230  153.0350 C   0  0  0  0  0  3  0  0  0  0  0  0
  162.1510  209.0190  151.8790 N   0  0  0  0  0  2  0  0  0  0  0  0
  161.2630  203.2770  152.5350 O   0  0  0  0  0  0  0  0  0  0  0  0
  161.0500  202.0100  150.4680 N   0  0  0  0  0  2  0  0  0  0  0  0
  162.8040  201.6440  151.9480 O   0  0  0  0  0  0  0  0  0  0  0  0
  161.7470  202.2780  151.6820 C   0  0  0  0  0  0  0  0  0  0  0  0
  161.4810  202.5670  149.1970 C   0  0  2  0  0  3  0  0  0  0  0  0
  160.3070  202.6590  148.2630 C   0  0  2  0  0  3  0  0  0  0  0  0
  162.3440  201.5530  148.4920 C   0  0  0  0  0  2  0  0  0  0  0  0
  161.4970  200.6160  147.8900 O   0  0  0  0  0  0  0  0  0  0  0  0
  160.3020  201.3000  147.5840 C   0  0  0  0  0  2  0  0  0  0  0  0
  160.5560  203.6400  147.2990 O   0  0  0  0  0  0  0  0  0  0  0  0
  161.7660  204.2350  147.6750 C   0  0  0  0  0  2  0  0  0  0  0  0
  161.9220  204.1670  145.2040 C   0  0  0  0  0  1  0  0  0  0  0  0
  162.4330  204.8510  146.4560 C   0  0  2  0  0  3  0  0  0  0  0  0
  163.8170  204.6980  146.5370 O   0  0  0  0  0  1  0  0  0  0  0  0
  160.1410  213.8170  151.2770 C   0  0  0  0  0  0  0  0  0  0  0  0
  159.2340  214.4530  152.2750 C   0  0  0  0  0  1  0  0  0  0  0  0
  160.4930  214.4500  150.2940 O   0  0  0  0  0  0  0  0  0  0  0  0
  159.9180  210.6950  155.0190 C   0  0  2  0  0  3  0  0  0  0  0  0
  160.1120  209.3690  154.6200 O   0  0  0  0  0  0  0  0  0  0  0  0
  159.9020  208.6600  155.7110 O   0  0  0  0  0  1  0  0  0  0  0  0
  158.4340  211.0400  155.0170 C   0  0  0  0  0  2  0  0  0  0  0  0
  157.9360  211.3580  156.4210 C   0  0  0  0  0  2  0  0  0  0  0  0
  157.0620  212.6040  156.4210 C   0  0  0  0  0  2  0  0  0  0  0  0
  155.6310  212.2520  156.0590 C   0  0  0  0  0  1  0  0  0  0  0  0
  162.0640  212.5910  149.4910 N   0  0  0  0  0  2  0  0  0  0  0  0
  160.8080  211.5420  147.6660 C   0  0  0  0  0  2  0  0  0  0  0  0
  162.6840  212.8680  146.1060 C   0  0  0  0  0  2  0  0  0  0  0  0
  163.2500  212.2260  147.3750 C   0  0  0  0  0  2  0  0  0  0  0  0
  162.1740  211.7030  148.3420 C   0  0  1  0  0  3  0  0  0  0  0  0
  161.4490  213.7040  146.4300 C   0  0  2  0  0  3  0  0  0  0  0  0
  160.3170  212.8430  147.0140 C   0  0  0  0  0  2  0  0  0  0  0  0
  160.3940  213.6820  144.1310 C   0  0  0  0  0  0  0  0  0  0  0  0
  160.2780  212.4270  144.1560 O   0  0  0  0  0  0  0  0  0  0  0  0
  160.9890  214.3800  145.2270 N   0  0  0  0  0  2  0  0  0  0  0  0
  159.9090  214.4530  142.9530 C   0  0  0  0  0  2  0  0  0  0  0  0
  162.1430  213.7250  142.2160 C   0  0  0  0  0  2  0  0  0  0  0  0
  160.7760  214.1810  141.7250 C   0  0  1  0  0  3  0  0  0  0  0  0
  160.1740  213.1220  140.8910 N   0  0  0  0  0  0  0  0  0  0  0  0
  162.4900  212.8760  139.9470 C   0  0  0  0  0  0  0  0  0  0  0  0
  162.9900  213.4490  141.1140 O   0  0  0  0  0  0  0  0  0  0  0  0
  161.0010  212.7470  139.7230 C   0  0  1  0  0  3  0  0  0  0  0  0
  163.2940  212.5320  139.0390 O   0  0  0  0  0  0  0  0  0  0  0  0
  160.2770  210.5060  140.1330 O   0  0  0  0  0  1  0  0  0  0  0  0
  160.6610  211.3530  139.2850 C   0  0  0  0  0  0  0  0  0  0  0  0
  160.7680  210.9910  137.9450 O   0  0  0  0  0  0  0  0  0  0  0  0
  158.8730  213.5790  140.3820 C   0  0  0  0  0  2  0  0  0  0  0  0
  158.8630  213.6240  138.9810 O   0  0  0  0  0  1  0  0  0  0  0  0
  1  7  1  6  0  0  0
  1  5  1  0  0  0  0
  3 42  1  6  0  0  0
  3  4  1  0  0  0  0
  4 32  1  6  0  0  0
  4  1  1  0  0  0  0
  4  5  1  0  0  0  0
  5  2  2  0  0  0  0
  6 13  1  0  0  0  0
  6  3  1  0  0  0  0
  6  7  1  1  0  0  0
  8 12  1  0  0  0  0
  8 15  2  0  0  0  0
  9 18  1  0  0  0  0
  9 14  2  0  0  0  0
 10 16  2  0  0  0  0
 12 11  1  6  0  0  0
 12 10  1  0  0  0  0
 13 11  1  6  0  0  0
 13 17  1  0  0  0  0
 15  9  1  0  0  0  0
 16 14  1  0  0  0  0
 17 10  1  0  0  0  0
 19 21  1  0  0  0  0
 21 20  2  0  0  0  0
 21 18  1  0  0  0  0
 22 19  1  1  0  0  0
 23 27  1  6  0  0  0
 23 22  1  0  0  0  0
 24 22  1  0  0  0  0
 25 24  1  0  0  0  0
 26 25  1  0  0  0  0
 26 23  1  0  0  0  0
 27 28  1  0  0  0  0
 30 29  1  6  0  0  0
 30 31  1  0  0  0  0
 30 28  1  0  0  0  0
 32 33  1  0  0  0  0
 34 32  2  0  0  0  0
 35  2  1  6  0  0  0
 36 35  1  0  0  0  0
 36 37  1  0  0  0  0
 38 35  1  0  0  0  0
 38 39  1  0  0  0  0
 40 39  1  0  0  0  0
 41 40  1  0  0  0  0
 43 46  1  0  0  0  0
 44 47  1  0  0  0  0
 44 45  1  0  0  0  0
 45 46  1  0  0  0  0
 46 42  1  1  0  0  0
 47 51  1  6  0  0  0
 47 48  1  0  0  0  0
 48 43  1  0  0  0  0
 49 50  2  0  0  0  0
 49 51  1  0  0  0  0
 52 49  1  0  0  0  0
 54 53  1  0  0  0  0
 54 52  1  1  0  0  0
 55 54  1  0  0  0  0
 56 57  1  0  0  0  0
 57 53  1  0  0  0  0
 58 61  1  1  0  0  0
 58 56  1  0  0  0  0
 58 55  1  0  0  0  0
 59 56  2  0  0  0  0
 61 60  1  0  0  0  0
 62 61  2  0  0  0  0
 63 55  1  0  0  0  0
 64 63  1  0  0  0  0
M  END
>  <MODEL>
2

>  <REMARK>
 VINA RESULT:      -1.4      1.396      2.231
  Name = 
  20 active torsions:
  status: ('A' for Active; 'I' for Inactive)
    1  A    between atoms: C_1  and  C_38
    2  A    between atoms: N_5  and  C_6
    3  A    between atoms: C_7  and  C_47
    4  A    between atoms: C_13  and  C_51
    5  A    between atoms: C_14  and  C_38
    6  A    between atoms: C_14  and  C_47
    7  A    between atoms: C_15  and  N_50
    8  A    between atoms: C_16  and  O_55
    9  A    between atoms: C_17  and  C_51
   10  A    between atoms: C_18  and  C_30
   11  A    between atoms: N_19  and  C_28
   12  A    between atoms: C_21  and  O_35
   13  A    between atoms: C_25  and  N_50
   14  A    between atoms: N_27  and  C_33
   15  A    between atoms: C_29  and  C_36
   16  A    between atoms: O_32  and  C_47
   17  A    between atoms: O_35  and  C_43
   18  A    between atoms: C_41  and  N_57
   19  A    between atoms: O_55  and  C_56
   20  A    between atoms: C_56  and  C_63
                            x       y       z     vdW  Elec       q    Type
                         _______ _______ _______ _____ _____    ______ ____

>  <TORSDO>
F 20

$$$$
=
 OpenBabel11042422243D

 64 70  0  0  1  0  0  0  0  0999 V2000
  160.7930  211.0870  154.9560 C   0  0  2  0  0  3  0  0  0  0  0  0
  158.2010  211.8520  155.6330 C   0  0  0  0  0  3  0  0  0  0  0  0
  159.8780  209.6830  153.2430 C   0  0  1  0  0  3  0  0  0  0  0  0
  159.9940  209.9310  154.7400 C   0  0  2  0  0  0  0  0  0  0  0  0
  159.2910  211.1830  155.2480 C   0  0  0  0  0  0  0  0  0  0  0  0
  160.7340  210.6540  152.5660 N   0  0  2  0  0  0  0  0  0  0  0  0
  161.0780  211.6550  153.5780 C   0  0  0  0  0  2  0  0  0  0  0  0
  161.9080  211.4220  148.5150 C   0  0  0  0  0  3  0  0  0  0  0  0
  162.0470  213.6310  147.3250 C   0  0  0  0  0  0  0  0  0  0  0  0
  160.7020  212.9260  150.0140 C   0  0  0  0  0  0  0  0  0  0  0  0
  160.2180  210.6270  150.1510 C   0  0  0  0  0  2  0  0  0  0  0  0
  160.5980  211.7250  149.1640 C   0  0  2  0  0  3  0  0  0  0  0  0
  159.9400  211.2950  151.5100 C   0  0  2  0  0  3  0  0  0  0  0  0
  161.3940  214.4390  148.1760 C   0  0  0  0  0  3  0  0  0  0  0  0
  162.5190  212.2670  147.6820 C   0  0  0  0  0  3  0  0  0  0  0  0
  160.9880  214.1430  149.5640 C   0  0  0  0  0  3  0  0  0  0  0  0
  160.3180  212.6920  151.3520 N   0  0  0  0  0  2  0  0  0  0  0  0
  162.3010  214.1480  146.0470 O   0  0  0  0  0  0  0  0  0  0  0  0
  161.8190  212.5350  144.2900 N   0  0  0  0  0  2  0  0  0  0  0  0
  163.9140  213.5190  144.5020 O   0  0  0  0  0  0  0  0  0  0  0  0
  162.7390  213.4040  144.9460 C   0  0  0  0  0  0  0  0  0  0  0  0
  161.1210  212.9290  143.0780 C   0  0  2  0  0  3  0  0  0  0  0  0
  161.0560  211.7640  142.1320 C   0  0  2  0  0  3  0  0  0  0  0  0
  161.9920  213.8890  142.3090 C   0  0  0  0  0  2  0  0  0  0  0  0
  162.9470  213.1370  141.6150 O   0  0  0  0  0  0  0  0  0  0  0  0
  162.3480  211.8890  141.3430 C   0  0  0  0  0  2  0  0  0  0  0  0
  159.9790  211.9350  141.2570 O   0  0  0  0  0  0  0  0  0  0  0  0
  159.5830  213.2690  141.4090 C   0  0  0  0  0  2  0  0  0  0  0  0
  159.0510  214.2300  139.1890 C   0  0  0  0  0  1  0  0  0  0  0  0
  158.4650  213.5850  140.4290 C   0  0  2  0  0  3  0  0  0  0  0  0
  157.5430  214.4530  141.0140 O   0  0  0  0  0  1  0  0  0  0  0  0
  160.2000  208.8250  155.7380 C   0  0  0  0  0  0  0  0  0  0  0  0
  161.3900  208.8350  156.6380 C   0  0  0  0  0  1  0  0  0  0  0  0
  159.4120  207.8940  155.7930 O   0  0  0  0  0  0  0  0  0  0  0  0
  158.2610  213.2890  156.0570 C   0  0  2  0  0  3  0  0  0  0  0  0
  159.0610  213.4310  157.1940 O   0  0  0  0  0  0  0  0  0  0  0  0
  159.9090  214.3920  156.8860 O   0  0  0  0  0  1  0  0  0  0  0  0
  156.8590  213.8270  156.3230 C   0  0  0  0  0  2  0  0  0  0  0  0
  156.0730  212.8990  157.2400 C   0  0  0  0  0  2  0  0  0  0  0  0
  154.5830  213.1990  157.1720 C   0  0  0  0  0  2  0  0  0  0  0  0
  154.3190  214.4010  156.2840 C   0  0  0  0  0  1  0  0  0  0  0  0
  160.2910  208.3320  152.8860 N   0  0  0  0  0  2  0  0  0  0  0  0
  162.2890  206.9190  153.0220 C   0  0  0  0  0  2  0  0  0  0  0  0
  162.7160  207.9140  150.4650 C   0  0  0  0  0  2  0  0  0  0  0  0
  162.1990  208.9450  151.4710 C   0  0  0  0  0  2  0  0  0  0  0  0
  161.7450  208.3360  152.8090 C   0  0  1  0  0  3  0  0  0  0  0  0
  161.8610  206.6510  150.5000 C   0  0  2  0  0  3  0  0  0  0  0  0
  161.9130  205.9670  151.8760 C   0  0  0  0  0  2  0  0  0  0  0  0
  161.7120  205.6680  148.1740 C   0  0  0  0  0  0  0  0  0  0  0  0
  160.7300  206.4030  147.8860 O   0  0  0  0  0  0  0  0  0  0  0  0
  162.3110  205.7280  149.4690 N   0  0  0  0  0  2  0  0  0  0  0  0
  162.2610  204.7250  147.1600 C   0  0  0  0  0  2  0  0  0  0  0  0
  161.1700  203.8980  145.1130 C   0  0  0  0  0  2  0  0  0  0  0  0
  161.1720  203.7940  146.6320 C   0  0  1  0  0  3  0  0  0  0  0  0
  161.4490  202.3990  147.0290 N   0  0  0  0  0  0  0  0  0  0  0  0
  159.9050  201.8030  145.1370 C   0  0  0  0  0  0  0  0  0  0  0  0
  160.1800  203.0440  144.5670 O   0  0  0  0  0  0  0  0  0  0  0  0
  160.4770  201.4250  146.4840 C   0  0  1  0  0  3  0  0  0  0  0  0
  159.1090  201.0210  144.5510 O   0  0  0  0  0  0  0  0  0  0  0  0
  160.7470  199.2520  145.5230 O   0  0  0  0  0  0  0  0  0  0  0  0
  161.1030  200.0630  146.4180 C   0  0  0  0  0  0  0  0  0  0  0  0
  162.0760  199.6910  147.3410 O   0  0  0  0  0  1  0  0  0  0  0  0
  161.4090  202.2890  148.4950 C   0  0  0  0  0  2  0  0  0  0  0  0
  160.2140  202.8110  149.0100 O   0  0  0  0  0  1  0  0  0  0  0  0
  1  7  1  6  0  0  0
  1  5  1  0  0  0  0
  3 42  1  1  0  0  0
  3  4  1  0  0  0  0
  4  1  1  0  0  0  0
  4  5  1  0  0  0  0
  4 32  1  1  0  0  0
  5  2  2  0  0  0  0
  6  3  1  0  0  0  0
  6  7  1  1  0  0  0
  9 15  1  0  0  0  0
  9 14  2  0  0  0  0
 10 17  1  0  0  0  0
 12  8  1  1  0  0  0
 12 10  1  0  0  0  0
 12 11  1  0  0  0  0
 13 11  1  6  0  0  0
 13  6  1  0  0  0  0
 14 16  1  0  0  0  0
 15  8  2  0  0  0  0
 16 10  2  0  0  0  0
 17 13  1  0  0  0  0
 18  9  1  0  0  0  0
 19 21  1  0  0  0  0
 20 21  2  0  0  0  0
 21 18  1  0  0  0  0
 22 19  1  1  0  0  0
 23 27  1  6  0  0  0
 23 22  1  0  0  0  0
 24 22  1  0  0  0  0
 25 24  1  0  0  0  0
 26 25  1  0  0  0  0
 26 23  1  0  0  0  0
 27 28  1  0  0  0  0
 30 29  1  6  0  0  0
 30 31  1  0  0  0  0
 30 28  1  0  0  0  0
 32 34  2  0  0  0  0
 32 33  1  0  0  0  0
 35  2  1  1  0  0  0
 35 38  1  0  0  0  0
 35 36  1  0  0  0  0
 37 36  1  0  0  0  0
 38 39  1  0  0  0  0
 40 39  1  0  0  0  0
 41 40  1  0  0  0  0
 44 47  1  0  0  0  0
 44 45  1  0  0  0  0
 45 46  1  0  0  0  0
 46 42  1  6  0  0  0
 46 43  1  0  0  0  0
 47 51  1  6  0  0  0
 47 48  1  0  0  0  0
 48 43  1  0  0  0  0
 49 51  1  0  0  0  0
 50 49  2  0  0  0  0
 52 49  1  0  0  0  0
 53 54  1  0  0  0  0
 54 55  1  0  0  0  0
 54 52  1  1  0  0  0
 55 63  1  0  0  0  0
 56 58  1  0  0  0  0
 57 53  1  0  0  0  0
 57 56  1  0  0  0  0
 58 61  1  6  0  0  0
 58 55  1  0  0  0  0
 59 56  2  0  0  0  0
 60 61  2  0  0  0  0
 61 62  1  0  0  0  0
 63 64  1  0  0  0  0
M  END
>  <MODEL>
3

>  <REMARK>
 VINA RESULT:      -1.2      2.272      9.440
  Name = 
  20 active torsions:
  status: ('A' for Active; 'I' for Inactive)
    1  A    between atoms: C_1  and  C_38
    2  A    between atoms: N_5  and  C_6
    3  A    between atoms: C_7  and  C_47
    4  A    between atoms: C_13  and  C_51
    5  A    between atoms: C_14  and  C_38
    6  A    between atoms: C_14  and  C_47
    7  A    between atoms: C_15  and  N_50
    8  A    between atoms: C_16  and  O_55
    9  A    between atoms: C_17  and  C_51
   10  A    between atoms: C_18  and  C_30
   11  A    between atoms: N_19  and  C_28
   12  A    between atoms: C_21  and  O_35
   13  A    between atoms: C_25  and  N_50
   14  A    between atoms: N_27  and  C_33
   15  A    between atoms: C_29  and  C_36
   16  A    between atoms: O_32  and  C_47
   17  A    between atoms: O_35  and  C_43
   18  A    between atoms: C_41  and  N_57
   19  A    between atoms: O_55  and  C_56
   20  A    between atoms: C_56  and  C_63
                            x       y       z     vdW  Elec       q    Type
                         _______ _______ _______ _____ _____    ______ ____

>  <TORSDO>
F 20

$$$$
=
 OpenBabel11042422243D

 64 70  0  0  1  0  0  0  0  0999 V2000
  160.0250  212.0690  143.1010 C   0  0  2  0  0  3  0  0  0  0  0  0
  159.9730  214.4520  141.6590 C   0  0  0  0  0  3  0  0  0  0  0  0
  160.7680  213.3030  145.0160 C   0  0  1  0  0  3  0  0  0  0  0  0
  161.1090  212.8370  143.6080 C   0  0  2  0  0  0  0  0  0  0  0  0
  160.2720  213.4570  142.4970 C   0  0  0  0  0  0  0  0  0  0  0  0
  159.4950  212.6900  145.3900 N   0  0  2  0  0  0  0  0  0  0  0  0
  158.9300  212.1600  144.1470 C   0  0  0  0  0  2  0  0  0  0  0  0
  158.8400  213.7930  149.4790 C   0  0  0  0  0  3  0  0  0  0  0  0
  156.6800  213.8010  150.7650 C   0  0  0  0  0  0  0  0  0  0  0  0
  157.1600  213.5690  147.7230 C   0  0  0  0  0  0  0  0  0  0  0  0
  159.2620  214.4370  147.1200 C   0  0  0  0  0  2  0  0  0  0  0  0
  158.2470  214.4100  148.2570 C   0  0  2  0  0  3  0  0  0  0  0  0
  158.6180  213.7500  145.9010 C   0  0  2  0  0  3  0  0  0  0  0  0
  155.7780  213.6610  149.7800 C   0  0  0  0  0  3  0  0  0  0  0  0
  158.1360  213.5590  150.5900 C   0  0  0  0  0  3  0  0  0  0  0  0
  156.0340  213.2930  148.3730 C   0  0  0  0  0  3  0  0  0  0  0  0
  157.3580  213.1970  146.3750 N   0  0  0  0  0  2  0  0  0  0  0  0
  156.1780  214.1760  152.0190 O   0  0  0  0  0  0  0  0  0  0  0  0
  157.4490  212.4980  153.2410 N   0  0  0  0  0  2  0  0  0  0  0  0
  156.0730  214.0200  154.3310 O   0  0  0  0  0  0  0  0  0  0  0  0
  156.5270  213.5840  153.2390 C   0  0  0  0  0  0  0  0  0  0  0  0
  158.8600  212.6890  153.5350 C   0  0  2  0  0  3  0  0  0  0  0  0
  159.2760  211.7560  154.6360 C   0  0  2  0  0  3  0  0  0  0  0  0
  159.0380  214.0300  154.1970 C   0  0  0  0  0  2  0  0  0  0  0  0
  158.6910  213.8910  155.5450 O   0  0  0  0  0  0  0  0  0  0  0  0
  158.9800  212.5550  155.8930 C   0  0  0  0  0  2  0  0  0  0  0  0
  160.6550  211.5340  154.5610 O   0  0  0  0  0  0  0  0  0  0  0  0
  160.8220  210.1550  154.7280 C   0  0  0  0  0  2  0  0  0  0  0  0
  161.6620  208.1410  153.5570 C   0  0  0  0  0  1  0  0  0  0  0  0
  161.0070  209.4950  153.3720 C   0  0  2  0  0  3  0  0  0  0  0  0
  161.8100  210.2910  152.5550 O   0  0  0  0  0  1  0  0  0  0  0  0
  162.4730  212.3360  143.2210 C   0  0  0  0  0  0  0  0  0  0  0  0
  162.7150  211.7900  141.8550 C   0  0  0  0  0  1  0  0  0  0  0  0
  163.3830  212.3420  144.0370 O   0  0  0  0  0  0  0  0  0  0  0  0
  158.8240  214.3640  140.6990 C   0  0  2  0  0  3  0  0  0  0  0  0
  157.9840  213.3000  141.0390 O   0  0  0  0  0  0  0  0  0  0  0  0
  156.8310  213.5920  140.4720 O   0  0  0  0  0  1  0  0  0  0  0  0
  159.3300  214.2080  139.2700 C   0  0  0  0  0  2  0  0  0  0  0  0
  160.2510  213.0020  139.1350 C   0  0  0  0  0  2  0  0  0  0  0  0
  159.4500  211.7220  138.9440 C   0  0  0  0  0  2  0  0  0  0  0  0
  160.3630  210.5740  138.5550 C   0  0  0  0  0  1  0  0  0  0  0  0
  161.7960  212.9220  145.9750 N   0  0  0  0  0  2  0  0  0  0  0  0
  160.2800  211.5160  147.2920 C   0  0  0  0  0  2  0  0  0  0  0  0
  162.4570  211.4240  149.0150 C   0  0  0  0  0  2  0  0  0  0  0  0
  162.1950  212.7980  148.3930 C   0  0  0  0  0  2  0  0  0  0  0  0
  161.1430  212.7830  147.2700 C   0  0  1  0  0  3  0  0  0  0  0  0
  162.4740  210.3400  147.9410 C   0  0  2  0  0  3  0  0  0  0  0  0
  161.1190  210.2320  147.2210 C   0  0  0  0  0  2  0  0  0  0  0  0
  161.9610  208.3850  149.4610 C   0  0  0  0  0  0  0  0  0  0  0  0
  160.8660  208.9000  149.8150 O   0  0  0  0  0  0  0  0  0  0  0  0
  162.8200  209.0620  148.5430 N   0  0  0  0  0  2  0  0  0  0  0  0
  162.3700  207.0580  150.0000 C   0  0  0  0  0  2  0  0  0  0  0  0
  162.6500  205.4610  148.1470 C   0  0  0  0  0  2  0  0  0  0  0  0
  161.6910  205.9230  149.2350 C   0  0  1  0  0  3  0  0  0  0  0  0
  161.3930  204.7960  150.1410 N   0  0  0  0  0  0  0  0  0  0  0  0
  161.2770  203.4380  148.0290 C   0  0  0  0  0  0  0  0  0  0  0  0
  162.0730  204.3980  147.4080 O   0  0  0  0  0  0  0  0  0  0  0  0
  160.8080  203.6240  149.4540 C   0  0  1  0  0  3  0  0  0  0  0  0
  160.8850  202.4420  147.3640 O   0  0  0  0  0  0  0  0  0  0  0  0
  160.3640  201.3550  150.0630 O   0  0  0  0  0  0  0  0  0  0  0  0
  161.0690  202.3810  150.2520 C   0  0  0  0  0  0  0  0  0  0  0  0
  162.0860  202.3560  151.2010 O   0  0  0  0  0  1  0  0  0  0  0  0
  160.4350  205.2310  151.1670 C   0  0  0  0  0  2  0  0  0  0  0  0
  161.0230  205.2410  152.4400 O   0  0  0  0  0  1  0  0  0  0  0  0
  1  4  1  0  0  0  0
  1  7  1  1  0  0  0
  2  5  2  0  0  0  0
  3  6  1  0  0  0  0
  3 42  1  1  0  0  0
  4 32  1  6  0  0  0
  4  3  1  0  0  0  0
  5  1  1  0  0  0  0
  5  4  1  0  0  0  0
  6  7  1  6  0  0  0
  6 13  1  0  0  0  0
  8 15  2  0  0  0  0
  9 18  1  0  0  0  0
 10 12  1  0  0  0  0
 10 16  2  0  0  0  0
 12 11  1  6  0  0  0
 12  8  1  0  0  0  0
 13 17  1  0  0  0  0
 13 11  1  1  0  0  0
 14  9  2  0  0  0  0
 15  9  1  0  0  0  0
 16 14  1  0  0  0  0
 17 10  1  0  0  0  0
 18 21  1  0  0  0  0
 21 19  1  0  0  0  0
 21 20  2  0  0  0  0
 22 19  1  1  0  0  0
 22 24  1  0  0  0  0
 22 23  1  0  0  0  0
 23 27  1  6  0  0  0
 23 26  1  0  0  0  0
 24 25  1  0  0  0  0
 25 26  1  0  0  0  0
 27 28  1  0  0  0  0
 30 29  1  1  0  0  0
 30 28  1  0  0  0  0
 31 30  1  0  0  0  0
 32 34  2  0  0  0  0
 33 32  1  0  0  0  0
 35 38  1  6  0  0  0
 35 36  1  0  0  0  0
 35  2  1  0  0  0  0
 37 36  1  0  0  0  0
 39 38  1  0  0  0  0
 40 39  1  0  0  0  0
 41 40  1  0  0  0  0
 45 44  1  0  0  0  0
 46 42  1  6  0  0  0
 46 43  1  0  0  0  0
 46 45  1  0  0  0  0
 47 51  1  1  0  0  0
 47 44  1  0  0  0  0
 48 43  1  0  0  0  0
 48 47  1  0  0  0  0
 49 50  2  0  0  0  0
 49 52  1  0  0  0  0
 51 49  1  0  0  0  0
 53 54  1  0  0  0  0
 54 52  1  1  0  0  0
 54 55  1  0  0  0  0
 55 63  1  0  0  0  0
 56 58  1  0  0  0  0
 57 56  1  0  0  0  0
 57 53  1  0  0  0  0
 58 55  1  0  0  0  0
 58 61  1  1  0  0  0
 59 56  2  0  0  0  0
 60 61  2  0  0  0  0
 61 62  1  0  0  0  0
 63 64  1  0  0  0  0
M  END
>  <MODEL>
4

>  <REMARK>
 VINA RESULT:       0.3      2.321     11.308
  Name = 
  20 active torsions:
  status: ('A' for Active; 'I' for Inactive)
    1  A    between atoms: C_1  and  C_38
    2  A    between atoms: N_5  and  C_6
    3  A    between atoms: C_7  and  C_47
    4  A    between atoms: C_13  and  C_51
    5  A    between atoms: C_14  and  C_38
    6  A    between atoms: C_14  and  C_47
    7  A    between atoms: C_15  and  N_50
    8  A    between atoms: C_16  and  O_55
    9  A    between atoms: C_17  and  C_51
   10  A    between atoms: C_18  and  C_30
   11  A    between atoms: N_19  and  C_28
   12  A    between atoms: C_21  and  O_35
   13  A    between atoms: C_25  and  N_50
   14  A    between atoms: N_27  and  C_33
   15  A    between atoms: C_29  and  C_36
   16  A    between atoms: O_32  and  C_47
   17  A    between atoms: O_35  and  C_43
   18  A    between atoms: C_41  and  N_57
   19  A    between atoms: O_55  and  C_56
   20  A    between atoms: C_56  and  C_63
                            x       y       z     vdW  Elec       q    Type
                         _______ _______ _______ _____ _____    ______ ____

>  <TORSDO>
F 20

$$$$
