=
 OpenBabel11042420493D

 41 47  0  0  1  0  0  0  0  0999 V2000
  160.9570  203.9480  150.4190 C   0  0  0  0  0  0  0  0  0  0  0  0
  161.4500  207.8620  148.6800 C   0  0  0  0  0  0  0  0  0  0  0  0
  161.0350  204.5580  147.9950 C   0  0  1  0  0  3  0  0  0  0  0  0
  159.9540  200.4920  150.1750 C   0  0  0  0  0  1  0  0  0  0  0  0
  161.9580  209.2090  151.9740 C   0  0  0  0  0  3  0  0  0  0  0  0
  161.9490  209.0810  149.3600 C   0  0  0  0  0  0  0  0  0  0  0  0
  160.8840  208.5230  152.7470 C   0  0  0  0  0  2  0  0  0  0  0  0
  160.8720  206.4960  146.9840 C   0  0  1  0  0  3  0  0  0  0  0  0
  161.1030  206.7000  149.2550 C   0  0  1  0  0  3  0  0  0  0  0  0
  161.0950  205.2030  151.1990 C   0  0  0  0  0  0  0  0  0  0  0  0
  161.1960  205.1000  152.6950 C   0  0  0  0  0  2  0  0  0  0  0  0
  161.2990  205.5520  146.0160 N   0  0  0  0  0  0  0  0  0  0  0  0
  161.5940  203.6770  149.0750 C   0  0  2  0  0  3  0  0  0  0  0  0
  160.6880  205.8120  148.2040 C   0  0  2  0  0  3  0  0  0  0  0  0
  161.3830  204.4210  146.6060 N   0  0  0  0  0  0  0  0  0  0  0  0
  160.3600  202.9070  150.9020 N   0  0  0  0  0  0  0  0  0  0  0  0
  161.1700  202.2580  148.8830 C   0  0  0  0  0  0  0  0  0  0  0  0
  161.2230  206.3750  150.6440 N   0  0  0  0  0  0  0  0  0  0  0  0
  161.4050  207.6950  147.2040 C   0  0  0  0  0  3  0  0  0  0  0  0
  160.4860  201.8670  149.9470 C   0  0  0  0  0  0  0  0  0  0  0  0
  161.4480  207.4040  153.4930 N   0  0  0  0  0  0  0  0  0  0  0  0
  160.5290  206.2730  153.4120 C   0  0  0  0  0  2  0  0  0  0  0  0
  161.9550  209.1610  150.6700 C   0  0  0  0  0  0  0  0  0  0  0  0
  162.3870  210.1830  148.5470 N   0  0  0  0  0  2  0  0  0  0  0  0
  161.2160  211.9430  149.5690 O   0  0  0  0  0  0  0  0  0  0  0  0
  162.0100  211.5610  148.6660 C   0  0  0  0  0  0  0  0  0  0  0  0
  161.8640  212.9950  146.6910 C   0  0  0  0  0  3  0  0  0  0  0  0
  162.5690  212.5280  147.7160 C   0  0  0  0  0  3  0  0  0  0  0  0
  162.4590  213.9800  145.7410 C   0  0  2  0  0  3  0  0  0  0  0  0
  161.4160  214.4520  144.7480 C   0  0  0  0  0  2  0  0  0  0  0  0
  162.7620  214.1290  142.7330 N   0  0  0  0  0  2  0  0  0  0  0  0
  162.8760  212.9290  143.5770 C   0  0  1  0  0  3  0  0  0  0  0  0
  163.5160  213.2960  144.9050 C   0  0  0  0  0  2  0  0  0  0  0  0
  161.5970  213.6330  143.4810 C   0  0  1  0  0  3  0  0  0  0  0  0
  161.5860  201.3860  147.7400 C   0  0  0  0  0  2  0  0  0  0  0  0
  160.4910  201.3290  146.6920 C   0  0  0  0  0  1  0  0  0  0  0  0
  161.6620  207.7790  154.8980 C   0  0  0  0  0  2  0  0  0  0  0  0
  160.3700  207.9050  155.7170 C   0  0  0  0  0  2  0  0  0  0  0  0
  160.3390  209.2070  156.5010 C   0  0  0  0  0  2  0  0  0  0  0  0
  160.7350  211.2040  155.6540 C   0  0  0  0  0  1  0  0  0  0  0  0
  159.7570  210.2140  155.7320 O   0  0  0  0  0  0  0  0  0  0  0  0
  1 16  2  0  0  0  0
  1 10  1  0  0  0  0
  2  6  1  0  0  0  0
  3 15  1  6  0  0  0
  3 14  1  0  0  0  0
  3 13  1  0  0  0  0
  5  7  1  0  0  0  0
  6 23  2  0  0  0  0
  7 21  1  0  0  0  0
  8 19  1  1  0  0  0
  8 14  1  0  0  0  0
  9  2  1  6  0  0  0
  9 18  1  0  0  0  0
 10 11  1  0  0  0  0
 11 22  1  0  0  0  0
 12 15  2  0  0  0  0
 12  8  1  0  0  0  0
 13 17  1  6  0  0  0
 13  1  1  0  0  0  0
 14  9  1  0  0  0  0
 17 20  2  0  0  0  0
 18 10  2  0  0  0  0
 19  2  2  0  0  0  0
 20  4  1  0  0  0  0
 20 16  1  0  0  0  0
 21 37  1  0  0  0  0
 22 21  1  0  0  0  0
 23  5  2  0  0  0  0
 24 26  1  0  0  0  0
 24  6  1  0  0  0  0
 26 25  2  0  0  0  0
 27 28  2  0  0  0  0
 28 26  1  0  0  0  0
 29 27  1  0  0  0  0
 30 29  1  0  0  0  0
 31 34  1  0  0  0  0
 31 32  1  0  0  0  0
 32 33  1  0  0  0  0
 33 29  1  0  0  0  0
 34 32  1  0  0  0  0
 34 30  1  0  0  0  0
 35 17  1  0  0  0  0
 36 35  1  0  0  0  0
 37 38  1  0  0  0  0
 38 39  1  0  0  0  0
 40 41  1  0  0  0  0
 41 39  1  0  0  0  0
M  END
>  <MODEL>
1

>  <REMARK>
 VINA RESULT:      -8.3      0.000      0.000
  Name = 
  8 active torsions:
  status: ('A' for Active; 'I' for Inactive)
    1  A    between atoms: C_2  and  C_33
    2  A    between atoms: C_8  and  C_16
    3  A    between atoms: C_8  and  C_20
    4  A    between atoms: C_9  and  C_26
    5  A    between atoms: N_10  and  C_11
    6  A    between atoms: C_16  and  O_24
    7  A    between atoms: C_20  and  N_39
    8  A    between atoms: C_34  and  C_38
                            x       y       z     vdW  Elec       q    Type
                         _______ _______ _______ _____ _____    ______ ____

>  <TORSDO>
F 8

$$$$
=
 OpenBabel11042420493D

 41 47  0  0  1  0  0  0  0  0999 V2000
  159.6490  210.3470  153.8670 C   0  0  0  0  0  0  0  0  0  0  0  0
  160.9370  211.8490  150.0370 C   0  0  0  0  0  0  0  0  0  0  0  0
  159.3260  212.6400  152.9240 C   0  0  1  0  0  3  0  0  0  0  0  0
  158.5380  210.8870  157.2540 C   0  0  0  0  0  1  0  0  0  0  0  0
  162.0530  208.5440  149.1680 C   0  0  0  0  0  3  0  0  0  0  0  0
  161.3560  211.0490  148.8620 C   0  0  0  0  0  0  0  0  0  0  0  0
  162.7380  208.1210  150.4220 C   0  0  0  0  0  2  0  0  0  0  0  0
  160.2570  213.6460  151.2130 C   0  0  1  0  0  3  0  0  0  0  0  0
  160.7310  211.4060  151.2860 C   0  0  1  0  0  3  0  0  0  0  0  0
  160.4030  209.5540  152.8630 C   0  0  0  0  0  0  0  0  0  0  0  0
  160.6300  208.0940  153.1380 C   0  0  0  0  0  2  0  0  0  0  0  0
  159.1690  214.4530  151.6340 N   0  0  0  0  0  0  0  0  0  0  0  0
  158.6630  211.4490  153.5520 C   0  0  2  0  0  3  0  0  0  0  0  0
  160.3320  212.5350  152.0800 C   0  0  2  0  0  3  0  0  0  0  0  0
  158.6350  213.8690  152.6380 N   0  0  0  0  0  0  0  0  0  0  0  0
  159.6870  210.0620  155.1280 N   0  0  0  0  0  0  0  0  0  0  0  0
  158.1940  211.7620  154.9350 C   0  0  0  0  0  0  0  0  0  0  0  0
  160.7970  210.0430  151.7210 N   0  0  0  0  0  0  0  0  0  0  0  0
  160.5260  213.2760  149.9640 C   0  0  0  0  0  3  0  0  0  0  0  0
  158.7940  210.9440  155.7870 C   0  0  0  0  0  0  0  0  0  0  0  0
  161.8600  207.2470  151.1950 N   0  0  0  0  0  0  0  0  0  0  0  0
  161.9730  207.5970  152.6070 C   0  0  0  0  0  2  0  0  0  0  0  0
  161.7130  209.7930  149.0020 C   0  0  0  0  0  0  0  0  0  0  0  0
  161.3990  211.6940  147.5780 N   0  0  0  0  0  2  0  0  0  0  0  0
  163.3180  213.0220  147.8460 O   0  0  0  0  0  0  0  0  0  0  0  0
  162.3580  212.6540  147.1130 C   0  0  0  0  0  0  0  0  0  0  0  0
  161.1910  212.8610  144.9750 C   0  0  0  0  0  3  0  0  0  0  0  0
  162.2070  213.2010  145.7620 C   0  0  0  0  0  3  0  0  0  0  0  0
  161.0620  213.4350  143.6040 C   0  0  2  0  0  3  0  0  0  0  0  0
  159.9800  212.7120  142.8280 C   0  0  0  0  0  2  0  0  0  0  0  0
  161.2830  212.3270  140.7960 N   0  0  0  0  0  2  0  0  0  0  0  0
  162.1020  211.9570  141.9610 C   0  0  1  0  0  3  0  0  0  0  0  0
  162.3360  213.1820  142.8300 C   0  0  0  0  0  2  0  0  0  0  0  0
  160.6660  211.6720  141.9590 C   0  0  1  0  0  3  0  0  0  0  0  0
  157.1110  212.7380  155.2720 C   0  0  0  0  0  2  0  0  0  0  0  0
  155.7470  212.1170  155.0380 C   0  0  0  0  0  1  0  0  0  0  0  0
  162.2310  205.8400  150.9940 C   0  0  0  0  0  2  0  0  0  0  0  0
  161.0400  204.9090  150.7280 C   0  0  0  0  0  2  0  0  0  0  0  0
  160.9170  203.8460  151.8080 C   0  0  0  0  0  2  0  0  0  0  0  0
  160.6340  202.5600  150.0400 C   0  0  0  0  0  1  0  0  0  0  0  0
  161.2530  202.5960  151.2880 O   0  0  0  0  0  0  0  0  0  0  0  0
  1 16  2  0  0  0  0
  3 15  1  6  0  0  0
  3 13  1  0  0  0  0
  5  7  1  0  0  0  0
  6 23  2  0  0  0  0
  6  2  1  0  0  0  0
  7 21  1  0  0  0  0
  8 19  1  6  0  0  0
  8 12  1  0  0  0  0
  8 14  1  0  0  0  0
  9  2  1  6  0  0  0
  9 18  1  0  0  0  0
  9 14  1  0  0  0  0
 10 11  1  0  0  0  0
 10  1  1  0  0  0  0
 12 15  2  0  0  0  0
 13  1  1  1  0  0  0
 13 17  1  0  0  0  0
 14  3  1  0  0  0  0
 16 20  1  0  0  0  0
 17 35  1  0  0  0  0
 17 20  2  0  0  0  0
 18 10  2  0  0  0  0
 19  2  2  0  0  0  0
 20  4  1  0  0  0  0
 21 22  1  0  0  0  0
 22 11  1  0  0  0  0
 23  5  2  0  0  0  0
 24  6  1  0  0  0  0
 26 24  1  0  0  0  0
 26 25  2  0  0  0  0
 27 28  2  0  0  0  0
 28 26  1  0  0  0  0
 29 27  1  0  0  0  0
 30 29  1  0  0  0  0
 31 34  1  0  0  0  0
 31 32  1  0  0  0  0
 32 33  1  0  0  0  0
 33 29  1  0  0  0  0
 34 32  1  0  0  0  0
 34 30  1  0  0  0  0
 36 35  1  0  0  0  0
 37 21  1  0  0  0  0
 38 37  1  0  0  0  0
 38 39  1  0  0  0  0
 40 41  1  0  0  0  0
 41 39  1  0  0  0  0
M  END
>  <MODEL>
2

>  <REMARK>
 VINA RESULT:      -5.6      3.006      7.047
  Name = 
  8 active torsions:
  status: ('A' for Active; 'I' for Inactive)
    1  A    between atoms: C_2  and  C_33
    2  A    between atoms: C_8  and  C_16
    3  A    between atoms: C_8  and  C_20
    4  A    between atoms: C_9  and  C_26
    5  A    between atoms: N_10  and  C_11
    6  A    between atoms: C_16  and  O_24
    7  A    between atoms: C_20  and  N_39
    8  A    between atoms: C_34  and  C_38
                            x       y       z     vdW  Elec       q    Type
                         _______ _______ _______ _____ _____    ______ ____

>  <TORSDO>
F 8

$$$$
