=
 OpenBabel11052410223D

 55 62  0  0  1  0  0  0  0  0999 V2000
  159.2600  212.4850  147.2740 C   0  0  2  0  0  3  0  0  0  0  0  0
  160.1080  212.9030  150.9300 C   0  0  2  0  0  3  0  0  0  0  0  0
  158.8720  213.0910  148.6050 C   0  0  0  0  0  2  0  0  0  0  0  0
  164.9800  212.1910  147.1200 F   0  0  0  0  0  0  0  0  0  0  0  0
  161.8870  213.6680  148.5560 C   0  0  0  0  0  2  0  0  0  0  0  0
  159.8750  212.4340  149.4860 C   0  0  1  0  0  3  0  0  0  0  0  0
  163.1420  213.4880  147.7370 C   0  0  0  0  0  3  0  0  0  0  0  0
  161.1000  212.3410  148.6060 C   0  0  1  0  0  0  0  0  0  0  0  0
  160.6180  212.0740  147.3060 O   0  0  0  0  0  0  0  0  0  0  0  0
  163.3080  211.2310  148.6330 C   0  0  0  0  0  3  0  0  0  0  0  0
  161.6150  211.1330  151.5330 C   0  0  0  0  0  2  0  0  0  0  0  0
  162.0410  211.2330  149.0700 C   0  0  0  0  0  0  0  0  0  0  0  0
  160.2740  211.6970  151.7800 N   0  0  1  0  0  0  0  0  0  0  0  0
  163.8120  212.3310  147.7910 C   0  0  0  0  0  0  0  0  0  0  0  0
  161.7200  210.3300  150.2270 C   0  0  2  0  0  3  0  0  0  0  0  0
  158.9630  213.8150  151.3890 C   0  0  0  0  0  1  0  0  0  0  0  0
  158.7060  211.7690  153.6540 C   0  0  0  0  0  2  0  0  0  0  0  0
  160.1290  212.0210  153.2170 C   0  0  1  0  0  3  0  0  0  0  0  0
  160.2440  210.8440  155.1640 C   0  0  2  0  0  3  0  0  0  0  0  0
  160.9850  211.2510  154.0380 O   0  0  0  0  0  0  0  0  0  0  0  0
  158.8580  211.4380  155.0970 C   0  0  0  0  0  2  0  0  0  0  0  0
  160.9180  211.2800  156.3780 N   0  0  0  0  0  2  0  0  0  0  0  0
  162.5000  210.5710  156.4000 S   0  0  0  0  0  0  0  0  0  0  0  0
  163.0630  210.3920  154.8320 F   0  0  0  0  0  0  0  0  0  0  0  0
  162.4270  209.2230  157.0560 O   0  0  0  0  0  0  0  0  0  0  0  0
  163.4430  211.4490  157.1720 O   0  0  0  0  0  0  0  0  0  0  0  0
  160.0340  212.1200  144.5660 O   0  0  0  0  0  0  0  0  0  0  0  0
  159.4160  213.1800  144.8550 C   0  0  0  0  0  0  0  0  0  0  0  0
  159.0310  214.0940  143.8260 N   0  0  0  0  0  2  0  0  0  0  0  0
  159.0410  213.4460  146.2040 N   0  0  0  0  0  2  0  0  0  0  0  0
  159.5050  214.0230  142.5040 N   0  0  0  0  0  2  0  0  0  0  0  0
  158.7050  213.5930  141.4000 C   0  0  0  0  0  0  0  0  0  0  0  0
  157.3610  214.4530  141.0340 S   0  0  0  0  0  0  0  0  0  0  0  0
  159.0740  212.4130  140.6720 N   0  0  0  0  0  2  0  0  0  0  0  0
  161.6230  210.6930  138.6820 C   0  0  2  0  0  3  0  0  0  0  0  0
  160.3030  211.1430  139.0610 C   0  0  2  0  0  3  0  0  0  0  0  0
  161.8290  212.9250  140.1550 S   0  0  0  0  0  0  0  0  0  0  0  0
  161.5520  209.2360  138.8340 N   0  0  0  0  0  2  0  0  0  0  0  0
  162.5630  211.3140  139.7030 C   0  0  0  0  0  2  0  0  0  0  0  0
  160.2170  212.2130  139.8300 C   0  0  2  0  0  3  0  0  0  0  0  0
  160.1780  208.8710  138.8490 N   0  0  0  0  0  2  0  0  0  0  0  0
  159.4580  210.0330  139.1600 N   0  0  0  0  0  2  0  0  0  0  0  0
  160.5270  209.4080  149.9760 C   0  0  0  0  0  2  0  0  0  0  0  0
  161.3200  205.8670  153.6560 C   0  0  0  0  0  3  0  0  0  0  0  0
  160.8300  207.9310  152.5080 C   0  0  0  0  0  3  0  0  0  0  0  0
  160.9550  207.2140  153.7010 C   0  0  0  0  0  3  0  0  0  0  0  0
  161.2110  207.2820  148.8670 C   0  0  0  0  0  3  0  0  0  0  0  0
  160.9490  207.9740  150.0550 C   0  0  0  0  0  0  0  0  0  0  0  0
  161.4410  205.9360  151.2850 C   0  0  0  0  0  0  0  0  0  0  0  0
  161.6870  205.2970  150.1110 N   0  0  0  0  0  0  0  0  0  0  0  0
  161.5820  205.9370  148.9150 C   0  0  0  0  0  0  0  0  0  0  0  0
  161.5540  205.2610  152.4610 N   0  0  0  0  0  0  0  0  0  0  0  0
  161.0680  207.2980  151.2830 C   0  0  0  0  0  0  0  0  0  0  0  0
  161.8620  205.2300  147.6970 C   0  0  0  0  0  0  0  0  0  0  0  0
  162.0830  204.6600  146.7140 N   0  0  0  0  0  0  0  0  0  0  0  0
  1 30  1  6  0  0  0
  1  9  1  0  0  0  0
  1  3  1  0  0  0  0
  2 16  1  1  0  0  0
  2 13  1  0  0  0  0
  4 14  1  0  0  0  0
  6  3  1  6  0  0  0
  6  2  1  0  0  0  0
  7 14  2  0  0  0  0
  7  5  1  0  0  0  0
  8  5  1  1  0  0  0
  8 12  1  0  0  0  0
  8  6  1  0  0  0  0
  9  8  1  0  0  0  0
 10 12  2  0  0  0  0
 12 15  1  0  0  0  0
 13 11  1  1  0  0  0
 13 18  1  0  0  0  0
 14 10  1  0  0  0  0
 15 43  1  6  0  0  0
 15 11  1  0  0  0  0
 17 21  1  0  0  0  0
 18 17  1  1  0  0  0
 18 20  1  0  0  0  0
 19 22  1  1  0  0  0
 20 19  1  0  0  0  0
 21 19  1  0  0  0  0
 22 23  1  0  0  0  0
 23 25  2  0  0  0  0
 23 26  2  0  0  0  0
 24 23  1  0  0  0  0
 27 28  2  0  0  0  0
 28 30  1  0  0  0  0
 29 28  1  0  0  0  0
 31 29  1  0  0  0  0
 32 31  1  0  0  0  0
 33 32  2  0  0  0  0
 34 32  1  0  0  0  0
 35 38  1  0  0  0  0
 35 36  1  0  0  0  0
 35 39  1  1  0  0  0
 36 42  1  1  0  0  0
 36 40  1  0  0  0  0
 38 41  1  0  0  0  0
 39 37  1  0  0  0  0
 40 37  1  0  0  0  0
 40 34  1  1  0  0  0
 41 42  1  0  0  0  0
 43 48  1  0  0  0  0
 44 46  1  0  0  0  0
 45 46  2  0  0  0  0
 47 51  2  0  0  0  0
 47 48  1  0  0  0  0
 48 53  2  0  0  0  0
 49 52  1  0  0  0  0
 50 49  2  0  0  0  0
 51 50  1  0  0  0  0
 52 44  2  0  0  0  0
 53 49  1  0  0  0  0
 53 45  1  0  0  0  0
 54 51  1  0  0  0  0
 55 54  3  0  0  0  0
M  END
>  <MODEL>
1

>  <REMARK>
 VINA RESULT:      -3.5      0.000      0.000
  Name = 
  11 active torsions:
  status: ('A' for Active; 'I' for Inactive)
    1  A    between atoms: C_3  and  N_54
    2  A    between atoms: N_10  and  S_17
    3  A    between atoms: N_10  and  C_36
    4  A    between atoms: C_23  and  N_25
    5  A    between atoms: C_24  and  C_43
    6  A    between atoms: N_25  and  C_40
    7  A    between atoms: C_30  and  N_34
    8  A    between atoms: N_39  and  N_41
    9  A    between atoms: C_40  and  N_41
   10  A    between atoms: C_43  and  C_47
   11  A    between atoms: C_46  and  C_48
                            x       y       z     vdW  Elec       q    Type
                         _______ _______ _______ _____ _____    ______ ____

>  <TORSDO>
F 11

$$$$
=
 OpenBabel11052410223D

 55 62  0  0  1  0  0  0  0  0999 V2000
  159.1790  212.5710  147.3810 C   0  0  2  0  0  3  0  0  0  0  0  0
  160.0410  212.9030  151.0430 C   0  0  2  0  0  3  0  0  0  0  0  0
  158.7730  213.1090  148.7360 C   0  0  0  0  0  2  0  0  0  0  0  0
  164.9050  212.5790  147.1710 F   0  0  0  0  0  0  0  0  0  0  0  0
  161.7540  213.8430  148.6830 C   0  0  0  0  0  2  0  0  0  0  0  0
  159.8180  212.4740  149.5850 C   0  0  1  0  0  3  0  0  0  0  0  0
  163.0090  213.7570  147.8490 C   0  0  0  0  0  3  0  0  0  0  0  0
  161.0370  212.4750  148.6930 C   0  0  1  0  0  0  0  0  0  0  0  0
  160.5560  212.2300  147.3880 O   0  0  0  0  0  0  0  0  0  0  0  0
  163.2990  211.4810  148.6620 C   0  0  0  0  0  3  0  0  0  0  0  0
  161.6420  211.1930  151.5700 C   0  0  0  0  0  2  0  0  0  0  0  0
  162.0380  211.4020  149.1090 C   0  0  0  0  0  0  0  0  0  0  0  0
  160.2760  211.6780  151.8470 N   0  0  1  0  0  0  0  0  0  0  0  0
  163.7380  212.6350  147.8560 C   0  0  0  0  0  0  0  0  0  0  0  0
  161.7760  210.4430  150.2350 C   0  0  2  0  0  3  0  0  0  0  0  0
  158.8540  213.7370  151.5430 C   0  0  0  0  0  1  0  0  0  0  0  0
  158.7890  211.4360  153.7730 C   0  0  0  0  0  2  0  0  0  0  0  0
  160.1290  211.9430  153.2960 C   0  0  1  0  0  3  0  0  0  0  0  0
  160.5190  210.7660  155.2070 C   0  0  2  0  0  3  0  0  0  0  0  0
  161.1360  211.3190  154.0700 O   0  0  0  0  0  0  0  0  0  0  0  0
  159.0490  211.1090  155.2000 C   0  0  0  0  0  2  0  0  0  0  0  0
  161.1500  211.2900  156.4100 N   0  0  0  0  0  2  0  0  0  0  0  0
  162.7700  210.6780  156.4780 S   0  0  0  0  0  0  0  0  0  0  0  0
  162.7850  209.1950  157.2580 F   0  0  0  0  0  0  0  0  0  0  0  0
  163.6300  211.6460  157.2390 O   0  0  0  0  0  0  0  0  0  0  0  0
  163.3150  210.5160  155.0880 O   0  0  0  0  0  0  0  0  0  0  0  0
  159.4450  212.1310  144.5880 O   0  0  0  0  0  0  0  0  0  0  0  0
  159.0130  213.2550  144.9600 C   0  0  0  0  0  0  0  0  0  0  0  0
  158.5720  214.2140  143.9950 N   0  0  0  0  0  2  0  0  0  0  0  0
  158.9010  213.5570  146.3480 N   0  0  0  0  0  2  0  0  0  0  0  0
  158.8100  214.0940  142.6140 N   0  0  0  0  0  2  0  0  0  0  0  0
  160.1120  213.9230  142.0490 C   0  0  0  0  0  0  0  0  0  0  0  0
  161.4040  214.4520  142.9030 S   0  0  0  0  0  0  0  0  0  0  0  0
  160.2500  213.3310  140.7490 N   0  0  0  0  0  2  0  0  0  0  0  0
  162.5720  210.9190  139.2630 C   0  0  2  0  0  3  0  0  0  0  0  0
  162.1360  212.0080  140.1080 C   0  0  2  0  0  3  0  0  0  0  0  0
  159.9420  210.6870  139.7320 S   0  0  0  0  0  0  0  0  0  0  0  0
  163.5060  211.5560  138.3290 N   0  0  0  0  0  2  0  0  0  0  0  0
  161.3160  210.4380  138.5550 C   0  0  0  0  0  2  0  0  0  0  0  0
  160.8520  212.0750  140.4070 C   0  0  2  0  0  3  0  0  0  0  0  0
  163.9070  212.7950  138.8980 N   0  0  0  0  0  2  0  0  0  0  0  0
  162.9470  213.1210  139.8670 N   0  0  0  0  0  2  0  0  0  0  0  0
  160.6290  209.4710  149.9610 C   0  0  0  0  0  2  0  0  0  0  0  0
  161.2520  204.4640  148.8410 C   0  0  0  0  0  3  0  0  0  0  0  0
  160.8810  206.8400  148.6570 C   0  0  0  0  0  3  0  0  0  0  0  0
  161.0240  205.5910  148.0480 C   0  0  0  0  0  3  0  0  0  0  0  0
  160.9270  208.2310  152.1040 C   0  0  0  0  0  3  0  0  0  0  0  0
  160.8390  208.1900  150.7090 C   0  0  0  0  0  0  0  0  0  0  0  0
  161.1940  205.7880  150.8120 C   0  0  0  0  0  0  0  0  0  0  0  0
  161.2750  205.8670  152.1660 N   0  0  0  0  0  0  0  0  0  0  0  0
  161.1460  207.0530  152.8200 C   0  0  0  0  0  0  0  0  0  0  0  0
  161.3310  204.5830  150.1930 N   0  0  0  0  0  0  0  0  0  0  0  0
  160.9690  206.9550  150.0480 C   0  0  0  0  0  0  0  0  0  0  0  0
  161.2260  207.0930  154.2530 C   0  0  0  0  0  0  0  0  0  0  0  0
  161.2950  207.1270  155.4090 N   0  0  0  0  0  0  0  0  0  0  0  0
  1 30  1  6  0  0  0
  1  9  1  0  0  0  0
  1  3  1  0  0  0  0
  2 16  1  1  0  0  0
  2 13  1  0  0  0  0
  4 14  1  0  0  0  0
  6  3  1  6  0  0  0
  6  2  1  0  0  0  0
  7 14  2  0  0  0  0
  7  5  1  0  0  0  0
  8  5  1  1  0  0  0
  8 12  1  0  0  0  0
  8  6  1  0  0  0  0
  9  8  1  0  0  0  0
 10 12  2  0  0  0  0
 12 15  1  0  0  0  0
 13 11  1  1  0  0  0
 13 18  1  0  0  0  0
 14 10  1  0  0  0  0
 15 43  1  6  0  0  0
 15 11  1  0  0  0  0
 17 21  1  0  0  0  0
 18 17  1  1  0  0  0
 18 20  1  0  0  0  0
 19 22  1  1  0  0  0
 20 19  1  0  0  0  0
 21 19  1  0  0  0  0
 22 23  1  0  0  0  0
 23 25  2  0  0  0  0
 23 24  1  0  0  0  0
 26 23  2  0  0  0  0
 27 28  2  0  0  0  0
 28 30  1  0  0  0  0
 29 28  1  0  0  0  0
 31 29  1  0  0  0  0
 32 31  1  0  0  0  0
 32 33  2  0  0  0  0
 34 32  1  0  0  0  0
 35 39  1  6  0  0  0
 35 36  1  0  0  0  0
 36 42  1  6  0  0  0
 36 40  1  0  0  0  0
 37 40  1  0  0  0  0
 38 41  1  0  0  0  0
 38 35  1  0  0  0  0
 39 37  1  0  0  0  0
 40 34  1  6  0  0  0
 41 42  1  0  0  0  0
 43 48  1  0  0  0  0
 44 52  2  0  0  0  0
 45 53  1  0  0  0  0
 46 45  2  0  0  0  0
 46 44  1  0  0  0  0
 47 51  2  0  0  0  0
 48 47  1  0  0  0  0
 49 50  2  0  0  0  0
 50 51  1  0  0  0  0
 51 54  1  0  0  0  0
 52 49  1  0  0  0  0
 53 48  2  0  0  0  0
 53 49  1  0  0  0  0
 54 55  3  0  0  0  0
M  END
>  <MODEL>
2

>  <REMARK>
 VINA RESULT:      -3.4      1.451      2.607
  Name = 
  11 active torsions:
  status: ('A' for Active; 'I' for Inactive)
    1  A    between atoms: C_3  and  N_54
    2  A    between atoms: N_10  and  S_17
    3  A    between atoms: N_10  and  C_36
    4  A    between atoms: C_23  and  N_25
    5  A    between atoms: C_24  and  C_43
    6  A    between atoms: N_25  and  C_40
    7  A    between atoms: C_30  and  N_34
    8  A    between atoms: N_39  and  N_41
    9  A    between atoms: C_40  and  N_41
   10  A    between atoms: C_43  and  C_47
   11  A    between atoms: C_46  and  C_48
                            x       y       z     vdW  Elec       q    Type
                         _______ _______ _______ _____ _____    ______ ____

>  <TORSDO>
F 11

$$$$
=
 OpenBabel11052410223D

 55 62  0  0  1  0  0  0  0  0999 V2000
  160.7490  207.8630  152.0560 C   0  0  2  0  0  3  0  0  0  0  0  0
  161.6100  211.1440  150.3960 C   0  0  2  0  0  3  0  0  0  0  0  0
  161.2260  208.5630  150.8020 C   0  0  0  0  0  2  0  0  0  0  0  0
  162.5870  210.9190  156.5410 F   0  0  0  0  0  0  0  0  0  0  0  0
  162.8750  210.0140  152.9470 C   0  0  0  0  0  2  0  0  0  0  0  0
  161.0260  209.9810  151.2110 C   0  0  1  0  0  3  0  0  0  0  0  0
  163.1370  210.0860  154.4320 C   0  0  0  0  0  3  0  0  0  0  0  0
  161.3540  209.9650  152.6860 C   0  0  1  0  0  0  0  0  0  0  0  0
  160.8720  208.7300  153.1720 O   0  0  0  0  0  0  0  0  0  0  0  0
  161.1430  211.4660  154.6370 C   0  0  0  0  0  3  0  0  0  0  0  0
  160.5510  212.8940  151.6550 C   0  0  0  0  0  2  0  0  0  0  0  0
  160.6950  211.1280  153.4200 C   0  0  0  0  0  0  0  0  0  0  0  0
  160.5890  212.2200  150.3420 N   0  0  1  0  0  0  0  0  0  0  0  0
  162.3140  210.7860  155.2200 C   0  0  0  0  0  0  0  0  0  0  0  0
  159.7880  212.1090  152.7330 C   0  0  2  0  0  3  0  0  0  0  0  0
  162.0520  210.6580  149.0090 C   0  0  0  0  0  1  0  0  0  0  0  0
  162.3940  213.3770  149.1680 C   0  0  0  0  0  2  0  0  0  0  0  0
  160.8980  213.2100  149.2860 C   0  0  1  0  0  3  0  0  0  0  0  0
  161.3910  213.1110  147.0650 C   0  0  2  0  0  3  0  0  0  0  0  0
  160.3960  212.8320  148.0190 O   0  0  0  0  0  0  0  0  0  0  0  0
  162.5710  213.7650  147.7420 C   0  0  0  0  0  2  0  0  0  0  0  0
  160.8530  213.9910  146.0370 N   0  0  0  0  0  2  0  0  0  0  0  0
  160.4040  213.0170  144.6760 S   0  0  0  0  0  0  0  0  0  0  0  0
  159.5180  211.6910  145.1930 F   0  0  0  0  0  0  0  0  0  0  0  0
  161.6460  212.5400  143.9800 O   0  0  0  0  0  0  0  0  0  0  0  0
  159.5770  213.8250  143.7180 O   0  0  0  0  0  0  0  0  0  0  0  0
  159.9500  205.2680  151.2240 O   0  0  0  0  0  0  0  0  0  0  0  0
  161.0740  205.3770  151.7840 C   0  0  0  0  0  0  0  0  0  0  0  0
  161.9450  204.2470  151.8840 N   0  0  0  0  0  2  0  0  0  0  0  0
  161.5140  206.6440  152.2680 N   0  0  0  0  0  2  0  0  0  0  0  0
  161.5410  202.9270  151.6120 N   0  0  0  0  0  2  0  0  0  0  0  0
  161.1540  202.4730  150.3120 C   0  0  0  0  0  0  0  0  0  0  0  0
  160.9580  200.8650  150.0790 S   0  0  0  0  0  0  0  0  0  0  0  0
  160.9860  203.4220  149.2490 N   0  0  0  0  0  2  0  0  0  0  0  0
  161.9530  204.4970  145.8830 C   0  0  2  0  0  3  0  0  0  0  0  0
  161.9460  204.4750  147.3290 C   0  0  2  0  0  3  0  0  0  0  0  0
  161.1420  202.0870  146.7360 S   0  0  0  0  0  0  0  0  0  0  0  0
  161.4180  205.8220  145.5530 N   0  0  0  0  0  2  0  0  0  0  0  0
  160.9970  203.3910  145.4650 C   0  0  0  0  0  2  0  0  0  0  0  0
  161.5300  203.3720  147.9230 C   0  0  2  0  0  3  0  0  0  0  0  0
  161.5400  206.6380  146.7100 N   0  0  0  0  0  2  0  0  0  0  0  0
  161.6920  205.7670  147.8000 N   0  0  0  0  0  2  0  0  0  0  0  0
  158.4810  211.4950  152.2350 C   0  0  0  0  0  2  0  0  0  0  0  0
  154.8990  214.4150  149.9200 C   0  0  0  0  0  3  0  0  0  0  0  0
  156.8000  212.9880  150.3290 C   0  0  0  0  0  3  0  0  0  0  0  0
  155.9840  213.6820  149.4330 C   0  0  0  0  0  3  0  0  0  0  0  0
  156.9920  212.4350  154.0000 C   0  0  0  0  0  3  0  0  0  0  0  0
  157.3150  212.3420  152.6430 C   0  0  0  0  0  0  0  0  0  0  0  0
  155.4240  213.7880  152.1500 C   0  0  0  0  0  0  0  0  0  0  0  0
  155.1400  213.8540  153.4770 N   0  0  0  0  0  0  0  0  0  0  0  0
  155.8950  213.2000  154.4020 C   0  0  0  0  0  0  0  0  0  0  0  0
  154.6440  214.4530  151.2550 N   0  0  0  0  0  0  0  0  0  0  0  0
  156.5280  213.0290  151.7010 C   0  0  0  0  0  0  0  0  0  0  0  0
  155.5690  213.3040  155.7960 C   0  0  0  0  0  0  0  0  0  0  0  0
  155.3010  213.3880  156.9200 N   0  0  0  0  0  0  0  0  0  0  0  0
  1 30  1  1  0  0  0
  1  9  1  0  0  0  0
  2 16  1  6  0  0  0
  2  6  1  0  0  0  0
  3  1  1  0  0  0  0
  5  7  1  0  0  0  0
  6  3  1  6  0  0  0
  6  8  1  0  0  0  0
  7 14  2  0  0  0  0
  8  5  1  1  0  0  0
  8  9  1  0  0  0  0
  8 12  1  0  0  0  0
 10 14  1  0  0  0  0
 11 15  1  0  0  0  0
 12 10  2  0  0  0  0
 13  2  1  0  0  0  0
 13 11  1  1  0  0  0
 14  4  1  0  0  0  0
 15 43  1  6  0  0  0
 15 12  1  0  0  0  0
 18 17  1  6  0  0  0
 18 13  1  0  0  0  0
 19 22  1  6  0  0  0
 19 21  1  0  0  0  0
 19 20  1  0  0  0  0
 20 18  1  0  0  0  0
 21 17  1  0  0  0  0
 23 24  1  0  0  0  0
 23 22  1  0  0  0  0
 25 23  2  0  0  0  0
 26 23  2  0  0  0  0
 27 28  2  0  0  0  0
 28 29  1  0  0  0  0
 28 30  1  0  0  0  0
 31 29  1  0  0  0  0
 32 31  1  0  0  0  0
 33 32  2  0  0  0  0
 34 32  1  0  0  0  0
 35 39  1  6  0  0  0
 35 36  1  0  0  0  0
 36 42  1  1  0  0  0
 36 40  1  0  0  0  0
 37 40  1  0  0  0  0
 38 35  1  0  0  0  0
 38 41  1  0  0  0  0
 39 37  1  0  0  0  0
 40 34  1  6  0  0  0
 41 42  1  0  0  0  0
 43 48  1  0  0  0  0
 44 52  2  0  0  0  0
 45 53  1  0  0  0  0
 46 44  1  0  0  0  0
 46 45  2  0  0  0  0
 47 51  2  0  0  0  0
 48 47  1  0  0  0  0
 49 50  2  0  0  0  0
 50 51  1  0  0  0  0
 51 54  1  0  0  0  0
 52 49  1  0  0  0  0
 53 49  1  0  0  0  0
 53 48  2  0  0  0  0
 54 55  3  0  0  0  0
M  END
>  <MODEL>
3

>  <REMARK>
 VINA RESULT:      -3.2      4.106      9.503
  Name = 
  11 active torsions:
  status: ('A' for Active; 'I' for Inactive)
    1  A    between atoms: C_3  and  N_54
    2  A    between atoms: N_10  and  S_17
    3  A    between atoms: N_10  and  C_36
    4  A    between atoms: C_23  and  N_25
    5  A    between atoms: C_24  and  C_43
    6  A    between atoms: N_25  and  C_40
    7  A    between atoms: C_30  and  N_34
    8  A    between atoms: N_39  and  N_41
    9  A    between atoms: C_40  and  N_41
   10  A    between atoms: C_43  and  C_47
   11  A    between atoms: C_46  and  C_48
                            x       y       z     vdW  Elec       q    Type
                         _______ _______ _______ _____ _____    ______ ____

>  <TORSDO>
F 11

$$$$
=
 OpenBabel11052410223D

 55 62  0  0  1  0  0  0  0  0999 V2000
  159.1560  212.4640  147.2280 C   0  0  2  0  0  3  0  0  0  0  0  0
  160.0140  212.8990  150.8800 C   0  0  2  0  0  3  0  0  0  0  0  0
  158.7450  213.0340  148.5680 C   0  0  0  0  0  2  0  0  0  0  0  0
  164.8820  212.5250  147.0160 F   0  0  0  0  0  0  0  0  0  0  0  0
  161.7180  213.7960  148.4960 C   0  0  0  0  0  2  0  0  0  0  0  0
  159.7960  212.4310  149.4330 C   0  0  1  0  0  3  0  0  0  0  0  0
  162.9730  213.7010  147.6630 C   0  0  0  0  0  3  0  0  0  0  0  0
  161.0150  212.4220  148.5410 C   0  0  1  0  0  0  0  0  0  0  0  0
  160.5370  212.1380  147.2430 O   0  0  0  0  0  0  0  0  0  0  0  0
  163.2870  211.4500  148.5350 C   0  0  0  0  0  3  0  0  0  0  0  0
  161.6330  211.2200  151.4500 C   0  0  0  0  0  2  0  0  0  0  0  0
  162.0270  211.3700  148.9840 C   0  0  0  0  0  0  0  0  0  0  0  0
  160.2620  211.6980  151.7150 N   0  0  1  0  0  0  0  0  0  0  0  0
  163.7140  212.5870  147.6990 C   0  0  0  0  0  0  0  0  0  0  0  0
  161.7740  210.4380  150.1350 C   0  0  2  0  0  3  0  0  0  0  0  0
  158.8190  213.7340  151.3590 C   0  0  0  0  0  1  0  0  0  0  0  0
  158.7920  211.4620  153.6540 C   0  0  0  0  0  2  0  0  0  0  0  0
  160.1130  211.9990  153.1570 C   0  0  1  0  0  3  0  0  0  0  0  0
  160.5490  210.8900  155.0980 C   0  0  2  0  0  3  0  0  0  0  0  0
  161.1430  211.4300  153.9420 O   0  0  0  0  0  0  0  0  0  0  0  0
  159.0690  211.1840  155.0890 C   0  0  0  0  0  2  0  0  0  0  0  0
  161.1670  211.4670  156.2830 N   0  0  0  0  0  2  0  0  0  0  0  0
  162.7440  210.7710  156.4610 S   0  0  0  0  0  0  0  0  0  0  0  0
  162.6300  209.3030  157.2600 F   0  0  0  0  0  0  0  0  0  0  0  0
  163.6070  211.7030  157.2610 O   0  0  0  0  0  0  0  0  0  0  0  0
  163.3650  210.5560  155.1100 O   0  0  0  0  0  0  0  0  0  0  0  0
  160.0580  212.2520  144.5430 O   0  0  0  0  0  0  0  0  0  0  0  0
  159.3160  213.2300  144.8310 C   0  0  0  0  0  0  0  0  0  0  0  0
  158.8650  214.1200  143.8060 N   0  0  0  0  0  2  0  0  0  0  0  0
  158.8680  213.4210  146.1700 N   0  0  0  0  0  2  0  0  0  0  0  0
  159.3900  214.1340  142.5010 N   0  0  0  0  0  2  0  0  0  0  0  0
  159.0400  213.1750  141.5000 C   0  0  0  0  0  0  0  0  0  0  0  0
  160.1370  212.0250  141.1090 S   0  0  0  0  0  0  0  0  0  0  0  0
  157.7660  213.2650  140.8460 N   0  0  0  0  0  2  0  0  0  0  0  0
  156.5240  212.4210  137.5040 C   0  0  2  0  0  3  0  0  0  0  0  0
  156.4580  212.7570  138.9090 C   0  0  2  0  0  3  0  0  0  0  0  0
  158.7510  213.7370  138.2130 S   0  0  0  0  0  0  0  0  0  0  0  0
  155.9810  211.0600  137.4450 N   0  0  0  0  0  2  0  0  0  0  0  0
  158.0040  212.4450  137.1590 C   0  0  0  0  0  2  0  0  0  0  0  0
  157.4970  213.3730  139.4410 C   0  0  2  0  0  3  0  0  0  0  0  0
  155.2480  210.8360  138.6420 N   0  0  0  0  0  2  0  0  0  0  0  0
  155.6940  211.7900  139.5690 N   0  0  0  0  0  2  0  0  0  0  0  0
  160.6380  209.4470  149.8860 C   0  0  0  0  0  2  0  0  0  0  0  0
  161.2840  204.3880  149.0510 C   0  0  0  0  0  3  0  0  0  0  0  0
  160.9160  206.7490  148.7310 C   0  0  0  0  0  3  0  0  0  0  0  0
  161.0710  205.4690  148.1940 C   0  0  0  0  0  3  0  0  0  0  0  0
  160.8950  208.3260  152.0980 C   0  0  0  0  0  3  0  0  0  0  0  0
  160.8340  208.2090  150.7060 C   0  0  0  0  0  0  0  0  0  0  0  0
  161.1880  205.8160  150.9460 C   0  0  0  0  0  0  0  0  0  0  0  0
  161.2430  205.9690  152.2950 N   0  0  0  0  0  0  0  0  0  0  0  0
  161.1010  207.1880  152.8820 C   0  0  0  0  0  0  0  0  0  0  0  0
  161.3370  204.5800  150.3960 N   0  0  0  0  0  0  0  0  0  0  0  0
  160.9770  206.9400  150.1160 C   0  0  0  0  0  0  0  0  0  0  0  0
  161.1540  207.3060  154.3120 C   0  0  0  0  0  0  0  0  0  0  0  0
  161.1990  207.3970  155.4650 N   0  0  0  0  0  0  0  0  0  0  0  0
  1 30  1  6  0  0  0
  1  9  1  0  0  0  0
  1  3  1  0  0  0  0
  2 16  1  1  0  0  0
  2 13  1  0  0  0  0
  4 14  1  0  0  0  0
  6  3  1  6  0  0  0
  6  2  1  0  0  0  0
  7 14  2  0  0  0  0
  7  5  1  0  0  0  0
  8  5  1  1  0  0  0
  8 12  1  0  0  0  0
  8  6  1  0  0  0  0
  9  8  1  0  0  0  0
 10 12  2  0  0  0  0
 12 15  1  0  0  0  0
 13 11  1  1  0  0  0
 13 18  1  0  0  0  0
 14 10  1  0  0  0  0
 15 43  1  6  0  0  0
 15 11  1  0  0  0  0
 17 21  1  0  0  0  0
 18 17  1  1  0  0  0
 18 20  1  0  0  0  0
 19 22  1  1  0  0  0
 20 19  1  0  0  0  0
 21 19  1  0  0  0  0
 22 23  1  0  0  0  0
 23 24  1  0  0  0  0
 23 25  2  0  0  0  0
 26 23  2  0  0  0  0
 27 28  2  0  0  0  0
 28 30  1  0  0  0  0
 29 28  1  0  0  0  0
 31 29  1  0  0  0  0
 32 31  1  0  0  0  0
 33 32  2  0  0  0  0
 34 32  1  0  0  0  0
 35 39  1  1  0  0  0
 35 36  1  0  0  0  0
 36 40  1  0  0  0  0
 36 42  1  1  0  0  0
 37 40  1  0  0  0  0
 38 35  1  0  0  0  0
 38 41  1  0  0  0  0
 39 37  1  0  0  0  0
 40 34  1  1  0  0  0
 41 42  1  0  0  0  0
 43 48  1  0  0  0  0
 44 52  2  0  0  0  0
 45 53  1  0  0  0  0
 46 45  2  0  0  0  0
 46 44  1  0  0  0  0
 47 51  2  0  0  0  0
 48 47  1  0  0  0  0
 49 50  2  0  0  0  0
 50 51  1  0  0  0  0
 51 54  1  0  0  0  0
 52 49  1  0  0  0  0
 53 48  2  0  0  0  0
 53 49  1  0  0  0  0
 54 55  3  0  0  0  0
M  END
>  <MODEL>
4

>  <REMARK>
 VINA RESULT:      -2.9      1.830      2.911
  Name = 
  11 active torsions:
  status: ('A' for Active; 'I' for Inactive)
    1  A    between atoms: C_3  and  N_54
    2  A    between atoms: N_10  and  S_17
    3  A    between atoms: N_10  and  C_36
    4  A    between atoms: C_23  and  N_25
    5  A    between atoms: C_24  and  C_43
    6  A    between atoms: N_25  and  C_40
    7  A    between atoms: C_30  and  N_34
    8  A    between atoms: N_39  and  N_41
    9  A    between atoms: C_40  and  N_41
   10  A    between atoms: C_43  and  C_47
   11  A    between atoms: C_46  and  C_48
                            x       y       z     vdW  Elec       q    Type
                         _______ _______ _______ _____ _____    ______ ____

>  <TORSDO>
F 11

$$$$
=
 OpenBabel11052410223D

 55 62  0  0  1  0  0  0  0  0999 V2000
  160.5860  207.8410  152.6060 C   0  0  2  0  0  3  0  0  0  0  0  0
  161.0620  211.2160  150.9800 C   0  0  2  0  0  3  0  0  0  0  0  0
  160.8630  208.6070  151.3310 C   0  0  0  0  0  2  0  0  0  0  0  0
  162.8290  210.8460  156.9380 F   0  0  0  0  0  0  0  0  0  0  0  0
  162.6990  210.0750  153.3050 C   0  0  0  0  0  2  0  0  0  0  0  0
  160.6460  209.9970  151.8170 C   0  0  1  0  0  3  0  0  0  0  0  0
  163.1450  210.1120  154.7460 C   0  0  0  0  0  3  0  0  0  0  0  0
  161.1610  209.9510  153.2360 C   0  0  1  0  0  0  0  0  0  0  0  0
  160.8070  208.6770  153.7310 O   0  0  0  0  0  0  0  0  0  0  0  0
  161.1270  211.3750  155.2560 C   0  0  0  0  0  3  0  0  0  0  0  0
  160.0880  212.8640  152.4300 C   0  0  0  0  0  2  0  0  0  0  0  0
  160.5440  211.0520  154.0930 C   0  0  0  0  0  0  0  0  0  0  0  0
  159.9900  212.2360  151.0980 N   0  0  1  0  0  0  0  0  0  0  0  0
  162.3960  210.7410  155.6590 C   0  0  0  0  0  0  0  0  0  0  0  0
  159.5090  212.0040  153.5650 C   0  0  2  0  0  3  0  0  0  0  0  0
  161.3460  210.8000  149.5310 C   0  0  0  0  0  1  0  0  0  0  0  0
  161.4620  213.1710  149.3850 C   0  0  0  0  0  2  0  0  0  0  0  0
  160.1110  213.2750  150.0510 C   0  0  1  0  0  3  0  0  0  0  0  0
  159.7400  213.3660  147.8050 C   0  0  2  0  0  3  0  0  0  0  0  0
  159.1170  213.1610  149.0510 O   0  0  0  0  0  0  0  0  0  0  0  0
  161.1970  213.6950  148.0180 C   0  0  0  0  0  2  0  0  0  0  0  0
  159.0780  214.4530  147.0990 N   0  0  0  0  0  2  0  0  0  0  0  0
  157.8160  213.7740  146.1260 S   0  0  0  0  0  0  0  0  0  0  0  0
  156.3320  214.0240  146.8640 F   0  0  0  0  0  0  0  0  0  0  0  0
  158.0490  212.2990  145.9740 O   0  0  0  0  0  0  0  0  0  0  0  0
  157.8120  214.4180  144.7690 O   0  0  0  0  0  0  0  0  0  0  0  0
  160.1230  205.4200  151.1950 O   0  0  0  0  0  0  0  0  0  0  0  0
  161.1640  205.4900  151.9020 C   0  0  0  0  0  0  0  0  0  0  0  0
  162.1190  204.4250  151.8890 N   0  0  0  0  0  2  0  0  0  0  0  0
  161.4310  206.6590  152.6720 N   0  0  0  0  0  2  0  0  0  0  0  0
  161.8690  203.1630  151.3180 N   0  0  0  0  0  2  0  0  0  0  0  0
  161.1990  202.9810  150.0690 C   0  0  0  0  0  0  0  0  0  0  0  0
  160.0170  201.8520  149.9790 S   0  0  0  0  0  0  0  0  0  0  0  0
  161.5970  203.7570  148.9290 N   0  0  0  0  0  0  0  0  0  0  0  0
  161.4010  203.8360  145.2720 C   0  0  2  0  0  3  0  0  0  0  0  0
  161.8390  204.2200  146.5950 C   0  0  2  0  0  3  0  0  0  0  0  0
  161.0830  201.7700  146.9520 S   0  0  0  0  0  0  0  0  0  0  0  0
  160.6880  205.0210  144.7830 N   0  0  0  0  0  2  0  0  0  0  0  0
  160.4540  202.6670  145.4910 C   0  0  0  0  0  2  0  0  0  0  0  0
  161.7120  203.3320  147.5640 C   0  0  0  0  0  0  0  0  0  0  0  0
  161.0940  206.1270  145.5790 N   0  0  0  0  0  2  0  0  0  0  0  0
  161.6400  205.5940  146.7560 N   0  0  0  0  0  2  0  0  0  0  0  0
  158.1810  211.3360  153.2130 C   0  0  0  0  0  2  0  0  0  0  0  0
  155.4800  214.0960  156.6470 C   0  0  0  0  0  3  0  0  0  0  0  0
  157.0250  212.5420  155.6410 C   0  0  0  0  0  3  0  0  0  0  0  0
  156.4850  213.1370  156.7840 C   0  0  0  0  0  3  0  0  0  0  0  0
  156.5570  212.7540  151.9590 C   0  0  0  0  0  3  0  0  0  0  0  0
  157.0760  212.3470  153.1930 C   0  0  0  0  0  0  0  0  0  0  0  0
  155.5370  213.8810  154.2830 C   0  0  0  0  0  0  0  0  0  0  0  0
  155.0590  214.2520  153.0660 N   0  0  0  0  0  0  0  0  0  0  0  0
  155.5430  213.7120  151.9150 C   0  0  0  0  0  0  0  0  0  0  0  0
  155.0300  214.4450  155.4120 N   0  0  0  0  0  0  0  0  0  0  0  0
  156.5600  212.9110  154.3740 C   0  0  0  0  0  0  0  0  0  0  0  0
  155.0030  214.1220  150.6490 C   0  0  0  0  0  0  0  0  0  0  0  0
  154.5720  214.4530  149.6270 N   0  0  0  0  0  0  0  0  0  0  0  0
  1 30  1  1  0  0  0
  1  9  1  0  0  0  0
  2 16  1  6  0  0  0
  2 13  1  0  0  0  0
  2  6  1  0  0  0  0
  3  1  1  0  0  0  0
  5  7  1  0  0  0  0
  6  3  1  6  0  0  0
  6  8  1  0  0  0  0
  7 14  2  0  0  0  0
  8  5  1  6  0  0  0
  8  9  1  0  0  0  0
  8 12  1  0  0  0  0
 10 14  1  0  0  0  0
 11 15  1  0  0  0  0
 12 10  2  0  0  0  0
 13 11  1  1  0  0  0
 14  4  1  0  0  0  0
 15 43  1  6  0  0  0
 15 12  1  0  0  0  0
 18 17  1  6  0  0  0
 18 13  1  0  0  0  0
 19 22  1  1  0  0  0
 19 21  1  0  0  0  0
 19 20  1  0  0  0  0
 20 18  1  0  0  0  0
 21 17  1  0  0  0  0
 23 24  1  0  0  0  0
 23 22  1  0  0  0  0
 25 23  2  0  0  0  0
 26 23  2  0  0  0  0
 27 28  2  0  0  0  0
 28 30  1  0  0  0  0
 29 28  1  0  0  0  0
 31 29  1  0  0  0  0
 32 31  1  0  0  0  0
 33 32  2  0  0  0  0
 34 32  1  0  0  0  0
 35 39  1  1  0  0  0
 35 36  1  0  0  0  0
 36 42  1  1  0  0  0
 36 40  1  0  0  0  0
 37 40  1  0  0  0  0
 38 35  1  0  0  0  0
 38 41  1  0  0  0  0
 39 37  1  0  0  0  0
 40 34  2  0  0  0  0
 41 42  1  0  0  0  0
 44 46  1  0  0  0  0
 45 46  2  0  0  0  0
 47 48  1  0  0  0  0
 48 43  1  0  0  0  0
 48 53  2  0  0  0  0
 49 53  1  0  0  0  0
 49 52  1  0  0  0  0
 50 49  2  0  0  0  0
 51 47  2  0  0  0  0
 51 50  1  0  0  0  0
 52 44  2  0  0  0  0
 53 45  1  0  0  0  0
 54 51  1  0  0  0  0
 55 54  3  0  0  0  0
M  END
>  <MODEL>
5

>  <REMARK>
 VINA RESULT:      -2.7      4.379      9.256
  Name = 
  11 active torsions:
  status: ('A' for Active; 'I' for Inactive)
    1  A    between atoms: C_3  and  N_54
    2  A    between atoms: N_10  and  S_17
    3  A    between atoms: N_10  and  C_36
    4  A    between atoms: C_23  and  N_25
    5  A    between atoms: C_24  and  C_43
    6  A    between atoms: N_25  and  C_40
    7  A    between atoms: C_30  and  N_34
    8  A    between atoms: N_39  and  N_41
    9  A    between atoms: C_40  and  N_41
   10  A    between atoms: C_43  and  C_47
   11  A    between atoms: C_46  and  C_48
                            x       y       z     vdW  Elec       q    Type
                         _______ _______ _______ _____ _____    ______ ____

>  <TORSDO>
F 11

$$$$
=
 OpenBabel11052410223D

 55 62  0  0  1  0  0  0  0  0999 V2000
  159.0520  212.4590  147.1290 C   0  0  2  0  0  3  0  0  0  0  0  0
  159.9990  212.9900  150.7460 C   0  0  2  0  0  3  0  0  0  0  0  0
  158.6870  213.0870  148.4570 C   0  0  0  0  0  2  0  0  0  0  0  0
  164.7710  212.3260  146.8030 F   0  0  0  0  0  0  0  0  0  0  0  0
  161.6810  213.7490  148.3000 C   0  0  0  0  0  2  0  0  0  0  0  0
  159.7360  212.4800  149.3220 C   0  0  1  0  0  3  0  0  0  0  0  0
  162.9150  213.5850  147.4470 C   0  0  0  0  0  3  0  0  0  0  0  0
  160.9350  212.4000  148.4060 C   0  0  1  0  0  0  0  0  0  0  0  0
  160.4220  212.0890  147.1280 O   0  0  0  0  0  0  0  0  0  0  0  0
  163.1750  211.3550  148.3890 C   0  0  0  0  0  3  0  0  0  0  0  0
  161.5750  211.2790  151.3420 C   0  0  0  0  0  2  0  0  0  0  0  0
  161.9220  211.3320  148.8660 C   0  0  0  0  0  0  0  0  0  0  0  0
  160.2260  211.8100  151.6180 N   0  0  1  0  0  0  0  0  0  0  0  0
  163.6200  212.4490  147.5060 C   0  0  0  0  0  0  0  0  0  0  0  0
  161.6640  210.4480  150.0530 C   0  0  2  0  0  3  0  0  0  0  0  0
  158.8420  213.8790  151.2200 C   0  0  0  0  0  1  0  0  0  0  0  0
  158.7000  211.9400  153.5230 C   0  0  0  0  0  2  0  0  0  0  0  0
  160.1160  212.1640  153.0510 C   0  0  1  0  0  3  0  0  0  0  0  0
  160.2570  211.0240  155.0180 C   0  0  2  0  0  3  0  0  0  0  0  0
  160.9790  211.3990  153.8700 O   0  0  0  0  0  0  0  0  0  0  0  0
  158.8780  211.6360  154.9680 C   0  0  0  0  0  2  0  0  0  0  0  0
  160.9620  211.4750  156.2090 N   0  0  0  0  0  2  0  0  0  0  0  0
  162.3490  210.4600  156.4300 S   0  0  0  0  0  0  0  0  0  0  0  0
  162.9430  209.9780  154.9390 F   0  0  0  0  0  0  0  0  0  0  0  0
  161.9520  209.2460  157.2190 O   0  0  0  0  0  0  0  0  0  0  0  0
  163.4180  211.2080  157.1740 O   0  0  0  0  0  0  0  0  0  0  0  0
  160.5300  212.6400  144.7110 O   0  0  0  0  0  0  0  0  0  0  0  0
  159.5290  213.3950  144.8370 C   0  0  0  0  0  0  0  0  0  0  0  0
  159.1040  214.2200  143.7480 N   0  0  0  0  0  2  0  0  0  0  0  0
  158.7720  213.3880  146.0450 N   0  0  0  0  0  2  0  0  0  0  0  0
  159.8760  214.4410  142.5930 N   0  0  0  0  0  2  0  0  0  0  0  0
  160.3280  213.3920  141.7330 C   0  0  0  0  0  0  0  0  0  0  0  0
  161.8720  213.4400  141.1940 S   0  0  0  0  0  0  0  0  0  0  0  0
  159.4170  212.3550  141.3390 N   0  0  0  0  0  2  0  0  0  0  0  0
  156.9220  212.2740  138.6580 C   0  0  2  0  0  3  0  0  0  0  0  0
  157.8040  212.8540  139.6460 C   0  0  2  0  0  3  0  0  0  0  0  0
  158.9370  210.5770  139.1640 S   0  0  0  0  0  0  0  0  0  0  0  0
  155.5810  212.6190  139.1420 N   0  0  0  0  0  2  0  0  0  0  0  0
  157.1730  210.7760  138.7330 C   0  0  0  0  0  2  0  0  0  0  0  0
  158.8330  212.1320  140.0480 C   0  0  2  0  0  3  0  0  0  0  0  0
  155.7190  213.6920  140.0640 N   0  0  0  0  0  2  0  0  0  0  0  0
  157.0590  213.6950  140.4790 N   0  0  0  0  0  2  0  0  0  0  0  0
  160.4920  209.4870  149.8610 C   0  0  0  0  0  2  0  0  0  0  0  0
  161.6380  205.6530  153.1320 C   0  0  0  0  0  3  0  0  0  0  0  0
  160.9950  207.7900  152.2180 C   0  0  0  0  0  3  0  0  0  0  0  0
  161.2150  206.9690  153.3260 C   0  0  0  0  0  3  0  0  0  0  0  0
  161.2120  207.5140  148.5160 C   0  0  0  0  0  3  0  0  0  0  0  0
  160.9810  208.0740  149.7770 C   0  0  0  0  0  0  0  0  0  0  0  0
  161.6300  205.9550  150.7760 C   0  0  0  0  0  0  0  0  0  0  0  0
  161.8430  205.4450  149.5340 N   0  0  0  0  0  0  0  0  0  0  0  0
  161.6460  206.1910  148.4130 C   0  0  0  0  0  0  0  0  0  0  0  0
  161.8360  205.1770  151.8730 N   0  0  0  0  0  0  0  0  0  0  0  0
  161.1960  207.2910  150.9260 C   0  0  0  0  0  0  0  0  0  0  0  0
  161.8930  205.6190  147.1200 C   0  0  0  0  0  0  0  0  0  0  0  0
  162.0870  205.1580  146.0760 N   0  0  0  0  0  0  0  0  0  0  0  0
  1 30  1  6  0  0  0
  1  3  1  0  0  0  0
  2 16  1  1  0  0  0
  2 13  1  0  0  0  0
  4 14  1  0  0  0  0
  6  3  1  6  0  0  0
  6  2  1  0  0  0  0
  7 14  2  0  0  0  0
  7  5  1  0  0  0  0
  8  5  1  6  0  0  0
  8 12  1  0  0  0  0
  8  6  1  0  0  0  0
  9  1  1  0  0  0  0
  9  8  1  0  0  0  0
 10 12  2  0  0  0  0
 12 15  1  0  0  0  0
 13 11  1  1  0  0  0
 13 18  1  0  0  0  0
 14 10  1  0  0  0  0
 15 43  1  6  0  0  0
 15 11  1  0  0  0  0
 17 21  1  0  0  0  0
 18 17  1  1  0  0  0
 18 20  1  0  0  0  0
 19 22  1  1  0  0  0
 20 19  1  0  0  0  0
 21 19  1  0  0  0  0
 22 23  1  0  0  0  0
 23 26  2  0  0  0  0
 23 25  2  0  0  0  0
 24 23  1  0  0  0  0
 27 28  2  0  0  0  0
 28 30  1  0  0  0  0
 29 28  1  0  0  0  0
 31 29  1  0  0  0  0
 32 31  1  0  0  0  0
 33 32  2  0  0  0  0
 34 32  1  0  0  0  0
 35 39  1  1  0  0  0
 35 38  1  0  0  0  0
 35 36  1  0  0  0  0
 36 40  1  0  0  0  0
 36 42  1  1  0  0  0
 37 40  1  0  0  0  0
 38 41  1  0  0  0  0
 39 37  1  0  0  0  0
 40 34  1  1  0  0  0
 41 42  1  0  0  0  0
 44 46  1  0  0  0  0
 45 46  2  0  0  0  0
 47 48  1  0  0  0  0
 48 43  1  0  0  0  0
 48 53  2  0  0  0  0
 49 53  1  0  0  0  0
 49 52  1  0  0  0  0
 50 49  2  0  0  0  0
 51 47  2  0  0  0  0
 51 50  1  0  0  0  0
 52 44  2  0  0  0  0
 53 45  1  0  0  0  0
 54 51  1  0  0  0  0
 55 54  3  0  0  0  0
M  END
>  <MODEL>
6

>  <REMARK>
 VINA RESULT:      -2.6      1.437      2.026
  Name = 
  11 active torsions:
  status: ('A' for Active; 'I' for Inactive)
    1  A    between atoms: C_3  and  N_54
    2  A    between atoms: N_10  and  S_17
    3  A    between atoms: N_10  and  C_36
    4  A    between atoms: C_23  and  N_25
    5  A    between atoms: C_24  and  C_43
    6  A    between atoms: N_25  and  C_40
    7  A    between atoms: C_30  and  N_34
    8  A    between atoms: N_39  and  N_41
    9  A    between atoms: C_40  and  N_41
   10  A    between atoms: C_43  and  C_47
   11  A    between atoms: C_46  and  C_48
                            x       y       z     vdW  Elec       q    Type
                         _______ _______ _______ _____ _____    ______ ____

>  <TORSDO>
F 11

$$$$
=
 OpenBabel11052410223D

 55 62  0  0  1  0  0  0  0  0999 V2000
  159.3260  212.2690  146.9720 C   0  0  2  0  0  3  0  0  0  0  0  0
  159.8440  212.9560  150.6490 C   0  0  2  0  0  3  0  0  0  0  0  0
  158.7820  212.9050  148.2320 C   0  0  0  0  0  2  0  0  0  0  0  0
  165.0440  212.5150  147.2540 F   0  0  0  0  0  0  0  0  0  0  0  0
  161.7260  213.7630  148.3700 C   0  0  0  0  0  2  0  0  0  0  0  0
  159.7690  212.3930  149.2220 C   0  0  1  0  0  3  0  0  0  0  0  0
  163.0520  213.6610  147.6570 C   0  0  0  0  0  3  0  0  0  0  0  0
  161.0620  212.3710  148.4410 C   0  0  1  0  0  0  0  0  0  0  0  0
  160.7090  211.9920  147.1270 O   0  0  0  0  0  0  0  0  0  0  0  0
  163.3530  211.4800  148.6940 C   0  0  0  0  0  3  0  0  0  0  0  0
  161.4540  211.3720  151.4630 C   0  0  0  0  0  2  0  0  0  0  0  0
  162.0610  211.3840  149.0370 C   0  0  0  0  0  0  0  0  0  0  0  0
  160.0520  211.8180  151.5780 N   0  0  1  0  0  0  0  0  0  0  0  0
  163.8190  212.5780  147.8280 C   0  0  0  0  0  0  0  0  0  0  0  0
  161.7340  210.5160  150.2190 C   0  0  2  0  0  3  0  0  0  0  0  0
  158.5880  213.7770  150.9680 C   0  0  0  0  0  1  0  0  0  0  0  0
  159.7080  213.7050  153.0930 C   0  0  0  0  0  2  0  0  0  0  0  0
  159.7670  212.2010  152.9790 C   0  0  1  0  0  3  0  0  0  0  0  0
  157.8920  212.6900  154.1760 C   0  0  2  0  0  3  0  0  0  0  0  0
  158.5410  211.6750  153.4490 O   0  0  0  0  0  0  0  0  0  0  0  0
  158.7760  213.9130  154.2340 C   0  0  0  0  0  2  0  0  0  0  0  0
  157.6000  212.2200  155.5220 N   0  0  0  0  0  2  0  0  0  0  0  0
  155.9200  211.7960  155.5920 S   0  0  0  0  0  0  0  0  0  0  0  0
  155.0850  212.5840  154.3710 F   0  0  0  0  0  0  0  0  0  0  0  0
  155.3620  212.2130  156.9220 O   0  0  0  0  0  0  0  0  0  0  0  0
  155.7590  210.3120  155.4290 O   0  0  0  0  0  0  0  0  0  0  0  0
  160.0900  211.7010  144.2960 O   0  0  0  0  0  0  0  0  0  0  0  0
  159.4750  212.7810  144.5070 C   0  0  0  0  0  0  0  0  0  0  0  0
  159.0870  213.6170  143.4140 N   0  0  0  0  0  2  0  0  0  0  0  0
  159.1050  213.1480  145.8340 N   0  0  0  0  0  2  0  0  0  0  0  0
  159.5570  213.4460  142.0990 N   0  0  0  0  0  2  0  0  0  0  0  0
  158.7100  213.1160  140.9950 C   0  0  0  0  0  0  0  0  0  0  0  0
  157.4830  214.1340  140.6250 S   0  0  0  0  0  0  0  0  0  0  0  0
  158.9320  211.8970  140.2700 N   0  0  0  0  0  2  0  0  0  0  0  0
  161.2980  209.6580  138.5950 C   0  0  2  0  0  3  0  0  0  0  0  0
  160.1840  210.5690  138.7250 C   0  0  2  0  0  3  0  0  0  0  0  0
  161.6500  211.1970  140.7640 S   0  0  0  0  0  0  0  0  0  0  0  0
  160.6700  208.3950  138.1900 N   0  0  0  0  0  2  0  0  0  0  0  0
  161.8940  209.5600  139.9910 C   0  0  0  0  0  2  0  0  0  0  0  0
  160.1710  211.3780  139.7690 C   0  0  2  0  0  3  0  0  0  0  0  0
  159.3760  208.7000  137.6870 N   0  0  0  0  0  2  0  0  0  0  0  0
  159.0440  209.9710  138.1790 N   0  0  0  0  0  2  0  0  0  0  0  0
  160.6540  209.4730  149.9360 C   0  0  0  0  0  2  0  0  0  0  0  0
  161.2040  204.3680  149.3470 C   0  0  0  0  0  3  0  0  0  0  0  0
  160.8700  206.7170  148.9150 C   0  0  0  0  0  3  0  0  0  0  0  0
  160.9970  205.4090  148.4400 C   0  0  0  0  0  3  0  0  0  0  0  0
  160.9240  208.4600  152.1980 C   0  0  0  0  0  3  0  0  0  0  0  0
  160.8410  208.2750  150.8140 C   0  0  0  0  0  0  0  0  0  0  0  0
  161.1590  205.8910  151.1700 C   0  0  0  0  0  0  0  0  0  0  0  0
  161.2350  206.1100  152.5090 N   0  0  0  0  0  0  0  0  0  0  0  0
  161.1210  207.3590  153.0350 C   0  0  0  0  0  0  0  0  0  0  0  0
  161.2800  204.6270  150.6810 N   0  0  0  0  0  0  0  0  0  0  0  0
  160.9540  206.9750  150.2870 C   0  0  0  0  0  0  0  0  0  0  0  0
  161.1960  207.5480  154.4560 C   0  0  0  0  0  0  0  0  0  0  0  0
  161.2600  207.7020  155.6020 N   0  0  0  0  0  0  0  0  0  0  0  0
  1 30  1  6  0  0  0
  1  9  1  0  0  0  0
  1  3  1  0  0  0  0
  2 16  1  1  0  0  0
  2 13  1  0  0  0  0
  4 14  1  0  0  0  0
  6  3  1  6  0  0  0
  6  2  1  0  0  0  0
  7 14  2  0  0  0  0
  7  5  1  0  0  0  0
  8  5  1  6  0  0  0
  8 12  1  0  0  0  0
  8  6  1  0  0  0  0
  9  8  1  0  0  0  0
 10 12  2  0  0  0  0
 12 15  1  0  0  0  0
 13 11  1  1  0  0  0
 13 18  1  0  0  0  0
 14 10  1  0  0  0  0
 15 43  1  6  0  0  0
 15 11  1  0  0  0  0
 17 21  1  0  0  0  0
 18 17  1  6  0  0  0
 18 20  1  0  0  0  0
 19 21  1  0  0  0  0
 19 22  1  1  0  0  0
 20 19  1  0  0  0  0
 22 23  1  0  0  0  0
 23 25  2  0  0  0  0
 24 23  1  0  0  0  0
 26 23  2  0  0  0  0
 27 28  2  0  0  0  0
 28 30  1  0  0  0  0
 29 28  1  0  0  0  0
 31 29  1  0  0  0  0
 32 31  1  0  0  0  0
 33 32  2  0  0  0  0
 34 32  1  0  0  0  0
 35 36  1  0  0  0  0
 35 39  1  1  0  0  0
 36 42  1  1  0  0  0
 36 40  1  0  0  0  0
 38 35  1  0  0  0  0
 39 37  1  0  0  0  0
 40 34  1  1  0  0  0
 40 37  1  0  0  0  0
 41 42  1  0  0  0  0
 41 38  1  0  0  0  0
 43 48  1  0  0  0  0
 44 52  2  0  0  0  0
 45 53  1  0  0  0  0
 46 45  2  0  0  0  0
 46 44  1  0  0  0  0
 47 51  2  0  0  0  0
 48 47  1  0  0  0  0
 49 50  2  0  0  0  0
 50 51  1  0  0  0  0
 51 54  1  0  0  0  0
 52 49  1  0  0  0  0
 53 48  2  0  0  0  0
 53 49  1  0  0  0  0
 54 55  3  0  0  0  0
M  END
>  <MODEL>
7

>  <REMARK>
 VINA RESULT:      -1.9      2.168      3.153
  Name = 
  11 active torsions:
  status: ('A' for Active; 'I' for Inactive)
    1  A    between atoms: C_3  and  N_54
    2  A    between atoms: N_10  and  S_17
    3  A    between atoms: N_10  and  C_36
    4  A    between atoms: C_23  and  N_25
    5  A    between atoms: C_24  and  C_43
    6  A    between atoms: N_25  and  C_40
    7  A    between atoms: C_30  and  N_34
    8  A    between atoms: N_39  and  N_41
    9  A    between atoms: C_40  and  N_41
   10  A    between atoms: C_43  and  C_47
   11  A    between atoms: C_46  and  C_48
                            x       y       z     vdW  Elec       q    Type
                         _______ _______ _______ _____ _____    ______ ____

>  <TORSDO>
F 11

$$$$
