=
 OpenBabel11042421053D

 36 38  0  0  1  0  0  0  0  0999 V2000
  157.7300  213.4140  153.4370 C   0  0  2  0  0  3  0  0  0  0  0  0
  161.3460  208.2460  154.3490 O   0  0  0  0  0  0  0  0  0  0  0  0
  161.7480  208.4870  157.1580 O   0  0  0  0  0  1  0  0  0  0  0  0
  160.0970  212.5350  154.8460 C   0  0  2  0  0  3  0  0  0  0  0  0
  159.1270  208.8540  154.7430 F   0  0  0  0  0  0  0  0  0  0  0  0
  160.5860  212.2380  157.2050 O   0  0  0  0  0  0  0  0  0  0  0  0
  161.2760  210.0230  152.0240 C   0  0  0  0  0  0  0  0  0  0  0  0
  158.7630  214.3520  153.8690 N   0  0  0  0  0  2  0  0  0  0  0  0
  159.9840  207.0080  155.7090 F   0  0  0  0  0  0  0  0  0  0  0  0
  160.4540  209.0130  152.2910 C   0  0  0  0  0  3  0  0  0  0  0  0
  158.7820  211.1010  156.3260 O   0  0  0  0  0  1  0  0  0  0  0  0
  160.2800  208.2920  155.2800 C   0  0  0  0  0  0  0  0  0  0  0  0
  160.7040  211.2680  151.4240 C   0  0  1  0  0  3  0  0  0  0  0  0
  159.7000  211.8340  153.6100 N   0  0  2  0  0  0  0  0  0  0  0  0
  160.8710  207.8210  153.0940 C   0  0  0  0  0  2  0  0  0  0  0  0
  160.7090  209.1360  156.4820 C   0  0  2  0  0  3  0  0  0  0  0  0
  160.0640  211.6010  156.0670 C   0  0  1  0  0  0  0  0  0  0  0  0
  161.1610  210.5470  156.0560 C   0  0  1  0  0  3  0  0  0  0  0  0
  160.5240  212.3310  152.5070 C   0  0  0  0  0  2  0  0  0  0  0  0
  162.6150  209.9780  152.4040 O   0  0  0  0  0  1  0  0  0  0  0  0
  158.2730  211.9810  153.2700 C   0  0  0  0  0  2  0  0  0  0  0  0
  159.3120  213.8300  155.1100 C   0  0  0  0  0  2  0  0  0  0  0  0
  161.6500  211.3190  157.2600 C   0  0  0  0  0  2  0  0  0  0  0  0
  157.0170  213.8940  152.1700 C   0  0  1  0  0  3  0  0  0  0  0  0
  157.3960  213.0390  150.9740 C   0  0  0  0  0  1  0  0  0  0  0  0
  155.5290  213.9730  152.3200 C   0  0  0  0  0  0  0  0  0  0  0  0
  154.7130  214.1600  151.2100 O   0  0  0  0  0  1  0  0  0  0  0  0
  154.9850  213.8560  153.5200 C   0  0  0  0  0  2  0  0  0  0  0  0
  161.6040  211.8140  150.3230 C   0  0  0  0  0  2  0  0  0  0  0  0
  160.8130  212.6520  149.3260 C   0  0  0  0  0  2  0  0  0  0  0  0
  161.7400  213.4050  148.3870 C   0  0  0  0  0  2  0  0  0  0  0  0
  161.5730  212.8930  146.9660 C   0  0  0  0  0  2  0  0  0  0  0  0
  160.2350  213.3330  146.4010 C   0  0  0  0  0  2  0  0  0  0  0  0
  159.5470  212.2340  145.8850 O   0  0  0  0  0  0  0  0  0  0  0  0
  157.5730  212.6010  147.1540 C   0  0  0  0  0  1  0  0  0  0  0  0
  158.2240  212.6640  145.7890 C   0  0  0  0  0  2  0  0  0  0  0  0
  1 24  1  6  0  0  0
  1  8  1  0  0  0  0
  2 12  1  0  0  0  0
  4 22  1  1  0  0  0
  4 17  1  0  0  0  0
  5 12  1  0  0  0  0
  6 23  1  0  0  0  0
  7 10  2  0  0  0  0
  7 20  1  0  0  0  0
  8 22  1  0  0  0  0
 10 15  1  0  0  0  0
 12  9  1  0  0  0  0
 12 16  1  0  0  0  0
 13 29  1  6  0  0  0
 13  7  1  0  0  0  0
 13 19  1  0  0  0  0
 14 19  1  6  0  0  0
 14  4  1  0  0  0  0
 15  2  1  0  0  0  0
 16  3  1  6  0  0  0
 17 11  1  1  0  0  0
 17  6  1  0  0  0  0
 18 17  1  0  0  0  0
 18 16  1  0  0  0  0
 18 23  1  1  0  0  0
 21  1  1  0  0  0  0
 21 14  1  0  0  0  0
 24 25  1  6  0  0  0
 24 26  1  0  0  0  0
 26 28  2  0  0  0  0
 27 26  1  0  0  0  0
 30 29  1  0  0  0  0
 31 30  1  0  0  0  0
 32 31  1  0  0  0  0
 33 32  1  0  0  0  0
 34 33  1  0  0  0  0
 36 34  1  0  0  0  0
 36 35  1  0  0  0  0
M  END
>  <MODEL>
1

>  <REMARK>
 VINA RESULT:      -3.8      0.000      0.000
  Name = 
  9 active torsions:
  status: ('A' for Active; 'I' for Inactive)
    1  A    between atoms: C_1  and  C_21
    2  A    between atoms: C_1  and  C_30
    3  A    between atoms: C_2  and  C_5
    4  A    between atoms: C_2  and  C_30
    5  A    between atoms: C_3  and  C_15
    6  A    between atoms: C_5  and  C_22
    7  A    between atoms: C_7  and  C_15
    8  A    between atoms: C_22  and  O_24
    9  A    between atoms: O_24  and  C_34
                            x       y       z     vdW  Elec       q    Type
                         _______ _______ _______ _____ _____    ______ ____

>  <TORSDO>
F 9

$$$$
=
 OpenBabel11042421053D

 36 38  0  0  1  0  0  0  0  0999 V2000
  158.2150  212.8650  153.8760 C   0  0  2  0  0  3  0  0  0  0  0  0
  161.5550  207.4410  154.0620 O   0  0  0  0  0  0  0  0  0  0  0  0
  162.2240  207.4370  156.8300 O   0  0  0  0  0  1  0  0  0  0  0  0
  160.6370  211.7420  154.9870 C   0  0  2  0  0  3  0  0  0  0  0  0
  159.4250  208.1430  154.7080 F   0  0  0  0  0  0  0  0  0  0  0  0
  161.3160  211.2340  157.2600 O   0  0  0  0  0  0  0  0  0  0  0  0
  161.3910  209.3970  151.8900 C   0  0  0  0  0  0  0  0  0  0  0  0
  159.3410  213.7050  154.2760 N   0  0  0  0  0  2  0  0  0  0  0  0
  160.2440  206.1810  155.4510 F   0  0  0  0  0  0  0  0  0  0  0  0
  160.5320  208.4170  152.1600 C   0  0  0  0  0  3  0  0  0  0  0  0
  159.3700  210.2750  156.4760 O   0  0  0  0  0  1  0  0  0  0  0  0
  160.5820  207.4750  155.0900 C   0  0  0  0  0  0  0  0  0  0  0  0
  160.8490  210.7150  151.4390 C   0  0  1  0  0  3  0  0  0  0  0  0
  160.0850  211.1650  153.7460 N   0  0  2  0  0  0  0  0  0  0  0  0
  160.9420  207.1440  152.8300 C   0  0  0  0  0  2  0  0  0  0  0  0
  161.1720  208.1960  156.3050 C   0  0  2  0  0  3  0  0  0  0  0  0
  160.6540  210.7190  156.1330 C   0  0  1  0  0  0  0  0  0  0  0  0
  161.6750  209.6080  155.9410 C   0  0  1  0  0  3  0  0  0  0  0  0
  160.8370  211.6980  152.6090 C   0  0  0  0  0  2  0  0  0  0  0  0
  162.7530  209.2440  152.1360 O   0  0  0  0  0  1  0  0  0  0  0  0
  158.6460  211.4200  153.5540 C   0  0  0  0  0  2  0  0  0  0  0  0
  159.9650  213.0560  155.4180 C   0  0  0  0  0  2  0  0  0  0  0  0
  162.3190  210.2530  157.1470 C   0  0  0  0  0  2  0  0  0  0  0  0
  157.4230  213.4840  152.7210 C   0  0  1  0  0  3  0  0  0  0  0  0
  157.7050  212.7590  151.4170 C   0  0  0  0  0  1  0  0  0  0  0  0
  155.9500  213.5560  152.9820 C   0  0  0  0  0  0  0  0  0  0  0  0
  155.0700  213.9590  151.9840 O   0  0  0  0  0  1  0  0  0  0  0  0
  155.4800  213.2270  154.1750 C   0  0  0  0  0  2  0  0  0  0  0  0
  161.6790  211.2930  150.3000 C   0  0  0  0  0  2  0  0  0  0  0  0
  161.5800  210.4290  149.0490 C   0  0  0  0  0  2  0  0  0  0  0  0
  162.3670  209.1390  149.2110 C   0  0  0  0  0  2  0  0  0  0  0  0
  161.5160  207.9520  148.7940 C   0  0  0  0  0  2  0  0  0  0  0  0
  162.2460  207.1180  147.7560 C   0  0  0  0  0  2  0  0  0  0  0  0
  161.3280  206.5040  146.9030 O   0  0  0  0  0  0  0  0  0  0  0  0
  162.9970  204.8840  146.4180 C   0  0  0  0  0  1  0  0  0  0  0  0
  162.1060  205.9790  145.8710 C   0  0  0  0  0  2  0  0  0  0  0  0
  1 24  1  6  0  0  0
  1  8  1  0  0  0  0
  2 12  1  0  0  0  0
  4 22  1  1  0  0  0
  4 17  1  0  0  0  0
  5 12  1  0  0  0  0
  7 20  1  0  0  0  0
  7 10  2  0  0  0  0
  8 22  1  0  0  0  0
 10 15  1  0  0  0  0
 12  9  1  0  0  0  0
 12 16  1  0  0  0  0
 13 29  1  6  0  0  0
 13  7  1  0  0  0  0
 13 19  1  0  0  0  0
 14 19  1  6  0  0  0
 14  4  1  0  0  0  0
 15  2  1  0  0  0  0
 16  3  1  6  0  0  0
 17 11  1  1  0  0  0
 17  6  1  0  0  0  0
 18 17  1  0  0  0  0
 18 16  1  0  0  0  0
 18 23  1  1  0  0  0
 21 14  1  0  0  0  0
 21  1  1  0  0  0  0
 23  6  1  0  0  0  0
 24 25  1  6  0  0  0
 24 26  1  0  0  0  0
 26 28  2  0  0  0  0
 27 26  1  0  0  0  0
 30 31  1  0  0  0  0
 30 29  1  0  0  0  0
 32 31  1  0  0  0  0
 33 32  1  0  0  0  0
 34 33  1  0  0  0  0
 36 35  1  0  0  0  0
 36 34  1  0  0  0  0
M  END
>  <MODEL>
2

>  <REMARK>
 VINA RESULT:      -2.9      2.476      2.920
  Name = 
  9 active torsions:
  status: ('A' for Active; 'I' for Inactive)
    1  A    between atoms: C_1  and  C_21
    2  A    between atoms: C_1  and  C_30
    3  A    between atoms: C_2  and  C_5
    4  A    between atoms: C_2  and  C_30
    5  A    between atoms: C_3  and  C_15
    6  A    between atoms: C_5  and  C_22
    7  A    between atoms: C_7  and  C_15
    8  A    between atoms: C_22  and  O_24
    9  A    between atoms: O_24  and  C_34
                            x       y       z     vdW  Elec       q    Type
                         _______ _______ _______ _____ _____    ______ ____

>  <TORSDO>
F 9

$$$$
=
 OpenBabel11042421053D

 36 38  0  0  1  0  0  0  0  0999 V2000
  157.7700  213.3330  151.1070 C   0  0  2  0  0  3  0  0  0  0  0  0
  160.9450  209.1560  154.7250 O   0  0  0  0  0  0  0  0  0  0  0  0
  160.5550  210.3920  157.2610 O   0  0  0  0  0  1  0  0  0  0  0  0
  159.6450  213.2170  153.3050 C   0  0  2  0  0  3  0  0  0  0  0  0
  158.7090  209.6570  154.2790 F   0  0  0  0  0  0  0  0  0  0  0  0
  159.4590  213.8040  155.6530 O   0  0  0  0  0  0  0  0  0  0  0  0
  161.5380  210.0020  151.9860 C   0  0  0  0  0  0  0  0  0  0  0  0
  158.6510  214.4520  151.4290 N   0  0  0  0  0  2  0  0  0  0  0  0
  159.2490  208.3480  156.0310 F   0  0  0  0  0  0  0  0  0  0  0  0
  160.6640  209.0760  152.3730 C   0  0  0  0  0  3  0  0  0  0  0  0
  157.9590  212.2720  154.8010 O   0  0  0  0  0  1  0  0  0  0  0  0
  159.6630  209.4240  155.2630 C   0  0  0  0  0  0  0  0  0  0  0  0
  161.1660  210.9020  150.8520 C   0  0  1  0  0  3  0  0  0  0  0  0
  159.6000  212.0980  152.3450 N   0  0  2  0  0  0  0  0  0  0  0  0
  160.8320  208.2800  153.6280 C   0  0  0  0  0  2  0  0  0  0  0  0
  159.7490  210.6690  156.1500 C   0  0  2  0  0  3  0  0  0  0  0  0
  159.2670  212.7660  154.7250 C   0  0  1  0  0  0  0  0  0  0  0  0
  160.3150  211.8790  155.3800 C   0  0  1  0  0  3  0  0  0  0  0  0
  160.7020  212.2540  151.3950 C   0  0  0  0  0  2  0  0  0  0  0  0
  162.7190  210.2140  152.6930 O   0  0  0  0  0  1  0  0  0  0  0  0
  158.3250  211.9870  151.6140 C   0  0  0  0  0  2  0  0  0  0  0  0
  158.8300  214.4460  152.8720 C   0  0  0  0  0  2  0  0  0  0  0  0
  160.4580  213.0620  156.3100 C   0  0  0  0  0  2  0  0  0  0  0  0
  157.4400  213.2760  149.6140 C   0  0  1  0  0  3  0  0  0  0  0  0
  156.0820  213.8940  149.3320 C   0  0  0  0  0  1  0  0  0  0  0  0
  158.4960  213.8930  148.7480 C   0  0  0  0  0  0  0  0  0  0  0  0
  159.8310  213.8780  149.1370 O   0  0  0  0  0  1  0  0  0  0  0  0
  158.1550  214.4520  147.5980 C   0  0  0  0  0  2  0  0  0  0  0  0
  162.3400  211.1120  149.9050 C   0  0  0  0  0  2  0  0  0  0  0  0
  161.9130  210.9600  148.4510 C   0  0  0  0  0  2  0  0  0  0  0  0
  161.4620  209.5390  148.1590 C   0  0  0  0  0  2  0  0  0  0  0  0
  162.3280  208.5490  148.9200 C   0  0  0  0  0  2  0  0  0  0  0  0
  161.8670  207.1280  148.6490 C   0  0  0  0  0  2  0  0  0  0  0  0
  160.6960  206.8600  149.3590 O   0  0  0  0  0  0  0  0  0  0  0  0
  161.2400  204.6850  148.5730 C   0  0  0  0  0  1  0  0  0  0  0  0
  160.8260  205.5300  149.7580 C   0  0  0  0  0  2  0  0  0  0  0  0
  1 24  1  6  0  0  0
  1  8  1  0  0  0  0
  1 21  1  0  0  0  0
  2 12  1  0  0  0  0
  4 22  1  6  0  0  0
  4 17  1  0  0  0  0
  5 12  1  0  0  0  0
  6 23  1  0  0  0  0
  7 10  2  0  0  0  0
  7 20  1  0  0  0  0
  8 22  1  0  0  0  0
 10 15  1  0  0  0  0
 12  9  1  0  0  0  0
 12 16  1  0  0  0  0
 13 29  1  6  0  0  0
 13 19  1  0  0  0  0
 13  7  1  0  0  0  0
 14 19  1  6  0  0  0
 14  4  1  0  0  0  0
 15  2  1  0  0  0  0
 16  3  1  1  0  0  0
 17 11  1  1  0  0  0
 17 18  1  0  0  0  0
 17  6  1  0  0  0  0
 18 16  1  0  0  0  0
 18 23  1  1  0  0  0
 21 14  1  0  0  0  0
 24 25  1  1  0  0  0
 26 27  1  0  0  0  0
 26 24  1  0  0  0  0
 28 26  2  0  0  0  0
 30 29  1  0  0  0  0
 31 30  1  0  0  0  0
 31 32  1  0  0  0  0
 33 32  1  0  0  0  0
 33 34  1  0  0  0  0
 34 36  1  0  0  0  0
 35 36  1  0  0  0  0
M  END
>  <MODEL>
3

>  <REMARK>
 VINA RESULT:      -2.8      2.285      3.570
  Name = 
  9 active torsions:
  status: ('A' for Active; 'I' for Inactive)
    1  A    between atoms: C_1  and  C_21
    2  A    between atoms: C_1  and  C_30
    3  A    between atoms: C_2  and  C_5
    4  A    between atoms: C_2  and  C_30
    5  A    between atoms: C_3  and  C_15
    6  A    between atoms: C_5  and  C_22
    7  A    between atoms: C_7  and  C_15
    8  A    between atoms: C_22  and  O_24
    9  A    between atoms: O_24  and  C_34
                            x       y       z     vdW  Elec       q    Type
                         _______ _______ _______ _____ _____    ______ ____

>  <TORSDO>
F 9

$$$$
=
 OpenBabel11042421053D

 36 38  0  0  1  0  0  0  0  0999 V2000
  160.1640  210.6860  153.0040 C   0  0  2  0  0  3  0  0  0  0  0  0
  161.5140  205.8730  149.0520 O   0  0  0  0  0  0  0  0  0  0  0  0
  162.0530  203.8560  150.9900 O   0  0  0  0  0  1  0  0  0  0  0  0
  162.0400  208.5140  152.6490 C   0  0  2  0  0  3  0  0  0  0  0  0
  159.7160  206.5070  150.3980 F   0  0  0  0  0  0  0  0  0  0  0  0
  162.4380  206.4710  153.8950 O   0  0  0  0  0  0  0  0  0  0  0  0
  162.0780  208.7230  148.6980 C   0  0  0  0  0  0  0  0  0  0  0  0
  161.4900  210.7060  153.6150 N   0  0  0  0  0  2  0  0  0  0  0  0
  159.8160  204.4230  149.5500 F   0  0  0  0  0  0  0  0  0  0  0  0
  160.9350  208.0900  148.4470 C   0  0  0  0  0  3  0  0  0  0  0  0
  160.3110  206.8420  153.0830 O   0  0  0  0  0  1  0  0  0  0  0  0
  160.5740  205.4760  150.0340 C   0  0  0  0  0  0  0  0  0  0  0  0
  162.0180  210.0890  149.3020 C   0  0  1  0  0  3  0  0  0  0  0  0
  161.3700  209.0810  151.4640 N   0  0  2  0  0  0  0  0  0  0  0  0
  160.8790  206.6450  148.0620 C   0  0  0  0  0  2  0  0  0  0  0  0
  161.3290  205.0170  151.2850 C   0  0  2  0  0  3  0  0  0  0  0  0
  161.6800  207.0350  152.8560 C   0  0  1  0  0  0  0  0  0  0  0  0
  162.2820  206.1100  151.8080 C   0  0  1  0  0  3  0  0  0  0  0  0
  162.2930  210.0050  150.8030 C   0  0  0  0  0  2  0  0  0  0  0  0
  163.3050  208.0880  148.5190 O   0  0  0  0  0  1  0  0  0  0  0  0
  160.1040  209.7720  151.7630 C   0  0  0  0  0  2  0  0  0  0  0  0
  161.8270  209.3290  153.9360 C   0  0  0  0  0  2  0  0  0  0  0  0
  163.0630  205.5900  152.9930 C   0  0  0  0  0  2  0  0  0  0  0  0
  159.6600  212.0960  152.6870 C   0  0  1  0  0  3  0  0  0  0  0  0
  159.8320  212.4180  151.2130 C   0  0  0  0  0  1  0  0  0  0  0  0
  158.2460  212.3340  153.1230 C   0  0  0  0  0  0  0  0  0  0  0  0
  157.4840  213.3400  152.5410 O   0  0  0  0  0  1  0  0  0  0  0  0
  157.7160  211.5730  154.0660 C   0  0  0  0  0  2  0  0  0  0  0  0
  163.0290  211.0250  148.6530 C   0  0  0  0  0  2  0  0  0  0  0  0
  162.4290  212.4030  148.4040 C   0  0  0  0  0  2  0  0  0  0  0  0
  161.1900  212.3110  147.5310 C   0  0  0  0  0  2  0  0  0  0  0  0
  160.4620  213.6450  147.5140 C   0  0  0  0  0  2  0  0  0  0  0  0
  159.2110  213.5520  146.6590 C   0  0  0  0  0  2  0  0  0  0  0  0
  158.3860  212.5290  147.1280 O   0  0  0  0  0  0  0  0  0  0  0  0
  157.0100  213.1220  148.9710 C   0  0  0  0  0  1  0  0  0  0  0  0
  157.1950  213.1690  147.4700 C   0  0  0  0  0  2  0  0  0  0  0  0
  1 24  1  6  0  0  0
  1  8  1  0  0  0  0
  2 12  1  0  0  0  0
  4 17  1  0  0  0  0
  4 22  1  1  0  0  0
  7 13  1  0  0  0  0
  8 22  1  0  0  0  0
  9 12  1  0  0  0  0
 10  7  2  0  0  0  0
 12  5  1  0  0  0  0
 12 16  1  0  0  0  0
 13 29  1  6  0  0  0
 13 19  1  0  0  0  0
 14 19  1  1  0  0  0
 14 21  1  0  0  0  0
 14  4  1  0  0  0  0
 15 10  1  0  0  0  0
 15  2  1  0  0  0  0
 16  3  1  6  0  0  0
 16 18  1  0  0  0  0
 17 11  1  1  0  0  0
 17  6  1  0  0  0  0
 18 17  1  0  0  0  0
 18 23  1  1  0  0  0
 20  7  1  0  0  0  0
 21  1  1  0  0  0  0
 23  6  1  0  0  0  0
 24 25  1  6  0  0  0
 24 26  1  0  0  0  0
 26 28  2  0  0  0  0
 27 26  1  0  0  0  0
 30 29  1  0  0  0  0
 31 30  1  0  0  0  0
 32 31  1  0  0  0  0
 33 34  1  0  0  0  0
 33 32  1  0  0  0  0
 34 36  1  0  0  0  0
 36 35  1  0  0  0  0
M  END
>  <MODEL>
4

>  <REMARK>
 VINA RESULT:      -2.5      2.990      4.502
  Name = 
  9 active torsions:
  status: ('A' for Active; 'I' for Inactive)
    1  A    between atoms: C_1  and  C_21
    2  A    between atoms: C_1  and  C_30
    3  A    between atoms: C_2  and  C_5
    4  A    between atoms: C_2  and  C_30
    5  A    between atoms: C_3  and  C_15
    6  A    between atoms: C_5  and  C_22
    7  A    between atoms: C_7  and  C_15
    8  A    between atoms: C_22  and  O_24
    9  A    between atoms: O_24  and  C_34
                            x       y       z     vdW  Elec       q    Type
                         _______ _______ _______ _____ _____    ______ ____

>  <TORSDO>
F 9

$$$$
=
 OpenBabel11042421053D

 36 38  0  0  1  0  0  0  0  0999 V2000
  161.0920  207.2580  148.0760 C   0  0  2  0  0  3  0  0  0  0  0  0
  160.9510  208.2480  154.3700 O   0  0  0  0  0  0  0  0  0  0  0  0
  161.9580  210.9110  154.4140 O   0  0  0  0  0  1  0  0  0  0  0  0
  162.6680  208.3910  150.2190 C   0  0  2  0  0  3  0  0  0  0  0  0
  159.6790  208.8950  152.5230 F   0  0  0  0  0  0  0  0  0  0  0  0
  163.3300  210.6660  150.7420 O   0  0  0  0  0  0  0  0  0  0  0  0
  161.5130  205.7570  152.9380 C   0  0  0  0  0  0  0  0  0  0  0  0
  162.5400  207.4090  147.9710 N   0  0  0  0  0  2  0  0  0  0  0  0
  159.4180  209.9420  154.5010 F   0  0  0  0  0  0  0  0  0  0  0  0
  160.3200  206.2700  153.2270 C   0  0  0  0  0  3  0  0  0  0  0  0
  161.0770  210.2200  150.5320 O   0  0  0  0  0  1  0  0  0  0  0  0
  160.3370  209.3160  153.6730 C   0  0  0  0  0  0  0  0  0  0  0  0
  161.7030  205.1010  151.6080 C   0  0  1  0  0  3  0  0  0  0  0  0
  161.6960  207.3260  150.5320 N   0  0  2  0  0  0  0  0  0  0  0  0
  160.0810  207.1420  154.4190 C   0  0  0  0  0  2  0  0  0  0  0  0
  161.4130  210.3250  153.2660 C   0  0  2  0  0  3  0  0  0  0  0  0
  162.3190  209.7090  150.9290 C   0  0  1  0  0  0  0  0  0  0  0  0
  162.5300  209.6630  152.4350 C   0  0  1  0  0  3  0  0  0  0  0  0
  162.4170  206.0580  150.6540 C   0  0  0  0  0  2  0  0  0  0  0  0
  162.5960  205.9320  153.7960 O   0  0  0  0  0  1  0  0  0  0  0  0
  160.6150  207.1910  149.5410 C   0  0  0  0  0  2  0  0  0  0  0  0
  162.8940  208.6080  148.7140 C   0  0  0  0  0  2  0  0  0  0  0  0
  163.6090  210.6740  152.1210 C   0  0  0  0  0  2  0  0  0  0  0  0
  160.5810  206.0640  147.2650 C   0  0  1  0  0  3  0  0  0  0  0  0
  160.0810  206.5060  145.9010 C   0  0  0  0  0  1  0  0  0  0  0  0
  161.5870  204.9620  147.1330 C   0  0  0  0  0  0  0  0  0  0  0  0
  161.9560  204.2020  148.2370 O   0  0  0  0  0  1  0  0  0  0  0  0
  162.1240  204.7050  145.9520 C   0  0  0  0  0  2  0  0  0  0  0  0
  162.5120  203.8170  151.7370 C   0  0  0  0  0  2  0  0  0  0  0  0
  161.6110  202.5880  151.7040 C   0  0  0  0  0  2  0  0  0  0  0  0
  160.7500  202.5740  150.4530 C   0  0  0  0  0  2  0  0  0  0  0  0
  160.5780  201.1500  149.9530 C   0  0  0  0  0  2  0  0  0  0  0  0
  161.2050  200.9940  148.5790 C   0  0  0  0  0  2  0  0  0  0  0  0
  160.4010  201.5990  147.6130 O   0  0  0  0  0  0  0  0  0  0  0  0
  160.0810  201.6950  145.2610 C   0  0  0  0  0  1  0  0  0  0  0  0
  160.9300  201.1670  146.3970 C   0  0  0  0  0  2  0  0  0  0  0  0
  1 24  1  6  0  0  0
  1 21  1  0  0  0  0
  2 15  1  0  0  0  0
  4 22  1  6  0  0  0
  4 14  1  0  0  0  0
  4 17  1  0  0  0  0
  5 12  1  0  0  0  0
  6 17  1  0  0  0  0
  6 23  1  0  0  0  0
  7 10  2  0  0  0  0
  7 20  1  0  0  0  0
  8  1  1  0  0  0  0
  8 22  1  0  0  0  0
 10 15  1  0  0  0  0
 12  2  1  0  0  0  0
 12  9  1  0  0  0  0
 13 29  1  1  0  0  0
 13  7  1  0  0  0  0
 14 21  1  6  0  0  0
 14 19  1  0  0  0  0
 16 12  1  0  0  0  0
 16  3  1  1  0  0  0
 17 11  1  6  0  0  0
 17 18  1  0  0  0  0
 18 23  1  6  0  0  0
 18 16  1  0  0  0  0
 19 13  1  0  0  0  0
 24 25  1  6  0  0  0
 26 24  1  0  0  0  0
 26 27  1  0  0  0  0
 28 26  2  0  0  0  0
 30 29  1  0  0  0  0
 31 30  1  0  0  0  0
 32 31  1  0  0  0  0
 33 32  1  0  0  0  0
 34 33  1  0  0  0  0
 35 36  1  0  0  0  0
 36 34  1  0  0  0  0
M  END
>  <MODEL>
5

>  <REMARK>
 VINA RESULT:      -2.3      5.109      8.146
  Name = 
  9 active torsions:
  status: ('A' for Active; 'I' for Inactive)
    1  A    between atoms: C_1  and  C_21
    2  A    between atoms: C_1  and  C_30
    3  A    between atoms: C_2  and  C_5
    4  A    between atoms: C_2  and  C_30
    5  A    between atoms: C_3  and  C_15
    6  A    between atoms: C_5  and  C_22
    7  A    between atoms: C_7  and  C_15
    8  A    between atoms: C_22  and  O_24
    9  A    between atoms: O_24  and  C_34
                            x       y       z     vdW  Elec       q    Type
                         _______ _______ _______ _____ _____    ______ ____

>  <TORSDO>
F 9

$$$$
=
 OpenBabel11042421053D

 36 38  0  0  1  0  0  0  0  0999 V2000
  160.1020  210.5570  153.1740 C   0  0  2  0  0  3  0  0  0  0  0  0
  161.5400  205.9570  149.0060 O   0  0  0  0  0  0  0  0  0  0  0  0
  162.0160  203.8360  150.8450 O   0  0  0  0  0  1  0  0  0  0  0  0
  161.9780  208.3970  152.7540 C   0  0  2  0  0  3  0  0  0  0  0  0
  159.7080  206.5280  150.3340 F   0  0  0  0  0  0  0  0  0  0  0  0
  162.3320  206.2870  153.8980 O   0  0  0  0  0  0  0  0  0  0  0  0
  162.1250  208.8190  148.8220 C   0  0  0  0  0  0  0  0  0  0  0  0
  161.4110  210.5360  153.8210 N   0  0  0  0  0  2  0  0  0  0  0  0
  159.8220  204.4920  149.3780 F   0  0  0  0  0  0  0  0  0  0  0  0
  160.9870  208.2070  148.5070 C   0  0  0  0  0  3  0  0  0  0  0  0
  160.2300  206.7140  153.0490 O   0  0  0  0  0  1  0  0  0  0  0  0
  160.5720  205.5130  149.9380 C   0  0  0  0  0  0  0  0  0  0  0  0
  162.0540  210.1510  149.4970 C   0  0  1  0  0  3  0  0  0  0  0  0
  161.3430  209.0310  151.5830 N   0  0  2  0  0  0  0  0  0  0  0  0
  160.9350  206.7860  148.0420 C   0  0  0  0  0  2  0  0  0  0  0  0
  161.2890  204.9830  151.1820 C   0  0  2  0  0  3  0  0  0  0  0  0
  161.6060  206.9110  152.8700 C   0  0  1  0  0  0  0  0  0  0  0  0
  162.2320  206.0410  151.7900 C   0  0  1  0  0  3  0  0  0  0  0  0
  162.2880  209.9840  150.9990 C   0  0  0  0  0  2  0  0  0  0  0  0
  163.3540  208.1870  148.6420 O   0  0  0  0  0  1  0  0  0  0  0  0
  160.0720  209.7120  151.8850 C   0  0  0  0  0  2  0  0  0  0  0  0
  161.7320  209.1420  154.0770 C   0  0  0  0  0  2  0  0  0  0  0  0
  162.9780  205.4530  152.9660 C   0  0  0  0  0  2  0  0  0  0  0  0
  159.6120  211.9850  152.9210 C   0  0  1  0  0  3  0  0  0  0  0  0
  159.5410  212.2800  151.4330 C   0  0  0  0  0  1  0  0  0  0  0  0
  158.3080  212.2940  153.5890 C   0  0  0  0  0  0  0  0  0  0  0  0
  157.6050  213.4520  153.2740 O   0  0  0  0  0  1  0  0  0  0  0  0
  157.8160  211.4530  154.4840 C   0  0  0  0  0  2  0  0  0  0  0  0
  163.0880  211.1140  148.9280 C   0  0  0  0  0  2  0  0  0  0  0  0
  162.4740  212.0240  147.8710 C   0  0  0  0  0  2  0  0  0  0  0  0
  161.3760  212.8910  148.4640 C   0  0  0  0  0  2  0  0  0  0  0  0
  160.2100  212.9940  147.4960 C   0  0  0  0  0  2  0  0  0  0  0  0
  160.6570  212.6250  146.0920 C   0  0  0  0  0  2  0  0  0  0  0  0
  160.9050  213.7790  145.3490 O   0  0  0  0  0  0  0  0  0  0  0  0
  163.0390  213.3280  144.4070 C   0  0  0  0  0  1  0  0  0  0  0  0
  161.5410  213.3210  144.1950 C   0  0  0  0  0  2  0  0  0  0  0  0
  1 24  1  6  0  0  0
  1  8  1  0  0  0  0
  2 12  1  0  0  0  0
  4 17  1  0  0  0  0
  4 22  1  1  0  0  0
  7 13  1  0  0  0  0
  8 22  1  0  0  0  0
  9 12  1  0  0  0  0
 10  7  2  0  0  0  0
 12  5  1  0  0  0  0
 12 16  1  0  0  0  0
 13 29  1  6  0  0  0
 13 19  1  0  0  0  0
 14 19  1  1  0  0  0
 14 21  1  0  0  0  0
 14  4  1  0  0  0  0
 15 10  1  0  0  0  0
 15  2  1  0  0  0  0
 16  3  1  6  0  0  0
 16 18  1  0  0  0  0
 17 11  1  1  0  0  0
 17  6  1  0  0  0  0
 18 17  1  0  0  0  0
 18 23  1  1  0  0  0
 20  7  1  0  0  0  0
 21  1  1  0  0  0  0
 23  6  1  0  0  0  0
 24 25  1  6  0  0  0
 24 26  1  0  0  0  0
 26 28  2  0  0  0  0
 27 26  1  0  0  0  0
 30 31  1  0  0  0  0
 30 29  1  0  0  0  0
 32 31  1  0  0  0  0
 33 32  1  0  0  0  0
 34 33  1  0  0  0  0
 36 35  1  0  0  0  0
 36 34  1  0  0  0  0
M  END
>  <MODEL>
6

>  <REMARK>
 VINA RESULT:      -2.2      3.066      4.683
  Name = 
  9 active torsions:
  status: ('A' for Active; 'I' for Inactive)
    1  A    between atoms: C_1  and  C_21
    2  A    between atoms: C_1  and  C_30
    3  A    between atoms: C_2  and  C_5
    4  A    between atoms: C_2  and  C_30
    5  A    between atoms: C_3  and  C_15
    6  A    between atoms: C_5  and  C_22
    7  A    between atoms: C_7  and  C_15
    8  A    between atoms: C_22  and  O_24
    9  A    between atoms: O_24  and  C_34
                            x       y       z     vdW  Elec       q    Type
                         _______ _______ _______ _____ _____    ______ ____

>  <TORSDO>
F 9

$$$$
=
 OpenBabel11042421053D

 36 38  0  0  1  0  0  0  0  0999 V2000
  162.3350  210.5680  150.0040 C   0  0  2  0  0  3  0  0  0  0  0  0
  160.4810  209.7670  156.0480 O   0  0  0  0  0  0  0  0  0  0  0  0
  160.9890  206.9750  156.2930 O   0  0  0  0  0  1  0  0  0  0  0  0
  160.8300  208.7570  151.6830 C   0  0  2  0  0  3  0  0  0  0  0  0
  162.5090  209.9060  154.9010 F   0  0  0  0  0  0  0  0  0  0  0  0
  161.2290  206.4750  152.4050 O   0  0  0  0  0  0  0  0  0  0  0  0
  159.3770  211.5860  154.0380 C   0  0  0  0  0  0  0  0  0  0  0  0
  161.3220  209.6710  149.4560 N   0  0  0  0  0  2  0  0  0  0  0  0
  162.4570  209.1460  157.0210 F   0  0  0  0  0  0  0  0  0  0  0  0
  160.4450  211.7840  154.8050 C   0  0  0  0  0  3  0  0  0  0  0  0
  162.8470  208.0530  152.8710 O   0  0  0  0  0  1  0  0  0  0  0  0
  161.7560  209.1930  155.8270 C   0  0  0  0  0  0  0  0  0  0  0  0
  159.4230  212.0490  152.6180 C   0  0  1  0  0  3  0  0  0  0  0  0
  160.9410  210.1740  152.0790 N   0  0  2  0  0  0  0  0  0  0  0  0
  160.5960  211.1660  156.1590 C   0  0  0  0  0  2  0  0  0  0  0  0
  161.5720  207.7680  155.2980 C   0  0  2  0  0  3  0  0  0  0  0  0
  161.4730  207.8230  152.7190 C   0  0  1  0  0  0  0  0  0  0  0  0
  160.7000  207.7400  154.0270 C   0  0  1  0  0  3  0  0  0  0  0  0
  159.7090  210.8640  151.6950 C   0  0  0  0  0  2  0  0  0  0  0  0
  158.2850  210.8570  154.5040 O   0  0  0  0  0  1  0  0  0  0  0  0
  162.1030  210.8700  151.4980 C   0  0  0  0  0  2  0  0  0  0  0  0
  161.3460  208.4630  150.2650 C   0  0  0  0  0  2  0  0  0  0  0  0
  160.4790  206.3120  153.5840 C   0  0  0  0  0  2  0  0  0  0  0  0
  162.4610  211.8550  149.1850 C   0  0  1  0  0  3  0  0  0  0  0  0
  163.4740  211.6920  148.0660 C   0  0  0  0  0  1  0  0  0  0  0  0
  161.1520  212.3510  148.6520 C   0  0  0  0  0  0  0  0  0  0  0  0
  160.6040  211.8070  147.4960 O   0  0  0  0  0  1  0  0  0  0  0  0
  160.5070  213.3130  149.2920 C   0  0  0  0  0  2  0  0  0  0  0  0
  158.1120  212.7060  152.2080 C   0  0  0  0  0  2  0  0  0  0  0  0
  158.1060  214.1910  152.5470 C   0  0  0  0  0  2  0  0  0  0  0  0
  157.3930  214.4490  153.8640 C   0  0  0  0  0  2  0  0  0  0  0  0
  156.1480  213.5840  153.9620 C   0  0  0  0  0  2  0  0  0  0  0  0
  155.3610  213.9340  155.2130 C   0  0  0  0  0  2  0  0  0  0  0  0
  156.0450  213.4970  156.3480 O   0  0  0  0  0  0  0  0  0  0  0  0
  155.5820  211.1670  156.3670 C   0  0  0  0  0  1  0  0  0  0  0  0
  155.2100  212.5310  156.9080 C   0  0  0  0  0  2  0  0  0  0  0  0
  1 24  1  6  0  0  0
  1 21  1  0  0  0  0
  2 15  1  0  0  0  0
  4 22  1  6  0  0  0
  4 14  1  0  0  0  0
  4 17  1  0  0  0  0
  5 12  1  0  0  0  0
  6 17  1  0  0  0  0
  6 23  1  0  0  0  0
  7 20  1  0  0  0  0
  7 10  2  0  0  0  0
  8  1  1  0  0  0  0
  8 22  1  0  0  0  0
 10 15  1  0  0  0  0
 12  2  1  0  0  0  0
 12  9  1  0  0  0  0
 13 29  1  6  0  0  0
 13  7  1  0  0  0  0
 14 21  1  6  0  0  0
 16 12  1  0  0  0  0
 16  3  1  1  0  0  0
 17 11  1  1  0  0  0
 17 18  1  0  0  0  0
 18 23  1  6  0  0  0
 18 16  1  0  0  0  0
 19 14  1  0  0  0  0
 19 13  1  0  0  0  0
 24 25  1  6  0  0  0
 26 24  1  0  0  0  0
 26 28  2  0  0  0  0
 27 26  1  0  0  0  0
 29 30  1  0  0  0  0
 30 31  1  0  0  0  0
 31 32  1  0  0  0  0
 32 33  1  0  0  0  0
 33 34  1  0  0  0  0
 34 36  1  0  0  0  0
 35 36  1  0  0  0  0
M  END
>  <MODEL>
7

>  <REMARK>
 VINA RESULT:      -1.1      2.282      6.106
  Name = 
  9 active torsions:
  status: ('A' for Active; 'I' for Inactive)
    1  A    between atoms: C_1  and  C_21
    2  A    between atoms: C_1  and  C_30
    3  A    between atoms: C_2  and  C_5
    4  A    between atoms: C_2  and  C_30
    5  A    between atoms: C_3  and  C_15
    6  A    between atoms: C_5  and  C_22
    7  A    between atoms: C_7  and  C_15
    8  A    between atoms: C_22  and  O_24
    9  A    between atoms: O_24  and  C_34
                            x       y       z     vdW  Elec       q    Type
                         _______ _______ _______ _____ _____    ______ ____

>  <TORSDO>
F 9

$$$$
=
 OpenBabel11042421053D

 36 38  0  0  1  0  0  0  0  0999 V2000
  162.2530  210.5940  150.1770 C   0  0  2  0  0  3  0  0  0  0  0  0
  160.4860  210.1270  156.2820 O   0  0  0  0  0  0  0  0  0  0  0  0
  160.8680  207.3260  156.6320 O   0  0  0  0  0  1  0  0  0  0  0  0
  160.7000  208.9260  151.9560 C   0  0  2  0  0  3  0  0  0  0  0  0
  162.4950  210.1230  155.0940 F   0  0  0  0  0  0  0  0  0  0  0  0
  161.0070  206.6590  152.7650 O   0  0  0  0  0  0  0  0  0  0  0  0
  159.4270  211.9130  154.2190 C   0  0  0  0  0  0  0  0  0  0  0  0
  161.1890  209.7240  149.6850 N   0  0  0  0  0  2  0  0  0  0  0  0
  162.4500  209.4530  157.2440 F   0  0  0  0  0  0  0  0  0  0  0  0
  160.5190  212.0910  154.9570 C   0  0  0  0  0  3  0  0  0  0  0  0
  162.7050  208.1750  153.1350 O   0  0  0  0  0  1  0  0  0  0  0  0
  161.7280  209.4840  156.0620 C   0  0  0  0  0  0  0  0  0  0  0  0
  159.4670  212.3160  152.7800 C   0  0  1  0  0  3  0  0  0  0  0  0
  160.8850  210.3510  152.2920 N   0  0  2  0  0  0  0  0  0  0  0  0
  160.6680  211.5220  156.3330 C   0  0  0  0  0  2  0  0  0  0  0  0
  161.4680  208.0490  155.5950 C   0  0  2  0  0  3  0  0  0  0  0  0
  161.3200  208.0040  153.0180 C   0  0  1  0  0  0  0  0  0  0  0  0
  160.5700  208.0120  154.3420 C   0  0  1  0  0  3  0  0  0  0  0  0
  159.6790  211.0820  151.9020 C   0  0  0  0  0  2  0  0  0  0  0  0
  158.3120  211.2560  154.7340 O   0  0  0  0  0  1  0  0  0  0  0  0
  162.0660  210.9670  151.6620 C   0  0  0  0  0  2  0  0  0  0  0  0
  161.1730  208.5510  150.5430 C   0  0  0  0  0  2  0  0  0  0  0  0
  160.2730  206.5790  153.9620 C   0  0  0  0  0  2  0  0  0  0  0  0
  162.4230  211.8400  149.3040 C   0  0  1  0  0  3  0  0  0  0  0  0
  163.5160  211.6350  148.2690 C   0  0  0  0  0  1  0  0  0  0  0  0
  161.1500  212.2880  148.6530 C   0  0  0  0  0  0  0  0  0  0  0  0
  160.6460  211.6180  147.5450 O   0  0  0  0  0  1  0  0  0  0  0  0
  160.4950  213.3280  149.1440 C   0  0  0  0  0  2  0  0  0  0  0  0
  158.1790  213.0170  152.3670 C   0  0  0  0  0  2  0  0  0  0  0  0
  158.0050  213.0090  150.8530 C   0  0  0  0  0  2  0  0  0  0  0  0
  157.2480  214.2390  150.3830 C   0  0  0  0  0  2  0  0  0  0  0  0
  156.0990  213.8310  149.4770 C   0  0  0  0  0  2  0  0  0  0  0  0
  156.3510  214.3090  148.0580 C   0  0  0  0  0  2  0  0  0  0  0  0
  157.4460  213.6370  147.5130 O   0  0  0  0  0  0  0  0  0  0  0  0
  158.2220  212.7680  145.4430 C   0  0  0  0  0  1  0  0  0  0  0  0
  157.0350  213.2830  146.2280 C   0  0  0  0  0  2  0  0  0  0  0  0
  1 24  1  6  0  0  0
  1 21  1  0  0  0  0
  2 15  1  0  0  0  0
  4 22  1  6  0  0  0
  4 14  1  0  0  0  0
  4 17  1  0  0  0  0
  5 12  1  0  0  0  0
  6 17  1  0  0  0  0
  6 23  1  0  0  0  0
  7 20  1  0  0  0  0
  7 10  2  0  0  0  0
  8  1  1  0  0  0  0
  8 22  1  0  0  0  0
 10 15  1  0  0  0  0
 12  2  1  0  0  0  0
 12  9  1  0  0  0  0
 13 29  1  6  0  0  0
 13  7  1  0  0  0  0
 14 21  1  6  0  0  0
 16 12  1  0  0  0  0
 16  3  1  1  0  0  0
 17 11  1  1  0  0  0
 17 18  1  0  0  0  0
 18 23  1  1  0  0  0
 18 16  1  0  0  0  0
 19 14  1  0  0  0  0
 19 13  1  0  0  0  0
 24 25  1  6  0  0  0
 26 28  2  0  0  0  0
 26 24  1  0  0  0  0
 27 26  1  0  0  0  0
 30 29  1  0  0  0  0
 31 30  1  0  0  0  0
 32 31  1  0  0  0  0
 33 32  1  0  0  0  0
 34 33  1  0  0  0  0
 35 36  1  0  0  0  0
 36 34  1  0  0  0  0
M  END
>  <MODEL>
8

>  <REMARK>
 VINA RESULT:      -1.1      2.066      4.799
  Name = 
  9 active torsions:
  status: ('A' for Active; 'I' for Inactive)
    1  A    between atoms: C_1  and  C_21
    2  A    between atoms: C_1  and  C_30
    3  A    between atoms: C_2  and  C_5
    4  A    between atoms: C_2  and  C_30
    5  A    between atoms: C_3  and  C_15
    6  A    between atoms: C_5  and  C_22
    7  A    between atoms: C_7  and  C_15
    8  A    between atoms: C_22  and  O_24
    9  A    between atoms: O_24  and  C_34
                            x       y       z     vdW  Elec       q    Type
                         _______ _______ _______ _____ _____    ______ ____

>  <TORSDO>
F 9

$$$$
