=
 OpenBabel11042420413D

 65 69  0  0  1  0  0  0  0  0999 V2000
  162.1870  209.6500  149.5220 C   0  0  0  0  0  2  0  0  0  0  0  0
  161.5400  210.0810  148.2430 C   0  0  0  0  0  3  0  0  0  0  0  0
  161.1290  209.2580  151.7270 C   0  0  0  0  0  0  0  0  0  0  0  0
  161.5870  212.6010  149.9040 N   0  0  0  0  0  2  0  0  0  0  0  0
  160.5680  212.0680  151.8940 O   0  0  0  0  0  0  0  0  0  0  0  0
  161.4480  210.1500  150.7410 C   0  0  0  0  0  0  0  0  0  0  0  0
  161.1890  211.6310  150.8880 C   0  0  0  0  0  0  0  0  0  0  0  0
  161.6130  211.3490  147.8370 C   0  0  0  0  0  0  0  0  0  0  0  0
  162.3340  212.3460  148.6790 C   0  0  0  0  0  2  0  0  0  0  0  0
  160.5360  207.4480  155.6570 C   0  0  0  0  0  3  0  0  0  0  0  0
  160.5040  209.0010  154.2160 C   0  0  0  0  0  0  0  0  0  0  0  0
  160.1140  208.6210  156.2570 C   0  0  0  0  0  3  0  0  0  0  0  0
  160.7840  207.6930  154.3550 N   0  0  0  0  0  0  0  0  0  0  0  0
  160.1060  209.5520  155.3320 O   0  0  0  0  0  0  0  0  0  0  0  0
  160.6380  209.7380  152.9940 N   0  0  0  0  0  2  0  0  0  0  0  0
  160.8540  207.0710  150.5720 C   0  0  0  0  0  3  0  0  0  0  0  0
  161.3410  207.7960  151.5760 C   0  0  0  0  0  3  0  0  0  0  0  0
  161.0090  203.3940  149.7750 C   0  0  1  0  0  3  0  0  0  0  0  0
  160.6730  204.8380  149.3570 C   0  0  1  0  0  3  0  0  0  0  0  0
  162.3090  202.6710  151.7010 O   0  0  0  0  0  0  0  0  0  0  0  0
  161.1160  205.6690  150.4740 N   0  0  0  0  0  0  0  0  0  0  0  0
  161.7620  203.5950  151.0450 C   0  0  0  0  0  0  0  0  0  0  0  0
  161.7850  204.9420  151.4570 N   0  0  0  0  0  2  0  0  0  0  0  0
  161.5630  205.2910  147.8700 S   0  0  0  0  0  0  0  0  0  0  0  0
  162.8380  204.4980  147.7770 O   0  0  0  0  0  0  0  0  0  0  0  0
  161.9070  206.7510  147.9540 O   0  0  0  0  0  0  0  0  0  0  0  0
  160.5740  205.0420  146.3990 C   0  0  2  0  0  3  0  0  0  0  0  0
  161.2030  204.0620  145.4630 C   0  0  0  0  0  0  0  0  0  0  0  0
  160.4990  203.1580  144.9430 O   0  0  0  0  0  0  0  0  0  0  0  0
  162.5480  204.1700  145.1290 O   0  0  0  0  0  1  0  0  0  0  0  0
  160.9080  206.0650  144.4660 C   0  0  0  0  0  1  0  0  0  0  0  0
  160.3810  206.2600  145.7450 O   0  0  0  0  0  0  0  0  0  0  0  0
  159.8180  202.7200  150.0530 O   0  0  0  0  0  0  0  0  0  0  0  0
  159.7380  201.7010  149.1010 C   0  0  0  0  0  2  0  0  0  0  0  0
  161.0050  200.8740  149.1540 C   0  0  0  0  0  2  0  0  0  0  0  0
  161.7770  201.0040  147.8540 C   0  0  0  0  0  2  0  0  0  0  0  0
  161.0660  200.2070  145.8690 O   0  0  0  0  0  1  0  0  0  0  0  0
  161.6010  199.8080  147.0480 N   0  0  0  0  0  2  0  0  0  0  0  0
  161.0270  211.7770  146.6410 O   0  0  0  0  0  0  0  0  0  0  0  0
  161.5290  212.8670  145.8750 C   0  0  0  0  0  2  0  0  0  0  0  0
  161.2010  212.6640  144.4320 C   0  0  0  0  0  0  0  0  0  0  0  0
  162.1580  212.4350  143.5960 N   0  0  0  0  0  0  0  0  0  0  0  0
  161.9360  212.2000  142.1890 C   0  0  0  0  0  2  0  0  0  0  0  0
  162.2250  213.4600  139.9770 N   0  0  0  0  0  2  0  0  0  0  0  0
  162.2870  213.4270  141.4080 C   0  0  0  0  0  0  0  0  0  0  0  0
  162.6840  214.4500  142.0260 O   0  0  0  0  0  0  0  0  0  0  0  0
  161.7160  212.4170  139.0850 C   0  0  2  0  0  3  0  0  0  0  0  0
  158.3510  211.4010  138.5910 C   0  0  2  0  0  3  0  0  0  0  0  0
  159.3790  212.3540  138.5030 O   0  0  0  0  0  0  0  0  0  0  0  0
  160.1940  210.4580  139.6990 C   0  0  0  0  0  2  0  0  0  0  0  0
  158.9910  210.0530  138.9040 C   0  0  2  0  0  3  0  0  0  0  0  0
  160.3090  211.9610  139.4800 C   0  0  1  0  0  3  0  0  0  0  0  0
  159.4710  209.3290  137.6530 C   0  0  0  0  0  1  0  0  0  0  0  0
  157.4550  211.4140  137.3470 C   0  0  2  0  0  3  0  0  0  0  0  0
  156.9110  212.8090  137.1020 C   0  0  0  0  0  1  0  0  0  0  0  0
  156.3830  210.5380  137.5270 O   0  0  0  0  0  1  0  0  0  0  0  0
  162.7100  211.2760  138.8710 C   0  0  0  0  0  2  0  0  0  0  0  0
  162.7240  210.9060  137.5260 O   0  0  0  0  0  1  0  0  0  0  0  0
  159.7590  212.6760  144.0090 C   0  0  0  0  0  2  0  0  0  0  0  0
  158.8700  212.9740  145.1710 C   0  0  0  0  0  0  0  0  0  0  0  0
  159.0580  214.1450  145.9120 C   0  0  0  0  0  3  0  0  0  0  0  0
  157.2420  213.5110  147.3810 C   0  0  0  0  0  3  0  0  0  0  0  0
  157.8680  212.0690  145.5400 C   0  0  0  0  0  3  0  0  0  0  0  0
  157.0560  212.3370  146.6450 C   0  0  0  0  0  3  0  0  0  0  0  0
  158.2440  214.4150  147.0150 C   0  0  0  0  0  3  0  0  0  0  0  0
  1  6  1  0  0  0  0
  2  1  1  0  0  0  0
  3 15  1  0  0  0  0
  4  7  1  0  0  0  0
  6  7  1  0  0  0  0
  6  3  2  0  0  0  0
  7  5  2  0  0  0  0
  8  2  2  0  0  0  0
  8  9  1  0  0  0  0
  9  4  1  0  0  0  0
 10 12  2  0  0  0  0
 11 13  2  0  0  0  0
 11 14  1  0  0  0  0
 13 10  1  0  0  0  0
 14 12  1  0  0  0  0
 15 11  1  0  0  0  0
 16 17  2  0  0  0  0
 17  3  1  0  0  0  0
 18 33  1  1  0  0  0
 18 22  1  0  0  0  0
 19 24  1  6  0  0  0
 19 18  1  0  0  0  0
 19 21  1  0  0  0  0
 21 16  1  0  0  0  0
 21 23  1  0  0  0  0
 22 23  1  0  0  0  0
 22 20  2  0  0  0  0
 24 26  2  0  0  0  0
 25 24  2  0  0  0  0
 27 28  1  6  0  0  0
 27 24  1  0  0  0  0
 29 28  2  0  0  0  0
 30 28  1  0  0  0  0
 31 32  1  0  0  0  0
 32 27  1  0  0  0  0
 34 35  1  0  0  0  0
 34 33  1  0  0  0  0
 36 35  1  0  0  0  0
 37 38  1  0  0  0  0
 38 36  1  0  0  0  0
 39  8  1  0  0  0  0
 40 39  1  0  0  0  0
 41 40  1  0  0  0  0
 42 41  2  0  0  0  0
 43 42  1  0  0  0  0
 44 45  1  0  0  0  0
 45 46  2  0  0  0  0
 45 43  1  0  0  0  0
 47 57  1  1  0  0  0
 47 44  1  0  0  0  0
 48 54  1  6  0  0  0
 48 51  1  0  0  0  0
 49 48  1  0  0  0  0
 49 52  1  0  0  0  0
 51 53  1  6  0  0  0
 51 50  1  0  0  0  0
 52 47  1  6  0  0  0
 52 50  1  0  0  0  0
 54 55  1  1  0  0  0
 54 56  1  0  0  0  0
 58 57  1  0  0  0  0
 59 41  1  0  0  0  0
 59 60  1  0  0  0  0
 60 63  2  0  0  0  0
 60 61  1  0  0  0  0
 61 65  2  0  0  0  0
 63 64  1  0  0  0  0
 64 62  2  0  0  0  0
 65 62  1  0  0  0  0
M  END
>  <MODEL>
1

>  <REMARK>
 VINA RESULT:      -5.4      0.000      0.000
  Name = 
  23 active torsions:
  status: ('A' for Active; 'I' for Inactive)
    1  A    between atoms: C_1  and  C_13
    2  A    between atoms: C_2  and  N_25
    3  A    between atoms: C_3  and  C_62
    4  A    between atoms: S_4  and  C_9
    5  A    between atoms: S_4  and  C_21
    6  A    between atoms: C_6  and  O_63
    7  A    between atoms: N_7  and  CA_49
    8  A    between atoms: C_8  and  C_38
    9  A    between atoms: C_17  and  CA_49
   10  A    between atoms: C_20  and  C_26
   11  A    between atoms: C_21  and  O_30
   12  A    between atoms: C_21  and  C_33
   13  A    between atoms: C_26  and  N_61
   14  A    between atoms: C_31  and  CA_49
   15  A    between atoms: C_32  and  C_44
   16  A    between atoms: C_32  and  C_64
   17  A    between atoms: C_38  and  N_54
   18  A    between atoms: C_39  and  C_47
   19  A    between atoms: C_39  and  O_56
   20  A    between atoms: C_44  and  O_63
   21  A    between atoms: C_47  and  C_62
   22  A    between atoms: C_53  and  O_56
   23  A    between atoms: N_55  and  C_64
                            x       y       z     vdW  Elec       q    Type
                         _______ _______ _______ _____ _____    ______ ____

>  <TORSDO>
F 23

$$$$
=
 OpenBabel11042420413D

 65 69  0  0  1  0  0  0  0  0999 V2000
  162.3090  209.2780  149.2940 C   0  0  0  0  0  2  0  0  0  0  0  0
  161.4300  209.8260  148.2140 C   0  0  0  0  0  3  0  0  0  0  0  0
  161.7540  208.8780  151.6750 C   0  0  0  0  0  0  0  0  0  0  0  0
  162.1080  212.2500  149.8810 N   0  0  0  0  0  2  0  0  0  0  0  0
  161.5270  211.7170  152.0390 O   0  0  0  0  0  0  0  0  0  0  0  0
  161.9240  209.7840  150.6640 C   0  0  0  0  0  0  0  0  0  0  0  0
  161.8530  211.2740  150.9050 C   0  0  0  0  0  0  0  0  0  0  0  0
  161.5310  211.1010  147.8330 C   0  0  0  0  0  0  0  0  0  0  0  0
  162.5220  211.9870  148.5090 C   0  0  0  0  0  2  0  0  0  0  0  0
  160.1340  207.1480  155.3430 C   0  0  0  0  0  3  0  0  0  0  0  0
  161.0530  208.6350  154.1450 C   0  0  0  0  0  0  0  0  0  0  0  0
  160.4760  208.2280  156.1360 C   0  0  0  0  0  3  0  0  0  0  0  0
  160.5030  207.4090  154.0730 N   0  0  0  0  0  0  0  0  0  0  0  0
  161.0370  209.1230  155.3570 O   0  0  0  0  0  0  0  0  0  0  0  0
  161.6190  209.3400  153.0330 N   0  0  0  0  0  2  0  0  0  0  0  0
  161.2790  206.8200  150.3610 C   0  0  0  0  0  3  0  0  0  0  0  0
  161.7800  207.4120  151.4410 C   0  0  0  0  0  3  0  0  0  0  0  0
  160.9490  203.1990  149.3790 C   0  0  1  0  0  3  0  0  0  0  0  0
  160.7930  204.6940  149.0410 C   0  0  1  0  0  3  0  0  0  0  0  0
  162.1780  202.2180  151.2360 O   0  0  0  0  0  0  0  0  0  0  0  0
  161.3570  205.4030  150.1880 N   0  0  0  0  0  0  0  0  0  0  0  0
  161.7430  203.2370  150.6400 C   0  0  0  0  0  0  0  0  0  0  0  0
  161.9450  204.5470  151.1170 N   0  0  0  0  0  2  0  0  0  0  0  0
  161.7090  205.1080  147.5590 S   0  0  0  0  0  0  0  0  0  0  0  0
  162.8820  204.1780  147.4070 O   0  0  0  0  0  0  0  0  0  0  0  0
  162.2210  206.5130  147.6980 O   0  0  0  0  0  0  0  0  0  0  0  0
  160.6770  205.0400  146.0960 C   0  0  2  0  0  3  0  0  0  0  0  0
  160.9740  203.8390  145.2600 C   0  0  0  0  0  0  0  0  0  0  0  0
  160.0910  203.3880  144.4840 O   0  0  0  0  0  0  0  0  0  0  0  0
  162.2310  203.2450  145.2980 O   0  0  0  0  0  1  0  0  0  0  0  0
  161.2150  205.7410  144.0680 C   0  0  0  0  0  1  0  0  0  0  0  0
  160.8530  206.1980  145.3370 O   0  0  0  0  0  0  0  0  0  0  0  0
  159.6870  202.6680  149.6500 O   0  0  0  0  0  0  0  0  0  0  0  0
  159.3480  201.9190  148.5210 C   0  0  0  0  0  2  0  0  0  0  0  0
  160.6030  201.6350  147.7230 C   0  0  0  0  0  2  0  0  0  0  0  0
  161.1640  200.2730  148.0840 C   0  0  0  0  0  2  0  0  0  0  0  0
  161.5720  198.6560  146.5670 O   0  0  0  0  0  1  0  0  0  0  0  0
  162.0760  199.8180  147.0480 N   0  0  0  0  0  2  0  0  0  0  0  0
  160.7300  211.6350  146.8190 O   0  0  0  0  0  0  0  0  0  0  0  0
  161.1700  212.6710  145.9470 C   0  0  0  0  0  2  0  0  0  0  0  0
  160.7530  212.3610  144.5460 C   0  0  0  0  0  0  0  0  0  0  0  0
  161.6140  212.4860  143.5920 N   0  0  0  0  0  0  0  0  0  0  0  0
  161.3110  212.1840  142.2130 C   0  0  0  0  0  2  0  0  0  0  0  0
  161.0790  213.4500  139.9970 N   0  0  0  0  0  2  0  0  0  0  0  0
  161.4510  213.4190  141.3810 C   0  0  0  0  0  0  0  0  0  0  0  0
  161.9450  214.4530  141.9030 O   0  0  0  0  0  0  0  0  0  0  0  0
  160.4170  212.3920  139.2320 C   0  0  2  0  0  3  0  0  0  0  0  0
  161.8730  209.1810  138.8170 C   0  0  2  0  0  3  0  0  0  0  0  0
  161.5160  210.2820  139.6140 O   0  0  0  0  0  0  0  0  0  0  0  0
  161.0570  210.8070  137.3330 C   0  0  0  0  0  2  0  0  0  0  0  0
  161.1530  209.3190  137.4810 C   0  0  2  0  0  3  0  0  0  0  0  0
  161.4130  211.3520  138.7100 C   0  0  1  0  0  3  0  0  0  0  0  0
  159.7390  208.7550  137.5180 C   0  0  0  0  0  1  0  0  0  0  0  0
  161.6330  207.8520  139.5430 C   0  0  2  0  0  3  0  0  0  0  0  0
  162.7670  207.5650  140.5090 C   0  0  0  0  0  1  0  0  0  0  0  0
  161.5580  206.8130  138.6140 O   0  0  0  0  0  1  0  0  0  0  0  0
  159.4570  212.9310  138.1730 C   0  0  0  0  0  2  0  0  0  0  0  0
  158.1650  212.9990  138.6950 O   0  0  0  0  0  1  0  0  0  0  0  0
  159.3580  211.8600  144.3010 C   0  0  0  0  0  2  0  0  0  0  0  0
  158.3800  212.5630  145.1820 C   0  0  0  0  0  0  0  0  0  0  0  0
  157.9700  211.9720  146.3820 C   0  0  0  0  0  3  0  0  0  0  0  0
  156.5070  213.8520  146.8110 C   0  0  0  0  0  3  0  0  0  0  0  0
  157.8490  213.8000  144.7960 C   0  0  0  0  0  3  0  0  0  0  0  0
  156.9120  214.4430  145.6100 C   0  0  0  0  0  3  0  0  0  0  0  0
  157.0350  212.6170  147.1960 C   0  0  0  0  0  3  0  0  0  0  0  0
  1  6  1  0  0  0  0
  2  1  1  0  0  0  0
  3 15  1  0  0  0  0
  4  7  1  0  0  0  0
  6  7  1  0  0  0  0
  6  3  2  0  0  0  0
  7  5  2  0  0  0  0
  8  2  2  0  0  0  0
  8  9  1  0  0  0  0
  9  4  1  0  0  0  0
 10 12  2  0  0  0  0
 11 14  1  0  0  0  0
 13 11  2  0  0  0  0
 13 10  1  0  0  0  0
 14 12  1  0  0  0  0
 15 11  1  0  0  0  0
 16 17  2  0  0  0  0
 17  3  1  0  0  0  0
 18 33  1  1  0  0  0
 18 22  1  0  0  0  0
 19 24  1  6  0  0  0
 19 18  1  0  0  0  0
 19 21  1  0  0  0  0
 21 16  1  0  0  0  0
 21 23  1  0  0  0  0
 22 23  1  0  0  0  0
 22 20  2  0  0  0  0
 24 26  2  0  0  0  0
 25 24  2  0  0  0  0
 27 28  1  6  0  0  0
 27 24  1  0  0  0  0
 28 30  1  0  0  0  0
 29 28  2  0  0  0  0
 31 32  1  0  0  0  0
 32 27  1  0  0  0  0
 34 33  1  0  0  0  0
 35 36  1  0  0  0  0
 35 34  1  0  0  0  0
 37 38  1  0  0  0  0
 38 36  1  0  0  0  0
 39  8  1  0  0  0  0
 40 39  1  0  0  0  0
 41 40  1  0  0  0  0
 42 41  2  0  0  0  0
 43 42  1  0  0  0  0
 44 45  1  0  0  0  0
 45 46  2  0  0  0  0
 45 43  1  0  0  0  0
 47 57  1  6  0  0  0
 47 44  1  0  0  0  0
 48 54  1  1  0  0  0
 48 49  1  0  0  0  0
 50 51  1  0  0  0  0
 50 52  1  0  0  0  0
 51 53  1  1  0  0  0
 51 48  1  0  0  0  0
 52 47  1  1  0  0  0
 52 49  1  0  0  0  0
 54 55  1  1  0  0  0
 56 54  1  0  0  0  0
 57 58  1  0  0  0  0
 59 41  1  0  0  0  0
 59 60  1  0  0  0  0
 60 61  1  0  0  0  0
 61 65  2  0  0  0  0
 62 65  1  0  0  0  0
 63 60  2  0  0  0  0
 63 64  1  0  0  0  0
 64 62  2  0  0  0  0
M  END
>  <MODEL>
2

>  <REMARK>
 VINA RESULT:      -2.8      1.254      2.084
  Name = 
  23 active torsions:
  status: ('A' for Active; 'I' for Inactive)
    1  A    between atoms: C_1  and  C_13
    2  A    between atoms: C_2  and  N_25
    3  A    between atoms: C_3  and  C_62
    4  A    between atoms: S_4  and  C_9
    5  A    between atoms: S_4  and  C_21
    6  A    between atoms: C_6  and  O_63
    7  A    between atoms: N_7  and  CA_49
    8  A    between atoms: C_8  and  C_38
    9  A    between atoms: C_17  and  CA_49
   10  A    between atoms: C_20  and  C_26
   11  A    between atoms: C_21  and  O_30
   12  A    between atoms: C_21  and  C_33
   13  A    between atoms: C_26  and  N_61
   14  A    between atoms: C_31  and  CA_49
   15  A    between atoms: C_32  and  C_44
   16  A    between atoms: C_32  and  C_64
   17  A    between atoms: C_38  and  N_54
   18  A    between atoms: C_39  and  C_47
   19  A    between atoms: C_39  and  O_56
   20  A    between atoms: C_44  and  O_63
   21  A    between atoms: C_47  and  C_62
   22  A    between atoms: C_53  and  O_56
   23  A    between atoms: N_55  and  C_64
                            x       y       z     vdW  Elec       q    Type
                         _______ _______ _______ _____ _____    ______ ____

>  <TORSDO>
F 23

$$$$
