=
 OpenBabel11052409483D

 26 26  0  0  1  0  0  0  0  0999 V2000
  160.3580  206.0770  147.0910 N   0  0  0  0  0  0  0  0  0  0  0  0
  161.1330  206.9940  147.5790 C   0  0  0  0  0  3  0  0  0  0  0  0
  161.9470  207.2600  151.7650 C   0  0  0  0  0  3  0  0  0  0  0  0
  162.0670  209.4440  148.7510 N   0  0  0  0  0  1  0  0  0  0  0  0
  162.5900  209.5330  151.4920 F   0  0  0  0  0  0  0  0  0  0  0  0
  161.4080  207.0890  149.0190 C   0  0  0  0  0  0  0  0  0  0  0  0
  161.8680  208.2970  149.5750 C   0  0  0  0  0  0  0  0  0  0  0  0
  161.2220  205.9750  149.8510 C   0  0  0  0  0  3  0  0  0  0  0  0
  162.1370  208.3760  150.9470 C   0  0  0  0  0  0  0  0  0  0  0  0
  161.4730  206.0570  151.2270 C   0  0  0  0  0  0  0  0  0  0  0  0
  162.3210  203.9290  151.8360 F   0  0  0  0  0  0  0  0  0  0  0  0
  161.3890  205.2270  153.4390 O   0  0  0  0  0  1  0  0  0  0  0  0
  161.3170  204.8450  152.0990 C   0  0  0  0  0  0  0  0  0  0  0  0
  160.0950  204.2380  151.8660 F   0  0  0  0  0  0  0  0  0  0  0  0
  160.0710  205.9530  145.6910 C   0  0  0  0  0  3  0  0  0  0  0  0
  160.8700  205.3980  144.8230 N   0  0  0  0  0  0  0  0  0  0  0  0
  162.0120  203.3260  145.5630 N   0  0  0  0  0  2  0  0  0  0  0  0
  163.2140  205.2910  145.1340 N   0  0  0  0  0  2  0  0  0  0  0  0
  162.0800  204.6730  145.0930 C   0  0  0  0  0  0  0  0  0  0  0  0
  160.7710  202.5640  145.5860 C   0  0  0  0  0  2  0  0  0  0  0  0
  160.6540  201.7640  146.8830 C   0  0  1  0  0  3  0  0  0  0  0  0
  161.2530  200.3600  146.7840 C   0  0  0  0  0  2  0  0  0  0  0  0
  160.8770  199.7070  145.5400 N   0  0  0  0  0  1  0  0  0  0  0  0
  161.1500  202.5450  148.1000 C   0  0  0  0  0  2  0  0  0  0  0  0
  160.9840  201.3000  150.2370 C   0  0  0  0  0  1  0  0  0  0  0  0
  160.3010  202.3110  149.3390 C   0  0  0  0  0  2  0  0  0  0  0  0
  1  2  2  0  0  0  0
  2  6  1  0  0  0  0
  4  7  1  0  0  0  0
  6  7  2  0  0  0  0
  6  8  1  0  0  0  0
  7  9  1  0  0  0  0
  8 10  2  0  0  0  0
  9  5  1  0  0  0  0
  9  3  2  0  0  0  0
 10  3  1  0  0  0  0
 10 13  1  0  0  0  0
 11 13  1  0  0  0  0
 13 12  1  0  0  0  0
 14 13  1  0  0  0  0
 15  1  1  0  0  0  0
 16 19  1  0  0  0  0
 16 15  2  0  0  0  0
 17 20  1  0  0  0  0
 19 18  2  0  0  0  0
 19 17  1  0  0  0  0
 21 20  1  6  0  0  0
 21 24  1  0  0  0  0
 22 21  1  0  0  0  0
 23 22  1  0  0  0  0
 24 26  1  0  0  0  0
 26 25  1  0  0  0  0
M  END
>  <MODEL>
1

>  <REMARK>
 VINA RESULT:      -7.3      0.000      0.000
  Name = 
  9 active torsions:
  status: ('A' for Active; 'I' for Inactive)
    1  A    between atoms: C_3  and  C_24
    2  A    between atoms: N_5  and  C_17
    3  A    between atoms: C_6  and  C_18
    4  A    between atoms: C_6  and  C_24
    5  A    between atoms: C_7  and  N_10
    6  A    between atoms: C_13  and  C_21
    7  A    between atoms: C_17  and  C_24
    8  A    between atoms: C_19  and  C_22
    9  A    between atoms: C_23  and  N_26
                            x       y       z     vdW  Elec       q    Type
                         _______ _______ _______ _____ _____    ______ ____

>  <TORSDO>
F 9

$$$$
=
 OpenBabel11052409483D

 26 26  0  0  1  0  0  0  0  0999 V2000
  161.4930  206.9150  148.5280 N   0  0  0  0  0  0  0  0  0  0  0  0
  161.9770  206.1550  147.5970 C   0  0  0  0  0  3  0  0  0  0  0  0
  160.7860  202.0710  147.2000 C   0  0  0  0  0  3  0  0  0  0  0  0
  161.6610  204.9520  145.0080 N   0  0  0  0  0  1  0  0  0  0  0  0
  160.8660  202.2810  144.8320 F   0  0  0  0  0  0  0  0  0  0  0  0
  161.5730  204.7490  147.4580 C   0  0  0  0  0  0  0  0  0  0  0  0
  161.4210  204.1780  146.1820 C   0  0  0  0  0  0  0  0  0  0  0  0
  161.3290  203.9660  148.5960 C   0  0  0  0  0  3  0  0  0  0  0  0
  161.0260  202.8390  146.0590 C   0  0  0  0  0  0  0  0  0  0  0  0
  160.9510  202.6220  148.4750 C   0  0  0  0  0  0  0  0  0  0  0  0
  161.5280  200.7470  149.8050 F   0  0  0  0  0  0  0  0  0  0  0  0
  160.7660  202.6140  150.8330 O   0  0  0  0  0  1  0  0  0  0  0  0
  160.6460  201.8080  149.7000 C   0  0  0  0  0  0  0  0  0  0  0  0
  159.3580  201.3050  149.6350 F   0  0  0  0  0  0  0  0  0  0  0  0
  161.8620  208.2920  148.6910 C   0  0  0  0  0  3  0  0  0  0  0  0
  162.0470  208.8720  149.8440 N   0  0  0  0  0  0  0  0  0  0  0  0
  161.7600  209.0070  152.3020 N   0  0  0  0  0  2  0  0  0  0  0  0
  162.6250  207.0830  151.2820 N   0  0  0  0  0  2  0  0  0  0  0  0
  162.0850  208.2480  151.1360 C   0  0  0  0  0  0  0  0  0  0  0  0
  161.1820  210.3420  152.2340 C   0  0  0  0  0  2  0  0  0  0  0  0
  160.9690  210.9090  153.6370 C   0  0  1  0  0  3  0  0  0  0  0  0
  159.5880  211.5370  153.8340 C   0  0  0  0  0  2  0  0  0  0  0  0
  158.7290  211.3070  152.6830 N   0  0  0  0  0  1  0  0  0  0  0  0
  161.3380  209.9110  154.7350 C   0  0  0  0  0  2  0  0  0  0  0  0
  160.1670  207.9310  155.6570 C   0  0  0  0  0  1  0  0  0  0  0  0
  160.1330  209.4400  155.5350 C   0  0  0  0  0  2  0  0  0  0  0  0
  1 15  1  0  0  0  0
  2  1  2  0  0  0  0
  3 10  1  0  0  0  0
  4  7  1  0  0  0  0
  5  9  1  0  0  0  0
  6  2  1  0  0  0  0
  6  8  1  0  0  0  0
  7  6  2  0  0  0  0
  9  7  1  0  0  0  0
  9  3  2  0  0  0  0
 10  8  2  0  0  0  0
 10 13  1  0  0  0  0
 13 11  1  0  0  0  0
 13 12  1  0  0  0  0
 14 13  1  0  0  0  0
 15 16  2  0  0  0  0
 16 19  1  0  0  0  0
 19 18  2  0  0  0  0
 19 17  1  0  0  0  0
 20 17  1  0  0  0  0
 21 20  1  6  0  0  0
 21 22  1  0  0  0  0
 21 24  1  0  0  0  0
 23 22  1  0  0  0  0
 24 26  1  0  0  0  0
 26 25  1  0  0  0  0
M  END
>  <MODEL>
2

>  <REMARK>
 VINA RESULT:      -7.0      3.253      7.476
  Name = 
  9 active torsions:
  status: ('A' for Active; 'I' for Inactive)
    1  A    between atoms: C_3  and  C_24
    2  A    between atoms: N_5  and  C_17
    3  A    between atoms: C_6  and  C_18
    4  A    between atoms: C_6  and  C_24
    5  A    between atoms: C_7  and  N_10
    6  A    between atoms: C_13  and  C_21
    7  A    between atoms: C_17  and  C_24
    8  A    between atoms: C_19  and  C_22
    9  A    between atoms: C_23  and  N_26
                            x       y       z     vdW  Elec       q    Type
                         _______ _______ _______ _____ _____    ______ ____

>  <TORSDO>
F 9

$$$$
=
 OpenBabel11052409483D

 26 26  0  0  1  0  0  0  0  0999 V2000
  161.6320  204.8940  151.3090 N   0  0  0  0  0  0  0  0  0  0  0  0
  160.7030  204.2580  150.6660 C   0  0  0  0  0  3  0  0  0  0  0  0
  161.4420  202.4860  146.8490 C   0  0  0  0  0  3  0  0  0  0  0  0
  160.4810  201.4200  150.2860 N   0  0  0  0  0  1  0  0  0  0  0  0
  160.9950  200.3370  147.7640 F   0  0  0  0  0  0  0  0  0  0  0  0
  160.9510  203.6470  149.3520 C   0  0  0  0  0  0  0  0  0  0  0  0
  160.8410  202.2550  149.1860 C   0  0  0  0  0  0  0  0  0  0  0  0
  161.3070  204.4460  148.2550 C   0  0  0  0  0  3  0  0  0  0  0  0
  161.0890  201.6800  147.9330 C   0  0  0  0  0  0  0  0  0  0  0  0
  161.5380  203.8740  146.9970 C   0  0  0  0  0  0  0  0  0  0  0  0
  161.4140  204.2640  144.6620 F   0  0  0  0  0  0  0  0  0  0  0  0
  161.5360  206.0430  146.0560 O   0  0  0  0  0  1  0  0  0  0  0  0
  161.9650  204.7330  145.8420 C   0  0  0  0  0  0  0  0  0  0  0  0
  163.3440  204.7220  145.7180 F   0  0  0  0  0  0  0  0  0  0  0  0
  161.4260  205.4990  152.5930 C   0  0  0  0  0  3  0  0  0  0  0  0
  161.6160  206.7640  152.8490 N   0  0  0  0  0  0  0  0  0  0  0  0
  161.2020  209.0540  151.9980 N   0  0  0  0  0  2  0  0  0  0  0  0
  162.5960  207.5630  150.8480 N   0  0  0  0  0  2  0  0  0  0  0  0
  161.8970  207.8100  151.9060 C   0  0  0  0  0  0  0  0  0  0  0  0
  160.3630  209.4030  153.1370 C   0  0  0  0  0  2  0  0  0  0  0  0
  161.1980  210.0470  154.2430 C   0  0  1  0  0  3  0  0  0  0  0  0
  160.7900  211.4890  154.5490 C   0  0  0  0  0  2  0  0  0  0  0  0
  159.8950  212.0170  153.5310 N   0  0  0  0  0  1  0  0  0  0  0  0
  161.2900  209.1700  155.4930 C   0  0  0  0  0  2  0  0  0  0  0  0
  159.8510  207.2550  156.1250 C   0  0  0  0  0  1  0  0  0  0  0  0
  159.9280  208.7650  156.0330 C   0  0  0  0  0  2  0  0  0  0  0  0
  1 15  1  0  0  0  0
  2  1  2  0  0  0  0
  3 10  2  0  0  0  0
  3  9  1  0  0  0  0
  5  9  1  0  0  0  0
  6  2  1  0  0  0  0
  7  6  1  0  0  0  0
  7  4  1  0  0  0  0
  8  6  2  0  0  0  0
  9  7  2  0  0  0  0
 10  8  1  0  0  0  0
 11 13  1  0  0  0  0
 13 12  1  0  0  0  0
 13 10  1  0  0  0  0
 14 13  1  0  0  0  0
 15 16  2  0  0  0  0
 17 20  1  0  0  0  0
 18 19  2  0  0  0  0
 19 17  1  0  0  0  0
 19 16  1  0  0  0  0
 21 20  1  6  0  0  0
 21 22  1  0  0  0  0
 21 24  1  0  0  0  0
 23 22  1  0  0  0  0
 24 26  1  0  0  0  0
 26 25  1  0  0  0  0
M  END
>  <MODEL>
3

>  <REMARK>
 VINA RESULT:      -7.0      4.076      8.213
  Name = 
  9 active torsions:
  status: ('A' for Active; 'I' for Inactive)
    1  A    between atoms: C_3  and  C_24
    2  A    between atoms: N_5  and  C_17
    3  A    between atoms: C_6  and  C_18
    4  A    between atoms: C_6  and  C_24
    5  A    between atoms: C_7  and  N_10
    6  A    between atoms: C_13  and  C_21
    7  A    between atoms: C_17  and  C_24
    8  A    between atoms: C_19  and  C_22
    9  A    between atoms: C_23  and  N_26
                            x       y       z     vdW  Elec       q    Type
                         _______ _______ _______ _____ _____    ______ ____

>  <TORSDO>
F 9

$$$$
=
 OpenBabel11052409483D

 26 26  0  0  1  0  0  0  0  0999 V2000
  161.1160  206.6960  150.7930 N   0  0  0  0  0  0  0  0  0  0  0  0
  161.4090  206.6250  149.5330 C   0  0  0  0  0  3  0  0  0  0  0  0
  161.3180  202.9170  147.4120 C   0  0  0  0  0  3  0  0  0  0  0  0
  162.0850  206.5000  146.7450 N   0  0  0  0  0  1  0  0  0  0  0  0
  161.9870  204.0410  145.4260 F   0  0  0  0  0  0  0  0  0  0  0  0
  161.3840  205.3500  148.8030 C   0  0  0  0  0  0  0  0  0  0  0  0
  161.7150  205.3090  147.4370 C   0  0  0  0  0  0  0  0  0  0  0  0
  161.0230  204.1640  149.4600 C   0  0  0  0  0  3  0  0  0  0  0  0
  161.6790  204.0900  146.7460 C   0  0  0  0  0  0  0  0  0  0  0  0
  161.0030  202.9420  148.7760 C   0  0  0  0  0  0  0  0  0  0  0  0
  161.2820  200.6000  149.0060 F   0  0  0  0  0  0  0  0  0  0  0  0
  160.7940  201.8220  150.8480 O   0  0  0  0  0  1  0  0  0  0  0  0
  160.5680  201.6880  149.4770 C   0  0  0  0  0  0  0  0  0  0  0  0
  159.2210  201.4570  149.2600 F   0  0  0  0  0  0  0  0  0  0  0  0
  161.1270  207.9240  151.5360 C   0  0  0  0  0  3  0  0  0  0  0  0
  160.9910  208.0010  152.8310 N   0  0  0  0  0  0  0  0  0  0  0  0
  160.5180  207.1390  155.1060 N   0  0  0  0  0  2  0  0  0  0  0  0
  161.5680  205.8030  153.4930 N   0  0  0  0  0  2  0  0  0  0  0  0
  160.9720  206.9150  153.7700 C   0  0  0  0  0  0  0  0  0  0  0  0
  159.8670  208.3760  155.5170 C   0  0  0  0  0  2  0  0  0  0  0  0
  160.4670  208.8910  156.8250 C   0  0  1  0  0  3  0  0  0  0  0  0
  161.9840  208.7090  156.9090 C   0  0  0  0  0  2  0  0  0  0  0  0
  162.6870  209.9250  156.5300 N   0  0  0  0  0  1  0  0  0  0  0  0
  160.0130  210.3120  157.1590 C   0  0  0  0  0  2  0  0  0  0  0  0
  159.9980  212.1480  155.4940 C   0  0  0  0  0  1  0  0  0  0  0  0
  159.2250  210.9610  156.0320 C   0  0  0  0  0  2  0  0  0  0  0  0
  1 15  1  0  0  0  0
  2  1  2  0  0  0  0
  3 10  1  0  0  0  0
  4  7  1  0  0  0  0
  5  9  1  0  0  0  0
  6  8  1  0  0  0  0
  6  2  1  0  0  0  0
  7  6  2  0  0  0  0
  9  3  2  0  0  0  0
  9  7  1  0  0  0  0
 10  8  2  0  0  0  0
 10 13  1  0  0  0  0
 11 13  1  0  0  0  0
 13 12  1  0  0  0  0
 14 13  1  0  0  0  0
 15 16  2  0  0  0  0
 16 19  1  0  0  0  0
 17 20  1  0  0  0  0
 18 19  2  0  0  0  0
 19 17  1  0  0  0  0
 21 20  1  6  0  0  0
 21 22  1  0  0  0  0
 21 24  1  0  0  0  0
 23 22  1  0  0  0  0
 25 26  1  0  0  0  0
 26 24  1  0  0  0  0
M  END
>  <MODEL>
4

>  <REMARK>
 VINA RESULT:      -6.8      4.367      8.199
  Name = 
  9 active torsions:
  status: ('A' for Active; 'I' for Inactive)
    1  A    between atoms: C_3  and  C_24
    2  A    between atoms: N_5  and  C_17
    3  A    between atoms: C_6  and  C_18
    4  A    between atoms: C_6  and  C_24
    5  A    between atoms: C_7  and  N_10
    6  A    between atoms: C_13  and  C_21
    7  A    between atoms: C_17  and  C_24
    8  A    between atoms: C_19  and  C_22
    9  A    between atoms: C_23  and  N_26
                            x       y       z     vdW  Elec       q    Type
                         _______ _______ _______ _____ _____    ______ ____

>  <TORSDO>
F 9

$$$$
=
 OpenBabel11052409483D

 26 26  0  0  1  0  0  0  0  0999 V2000
  161.4390  204.9660  151.7400 N   0  0  0  0  0  0  0  0  0  0  0  0
  160.6740  204.1720  151.0600 C   0  0  0  0  0  3  0  0  0  0  0  0
  161.4530  203.2920  146.9510 C   0  0  0  0  0  3  0  0  0  0  0  0
  160.4860  201.4850  150.0620 N   0  0  0  0  0  1  0  0  0  0  0  0
  161.0250  200.9900  147.3670 F   0  0  0  0  0  0  0  0  0  0  0  0
  160.9360  203.8680  149.6460 C   0  0  0  0  0  0  0  0  0  0  0  0
  160.8420  202.5460  149.1760 C   0  0  0  0  0  0  0  0  0  0  0  0
  161.2880  204.8930  148.7540 C   0  0  0  0  0  3  0  0  0  0  0  0
  161.1030  202.2640  147.8290 C   0  0  0  0  0  0  0  0  0  0  0  0
  161.5320  204.6150  147.4030 C   0  0  0  0  0  0  0  0  0  0  0  0
  162.9860  205.2780  145.6530 F   0  0  0  0  0  0  0  0  0  0  0  0
  160.8730  206.0870  145.6750 O   0  0  0  0  0  1  0  0  0  0  0  0
  161.9560  205.7120  146.4690 C   0  0  0  0  0  0  0  0  0  0  0  0
  162.3960  206.8110  147.1850 F   0  0  0  0  0  0  0  0  0  0  0  0
  161.2150  205.2810  153.1220 C   0  0  0  0  0  3  0  0  0  0  0  0
  161.1940  206.4930  153.6050 N   0  0  0  0  0  0  0  0  0  0  0  0
  161.1070  208.9690  153.5590 N   0  0  0  0  0  2  0  0  0  0  0  0
  161.1170  207.7150  151.5790 N   0  0  0  0  0  2  0  0  0  0  0  0
  161.2210  207.7240  152.8670 C   0  0  0  0  0  0  0  0  0  0  0  0
  161.1760  209.0700  155.0100 C   0  0  0  0  0  2  0  0  0  0  0  0
  160.8220  210.4840  155.4690 C   0  0  1  0  0  3  0  0  0  0  0  0
  161.7560  211.0200  156.5570 C   0  0  0  0  0  2  0  0  0  0  0  0
  163.1400  210.6550  156.2980 N   0  0  0  0  0  1  0  0  0  0  0  0
  160.6450  211.4530  154.2990 C   0  0  0  0  0  2  0  0  0  0  0  0
  158.5600  211.4430  152.9600 C   0  0  0  0  0  1  0  0  0  0  0  0
  159.2310  212.0030  154.1970 C   0  0  0  0  0  2  0  0  0  0  0  0
  1 15  1  0  0  0  0
  2  1  2  0  0  0  0
  3 10  2  0  0  0  0
  3  9  1  0  0  0  0
  5  9  1  0  0  0  0
  6  2  1  0  0  0  0
  7  6  1  0  0  0  0
  7  4  1  0  0  0  0
  8  6  2  0  0  0  0
  9  7  2  0  0  0  0
 10  8  1  0  0  0  0
 11 13  1  0  0  0  0
 12 13  1  0  0  0  0
 13 14  1  0  0  0  0
 13 10  1  0  0  0  0
 15 16  2  0  0  0  0
 17 20  1  0  0  0  0
 18 19  2  0  0  0  0
 19 17  1  0  0  0  0
 19 16  1  0  0  0  0
 20 21  1  0  0  0  0
 21 24  1  6  0  0  0
 21 22  1  0  0  0  0
 23 22  1  0  0  0  0
 25 26  1  0  0  0  0
 26 24  1  0  0  0  0
M  END
>  <MODEL>
5

>  <REMARK>
 VINA RESULT:      -6.7      4.445      8.689
  Name = 
  9 active torsions:
  status: ('A' for Active; 'I' for Inactive)
    1  A    between atoms: C_3  and  C_24
    2  A    between atoms: N_5  and  C_17
    3  A    between atoms: C_6  and  C_18
    4  A    between atoms: C_6  and  C_24
    5  A    between atoms: C_7  and  N_10
    6  A    between atoms: C_13  and  C_21
    7  A    between atoms: C_17  and  C_24
    8  A    between atoms: C_19  and  C_22
    9  A    between atoms: C_23  and  N_26
                            x       y       z     vdW  Elec       q    Type
                         _______ _______ _______ _____ _____    ______ ____

>  <TORSDO>
F 9

$$$$
=
 OpenBabel11052409483D

 26 26  0  0  1  0  0  0  0  0999 V2000
  161.9690  207.2220  149.6930 N   0  0  0  0  0  0  0  0  0  0  0  0
  161.2250  206.8180  148.7120 C   0  0  0  0  0  3  0  0  0  0  0  0
  161.2910  202.7700  147.3450 C   0  0  0  0  0  3  0  0  0  0  0  0
  161.8290  206.1920  145.9750 N   0  0  0  0  0  1  0  0  0  0  0  0
  161.8380  203.5230  145.1560 F   0  0  0  0  0  0  0  0  0  0  0  0
  161.2540  205.4260  148.2410 C   0  0  0  0  0  0  0  0  0  0  0  0
  161.5490  205.1390  146.8960 C   0  0  0  0  0  0  0  0  0  0  0  0
  160.9810  204.3720  149.1270 C   0  0  0  0  0  3  0  0  0  0  0  0
  161.5640  203.8100  146.4530 C   0  0  0  0  0  0  0  0  0  0  0  0
  161.0140  203.0420  148.6900 C   0  0  0  0  0  0  0  0  0  0  0  0
  161.5250  200.8520  149.4400 F   0  0  0  0  0  0  0  0  0  0  0  0
  160.8000  202.3770  150.9480 O   0  0  0  0  0  1  0  0  0  0  0  0
  160.6720  201.9260  149.6340 C   0  0  0  0  0  0  0  0  0  0  0  0
  159.3730  201.4990  149.4260 F   0  0  0  0  0  0  0  0  0  0  0  0
  161.9630  208.5720  150.1810 C   0  0  0  0  0  3  0  0  0  0  0  0
  161.5690  208.9200  151.3740 N   0  0  0  0  0  0  0  0  0  0  0  0
  161.1410  208.5810  153.7910 N   0  0  0  0  0  2  0  0  0  0  0  0
  161.2270  206.7710  152.3050 N   0  0  0  0  0  2  0  0  0  0  0  0
  161.2290  208.0530  152.4670 C   0  0  0  0  0  0  0  0  0  0  0  0
  161.1710  210.0100  154.0710 C   0  0  0  0  0  2  0  0  0  0  0  0
  160.1600  210.3670  155.1590 C   0  0  1  0  0  3  0  0  0  0  0  0
  159.0580  211.3120  154.6770 C   0  0  0  0  0  2  0  0  0  0  0  0
  158.9550  211.3120  153.2250 N   0  0  0  0  0  1  0  0  0  0  0  0
  159.6190  209.1340  155.8850 C   0  0  0  0  0  2  0  0  0  0  0  0
  160.4410  207.2400  157.2550 C   0  0  0  0  0  1  0  0  0  0  0  0
  160.4550  208.7460  157.0940 C   0  0  0  0  0  2  0  0  0  0  0  0
  1 15  1  0  0  0  0
  2  1  2  0  0  0  0
  3 10  1  0  0  0  0
  4  7  1  0  0  0  0
  5  9  1  0  0  0  0
  6  2  1  0  0  0  0
  6  8  1  0  0  0  0
  7  6  2  0  0  0  0
  9  7  1  0  0  0  0
  9  3  2  0  0  0  0
 10  8  2  0  0  0  0
 10 13  1  0  0  0  0
 11 13  1  0  0  0  0
 13 12  1  0  0  0  0
 14 13  1  0  0  0  0
 15 16  2  0  0  0  0
 16 19  1  0  0  0  0
 17 20  1  0  0  0  0
 18 19  2  0  0  0  0
 19 17  1  0  0  0  0
 21 20  1  6  0  0  0
 21 24  1  0  0  0  0
 22 21  1  0  0  0  0
 23 22  1  0  0  0  0
 24 26  1  0  0  0  0
 26 25  1  0  0  0  0
M  END
>  <MODEL>
6

>  <REMARK>
 VINA RESULT:      -6.7      3.741      7.701
  Name = 
  9 active torsions:
  status: ('A' for Active; 'I' for Inactive)
    1  A    between atoms: C_3  and  C_24
    2  A    between atoms: N_5  and  C_17
    3  A    between atoms: C_6  and  C_18
    4  A    between atoms: C_6  and  C_24
    5  A    between atoms: C_7  and  N_10
    6  A    between atoms: C_13  and  C_21
    7  A    between atoms: C_17  and  C_24
    8  A    between atoms: C_19  and  C_22
    9  A    between atoms: C_23  and  N_26
                            x       y       z     vdW  Elec       q    Type
                         _______ _______ _______ _____ _____    ______ ____

>  <TORSDO>
F 9

$$$$
=
 OpenBabel11052409483D

 26 26  0  0  1  0  0  0  0  0999 V2000
  161.5270  207.1670  150.7680 N   0  0  0  0  0  0  0  0  0  0  0  0
  160.5960  206.5190  150.1420 C   0  0  0  0  0  3  0  0  0  0  0  0
  161.4920  203.1500  147.6710 C   0  0  0  0  0  3  0  0  0  0  0  0
  160.4090  203.8430  151.1670 N   0  0  0  0  0  1  0  0  0  0  0  0
  161.0260  201.6950  149.4930 F   0  0  0  0  0  0  0  0  0  0  0  0
  160.8980  205.3590  149.2920 C   0  0  0  0  0  0  0  0  0  0  0  0
  160.8040  204.0550  149.8120 C   0  0  0  0  0  0  0  0  0  0  0  0
  161.2890  205.5410  147.9570 C   0  0  0  0  0  3  0  0  0  0  0  0
  161.1040  202.9550  148.9980 C   0  0  0  0  0  0  0  0  0  0  0  0
  161.5720  204.4410  147.1360 C   0  0  0  0  0  0  0  0  0  0  0  0
  161.4780  203.7000  144.8870 F   0  0  0  0  0  0  0  0  0  0  0  0
  161.6510  205.9200  145.2930 O   0  0  0  0  0  1  0  0  0  0  0  0
  162.0360  204.6500  145.7240 C   0  0  0  0  0  0  0  0  0  0  0  0
  163.4150  204.5450  145.6500 F   0  0  0  0  0  0  0  0  0  0  0  0
  161.2680  208.3010  151.6080 C   0  0  0  0  0  3  0  0  0  0  0  0
  161.0530  208.2300  152.8920 N   0  0  0  0  0  0  0  0  0  0  0  0
  160.6420  207.0920  155.0550 N   0  0  0  0  0  2  0  0  0  0  0  0
  161.9920  206.1190  153.4050 N   0  0  0  0  0  2  0  0  0  0  0  0
  161.1900  207.0760  153.7360 C   0  0  0  0  0  0  0  0  0  0  0  0
  159.7580  208.1490  155.5260 C   0  0  0  0  0  2  0  0  0  0  0  0
  160.3760  208.8760  156.7190 C   0  0  1  0  0  3  0  0  0  0  0  0
  161.8680  208.5850  156.9000 C   0  0  0  0  0  2  0  0  0  0  0  0
  162.6710  209.7820  156.7000 N   0  0  0  0  0  1  0  0  0  0  0  0
  160.0500  210.3700  156.7290 C   0  0  0  0  0  2  0  0  0  0  0  0
  160.3280  211.6870  154.6490 C   0  0  0  0  0  1  0  0  0  0  0  0
  159.3680  210.8350  155.4520 C   0  0  0  0  0  2  0  0  0  0  0  0
  1 15  1  0  0  0  0
  2  1  2  0  0  0  0
  3  9  1  0  0  0  0
  6  7  1  0  0  0  0
  6  2  1  0  0  0  0
  7  4  1  0  0  0  0
  8  6  2  0  0  0  0
  9  5  1  0  0  0  0
  9  7  2  0  0  0  0
 10  3  2  0  0  0  0
 10  8  1  0  0  0  0
 11 13  1  0  0  0  0
 12 13  1  0  0  0  0
 13 10  1  0  0  0  0
 14 13  1  0  0  0  0
 15 16  2  0  0  0  0
 16 19  1  0  0  0  0
 17 20  1  0  0  0  0
 18 19  2  0  0  0  0
 19 17  1  0  0  0  0
 21 20  1  6  0  0  0
 21 24  1  0  0  0  0
 21 22  1  0  0  0  0
 23 22  1  0  0  0  0
 25 26  1  0  0  0  0
 26 24  1  0  0  0  0
M  END
>  <MODEL>
7

>  <REMARK>
 VINA RESULT:      -6.5      4.635      8.500
  Name = 
  9 active torsions:
  status: ('A' for Active; 'I' for Inactive)
    1  A    between atoms: C_3  and  C_24
    2  A    between atoms: N_5  and  C_17
    3  A    between atoms: C_6  and  C_18
    4  A    between atoms: C_6  and  C_24
    5  A    between atoms: C_7  and  N_10
    6  A    between atoms: C_13  and  C_21
    7  A    between atoms: C_17  and  C_24
    8  A    between atoms: C_19  and  C_22
    9  A    between atoms: C_23  and  N_26
                            x       y       z     vdW  Elec       q    Type
                         _______ _______ _______ _____ _____    ______ ____

>  <TORSDO>
F 9

$$$$
=
 OpenBabel11052409483D

 26 26  0  0  1  0  0  0  0  0999 V2000
  160.5350  206.2590  147.5090 N   0  0  0  0  0  0  0  0  0  0  0  0
  161.3860  206.8690  148.2730 C   0  0  0  0  0  3  0  0  0  0  0  0
  161.1210  206.6640  152.5330 C   0  0  0  0  0  3  0  0  0  0  0  0
  161.3890  204.3400  149.6350 N   0  0  0  0  0  1  0  0  0  0  0  0
  161.1980  204.2900  152.4200 F   0  0  0  0  0  0  0  0  0  0  0  0
  161.3000  206.7960  149.7380 C   0  0  0  0  0  0  0  0  0  0  0  0
  161.3010  205.5490  150.3880 C   0  0  0  0  0  0  0  0  0  0  0  0
  161.2110  207.9700  150.5020 C   0  0  0  0  0  3  0  0  0  0  0  0
  161.2090  205.4880  151.7840 C   0  0  0  0  0  0  0  0  0  0  0  0
  161.1380  207.9120  151.9000 C   0  0  0  0  0  0  0  0  0  0  0  0
  160.9830  208.8830  154.0570 F   0  0  0  0  0  0  0  0  0  0  0  0
  162.0650  210.0230  152.4270 O   0  0  0  0  0  1  0  0  0  0  0  0
  160.9930  209.1730  152.7030 C   0  0  0  0  0  0  0  0  0  0  0  0
  159.8100  209.8160  152.3820 F   0  0  0  0  0  0  0  0  0  0  0  0
  160.5900  206.3050  146.0760 C   0  0  0  0  0  3  0  0  0  0  0  0
  161.4470  205.6400  145.3520 N   0  0  0  0  0  0  0  0  0  0  0  0
  161.9190  203.2920  145.9880 N   0  0  0  0  0  2  0  0  0  0  0  0
  163.5340  204.9710  146.2460 N   0  0  0  0  0  2  0  0  0  0  0  0
  162.3690  204.6350  145.7980 C   0  0  0  0  0  0  0  0  0  0  0  0
  160.6080  202.8340  145.5490 C   0  0  0  0  0  2  0  0  0  0  0  0
  160.3120  201.4400  146.1010 C   0  0  1  0  0  3  0  0  0  0  0  0
  160.4420  200.3320  145.0540 C   0  0  0  0  0  2  0  0  0  0  0  0
  161.0690  199.1440  145.6120 N   0  0  0  0  0  1  0  0  0  0  0  0
  161.0830  201.1440  147.3880 C   0  0  0  0  0  2  0  0  0  0  0  0
  161.0710  201.0040  149.8630 C   0  0  0  0  0  1  0  0  0  0  0  0
  160.2370  201.3220  148.6390 C   0  0  0  0  0  2  0  0  0  0  0  0
  1  2  2  0  0  0  0
  2  6  1  0  0  0  0
  4  7  1  0  0  0  0
  6  7  2  0  0  0  0
  6  8  1  0  0  0  0
  7  9  1  0  0  0  0
  8 10  2  0  0  0  0
  9  5  1  0  0  0  0
  9  3  2  0  0  0  0
 10  3  1  0  0  0  0
 10 13  1  0  0  0  0
 12 13  1  0  0  0  0
 13 11  1  0  0  0  0
 14 13  1  0  0  0  0
 15  1  1  0  0  0  0
 16 19  1  0  0  0  0
 16 15  2  0  0  0  0
 19 17  1  0  0  0  0
 19 18  2  0  0  0  0
 20 17  1  0  0  0  0
 20 21  1  0  0  0  0
 21 22  1  6  0  0  0
 21 24  1  0  0  0  0
 22 23  1  0  0  0  0
 24 26  1  0  0  0  0
 26 25  1  0  0  0  0
M  END
>  <MODEL>
8

>  <REMARK>
 VINA RESULT:      -6.4      1.721      2.818
  Name = 
  9 active torsions:
  status: ('A' for Active; 'I' for Inactive)
    1  A    between atoms: C_3  and  C_24
    2  A    between atoms: N_5  and  C_17
    3  A    between atoms: C_6  and  C_18
    4  A    between atoms: C_6  and  C_24
    5  A    between atoms: C_7  and  N_10
    6  A    between atoms: C_13  and  C_21
    7  A    between atoms: C_17  and  C_24
    8  A    between atoms: C_19  and  C_22
    9  A    between atoms: C_23  and  N_26
                            x       y       z     vdW  Elec       q    Type
                         _______ _______ _______ _____ _____    ______ ____

>  <TORSDO>
F 9

$$$$
=
 OpenBabel11052409483D

 26 26  0  0  1  0  0  0  0  0999 V2000
  160.8310  207.0840  152.4080 N   0  0  0  0  0  0  0  0  0  0  0  0
  161.4190  205.9400  152.2520 C   0  0  0  0  0  3  0  0  0  0  0  0
  160.9400  203.6220  148.6950 C   0  0  0  0  0  3  0  0  0  0  0  0
  160.8310  203.1320  152.3860 N   0  0  0  0  0  1  0  0  0  0  0  0
  160.5470  201.6840  150.0160 F   0  0  0  0  0  0  0  0  0  0  0  0
  161.2480  205.1430  151.0300 C   0  0  0  0  0  0  0  0  0  0  0  0
  160.9630  203.7680  151.1150 C   0  0  0  0  0  0  0  0  0  0  0  0
  161.3740  205.7430  149.7680 C   0  0  0  0  0  3  0  0  0  0  0  0
  160.8120  203.0120  149.9450 C   0  0  0  0  0  0  0  0  0  0  0  0
  161.2060  204.9930  148.5970 C   0  0  0  0  0  0  0  0  0  0  0  0
  162.3120  206.6660  147.3350 F   0  0  0  0  0  0  0  0  0  0  0  0
  161.8530  204.6830  146.3440 O   0  0  0  0  0  1  0  0  0  0  0  0
  161.3910  205.6360  147.2530 C   0  0  0  0  0  0  0  0  0  0  0  0
  160.1910  206.1540  146.7970 F   0  0  0  0  0  0  0  0  0  0  0  0
  160.9780  207.8910  153.5860 C   0  0  0  0  0  3  0  0  0  0  0  0
  161.2860  209.1580  153.5750 N   0  0  0  0  0  0  0  0  0  0  0  0
  160.2800  210.8770  152.1010 N   0  0  0  0  0  2  0  0  0  0  0  0
  162.3320  209.8740  151.5760 N   0  0  0  0  0  2  0  0  0  0  0  0
  161.3750  210.0230  152.4320 C   0  0  0  0  0  0  0  0  0  0  0  0
  159.1430  211.0770  152.9890 C   0  0  0  0  0  2  0  0  0  0  0  0
  158.6630  212.5270  152.9310 C   0  0  1  0  0  3  0  0  0  0  0  0
  158.2740  212.9810  151.5230 C   0  0  0  0  0  2  0  0  0  0  0  0
  157.3270  214.0850  151.5630 N   0  0  0  0  0  1  0  0  0  0  0  0
  157.5910  212.8320  153.9790 C   0  0  0  0  0  2  0  0  0  0  0  0
  155.9560  211.2810  155.0100 C   0  0  0  0  0  1  0  0  0  0  0  0
  157.4100  211.7060  154.9840 C   0  0  0  0  0  2  0  0  0  0  0  0
  1 15  1  0  0  0  0
  2  1  2  0  0  0  0
  3  9  1  0  0  0  0
  6  7  1  0  0  0  0
  6  2  1  0  0  0  0
  7  4  1  0  0  0  0
  8  6  2  0  0  0  0
  9  5  1  0  0  0  0
  9  7  2  0  0  0  0
 10  3  2  0  0  0  0
 10  8  1  0  0  0  0
 12 13  1  0  0  0  0
 13 11  1  0  0  0  0
 13 10  1  0  0  0  0
 14 13  1  0  0  0  0
 16 15  2  0  0  0  0
 17 19  1  0  0  0  0
 17 20  1  0  0  0  0
 18 19  2  0  0  0  0
 19 16  1  0  0  0  0
 21 22  1  6  0  0  0
 21 20  1  0  0  0  0
 21 24  1  0  0  0  0
 22 23  1  0  0  0  0
 24 26  1  0  0  0  0
 26 25  1  0  0  0  0
M  END
>  <MODEL>
9

>  <REMARK>
 VINA RESULT:      -6.3      4.590      8.706
  Name = 
  9 active torsions:
  status: ('A' for Active; 'I' for Inactive)
    1  A    between atoms: C_3  and  C_24
    2  A    between atoms: N_5  and  C_17
    3  A    between atoms: C_6  and  C_18
    4  A    between atoms: C_6  and  C_24
    5  A    between atoms: C_7  and  N_10
    6  A    between atoms: C_13  and  C_21
    7  A    between atoms: C_17  and  C_24
    8  A    between atoms: C_19  and  C_22
    9  A    between atoms: C_23  and  N_26
                            x       y       z     vdW  Elec       q    Type
                         _______ _______ _______ _____ _____    ______ ____

>  <TORSDO>
F 9

$$$$
