=
 OpenBabel11042420183D

 51 53  0  0  1  0  0  0  0  0999 V2000
  161.1800  204.3180  147.6310 C   0  0  0  0  0  0  0  0  0  0  0  0
  161.5240  206.1240  146.1340 O   0  0  0  0  0  0  0  0  0  0  0  0
  161.3490  205.7480  147.3250 C   0  0  0  0  0  0  0  0  0  0  0  0
  160.7110  204.5210  151.3830 N   0  0  0  0  0  2  0  0  0  0  0  0
  161.2780  206.7780  148.4200 C   0  0  1  0  0  3  0  0  0  0  0  0
  160.9610  203.9200  148.9580 C   0  0  0  0  0  0  0  0  0  0  0  0
  161.2260  203.3550  146.6120 C   0  0  0  0  0  3  0  0  0  0  0  0
  161.0500  202.0010  146.9130 C   0  0  0  0  0  3  0  0  0  0  0  0
  160.8280  201.6040  148.2350 C   0  0  0  0  0  3  0  0  0  0  0  0
  161.0630  206.1960  149.7540 N   0  0  0  0  0  0  0  0  0  0  0  0
  160.9150  204.9320  150.0280 C   0  0  0  0  0  0  0  0  0  0  0  0
  160.7860  202.5590  149.2540 C   0  0  0  0  0  3  0  0  0  0  0  0
  160.6120  205.4670  152.4800 C   0  0  0  0  0  2  0  0  0  0  0  0
  161.9940  205.9200  152.9020 C   0  0  0  0  0  2  0  0  0  0  0  0
  162.2350  207.2140  152.4310 O   0  0  0  0  0  0  0  0  0  0  0  0
  161.1060  207.9480  152.8040 C   0  0  0  0  0  2  0  0  0  0  0  0
  161.4800  209.3990  153.0740 C   0  0  0  0  0  2  0  0  0  0  0  0
  159.8510  210.3020  154.8010 C   0  0  0  0  0  0  0  0  0  0  0  0
  159.5730  210.8830  152.4610 C   0  0  0  0  0  3  0  0  0  0  0  0
  158.0280  211.7480  154.1150 C   0  0  0  0  0  3  0  0  0  0  0  0
  158.4500  211.6520  152.7850 C   0  0  0  0  0  3  0  0  0  0  0  0
  158.7290  211.0770  155.1190 C   0  0  0  0  0  3  0  0  0  0  0  0
  160.2780  210.2050  153.4610 C   0  0  0  0  0  0  0  0  0  0  0  0
  160.5900  209.6220  155.9050 C   0  0  0  0  0  2  0  0  0  0  0  0
  159.9130  208.4620  156.2830 O   0  0  0  0  0  0  0  0  0  0  0  0
  162.0790  208.5850  157.2610 C   0  0  0  0  0  1  0  0  0  0  0  0
  160.7680  207.8300  157.1840 C   0  0  0  0  0  2  0  0  0  0  0  0
  162.5340  207.6400  148.4190 C   0  0  0  0  0  2  0  0  0  0  0  0
  161.9540  210.1650  149.0610 C   0  0  0  0  0  0  0  0  0  0  0  0
  162.2100  209.0290  148.7530 C   0  0  0  0  0  0  0  0  0  0  0  0
  161.6640  211.5480  149.4730 C   0  0  0  0  0  2  0  0  0  0  0  0
  161.3460  212.4500  148.2800 C   0  0  2  0  0  3  0  0  0  0  0  0
  162.2610  213.3870  144.9200 C   0  0  0  0  0  3  0  0  0  0  0  0
  162.5330  212.5950  147.3850 C   0  0  0  0  0  3  0  0  0  0  0  0
  162.3900  212.9890  146.1520 C   0  0  0  0  0  0  0  0  0  0  0  0
  163.4620  213.5050  144.0490 C   0  0  0  0  0  2  0  0  0  0  0  0
  163.0800  214.0200  142.6710 C   0  0  0  0  0  2  0  0  0  0  0  0
  162.0220  213.1270  142.0280 C   0  0  0  0  0  2  0  0  0  0  0  0
  162.2190  212.9660  140.5180 C   0  0  0  0  0  0  0  0  0  0  0  0
  162.7200  211.5660  140.2090 C   0  0  0  0  0  1  0  0  0  0  0  0
  163.2820  213.9450  140.0590 C   0  0  0  0  0  1  0  0  0  0  0  0
  160.9110  213.1950  139.7510 C   0  0  0  0  0  2  0  0  0  0  0  0
  159.7990  212.2190  140.1340 C   0  0  1  0  0  3  0  0  0  0  0  0
  158.7390  212.9440  140.9410 C   0  0  0  0  0  1  0  0  0  0  0  0
  159.1590  211.6460  138.8830 C   0  0  0  0  0  2  0  0  0  0  0  0
  157.1600  210.1910  138.9110 C   0  0  0  0  0  1  0  0  0  0  0  0
  158.6510  210.2420  139.1490 C   0  0  0  0  0  2  0  0  0  0  0  0
  160.8370  213.8130  148.7390 C   0  0  0  0  0  2  0  0  0  0  0  0
  159.3560  213.9810  148.4390 C   0  0  1  0  0  3  0  0  0  0  0  0
  158.9470  213.0110  147.5210 O   0  0  0  0  0  1  0  0  0  0  0  0
  158.5630  213.8280  149.7210 C   0  0  0  0  0  1  0  0  0  0  0  0
  1  6  1  0  0  0  0
  2  3  2  0  0  0  0
  3  1  1  0  0  0  0
  3  5  1  0  0  0  0
  4 13  1  0  0  0  0
  5 28  1  1  0  0  0
  5 10  1  0  0  0  0
  6 12  2  0  0  0  0
  6 11  1  0  0  0  0
  7  8  1  0  0  0  0
  7  1  2  0  0  0  0
  8  9  2  0  0  0  0
  9 12  1  0  0  0  0
 10 11  2  0  0  0  0
 11  4  1  0  0  0  0
 13 14  1  0  0  0  0
 15 16  1  0  0  0  0
 15 14  1  0  0  0  0
 16 17  1  0  0  0  0
 17 23  1  0  0  0  0
 18 22  1  0  0  0  0
 18 24  1  0  0  0  0
 19 21  2  0  0  0  0
 19 23  1  0  0  0  0
 20 22  2  0  0  0  0
 21 20  1  0  0  0  0
 23 18  2  0  0  0  0
 24 25  1  0  0  0  0
 25 27  1  0  0  0  0
 27 26  1  0  0  0  0
 28 30  1  0  0  0  0
 29 31  1  0  0  0  0
 30 29  3  0  0  0  0
 32 34  1  1  0  0  0
 32 48  1  0  0  0  0
 32 31  1  0  0  0  0
 33 35  2  0  0  0  0
 35 34  2  0  0  0  0
 36 33  1  0  0  0  0
 37 36  1  0  0  0  0
 38 37  1  0  0  0  0
 39 38  1  0  0  0  0
 40 39  1  0  0  0  0
 41 39  1  0  0  0  0
 42 43  1  0  0  0  0
 42 39  1  0  0  0  0
 43 44  1  6  0  0  0
 45 47  1  0  0  0  0
 45 43  1  0  0  0  0
 46 47  1  0  0  0  0
 49 48  1  0  0  0  0
 49 51  1  1  0  0  0
 50 49  1  0  0  0  0
M  END
>  <MODEL>
1

>  <REMARK>
 VINA RESULT:      -6.7      0.000      0.000
  Name = 
  24 active torsions:
  status: ('A' for Active; 'I' for Inactive)
    1  A    between atoms: C_1  and  C_45
    2  A    between atoms: C_1  and  C_46
    3  A    between atoms: C_2  and  C_14
    4  A    between atoms: C_2  and  C_46
    5  A    between atoms: C_5  and  O_8
    6  A    between atoms: C_5  and  C_24
    7  A    between atoms: O_8  and  C_44
    8  A    between atoms: C_9  and  C_23
    9  A    between atoms: C_9  and  C_35
   10  A    between atoms: C_9  and  C_47
   11  A    between atoms: C_11  and  C_23
   12  A    between atoms: O_12  and  C_29
   13  A    between atoms: O_12  and  C_51
   14  A    between atoms: C_14  and  C_36
   15  A    between atoms: N_16  and  C_24
   16  A    between atoms: C_17  and  C_18
   17  A    between atoms: C_17  and  C_40
   18  A    between atoms: C_19  and  C_34
   19  A    between atoms: C_19  and  C_36
   20  A    between atoms: C_22  and  C_47
   21  A    between atoms: C_26  and  C_29
   22  A    between atoms: C_43  and  C_45
   23  A    between atoms: C_44  and  C_48
   24  A    between atoms: C_48  and  C_49
                            x       y       z     vdW  Elec       q    Type
                         _______ _______ _______ _____ _____    ______ ____

>  <TORSDO>
F 24

$$$$
=
 OpenBabel11042420183D

 51 53  0  0  1  0  0  0  0  0999 V2000
  161.6530  207.7520  152.1550 C   0  0  0  0  0  0  0  0  0  0  0  0
  162.4490  209.8620  152.8830 O   0  0  0  0  0  0  0  0  0  0  0  0
  162.1140  209.1280  151.9140 C   0  0  0  0  0  0  0  0  0  0  0  0
  161.0310  206.6530  148.5850 N   0  0  0  0  0  2  0  0  0  0  0  0
  162.2290  209.6620  150.5110 C   0  0  1  0  0  3  0  0  0  0  0  0
  161.3090  206.9400  151.0640 C   0  0  0  0  0  0  0  0  0  0  0  0
  161.5630  207.2420  153.4600 C   0  0  0  0  0  3  0  0  0  0  0  0
  161.1370  205.9290  153.6750 C   0  0  0  0  0  3  0  0  0  0  0  0
  160.7970  205.1180  152.5880 C   0  0  0  0  0  3  0  0  0  0  0  0
  161.8120  208.6940  149.4840 N   0  0  0  0  0  0  0  0  0  0  0  0
  161.4020  207.4770  149.6940 C   0  0  0  0  0  0  0  0  0  0  0  0
  160.8810  205.6220  151.2870 C   0  0  0  0  0  3  0  0  0  0  0  0
  161.1380  207.1030  147.2090 C   0  0  0  0  0  2  0  0  0  0  0  0
  161.4350  205.9290  146.3000 C   0  0  0  0  0  2  0  0  0  0  0  0
  162.6180  205.3030  146.7020 O   0  0  0  0  0  0  0  0  0  0  0  0
  162.5500  204.0180  146.1550 C   0  0  0  0  0  2  0  0  0  0  0  0
  161.1600  203.4290  146.3520 C   0  0  0  0  0  2  0  0  0  0  0  0
  160.9860  201.2650  147.6690 C   0  0  0  0  0  0  0  0  0  0  0  0
  161.0780  203.3870  148.8440 C   0  0  0  0  0  3  0  0  0  0  0  0
  160.9220  201.3180  150.0940 C   0  0  0  0  0  3  0  0  0  0  0  0
  161.0020  202.7130  150.0680 C   0  0  0  0  0  3  0  0  0  0  0  0
  160.9160  200.5970  148.8980 C   0  0  0  0  0  3  0  0  0  0  0  0
  161.0700  202.6720  147.6410 C   0  0  0  0  0  0  0  0  0  0  0  0
  161.0060  200.4580  146.4140 C   0  0  0  0  0  2  0  0  0  0  0  0
  161.8320  199.3470  146.5800 O   0  0  0  0  0  0  0  0  0  0  0  0
  160.4550  198.0080  145.1750 C   0  0  0  0  0  1  0  0  0  0  0  0
  161.7950  198.6910  145.3510 C   0  0  0  0  0  2  0  0  0  0  0  0
  161.4330  210.9530  150.3700 C   0  0  0  0  0  2  0  0  0  0  0  0
  162.1880  212.3120  148.1990 C   0  0  0  0  0  0  0  0  0  0  0  0
  161.8650  211.7010  149.1860 C   0  0  0  0  0  0  0  0  0  0  0  0
  162.5410  213.0620  146.9840 C   0  0  0  0  0  2  0  0  0  0  0  0
  161.3050  213.5750  146.2430 C   0  0  2  0  0  3  0  0  0  0  0  0
  162.6660  213.0510  142.9450 C   0  0  0  0  0  3  0  0  0  0  0  0
  161.6900  214.3130  145.0030 C   0  0  0  0  0  3  0  0  0  0  0  0
  162.1810  213.6770  143.9780 C   0  0  0  0  0  0  0  0  0  0  0  0
  163.0560  213.8170  141.7300 C   0  0  0  0  0  2  0  0  0  0  0  0
  162.7810  213.0090  140.4720 C   0  0  0  0  0  2  0  0  0  0  0  0
  161.8030  211.8720  140.7570 C   0  0  0  0  0  2  0  0  0  0  0  0
  161.6480  210.9110  139.5740 C   0  0  0  0  0  0  0  0  0  0  0  0
  162.0100  209.5010  140.0040 C   0  0  0  0  0  1  0  0  0  0  0  0
  162.6200  211.3210  138.4840 C   0  0  0  0  0  1  0  0  0  0  0  0
  160.2130  210.9040  139.0370 C   0  0  0  0  0  2  0  0  0  0  0  0
  159.4840  212.2350  139.2240 C   0  0  1  0  0  3  0  0  0  0  0  0
  159.4920  213.0090  137.9200 C   0  0  0  0  0  1  0  0  0  0  0  0
  158.0460  211.9840  139.6390 C   0  0  0  0  0  2  0  0  0  0  0  0
  157.2140  209.9070  138.5870 C   0  0  0  0  0  1  0  0  0  0  0  0
  157.2560  211.4130  138.4770 C   0  0  0  0  0  2  0  0  0  0  0  0
  160.4400  214.4440  147.1500 C   0  0  0  0  0  2  0  0  0  0  0  0
  159.0320  213.8840  147.2750 C   0  0  1  0  0  3  0  0  0  0  0  0
  158.9870  212.5950  146.7390 O   0  0  0  0  0  1  0  0  0  0  0  0
  158.6380  213.8350  148.7370 C   0  0  0  0  0  1  0  0  0  0  0  0
  1  7  1  0  0  0  0
  3  1  1  0  0  0  0
  3  2  2  0  0  0  0
  4 11  1  0  0  0  0
  5 28  1  1  0  0  0
  5  3  1  0  0  0  0
  6 12  1  0  0  0  0
  6  1  2  0  0  0  0
  7  8  2  0  0  0  0
  9  8  1  0  0  0  0
 10 11  2  0  0  0  0
 10  5  1  0  0  0  0
 11  6  1  0  0  0  0
 12  9  2  0  0  0  0
 13  4  1  0  0  0  0
 14 15  1  0  0  0  0
 14 13  1  0  0  0  0
 16 17  1  0  0  0  0
 16 15  1  0  0  0  0
 17 23  1  0  0  0  0
 18 22  1  0  0  0  0
 19 21  2  0  0  0  0
 21 20  1  0  0  0  0
 22 20  2  0  0  0  0
 23 18  2  0  0  0  0
 23 19  1  0  0  0  0
 24 25  1  0  0  0  0
 24 18  1  0  0  0  0
 26 27  1  0  0  0  0
 27 25  1  0  0  0  0
 29 30  3  0  0  0  0
 30 28  1  0  0  0  0
 31 29  1  0  0  0  0
 32 34  1  6  0  0  0
 32 31  1  0  0  0  0
 32 48  1  0  0  0  0
 33 35  2  0  0  0  0
 35 34  2  0  0  0  0
 36 33  1  0  0  0  0
 37 38  1  0  0  0  0
 37 36  1  0  0  0  0
 39 40  1  0  0  0  0
 39 38  1  0  0  0  0
 41 39  1  0  0  0  0
 42 43  1  0  0  0  0
 42 39  1  0  0  0  0
 43 44  1  6  0  0  0
 43 45  1  0  0  0  0
 47 46  1  0  0  0  0
 47 45  1  0  0  0  0
 48 49  1  0  0  0  0
 49 51  1  1  0  0  0
 50 49  1  0  0  0  0
M  END
>  <MODEL>
2

>  <REMARK>
 VINA RESULT:      -6.0      2.130      6.635
  Name = 
  24 active torsions:
  status: ('A' for Active; 'I' for Inactive)
    1  A    between atoms: C_1  and  C_45
    2  A    between atoms: C_1  and  C_46
    3  A    between atoms: C_2  and  C_14
    4  A    between atoms: C_2  and  C_46
    5  A    between atoms: C_5  and  O_8
    6  A    between atoms: C_5  and  C_24
    7  A    between atoms: O_8  and  C_44
    8  A    between atoms: C_9  and  C_23
    9  A    between atoms: C_9  and  C_35
   10  A    between atoms: C_9  and  C_47
   11  A    between atoms: C_11  and  C_23
   12  A    between atoms: O_12  and  C_29
   13  A    between atoms: O_12  and  C_51
   14  A    between atoms: C_14  and  C_36
   15  A    between atoms: N_16  and  C_24
   16  A    between atoms: C_17  and  C_18
   17  A    between atoms: C_17  and  C_40
   18  A    between atoms: C_19  and  C_34
   19  A    between atoms: C_19  and  C_36
   20  A    between atoms: C_22  and  C_47
   21  A    between atoms: C_26  and  C_29
   22  A    between atoms: C_43  and  C_45
   23  A    between atoms: C_44  and  C_48
   24  A    between atoms: C_48  and  C_49
                            x       y       z     vdW  Elec       q    Type
                         _______ _______ _______ _____ _____    ______ ____

>  <TORSDO>
F 24

$$$$
=
 OpenBabel11042420183D

 51 53  0  0  1  0  0  0  0  0999 V2000
  161.3200  204.3610  147.3960 C   0  0  0  0  0  0  0  0  0  0  0  0
  161.6930  206.2110  145.9630 O   0  0  0  0  0  0  0  0  0  0  0  0
  161.4940  205.7990  147.1370 C   0  0  0  0  0  0  0  0  0  0  0  0
  160.7730  204.4490  151.1430 N   0  0  0  0  0  2  0  0  0  0  0  0
  161.3980  206.7960  148.2610 C   0  0  1  0  0  3  0  0  0  0  0  0
  161.0740  203.9220  148.7060 C   0  0  0  0  0  0  0  0  0  0  0  0
  161.3880  203.4280  146.3500 C   0  0  0  0  0  3  0  0  0  0  0  0
  161.2080  202.0660  146.6060 C   0  0  0  0  0  3  0  0  0  0  0  0
  160.9600  201.6290  147.9100 C   0  0  0  0  0  3  0  0  0  0  0  0
  161.1560  206.1730  149.5730 N   0  0  0  0  0  0  0  0  0  0  0  0
  161.0040  204.9010  149.8050 C   0  0  0  0  0  0  0  0  0  0  0  0
  160.8950  202.5520  148.9570 C   0  0  0  0  0  3  0  0  0  0  0  0
  160.6500  205.3610  152.2650 C   0  0  0  0  0  2  0  0  0  0  0  0
  162.0240  205.7510  152.7710 C   0  0  0  0  0  2  0  0  0  0  0  0
  162.2980  207.0780  152.4270 O   0  0  0  0  0  0  0  0  0  0  0  0
  161.0530  207.7140  152.4270 C   0  0  0  0  0  2  0  0  0  0  0  0
  161.2130  209.1960  152.7370 C   0  0  0  0  0  2  0  0  0  0  0  0
  159.6920  210.5660  154.2390 C   0  0  0  0  0  0  0  0  0  0  0  0
  161.0530  208.7970  155.1930 C   0  0  0  0  0  3  0  0  0  0  0  0
  159.5920  210.1020  156.6180 C   0  0  0  0  0  3  0  0  0  0  0  0
  160.5330  209.0800  156.4600 C   0  0  0  0  0  3  0  0  0  0  0  0
  159.1720  210.8410  155.5100 C   0  0  0  0  0  3  0  0  0  0  0  0
  160.6390  209.5350  154.0780 C   0  0  0  0  0  0  0  0  0  0  0  0
  159.1970  211.3580  153.0750 C   0  0  0  0  0  2  0  0  0  0  0  0
  158.0030  211.9960  153.4110 O   0  0  0  0  0  0  0  0  0  0  0  0
  156.7730  213.9380  152.7960 C   0  0  0  0  0  1  0  0  0  0  0  0
  158.1360  213.2870  152.9040 C   0  0  0  0  0  2  0  0  0  0  0  0
  162.6530  207.6570  148.3120 C   0  0  0  0  0  2  0  0  0  0  0  0
  162.0290  210.2180  148.7380 C   0  0  0  0  0  0  0  0  0  0  0  0
  162.3060  209.0650  148.5270 C   0  0  0  0  0  0  0  0  0  0  0  0
  161.7110  211.6240  149.0330 C   0  0  0  0  0  2  0  0  0  0  0  0
  161.1320  212.3510  147.8180 C   0  0  2  0  0  3  0  0  0  0  0  0
  161.5710  213.2970  144.3660 C   0  0  0  0  0  3  0  0  0  0  0  0
  162.1930  212.6350  146.8060 C   0  0  0  0  0  3  0  0  0  0  0  0
  161.8760  212.9630  145.5860 C   0  0  0  0  0  0  0  0  0  0  0  0
  162.6520  213.5570  143.3760 C   0  0  0  0  0  2  0  0  0  0  0  0
  162.0750  213.7240  141.9800 C   0  0  0  0  0  2  0  0  0  0  0  0
  161.1400  212.5690  141.6340 C   0  0  0  0  0  2  0  0  0  0  0  0
  161.4590  211.9320  140.2780 C   0  0  0  0  0  0  0  0  0  0  0  0
  162.6960  211.0600  140.3950 C   0  0  0  0  0  1  0  0  0  0  0  0
  161.7690  213.0350  139.2840 C   0  0  0  0  0  1  0  0  0  0  0  0
  160.2980  211.0670  139.7730 C   0  0  0  0  0  2  0  0  0  0  0  0
  159.0550  211.8730  139.3950 C   0  0  1  0  0  3  0  0  0  0  0  0
  157.9810  210.9380  138.8720 C   0  0  0  0  0  1  0  0  0  0  0  0
  158.5210  212.6040  140.6130 C   0  0  0  0  0  2  0  0  0  0  0  0
  158.4880  214.4530  138.9710 C   0  0  0  0  0  1  0  0  0  0  0  0
  157.8110  213.8760  140.1920 C   0  0  0  0  0  2  0  0  0  0  0  0
  160.4140  213.6320  148.2320 C   0  0  0  0  0  2  0  0  0  0  0  0
  158.9620  213.3620  148.5930 C   0  0  1  0  0  3  0  0  0  0  0  0
  158.5420  214.2680  149.5700 O   0  0  0  0  0  1  0  0  0  0  0  0
  158.1000  213.5180  147.3570 C   0  0  0  0  0  1  0  0  0  0  0  0
  1  6  1  0  0  0  0
  2  3  2  0  0  0  0
  3  1  1  0  0  0  0
  3  5  1  0  0  0  0
  4 13  1  0  0  0  0
  5 28  1  1  0  0  0
  5 10  1  0  0  0  0
  6 12  2  0  0  0  0
  6 11  1  0  0  0  0
  7  8  1  0  0  0  0
  7  1  2  0  0  0  0
  8  9  2  0  0  0  0
  9 12  1  0  0  0  0
 10 11  2  0  0  0  0
 11  4  1  0  0  0  0
 13 14  1  0  0  0  0
 15 14  1  0  0  0  0
 16 15  1  0  0  0  0
 16 17  1  0  0  0  0
 17 23  1  0  0  0  0
 18 22  1  0  0  0  0
 19 21  2  0  0  0  0
 21 20  1  0  0  0  0
 22 20  2  0  0  0  0
 23 18  2  0  0  0  0
 23 19  1  0  0  0  0
 24 25  1  0  0  0  0
 24 18  1  0  0  0  0
 26 27  1  0  0  0  0
 27 25  1  0  0  0  0
 28 30  1  0  0  0  0
 29 31  1  0  0  0  0
 30 29  3  0  0  0  0
 32 34  1  6  0  0  0
 32 48  1  0  0  0  0
 32 31  1  0  0  0  0
 33 35  2  0  0  0  0
 35 34  2  0  0  0  0
 36 33  1  0  0  0  0
 37 36  1  0  0  0  0
 38 37  1  0  0  0  0
 39 40  1  0  0  0  0
 39 38  1  0  0  0  0
 41 39  1  0  0  0  0
 42 39  1  0  0  0  0
 43 44  1  1  0  0  0
 43 42  1  0  0  0  0
 43 45  1  0  0  0  0
 46 47  1  0  0  0  0
 47 45  1  0  0  0  0
 48 49  1  0  0  0  0
 49 51  1  6  0  0  0
 49 50  1  0  0  0  0
M  END
>  <MODEL>
3

>  <REMARK>
 VINA RESULT:      -6.0      1.194      2.432
  Name = 
  24 active torsions:
  status: ('A' for Active; 'I' for Inactive)
    1  A    between atoms: C_1  and  C_45
    2  A    between atoms: C_1  and  C_46
    3  A    between atoms: C_2  and  C_14
    4  A    between atoms: C_2  and  C_46
    5  A    between atoms: C_5  and  O_8
    6  A    between atoms: C_5  and  C_24
    7  A    between atoms: O_8  and  C_44
    8  A    between atoms: C_9  and  C_23
    9  A    between atoms: C_9  and  C_35
   10  A    between atoms: C_9  and  C_47
   11  A    between atoms: C_11  and  C_23
   12  A    between atoms: O_12  and  C_29
   13  A    between atoms: O_12  and  C_51
   14  A    between atoms: C_14  and  C_36
   15  A    between atoms: N_16  and  C_24
   16  A    between atoms: C_17  and  C_18
   17  A    between atoms: C_17  and  C_40
   18  A    between atoms: C_19  and  C_34
   19  A    between atoms: C_19  and  C_36
   20  A    between atoms: C_22  and  C_47
   21  A    between atoms: C_26  and  C_29
   22  A    between atoms: C_43  and  C_45
   23  A    between atoms: C_44  and  C_48
   24  A    between atoms: C_48  and  C_49
                            x       y       z     vdW  Elec       q    Type
                         _______ _______ _______ _____ _____    ______ ____

>  <TORSDO>
F 24

$$$$
=
 OpenBabel11042420183D

 51 53  0  0  1  0  0  0  0  0999 V2000
  161.1240  204.4520  148.7320 C   0  0  0  0  0  0  0  0  0  0  0  0
  161.3140  205.6400  146.6900 O   0  0  0  0  0  0  0  0  0  0  0  0
  161.2350  205.6920  147.9470 C   0  0  0  0  0  0  0  0  0  0  0  0
  160.9230  205.9210  152.2170 N   0  0  0  0  0  2  0  0  0  0  0  0
  161.2180  207.0340  148.6290 C   0  0  1  0  0  3  0  0  0  0  0  0
  161.0110  204.5290  150.1280 C   0  0  0  0  0  0  0  0  0  0  0  0
  161.1190  203.1990  148.1000 C   0  0  0  0  0  3  0  0  0  0  0  0
  161.0000  202.0290  148.8560 C   0  0  0  0  0  3  0  0  0  0  0  0
  160.8840  202.1060  150.2470 C   0  0  0  0  0  3  0  0  0  0  0  0
  161.1140  206.9410  150.0940 N   0  0  0  0  0  0  0  0  0  0  0  0
  161.0180  205.8460  150.7910 C   0  0  0  0  0  0  0  0  0  0  0  0
  160.8920  203.3510  150.8810 C   0  0  0  0  0  3  0  0  0  0  0  0
  160.8800  207.1840  152.9310 C   0  0  0  0  0  2  0  0  0  0  0  0
  161.8480  208.1670  152.3060 C   0  0  0  0  0  2  0  0  0  0  0  0
  161.4190  209.4750  152.5480 O   0  0  0  0  0  0  0  0  0  0  0  0
  160.8870  209.4460  153.8400 C   0  0  0  0  0  2  0  0  0  0  0  0
  159.7560  210.4570  153.9720 C   0  0  0  0  0  2  0  0  0  0  0  0
  159.5180  212.7360  155.0680 C   0  0  0  0  0  0  0  0  0  0  0  0
  160.7640  210.9810  156.1920 C   0  0  0  0  0  3  0  0  0  0  0  0
  160.5250  213.1550  157.2350 C   0  0  0  0  0  3  0  0  0  0  0  0
  161.0200  211.8470  157.2600 C   0  0  0  0  0  3  0  0  0  0  0  0
  159.7750  213.5960  156.1430 C   0  0  0  0  0  3  0  0  0  0  0  0
  160.0150  211.4160  155.0930 C   0  0  0  0  0  0  0  0  0  0  0  0
  158.6890  213.2340  153.9320 C   0  0  0  0  0  2  0  0  0  0  0  0
  157.5570  213.8850  154.4240 O   0  0  0  0  0  0  0  0  0  0  0  0
  155.9490  212.6330  155.6510 C   0  0  0  0  0  1  0  0  0  0  0  0
  156.5270  212.9560  154.2890 C   0  0  0  0  0  2  0  0  0  0  0  0
  162.4490  207.8410  148.2400 C   0  0  0  0  0  2  0  0  0  0  0  0
  162.1140  210.4180  148.8550 C   0  0  0  0  0  0  0  0  0  0  0  0
  162.2610  209.2590  148.5590 C   0  0  0  0  0  0  0  0  0  0  0  0
  161.9560  211.8250  149.2540 C   0  0  0  0  0  2  0  0  0  0  0  0
  161.4180  212.6900  148.1130 C   0  0  2  0  0  3  0  0  0  0  0  0
  161.4830  213.2630  144.5530 C   0  0  0  0  0  3  0  0  0  0  0  0
  162.3390  212.6610  146.9370 C   0  0  0  0  0  3  0  0  0  0  0  0
  161.9040  212.9600  145.7470 C   0  0  0  0  0  0  0  0  0  0  0  0
  162.4210  213.2080  143.3990 C   0  0  0  0  0  2  0  0  0  0  0  0
  161.6630  213.0050  142.0970 C   0  0  0  0  0  2  0  0  0  0  0  0
  162.0840  211.7050  141.4170 C   0  0  0  0  0  2  0  0  0  0  0  0
  161.8980  211.7430  139.8980 C   0  0  0  0  0  0  0  0  0  0  0  0
  163.1720  211.2840  139.2100 C   0  0  0  0  0  1  0  0  0  0  0  0
  161.6400  213.1760  139.4750 C   0  0  0  0  0  1  0  0  0  0  0  0
  160.7470  210.8360  139.4470 C   0  0  0  0  0  2  0  0  0  0  0  0
  159.6840  211.5620  138.6220 C   0  0  1  0  0  3  0  0  0  0  0  0
  159.8680  211.2350  137.1520 C   0  0  0  0  0  1  0  0  0  0  0  0
  158.3000  211.1190  139.0570 C   0  0  0  0  0  2  0  0  0  0  0  0
  156.5120  209.9840  137.7810 C   0  0  0  0  0  1  0  0  0  0  0  0
  157.9080  209.8420  138.3400 C   0  0  0  0  0  2  0  0  0  0  0  0
  161.1690  214.1220  148.5770 C   0  0  0  0  0  2  0  0  0  0  0  0
  159.7540  214.2940  149.1060 C   0  0  1  0  0  3  0  0  0  0  0  0
  158.9060  213.3650  148.4990 O   0  0  0  0  0  1  0  0  0  0  0  0
  159.7490  214.0770  150.6060 C   0  0  0  0  0  1  0  0  0  0  0  0
  1  6  1  0  0  0  0
  2  3  2  0  0  0  0
  3  5  1  0  0  0  0
  3  1  1  0  0  0  0
  4 13  1  0  0  0  0
  5 28  1  1  0  0  0
  5 10  1  0  0  0  0
  6 11  1  0  0  0  0
  6 12  2  0  0  0  0
  7  1  2  0  0  0  0
  7  8  1  0  0  0  0
  8  9  2  0  0  0  0
  9 12  1  0  0  0  0
 10 11  2  0  0  0  0
 11  4  1  0  0  0  0
 14 15  1  0  0  0  0
 14 13  1  0  0  0  0
 15 16  1  0  0  0  0
 16 17  1  0  0  0  0
 17 23  1  0  0  0  0
 18 23  2  0  0  0  0
 18 22  1  0  0  0  0
 19 21  2  0  0  0  0
 20 21  1  0  0  0  0
 22 20  2  0  0  0  0
 23 19  1  0  0  0  0
 24 25  1  0  0  0  0
 24 18  1  0  0  0  0
 27 25  1  0  0  0  0
 27 26  1  0  0  0  0
 28 30  1  0  0  0  0
 29 31  1  0  0  0  0
 30 29  3  0  0  0  0
 32 34  1  6  0  0  0
 32 48  1  0  0  0  0
 32 31  1  0  0  0  0
 33 35  2  0  0  0  0
 35 34  2  0  0  0  0
 36 33  1  0  0  0  0
 37 36  1  0  0  0  0
 38 37  1  0  0  0  0
 39 38  1  0  0  0  0
 40 39  1  0  0  0  0
 41 39  1  0  0  0  0
 42 39  1  0  0  0  0
 43 44  1  6  0  0  0
 43 45  1  0  0  0  0
 43 42  1  0  0  0  0
 46 47  1  0  0  0  0
 47 45  1  0  0  0  0
 48 49  1  0  0  0  0
 49 51  1  1  0  0  0
 50 49  1  0  0  0  0
M  END
>  <MODEL>
4

>  <REMARK>
 VINA RESULT:      -6.0      1.606      2.596
  Name = 
  24 active torsions:
  status: ('A' for Active; 'I' for Inactive)
    1  A    between atoms: C_1  and  C_45
    2  A    between atoms: C_1  and  C_46
    3  A    between atoms: C_2  and  C_14
    4  A    between atoms: C_2  and  C_46
    5  A    between atoms: C_5  and  O_8
    6  A    between atoms: C_5  and  C_24
    7  A    between atoms: O_8  and  C_44
    8  A    between atoms: C_9  and  C_23
    9  A    between atoms: C_9  and  C_35
   10  A    between atoms: C_9  and  C_47
   11  A    between atoms: C_11  and  C_23
   12  A    between atoms: O_12  and  C_29
   13  A    between atoms: O_12  and  C_51
   14  A    between atoms: C_14  and  C_36
   15  A    between atoms: N_16  and  C_24
   16  A    between atoms: C_17  and  C_18
   17  A    between atoms: C_17  and  C_40
   18  A    between atoms: C_19  and  C_34
   19  A    between atoms: C_19  and  C_36
   20  A    between atoms: C_22  and  C_47
   21  A    between atoms: C_26  and  C_29
   22  A    between atoms: C_43  and  C_45
   23  A    between atoms: C_44  and  C_48
   24  A    between atoms: C_48  and  C_49
                            x       y       z     vdW  Elec       q    Type
                         _______ _______ _______ _____ _____    ______ ____

>  <TORSDO>
F 24

$$$$
=
 OpenBabel11042420183D

 51 53  0  0  1  0  0  0  0  0999 V2000
  161.2280  208.6760  153.1200 C   0  0  0  0  0  0  0  0  0  0  0  0
  161.1030  210.9230  153.8650 O   0  0  0  0  0  0  0  0  0  0  0  0
  161.2740  210.1310  152.8990 C   0  0  0  0  0  0  0  0  0  0  0  0
  161.9050  207.4740  149.5930 N   0  0  0  0  0  2  0  0  0  0  0  0
  161.5610  210.6880  151.5310 C   0  0  1  0  0  3  0  0  0  0  0  0
  161.4450  207.8090  152.0390 C   0  0  0  0  0  0  0  0  0  0  0  0
  160.9800  208.1510  154.3970 C   0  0  0  0  0  3  0  0  0  0  0  0
  160.9530  206.7680  154.5970 C   0  0  0  0  0  3  0  0  0  0  0  0
  161.1730  205.9030  153.5210 C   0  0  0  0  0  3  0  0  0  0  0  0
  161.7450  209.6480  150.5050 N   0  0  0  0  0  0  0  0  0  0  0  0
  161.7040  208.3610  150.6970 C   0  0  0  0  0  0  0  0  0  0  0  0
  161.4160  206.4210  152.2470 C   0  0  0  0  0  3  0  0  0  0  0  0
  162.2060  207.9490  148.2550 C   0  0  0  0  0  2  0  0  0  0  0  0
  161.6640  206.9800  147.2250 C   0  0  0  0  0  2  0  0  0  0  0  0
  162.5920  205.9600  146.9980 O   0  0  0  0  0  0  0  0  0  0  0  0
  161.8540  204.9240  146.4170 C   0  0  0  0  0  2  0  0  0  0  0  0
  161.5190  203.8620  147.4550 C   0  0  0  0  0  2  0  0  0  0  0  0
  161.3610  201.3270  147.4480 C   0  0  0  0  0  0  0  0  0  0  0  0
  160.5880  202.5890  145.5240 C   0  0  0  0  0  3  0  0  0  0  0  0
  160.4310  200.1710  145.5280 C   0  0  0  0  0  3  0  0  0  0  0  0
  160.2280  201.3970  144.8870 C   0  0  0  0  0  3  0  0  0  0  0  0
  160.9940  200.1380  146.8060 C   0  0  0  0  0  3  0  0  0  0  0  0
  161.1550  202.5640  146.8030 C   0  0  0  0  0  0  0  0  0  0  0  0
  161.9330  201.2530  148.8240 C   0  0  0  0  0  2  0  0  0  0  0  0
  160.9910  200.7120  149.6980 O   0  0  0  0  0  0  0  0  0  0  0  0
  160.7140  202.8200  150.7670 C   0  0  0  0  0  1  0  0  0  0  0  0
  160.0770  201.7420  149.9160 C   0  0  0  0  0  2  0  0  0  0  0  0
  160.4600  211.6510  151.1090 C   0  0  0  0  0  2  0  0  0  0  0  0
  161.2820  213.2120  149.1040 C   0  0  0  0  0  0  0  0  0  0  0  0
  160.9190  212.5200  150.0220 C   0  0  0  0  0  0  0  0  0  0  0  0
  161.6980  214.0350  147.9590 C   0  0  0  0  0  2  0  0  0  0  0  0
  160.8180  213.8000  146.7300 C   0  0  2  0  0  3  0  0  0  0  0  0
  161.9130  212.7040  143.4740 C   0  0  0  0  0  3  0  0  0  0  0  0
  161.4860  214.2960  145.4890 C   0  0  0  0  0  3  0  0  0  0  0  0
  161.6990  213.4940  144.4860 C   0  0  0  0  0  0  0  0  0  0  0  0
  162.5960  213.2240  142.2580 C   0  0  0  0  0  2  0  0  0  0  0  0
  161.6300  213.2940  141.0860 C   0  0  0  0  0  2  0  0  0  0  0  0
  160.7040  212.0810  141.0680 C   0  0  0  0  0  2  0  0  0  0  0  0
  160.7700  211.3030  139.7500 C   0  0  0  0  0  0  0  0  0  0  0  0
  161.9360  210.3320  139.7800 C   0  0  0  0  0  1  0  0  0  0  0  0
  161.0190  212.2830  138.6190 C   0  0  0  0  0  1  0  0  0  0  0  0
  159.4820  210.5100  139.4980 C   0  0  0  0  0  2  0  0  0  0  0  0
  158.6430  211.0590  138.3430 C   0  0  1  0  0  3  0  0  0  0  0  0
  158.5950  210.0400  137.2200 C   0  0  0  0  0  1  0  0  0  0  0  0
  157.2290  211.3380  138.8160 C   0  0  0  0  0  2  0  0  0  0  0  0
  155.0030  210.3190  139.1600 C   0  0  0  0  0  1  0  0  0  0  0  0
  156.4810  210.0370  139.0340 C   0  0  0  0  0  2  0  0  0  0  0  0
  159.4440  214.4400  146.9040 C   0  0  0  0  0  2  0  0  0  0  0  0
  158.3310  213.4670  146.5470 C   0  0  1  0  0  3  0  0  0  0  0  0
  158.8720  212.2050  146.2870 O   0  0  0  0  0  1  0  0  0  0  0  0
  157.3580  213.3690  147.7040 C   0  0  0  0  0  1  0  0  0  0  0  0
  1  7  1  0  0  0  0
  3  1  1  0  0  0  0
  3  2  2  0  0  0  0
  4 11  1  0  0  0  0
  5 28  1  6  0  0  0
  5  3  1  0  0  0  0
  6 12  1  0  0  0  0
  6  1  2  0  0  0  0
  7  8  2  0  0  0  0
  9  8  1  0  0  0  0
 10 11  2  0  0  0  0
 10  5  1  0  0  0  0
 11  6  1  0  0  0  0
 12  9  2  0  0  0  0
 13  4  1  0  0  0  0
 14 13  1  0  0  0  0
 15 14  1  0  0  0  0
 16 15  1  0  0  0  0
 16 17  1  0  0  0  0
 18 24  1  0  0  0  0
 19 23  1  0  0  0  0
 20 22  2  0  0  0  0
 21 19  2  0  0  0  0
 21 20  1  0  0  0  0
 22 18  1  0  0  0  0
 23 18  2  0  0  0  0
 23 17  1  0  0  0  0
 24 25  1  0  0  0  0
 25 27  1  0  0  0  0
 27 26  1  0  0  0  0
 29 30  3  0  0  0  0
 30 28  1  0  0  0  0
 31 29  1  0  0  0  0
 32 34  1  6  0  0  0
 32 48  1  0  0  0  0
 32 31  1  0  0  0  0
 33 35  2  0  0  0  0
 35 34  2  0  0  0  0
 36 33  1  0  0  0  0
 37 36  1  0  0  0  0
 38 37  1  0  0  0  0
 39 40  1  0  0  0  0
 39 38  1  0  0  0  0
 41 39  1  0  0  0  0
 42 39  1  0  0  0  0
 43 44  1  6  0  0  0
 43 45  1  0  0  0  0
 43 42  1  0  0  0  0
 45 47  1  0  0  0  0
 47 46  1  0  0  0  0
 49 48  1  0  0  0  0
 49 51  1  1  0  0  0
 50 49  1  0  0  0  0
M  END
>  <MODEL>
5

>  <REMARK>
 VINA RESULT:      -5.9      1.897      6.600
  Name = 
  24 active torsions:
  status: ('A' for Active; 'I' for Inactive)
    1  A    between atoms: C_1  and  C_45
    2  A    between atoms: C_1  and  C_46
    3  A    between atoms: C_2  and  C_14
    4  A    between atoms: C_2  and  C_46
    5  A    between atoms: C_5  and  O_8
    6  A    between atoms: C_5  and  C_24
    7  A    between atoms: O_8  and  C_44
    8  A    between atoms: C_9  and  C_23
    9  A    between atoms: C_9  and  C_35
   10  A    between atoms: C_9  and  C_47
   11  A    between atoms: C_11  and  C_23
   12  A    between atoms: O_12  and  C_29
   13  A    between atoms: O_12  and  C_51
   14  A    between atoms: C_14  and  C_36
   15  A    between atoms: N_16  and  C_24
   16  A    between atoms: C_17  and  C_18
   17  A    between atoms: C_17  and  C_40
   18  A    between atoms: C_19  and  C_34
   19  A    between atoms: C_19  and  C_36
   20  A    between atoms: C_22  and  C_47
   21  A    between atoms: C_26  and  C_29
   22  A    between atoms: C_43  and  C_45
   23  A    between atoms: C_44  and  C_48
   24  A    between atoms: C_48  and  C_49
                            x       y       z     vdW  Elec       q    Type
                         _______ _______ _______ _____ _____    ______ ____

>  <TORSDO>
F 24

$$$$
=
 OpenBabel11042420183D

 51 53  0  0  1  0  0  0  0  0999 V2000
  161.3810  205.6040  146.9800 C   0  0  0  0  0  0  0  0  0  0  0  0
  161.5840  207.9650  146.9190 O   0  0  0  0  0  0  0  0  0  0  0  0
  161.3680  206.9340  147.6110 C   0  0  0  0  0  0  0  0  0  0  0  0
  160.5810  203.4580  149.9960 N   0  0  0  0  0  2  0  0  0  0  0  0
  161.0600  207.0820  149.0770 C   0  0  1  0  0  3  0  0  0  0  0  0
  161.1130  204.4690  147.7590 C   0  0  0  0  0  0  0  0  0  0  0  0
  161.6480  205.4620  145.6090 C   0  0  0  0  0  3  0  0  0  0  0  0
  161.6440  204.1950  145.0190 C   0  0  0  0  0  3  0  0  0  0  0  0
  161.3740  203.0640  145.7950 C   0  0  0  0  0  3  0  0  0  0  0  0
  160.8220  205.7970  149.7540 N   0  0  0  0  0  0  0  0  0  0  0  0
  160.8340  204.6200  149.2000 C   0  0  0  0  0  0  0  0  0  0  0  0
  161.1120  203.2000  147.1600 C   0  0  0  0  0  3  0  0  0  0  0  0
  160.2580  203.5370  151.4090 C   0  0  0  0  0  2  0  0  0  0  0  0
  161.5130  203.8000  152.2160 C   0  0  0  0  0  2  0  0  0  0  0  0
  161.8290  205.1610  152.1740 O   0  0  0  0  0  0  0  0  0  0  0  0
  161.4500  205.6560  153.4260 C   0  0  0  0  0  2  0  0  0  0  0  0
  161.5610  207.1740  153.4530 C   0  0  0  0  0  2  0  0  0  0  0  0
  160.7710  209.1120  154.8920 C   0  0  0  0  0  0  0  0  0  0  0  0
  160.7530  206.8580  155.7910 C   0  0  0  0  0  3  0  0  0  0  0  0
  159.9920  208.7100  157.1540 C   0  0  0  0  0  3  0  0  0  0  0  0
  160.2420  207.3430  156.9990 C   0  0  0  0  0  3  0  0  0  0  0  0
  160.2550  209.5900  156.1030 C   0  0  0  0  0  3  0  0  0  0  0  0
  161.0210  207.7340  154.7330 C   0  0  0  0  0  0  0  0  0  0  0  0
  161.0120  210.0800  153.7820 C   0  0  0  0  0  2  0  0  0  0  0  0
  159.8760  210.1660  152.9770 O   0  0  0  0  0  0  0  0  0  0  0  0
  159.1760  212.4040  153.3820 C   0  0  0  0  0  1  0  0  0  0  0  0
  159.9090  211.4570  152.4540 C   0  0  0  0  0  2  0  0  0  0  0  0
  162.1740  207.8460  149.7780 C   0  0  0  0  0  2  0  0  0  0  0  0
  161.8540  210.4850  149.5220 C   0  0  0  0  0  0  0  0  0  0  0  0
  161.9910  209.2910  149.6190 C   0  0  0  0  0  0  0  0  0  0  0  0
  161.7130  211.9460  149.4360 C   0  0  0  0  0  2  0  0  0  0  0  0
  160.9220  212.3770  148.2000 C   0  0  2  0  0  3  0  0  0  0  0  0
  161.0340  213.4530  144.7600 C   0  0  0  0  0  3  0  0  0  0  0  0
  161.7550  212.2710  146.9640 C   0  0  0  0  0  3  0  0  0  0  0  0
  161.3880  212.8620  145.8640 C   0  0  0  0  0  0  0  0  0  0  0  0
  161.8770  213.3130  143.5410 C   0  0  0  0  0  2  0  0  0  0  0  0
  161.3130  214.1410  142.3980 C   0  0  0  0  0  2  0  0  0  0  0  0
  160.1320  213.4320  141.7410 C   0  0  0  0  0  2  0  0  0  0  0  0
  160.3540  213.1680  140.2480 C   0  0  0  0  0  0  0  0  0  0  0  0
  160.7900  214.4480  139.5570 C   0  0  0  0  0  1  0  0  0  0  0  0
  159.0370  212.7400  139.6300 C   0  0  0  0  0  1  0  0  0  0  0  0
  161.4270  212.0990  140.0170 C   0  0  0  0  0  2  0  0  0  0  0  0
  161.2720  211.3550  138.6900 C   0  0  1  0  0  3  0  0  0  0  0  0
  162.2260  211.9390  137.6640 C   0  0  0  0  0  1  0  0  0  0  0  0
  161.5920  209.8850  138.8790 C   0  0  0  0  0  2  0  0  0  0  0  0
  159.3510  209.8140  137.8380 C   0  0  0  0  0  1  0  0  0  0  0  0
  160.3470  209.0450  138.6730 C   0  0  0  0  0  2  0  0  0  0  0  0
  160.3660  213.7890  148.3650 C   0  0  0  0  0  2  0  0  0  0  0  0
  158.8460  213.7870  148.3830 C   0  0  1  0  0  3  0  0  0  0  0  0
  158.3650  212.7770  147.5450 O   0  0  0  0  0  1  0  0  0  0  0  0
  158.3600  213.5430  149.7970 C   0  0  0  0  0  1  0  0  0  0  0  0
  1  3  1  0  0  0  0
  1  6  1  0  0  0  0
  2  3  2  0  0  0  0
  3  5  1  0  0  0  0
  4 13  1  0  0  0  0
  5 10  1  0  0  0  0
  5 28  1  1  0  0  0
  6 11  1  0  0  0  0
  7  1  2  0  0  0  0
  8  7  1  0  0  0  0
  8  9  2  0  0  0  0
  9 12  1  0  0  0  0
 11 10  2  0  0  0  0
 11  4  1  0  0  0  0
 12  6  2  0  0  0  0
 13 14  1  0  0  0  0
 15 14  1  0  0  0  0
 15 16  1  0  0  0  0
 16 17  1  0  0  0  0
 17 23  1  0  0  0  0
 18 22  1  0  0  0  0
 19 21  2  0  0  0  0
 21 20  1  0  0  0  0
 22 20  2  0  0  0  0
 23 18  2  0  0  0  0
 23 19  1  0  0  0  0
 24 18  1  0  0  0  0
 25 24  1  0  0  0  0
 27 25  1  0  0  0  0
 27 26  1  0  0  0  0
 29 30  3  0  0  0  0
 30 28  1  0  0  0  0
 31 29  1  0  0  0  0
 32 34  1  6  0  0  0
 32 48  1  0  0  0  0
 32 31  1  0  0  0  0
 33 35  2  0  0  0  0
 35 34  2  0  0  0  0
 36 33  1  0  0  0  0
 37 36  1  0  0  0  0
 38 37  1  0  0  0  0
 39 38  1  0  0  0  0
 40 39  1  0  0  0  0
 41 39  1  0  0  0  0
 42 39  1  0  0  0  0
 43 44  1  6  0  0  0
 43 45  1  0  0  0  0
 43 42  1  0  0  0  0
 46 47  1  0  0  0  0
 47 45  1  0  0  0  0
 48 49  1  0  0  0  0
 49 51  1  1  0  0  0
 50 49  1  0  0  0  0
M  END
>  <MODEL>
6

>  <REMARK>
 VINA RESULT:      -5.2      1.410      2.696
  Name = 
  24 active torsions:
  status: ('A' for Active; 'I' for Inactive)
    1  A    between atoms: C_1  and  C_45
    2  A    between atoms: C_1  and  C_46
    3  A    between atoms: C_2  and  C_14
    4  A    between atoms: C_2  and  C_46
    5  A    between atoms: C_5  and  O_8
    6  A    between atoms: C_5  and  C_24
    7  A    between atoms: O_8  and  C_44
    8  A    between atoms: C_9  and  C_23
    9  A    between atoms: C_9  and  C_35
   10  A    between atoms: C_9  and  C_47
   11  A    between atoms: C_11  and  C_23
   12  A    between atoms: O_12  and  C_29
   13  A    between atoms: O_12  and  C_51
   14  A    between atoms: C_14  and  C_36
   15  A    between atoms: N_16  and  C_24
   16  A    between atoms: C_17  and  C_18
   17  A    between atoms: C_17  and  C_40
   18  A    between atoms: C_19  and  C_34
   19  A    between atoms: C_19  and  C_36
   20  A    between atoms: C_22  and  C_47
   21  A    between atoms: C_26  and  C_29
   22  A    between atoms: C_43  and  C_45
   23  A    between atoms: C_44  and  C_48
   24  A    between atoms: C_48  and  C_49
                            x       y       z     vdW  Elec       q    Type
                         _______ _______ _______ _____ _____    ______ ____

>  <TORSDO>
F 24

$$$$
=
 OpenBabel11042420183D

 51 53  0  0  1  0  0  0  0  0999 V2000
  160.7980  205.0880  150.2160 C   0  0  0  0  0  0  0  0  0  0  0  0
  160.3870  205.4760  147.9140 O   0  0  0  0  0  0  0  0  0  0  0  0
  160.6610  205.9660  149.0430 C   0  0  0  0  0  0  0  0  0  0  0  0
  161.5480  207.6820  152.8710 N   0  0  0  0  0  2  0  0  0  0  0  0
  160.8080  207.4580  149.1820 C   0  0  1  0  0  3  0  0  0  0  0  0
  161.0780  205.6520  151.4690 C   0  0  0  0  0  0  0  0  0  0  0  0
  160.6430  203.6980  150.0950 C   0  0  0  0  0  3  0  0  0  0  0  0
  160.7620  202.8760  151.2190 C   0  0  0  0  0  3  0  0  0  0  0  0
  161.0370  203.4380  152.4690 C   0  0  0  0  0  3  0  0  0  0  0  0
  161.1190  207.8860  150.5560 N   0  0  0  0  0  0  0  0  0  0  0  0
  161.2430  207.1120  151.5950 C   0  0  0  0  0  0  0  0  0  0  0  0
  161.1970  204.8210  152.5940 C   0  0  0  0  0  3  0  0  0  0  0  0
  161.6810  209.1130  153.0740 C   0  0  0  0  0  2  0  0  0  0  0  0
  160.3320  209.7210  153.3940 C   0  0  0  0  0  2  0  0  0  0  0  0
  160.4480  211.1100  153.4950 O   0  0  0  0  0  0  0  0  0  0  0  0
  159.4380  211.6170  152.6720 C   0  0  0  0  0  2  0  0  0  0  0  0
  159.8990  212.8970  151.9890 C   0  0  0  0  0  2  0  0  0  0  0  0
  159.2570  213.4350  149.5920 C   0  0  0  0  0  0  0  0  0  0  0  0
  157.6150  213.6760  151.3630 C   0  0  0  0  0  3  0  0  0  0  0  0
  157.0070  214.1780  149.0720 C   0  0  0  0  0  3  0  0  0  0  0  0
  156.6640  214.0920  150.4250 C   0  0  0  0  0  3  0  0  0  0  0  0
  158.2990  213.8480  148.6580 C   0  0  0  0  0  3  0  0  0  0  0  0
  158.9120  213.3460  150.9560 C   0  0  0  0  0  0  0  0  0  0  0  0
  160.6180  213.0630  149.1070 C   0  0  0  0  0  2  0  0  0  0  0  0
  161.2740  214.1960  148.6250 O   0  0  0  0  0  0  0  0  0  0  0  0
  163.0360  212.9230  147.6580 C   0  0  0  0  0  1  0  0  0  0  0  0
  161.8240  213.7970  147.4090 C   0  0  0  0  0  2  0  0  0  0  0  0
  161.8650  207.9780  148.2180 C   0  0  0  0  0  2  0  0  0  0  0  0
  162.6390  206.0680  146.5210 C   0  0  0  0  0  0  0  0  0  0  0  0
  162.2720  206.9300  147.2790 C   0  0  0  0  0  0  0  0  0  0  0  0
  163.1200  205.0080  145.6220 C   0  0  0  0  0  2  0  0  0  0  0  0
  161.9710  204.2760  144.9260 C   0  0  2  0  0  3  0  0  0  0  0  0
  162.0950  206.0900  141.8120 C   0  0  0  0  0  3  0  0  0  0  0  0
  161.1710  205.2140  144.0820 C   0  0  0  0  0  3  0  0  0  0  0  0
  161.6400  205.6510  142.9490 C   0  0  0  0  0  0  0  0  0  0  0  0
  161.2800  207.0360  141.0020 C   0  0  0  0  0  2  0  0  0  0  0  0
  162.1630  207.8420  140.0640 C   0  0  0  0  0  2  0  0  0  0  0  0
  161.4250  209.0700  139.5390 C   0  0  0  0  0  2  0  0  0  0  0  0
  161.7060  209.3460  138.0590 C   0  0  0  0  0  0  0  0  0  0  0  0
  160.4210  209.7400  137.3530 C   0  0  0  0  0  1  0  0  0  0  0  0
  162.2090  208.0680  137.4140 C   0  0  0  0  0  1  0  0  0  0  0  0
  162.7280  210.4740  137.8790 C   0  0  0  0  0  2  0  0  0  0  0  0
  162.8750  211.3670  139.1120 C   0  0  1  0  0  3  0  0  0  0  0  0
  164.1990  212.1060  139.0510 C   0  0  0  0  0  1  0  0  0  0  0  0
  161.7470  212.3800  139.1560 C   0  0  0  0  0  2  0  0  0  0  0  0
  160.8240  214.3890  138.0490 C   0  0  0  0  0  1  0  0  0  0  0  0
  161.7050  213.1760  137.8660 C   0  0  0  0  0  2  0  0  0  0  0  0
  161.0840  203.5550  145.9360 C   0  0  0  0  0  2  0  0  0  0  0  0
  160.9920  202.0680  145.6300 C   0  0  1  0  0  3  0  0  0  0  0  0
  160.8520  201.3500  146.8200 O   0  0  0  0  0  1  0  0  0  0  0  0
  159.7930  201.8100  144.7410 C   0  0  0  0  0  1  0  0  0  0  0  0
  1  6  1  0  0  0  0
  2  3  2  0  0  0  0
  3  5  1  0  0  0  0
  3  1  1  0  0  0  0
  4 13  1  0  0  0  0
  5 28  1  6  0  0  0
  5 10  1  0  0  0  0
  6 11  1  0  0  0  0
  6 12  2  0  0  0  0
  7  1  2  0  0  0  0
  7  8  1  0  0  0  0
  8  9  2  0  0  0  0
  9 12  1  0  0  0  0
 10 11  2  0  0  0  0
 11  4  1  0  0  0  0
 13 14  1  0  0  0  0
 14 15  1  0  0  0  0
 16 15  1  0  0  0  0
 17 16  1  0  0  0  0
 18 23  1  0  0  0  0
 20 21  2  0  0  0  0
 21 19  1  0  0  0  0
 22 20  1  0  0  0  0
 22 18  2  0  0  0  0
 23 19  2  0  0  0  0
 23 17  1  0  0  0  0
 24 18  1  0  0  0  0
 25 24  1  0  0  0  0
 27 26  1  0  0  0  0
 27 25  1  0  0  0  0
 29 30  3  0  0  0  0
 30 28  1  0  0  0  0
 31 29  1  0  0  0  0
 32 34  1  1  0  0  0
 32 31  1  0  0  0  0
 32 48  1  0  0  0  0
 33 35  2  0  0  0  0
 35 34  2  0  0  0  0
 36 33  1  0  0  0  0
 37 36  1  0  0  0  0
 38 37  1  0  0  0  0
 39 38  1  0  0  0  0
 40 39  1  0  0  0  0
 41 39  1  0  0  0  0
 42 39  1  0  0  0  0
 42 43  1  0  0  0  0
 43 44  1  6  0  0  0
 43 45  1  0  0  0  0
 47 46  1  0  0  0  0
 47 45  1  0  0  0  0
 49 51  1  6  0  0  0
 49 48  1  0  0  0  0
 49 50  1  0  0  0  0
M  END
>  <MODEL>
7

>  <REMARK>
 VINA RESULT:      -4.5      2.399      6.304
  Name = 
  24 active torsions:
  status: ('A' for Active; 'I' for Inactive)
    1  A    between atoms: C_1  and  C_45
    2  A    between atoms: C_1  and  C_46
    3  A    between atoms: C_2  and  C_14
    4  A    between atoms: C_2  and  C_46
    5  A    between atoms: C_5  and  O_8
    6  A    between atoms: C_5  and  C_24
    7  A    between atoms: O_8  and  C_44
    8  A    between atoms: C_9  and  C_23
    9  A    between atoms: C_9  and  C_35
   10  A    between atoms: C_9  and  C_47
   11  A    between atoms: C_11  and  C_23
   12  A    between atoms: O_12  and  C_29
   13  A    between atoms: O_12  and  C_51
   14  A    between atoms: C_14  and  C_36
   15  A    between atoms: N_16  and  C_24
   16  A    between atoms: C_17  and  C_18
   17  A    between atoms: C_17  and  C_40
   18  A    between atoms: C_19  and  C_34
   19  A    between atoms: C_19  and  C_36
   20  A    between atoms: C_22  and  C_47
   21  A    between atoms: C_26  and  C_29
   22  A    between atoms: C_43  and  C_45
   23  A    between atoms: C_44  and  C_48
   24  A    between atoms: C_48  and  C_49
                            x       y       z     vdW  Elec       q    Type
                         _______ _______ _______ _____ _____    ______ ____

>  <TORSDO>
F 24

$$$$
=
 OpenBabel11042420183D

 51 53  0  0  1  0  0  0  0  0999 V2000
  160.9450  205.2060  150.4240 C   0  0  0  0  0  0  0  0  0  0  0  0
  160.6630  205.4190  148.0800 O   0  0  0  0  0  0  0  0  0  0  0  0
  160.8700  205.9940  149.1830 C   0  0  0  0  0  0  0  0  0  0  0  0
  161.5320  207.9960  152.9160 N   0  0  0  0  0  2  0  0  0  0  0  0
  161.0030  207.4930  149.2190 C   0  0  1  0  0  3  0  0  0  0  0  0
  161.1510  205.8640  151.6450 C   0  0  0  0  0  0  0  0  0  0  0  0
  160.8020  203.8100  150.3990 C   0  0  0  0  0  3  0  0  0  0  0  0
  160.8610  203.0740  151.5850 C   0  0  0  0  0  3  0  0  0  0  0  0
  161.0630  203.7300  152.8030 C   0  0  0  0  0  3  0  0  0  0  0  0
  161.2340  208.0240  150.5720 N   0  0  0  0  0  0  0  0  0  0  0  0
  161.3020  207.3300  151.6710 C   0  0  0  0  0  0  0  0  0  0  0  0
  161.2100  205.1190  152.8330 C   0  0  0  0  0  3  0  0  0  0  0  0
  161.6480  209.4400  153.0190 C   0  0  0  0  0  2  0  0  0  0  0  0
  160.4260  210.1030  152.4190 C   0  0  0  0  0  2  0  0  0  0  0  0
  160.1180  211.2660  153.1300 O   0  0  0  0  0  0  0  0  0  0  0  0
  159.5790  212.1380  152.1790 C   0  0  0  0  0  2  0  0  0  0  0  0
  159.2530  213.4820  152.8150 C   0  0  0  0  0  2  0  0  0  0  0  0
  157.0470  213.6570  154.0610 C   0  0  0  0  0  0  0  0  0  0  0  0
  157.1070  214.0120  151.6610 C   0  0  0  0  0  3  0  0  0  0  0  0
  155.0080  214.1870  152.8580 C   0  0  0  0  0  3  0  0  0  0  0  0
  155.7280  214.2450  151.6610 C   0  0  0  0  0  3  0  0  0  0  0  0
  155.6670  213.8960  154.0540 C   0  0  0  0  0  3  0  0  0  0  0  0
  157.7740  213.7180  152.8550 C   0  0  0  0  0  0  0  0  0  0  0  0
  157.7200  213.3770  155.3630 C   0  0  0  0  0  2  0  0  0  0  0  0
  157.2630  212.1660  155.8810 O   0  0  0  0  0  0  0  0  0  0  0  0
  159.4790  212.5710  156.6480 C   0  0  0  0  0  1  0  0  0  0  0  0
  158.4050  211.5380  156.3760 C   0  0  0  0  0  2  0  0  0  0  0  0
  162.1100  207.9490  148.2790 C   0  0  0  0  0  2  0  0  0  0  0  0
  162.6770  206.0580  146.4820 C   0  0  0  0  0  0  0  0  0  0  0  0
  162.4050  206.9160  147.2830 C   0  0  0  0  0  0  0  0  0  0  0  0
  163.0390  204.9960  145.5300 C   0  0  0  0  0  2  0  0  0  0  0  0
  161.8300  204.4950  144.7380 C   0  0  2  0  0  3  0  0  0  0  0  0
  162.0630  206.1070  141.5210 C   0  0  0  0  0  3  0  0  0  0  0  0
  161.2230  205.5960  143.9310 C   0  0  0  0  0  3  0  0  0  0  0  0
  161.6500  205.8490  142.7270 C   0  0  0  0  0  0  0  0  0  0  0  0
  161.4490  207.2210  140.7480 C   0  0  0  0  0  2  0  0  0  0  0  0
  162.5210  208.1150  140.1460 C   0  0  0  0  0  2  0  0  0  0  0  0
  162.0920  209.5790  140.1780 C   0  0  0  0  0  2  0  0  0  0  0  0
  161.7100  210.1170  138.7950 C   0  0  0  0  0  0  0  0  0  0  0  0
  160.3500  210.7870  138.8590 C   0  0  0  0  0  1  0  0  0  0  0  0
  161.6000  208.9490  137.8340 C   0  0  0  0  0  1  0  0  0  0  0  0
  162.7330  211.1370  138.2840 C   0  0  0  0  0  2  0  0  0  0  0  0
  163.1540  212.1610  139.3390 C   0  0  1  0  0  3  0  0  0  0  0  0
  164.4150  212.8720  138.8850 C   0  0  0  0  0  1  0  0  0  0  0  0
  162.0530  213.1860  139.5350 C   0  0  0  0  0  2  0  0  0  0  0  0
  162.5570  214.2650  141.7020 C   0  0  0  0  0  1  0  0  0  0  0  0
  161.6660  213.2690  140.9980 C   0  0  0  0  0  2  0  0  0  0  0  0
  160.7940  203.8560  145.6580 C   0  0  0  0  0  2  0  0  0  0  0  0
  161.0160  202.3570  145.7830 C   0  0  1  0  0  3  0  0  0  0  0  0
  160.7910  201.9540  147.1020 O   0  0  0  0  0  1  0  0  0  0  0  0
  160.0570  201.6280  144.8630 C   0  0  0  0  0  1  0  0  0  0  0  0
  1  6  1  0  0  0  0
  2  3  2  0  0  0  0
  3  5  1  0  0  0  0
  3  1  1  0  0  0  0
  4 13  1  0  0  0  0
  5 28  1  6  0  0  0
  5 10  1  0  0  0  0
  6 11  1  0  0  0  0
  6 12  2  0  0  0  0
  7  1  2  0  0  0  0
  7  8  1  0  0  0  0
  8  9  2  0  0  0  0
  9 12  1  0  0  0  0
 10 11  2  0  0  0  0
 11  4  1  0  0  0  0
 14 13  1  0  0  0  0
 14 15  1  0  0  0  0
 16 17  1  0  0  0  0
 16 15  1  0  0  0  0
 17 23  1  0  0  0  0
 18 24  1  0  0  0  0
 19 23  1  0  0  0  0
 20 22  2  0  0  0  0
 21 19  2  0  0  0  0
 21 20  1  0  0  0  0
 22 18  1  0  0  0  0
 23 18  2  0  0  0  0
 24 25  1  0  0  0  0
 25 27  1  0  0  0  0
 27 26  1  0  0  0  0
 29 30  3  0  0  0  0
 30 28  1  0  0  0  0
 31 29  1  0  0  0  0
 32 34  1  1  0  0  0
 32 31  1  0  0  0  0
 32 48  1  0  0  0  0
 33 35  2  0  0  0  0
 35 34  2  0  0  0  0
 36 33  1  0  0  0  0
 37 38  1  0  0  0  0
 37 36  1  0  0  0  0
 39 40  1  0  0  0  0
 39 38  1  0  0  0  0
 41 39  1  0  0  0  0
 42 39  1  0  0  0  0
 42 43  1  0  0  0  0
 43 44  1  6  0  0  0
 43 45  1  0  0  0  0
 45 47  1  0  0  0  0
 47 46  1  0  0  0  0
 48 49  1  0  0  0  0
 49 51  1  6  0  0  0
 49 50  1  0  0  0  0
M  END
>  <MODEL>
8

>  <REMARK>
 VINA RESULT:      -4.2      2.664      5.694
  Name = 
  24 active torsions:
  status: ('A' for Active; 'I' for Inactive)
    1  A    between atoms: C_1  and  C_45
    2  A    between atoms: C_1  and  C_46
    3  A    between atoms: C_2  and  C_14
    4  A    between atoms: C_2  and  C_46
    5  A    between atoms: C_5  and  O_8
    6  A    between atoms: C_5  and  C_24
    7  A    between atoms: O_8  and  C_44
    8  A    between atoms: C_9  and  C_23
    9  A    between atoms: C_9  and  C_35
   10  A    between atoms: C_9  and  C_47
   11  A    between atoms: C_11  and  C_23
   12  A    between atoms: O_12  and  C_29
   13  A    between atoms: O_12  and  C_51
   14  A    between atoms: C_14  and  C_36
   15  A    between atoms: N_16  and  C_24
   16  A    between atoms: C_17  and  C_18
   17  A    between atoms: C_17  and  C_40
   18  A    between atoms: C_19  and  C_34
   19  A    between atoms: C_19  and  C_36
   20  A    between atoms: C_22  and  C_47
   21  A    between atoms: C_26  and  C_29
   22  A    between atoms: C_43  and  C_45
   23  A    between atoms: C_44  and  C_48
   24  A    between atoms: C_48  and  C_49
                            x       y       z     vdW  Elec       q    Type
                         _______ _______ _______ _____ _____    ______ ____

>  <TORSDO>
F 24

$$$$
=
 OpenBabel11042420183D

 51 53  0  0  1  0  0  0  0  0999 V2000
  161.0000  204.9920  150.3170 C   0  0  0  0  0  0  0  0  0  0  0  0
  160.7420  205.1670  147.9680 O   0  0  0  0  0  0  0  0  0  0  0  0
  160.9430  205.7590  149.0630 C   0  0  0  0  0  0  0  0  0  0  0  0
  161.5800  207.8200  152.7680 N   0  0  0  0  0  2  0  0  0  0  0  0
  161.0850  207.2570  149.0750 C   0  0  1  0  0  3  0  0  0  0  0  0
  161.1970  205.6690  151.5300 C   0  0  0  0  0  0  0  0  0  0  0  0
  160.8480  203.5970  150.3150 C   0  0  0  0  0  3  0  0  0  0  0  0
  160.8900  202.8810  151.5140 C   0  0  0  0  0  3  0  0  0  0  0  0
  161.0840  203.5560  152.7230 C   0  0  0  0  0  3  0  0  0  0  0  0
  161.3060  207.8100  150.4210 N   0  0  0  0  0  0  0  0  0  0  0  0
  161.3580  207.1350  151.5320 C   0  0  0  0  0  0  0  0  0  0  0  0
  161.2390  204.9440  152.7310 C   0  0  0  0  0  3  0  0  0  0  0  0
  161.7040  209.2650  152.8470 C   0  0  0  0  0  2  0  0  0  0  0  0
  160.3320  209.9060  152.8370 C   0  0  0  0  0  2  0  0  0  0  0  0
  160.4570  211.2940  152.7300 O   0  0  0  0  0  0  0  0  0  0  0  0
  160.9880  211.5100  151.4540 C   0  0  0  0  0  2  0  0  0  0  0  0
  160.3110  212.7010  150.7910 C   0  0  0  0  0  2  0  0  0  0  0  0
  159.9810  213.5560  148.4220 C   0  0  0  0  0  0  0  0  0  0  0  0
  161.9750  212.2900  148.9800 C   0  0  0  0  0  3  0  0  0  0  0  0
  161.6580  213.1170  146.7250 C   0  0  0  0  0  3  0  0  0  0  0  0
  162.4260  212.4190  147.6630 C   0  0  0  0  0  3  0  0  0  0  0  0
  160.4410  213.6850  147.1060 C   0  0  0  0  0  3  0  0  0  0  0  0
  160.7550  212.8540  149.3690 C   0  0  0  0  0  0  0  0  0  0  0  0
  158.6890  214.2010  148.7980 C   0  0  0  0  0  2  0  0  0  0  0  0
  157.6280  213.5120  148.2090 O   0  0  0  0  0  0  0  0  0  0  0  0
  156.9210  214.1470  150.3910 C   0  0  0  0  0  1  0  0  0  0  0  0
  156.8210  213.1250  149.2770 C   0  0  0  0  0  2  0  0  0  0  0  0
  162.2040  207.6910  148.1380 C   0  0  0  0  0  2  0  0  0  0  0  0
  162.6620  205.8150  146.2940 C   0  0  0  0  0  0  0  0  0  0  0  0
  162.4460  206.6720  147.1130 C   0  0  0  0  0  0  0  0  0  0  0  0
  162.9340  204.7410  145.3260 C   0  0  0  0  0  2  0  0  0  0  0  0
  161.7460  204.4900  144.3960 C   0  0  2  0  0  3  0  0  0  0  0  0
  162.0470  206.1940  141.2320 C   0  0  0  0  0  3  0  0  0  0  0  0
  161.3360  205.7440  143.6960 C   0  0  0  0  0  3  0  0  0  0  0  0
  161.6970  205.9650  142.4650 C   0  0  0  0  0  0  0  0  0  0  0  0
  161.6370  207.4620  140.5680 C   0  0  0  0  0  2  0  0  0  0  0  0
  161.9610  207.4220  139.0840 C   0  0  0  0  0  2  0  0  0  0  0  0
  162.0050  208.8310  138.4970 C   0  0  0  0  0  2  0  0  0  0  0  0
  160.6380  209.5220  138.5090 C   0  0  0  0  0  0  0  0  0  0  0  0
  159.8980  209.1790  139.7890 C   0  0  0  0  0  1  0  0  0  0  0  0
  159.8160  208.9930  137.3490 C   0  0  0  0  0  1  0  0  0  0  0  0
  160.7750  211.0460  138.4180 C   0  0  0  0  0  2  0  0  0  0  0  0
  161.6180  211.6510  139.5410 C   0  0  1  0  0  3  0  0  0  0  0  0
  162.8870  212.2460  138.9620 C   0  0  0  0  0  1  0  0  0  0  0  0
  160.8360  212.7460  140.2420 C   0  0  0  0  0  2  0  0  0  0  0  0
  159.3270  213.0210  142.1820 C   0  0  0  0  0  1  0  0  0  0  0  0
  160.6050  212.3780  141.6950 C   0  0  0  0  0  2  0  0  0  0  0  0
  160.5710  203.8770  145.1530 C   0  0  0  0  0  2  0  0  0  0  0  0
  160.8650  202.4440  145.5650 C   0  0  1  0  0  3  0  0  0  0  0  0
  160.7450  202.3160  146.9510 O   0  0  0  0  0  1  0  0  0  0  0  0
  159.8800  201.5140  144.8860 C   0  0  0  0  0  1  0  0  0  0  0  0
  1  6  1  0  0  0  0
  2  3  2  0  0  0  0
  3  5  1  0  0  0  0
  3  1  1  0  0  0  0
  4 13  1  0  0  0  0
  5 28  1  6  0  0  0
  5 10  1  0  0  0  0
  6 11  1  0  0  0  0
  6 12  2  0  0  0  0
  7  1  2  0  0  0  0
  7  8  1  0  0  0  0
  8  9  2  0  0  0  0
  9 12  1  0  0  0  0
 10 11  2  0  0  0  0
 11  4  1  0  0  0  0
 14 13  1  0  0  0  0
 15 14  1  0  0  0  0
 16 15  1  0  0  0  0
 17 16  1  0  0  0  0
 18 24  1  0  0  0  0
 18 23  1  0  0  0  0
 19 23  2  0  0  0  0
 20 22  1  0  0  0  0
 20 21  2  0  0  0  0
 21 19  1  0  0  0  0
 22 18  2  0  0  0  0
 23 17  1  0  0  0  0
 25 24  1  0  0  0  0
 25 27  1  0  0  0  0
 27 26  1  0  0  0  0
 29 30  3  0  0  0  0
 30 28  1  0  0  0  0
 31 29  1  0  0  0  0
 32 34  1  1  0  0  0
 32 48  1  0  0  0  0
 32 31  1  0  0  0  0
 33 35  2  0  0  0  0
 35 34  2  0  0  0  0
 36 33  1  0  0  0  0
 37 36  1  0  0  0  0
 38 39  1  0  0  0  0
 38 37  1  0  0  0  0
 39 40  1  0  0  0  0
 41 39  1  0  0  0  0
 42 39  1  0  0  0  0
 42 43  1  0  0  0  0
 43 44  1  6  0  0  0
 43 45  1  0  0  0  0
 45 47  1  0  0  0  0
 47 46  1  0  0  0  0
 48 49  1  0  0  0  0
 49 51  1  6  0  0  0
 49 50  1  0  0  0  0
M  END
>  <MODEL>
9

>  <REMARK>
 VINA RESULT:      -4.2      2.297      6.402
  Name = 
  24 active torsions:
  status: ('A' for Active; 'I' for Inactive)
    1  A    between atoms: C_1  and  C_45
    2  A    between atoms: C_1  and  C_46
    3  A    between atoms: C_2  and  C_14
    4  A    between atoms: C_2  and  C_46
    5  A    between atoms: C_5  and  O_8
    6  A    between atoms: C_5  and  C_24
    7  A    between atoms: O_8  and  C_44
    8  A    between atoms: C_9  and  C_23
    9  A    between atoms: C_9  and  C_35
   10  A    between atoms: C_9  and  C_47
   11  A    between atoms: C_11  and  C_23
   12  A    between atoms: O_12  and  C_29
   13  A    between atoms: O_12  and  C_51
   14  A    between atoms: C_14  and  C_36
   15  A    between atoms: N_16  and  C_24
   16  A    between atoms: C_17  and  C_18
   17  A    between atoms: C_17  and  C_40
   18  A    between atoms: C_19  and  C_34
   19  A    between atoms: C_19  and  C_36
   20  A    between atoms: C_22  and  C_47
   21  A    between atoms: C_26  and  C_29
   22  A    between atoms: C_43  and  C_45
   23  A    between atoms: C_44  and  C_48
   24  A    between atoms: C_48  and  C_49
                            x       y       z     vdW  Elec       q    Type
                         _______ _______ _______ _____ _____    ______ ____

>  <TORSDO>
F 24

$$$$
