=
 OpenBabel11052410243D

 55 64  0  0  1  0  0  0  0  0999 V2000
  161.4170  211.0180  153.7460 C   0  0  0  0  0  2  0  0  0  0  0  0
  161.4420  209.7730  152.9700 N   0  0  0  0  0  0  0  0  0  0  0  0
  162.0740  210.4420  149.3200 C   0  0  0  0  0  0  0  0  0  0  0  0
  161.7980  206.6080  154.9670 C   0  0  2  0  0  3  0  0  0  0  0  0
  161.8890  208.0190  149.8740 C   0  0  0  0  0  0  0  0  0  0  0  0
  161.6560  208.4230  151.1990 C   0  0  0  0  0  0  0  0  0  0  0  0
  162.1320  208.5830  147.1910 Cl  0  0  0  0  0  0  0  0  0  0  0  0
  161.9100  210.7470  150.6830 C   0  0  0  0  0  3  0  0  0  0  0  0
  161.4610  207.7890  155.8770 C   0  0  1  0  0  3  0  0  0  0  0  0
  162.0750  208.0450  154.4720 C   0  0  2  0  0  3  0  0  0  0  0  0
  161.3160  207.6810  152.3170 O   0  0  0  0  0  0  0  0  0  0  0  0
  162.0440  209.0580  148.9010 C   0  0  0  0  0  0  0  0  0  0  0  0
  160.5830  205.8790  154.4020 C   0  0  0  0  0  1  0  0  0  0  0  0
  160.0880  208.4180  156.0130 C   0  0  1  0  0  3  0  0  0  0  0  0
  159.2010  210.6740  156.3340 C   0  0  0  0  0  2  0  0  0  0  0  0
  161.1100  208.4750  153.4450 N   0  0  2  0  0  0  0  0  0  0  0  0
  160.0230  211.4960  154.0150 C   0  0  2  0  0  3  0  0  0  0  0  0
  160.0810  209.5670  156.7000 C   0  0  0  0  0  2  0  0  0  0  0  0
  161.7050  209.7120  151.5810 C   0  0  0  0  0  0  0  0  0  0  0  0
  159.5040  211.1630  155.1630 C   0  0  0  0  0  2  0  0  0  0  0  0
  159.9360  206.1490  144.7910 C   0  0  0  0  0  3  0  0  0  0  0  0
  159.4690  206.1030  146.1520 N   0  0  0  0  0  0  0  0  0  0  0  0
  160.2870  206.2300  147.1580 C   0  0  0  0  0  0  0  0  0  0  0  0
  162.6580  206.2540  148.0940 C   0  0  0  0  0  2  0  0  0  0  0  0
  162.2350  205.8850  145.6330 C   0  0  0  0  0  2  0  0  0  0  0  0
  162.0010  206.5530  149.4550 C   0  0  2  0  0  3  0  0  0  0  0  0
  161.7400  206.5660  146.9100 C   0  0  1  0  0  3  0  0  0  0  0  0
  160.6550  205.8200  149.5720 C   0  0  1  0  0  3  0  0  0  0  0  0
  161.2490  206.1060  144.5190 C   0  0  0  0  0  0  0  0  0  0  0  0
  159.7990  206.0990  148.4630 O   0  0  0  0  0  0  0  0  0  0  0  0
  161.4590  203.4390  148.7810 C   0  0  0  0  0  0  0  0  0  0  0  0
  161.1460  201.9240  147.3240 C   0  0  0  0  0  3  0  0  0  0  0  0
  161.4130  201.2840  148.4860 N   0  0  0  0  0  0  0  0  0  0  0  0
  161.1190  203.2700  147.4890 N   0  0  0  0  0  0  0  0  0  0  0  0
  161.0840  202.3270  150.7820 C   0  0  0  0  0  3  0  0  0  0  0  0
  161.6160  202.2500  149.3910 C   0  0  0  0  0  0  0  0  0  0  0  0
  160.6880  203.7380  150.8850 N   0  0  0  0  0  0  0  0  0  0  0  0
  160.8680  204.3420  149.7470 C   0  0  1  0  0  3  0  0  0  0  0  0
  161.3200  199.8530  148.7260 C   0  0  0  0  0  2  0  0  0  0  0  0
  161.2830  199.7500  146.3050 N   0  0  0  0  0  1  0  0  0  0  0  0
  161.7870  199.1000  147.4970 C   0  0  0  0  0  2  0  0  0  0  0  0
  162.0640  206.2860  142.0140 C   0  0  0  0  0  3  0  0  0  0  0  0
  161.7000  206.2020  143.1600 C   0  0  0  0  0  0  0  0  0  0  0  0
  162.2630  211.6730  148.4480 C   0  0  0  0  0  3  0  0  0  0  0  0
  161.1380  211.9470  147.4670 C   0  0  0  0  0  2  0  0  0  0  0  0
  161.2620  212.7730  148.7380 C   0  0  0  0  0  2  0  0  0  0  0  0
  158.8960  208.0280  155.1710 C   0  0  0  0  0  2  0  0  0  0  0  0
  158.2510  206.7580  155.7100 C   0  0  0  0  0  1  0  0  0  0  0  0
  159.2540  212.2590  152.9720 C   0  0  0  0  0  2  0  0  0  0  0  0
  155.7220  213.4120  154.0190 C   0  0  0  0  0  2  0  0  0  0  0  0
  158.1680  213.1750  153.5520 C   0  0  0  0  0  3  0  0  0  0  0  0
  156.8690  212.4250  153.8520 C   0  0  0  0  0  2  0  0  0  0  0  0
  155.4600  214.1900  152.7230 C   0  0  0  0  0  2  0  0  0  0  0  0
  157.9840  214.4530  152.7170 C   0  0  0  0  0  2  0  0  0  0  0  0
  156.7170  214.4010  151.8680 C   0  0  0  0  0  2  0  0  0  0  0  0
  1 17  1  0  0  0  0
  2 16  1  0  0  0  0
  2  1  1  0  0  0  0
  3  8  1  0  0  0  0
  4 13  1  6  0  0  0
  4  9  1  0  0  0  0
  5  6  2  0  0  0  0
  6 19  1  0  0  0  0
  6 11  1  0  0  0  0
  7 12  1  0  0  0  0
  8 19  2  0  0  0  0
  9 14  1  0  0  0  0
 10  4  1  0  0  0  0
 10  9  1  0  0  0  0
 11 16  1  0  0  0  0
 12  3  2  0  0  0  0
 12  5  1  0  0  0  0
 14 18  1  0  0  0  0
 15 18  1  0  0  0  0
 16 10  1  0  0  0  0
 17 20  1  0  0  0  0
 19  2  1  0  0  0  0
 20 15  1  0  0  0  0
 21 22  1  0  0  0  0
 22 23  2  0  0  0  0
 23 30  1  0  0  0  0
 24 26  1  0  0  0  0
 25 27  1  0  0  0  0
 26 28  1  0  0  0  0
 26  5  1  0  0  0  0
 27 23  1  0  0  0  0
 27 24  1  0  0  0  0
 28 38  1  0  0  0  0
 29 21  2  0  0  0  0
 29 25  1  0  0  0  0
 30 28  1  0  0  0  0
 31 36  2  0  0  0  0
 31 38  1  0  0  0  0
 32 34  2  0  0  0  0
 32 33  1  0  0  0  0
 33 39  1  0  0  0  0
 33 36  1  0  0  0  0
 34 31  1  0  0  0  0
 35 37  2  0  0  0  0
 36 35  1  0  0  0  0
 38 37  1  0  0  0  0
 40 41  1  0  0  0  0
 41 39  1  0  0  0  0
 42 43  3  0  0  0  0
 43 29  1  0  0  0  0
 44 46  1  0  0  0  0
 44  3  1  0  0  0  0
 45 44  1  0  0  0  0
 45 46  1  0  0  0  0
 47 48  1  0  0  0  0
 47 14  1  0  0  0  0
 49 51  1  0  0  0  0
 49 17  1  0  0  0  0
 51 52  1  0  0  0  0
 52 50  1  0  0  0  0
 53 50  1  0  0  0  0
 54 51  1  0  0  0  0
 55 54  1  0  0  0  0
 55 53  1  0  0  0  0
M  END
>  <MODEL>
1

>  <REMARK>
 VINA RESULT:      -0.5      0.000      0.000
  Name = 
  9 active torsions:
  status: ('A' for Active; 'I' for Inactive)
    1  A    between atoms: C_4  and  C_8
    2  A    between atoms: C_11  and  C_51
    3  A    between atoms: N_13  and  C_36
    4  A    between atoms: C_14  and  C_28
    5  A    between atoms: C_15  and  C_45
    6  A    between atoms: C_33  and  C_36
    7  A    between atoms: C_39  and  C_46
    8  A    between atoms: C_41  and  C_54
    9  A    between atoms: C_49  and  C_51
                            x       y       z     vdW  Elec       q    Type
                         _______ _______ _______ _____ _____    ______ ____

>  <TORSDO>
F 9

$$$$
