=
 OpenBabel11052410523D

 28 32  0  0  1  0  0  0  0  0999 V2000
  161.2790  204.5080  152.5130 C   0  0  0  0  0  3  0  0  0  0  0  0
  162.1780  205.3060  151.6280 C   0  0  0  0  0  2  0  0  0  0  0  0
  161.3430  206.0570  150.6000 C   0  0  2  0  0  0  0  0  0  0  0  0
  160.7890  202.9020  150.7650 C   0  0  0  0  0  0  0  0  0  0  0  0
  160.9720  203.1150  148.3850 N   0  0  0  0  0  0  0  0  0  0  0  0
  160.5490  205.1970  149.6180 C   0  0  1  0  0  3  0  0  0  0  0  0
  160.6790  203.4360  152.0920 N   0  0  0  0  0  0  0  0  0  0  0  0
  161.8000  205.9420  149.1500 C   0  0  1  0  0  3  0  0  0  0  0  0
  161.0360  200.9430  149.3620 C   0  0  0  0  0  3  0  0  0  0  0  0
  161.0880  201.7690  148.2420 C   0  0  0  0  0  3  0  0  0  0  0  0
  160.8800  201.5160  150.6220 C   0  0  0  0  0  3  0  0  0  0  0  0
  160.8290  203.7130  149.6010 C   0  0  0  0  0  0  0  0  0  0  0  0
  161.3820  207.1240  148.2910 C   0  0  0  0  0  2  0  0  0  0  0  0
  162.0070  207.0160  146.9070 C   0  0  0  0  0  2  0  0  0  0  0  0
  161.7210  205.6810  146.2110 C   0  0  1  0  0  3  0  0  0  0  0  0
  161.1740  205.4020  143.8030 C   0  0  0  0  0  2  0  0  0  0  0  0
  160.6180  205.7760  145.1640 C   0  0  0  0  0  3  0  0  0  0  0  0
  160.3490  204.4010  144.5830 C   0  0  0  0  0  2  0  0  0  0  0  0
  163.8650  204.6790  146.6930 O   0  0  0  0  0  1  0  0  0  0  0  0
  162.9850  205.0210  145.6640 C   0  0  0  0  0  2  0  0  0  0  0  0
  160.5380  207.2770  151.0750 C   0  0  0  0  0  2  0  0  0  0  0  0
  162.2550  209.0260  151.0410 C   0  0  0  0  0  2  0  0  0  0  0  0
  161.3840  208.3170  151.7600 C   0  0  0  0  0  0  0  0  0  0  0  0
  161.5630  209.6500  155.1370 O   0  0  0  0  0  1  0  0  0  0  0  0
  160.8810  209.3210  153.9620 C   0  0  2  0  0  3  0  0  0  0  0  0
  160.3350  207.8940  153.9830 C   0  0  2  0  0  3  0  0  0  0  0  0
  160.6710  207.1160  155.2480 C   0  0  0  0  0  1  0  0  0  0  0  0
  161.6190  208.2090  153.2390 C   0  0  1  0  0  3  0  0  0  0  0  0
  2  1  1  0  0  0  0
  3 21  1  1  0  0  0
  3  2  1  0  0  0  0
  4  7  1  0  0  0  0
  5 12  1  0  0  0  0
  6 12  1  1  0  0  0
  6  3  1  0  0  0  0
  7  1  2  0  0  0  0
  8 13  1  6  0  0  0
  8  6  1  0  0  0  0
  8  3  1  0  0  0  0
  9 11  2  0  0  0  0
 10  5  2  0  0  0  0
 10  9  1  0  0  0  0
 11  4  1  0  0  0  0
 12  4  2  0  0  0  0
 14 13  1  0  0  0  0
 15 20  1  6  0  0  0
 15 14  1  0  0  0  0
 16 18  1  0  0  0  0
 16 17  1  0  0  0  0
 17 15  1  0  0  0  0
 18 17  1  0  0  0  0
 20 19  1  0  0  0  0
 21 23  1  0  0  0  0
 22 23  2  0  0  0  0
 25 26  1  0  0  0  0
 25 24  1  1  0  0  0
 26 27  1  1  0  0  0
 28 23  1  6  0  0  0
 28 25  1  0  0  0  0
 28 26  1  0  0  0  0
M  END
>  <MODEL>
1

>  <REMARK>
 VINA RESULT:      -7.9      0.000      0.000
  Name = 
  8 active torsions:
  status: ('A' for Active; 'I' for Inactive)
    1  A    between atoms: C_6  and  C_20
    2  A    between atoms: C_7  and  C_15
    3  A    between atoms: C_7  and  C_27
    4  A    between atoms: C_13  and  C_20
    5  A    between atoms: C_13  and  C_28
    6  A    between atoms: C_14  and  C_16
    7  A    between atoms: C_16  and  C_25
    8  A    between atoms: C_16  and  C_27
                            x       y       z     vdW  Elec       q    Type
                         _______ _______ _______ _____ _____    ______ ____

>  <TORSDO>
F 8

$$$$
=
 OpenBabel11052410523D

 28 32  0  0  1  0  0  0  0  0999 V2000
  162.0820  208.9800  150.9510 C   0  0  0  0  0  3  0  0  0  0  0  0
  162.5880  207.5790  150.8530 C   0  0  0  0  0  2  0  0  0  0  0  0
  161.4120  206.6240  150.7080 C   0  0  2  0  0  0  0  0  0  0  0  0
  161.2310  208.6400  153.1950 C   0  0  0  0  0  0  0  0  0  0  0  0
  160.6530  206.6110  154.3300 N   0  0  0  0  0  0  0  0  0  0  0  0
  160.4380  206.5690  151.8830 C   0  0  1  0  0  3  0  0  0  0  0  0
  161.4850  209.4200  152.0170 N   0  0  0  0  0  0  0  0  0  0  0  0
  161.4100  205.4140  151.6360 C   0  0  1  0  0  3  0  0  0  0  0  0
  161.2150  208.5360  155.6150 C   0  0  0  0  0  3  0  0  0  0  0  0
  160.8450  207.1960  155.5410 C   0  0  0  0  0  3  0  0  0  0  0  0
  161.4020  209.2560  154.4370 C   0  0  0  0  0  3  0  0  0  0  0  0
  160.8360  207.2780  153.1570 C   0  0  0  0  0  0  0  0  0  0  0  0
  160.6400  204.2280  151.0790 C   0  0  0  0  0  2  0  0  0  0  0  0
  161.5430  203.3850  150.1890 C   0  0  0  0  0  2  0  0  0  0  0  0
  160.7720  202.4570  149.2440 C   0  0  1  0  0  3  0  0  0  0  0  0
  161.2940  200.5650  147.7200 C   0  0  0  0  0  2  0  0  0  0  0  0
  161.5900  202.0190  148.0350 C   0  0  0  0  0  3  0  0  0  0  0  0
  160.6570  201.6620  146.8940 C   0  0  0  0  0  2  0  0  0  0  0  0
  158.7730  201.1730  149.6820 O   0  0  0  0  0  1  0  0  0  0  0  0
  160.1350  201.2750  149.9730 C   0  0  0  0  0  2  0  0  0  0  0  0
  160.6820  206.5760  149.3560 C   0  0  0  0  0  2  0  0  0  0  0  0
  162.3740  207.5520  147.8740 C   0  0  0  0  0  2  0  0  0  0  0  0
  161.6170  206.4970  148.1790 C   0  0  0  0  0  0  0  0  0  0  0  0
  160.0840  205.3950  145.0710 O   0  0  0  0  0  1  0  0  0  0  0  0
  160.9360  206.2130  145.8190 C   0  0  2  0  0  3  0  0  0  0  0  0
  162.3400  205.6230  145.9570 C   0  0  2  0  0  3  0  0  0  0  0  0
  162.5130  204.2640  145.2930 C   0  0  0  0  0  1  0  0  0  0  0  0
  161.3420  205.4960  147.0940 C   0  0  1  0  0  3  0  0  0  0  0  0
  1  7  2  0  0  0  0
  2  1  1  0  0  0  0
  3 21  1  6  0  0  0
  3  2  1  0  0  0  0
  3  8  1  0  0  0  0
  3  6  1  0  0  0  0
  4 11  1  0  0  0  0
  5 10  2  0  0  0  0
  6 12  1  1  0  0  0
  7  4  1  0  0  0  0
  8 13  1  6  0  0  0
  8  6  1  0  0  0  0
 10  9  1  0  0  0  0
 11  9  2  0  0  0  0
 12  4  2  0  0  0  0
 12  5  1  0  0  0  0
 14 13  1  0  0  0  0
 15 20  1  1  0  0  0
 15 14  1  0  0  0  0
 16 17  1  0  0  0  0
 17 15  1  0  0  0  0
 18 16  1  0  0  0  0
 18 17  1  0  0  0  0
 19 20  1  0  0  0  0
 22 23  2  0  0  0  0
 23 21  1  0  0  0  0
 25 24  1  6  0  0  0
 25 26  1  0  0  0  0
 25 28  1  0  0  0  0
 26 27  1  6  0  0  0
 26 28  1  0  0  0  0
 28 23  1  1  0  0  0
M  END
>  <MODEL>
2

>  <REMARK>
 VINA RESULT:      -7.6      2.797      6.350
  Name = 
  8 active torsions:
  status: ('A' for Active; 'I' for Inactive)
    1  A    between atoms: C_6  and  C_20
    2  A    between atoms: C_7  and  C_15
    3  A    between atoms: C_7  and  C_27
    4  A    between atoms: C_13  and  C_20
    5  A    between atoms: C_13  and  C_28
    6  A    between atoms: C_14  and  C_16
    7  A    between atoms: C_16  and  C_25
    8  A    between atoms: C_16  and  C_27
                            x       y       z     vdW  Elec       q    Type
                         _______ _______ _______ _____ _____    ______ ____

>  <TORSDO>
F 8

$$$$
=
 OpenBabel11052410523D

 28 32  0  0  1  0  0  0  0  0999 V2000
  161.2020  205.5120  151.9780 C   0  0  0  0  0  3  0  0  0  0  0  0
  162.1890  206.6240  151.8470 C   0  0  0  0  0  2  0  0  0  0  0  0
  161.5050  207.8420  151.2440 C   0  0  2  0  0  0  0  0  0  0  0  0
  161.1480  205.1200  149.5860 C   0  0  0  0  0  0  0  0  0  0  0  0
  161.7430  206.5720  147.7760 N   0  0  0  0  0  0  0  0  0  0  0  0
  160.9620  207.6780  149.8250 C   0  0  1  0  0  3  0  0  0  0  0  0
  160.7630  204.8590  150.9440 N   0  0  0  0  0  0  0  0  0  0  0  0
  162.2230  208.5070  150.0750 C   0  0  1  0  0  3  0  0  0  0  0  0
  161.7790  204.2150  147.4300 C   0  0  0  0  0  3  0  0  0  0  0  0
  161.9760  205.5110  146.9600 C   0  0  0  0  0  3  0  0  0  0  0  0
  161.3580  204.0260  148.7440 C   0  0  0  0  0  3  0  0  0  0  0  0
  161.3420  206.4270  149.0690 C   0  0  0  0  0  0  0  0  0  0  0  0
  161.8870  209.9810  149.9210 C   0  0  0  0  0  2  0  0  0  0  0  0
  162.1510  210.4350  148.4910 C   0  0  0  0  0  2  0  0  0  0  0  0
  161.8080  211.9080  148.2470 C   0  0  1  0  0  3  0  0  0  0  0  0
  161.1270  214.0830  149.2390 C   0  0  0  0  0  2  0  0  0  0  0  0
  161.1680  212.5820  149.4550 C   0  0  0  0  0  3  0  0  0  0  0  0
  159.8750  213.2550  149.0360 C   0  0  0  0  0  2  0  0  0  0  0  0
  162.7720  213.0920  146.3750 O   0  0  0  0  0  1  0  0  0  0  0  0
  162.9910  212.7040  147.6990 C   0  0  0  0  0  2  0  0  0  0  0  0
  160.5450  208.6470  152.1350 C   0  0  0  0  0  2  0  0  0  0  0  0
  162.0650  210.1490  153.3360 C   0  0  0  0  0  2  0  0  0  0  0  0
  161.1880  209.1460  153.4010 C   0  0  0  0  0  0  0  0  0  0  0  0
  162.1560  208.2970  156.8010 O   0  0  0  0  0  1  0  0  0  0  0  0
  161.4650  209.0610  155.8560 C   0  0  2  0  0  3  0  0  0  0  0  0
  160.0830  208.4890  155.5390 C   0  0  2  0  0  3  0  0  0  0  0  0
  159.7580  207.1980  156.2780 C   0  0  0  0  0  1  0  0  0  0  0  0
  161.2470  208.2410  154.5970 C   0  0  1  0  0  3  0  0  0  0  0  0
  2  1  1  0  0  0  0
  3  2  1  0  0  0  0
  3 21  1  1  0  0  0
  4  7  1  0  0  0  0
  5 12  2  0  0  0  0
  6 12  1  6  0  0  0
  6  8  1  0  0  0  0
  6  3  1  0  0  0  0
  7  1  2  0  0  0  0
  8 13  1  1  0  0  0
  8  3  1  0  0  0  0
  9 11  1  0  0  0  0
 10  9  2  0  0  0  0
 10  5  1  0  0  0  0
 11  4  2  0  0  0  0
 12  4  1  0  0  0  0
 14 13  1  0  0  0  0
 15 20  1  1  0  0  0
 15 14  1  0  0  0  0
 15 17  1  0  0  0  0
 16 17  1  0  0  0  0
 18 16  1  0  0  0  0
 18 17  1  0  0  0  0
 19 20  1  0  0  0  0
 21 23  1  0  0  0  0
 22 23  2  0  0  0  0
 25 24  1  1  0  0  0
 26 25  1  0  0  0  0
 26 27  1  1  0  0  0
 28 23  1  6  0  0  0
 28 26  1  0  0  0  0
 28 25  1  0  0  0  0
M  END
>  <MODEL>
3

>  <REMARK>
 VINA RESULT:      -7.3      2.963      4.603
  Name = 
  8 active torsions:
  status: ('A' for Active; 'I' for Inactive)
    1  A    between atoms: C_6  and  C_20
    2  A    between atoms: C_7  and  C_15
    3  A    between atoms: C_7  and  C_27
    4  A    between atoms: C_13  and  C_20
    5  A    between atoms: C_13  and  C_28
    6  A    between atoms: C_14  and  C_16
    7  A    between atoms: C_16  and  C_25
    8  A    between atoms: C_16  and  C_27
                            x       y       z     vdW  Elec       q    Type
                         _______ _______ _______ _____ _____    ______ ____

>  <TORSDO>
F 8

$$$$
=
 OpenBabel11052410523D

 28 32  0  0  1  0  0  0  0  0999 V2000
  161.2390  205.0620  151.5450 C   0  0  0  0  0  3  0  0  0  0  0  0
  162.2310  206.1760  151.5910 C   0  0  0  0  0  2  0  0  0  0  0  0
  161.5620  207.4710  151.1520 C   0  0  2  0  0  0  0  0  0  0  0  0
  161.2330  205.0100  149.1210 C   0  0  0  0  0  0  0  0  0  0  0  0
  161.8690  206.6990  147.5450 N   0  0  0  0  0  0  0  0  0  0  0  0
  161.0480  207.5100  149.7140 C   0  0  1  0  0  3  0  0  0  0  0  0
  160.8200  204.5630  150.4210 N   0  0  0  0  0  0  0  0  0  0  0  0
  162.3050  208.2900  150.1030 C   0  0  1  0  0  3  0  0  0  0  0  0
  161.9060  204.4140  146.8720 C   0  0  0  0  0  3  0  0  0  0  0  0
  162.1160  205.7620  146.5930 C   0  0  0  0  0  3  0  0  0  0  0  0
  161.4590  204.0440  148.1380 C   0  0  0  0  0  3  0  0  0  0  0  0
  161.4410  206.3760  148.7970 C   0  0  0  0  0  0  0  0  0  0  0  0
  161.9760  209.7730  150.1510 C   0  0  0  0  0  2  0  0  0  0  0  0
  162.0600  210.3760  148.7550 C   0  0  0  0  0  2  0  0  0  0  0  0
  162.1270  211.9070  148.7580 C   0  0  1  0  0  3  0  0  0  0  0  0
  162.4060  213.3250  146.7360 C   0  0  0  0  0  2  0  0  0  0  0  0
  163.1290  212.4650  147.7540 C   0  0  0  0  0  3  0  0  0  0  0  0
  163.1730  213.9770  147.8670 C   0  0  0  0  0  2  0  0  0  0  0  0
  160.3510  213.1550  149.8190 O   0  0  0  0  0  1  0  0  0  0  0  0
  160.7500  212.5550  148.6220 C   0  0  0  0  0  2  0  0  0  0  0  0
  160.5860  208.1470  152.1280 C   0  0  0  0  0  2  0  0  0  0  0  0
  160.7820  207.3440  154.4350 C   0  0  0  0  0  2  0  0  0  0  0  0
  161.1270  208.2580  153.5280 C   0  0  0  0  0  0  0  0  0  0  0  0
  160.6410  211.7070  154.5700 O   0  0  0  0  0  1  0  0  0  0  0  0
  160.4570  210.3280  154.7020 C   0  0  2  0  0  3  0  0  0  0  0  0
  161.5540  209.6700  155.5400 C   0  0  2  0  0  3  0  0  0  0  0  0
  162.6310  210.6310  156.0230 C   0  0  0  0  0  1  0  0  0  0  0  0
  161.6000  209.5940  154.0250 C   0  0  1  0  0  3  0  0  0  0  0  0
  1  2  1  0  0  0  0
  3  2  1  0  0  0  0
  3 21  1  1  0  0  0
  4  7  1  0  0  0  0
  5 12  2  0  0  0  0
  6 12  1  6  0  0  0
  6  8  1  0  0  0  0
  6  3  1  0  0  0  0
  7  1  2  0  0  0  0
  8 13  1  1  0  0  0
  8  3  1  0  0  0  0
  9 11  1  0  0  0  0
 10  9  2  0  0  0  0
 10  5  1  0  0  0  0
 11  4  2  0  0  0  0
 12  4  1  0  0  0  0
 14 15  1  0  0  0  0
 14 13  1  0  0  0  0
 15 20  1  6  0  0  0
 16 17  1  0  0  0  0
 16 18  1  0  0  0  0
 17 18  1  0  0  0  0
 17 15  1  0  0  0  0
 20 19  1  0  0  0  0
 21 23  1  0  0  0  0
 23 22  2  0  0  0  0
 25 24  1  6  0  0  0
 25 26  1  0  0  0  0
 26 27  1  6  0  0  0
 28 23  1  1  0  0  0
 28 25  1  0  0  0  0
 28 26  1  0  0  0  0
M  END
>  <MODEL>
4

>  <REMARK>
 VINA RESULT:      -7.2      2.886      4.758
  Name = 
  8 active torsions:
  status: ('A' for Active; 'I' for Inactive)
    1  A    between atoms: C_6  and  C_20
    2  A    between atoms: C_7  and  C_15
    3  A    between atoms: C_7  and  C_27
    4  A    between atoms: C_13  and  C_20
    5  A    between atoms: C_13  and  C_28
    6  A    between atoms: C_14  and  C_16
    7  A    between atoms: C_16  and  C_25
    8  A    between atoms: C_16  and  C_27
                            x       y       z     vdW  Elec       q    Type
                         _______ _______ _______ _____ _____    ______ ____

>  <TORSDO>
F 8

$$$$
=
 OpenBabel11052410523D

 28 32  0  0  1  0  0  0  0  0999 V2000
  161.0000  206.2720  148.6100 C   0  0  0  0  0  3  0  0  0  0  0  0
  160.2860  206.5560  149.8890 C   0  0  0  0  0  2  0  0  0  0  0  0
  161.2700  206.4840  151.0480 C   0  0  2  0  0  0  0  0  0  0  0  0
  161.2350  203.9160  149.1270 C   0  0  0  0  0  0  0  0  0  0  0  0
  161.1580  202.7890  151.2410 N   0  0  0  0  0  0  0  0  0  0  0  0
  161.9200  205.1240  151.2970 C   0  0  1  0  0  3  0  0  0  0  0  0
  161.4050  205.0770  148.3020 N   0  0  0  0  0  0  0  0  0  0  0  0
  160.8390  205.6450  152.2450 C   0  0  1  0  0  3  0  0  0  0  0  0
  160.6720  201.5640  149.2560 C   0  0  0  0  0  3  0  0  0  0  0  0
  160.8010  201.6240  150.6410 C   0  0  0  0  0  3  0  0  0  0  0  0
  160.8960  202.7130  148.5030 C   0  0  0  0  0  3  0  0  0  0  0  0
  161.3750  203.9370  150.5390 C   0  0  0  0  0  0  0  0  0  0  0  0
  161.4890  206.0760  153.5490 C   0  0  0  0  0  2  0  0  0  0  0  0
  160.5900  207.0610  154.2860 C   0  0  0  0  0  2  0  0  0  0  0  0
  161.0590  207.3650  155.7120 C   0  0  1  0  0  3  0  0  0  0  0  0
  160.9270  209.3980  157.1340 C   0  0  0  0  0  2  0  0  0  0  0  0
  161.5490  208.7960  155.8890 C   0  0  0  0  0  3  0  0  0  0  0  0
  162.3570  208.9020  157.1690 C   0  0  0  0  0  2  0  0  0  0  0  0
  158.7800  206.7230  156.1880 O   0  0  0  0  0  1  0  0  0  0  0  0
  160.0260  206.9710  156.7670 C   0  0  0  0  0  2  0  0  0  0  0  0
  162.2720  207.6370  151.2180 C   0  0  0  0  0  2  0  0  0  0  0  0
  162.0900  209.8510  150.1810 C   0  0  0  0  0  2  0  0  0  0  0  0
  161.6370  208.9970  151.1010 C   0  0  0  0  0  0  0  0  0  0  0  0
  161.3560  211.0340  154.0990 O   0  0  0  0  0  1  0  0  0  0  0  0
  161.5550  210.8580  152.7260 C   0  0  2  0  0  3  0  0  0  0  0  0
  160.2460  210.8910  151.9370 C   0  0  2  0  0  3  0  0  0  0  0  0
  159.0030  211.0700  152.7980 C   0  0  0  0  0  1  0  0  0  0  0  0
  160.8990  209.5640  152.2780 C   0  0  1  0  0  3  0  0  0  0  0  0
  1  2  1  0  0  0  0
  2  3  1  0  0  0  0
  3 21  1  1  0  0  0
  3  6  1  0  0  0  0
  3  8  1  0  0  0  0
  4 12  1  0  0  0  0
  6 12  1  6  0  0  0
  6  8  1  0  0  0  0
  7  1  2  0  0  0  0
  7  4  1  0  0  0  0
  8 13  1  1  0  0  0
  9 10  2  0  0  0  0
 10  5  1  0  0  0  0
 11  4  2  0  0  0  0
 11  9  1  0  0  0  0
 12  5  2  0  0  0  0
 13 14  1  0  0  0  0
 15 14  1  6  0  0  0
 15 17  1  0  0  0  0
 15 20  1  0  0  0  0
 16 18  1  0  0  0  0
 17 16  1  0  0  0  0
 17 18  1  0  0  0  0
 19 20  1  0  0  0  0
 22 23  2  0  0  0  0
 23 21  1  0  0  0  0
 25 24  1  1  0  0  0
 26 28  1  0  0  0  0
 26 25  1  0  0  0  0
 26 27  1  1  0  0  0
 28 23  1  6  0  0  0
 28 25  1  0  0  0  0
M  END
>  <MODEL>
5

>  <REMARK>
 VINA RESULT:      -7.1      2.735      6.198
  Name = 
  8 active torsions:
  status: ('A' for Active; 'I' for Inactive)
    1  A    between atoms: C_6  and  C_20
    2  A    between atoms: C_7  and  C_15
    3  A    between atoms: C_7  and  C_27
    4  A    between atoms: C_13  and  C_20
    5  A    between atoms: C_13  and  C_28
    6  A    between atoms: C_14  and  C_16
    7  A    between atoms: C_16  and  C_25
    8  A    between atoms: C_16  and  C_27
                            x       y       z     vdW  Elec       q    Type
                         _______ _______ _______ _____ _____    ______ ____

>  <TORSDO>
F 8

$$$$
=
 OpenBabel11052410523D

 28 32  0  0  1  0  0  0  0  0999 V2000
  160.8850  205.9280  153.8080 C   0  0  0  0  0  3  0  0  0  0  0  0
  160.2200  205.8090  152.4760 C   0  0  0  0  0  2  0  0  0  0  0  0
  161.2620  205.9430  151.3750 C   0  0  2  0  0  0  0  0  0  0  0  0
  161.2580  208.3080  153.5400 C   0  0  0  0  0  0  0  0  0  0  0  0
  161.3380  209.6390  151.5490 N   0  0  0  0  0  0  0  0  0  0  0  0
  161.9880  207.2840  151.2920 C   0  0  1  0  0  3  0  0  0  0  0  0
  161.3320  207.0630  154.2510 N   0  0  0  0  0  0  0  0  0  0  0  0
  160.9300  206.9170  150.2500 C   0  0  1  0  0  3  0  0  0  0  0  0
  160.8170  210.6880  153.6240 C   0  0  0  0  0  3  0  0  0  0  0  0
  161.0100  210.7570  152.2470 C   0  0  0  0  0  3  0  0  0  0  0  0
  160.9480  209.4590  154.2670 C   0  0  0  0  0  3  0  0  0  0  0  0
  161.4650  208.4180  152.1410 C   0  0  0  0  0  0  0  0  0  0  0  0
  161.6200  206.5810  148.9380 C   0  0  0  0  0  2  0  0  0  0  0  0
  160.5900  206.2030  147.8820 C   0  0  0  0  0  2  0  0  0  0  0  0
  161.2040  205.5480  146.6410 C   0  0  1  0  0  3  0  0  0  0  0  0
  161.2550  205.4590  144.1580 C   0  0  0  0  0  2  0  0  0  0  0  0
  160.4140  205.8210  145.3670 C   0  0  0  0  0  3  0  0  0  0  0  0
  160.1680  204.5170  144.6320 C   0  0  0  0  0  2  0  0  0  0  0  0
  163.4540  204.7020  146.4070 O   0  0  0  0  0  1  0  0  0  0  0  0
  162.6900  205.8680  146.4810 C   0  0  0  0  0  2  0  0  0  0  0  0
  162.2130  204.7600  151.1330 C   0  0  0  0  0  2  0  0  0  0  0  0
  161.9260  202.4360  151.8580 C   0  0  0  0  0  2  0  0  0  0  0  0
  161.5070  203.4320  151.0750 C   0  0  0  0  0  0  0  0  0  0  0  0
  161.1770  202.4380  147.5940 O   0  0  0  0  0  1  0  0  0  0  0  0
  161.5750  202.2280  148.9170 C   0  0  2  0  0  3  0  0  0  0  0  0
  160.4780  201.5780  149.7610 C   0  0  2  0  0  3  0  0  0  0  0  0
  159.1780  201.3280  149.0090 C   0  0  0  0  0  1  0  0  0  0  0  0
  160.7230  203.0730  149.8460 C   0  0  1  0  0  3  0  0  0  0  0  0
  1  7  2  0  0  0  0
  2  1  1  0  0  0  0
  3 21  1  6  0  0  0
  3  2  1  0  0  0  0
  4  7  1  0  0  0  0
  4 11  1  0  0  0  0
  5 12  1  0  0  0  0
  5 10  2  0  0  0  0
  6  3  1  0  0  0  0
  6 12  1  1  0  0  0
  8 13  1  6  0  0  0
  8  6  1  0  0  0  0
  8  3  1  0  0  0  0
  9 11  2  0  0  0  0
 10  9  1  0  0  0  0
 12  4  2  0  0  0  0
 14 13  1  0  0  0  0
 15 20  1  6  0  0  0
 15 14  1  0  0  0  0
 16 18  1  0  0  0  0
 16 17  1  0  0  0  0
 17 15  1  0  0  0  0
 18 17  1  0  0  0  0
 19 20  1  0  0  0  0
 23 21  1  0  0  0  0
 23 22  2  0  0  0  0
 25 24  1  6  0  0  0
 25 26  1  0  0  0  0
 25 28  1  0  0  0  0
 26 27  1  6  0  0  0
 26 28  1  0  0  0  0
 28 23  1  1  0  0  0
M  END
>  <MODEL>
6

>  <REMARK>
 VINA RESULT:      -7.0      2.661      5.625
  Name = 
  8 active torsions:
  status: ('A' for Active; 'I' for Inactive)
    1  A    between atoms: C_6  and  C_20
    2  A    between atoms: C_7  and  C_15
    3  A    between atoms: C_7  and  C_27
    4  A    between atoms: C_13  and  C_20
    5  A    between atoms: C_13  and  C_28
    6  A    between atoms: C_14  and  C_16
    7  A    between atoms: C_16  and  C_25
    8  A    between atoms: C_16  and  C_27
                            x       y       z     vdW  Elec       q    Type
                         _______ _______ _______ _____ _____    ______ ____

>  <TORSDO>
F 8

$$$$
=
 OpenBabel11052410523D

 28 32  0  0  1  0  0  0  0  0999 V2000
  161.3360  206.4640  147.9120 C   0  0  0  0  0  3  0  0  0  0  0  0
  160.6050  207.0140  149.0920 C   0  0  0  0  0  2  0  0  0  0  0  0
  161.5390  207.0560  150.2930 C   0  0  2  0  0  0  0  0  0  0  0  0
  161.3460  204.2160  148.8180 C   0  0  0  0  0  0  0  0  0  0  0  0
  161.0980  203.4670  151.0810 N   0  0  0  0  0  0  0  0  0  0  0  0
  162.0590  205.7090  150.7920 C   0  0  1  0  0  3  0  0  0  0  0  0
  161.6450  205.2060  147.8230 N   0  0  0  0  0  0  0  0  0  0  0  0
  160.9960  206.4660  151.5890 C   0  0  1  0  0  3  0  0  0  0  0  0
  160.5760  201.9710  149.3020 C   0  0  0  0  0  3  0  0  0  0  0  0
  160.6620  202.2500  150.6640 C   0  0  0  0  0  3  0  0  0  0  0  0
  160.9250  202.9570  148.3830 C   0  0  0  0  0  3  0  0  0  0  0  0
  161.4390  204.4600  150.2120 C   0  0  0  0  0  0  0  0  0  0  0  0
  161.6350  207.0560  152.8350 C   0  0  0  0  0  2  0  0  0  0  0  0
  160.7990  206.7250  154.0640 C   0  0  0  0  0  2  0  0  0  0  0  0
  160.7510  207.8610  155.0910 C   0  0  1  0  0  3  0  0  0  0  0  0
  160.3020  210.2630  155.5460 C   0  0  0  0  0  2  0  0  0  0  0  0
  160.5400  209.2320  154.4590 C   0  0  0  0  0  3  0  0  0  0  0  0
  161.6590  210.1640  154.8820 C   0  0  0  0  0  2  0  0  0  0  0  0
  160.2970  206.6980  157.1590 O   0  0  0  0  0  1  0  0  0  0  0  0
  159.7630  207.5870  156.2240 C   0  0  0  0  0  2  0  0  0  0  0  0
  162.6310  208.1380  150.3210 C   0  0  0  0  0  2  0  0  0  0  0  0
  161.1670  209.9710  151.0300 C   0  0  0  0  0  2  0  0  0  0  0  0
  162.0890  209.5340  150.1710 C   0  0  0  0  0  0  0  0  0  0  0  0
  160.7810  211.5520  147.4440 O   0  0  0  0  0  1  0  0  0  0  0  0
  161.1840  211.3580  148.7690 C   0  0  2  0  0  3  0  0  0  0  0  0
  162.6710  211.6440  148.9760 C   0  0  2  0  0  3  0  0  0  0  0  0
  163.4120  212.0430  147.7070 C   0  0  0  0  0  1  0  0  0  0  0  0
  162.1810  210.2150  148.8360 C   0  0  1  0  0  3  0  0  0  0  0  0
  1  2  1  0  0  0  0
  2  3  1  0  0  0  0
  3 21  1  1  0  0  0
  3  6  1  0  0  0  0
  3  8  1  0  0  0  0
  4 12  1  0  0  0  0
  6 12  1  6  0  0  0
  6  8  1  0  0  0  0
  7  1  2  0  0  0  0
  7  4  1  0  0  0  0
  8 13  1  1  0  0  0
  9 10  2  0  0  0  0
 10  5  1  0  0  0  0
 11  4  2  0  0  0  0
 11  9  1  0  0  0  0
 12  5  2  0  0  0  0
 13 14  1  0  0  0  0
 15 14  1  6  0  0  0
 15 20  1  0  0  0  0
 17 18  1  0  0  0  0
 17 15  1  0  0  0  0
 17 16  1  0  0  0  0
 18 16  1  0  0  0  0
 20 19  1  0  0  0  0
 23 21  1  0  0  0  0
 23 22  2  0  0  0  0
 25 24  1  6  0  0  0
 25 28  1  0  0  0  0
 25 26  1  0  0  0  0
 26 27  1  6  0  0  0
 28 26  1  0  0  0  0
 28 23  1  1  0  0  0
M  END
>  <MODEL>
7

>  <REMARK>
 VINA RESULT:      -6.9      2.394      6.488
  Name = 
  8 active torsions:
  status: ('A' for Active; 'I' for Inactive)
    1  A    between atoms: C_6  and  C_20
    2  A    between atoms: C_7  and  C_15
    3  A    between atoms: C_7  and  C_27
    4  A    between atoms: C_13  and  C_20
    5  A    between atoms: C_13  and  C_28
    6  A    between atoms: C_14  and  C_16
    7  A    between atoms: C_16  and  C_25
    8  A    between atoms: C_16  and  C_27
                            x       y       z     vdW  Elec       q    Type
                         _______ _______ _______ _____ _____    ______ ____

>  <TORSDO>
F 8

$$$$
=
 OpenBabel11052410523D

 28 32  0  0  1  0  0  0  0  0999 V2000
  161.8200  206.1410  148.3030 C   0  0  0  0  0  3  0  0  0  0  0  0
  162.4000  205.7630  149.6260 C   0  0  0  0  0  2  0  0  0  0  0  0
  161.3200  205.8410  150.6950 C   0  0  2  0  0  0  0  0  0  0  0  0
  161.6610  208.4830  148.9100 C   0  0  0  0  0  0  0  0  0  0  0  0
  161.6050  209.5120  151.0730 N   0  0  0  0  0  0  0  0  0  0  0  0
  160.7210  207.2230  150.9510 C   0  0  1  0  0  3  0  0  0  0  0  0
  161.5070  207.3690  148.0180 N   0  0  0  0  0  0  0  0  0  0  0  0
  161.6830  206.6030  151.9650 C   0  0  1  0  0  3  0  0  0  0  0  0
  162.3300  210.7920  149.2000 C   0  0  0  0  0  3  0  0  0  0  0  0
  162.0740  210.6800  150.5640 C   0  0  0  0  0  3  0  0  0  0  0  0
  162.1160  209.6900  148.3760 C   0  0  0  0  0  3  0  0  0  0  0  0
  161.3930  208.4090  150.3010 C   0  0  0  0  0  0  0  0  0  0  0  0
  160.8970  206.1520  153.1850 C   0  0  0  0  0  2  0  0  0  0  0  0
  161.6100  206.5820  154.4600 C   0  0  0  0  0  2  0  0  0  0  0  0
  160.9310  207.7580  155.1700 C   0  0  1  0  0  3  0  0  0  0  0  0
  160.0220  210.0670  155.0340 C   0  0  0  0  0  2  0  0  0  0  0  0
  160.6240  208.9240  154.2390 C   0  0  0  0  0  3  0  0  0  0  0  0
  161.4780  210.1170  154.6210 C   0  0  0  0  0  2  0  0  0  0  0  0
  160.0860  206.6450  157.1410 O   0  0  0  0  0  1  0  0  0  0  0  0
  159.7100  207.3270  155.9820 C   0  0  0  0  0  2  0  0  0  0  0  0
  160.2490  204.7390  150.7220 C   0  0  0  0  0  2  0  0  0  0  0  0
  161.2060  202.8860  152.0100 C   0  0  0  0  0  2  0  0  0  0  0  0
  160.8260  203.3520  150.8200 C   0  0  0  0  0  0  0  0  0  0  0  0
  161.5740  200.5480  148.6300 O   0  0  0  0  0  1  0  0  0  0  0  0
  160.6990  201.4320  149.2680 C   0  0  2  0  0  3  0  0  0  0  0  0
  160.4400  202.6940  148.4450 C   0  0  2  0  0  3  0  0  0  0  0  0
  161.2070  202.7490  147.1310 C   0  0  0  0  0  1  0  0  0  0  0  0
  161.4280  202.7220  149.5970 C   0  0  1  0  0  3  0  0  0  0  0  0
  1  2  1  0  0  0  0
  2  3  1  0  0  0  0
  3 21  1  1  0  0  0
  3  6  1  0  0  0  0
  3  8  1  0  0  0  0
  4 12  1  0  0  0  0
  6 12  1  6  0  0  0
  6  8  1  0  0  0  0
  7  1  2  0  0  0  0
  7  4  1  0  0  0  0
  8 13  1  1  0  0  0
  9 10  2  0  0  0  0
 10  5  1  0  0  0  0
 11  4  2  0  0  0  0
 11  9  1  0  0  0  0
 12  5  2  0  0  0  0
 13 14  1  0  0  0  0
 15 14  1  6  0  0  0
 15 20  1  0  0  0  0
 17 18  1  0  0  0  0
 17 16  1  0  0  0  0
 17 15  1  0  0  0  0
 18 16  1  0  0  0  0
 20 19  1  0  0  0  0
 21 23  1  0  0  0  0
 23 22  2  0  0  0  0
 25 24  1  6  0  0  0
 25 28  1  0  0  0  0
 26 27  1  6  0  0  0
 26 25  1  0  0  0  0
 26 28  1  0  0  0  0
 28 23  1  1  0  0  0
M  END
>  <MODEL>
8

>  <REMARK>
 VINA RESULT:      -6.7      2.468      7.789
  Name = 
  8 active torsions:
  status: ('A' for Active; 'I' for Inactive)
    1  A    between atoms: C_6  and  C_20
    2  A    between atoms: C_7  and  C_15
    3  A    between atoms: C_7  and  C_27
    4  A    between atoms: C_13  and  C_20
    5  A    between atoms: C_13  and  C_28
    6  A    between atoms: C_14  and  C_16
    7  A    between atoms: C_16  and  C_25
    8  A    between atoms: C_16  and  C_27
                            x       y       z     vdW  Elec       q    Type
                         _______ _______ _______ _____ _____    ______ ____

>  <TORSDO>
F 8

$$$$
=
 OpenBabel11052410523D

 28 32  0  0  1  0  0  0  0  0999 V2000
  161.0230  209.3910  152.5640 C   0  0  0  0  0  3  0  0  0  0  0  0
  160.4560  208.3760  151.6270 C   0  0  0  0  0  2  0  0  0  0  0  0
  161.5850  207.7200  150.8460 C   0  0  2  0  0  0  0  0  0  0  0  0
  161.5570  210.9260  150.7660 C   0  0  0  0  0  0  0  0  0  0  0  0
  161.8680  210.5070  148.4270 N   0  0  0  0  0  0  0  0  0  0  0  0
  162.3950  208.6370  149.9310 C   0  0  1  0  0  3  0  0  0  0  0  0
  161.5020  210.5220  152.1420 N   0  0  0  0  0  0  0  0  0  0  0  0
  161.4000  207.6400  149.3350 C   0  0  1  0  0  3  0  0  0  0  0  0
  161.2540  212.6950  149.1400 C   0  0  0  0  0  3  0  0  0  0  0  0
  161.5550  211.7930  148.1230 C   0  0  0  0  0  3  0  0  0  0  0  0
  161.2620  212.2560  150.4620 C   0  0  0  0  0  3  0  0  0  0  0  0
  161.8770  210.0380  149.7060 C   0  0  0  0  0  0  0  0  0  0  0  0
  162.1670  206.4960  148.6930 C   0  0  0  0  0  2  0  0  0  0  0  0
  162.0870  206.5950  147.1750 C   0  0  0  0  0  2  0  0  0  0  0  0
  161.3670  205.4090  146.5240 C   0  0  1  0  0  3  0  0  0  0  0  0
  161.2230  205.4550  144.0440 C   0  0  0  0  0  2  0  0  0  0  0  0
  160.5070  205.8120  145.3330 C   0  0  0  0  0  3  0  0  0  0  0  0
  160.1040  204.5730  144.5560 C   0  0  0  0  0  2  0  0  0  0  0  0
  163.6310  204.7030  146.0650 O   0  0  0  0  0  1  0  0  0  0  0  0
  162.3140  204.2570  146.1930 C   0  0  0  0  0  2  0  0  0  0  0  0
  162.4800  206.7090  151.5810 C   0  0  0  0  0  2  0  0  0  0  0  0
  161.3670  205.4480  153.3630 C   0  0  0  0  0  2  0  0  0  0  0  0
  161.7290  205.5040  152.0810 C   0  0  0  0  0  0  0  0  0  0  0  0
  161.4690  201.8930  151.7480 O   0  0  0  0  0  1  0  0  0  0  0  0
  160.9330  203.1670  151.9600 C   0  0  2  0  0  3  0  0  0  0  0  0
  160.5210  203.8510  150.6560 C   0  0  2  0  0  3  0  0  0  0  0  0
  160.8080  203.0330  149.4050 C   0  0  0  0  0  1  0  0  0  0  0  0
  161.8350  204.2110  151.3260 C   0  0  1  0  0  3  0  0  0  0  0  0
  2  1  1  0  0  0  0
  3 21  1  1  0  0  0
  3  2  1  0  0  0  0
  4  7  1  0  0  0  0
  5 12  1  0  0  0  0
  6 12  1  1  0  0  0
  6  3  1  0  0  0  0
  7  1  2  0  0  0  0
  8 13  1  6  0  0  0
  8  6  1  0  0  0  0
  8  3  1  0  0  0  0
  9 11  2  0  0  0  0
 10  5  2  0  0  0  0
 10  9  1  0  0  0  0
 11  4  1  0  0  0  0
 12  4  2  0  0  0  0
 14 13  1  0  0  0  0
 15 20  1  6  0  0  0
 15 14  1  0  0  0  0
 16 18  1  0  0  0  0
 16 17  1  0  0  0  0
 17 15  1  0  0  0  0
 18 17  1  0  0  0  0
 19 20  1  0  0  0  0
 21 23  1  0  0  0  0
 23 22  2  0  0  0  0
 25 24  1  6  0  0  0
 26 27  1  6  0  0  0
 26 28  1  0  0  0  0
 26 25  1  0  0  0  0
 28 25  1  0  0  0  0
 28 23  1  1  0  0  0
M  END
>  <MODEL>
9

>  <REMARK>
 VINA RESULT:      -6.7      2.814      5.578
  Name = 
  8 active torsions:
  status: ('A' for Active; 'I' for Inactive)
    1  A    between atoms: C_6  and  C_20
    2  A    between atoms: C_7  and  C_15
    3  A    between atoms: C_7  and  C_27
    4  A    between atoms: C_13  and  C_20
    5  A    between atoms: C_13  and  C_28
    6  A    between atoms: C_14  and  C_16
    7  A    between atoms: C_16  and  C_25
    8  A    between atoms: C_16  and  C_27
                            x       y       z     vdW  Elec       q    Type
                         _______ _______ _______ _____ _____    ______ ____

>  <TORSDO>
F 8

$$$$
