=
 OpenBabel11042420063D

 42 45  0  0  1  0  0  0  0  0999 V2000
  159.1740  212.3140  152.6810 C   0  0  0  0  0  0  0  0  0  0  0  0
  159.4120  212.8590  151.4090 C   0  0  0  0  0  0  0  0  0  0  0  0
  158.8940  214.4530  152.8200 C   0  0  0  0  0  3  0  0  0  0  0  0
  159.9660  211.1090  152.7970 C   0  0  0  0  0  0  0  0  0  0  0  0
  159.1990  214.2880  151.5230 C   0  0  0  0  0  3  0  0  0  0  0  0
  160.6310  210.9720  151.6420 C   0  0  0  0  0  0  0  0  0  0  0  0
  160.3030  212.1320  150.7490 C   0  0  0  0  0  0  0  0  0  0  0  0
  158.9580  213.2220  153.5660 N   0  0  0  0  0  0  0  0  0  0  0  0
  160.1200  210.2950  153.9730 C   0  0  0  0  0  0  0  0  0  0  0  0
  160.2440  209.6430  154.9190 N   0  0  0  0  0  0  0  0  0  0  0  0
  161.5930  209.9330  151.4320 N   0  0  0  0  0  2  0  0  0  0  0  0
  161.7570  208.3450  149.0980 C   0  0  0  0  0  1  0  0  0  0  0  0
  161.2700  208.5730  151.4730 N   0  0  0  0  0  0  0  0  0  0  0  0
  161.3240  207.8140  150.4230 C   0  0  0  0  0  0  0  0  0  0  0  0
  160.9790  206.3710  150.5470 C   0  0  0  0  0  2  0  0  0  0  0  0
  161.7950  205.5510  149.5540 C   0  0  0  0  0  2  0  0  0  0  0  0
  161.0360  204.3420  149.0090 C   0  0  2  0  0  3  0  0  0  0  0  0
  160.8120  203.3230  150.0380 N   0  0  0  0  0  2  0  0  0  0  0  0
  160.3060  202.2100  149.4550 O   0  0  0  0  0  1  0  0  0  0  0  0
  161.6430  203.7790  147.7240 C   0  0  0  0  0  2  0  0  0  0  0  0
  162.6610  205.5600  146.3310 C   0  0  0  0  0  1  0  0  0  0  0  0
  161.4180  204.7230  146.5520 C   0  0  1  0  0  3  0  0  0  0  0  0
  161.0220  204.5720  144.2070 O   0  0  0  0  0  0  0  0  0  0  0  0
  161.0880  203.9650  145.3080 C   0  0  0  0  0  0  0  0  0  0  0  0
  160.8570  202.5950  145.3550 O   0  0  0  0  0  1  0  0  0  0  0  0
  161.1030  212.6890  149.7000 N   0  0  0  0  0  2  0  0  0  0  0  0
  161.5960  211.9560  148.5450 C   0  0  2  0  0  3  0  0  0  0  0  0
  160.7210  213.4780  146.7580 C   0  0  2  0  0  3  0  0  0  0  0  0
  162.8420  213.8310  147.4400 C   0  0  0  0  0  2  0  0  0  0  0  0
  162.9790  212.4790  148.1470 C   0  0  0  0  0  2  0  0  0  0  0  0
  162.0340  213.6950  146.2980 O   0  0  0  0  0  0  0  0  0  0  0  0
  160.6170  212.0810  147.3720 C   0  0  0  0  0  2  0  0  0  0  0  0
  159.7870  213.5890  145.6520 N   0  0  0  0  0  2  0  0  0  0  0  0
  159.9860  212.4250  144.8060 C   0  0  0  0  0  2  0  0  0  0  0  0
  159.9210  212.8430  143.3480 C   0  0  2  0  0  3  0  0  0  0  0  0
  162.3580  212.3170  143.4470 F   0  0  0  0  0  0  0  0  0  0  0  0
  160.2450  211.6500  142.4590 C   0  0  0  0  0  2  0  0  0  0  0  0
  161.2780  212.7270  142.6790 C   0  0  1  0  0  0  0  0  0  0  0  0
  161.5090  213.6190  141.4640 C   0  0  2  0  0  3  0  0  0  0  0  0
  160.6220  213.3000  140.4300 O   0  0  0  0  0  1  0  0  0  0  0  0
  163.0530  212.5950  139.9340 C   0  0  0  0  0  1  0  0  0  0  0  0
  162.8980  213.5780  141.0010 N   0  0  0  0  0  2  0  0  0  0  0  0
  1  4  1  0  0  0  0
  1  8  2  0  0  0  0
  2  5  1  0  0  0  0
  2  1  1  0  0  0  0
  3  8  1  0  0  0  0
  4  9  1  0  0  0  0
  5  3  2  0  0  0  0
  6  4  2  0  0  0  0
  7  2  2  0  0  0  0
  7  6  1  0  0  0  0
  9 10  3  0  0  0  0
 11 13  1  0  0  0  0
 11  6  1  0  0  0  0
 12 14  1  0  0  0  0
 14 15  1  0  0  0  0
 14 13  2  0  0  0  0
 16 15  1  0  0  0  0
 17 20  1  6  0  0  0
 17 16  1  0  0  0  0
 17 18  1  0  0  0  0
 19 18  1  0  0  0  0
 22 21  1  6  0  0  0
 22 20  1  0  0  0  0
 23 24  2  0  0  0  0
 24 25  1  0  0  0  0
 24 22  1  0  0  0  0
 26  7  1  0  0  0  0
 27 26  1  1  0  0  0
 28 33  1  6  0  0  0
 28 32  1  0  0  0  0
 29 30  1  0  0  0  0
 30 27  1  0  0  0  0
 31 28  1  0  0  0  0
 31 29  1  0  0  0  0
 32 27  1  0  0  0  0
 34 33  1  0  0  0  0
 35 34  1  1  0  0  0
 37 38  1  0  0  0  0
 37 35  1  0  0  0  0
 38 35  1  0  0  0  0
 38 36  1  1  0  0  0
 39 40  1  6  0  0  0
 39 38  1  0  0  0  0
 41 42  1  0  0  0  0
 42 39  1  0  0  0  0
M  END
>  <MODEL>
1

>  <REMARK>
 VINA RESULT:      -6.3      0.000      0.000
  Name = 
  17 active torsions:
  status: ('A' for Active; 'I' for Inactive)
    1  A    between atoms: C_1  and  C_39
    2  A    between atoms: N_2  and  C_16
    3  A    between atoms: C_7  and  N_11
    4  A    between atoms: C_7  and  C_42
    5  A    between atoms: C_8  and  C_15
    6  A    between atoms: N_9  and  C_13
    7  A    between atoms: N_9  and  C_29
    8  A    between atoms: C_12  and  C_30
    9  A    between atoms: C_12  and  C_36
   10  A    between atoms: C_16  and  C_17
   11  A    between atoms: C_16  and  C_36
   12  A    between atoms: C_17  and  C_41
   13  A    between atoms: N_18  and  C_28
   14  A    between atoms: N_18  and  N_31
   15  A    between atoms: C_20  and  N_37
   16  A    between atoms: C_35  and  C_41
   17  A    between atoms: N_37  and  C_39
                            x       y       z     vdW  Elec       q    Type
                         _______ _______ _______ _____ _____    ______ ____

>  <TORSDO>
F 17

$$$$
=
 OpenBabel11042420063D

 42 45  0  0  1  0  0  0  0  0999 V2000
  160.9420  204.9800  148.5510 C   0  0  0  0  0  0  0  0  0  0  0  0
  160.4390  205.5360  149.7380 C   0  0  0  0  0  0  0  0  0  0  0  0
  161.0940  203.4770  150.0980 C   0  0  0  0  0  3  0  0  0  0  0  0
  161.4720  206.0610  147.7500 C   0  0  0  0  0  0  0  0  0  0  0  0
  160.5340  204.5060  150.7530 C   0  0  0  0  0  3  0  0  0  0  0  0
  161.2840  207.1880  148.4500 C   0  0  0  0  0  0  0  0  0  0  0  0
  160.6460  206.8460  149.7630 C   0  0  0  0  0  0  0  0  0  0  0  0
  161.4270  203.8020  148.7340 N   0  0  0  0  0  0  0  0  0  0  0  0
  162.1890  205.9360  146.5100 C   0  0  0  0  0  0  0  0  0  0  0  0
  162.7660  205.8360  145.5120 N   0  0  0  0  0  0  0  0  0  0  0  0
  161.7740  208.4570  148.0030 N   0  0  0  0  0  2  0  0  0  0  0  0
  161.0640  211.0740  147.2040 C   0  0  0  0  0  1  0  0  0  0  0  0
  161.9800  209.5420  148.8600 N   0  0  0  0  0  0  0  0  0  0  0  0
  161.6760  210.7570  148.5270 C   0  0  0  0  0  0  0  0  0  0  0  0
  161.9110  211.8610  149.4990 C   0  0  0  0  0  2  0  0  0  0  0  0
  161.3680  213.1720  148.9420 C   0  0  0  0  0  2  0  0  0  0  0  0
  160.2660  213.7800  149.8100 C   0  0  2  0  0  3  0  0  0  0  0  0
  159.8470  212.8740  150.8830 N   0  0  0  0  0  2  0  0  0  0  0  0
  159.7060  213.5830  152.0290 O   0  0  0  0  0  1  0  0  0  0  0  0
  159.0970  214.3360  148.9960 C   0  0  0  0  0  2  0  0  0  0  0  0
  156.8400  213.3110  149.0370 C   0  0  0  0  0  1  0  0  0  0  0  0
  158.2300  213.2140  148.4450 C   0  0  1  0  0  3  0  0  0  0  0  0
  159.0340  213.9050  146.3110 O   0  0  0  0  0  1  0  0  0  0  0  0
  158.1530  213.2770  146.9550 C   0  0  0  0  0  0  0  0  0  0  0  0
  157.1210  212.6430  146.2730 O   0  0  0  0  0  0  0  0  0  0  0  0
  160.7210  207.5740  150.9950 N   0  0  0  0  0  2  0  0  0  0  0  0
  161.9180  207.7190  151.8080 C   0  0  2  0  0  3  0  0  0  0  0  0
  161.1090  209.5580  153.3050 C   0  0  2  0  0  3  0  0  0  0  0  0
  160.8520  207.4470  154.0610 C   0  0  0  0  0  2  0  0  0  0  0  0
  161.8180  206.8270  153.0480 C   0  0  0  0  0  2  0  0  0  0  0  0
  161.2990  208.7290  154.4280 O   0  0  0  0  0  0  0  0  0  0  0  0
  162.1150  209.1840  152.2150 C   0  0  0  0  0  2  0  0  0  0  0  0
  161.3000  210.9470  153.6810 N   0  0  0  0  0  2  0  0  0  0  0  0
  161.1720  211.0210  155.1260 C   0  0  0  0  0  2  0  0  0  0  0  0
  160.0900  212.0230  155.4860 C   0  0  2  0  0  3  0  0  0  0  0  0
  158.6900  209.9590  155.5660 F   0  0  0  0  0  0  0  0  0  0  0  0
  159.6060  211.7630  156.9060 C   0  0  0  0  0  2  0  0  0  0  0  0
  158.7600  211.3350  155.7320 C   0  0  1  0  0  0  0  0  0  0  0  0
  157.5120  212.1870  155.5260 C   0  0  2  0  0  3  0  0  0  0  0  0
  156.6810  211.6330  154.5450 O   0  0  0  0  0  1  0  0  0  0  0  0
  156.8530  214.1460  154.3020 C   0  0  0  0  0  1  0  0  0  0  0  0
  157.8370  213.5810  155.2180 N   0  0  0  0  0  2  0  0  0  0  0  0
  1  8  1  0  0  0  0
  1  2  1  0  0  0  0
  2  7  1  0  0  0  0
  2  5  2  0  0  0  0
  3  5  1  0  0  0  0
  4  6  1  0  0  0  0
  4  1  2  0  0  0  0
  6  7  2  0  0  0  0
  7 26  1  0  0  0  0
  8  3  2  0  0  0  0
  9  4  1  0  0  0  0
 10  9  3  0  0  0  0
 11  6  1  0  0  0  0
 11 13  1  0  0  0  0
 12 14  1  0  0  0  0
 14 13  2  0  0  0  0
 14 15  1  0  0  0  0
 16 15  1  0  0  0  0
 17 16  1  6  0  0  0
 17 18  1  0  0  0  0
 18 19  1  0  0  0  0
 20 17  1  0  0  0  0
 22 20  1  0  0  0  0
 22 21  1  1  0  0  0
 23 24  1  0  0  0  0
 24 22  1  0  0  0  0
 25 24  2  0  0  0  0
 27 26  1  1  0  0  0
 27 32  1  0  0  0  0
 27 30  1  0  0  0  0
 28 33  1  1  0  0  0
 28 31  1  0  0  0  0
 29 31  1  0  0  0  0
 30 29  1  0  0  0  0
 32 28  1  0  0  0  0
 33 34  1  0  0  0  0
 35 34  1  6  0  0  0
 35 38  1  0  0  0  0
 35 37  1  0  0  0  0
 38 36  1  6  0  0  0
 38 37  1  0  0  0  0
 39 40  1  6  0  0  0
 39 38  1  0  0  0  0
 41 42  1  0  0  0  0
 42 39  1  0  0  0  0
M  END
>  <MODEL>
2

>  <REMARK>
 VINA RESULT:      -6.2      4.500      9.793
  Name = 
  17 active torsions:
  status: ('A' for Active; 'I' for Inactive)
    1  A    between atoms: C_1  and  C_39
    2  A    between atoms: N_2  and  C_16
    3  A    between atoms: C_7  and  N_11
    4  A    between atoms: C_7  and  C_42
    5  A    between atoms: C_8  and  C_15
    6  A    between atoms: N_9  and  C_13
    7  A    between atoms: N_9  and  C_29
    8  A    between atoms: C_12  and  C_30
    9  A    between atoms: C_12  and  C_36
   10  A    between atoms: C_16  and  C_17
   11  A    between atoms: C_16  and  C_36
   12  A    between atoms: C_17  and  C_41
   13  A    between atoms: N_18  and  C_28
   14  A    between atoms: N_18  and  N_31
   15  A    between atoms: C_20  and  N_37
   16  A    between atoms: C_35  and  C_41
   17  A    between atoms: N_37  and  C_39
                            x       y       z     vdW  Elec       q    Type
                         _______ _______ _______ _____ _____    ______ ____

>  <TORSDO>
F 17

$$$$
=
 OpenBabel11042420063D

 42 45  0  0  1  0  0  0  0  0999 V2000
  161.6920  203.6730  146.8080 C   0  0  0  0  0  0  0  0  0  0  0  0
  162.1020  205.0130  146.8940 C   0  0  0  0  0  0  0  0  0  0  0  0
  161.3940  204.5770  144.8670 C   0  0  0  0  0  3  0  0  0  0  0  0
  161.2420  203.2680  148.1220 C   0  0  0  0  0  0  0  0  0  0  0  0
  161.9120  205.5920  145.5780 C   0  0  0  0  0  3  0  0  0  0  0  0
  161.3860  204.3310  148.9240 C   0  0  0  0  0  0  0  0  0  0  0  0
  161.9100  205.4830  148.1190 C   0  0  0  0  0  0  0  0  0  0  0  0
  161.1790  203.3950  145.6610 N   0  0  0  0  0  0  0  0  0  0  0  0
  160.6270  202.0150  148.4670 C   0  0  0  0  0  0  0  0  0  0  0  0
  160.1330  201.0070  148.7460 N   0  0  0  0  0  0  0  0  0  0  0  0
  160.9500  204.3250  150.2870 N   0  0  0  0  0  2  0  0  0  0  0  0
  160.7260  203.7920  153.0550 C   0  0  0  0  0  1  0  0  0  0  0  0
  161.3710  205.2680  151.2290 N   0  0  0  0  0  0  0  0  0  0  0  0
  161.2760  205.0650  152.5060 C   0  0  0  0  0  0  0  0  0  0  0  0
  161.7600  206.1110  153.4500 C   0  0  0  0  0  2  0  0  0  0  0  0
  160.6510  207.1200  153.7250 C   0  0  0  0  0  2  0  0  0  0  0  0
  161.0360  208.1610  154.7750 C   0  0  2  0  0  3  0  0  0  0  0  0
  161.1830  207.5710  156.1090 N   0  0  0  0  0  2  0  0  0  0  0  0
  160.0010  207.0230  156.4820 O   0  0  0  0  0  1  0  0  0  0  0  0
  160.1360  209.3960  154.7580 C   0  0  0  0  0  2  0  0  0  0  0  0
  162.2580  210.3900  153.9480 C   0  0  0  0  0  1  0  0  0  0  0  0
  160.9580  210.6740  154.6710 C   0  0  1  0  0  3  0  0  0  0  0  0
  159.7790  212.7430  154.6040 O   0  0  0  0  0  1  0  0  0  0  0  0
  160.2040  211.7500  153.9590 C   0  0  0  0  0  0  0  0  0  0  0  0
  159.9750  211.6660  152.5910 O   0  0  0  0  0  0  0  0  0  0  0  0
  161.7430  206.8830  148.3720 N   0  0  0  0  0  2  0  0  0  0  0  0
  162.7990  207.7870  148.7990 C   0  0  2  0  0  3  0  0  0  0  0  0
  161.4990  209.9260  148.6940 C   0  0  2  0  0  3  0  0  0  0  0  0
  161.5790  208.8870  150.6950 C   0  0  0  0  0  2  0  0  0  0  0  0
  162.7470  207.9690  150.3180 C   0  0  0  0  0  2  0  0  0  0  0  0
  161.7300  210.1360  150.0670 O   0  0  0  0  0  0  0  0  0  0  0  0
  162.6640  209.1400  148.0910 C   0  0  0  0  0  2  0  0  0  0  0  0
  161.3770  211.2030  148.0140 N   0  0  0  0  0  2  0  0  0  0  0  0
  162.3940  212.0810  148.5670 C   0  0  0  0  0  2  0  0  0  0  0  0
  162.9630  212.9520  147.4620 C   0  0  2  0  0  3  0  0  0  0  0  0
  160.5800  213.6680  147.2730 F   0  0  0  0  0  0  0  0  0  0  0  0
  162.8160  214.4200  147.8420 C   0  0  0  0  0  2  0  0  0  0  0  0
  161.8850  213.8090  146.8230 C   0  0  1  0  0  0  0  0  0  0  0  0
  162.1480  214.2670  145.3930 C   0  0  2  0  0  3  0  0  0  0  0  0
  160.9480  214.4530  144.6960 O   0  0  0  0  0  1  0  0  0  0  0  0
  163.3870  213.9050  143.3670 C   0  0  0  0  0  1  0  0  0  0  0  0
  163.0420  213.3580  144.6740 N   0  0  0  0  0  2  0  0  0  0  0  0
  1  2  1  0  0  0  0
  1  4  1  0  0  0  0
  2  7  2  0  0  0  0
  3  5  2  0  0  0  0
  3  8  1  0  0  0  0
  4  9  1  0  0  0  0
  4  6  2  0  0  0  0
  5  2  1  0  0  0  0
  6 11  1  0  0  0  0
  7 26  1  0  0  0  0
  7  6  1  0  0  0  0
  8  1  2  0  0  0  0
  9 10  3  0  0  0  0
 11 13  1  0  0  0  0
 13 14  2  0  0  0  0
 14 12  1  0  0  0  0
 14 15  1  0  0  0  0
 15 16  1  0  0  0  0
 17 16  1  6  0  0  0
 17 18  1  0  0  0  0
 18 19  1  0  0  0  0
 20 17  1  0  0  0  0
 22 21  1  6  0  0  0
 22 20  1  0  0  0  0
 24 23  1  0  0  0  0
 24 22  1  0  0  0  0
 25 24  2  0  0  0  0
 27 26  1  6  0  0  0
 27 30  1  0  0  0  0
 28 33  1  6  0  0  0
 28 31  1  0  0  0  0
 30 29  1  0  0  0  0
 31 29  1  0  0  0  0
 32 28  1  0  0  0  0
 32 27  1  0  0  0  0
 33 34  1  0  0  0  0
 35 37  1  0  0  0  0
 35 34  1  1  0  0  0
 38 36  1  1  0  0  0
 38 35  1  0  0  0  0
 38 37  1  0  0  0  0
 39 40  1  6  0  0  0
 39 38  1  0  0  0  0
 41 42  1  0  0  0  0
 42 39  1  0  0  0  0
M  END
>  <MODEL>
3

>  <REMARK>
 VINA RESULT:      -6.2      3.432      7.636
  Name = 
  17 active torsions:
  status: ('A' for Active; 'I' for Inactive)
    1  A    between atoms: C_1  and  C_39
    2  A    between atoms: N_2  and  C_16
    3  A    between atoms: C_7  and  N_11
    4  A    between atoms: C_7  and  C_42
    5  A    between atoms: C_8  and  C_15
    6  A    between atoms: N_9  and  C_13
    7  A    between atoms: N_9  and  C_29
    8  A    between atoms: C_12  and  C_30
    9  A    between atoms: C_12  and  C_36
   10  A    between atoms: C_16  and  C_17
   11  A    between atoms: C_16  and  C_36
   12  A    between atoms: C_17  and  C_41
   13  A    between atoms: N_18  and  C_28
   14  A    between atoms: N_18  and  N_31
   15  A    between atoms: C_20  and  N_37
   16  A    between atoms: C_35  and  C_41
   17  A    between atoms: N_37  and  C_39
                            x       y       z     vdW  Elec       q    Type
                         _______ _______ _______ _____ _____    ______ ____

>  <TORSDO>
F 17

$$$$
=
 OpenBabel11042420063D

 42 45  0  0  1  0  0  0  0  0999 V2000
  160.8690  207.8160  154.7940 C   0  0  0  0  0  0  0  0  0  0  0  0
  160.5460  209.1820  154.8390 C   0  0  0  0  0  0  0  0  0  0  0  0
  161.5110  208.5790  156.7120 C   0  0  0  0  0  3  0  0  0  0  0  0
  161.0920  207.4650  153.4080 C   0  0  0  0  0  0  0  0  0  0  0  0
  160.9670  209.6660  156.1390 C   0  0  0  0  0  3  0  0  0  0  0  0
  160.9080  208.5820  152.6920 C   0  0  0  0  0  0  0  0  0  0  0  0
  160.5900  209.7130  153.6250 C   0  0  0  0  0  0  0  0  0  0  0  0
  161.5240  207.4370  155.8350 N   0  0  0  0  0  0  0  0  0  0  0  0
  161.5600  206.1990  152.9110 C   0  0  0  0  0  0  0  0  0  0  0  0
  161.9360  205.1820  152.5100 N   0  0  0  0  0  0  0  0  0  0  0  0
  161.1390  208.6330  151.2800 N   0  0  0  0  0  2  0  0  0  0  0  0
  162.1470  208.5330  148.6410 C   0  0  0  0  0  1  0  0  0  0  0  0
  160.7350  207.6230  150.4030 N   0  0  0  0  0  0  0  0  0  0  0  0
  161.1660  207.5480  149.1830 C   0  0  0  0  0  0  0  0  0  0  0  0
  160.7020  206.4340  148.3100 C   0  0  0  0  0  2  0  0  0  0  0  0
  161.8700  205.5190  147.9640 C   0  0  0  0  0  2  0  0  0  0  0  0
  161.8970  205.1120  146.4920 C   0  0  2  0  0  3  0  0  0  0  0  0
  160.7430  205.6350  145.7550 N   0  0  0  0  0  2  0  0  0  0  0  0
  161.0070  205.5840  144.4270 O   0  0  0  0  0  1  0  0  0  0  0  0
  162.1170  203.6130  146.2850 C   0  0  0  0  0  2  0  0  0  0  0  0
  160.5070  201.9440  145.4080 C   0  0  0  0  0  1  0  0  0  0  0  0
  160.8520  202.8250  146.5900 C   0  0  1  0  0  3  0  0  0  0  0  0
  161.1950  200.7470  147.7040 O   0  0  0  0  0  0  0  0  0  0  0  0
  161.0240  201.9880  147.8160 C   0  0  0  0  0  0  0  0  0  0  0  0
  161.0010  202.5700  149.0780 O   0  0  0  0  0  1  0  0  0  0  0  0
  160.8160  211.1130  153.4210 N   0  0  0  0  0  2  0  0  0  0  0  0
  159.9250  212.1760  153.8580 C   0  0  2  0  0  3  0  0  0  0  0  0
  159.2660  213.0360  151.5990 C   0  0  2  0  0  3  0  0  0  0  0  0
  157.9000  211.5060  152.5390 C   0  0  0  0  0  2  0  0  0  0  0  0
  158.4900  211.6510  153.9450 C   0  0  0  0  0  2  0  0  0  0  0  0
  157.9170  212.7490  151.8820 O   0  0  0  0  0  0  0  0  0  0  0  0
  160.0030  213.3680  152.8970 C   0  0  0  0  0  2  0  0  0  0  0  0
  159.3490  214.1690  150.6950 N   0  0  0  0  0  2  0  0  0  0  0  0
  160.6350  214.0870  150.0230 C   0  0  0  0  0  2  0  0  0  0  0  0
  160.4730  213.3360  148.7140 C   0  0  2  0  0  3  0  0  0  0  0  0
  162.6450  214.4530  148.2050 F   0  0  0  0  0  0  0  0  0  0  0  0
  161.5840  212.3030  148.5770 C   0  0  0  0  0  2  0  0  0  0  0  0
  161.6470  213.5870  147.7850 C   0  0  1  0  0  0  0  0  0  0  0  0
  161.3780  213.4070  146.2950 C   0  0  2  0  0  3  0  0  0  0  0  0
  160.5010  212.3390  146.0670 O   0  0  0  0  0  1  0  0  0  0  0  0
  162.3100  213.0390  144.1120 C   0  0  0  0  0  1  0  0  0  0  0  0
  162.6120  213.2520  145.5230 N   0  0  0  0  0  2  0  0  0  0  0  0
  1  2  1  0  0  0  0
  1  8  1  0  0  0  0
  2  5  2  0  0  0  0
  4  1  2  0  0  0  0
  5  3  1  0  0  0  0
  6  4  1  0  0  0  0
  6  7  2  0  0  0  0
  7  2  1  0  0  0  0
  8  3  2  0  0  0  0
  9  4  1  0  0  0  0
 10  9  3  0  0  0  0
 11  6  1  0  0  0  0
 12 14  1  0  0  0  0
 13 11  1  0  0  0  0
 14 13  2  0  0  0  0
 15 14  1  0  0  0  0
 16 15  1  0  0  0  0
 17 20  1  1  0  0  0
 17 16  1  0  0  0  0
 18 17  1  0  0  0  0
 19 18  1  0  0  0  0
 20 22  1  0  0  0  0
 22 21  1  6  0  0  0
 22 24  1  0  0  0  0
 23 24  2  0  0  0  0
 24 25  1  0  0  0  0
 26  7  1  0  0  0  0
 27 26  1  6  0  0  0
 27 30  1  0  0  0  0
 28 33  1  6  0  0  0
 28 31  1  0  0  0  0
 28 32  1  0  0  0  0
 29 30  1  0  0  0  0
 31 29  1  0  0  0  0
 32 27  1  0  0  0  0
 34 33  1  0  0  0  0
 35 34  1  1  0  0  0
 37 35  1  0  0  0  0
 38 36  1  1  0  0  0
 38 37  1  0  0  0  0
 38 35  1  0  0  0  0
 39 40  1  1  0  0  0
 39 38  1  0  0  0  0
 41 42  1  0  0  0  0
 42 39  1  0  0  0  0
M  END
>  <MODEL>
4

>  <REMARK>
 VINA RESULT:      -6.1      2.404      4.840
  Name = 
  17 active torsions:
  status: ('A' for Active; 'I' for Inactive)
    1  A    between atoms: C_1  and  C_39
    2  A    between atoms: N_2  and  C_16
    3  A    between atoms: C_7  and  N_11
    4  A    between atoms: C_7  and  C_42
    5  A    between atoms: C_8  and  C_15
    6  A    between atoms: N_9  and  C_13
    7  A    between atoms: N_9  and  C_29
    8  A    between atoms: C_12  and  C_30
    9  A    between atoms: C_12  and  C_36
   10  A    between atoms: C_16  and  C_17
   11  A    between atoms: C_16  and  C_36
   12  A    between atoms: C_17  and  C_41
   13  A    between atoms: N_18  and  C_28
   14  A    between atoms: N_18  and  N_31
   15  A    between atoms: C_20  and  N_37
   16  A    between atoms: C_35  and  C_41
   17  A    between atoms: N_37  and  C_39
                            x       y       z     vdW  Elec       q    Type
                         _______ _______ _______ _____ _____    ______ ____

>  <TORSDO>
F 17

$$$$
=
 OpenBabel11042420063D

 42 45  0  0  1  0  0  0  0  0999 V2000
  160.9340  204.2530  148.5480 C   0  0  0  0  0  0  0  0  0  0  0  0
  160.3370  204.6660  149.7500 C   0  0  0  0  0  0  0  0  0  0  0  0
  160.6000  202.4910  149.7550 C   0  0  0  0  0  3  0  0  0  0  0  0
  161.7480  205.3470  148.0650 C   0  0  0  0  0  0  0  0  0  0  0  0
  160.1050  203.4680  150.5320 C   0  0  0  0  0  3  0  0  0  0  0  0
  161.6240  206.3420  148.9540 C   0  0  0  0  0  0  0  0  0  0  0  0
  160.7360  205.8880  150.0750 C   0  0  0  0  0  0  0  0  0  0  0  0
  161.1950  202.9930  148.5430 N   0  0  0  0  0  0  0  0  0  0  0  0
  162.6290  205.3210  146.9290 C   0  0  0  0  0  0  0  0  0  0  0  0
  163.3360  205.3010  146.0140 N   0  0  0  0  0  0  0  0  0  0  0  0
  162.3700  207.5590  148.8490 N   0  0  0  0  0  2  0  0  0  0  0  0
  162.3410  210.0920  150.1040 C   0  0  0  0  0  1  0  0  0  0  0  0
  161.9030  208.6850  148.1660 N   0  0  0  0  0  0  0  0  0  0  0  0
  161.8650  209.8620  148.7090 C   0  0  0  0  0  0  0  0  0  0  0  0
  161.3670  211.0180  147.9140 C   0  0  0  0  0  2  0  0  0  0  0  0
  162.4180  212.1210  147.8810 C   0  0  0  0  0  2  0  0  0  0  0  0
  162.0500  213.2710  146.9440 C   0  0  2  0  0  3  0  0  0  0  0  0
  161.5890  214.4530  147.6790 N   0  0  0  0  0  2  0  0  0  0  0  0
  161.5040  214.1490  148.9960 O   0  0  0  0  0  1  0  0  0  0  0  0
  161.1050  212.8530  145.8180 C   0  0  0  0  0  2  0  0  0  0  0  0
  163.0960  213.4020  144.4460 C   0  0  0  0  0  1  0  0  0  0  0  0
  161.5820  213.3850  144.4750 C   0  0  1  0  0  3  0  0  0  0  0  0
  159.8240  212.3420  143.2510 O   0  0  0  0  0  1  0  0  0  0  0  0
  161.0610  212.5510  143.3510 C   0  0  0  0  0  0  0  0  0  0  0  0
  161.9300  212.0110  142.4110 O   0  0  0  0  0  0  0  0  0  0  0  0
  160.7220  206.3520  151.4300 N   0  0  0  0  0  2  0  0  0  0  0  0
  161.8970  206.5100  152.2720 C   0  0  2  0  0  3  0  0  0  0  0  0
  161.2240  208.6280  153.4270 C   0  0  2  0  0  3  0  0  0  0  0  0
  160.7280  206.6960  154.4820 C   0  0  0  0  0  2  0  0  0  0  0  0
  161.6630  205.8360  153.6260 C   0  0  0  0  0  2  0  0  0  0  0  0
  161.2890  207.9720  154.6710 O   0  0  0  0  0  0  0  0  0  0  0  0
  162.2250  207.9950  152.4600 C   0  0  0  0  0  2  0  0  0  0  0  0
  161.5400  210.0350  153.5950 N   0  0  0  0  0  2  0  0  0  0  0  0
  161.4130  210.3360  155.0110 C   0  0  0  0  0  2  0  0  0  0  0  0
  160.5820  211.5930  155.1870 C   0  0  2  0  0  3  0  0  0  0  0  0
  158.8500  209.9360  155.8790 F   0  0  0  0  0  0  0  0  0  0  0  0
  160.2310  211.7710  156.6590 C   0  0  0  0  0  2  0  0  0  0  0  0
  159.1880  211.2680  155.6920 C   0  0  1  0  0  0  0  0  0  0  0  0
  158.1000  212.2870  155.3710 C   0  0  2  0  0  3  0  0  0  0  0  0
  157.4750  212.7410  156.5380 O   0  0  0  0  0  1  0  0  0  0  0  0
  155.8990  211.3630  155.0990 C   0  0  0  0  0  1  0  0  0  0  0  0
  157.1200  211.7700  154.4140 N   0  0  0  0  0  2  0  0  0  0  0  0
  1  2  1  0  0  0  0
  2  7  1  0  0  0  0
  2  5  2  0  0  0  0
  3  5  1  0  0  0  0
  4  1  2  0  0  0  0
  4  6  1  0  0  0  0
  6  7  2  0  0  0  0
  7 26  1  0  0  0  0
  8  1  1  0  0  0  0
  8  3  2  0  0  0  0
  9  4  1  0  0  0  0
 10  9  3  0  0  0  0
 11  6  1  0  0  0  0
 13 14  2  0  0  0  0
 13 11  1  0  0  0  0
 14 12  1  0  0  0  0
 15 14  1  0  0  0  0
 16 15  1  0  0  0  0
 17 20  1  6  0  0  0
 17 18  1  0  0  0  0
 17 16  1  0  0  0  0
 18 19  1  0  0  0  0
 22 21  1  1  0  0  0
 22 20  1  0  0  0  0
 23 24  1  0  0  0  0
 24 22  1  0  0  0  0
 25 24  2  0  0  0  0
 27 26  1  6  0  0  0
 27 32  1  0  0  0  0
 27 30  1  0  0  0  0
 28 33  1  1  0  0  0
 28 31  1  0  0  0  0
 29 31  1  0  0  0  0
 30 29  1  0  0  0  0
 32 28  1  0  0  0  0
 33 34  1  0  0  0  0
 35 34  1  1  0  0  0
 35 38  1  0  0  0  0
 35 37  1  0  0  0  0
 38 36  1  1  0  0  0
 38 37  1  0  0  0  0
 39 38  1  0  0  0  0
 39 40  1  1  0  0  0
 42 41  1  0  0  0  0
 42 39  1  0  0  0  0
M  END
>  <MODEL>
5

>  <REMARK>
 VINA RESULT:      -6.0      3.859      9.956
  Name = 
  17 active torsions:
  status: ('A' for Active; 'I' for Inactive)
    1  A    between atoms: C_1  and  C_39
    2  A    between atoms: N_2  and  C_16
    3  A    between atoms: C_7  and  N_11
    4  A    between atoms: C_7  and  C_42
    5  A    between atoms: C_8  and  C_15
    6  A    between atoms: N_9  and  C_13
    7  A    between atoms: N_9  and  C_29
    8  A    between atoms: C_12  and  C_30
    9  A    between atoms: C_12  and  C_36
   10  A    between atoms: C_16  and  C_17
   11  A    between atoms: C_16  and  C_36
   12  A    between atoms: C_17  and  C_41
   13  A    between atoms: N_18  and  C_28
   14  A    between atoms: N_18  and  N_31
   15  A    between atoms: C_20  and  N_37
   16  A    between atoms: C_35  and  C_41
   17  A    between atoms: N_37  and  C_39
                            x       y       z     vdW  Elec       q    Type
                         _______ _______ _______ _____ _____    ______ ____

>  <TORSDO>
F 17

$$$$
=
 OpenBabel11042420063D

 42 45  0  0  1  0  0  0  0  0999 V2000
  159.4490  211.7720  152.9640 C   0  0  0  0  0  0  0  0  0  0  0  0
  159.5420  212.4300  151.7270 C   0  0  0  0  0  0  0  0  0  0  0  0
  158.9460  213.8500  153.2850 C   0  0  0  0  0  3  0  0  0  0  0  0
  160.3740  210.6600  152.9400 C   0  0  0  0  0  0  0  0  0  0  0  0
  159.1820  213.8140  151.9640 C   0  0  0  0  0  3  0  0  0  0  0  0
  160.9730  210.6830  151.7420 C   0  0  0  0  0  0  0  0  0  0  0  0
  160.4620  211.8570  150.9620 C   0  0  0  0  0  0  0  0  0  0  0  0
  159.1940  212.5850  153.9280 N   0  0  0  0  0  0  0  0  0  0  0  0
  160.6930  209.7880  154.0380 C   0  0  0  0  0  0  0  0  0  0  0  0
  160.9500  209.0860  154.9200 N   0  0  0  0  0  0  0  0  0  0  0  0
  162.0260  209.7770  151.3960 N   0  0  0  0  0  2  0  0  0  0  0  0
  162.0570  208.7070  148.7790 C   0  0  0  0  0  1  0  0  0  0  0  0
  161.8220  208.4110  151.1840 N   0  0  0  0  0  0  0  0  0  0  0  0
  161.8180  207.8830  150.0000 C   0  0  0  0  0  0  0  0  0  0  0  0
  161.6080  206.4160  149.8540 C   0  0  0  0  0  2  0  0  0  0  0  0
  160.8690  206.1210  148.5540 C   0  0  0  0  0  2  0  0  0  0  0  0
  161.6260  205.1590  147.6400 C   0  0  2  0  0  3  0  0  0  0  0  0
  162.1110  205.8200  146.4250 N   0  0  0  0  0  2  0  0  0  0  0  0
  161.1770  206.7070  146.0020 O   0  0  0  0  0  1  0  0  0  0  0  0
  160.8600  203.8660  147.3590 C   0  0  0  0  0  2  0  0  0  0  0  0
  160.8780  202.7390  149.5680 C   0  0  0  0  0  1  0  0  0  0  0  0
  161.4320  202.7050  148.1590 C   0  0  1  0  0  3  0  0  0  0  0  0
  160.5180  201.3790  146.4030 O   0  0  0  0  0  0  0  0  0  0  0  0
  161.1050  201.3970  147.5160 C   0  0  0  0  0  0  0  0  0  0  0  0
  161.4500  200.2000  148.1340 O   0  0  0  0  0  1  0  0  0  0  0  0
  161.1250  212.5750  149.9150 N   0  0  0  0  0  2  0  0  0  0  0  0
  161.5150  212.0120  148.6320 C   0  0  2  0  0  3  0  0  0  0  0  0
  160.9350  213.9770  147.1900 C   0  0  2  0  0  3  0  0  0  0  0  0
  163.0720  213.8390  147.9020 C   0  0  0  0  0  2  0  0  0  0  0  0
  162.9720  212.3700  148.3280 C   0  0  0  0  0  2  0  0  0  0  0  0
  162.2750  214.0630  146.7660 O   0  0  0  0  0  0  0  0  0  0  0  0
  160.5930  212.5230  147.5200 C   0  0  0  0  0  2  0  0  0  0  0  0
  160.0540  214.4530  146.1400 N   0  0  0  0  0  2  0  0  0  0  0  0
  159.7830  213.3260  145.2650 C   0  0  0  0  0  2  0  0  0  0  0  0
  160.5420  213.5040  143.9620 C   0  0  2  0  0  3  0  0  0  0  0  0
  159.8920  211.1140  143.6590 F   0  0  0  0  0  0  0  0  0  0  0  0
  159.5820  213.3580  142.7880 C   0  0  0  0  0  2  0  0  0  0  0  0
  160.5250  212.2310  143.1350 C   0  0  1  0  0  0  0  0  0  0  0  0
  161.6710  212.0570  142.1440 C   0  0  2  0  0  3  0  0  0  0  0  0
  162.3290  213.2710  141.9180 O   0  0  0  0  0  1  0  0  0  0  0  0
  162.0180  211.9600  139.7680 C   0  0  0  0  0  1  0  0  0  0  0  0
  161.2290  211.4530  140.8850 N   0  0  0  0  0  2  0  0  0  0  0  0
  1  8  2  0  0  0  0
  2  5  1  0  0  0  0
  2  1  1  0  0  0  0
  3  8  1  0  0  0  0
  4  1  1  0  0  0  0
  4  9  1  0  0  0  0
  5  3  2  0  0  0  0
  6  4  2  0  0  0  0
  7  2  2  0  0  0  0
  7  6  1  0  0  0  0
  9 10  3  0  0  0  0
 11  6  1  0  0  0  0
 12 14  1  0  0  0  0
 13 11  1  0  0  0  0
 14 13  2  0  0  0  0
 15 14  1  0  0  0  0
 16 15  1  0  0  0  0
 17 20  1  6  0  0  0
 17 16  1  0  0  0  0
 18 17  1  0  0  0  0
 19 18  1  0  0  0  0
 20 22  1  0  0  0  0
 22 21  1  1  0  0  0
 23 24  2  0  0  0  0
 24 25  1  0  0  0  0
 24 22  1  0  0  0  0
 26  7  1  0  0  0  0
 27 26  1  1  0  0  0
 28 33  1  6  0  0  0
 28 32  1  0  0  0  0
 29 30  1  0  0  0  0
 30 27  1  0  0  0  0
 31 28  1  0  0  0  0
 31 29  1  0  0  0  0
 32 27  1  0  0  0  0
 34 33  1  0  0  0  0
 35 34  1  1  0  0  0
 37 38  1  0  0  0  0
 37 35  1  0  0  0  0
 38 36  1  1  0  0  0
 38 35  1  0  0  0  0
 39 40  1  6  0  0  0
 39 38  1  0  0  0  0
 41 42  1  0  0  0  0
 42 39  1  0  0  0  0
M  END
>  <MODEL>
6

>  <REMARK>
 VINA RESULT:      -6.0      1.456      2.006
  Name = 
  17 active torsions:
  status: ('A' for Active; 'I' for Inactive)
    1  A    between atoms: C_1  and  C_39
    2  A    between atoms: N_2  and  C_16
    3  A    between atoms: C_7  and  N_11
    4  A    between atoms: C_7  and  C_42
    5  A    between atoms: C_8  and  C_15
    6  A    between atoms: N_9  and  C_13
    7  A    between atoms: N_9  and  C_29
    8  A    between atoms: C_12  and  C_30
    9  A    between atoms: C_12  and  C_36
   10  A    between atoms: C_16  and  C_17
   11  A    between atoms: C_16  and  C_36
   12  A    between atoms: C_17  and  C_41
   13  A    between atoms: N_18  and  C_28
   14  A    between atoms: N_18  and  N_31
   15  A    between atoms: C_20  and  N_37
   16  A    between atoms: C_35  and  C_41
   17  A    between atoms: N_37  and  C_39
                            x       y       z     vdW  Elec       q    Type
                         _______ _______ _______ _____ _____    ______ ____

>  <TORSDO>
F 17

$$$$
=
 OpenBabel11042420063D

 42 45  0  0  1  0  0  0  0  0999 V2000
  160.9000  207.6260  154.3460 C   0  0  0  0  0  0  0  0  0  0  0  0
  160.0380  208.7270  154.2240 C   0  0  0  0  0  0  0  0  0  0  0  0
  161.0220  208.7630  156.1810 C   0  0  0  0  0  3  0  0  0  0  0  0
  161.3520  207.2720  153.0190 C   0  0  0  0  0  0  0  0  0  0  0  0
  160.1210  209.4620  155.4700 C   0  0  0  0  0  3  0  0  0  0  0  0
  160.7750  208.1370  152.1720 C   0  0  0  0  0  0  0  0  0  0  0  0
  159.9480  209.1110  152.9570 C   0  0  0  0  0  0  0  0  0  0  0  0
  161.5730  207.6560  155.4430 N   0  0  0  0  0  0  0  0  0  0  0  0
  162.3380  206.2810  152.6860 C   0  0  0  0  0  0  0  0  0  0  0  0
  163.1320  205.4840  152.4170 N   0  0  0  0  0  0  0  0  0  0  0  0
  161.0700  208.1470  150.7710 N   0  0  0  0  0  2  0  0  0  0  0  0
  162.3940  207.9220  148.2830 C   0  0  0  0  0  1  0  0  0  0  0  0
  160.8200  207.0600  149.9290 N   0  0  0  0  0  0  0  0  0  0  0  0
  161.4000  206.9260  148.7780 C   0  0  0  0  0  0  0  0  0  0  0  0
  161.0950  205.7320  147.9410 C   0  0  0  0  0  2  0  0  0  0  0  0
  161.6070  204.4700  148.6240 C   0  0  0  0  0  2  0  0  0  0  0  0
  160.5100  203.6970  149.3570 C   0  0  2  0  0  3  0  0  0  0  0  0
  160.7780  203.5910  150.7940 N   0  0  0  0  0  2  0  0  0  0  0  0
  160.9310  202.2840  151.1190 O   0  0  0  0  0  1  0  0  0  0  0  0
  160.1780  202.3570  148.7030 C   0  0  0  0  0  2  0  0  0  0  0  0
  161.6420  200.4890  147.9830 C   0  0  0  0  0  1  0  0  0  0  0  0
  161.2700  201.9350  147.7300 C   0  0  1  0  0  3  0  0  0  0  0  0
  159.9360  201.3460  145.8450 O   0  0  0  0  0  1  0  0  0  0  0  0
  160.8230  202.1050  146.3150 C   0  0  0  0  0  0  0  0  0  0  0  0
  161.3750  203.0990  145.5150 O   0  0  0  0  0  0  0  0  0  0  0  0
  159.5890  210.4500  152.5990 N   0  0  0  0  0  2  0  0  0  0  0  0
  160.4340  211.6200  152.7820 C   0  0  2  0  0  3  0  0  0  0  0  0
  159.2390  213.1700  151.2180 C   0  0  2  0  0  3  0  0  0  0  0  0
  158.6390  213.2630  153.3910 C   0  0  0  0  0  2  0  0  0  0  0  0
  159.8680  212.5020  153.8980 C   0  0  0  0  0  2  0  0  0  0  0  0
  158.9890  214.0550  152.2840 O   0  0  0  0  0  0  0  0  0  0  0  0
  160.5430  212.4120  151.4750 C   0  0  0  0  0  2  0  0  0  0  0  0
  159.3510  213.9130  149.9760 N   0  0  0  0  0  2  0  0  0  0  0  0
  160.2540  213.1710  149.1130 C   0  0  0  0  0  2  0  0  0  0  0  0
  160.0550  213.6130  147.6750 C   0  0  2  0  0  3  0  0  0  0  0  0
  161.9430  212.0280  147.2900 F   0  0  0  0  0  0  0  0  0  0  0  0
  159.5940  212.4280  146.8360 C   0  0  0  0  0  2  0  0  0  0  0  0
  161.0220  212.9080  146.7410 C   0  0  1  0  0  0  0  0  0  0  0  0
  161.3460  213.6280  145.4370 C   0  0  2  0  0  3  0  0  0  0  0  0
  160.7410  212.9920  144.3460 O   0  0  0  0  0  1  0  0  0  0  0  0
  163.1660  213.3060  143.9010 C   0  0  0  0  0  1  0  0  0  0  0  0
  162.7880  213.7780  145.2290 N   0  0  0  0  0  2  0  0  0  0  0  0
  1  8  1  0  0  0  0
  2  1  1  0  0  0  0
  2  5  2  0  0  0  0
  4  1  2  0  0  0  0
  5  3  1  0  0  0  0
  6  7  2  0  0  0  0
  6  4  1  0  0  0  0
  7  2  1  0  0  0  0
  8  3  2  0  0  0  0
  9  4  1  0  0  0  0
 10  9  3  0  0  0  0
 11  6  1  0  0  0  0
 12 14  1  0  0  0  0
 13 11  1  0  0  0  0
 14 13  2  0  0  0  0
 15 16  1  0  0  0  0
 15 14  1  0  0  0  0
 17 16  1  6  0  0  0
 17 18  1  0  0  0  0
 18 19  1  0  0  0  0
 20 17  1  0  0  0  0
 22 21  1  1  0  0  0
 22 20  1  0  0  0  0
 23 24  1  0  0  0  0
 24 22  1  0  0  0  0
 25 24  2  0  0  0  0
 26  7  1  0  0  0  0
 27 26  1  6  0  0  0
 27 30  1  0  0  0  0
 28 33  1  6  0  0  0
 28 32  1  0  0  0  0
 28 31  1  0  0  0  0
 29 30  1  0  0  0  0
 31 29  1  0  0  0  0
 32 27  1  0  0  0  0
 34 33  1  0  0  0  0
 35 34  1  1  0  0  0
 37 35  1  0  0  0  0
 38 37  1  0  0  0  0
 38 36  1  1  0  0  0
 38 35  1  0  0  0  0
 39 40  1  6  0  0  0
 39 38  1  0  0  0  0
 41 42  1  0  0  0  0
 42 39  1  0  0  0  0
M  END
>  <MODEL>
7

>  <REMARK>
 VINA RESULT:      -5.8      2.236      4.246
  Name = 
  17 active torsions:
  status: ('A' for Active; 'I' for Inactive)
    1  A    between atoms: C_1  and  C_39
    2  A    between atoms: N_2  and  C_16
    3  A    between atoms: C_7  and  N_11
    4  A    between atoms: C_7  and  C_42
    5  A    between atoms: C_8  and  C_15
    6  A    between atoms: N_9  and  C_13
    7  A    between atoms: N_9  and  C_29
    8  A    between atoms: C_12  and  C_30
    9  A    between atoms: C_12  and  C_36
   10  A    between atoms: C_16  and  C_17
   11  A    between atoms: C_16  and  C_36
   12  A    between atoms: C_17  and  C_41
   13  A    between atoms: N_18  and  C_28
   14  A    between atoms: N_18  and  N_31
   15  A    between atoms: C_20  and  N_37
   16  A    between atoms: C_35  and  C_41
   17  A    between atoms: N_37  and  C_39
                            x       y       z     vdW  Elec       q    Type
                         _______ _______ _______ _____ _____    ______ ____

>  <TORSDO>
F 17

$$$$
=
 OpenBabel11042420063D

 42 45  0  0  1  0  0  0  0  0999 V2000
  161.0640  203.9690  148.4380 C   0  0  0  0  0  0  0  0  0  0  0  0
  160.4460  204.3630  149.6360 C   0  0  0  0  0  0  0  0  0  0  0  0
  160.8010  202.2010  149.6550 C   0  0  0  0  0  3  0  0  0  0  0  0
  161.8310  205.0930  147.9500 C   0  0  0  0  0  0  0  0  0  0  0  0
  160.2630  203.1610  150.4250 C   0  0  0  0  0  3  0  0  0  0  0  0
  161.6630  206.0870  148.8320 C   0  0  0  0  0  0  0  0  0  0  0  0
  160.7920  205.6040  149.9530 C   0  0  0  0  0  0  0  0  0  0  0  0
  161.3790  202.7210  148.4420 N   0  0  0  0  0  0  0  0  0  0  0  0
  162.7160  205.0980  146.8170 C   0  0  0  0  0  0  0  0  0  0  0  0
  163.4280  205.1030  145.9050 N   0  0  0  0  0  0  0  0  0  0  0  0
  162.3570  207.3350  148.7200 N   0  0  0  0  0  2  0  0  0  0  0  0
  162.3530  209.8570  149.9980 C   0  0  0  0  0  1  0  0  0  0  0  0
  161.8180  208.4550  148.0800 N   0  0  0  0  0  0  0  0  0  0  0  0
  161.7890  209.6250  148.6360 C   0  0  0  0  0  0  0  0  0  0  0  0
  161.2120  210.7760  147.8860 C   0  0  0  0  0  2  0  0  0  0  0  0
  161.6520  212.0890  148.5230 C   0  0  0  0  0  2  0  0  0  0  0  0
  161.2820  213.3130  147.6870 C   0  0  2  0  0  3  0  0  0  0  0  0
  162.4450  213.8820  146.9990 N   0  0  0  0  0  2  0  0  0  0  0  0
  162.5980  213.2600  145.8050 O   0  0  0  0  0  1  0  0  0  0  0  0
  160.4730  214.3510  148.4640 C   0  0  0  0  0  2  0  0  0  0  0  0
  159.7060  214.4100  150.8220 C   0  0  0  0  0  1  0  0  0  0  0  0
  159.5760  213.6860  149.4980 C   0  0  1  0  0  3  0  0  0  0  0  0
  157.3100  214.4050  149.6600 O   0  0  0  0  0  1  0  0  0  0  0  0
  158.1490  213.6910  149.0530 C   0  0  0  0  0  0  0  0  0  0  0  0
  157.7440  212.9180  147.9710 O   0  0  0  0  0  0  0  0  0  0  0  0
  160.7540  206.0750  151.3050 N   0  0  0  0  0  2  0  0  0  0  0  0
  161.9120  206.5010  152.0750 C   0  0  2  0  0  3  0  0  0  0  0  0
  160.8800  208.4900  153.1950 C   0  0  2  0  0  3  0  0  0  0  0  0
  160.8350  206.5460  154.3390 C   0  0  0  0  0  2  0  0  0  0  0  0
  161.8830  205.8540  153.4620 C   0  0  0  0  0  2  0  0  0  0  0  0
  161.1350  207.9150  154.4550 O   0  0  0  0  0  0  0  0  0  0  0  0
  161.9420  208.0290  152.1950 C   0  0  0  0  0  2  0  0  0  0  0  0
  160.9130  209.9380  153.2990 N   0  0  0  0  0  2  0  0  0  0  0  0
  160.1180  210.3020  154.4590 C   0  0  0  0  0  2  0  0  0  0  0  0
  159.2360  211.4880  154.1150 C   0  0  2  0  0  3  0  0  0  0  0  0
  158.3970  211.0970  156.4320 F   0  0  0  0  0  0  0  0  0  0  0  0
  159.5890  212.6650  155.0150 C   0  0  0  0  0  2  0  0  0  0  0  0
  158.3370  211.8650  155.2780 C   0  0  1  0  0  0  0  0  0  0  0  0
  157.0490  212.5990  154.9240 C   0  0  2  0  0  3  0  0  0  0  0  0
  157.1500  213.9630  155.2190 O   0  0  0  0  0  1  0  0  0  0  0  0
  155.5880  210.6920  154.9980 C   0  0  0  0  0  1  0  0  0  0  0  0
  155.8760  212.0040  155.5670 N   0  0  0  0  0  2  0  0  0  0  0  0
  1  8  1  0  0  0  0
  1  2  1  0  0  0  0
  2  7  1  0  0  0  0
  2  5  2  0  0  0  0
  3  5  1  0  0  0  0
  4  1  2  0  0  0  0
  4  6  1  0  0  0  0
  6  7  2  0  0  0  0
  7 26  1  0  0  0  0
  8  3  2  0  0  0  0
  9  4  1  0  0  0  0
 10  9  3  0  0  0  0
 11  6  1  0  0  0  0
 13 14  2  0  0  0  0
 13 11  1  0  0  0  0
 14 12  1  0  0  0  0
 15 16  1  0  0  0  0
 15 14  1  0  0  0  0
 17 20  1  1  0  0  0
 17 16  1  0  0  0  0
 18 17  1  0  0  0  0
 19 18  1  0  0  0  0
 20 22  1  0  0  0  0
 22 21  1  1  0  0  0
 24 22  1  0  0  0  0
 24 23  1  0  0  0  0
 25 24  2  0  0  0  0
 27 26  1  6  0  0  0
 27 32  1  0  0  0  0
 27 30  1  0  0  0  0
 28 33  1  1  0  0  0
 28 31  1  0  0  0  0
 29 31  1  0  0  0  0
 30 29  1  0  0  0  0
 32 28  1  0  0  0  0
 33 34  1  0  0  0  0
 35 34  1  1  0  0  0
 35 37  1  0  0  0  0
 35 38  1  0  0  0  0
 37 38  1  0  0  0  0
 38 36  1  1  0  0  0
 39 40  1  1  0  0  0
 39 38  1  0  0  0  0
 39 42  1  0  0  0  0
 41 42  1  0  0  0  0
M  END
>  <MODEL>
8

>  <REMARK>
 VINA RESULT:      -5.7      4.355     10.171
  Name = 
  17 active torsions:
  status: ('A' for Active; 'I' for Inactive)
    1  A    between atoms: C_1  and  C_39
    2  A    between atoms: N_2  and  C_16
    3  A    between atoms: C_7  and  N_11
    4  A    between atoms: C_7  and  C_42
    5  A    between atoms: C_8  and  C_15
    6  A    between atoms: N_9  and  C_13
    7  A    between atoms: N_9  and  C_29
    8  A    between atoms: C_12  and  C_30
    9  A    between atoms: C_12  and  C_36
   10  A    between atoms: C_16  and  C_17
   11  A    between atoms: C_16  and  C_36
   12  A    between atoms: C_17  and  C_41
   13  A    between atoms: N_18  and  C_28
   14  A    between atoms: N_18  and  N_31
   15  A    between atoms: C_20  and  N_37
   16  A    between atoms: C_35  and  C_41
   17  A    between atoms: N_37  and  C_39
                            x       y       z     vdW  Elec       q    Type
                         _______ _______ _______ _____ _____    ______ ____

>  <TORSDO>
F 17

$$$$
=
 OpenBabel11042420063D

 42 45  0  0  1  0  0  0  0  0999 V2000
  159.8310  211.1210  155.4370 C   0  0  0  0  0  0  0  0  0  0  0  0
  159.3080  211.7950  154.3210 C   0  0  0  0  0  0  0  0  0  0  0  0
  159.6570  213.2130  155.9540 C   0  0  0  0  0  3  0  0  0  0  0  0
  160.5620  209.9710  154.9510 C   0  0  0  0  0  0  0  0  0  0  0  0
  159.1830  213.1890  154.6980 C   0  0  0  0  0  3  0  0  0  0  0  0
  160.4650  209.9880  153.6150 C   0  0  0  0  0  0  0  0  0  0  0  0
  159.6810  211.1970  153.1970 C   0  0  0  0  0  0  0  0  0  0  0  0
  160.1410  211.9280  156.3900 N   0  0  0  0  0  0  0  0  0  0  0  0
  161.3580  209.0680  155.7380 C   0  0  0  0  0  0  0  0  0  0  0  0
  161.9980  208.3430  156.3720 N   0  0  0  0  0  0  0  0  0  0  0  0
  161.1520  209.0450  152.7860 N   0  0  0  0  0  2  0  0  0  0  0  0
  162.5170  206.7710  151.8040 C   0  0  0  0  0  1  0  0  0  0  0  0
  160.4930  208.1130  151.9800 N   0  0  0  0  0  0  0  0  0  0  0  0
  161.0860  207.0640  151.5020 C   0  0  0  0  0  0  0  0  0  0  0  0
  160.3130  206.1070  150.6610 C   0  0  0  0  0  2  0  0  0  0  0  0
  161.1090  204.8220  150.4670 C   0  0  0  0  0  2  0  0  0  0  0  0
  160.8720  204.1710  149.1050 C   0  0  2  0  0  3  0  0  0  0  0  0
  160.5920  202.7370  149.2210 N   0  0  0  0  0  2  0  0  0  0  0  0
  161.2080  202.0830  148.2060 O   0  0  0  0  0  1  0  0  0  0  0  0
  161.9650  204.4930  148.0860 C   0  0  0  0  0  2  0  0  0  0  0  0
  161.4620  206.7380  147.1600 C   0  0  0  0  0  1  0  0  0  0  0  0
  161.3970  205.2480  146.8930 C   0  0  1  0  0  3  0  0  0  0  0  0
  161.5290  204.8110  144.5550 O   0  0  0  0  0  0  0  0  0  0  0  0
  162.1480  204.9220  145.6440 C   0  0  0  0  0  0  0  0  0  0  0  0
  163.5270  204.7470  145.6740 O   0  0  0  0  0  1  0  0  0  0  0  0
  159.7480  211.9030  151.9540 N   0  0  0  0  0  2  0  0  0  0  0  0
  159.4890  213.3250  151.7840 C   0  0  2  0  0  3  0  0  0  0  0  0
  159.9740  213.4840  149.3320 C   0  0  2  0  0  3  0  0  0  0  0  0
  157.8200  213.1600  149.9190 C   0  0  0  0  0  2  0  0  0  0  0  0
  158.0260  213.5440  151.3880 C   0  0  0  0  0  2  0  0  0  0  0  0
  158.6600  213.9340  149.0990 O   0  0  0  0  0  0  0  0  0  0  0  0
  160.4260  213.9180  150.7270 C   0  0  0  0  0  2  0  0  0  0  0  0
  160.8700  214.0470  148.3380 N   0  0  0  0  0  2  0  0  0  0  0  0
  160.9980  213.0670  147.2730 C   0  0  0  0  0  2  0  0  0  0  0  0
  161.8970  213.6220  146.1830 C   0  0  2  0  0  3  0  0  0  0  0  0
  160.4890  212.1430  144.7490 F   0  0  0  0  0  0  0  0  0  0  0  0
  161.0690  214.4530  145.2120 C   0  0  0  0  0  2  0  0  0  0  0  0
  161.5210  213.0670  144.8210 C   0  0  1  0  0  0  0  0  0  0  0  0
  162.6260  213.0500  143.7710 C   0  0  2  0  0  3  0  0  0  0  0  0
  163.5790  214.0430  144.0280 O   0  0  0  0  0  1  0  0  0  0  0  0
  161.6820  211.8560  141.9130 C   0  0  0  0  0  1  0  0  0  0  0  0
  162.1000  213.1620  142.4090 N   0  0  0  0  0  2  0  0  0  0  0  0
  1  8  2  0  0  0  0
  2  5  1  0  0  0  0
  2  1  1  0  0  0  0
  3  8  1  0  0  0  0
  4  1  1  0  0  0  0
  4  9  1  0  0  0  0
  5  3  2  0  0  0  0
  6  4  2  0  0  0  0
  7  6  1  0  0  0  0
  7  2  2  0  0  0  0
  9 10  3  0  0  0  0
 11  6  1  0  0  0  0
 13 11  1  0  0  0  0
 14 12  1  0  0  0  0
 14 13  2  0  0  0  0
 15 14  1  0  0  0  0
 16 15  1  0  0  0  0
 17 20  1  6  0  0  0
 17 18  1  0  0  0  0
 17 16  1  0  0  0  0
 19 18  1  0  0  0  0
 22 21  1  1  0  0  0
 22 20  1  0  0  0  0
 23 24  2  0  0  0  0
 24 25  1  0  0  0  0
 24 22  1  0  0  0  0
 26  7  1  0  0  0  0
 27 26  1  6  0  0  0
 28 33  1  6  0  0  0
 28 32  1  0  0  0  0
 29 30  1  0  0  0  0
 30 27  1  0  0  0  0
 31 28  1  0  0  0  0
 31 29  1  0  0  0  0
 32 27  1  0  0  0  0
 34 33  1  0  0  0  0
 35 34  1  1  0  0  0
 37 35  1  0  0  0  0
 38 36  1  6  0  0  0
 38 37  1  0  0  0  0
 38 35  1  0  0  0  0
 39 40  1  1  0  0  0
 39 38  1  0  0  0  0
 41 42  1  0  0  0  0
 42 39  1  0  0  0  0
M  END
>  <MODEL>
9

>  <REMARK>
 VINA RESULT:      -5.7      1.852      2.896
  Name = 
  17 active torsions:
  status: ('A' for Active; 'I' for Inactive)
    1  A    between atoms: C_1  and  C_39
    2  A    between atoms: N_2  and  C_16
    3  A    between atoms: C_7  and  N_11
    4  A    between atoms: C_7  and  C_42
    5  A    between atoms: C_8  and  C_15
    6  A    between atoms: N_9  and  C_13
    7  A    between atoms: N_9  and  C_29
    8  A    between atoms: C_12  and  C_30
    9  A    between atoms: C_12  and  C_36
   10  A    between atoms: C_16  and  C_17
   11  A    between atoms: C_16  and  C_36
   12  A    between atoms: C_17  and  C_41
   13  A    between atoms: N_18  and  C_28
   14  A    between atoms: N_18  and  N_31
   15  A    between atoms: C_20  and  N_37
   16  A    between atoms: C_35  and  C_41
   17  A    between atoms: N_37  and  C_39
                            x       y       z     vdW  Elec       q    Type
                         _______ _______ _______ _____ _____    ______ ____

>  <TORSDO>
F 17

$$$$
