=
 OpenBabel11052410153D

 25 26  0  0  1  0  0  0  0  0999 V2000
  161.3630  206.0450  149.2790 C   0  0  0  0  0  0  0  0  0  0  0  0
  161.1660  206.4370  148.0420 C   0  0  0  0  0  0  0  0  0  0  0  0
  160.9660  206.8250  146.8140 C   0  0  0  0  0  3  0  0  0  0  0  0
  159.9930  201.9030  149.7360 C   0  0  0  0  0  0  0  0  0  0  0  0
  159.0140  201.1520  149.4840 O   0  0  0  0  0  0  0  0  0  0  0  0
  160.8560  202.3540  148.6200 C   0  0  0  0  0  0  0  0  0  0  0  0
  161.6990  204.1850  150.9460 C   0  0  0  0  0  3  0  0  0  0  0  0
  161.1100  201.3960  147.5000 C   0  0  0  0  0  1  0  0  0  0  0  0
  162.3660  203.8680  147.6110 O   0  0  0  0  0  1  0  0  0  0  0  0
  161.4250  203.5670  148.5950 C   0  0  0  0  0  0  0  0  0  0  0  0
  160.2940  202.1990  151.1100 N   0  0  0  0  0  2  0  0  0  0  0  0
  161.2970  203.0990  151.6060 C   0  0  0  0  0  3  0  0  0  0  0  0
  161.0790  204.5930  149.6490 C   0  0  2  0  0  3  0  0  0  0  0  0
  161.6830  210.1520  153.2460 N   0  0  0  0  0  1  0  0  0  0  0  0
  162.0630  208.3350  150.0220 C   0  0  0  0  0  3  0  0  0  0  0  0
  161.4560  207.1040  150.3180 C   0  0  0  0  0  0  0  0  0  0  0  0
  161.6050  209.1290  152.2620 C   0  0  0  0  0  0  0  0  0  0  0  0
  162.1390  209.3420  150.9890 C   0  0  0  0  0  3  0  0  0  0  0  0
  160.9160  206.9050  151.6000 C   0  0  0  0  0  3  0  0  0  0  0  0
  160.9920  207.9110  152.5670 C   0  0  0  0  0  3  0  0  0  0  0  0
  160.1020  206.0150  145.9120 C   0  0  0  0  0  2  0  0  0  0  0  0
  162.3860  205.7320  145.0220 C   0  0  0  0  0  1  0  0  0  0  0  0
  160.9280  205.3880  144.8010 C   0  0  1  0  0  3  0  0  0  0  0  0
  160.7760  203.8740  144.8040 C   0  0  0  0  0  2  0  0  0  0  0  0
  159.5850  203.5080  144.1760 O   0  0  0  0  0  1  0  0  0  0  0  0
  1 16  1  0  0  0  0
  2  1  2  0  0  0  0
  3  2  2  0  0  0  0
  4 11  1  0  0  0  0
  5  4  2  0  0  0  0
  6  4  1  0  0  0  0
  7 12  2  0  0  0  0
  8  6  1  0  0  0  0
  9 10  1  0  0  0  0
 10  6  2  0  0  0  0
 10 13  1  0  0  0  0
 11 12  1  0  0  0  0
 13  1  1  6  0  0  0
 13  7  1  0  0  0  0
 15 16  2  0  0  0  0
 15 18  1  0  0  0  0
 16 19  1  0  0  0  0
 17 20  1  0  0  0  0
 17 14  1  0  0  0  0
 18 17  2  0  0  0  0
 19 20  2  0  0  0  0
 21  3  1  0  0  0  0
 23 24  1  0  0  0  0
 23 22  1  1  0  0  0
 23 21  1  0  0  0  0
 25 24  1  0  0  0  0
M  END
>  <MODEL>
1

>  <REMARK>
 VINA RESULT:      -8.3      0.000      0.000
  Name = 
  5 active torsions:
  status: ('A' for Active; 'I' for Inactive)
    1  A    between atoms: C_3  and  C_8
    2  A    between atoms: C_3  and  C_24
    3  A    between atoms: C_9  and  C_14
    4  A    between atoms: C_10  and  C_12
    5  A    between atoms: C_10  and  C_14
                            x       y       z     vdW  Elec       q    Type
                         _______ _______ _______ _____ _____    ______ ____

>  <TORSDO>
F 5

$$$$
=
 OpenBabel11052410153D

 25 26  0  0  1  0  0  0  0  0999 V2000
  160.9200  205.7330  148.6740 C   0  0  0  0  0  0  0  0  0  0  0  0
  161.1550  206.8410  149.3390 C   0  0  0  0  0  0  0  0  0  0  0  0
  161.3920  207.9390  149.9980 C   0  0  0  0  0  3  0  0  0  0  0  0
  160.2480  201.7240  150.3230 C   0  0  0  0  0  0  0  0  0  0  0  0
  159.3820  200.8120  150.3830 O   0  0  0  0  0  0  0  0  0  0  0  0
  160.9460  201.9660  149.0390 C   0  0  0  0  0  0  0  0  0  0  0  0
  161.6650  204.4490  150.7110 C   0  0  0  0  0  3  0  0  0  0  0  0
  161.2600  200.7850  148.1790 C   0  0  0  0  0  1  0  0  0  0  0  0
  162.1210  203.3370  147.5130 O   0  0  0  0  0  1  0  0  0  0  0  0
  161.3150  203.1920  148.6410 C   0  0  0  0  0  0  0  0  0  0  0  0
  160.6020  202.4150  151.5330 N   0  0  0  0  0  2  0  0  0  0  0  0
  161.4870  203.5380  151.6670 C   0  0  0  0  0  3  0  0  0  0  0  0
  160.8940  204.4090  149.4310 C   0  0  2  0  0  3  0  0  0  0  0  0
  161.6200  205.8480  143.0000 N   0  0  0  0  0  1  0  0  0  0  0  0
  162.3840  205.7300  146.6390 C   0  0  0  0  0  3  0  0  0  0  0  0
  161.0970  205.7770  147.2000 C   0  0  0  0  0  0  0  0  0  0  0  0
  161.4440  205.8220  144.4100 C   0  0  0  0  0  0  0  0  0  0  0  0
  162.5570  205.7550  145.2520 C   0  0  0  0  0  3  0  0  0  0  0  0
  159.9860  205.8370  146.3420 C   0  0  0  0  0  3  0  0  0  0  0  0
  160.1580  205.8610  144.9550 C   0  0  0  0  0  3  0  0  0  0  0  0
  162.0270  207.8740  151.3430 C   0  0  0  0  0  2  0  0  0  0  0  0
  161.2940  206.8280  153.4550 C   0  0  0  0  0  1  0  0  0  0  0  0
  160.9700  207.8990  152.4350 C   0  0  1  0  0  3  0  0  0  0  0  0
  160.9480  209.2510  153.1330 C   0  0  0  0  0  2  0  0  0  0  0  0
  160.0170  210.0940  152.5260 O   0  0  0  0  0  1  0  0  0  0  0  0
  1  2  2  0  0  0  0
  2  3  2  0  0  0  0
  3 21  1  0  0  0  0
  4  5  2  0  0  0  0
  4 11  1  0  0  0  0
  6  4  1  0  0  0  0
  7 12  2  0  0  0  0
  8  6  1  0  0  0  0
  9 10  1  0  0  0  0
 10  6  2  0  0  0  0
 10 13  1  0  0  0  0
 11 12  1  0  0  0  0
 13  1  1  6  0  0  0
 13  7  1  0  0  0  0
 14 17  1  0  0  0  0
 15 16  1  0  0  0  0
 16  1  1  0  0  0  0
 17 20  2  0  0  0  0
 17 18  1  0  0  0  0
 18 15  2  0  0  0  0
 19 16  2  0  0  0  0
 20 19  1  0  0  0  0
 21 23  1  0  0  0  0
 23 24  1  0  0  0  0
 23 22  1  1  0  0  0
 25 24  1  0  0  0  0
M  END
>  <MODEL>
2

>  <REMARK>
 VINA RESULT:      -7.7      2.577      5.546
  Name = 
  5 active torsions:
  status: ('A' for Active; 'I' for Inactive)
    1  A    between atoms: C_3  and  C_8
    2  A    between atoms: C_3  and  C_24
    3  A    between atoms: C_9  and  C_14
    4  A    between atoms: C_10  and  C_12
    5  A    between atoms: C_10  and  C_14
                            x       y       z     vdW  Elec       q    Type
                         _______ _______ _______ _____ _____    ______ ____

>  <TORSDO>
F 5

$$$$
=
 OpenBabel11052410153D

 25 26  0  0  1  0  0  0  0  0999 V2000
  161.0780  207.6280  151.6010 C   0  0  0  0  0  0  0  0  0  0  0  0
  161.3490  208.4100  150.5810 C   0  0  0  0  0  0  0  0  0  0  0  0
  161.6220  209.1850  149.5700 C   0  0  0  0  0  3  0  0  0  0  0  0
  161.8890  209.8020  155.3250 C   0  0  0  0  0  0  0  0  0  0  0  0
  162.7380  210.5620  155.8610 O   0  0  0  0  0  0  0  0  0  0  0  0
  161.0300  210.3370  154.2430 C   0  0  0  0  0  0  0  0  0  0  0  0
  160.5900  207.2960  154.0510 C   0  0  0  0  0  3  0  0  0  0  0  0
  160.5790  211.7590  154.3460 C   0  0  0  0  0  1  0  0  0  0  0  0
  159.6860  210.0950  152.3130 O   0  0  0  0  0  1  0  0  0  0  0  0
  160.6340  209.5910  153.2030 C   0  0  0  0  0  0  0  0  0  0  0  0
  161.7150  208.4800  155.8620 N   0  0  0  0  0  2  0  0  0  0  0  0
  160.8780  207.4340  155.3450 C   0  0  0  0  0  3  0  0  0  0  0  0
  161.1810  208.1950  153.0140 C   0  0  2  0  0  3  0  0  0  0  0  0
  161.0650  201.9840  150.6820 N   0  0  0  0  0  1  0  0  0  0  0  0
  161.3950  205.2710  152.3930 C   0  0  0  0  0  3  0  0  0  0  0  0
  161.0870  206.1640  151.3530 C   0  0  0  0  0  0  0  0  0  0  0  0
  161.0700  203.3880  150.9080 C   0  0  0  0  0  0  0  0  0  0  0  0
  161.3900  203.8910  152.1710 C   0  0  0  0  0  3  0  0  0  0  0  0
  160.7600  205.6440  150.0890 C   0  0  0  0  0  3  0  0  0  0  0  0
  160.7540  204.2640  149.8670 C   0  0  0  0  0  3  0  0  0  0  0  0
  162.4050  210.4330  149.7830 C   0  0  0  0  0  2  0  0  0  0  0  0
  161.1670  212.5500  149.5090 C   0  0  0  0  0  1  0  0  0  0  0  0
  161.9880  211.5030  148.7870 C   0  0  1  0  0  3  0  0  0  0  0  0
  163.2080  212.1730  148.1730 C   0  0  0  0  0  2  0  0  0  0  0  0
  162.9070  213.4870  147.8120 O   0  0  0  0  0  1  0  0  0  0  0  0
  2  1  2  0  0  0  0
  3 21  1  0  0  0  0
  3  2  2  0  0  0  0
  4  5  2  0  0  0  0
  4 11  1  0  0  0  0
  6  8  1  0  0  0  0
  6  4  1  0  0  0  0
  7 12  2  0  0  0  0
  9 10  1  0  0  0  0
 10  6  2  0  0  0  0
 12 11  1  0  0  0  0
 13  1  1  6  0  0  0
 13 10  1  0  0  0  0
 13  7  1  0  0  0  0
 14 17  1  0  0  0  0
 16  1  1  0  0  0  0
 16 15  2  0  0  0  0
 17 18  2  0  0  0  0
 18 15  1  0  0  0  0
 19 16  1  0  0  0  0
 20 19  2  0  0  0  0
 20 17  1  0  0  0  0
 23 22  1  1  0  0  0
 23 21  1  0  0  0  0
 24 23  1  0  0  0  0
 25 24  1  0  0  0  0
M  END
>  <MODEL>
3

>  <REMARK>
 VINA RESULT:      -7.2      4.143      7.335
  Name = 
  5 active torsions:
  status: ('A' for Active; 'I' for Inactive)
    1  A    between atoms: C_3  and  C_8
    2  A    between atoms: C_3  and  C_24
    3  A    between atoms: C_9  and  C_14
    4  A    between atoms: C_10  and  C_12
    5  A    between atoms: C_10  and  C_14
                            x       y       z     vdW  Elec       q    Type
                         _______ _______ _______ _____ _____    ______ ____

>  <TORSDO>
F 5

$$$$
=
 OpenBabel11052410153D

 25 26  0  0  1  0  0  0  0  0999 V2000
  160.8730  208.6190  151.5540 C   0  0  0  0  0  0  0  0  0  0  0  0
  161.3710  209.2050  150.4900 C   0  0  0  0  0  0  0  0  0  0  0  0
  161.8700  209.7870  149.4370 C   0  0  0  0  0  3  0  0  0  0  0  0
  160.2120  210.4440  155.4880 C   0  0  0  0  0  0  0  0  0  0  0  0
  160.1030  210.1520  156.7080 O   0  0  0  0  0  0  0  0  0  0  0  0
  161.5440  210.3590  154.8470 C   0  0  0  0  0  0  0  0  0  0  0  0
  159.6250  210.6160  152.4530 C   0  0  0  0  0  3  0  0  0  0  0  0
  162.7390  210.7390  155.6620 C   0  0  0  0  0  1  0  0  0  0  0  0
  162.9600  210.0880  152.9730 O   0  0  0  0  0  1  0  0  0  0  0  0
  161.7060  209.9790  153.5720 C   0  0  0  0  0  0  0  0  0  0  0  0
  159.0580  210.9550  154.8000 N   0  0  0  0  0  2  0  0  0  0  0  0
  158.9420  211.2570  153.4010 C   0  0  0  0  0  3  0  0  0  0  0  0
  160.5290  209.4690  152.7730 C   0  0  2  0  0  3  0  0  0  0  0  0
  161.5010  202.9520  151.9970 N   0  0  0  0  0  1  0  0  0  0  0  0
  161.1720  206.5400  152.9230 C   0  0  0  0  0  3  0  0  0  0  0  0
  161.0500  207.1480  151.6630 C   0  0  0  0  0  0  0  0  0  0  0  0
  161.3480  204.3610  151.8850 C   0  0  0  0  0  0  0  0  0  0  0  0
  161.3230  205.1550  153.0340 C   0  0  0  0  0  3  0  0  0  0  0  0
  161.0690  206.3370  150.5150 C   0  0  0  0  0  3  0  0  0  0  0  0
  161.2190  204.9520  150.6250 C   0  0  0  0  0  3  0  0  0  0  0  0
  162.4740  211.1420  149.5550 C   0  0  0  0  0  2  0  0  0  0  0  0
  160.9940  213.0740  149.1500 C   0  0  0  0  0  1  0  0  0  0  0  0
  161.9160  212.0720  148.4890 C   0  0  1  0  0  3  0  0  0  0  0  0
  163.0370  212.8240  147.7880 C   0  0  0  0  0  2  0  0  0  0  0  0
  162.5110  213.8390  146.9880 O   0  0  0  0  0  1  0  0  0  0  0  0
  1 16  1  0  0  0  0
  2  1  2  0  0  0  0
  3 21  1  0  0  0  0
  3  2  2  0  0  0  0
  4  5  2  0  0  0  0
  6  4  1  0  0  0  0
  6  8  1  0  0  0  0
  7 13  1  0  0  0  0
  7 12  2  0  0  0  0
  9 10  1  0  0  0  0
 10  6  2  0  0  0  0
 11  4  1  0  0  0  0
 12 11  1  0  0  0  0
 13  1  1  6  0  0  0
 13 10  1  0  0  0  0
 15 18  1  0  0  0  0
 16 15  2  0  0  0  0
 17 14  1  0  0  0  0
 17 18  2  0  0  0  0
 19 20  2  0  0  0  0
 19 16  1  0  0  0  0
 20 17  1  0  0  0  0
 23 22  1  1  0  0  0
 23 21  1  0  0  0  0
 24 23  1  0  0  0  0
 25 24  1  0  0  0  0
M  END
>  <MODEL>
4

>  <REMARK>
 VINA RESULT:      -7.1      4.548      7.608
  Name = 
  5 active torsions:
  status: ('A' for Active; 'I' for Inactive)
    1  A    between atoms: C_3  and  C_8
    2  A    between atoms: C_3  and  C_24
    3  A    between atoms: C_9  and  C_14
    4  A    between atoms: C_10  and  C_12
    5  A    between atoms: C_10  and  C_14
                            x       y       z     vdW  Elec       q    Type
                         _______ _______ _______ _____ _____    ______ ____

>  <TORSDO>
F 5

$$$$
=
 OpenBabel11052410153D

 25 26  0  0  1  0  0  0  0  0999 V2000
  161.1890  205.4950  148.4010 C   0  0  0  0  0  0  0  0  0  0  0  0
  161.4230  206.5810  149.1000 C   0  0  0  0  0  0  0  0  0  0  0  0
  161.6600  207.6590  149.7940 C   0  0  0  0  0  3  0  0  0  0  0  0
  161.7560  201.9750  150.9570 C   0  0  0  0  0  0  0  0  0  0  0  0
  162.5580  201.4760  151.7890 O   0  0  0  0  0  0  0  0  0  0  0  0
  160.9420  203.1460  151.3580 C   0  0  0  0  0  0  0  0  0  0  0  0
  160.5810  203.0510  148.3020 C   0  0  0  0  0  3  0  0  0  0  0  0
  160.4560  203.2100  152.7700 C   0  0  0  0  0  1  0  0  0  0  0  0
  159.7070  205.1060  150.8870 O   0  0  0  0  0  1  0  0  0  0  0  0
  160.6180  204.1240  150.5000 C   0  0  0  0  0  0  0  0  0  0  0  0
  161.5830  201.3150  149.6910 N   0  0  0  0  0  2  0  0  0  0  0  0
  160.7970  201.7650  148.5760 C   0  0  0  0  0  3  0  0  0  0  0  0
  161.2050  204.1440  149.1080 C   0  0  2  0  0  3  0  0  0  0  0  0
  161.7110  205.8280  142.7160 N   0  0  0  0  0  1  0  0  0  0  0  0
  162.4880  205.1340  146.2870 C   0  0  0  0  0  3  0  0  0  0  0  0
  161.3250  205.5960  146.9250 C   0  0  0  0  0  0  0  0  0  0  0  0
  161.5810  205.7480  144.1290 C   0  0  0  0  0  0  0  0  0  0  0  0
  162.6170  205.2120  144.8970 C   0  0  0  0  0  3  0  0  0  0  0  0
  160.2880  206.1270  146.1400 C   0  0  0  0  0  3  0  0  0  0  0  0
  160.4150  206.2050  144.7500 C   0  0  0  0  0  3  0  0  0  0  0  0
  162.3320  207.5550  151.1180 C   0  0  0  0  0  2  0  0  0  0  0  0
  161.5870  206.7210  153.3180 C   0  0  0  0  0  1  0  0  0  0  0  0
  161.3300  207.7560  152.2430 C   0  0  1  0  0  3  0  0  0  0  0  0
  161.4740  209.1420  152.8530 C   0  0  0  0  0  2  0  0  0  0  0  0
  160.2730  209.8440  152.7460 O   0  0  0  0  0  1  0  0  0  0  0  0
  1  2  2  0  0  0  0
  2  3  2  0  0  0  0
  3 21  1  0  0  0  0
  4  6  1  0  0  0  0
  4  5  2  0  0  0  0
  6  8  1  0  0  0  0
  7 12  2  0  0  0  0
  7 13  1  0  0  0  0
 10  9  1  0  0  0  0
 10  6  2  0  0  0  0
 11  4  1  0  0  0  0
 12 11  1  0  0  0  0
 13  1  1  6  0  0  0
 13 10  1  0  0  0  0
 14 17  1  0  0  0  0
 15 16  1  0  0  0  0
 16  1  1  0  0  0  0
 17 20  2  0  0  0  0
 17 18  1  0  0  0  0
 18 15  2  0  0  0  0
 19 16  2  0  0  0  0
 20 19  1  0  0  0  0
 21 23  1  0  0  0  0
 23 24  1  0  0  0  0
 23 22  1  1  0  0  0
 25 24  1  0  0  0  0
M  END
>  <MODEL>
5

>  <REMARK>
 VINA RESULT:      -6.8      2.912      5.974
  Name = 
  5 active torsions:
  status: ('A' for Active; 'I' for Inactive)
    1  A    between atoms: C_3  and  C_8
    2  A    between atoms: C_3  and  C_24
    3  A    between atoms: C_9  and  C_14
    4  A    between atoms: C_10  and  C_12
    5  A    between atoms: C_10  and  C_14
                            x       y       z     vdW  Elec       q    Type
                         _______ _______ _______ _____ _____    ______ ____

>  <TORSDO>
F 5

$$$$
=
 OpenBabel11052410153D

 25 26  0  0  1  0  0  0  0  0999 V2000
  161.8730  209.2180  149.9170 C   0  0  0  0  0  0  0  0  0  0  0  0
  161.6070  208.2190  149.1080 C   0  0  0  0  0  0  0  0  0  0  0  0
  161.3400  207.2280  148.3050 C   0  0  0  0  0  3  0  0  0  0  0  0
  160.6860  208.1510  154.0040 C   0  0  0  0  0  0  0  0  0  0  0  0
  159.7210  207.6790  154.6610 O   0  0  0  0  0  0  0  0  0  0  0  0
  161.4610  207.2470  153.1220 C   0  0  0  0  0  0  0  0  0  0  0  0
  162.3800  210.0510  152.2410 C   0  0  0  0  0  3  0  0  0  0  0  0
  161.6800  205.8400  153.5780 C   0  0  0  0  0  1  0  0  0  0  0  0
  162.8480  206.8130  151.2570 O   0  0  0  0  0  1  0  0  0  0  0  0
  161.9830  207.6540  151.9550 C   0  0  0  0  0  0  0  0  0  0  0  0
  161.0610  209.5210  154.2230 N   0  0  0  0  0  2  0  0  0  0  0  0
  162.0600  210.2730  153.5160 C   0  0  0  0  0  3  0  0  0  0  0  0
  161.6660  209.0290  151.4170 C   0  0  2  0  0  3  0  0  0  0  0  0
  162.2410  214.4530  147.6460 N   0  0  0  0  0  1  0  0  0  0  0  0
  161.0760  211.5860  149.7100 C   0  0  0  0  0  3  0  0  0  0  0  0
  161.9640  210.5720  149.3140 C   0  0  0  0  0  0  0  0  0  0  0  0
  162.1490  213.1500  148.2070 C   0  0  0  0  0  0  0  0  0  0  0  0
  161.1660  212.8670  149.1580 C   0  0  0  0  0  3  0  0  0  0  0  0
  162.9540  210.8730  148.3620 C   0  0  0  0  0  3  0  0  0  0  0  0
  163.0450  212.1540  147.8110 C   0  0  0  0  0  3  0  0  0  0  0  0
  160.4740  206.1100  148.7710 C   0  0  0  0  0  2  0  0  0  0  0  0
  160.7320  204.1590  150.2600 C   0  0  0  0  0  1  0  0  0  0  0  0
  161.3060  204.8700  149.0530 C   0  0  1  0  0  3  0  0  0  0  0  0
  161.2780  203.9200  147.8650 C   0  0  0  0  0  2  0  0  0  0  0  0
  161.2520  202.5960  148.3050 O   0  0  0  0  0  1  0  0  0  0  0  0
  2  1  2  0  0  0  0
  3 21  1  0  0  0  0
  3  2  2  0  0  0  0
  4 11  1  0  0  0  0
  4  5  2  0  0  0  0
  6  8  1  0  0  0  0
  6  4  1  0  0  0  0
  7 12  2  0  0  0  0
  9 10  1  0  0  0  0
 10  6  2  0  0  0  0
 12 11  1  0  0  0  0
 13  1  1  6  0  0  0
 13 10  1  0  0  0  0
 13  7  1  0  0  0  0
 14 17  1  0  0  0  0
 16 15  1  0  0  0  0
 16  1  1  0  0  0  0
 17 18  1  0  0  0  0
 18 15  2  0  0  0  0
 19 16  2  0  0  0  0
 20 17  2  0  0  0  0
 20 19  1  0  0  0  0
 21 23  1  0  0  0  0
 23 22  1  1  0  0  0
 24 25  1  0  0  0  0
 24 23  1  0  0  0  0
M  END
>  <MODEL>
6

>  <REMARK>
 VINA RESULT:      -6.7      3.150      5.537
  Name = 
  5 active torsions:
  status: ('A' for Active; 'I' for Inactive)
    1  A    between atoms: C_3  and  C_8
    2  A    between atoms: C_3  and  C_24
    3  A    between atoms: C_9  and  C_14
    4  A    between atoms: C_10  and  C_12
    5  A    between atoms: C_10  and  C_14
                            x       y       z     vdW  Elec       q    Type
                         _______ _______ _______ _____ _____    ______ ____

>  <TORSDO>
F 5

$$$$
=
 OpenBabel11052410153D

 25 26  0  0  1  0  0  0  0  0999 V2000
  160.9920  206.1680  151.4500 C   0  0  0  0  0  0  0  0  0  0  0  0
  160.9030  204.8880  151.7300 C   0  0  0  0  0  0  0  0  0  0  0  0
  160.8190  203.6170  152.0070 C   0  0  0  0  0  3  0  0  0  0  0  0
  162.3460  206.5770  147.2980 C   0  0  0  0  0  0  0  0  0  0  0  0
  162.8890  205.9260  146.3670 O   0  0  0  0  0  0  0  0  0  0  0  0
  160.9460  206.2660  147.6680 C   0  0  0  0  0  0  0  0  0  0  0  0
  161.9200  208.0130  150.0070 C   0  0  0  0  0  3  0  0  0  0  0  0
  160.0000  205.8860  146.5730 C   0  0  0  0  0  1  0  0  0  0  0  0
  159.1400  206.2030  149.1920 O   0  0  0  0  0  1  0  0  0  0  0  0
  160.5030  206.3340  148.9310 C   0  0  0  0  0  0  0  0  0  0  0  0
  163.0730  207.6690  147.8860 N   0  0  0  0  0  2  0  0  0  0  0  0
  162.6790  208.4700  149.0110 C   0  0  0  0  0  3  0  0  0  0  0  0
  161.4690  206.5900  150.0650 C   0  0  2  0  0  3  0  0  0  0  0  0
  161.0350  209.8110  155.8580 N   0  0  0  0  0  1  0  0  0  0  0  0
  160.8310  208.4880  152.3870 C   0  0  0  0  0  3  0  0  0  0  0  0
  161.0180  207.1110  152.5970 C   0  0  0  0  0  0  0  0  0  0  0  0
  161.0270  208.9040  154.7630 C   0  0  0  0  0  0  0  0  0  0  0  0
  160.8380  209.3790  153.4640 C   0  0  0  0  0  3  0  0  0  0  0  0
  161.2000  206.6450  153.9100 C   0  0  0  0  0  3  0  0  0  0  0  0
  161.2070  207.5370  154.9870 C   0  0  0  0  0  3  0  0  0  0  0  0
  161.5520  202.6270  151.1730 C   0  0  0  0  0  2  0  0  0  0  0  0
  161.2590  203.0270  148.7550 C   0  0  0  0  0  1  0  0  0  0  0  0
  160.7350  202.2530  149.9460 C   0  0  1  0  0  3  0  0  0  0  0  0
  160.8520  200.7650  149.6530 C   0  0  0  0  0  2  0  0  0  0  0  0
  161.2080  200.5610  148.3190 O   0  0  0  0  0  1  0  0  0  0  0  0
  1  2  2  0  0  0  0
  1 16  1  0  0  0  0
  2  3  2  0  0  0  0
  4  6  1  0  0  0  0
  4 11  1  0  0  0  0
  5  4  2  0  0  0  0
  6 10  2  0  0  0  0
  7 13  1  0  0  0  0
  8  6  1  0  0  0  0
 10  9  1  0  0  0  0
 10 13  1  0  0  0  0
 11 12  1  0  0  0  0
 12  7  2  0  0  0  0
 13  1  1  1  0  0  0
 15 16  2  0  0  0  0
 15 18  1  0  0  0  0
 16 19  1  0  0  0  0
 17 20  1  0  0  0  0
 17 14  1  0  0  0  0
 18 17  2  0  0  0  0
 19 20  2  0  0  0  0
 21  3  1  0  0  0  0
 23 22  1  6  0  0  0
 23 21  1  0  0  0  0
 24 23  1  0  0  0  0
 25 24  1  0  0  0  0
M  END
>  <MODEL>
7

>  <REMARK>
 VINA RESULT:      -6.7      2.252      4.550
  Name = 
  5 active torsions:
  status: ('A' for Active; 'I' for Inactive)
    1  A    between atoms: C_3  and  C_8
    2  A    between atoms: C_3  and  C_24
    3  A    between atoms: C_9  and  C_14
    4  A    between atoms: C_10  and  C_12
    5  A    between atoms: C_10  and  C_14
                            x       y       z     vdW  Elec       q    Type
                         _______ _______ _______ _____ _____    ______ ____

>  <TORSDO>
F 5

$$$$
=
 OpenBabel11052410153D

 25 26  0  0  1  0  0  0  0  0999 V2000
  161.8710  207.6940  150.4140 C   0  0  0  0  0  0  0  0  0  0  0  0
  162.1040  208.9240  150.0190 C   0  0  0  0  0  0  0  0  0  0  0  0
  162.3310  210.1450  149.6250 C   0  0  0  0  0  3  0  0  0  0  0  0
  161.5810  204.1550  147.8380 C   0  0  0  0  0  0  0  0  0  0  0  0
  162.2040  203.1060  147.5250 O   0  0  0  0  0  0  0  0  0  0  0  0
  160.9480  204.2390  149.1750 C   0  0  0  0  0  0  0  0  0  0  0  0
  160.8630  207.1480  148.1700 C   0  0  0  0  0  3  0  0  0  0  0  0
  160.3490  202.9940  149.7470 C   0  0  0  0  0  1  0  0  0  0  0  0
  160.1180  205.4410  151.0340 O   0  0  0  0  0  1  0  0  0  0  0  0
  160.8780  205.3860  149.8670 C   0  0  0  0  0  0  0  0  0  0  0  0
  161.4170  205.1790  146.8430 N   0  0  0  0  0  2  0  0  0  0  0  0
  160.8280  206.4770  147.0190 C   0  0  0  0  0  3  0  0  0  0  0  0
  161.5880  206.6220  149.3670 C   0  0  2  0  0  3  0  0  0  0  0  0
  160.4910  206.9530  155.9140 N   0  0  0  0  0  1  0  0  0  0  0  0
  161.9440  206.3670  152.5400 C   0  0  0  0  0  3  0  0  0  0  0  0
  161.4980  207.5000  151.8390 C   0  0  0  0  0  0  0  0  0  0  0  0
  160.8310  207.1380  154.5460 C   0  0  0  0  0  0  0  0  0  0  0  0
  161.6100  206.1850  153.8860 C   0  0  0  0  0  3  0  0  0  0  0  0
  160.7210  208.4540  152.5180 C   0  0  0  0  0  3  0  0  0  0  0  0
  160.3880  208.2730  153.8630 C   0  0  0  0  0  3  0  0  0  0  0  0
  161.9180  210.5730  148.2610 C   0  0  0  0  0  2  0  0  0  0  0  0
  163.0810  212.7170  147.8860 C   0  0  0  0  0  1  0  0  0  0  0  0
  161.7440  212.0820  148.2030 C   0  0  1  0  0  3  0  0  0  0  0  0
  160.7480  212.4690  147.1210 C   0  0  0  0  0  2  0  0  0  0  0  0
  161.4190  212.9530  145.9970 O   0  0  0  0  0  1  0  0  0  0  0  0
  1 16  1  0  0  0  0
  2  1  2  0  0  0  0
  3  2  2  0  0  0  0
  4  6  1  0  0  0  0
  5  4  2  0  0  0  0
  6  8  1  0  0  0  0
  6 10  2  0  0  0  0
  7 13  1  0  0  0  0
 10  9  1  0  0  0  0
 11 12  1  0  0  0  0
 11  4  1  0  0  0  0
 12  7  2  0  0  0  0
 13 10  1  0  0  0  0
 13  1  1  1  0  0  0
 15 18  1  0  0  0  0
 16 19  1  0  0  0  0
 16 15  2  0  0  0  0
 17 14  1  0  0  0  0
 18 17  2  0  0  0  0
 19 20  2  0  0  0  0
 20 17  1  0  0  0  0
 21  3  1  0  0  0  0
 23 22  1  6  0  0  0
 23 21  1  0  0  0  0
 24 23  1  0  0  0  0
 25 24  1  0  0  0  0
M  END
>  <MODEL>
8

>  <REMARK>
 VINA RESULT:      -6.5      3.151      4.770
  Name = 
  5 active torsions:
  status: ('A' for Active; 'I' for Inactive)
    1  A    between atoms: C_3  and  C_8
    2  A    between atoms: C_3  and  C_24
    3  A    between atoms: C_9  and  C_14
    4  A    between atoms: C_10  and  C_12
    5  A    between atoms: C_10  and  C_14
                            x       y       z     vdW  Elec       q    Type
                         _______ _______ _______ _____ _____    ______ ____

>  <TORSDO>
F 5

$$$$
=
 OpenBabel11052410153D

 25 26  0  0  1  0  0  0  0  0999 V2000
  161.9300  207.8020  152.0230 C   0  0  0  0  0  0  0  0  0  0  0  0
  161.9580  206.5460  151.6410 C   0  0  0  0  0  0  0  0  0  0  0  0
  161.9820  205.2990  151.2610 C   0  0  0  0  0  3  0  0  0  0  0  0
  160.8760  209.4710  155.9410 C   0  0  0  0  0  0  0  0  0  0  0  0
  161.2540  210.3230  156.7860 O   0  0  0  0  0  0  0  0  0  0  0  0
  160.2740  209.9390  154.6710 C   0  0  0  0  0  0  0  0  0  0  0  0
  160.8320  206.9600  154.1290 C   0  0  0  0  0  3  0  0  0  0  0  0
  159.4150  211.1630  154.7120 C   0  0  0  0  0  1  0  0  0  0  0  0
  159.7250  209.6810  152.3860 O   0  0  0  0  0  1  0  0  0  0  0  0
  160.4560  209.2970  153.5080 C   0  0  0  0  0  0  0  0  0  0  0  0
  160.9420  208.0790  156.2930 N   0  0  0  0  0  2  0  0  0  0  0  0
  160.6520  206.9530  155.4500 C   0  0  0  0  0  3  0  0  0  0  0  0
  161.4210  208.1370  153.4210 C   0  0  2  0  0  3  0  0  0  0  0  0
  162.2750  211.7890  147.9380 N   0  0  0  0  0  1  0  0  0  0  0  0
  162.2440  210.1790  151.2920 C   0  0  0  0  0  3  0  0  0  0  0  0
  162.0050  208.8350  150.9590 C   0  0  0  0  0  0  0  0  0  0  0  0
  162.1860  210.7970  148.9530 C   0  0  0  0  0  0  0  0  0  0  0  0
  162.3310  211.1550  150.2950 C   0  0  0  0  0  3  0  0  0  0  0  0
  161.8680  208.4870  149.6050 C   0  0  0  0  0  3  0  0  0  0  0  0
  161.9560  209.4620  148.6070 C   0  0  0  0  0  3  0  0  0  0  0  0
  161.1600  204.2900  151.9830 C   0  0  0  0  0  2  0  0  0  0  0  0
  160.8310  203.7630  149.5940 C   0  0  0  0  0  1  0  0  0  0  0  0
  160.5680  203.2860  151.0070 C   0  0  1  0  0  3  0  0  0  0  0  0
  161.2060  201.9160  151.1880 C   0  0  0  0  0  2  0  0  0  0  0  0
  161.1240  201.1850  150.0030 O   0  0  0  0  0  1  0  0  0  0  0  0
  2  1  2  0  0  0  0
  3  2  2  0  0  0  0
  3 21  1  0  0  0  0
  4 11  1  0  0  0  0
  4  5  2  0  0  0  0
  6  8  1  0  0  0  0
  6  4  1  0  0  0  0
  7 12  2  0  0  0  0
  9 10  1  0  0  0  0
 10  6  2  0  0  0  0
 12 11  1  0  0  0  0
 13  1  1  6  0  0  0
 13 10  1  0  0  0  0
 13  7  1  0  0  0  0
 14 17  1  0  0  0  0
 16 15  1  0  0  0  0
 16  1  1  0  0  0  0
 17 18  1  0  0  0  0
 18 15  2  0  0  0  0
 19 16  2  0  0  0  0
 20 17  2  0  0  0  0
 20 19  1  0  0  0  0
 23 22  1  6  0  0  0
 23 24  1  0  0  0  0
 23 21  1  0  0  0  0
 25 24  1  0  0  0  0
M  END
>  <MODEL>
9

>  <REMARK>
 VINA RESULT:      -6.4      3.563      6.549
  Name = 
  5 active torsions:
  status: ('A' for Active; 'I' for Inactive)
    1  A    between atoms: C_3  and  C_8
    2  A    between atoms: C_3  and  C_24
    3  A    between atoms: C_9  and  C_14
    4  A    between atoms: C_10  and  C_12
    5  A    between atoms: C_10  and  C_14
                            x       y       z     vdW  Elec       q    Type
                         _______ _______ _______ _____ _____    ______ ____

>  <TORSDO>
F 5

$$$$
