=
 OpenBabel11052411253D

 43 47  0  0  1  0  0  0  0  0999 V2000
  160.9950  206.8070  153.6590 C   0  0  0  0  0  2  0  0  0  0  0  0
  161.6180  206.7750  150.6580 C   0  0  0  0  0  2  0  0  0  0  0  0
  162.0980  207.9250  151.5570 C   0  0  2  0  0  3  0  0  0  0  0  0
  161.3310  204.2740  151.0490 N   0  0  0  0  0  0  0  0  0  0  0  0
  160.8130  202.3260  152.1580 O   0  0  0  0  0  0  0  0  0  0  0  0
  161.2410  208.0320  152.8070 C   0  0  0  0  0  0  0  0  0  0  0  0
  161.0500  205.5700  152.8150 C   0  0  0  0  0  0  0  0  0  0  0  0
  160.8030  204.3410  153.2030 O   0  0  0  0  0  0  0  0  0  0  0  0
  160.7880  209.1080  153.1560 O   0  0  0  0  0  0  0  0  0  0  0  0
  161.3860  205.5480  151.4810 C   0  0  0  0  0  0  0  0  0  0  0  0
  160.9770  203.5750  152.1470 C   0  0  0  0  0  0  0  0  0  0  0  0
  161.8980  204.7230  147.4310 C   0  0  0  0  0  2  0  0  0  0  0  0
  161.0230  204.7240  148.6670 C   0  0  0  0  0  2  0  0  0  0  0  0
  161.1070  204.2640  146.2050 C   0  0  2  0  0  3  0  0  0  0  0  0
  161.0650  202.7390  146.0140 C   0  0  2  0  0  3  0  0  0  0  0  0
  160.3800  202.4330  144.8400 O   0  0  0  0  0  1  0  0  0  0  0  0
  161.5710  203.7540  149.7030 C   0  0  2  0  0  3  0  0  0  0  0  0
  160.9730  202.3560  149.5630 C   0  0  0  0  0  2  0  0  0  0  0  0
  160.3720  202.0410  147.1720 C   0  0  0  0  0  2  0  0  0  0  0  0
  161.3700  201.6910  148.2580 C   0  0  0  0  0  2  0  0  0  0  0  0
  160.5580  205.9820  144.7930 C   0  0  0  0  0  1  0  0  0  0  0  0
  161.4890  204.9590  145.0360 O   0  0  0  0  0  0  0  0  0  0  0  0
  162.0780  209.1160  150.8250 O   0  0  0  0  0  0  0  0  0  0  0  0
  161.6920  208.7550  149.5270 C   0  0  0  0  0  2  0  0  0  0  0  0
  162.3140  209.6880  148.4910 C   0  0  0  0  0  2  0  0  0  0  0  0
  161.4960  210.8030  148.2880 O   0  0  0  0  0  0  0  0  0  0  0  0
  162.3530  211.9010  148.4020 C   0  0  0  0  0  2  0  0  0  0  0  0
  161.6770  213.1830  147.9170 C   0  0  2  0  0  3  0  0  0  0  0  0
  161.3540  214.0030  149.0050 O   0  0  0  0  0  0  0  0  0  0  0  0
  160.0770  213.5940  149.3930 C   0  0  0  0  0  2  0  0  0  0  0  0
  158.3930  213.9510  151.2930 C   0  0  2  0  0  3  0  0  0  0  0  0
  157.3800  213.6180  150.2010 C   0  0  0  0  0  1  0  0  0  0  0  0
  159.8620  213.9150  150.8620 C   0  0  1  0  0  3  0  0  0  0  0  0
  159.2470  212.7300  151.5680 C   0  0  0  0  0  2  0  0  0  0  0  0
  160.4130  212.8640  147.1330 C   0  0  0  0  0  2  0  0  0  0  0  0
  160.3850  213.6220  145.8840 N   0  0  0  0  0  0  0  0  0  0  0  0
  162.3280  212.3960  143.1020 O   0  0  0  0  0  1  0  0  0  0  0  0
  160.1480  213.2440  143.4830 C   0  0  0  0  0  2  0  0  0  0  0  0
  160.6870  212.7010  144.7930 C   0  0  1  0  0  3  0  0  0  0  0  0
  161.6200  213.3750  143.7980 C   0  0  1  0  0  3  0  0  0  0  0  0
  159.0450  214.2010  145.6950 C   0  0  0  0  0  2  0  0  0  0  0  0
  157.9350  213.4180  146.4050 C   0  0  0  0  0  2  0  0  0  0  0  0
  156.5880  213.8850  145.9030 C   0  0  0  0  0  1  0  0  0  0  0  0
  2 10  1  0  0  0  0
  2  3  1  0  0  0  0
  3 23  1  6  0  0  0
  3  6  1  0  0  0  0
  4 10  1  0  0  0  0
  4 11  1  0  0  0  0
  6  9  2  0  0  0  0
  6  1  1  0  0  0  0
  7  8  1  0  0  0  0
  7  1  1  0  0  0  0
 10  7  2  0  0  0  0
 11  5  2  0  0  0  0
 11  8  1  0  0  0  0
 12 13  1  0  0  0  0
 14 22  1  6  0  0  0
 14 12  1  0  0  0  0
 15 16  1  6  0  0  0
 15 14  1  0  0  0  0
 15 19  1  0  0  0  0
 17 13  1  6  0  0  0
 17  4  1  0  0  0  0
 18 17  1  0  0  0  0
 19 20  1  0  0  0  0
 20 18  1  0  0  0  0
 21 22  1  0  0  0  0
 24 23  1  0  0  0  0
 25 24  1  0  0  0  0
 26 27  1  0  0  0  0
 26 25  1  0  0  0  0
 28 35  1  1  0  0  0
 28 27  1  0  0  0  0
 28 29  1  0  0  0  0
 29 30  1  0  0  0  0
 31 32  1  6  0  0  0
 31 34  1  0  0  0  0
 33 30  1  6  0  0  0
 33 31  1  0  0  0  0
 33 34  1  0  0  0  0
 36 35  1  0  0  0  0
 38 40  1  0  0  0  0
 38 39  1  0  0  0  0
 39 36  1  1  0  0  0
 40 37  1  6  0  0  0
 40 39  1  0  0  0  0
 41 36  1  0  0  0  0
 41 42  1  0  0  0  0
 43 42  1  0  0  0  0
M  END
>  <MODEL>
1

>  <REMARK>
 VINA RESULT:      -7.3      0.000      0.000
  Name = 
  16 active torsions:
  status: ('A' for Active; 'I' for Inactive)
    1  A    between atoms: C_7  and  O_39
    2  A    between atoms: N_9  and  C_20
    3  A    between atoms: C_11  and  C_24
    4  A    between atoms: C_11  and  O_30
    5  A    between atoms: C_13  and  O_42
    6  A    between atoms: C_15  and  C_17
    7  A    between atoms: C_15  and  N_33
    8  A    between atoms: C_16  and  C_18
    9  A    between atoms: C_16  and  O_21
   10  A    between atoms: O_21  and  C_22
   11  A    between atoms: C_22  and  C_26
   12  A    between atoms: C_22  and  C_43
   13  A    between atoms: C_24  and  O_39
   14  A    between atoms: C_26  and  N_33
   15  A    between atoms: O_30  and  C_43
   16  A    between atoms: C_32  and  N_33
                            x       y       z     vdW  Elec       q    Type
                         _______ _______ _______ _____ _____    ______ ____

>  <TORSDO>
F 16

$$$$
=
 OpenBabel11052411253D

 43 47  0  0  1  0  0  0  0  0999 V2000
  158.0900  213.6720  147.1220 C   0  0  0  0  0  2  0  0  0  0  0  0
  159.5310  213.4520  149.8190 C   0  0  0  0  0  2  0  0  0  0  0  0
  160.2830  213.8780  148.5480 C   0  0  2  0  0  3  0  0  0  0  0  0
  157.1580  213.8670  150.6490 N   0  0  0  0  0  0  0  0  0  0  0  0
  154.8750  214.1320  150.5610 O   0  0  0  0  0  0  0  0  0  0  0  0
  159.5650  213.3890  147.3020 C   0  0  0  0  0  0  0  0  0  0  0  0
  157.4180  213.7810  148.4570 C   0  0  0  0  0  0  0  0  0  0  0  0
  156.1350  213.9390  148.6820 O   0  0  0  0  0  0  0  0  0  0  0  0
  160.1770  212.8110  146.4200 O   0  0  0  0  0  0  0  0  0  0  0  0
  158.0710  213.7400  149.6680 C   0  0  0  0  0  0  0  0  0  0  0  0
  155.9890  213.9930  149.9890 C   0  0  0  0  0  0  0  0  0  0  0  0
  158.8290  212.6140  153.6910 C   0  0  0  0  0  2  0  0  0  0  0  0
  157.8630  212.4790  152.5320 C   0  0  0  0  0  2  0  0  0  0  0  0
  158.2950  211.8960  154.9310 C   0  0  2  0  0  3  0  0  0  0  0  0
  157.3480  212.7440  155.7950 C   0  0  2  0  0  3  0  0  0  0  0  0
  156.9750  212.0220  156.9270 O   0  0  0  0  0  1  0  0  0  0  0  0
  157.3650  213.8480  152.0970 C   0  0  2  0  0  3  0  0  0  0  0  0
  156.0820  214.2550  152.8180 C   0  0  0  0  0  2  0  0  0  0  0  0
  156.0910  213.1390  155.0380 C   0  0  0  0  0  2  0  0  0  0  0  0
  156.2990  214.4500  154.3070 C   0  0  0  0  0  2  0  0  0  0  0  0
  160.5620  211.7980  155.2430 C   0  0  0  0  0  1  0  0  0  0  0  0
  159.3290  211.2850  155.6760 O   0  0  0  0  0  0  0  0  0  0  0  0
  161.5900  213.3860  148.6040 O   0  0  0  0  0  0  0  0  0  0  0  0
  161.5230  212.2230  149.3830 C   0  0  0  0  0  2  0  0  0  0  0  0
  162.2760  211.0730  148.7180 C   0  0  0  0  0  2  0  0  0  0  0  0
  161.9380  209.8580  149.3200 O   0  0  0  0  0  0  0  0  0  0  0  0
  161.9720  208.9230  148.2830 C   0  0  0  0  0  2  0  0  0  0  0  0
  162.3650  207.5390  148.7990 C   0  0  2  0  0  3  0  0  0  0  0  0
  162.6180  206.6750  147.7280 O   0  0  0  0  0  0  0  0  0  0  0  0
  161.5560  205.7700  147.7420 C   0  0  0  0  0  2  0  0  0  0  0  0
  161.5540  204.2570  145.6710 C   0  0  2  0  0  3  0  0  0  0  0  0
  160.7810  205.4210  145.0570 C   0  0  0  0  0  1  0  0  0  0  0  0
  161.9970  204.4540  147.1240 C   0  0  1  0  0  3  0  0  0  0  0  0
  162.9630  204.7090  145.9920 C   0  0  0  0  0  2  0  0  0  0  0  0
  161.2640  206.9540  149.6710 C   0  0  0  0  0  2  0  0  0  0  0  0
  161.7570  206.7270  151.0280 N   0  0  0  0  0  0  0  0  0  0  0  0
  160.4070  209.2340  153.2440 O   0  0  0  0  0  1  0  0  0  0  0  0
  161.2050  207.0070  153.3900 C   0  0  0  0  0  2  0  0  0  0  0  0
  160.7730  207.2690  151.9600 C   0  0  1  0  0  3  0  0  0  0  0  0
  161.4080  208.3770  152.7870 C   0  0  1  0  0  3  0  0  0  0  0  0
  161.9180  205.2820  151.2530 C   0  0  0  0  0  2  0  0  0  0  0  0
  160.6430  204.4750  150.9770 C   0  0  0  0  0  2  0  0  0  0  0  0
  160.9280  203.0030  151.1660 C   0  0  0  0  0  1  0  0  0  0  0  0
  1  6  1  0  0  0  0
  1  7  1  0  0  0  0
  3 23  1  1  0  0  0
  3  2  1  0  0  0  0
  6  3  1  0  0  0  0
  7  8  1  0  0  0  0
  7 10  2  0  0  0  0
  8 11  1  0  0  0  0
  9  6  2  0  0  0  0
 10  2  1  0  0  0  0
 10  4  1  0  0  0  0
 11  5  2  0  0  0  0
 11  4  1  0  0  0  0
 12 14  1  0  0  0  0
 13 12  1  0  0  0  0
 14 22  1  1  0  0  0
 14 15  1  0  0  0  0
 15 16  1  1  0  0  0
 17  4  1  6  0  0  0
 17 13  1  0  0  0  0
 17 18  1  0  0  0  0
 18 20  1  0  0  0  0
 19 15  1  0  0  0  0
 20 19  1  0  0  0  0
 21 22  1  0  0  0  0
 23 24  1  0  0  0  0
 25 26  1  0  0  0  0
 25 24  1  0  0  0  0
 27 26  1  0  0  0  0
 28 27  1  6  0  0  0
 28 35  1  0  0  0  0
 29 30  1  0  0  0  0
 29 28  1  0  0  0  0
 31 32  1  6  0  0  0
 31 34  1  0  0  0  0
 31 33  1  0  0  0  0
 33 30  1  6  0  0  0
 34 33  1  0  0  0  0
 35 36  1  0  0  0  0
 36 41  1  0  0  0  0
 39 36  1  6  0  0  0
 39 40  1  0  0  0  0
 39 38  1  0  0  0  0
 40 37  1  1  0  0  0
 40 38  1  0  0  0  0
 42 43  1  0  0  0  0
 42 41  1  0  0  0  0
M  END
>  <MODEL>
2

>  <REMARK>
 VINA RESULT:      -7.0      2.700     10.229
  Name = 
  16 active torsions:
  status: ('A' for Active; 'I' for Inactive)
    1  A    between atoms: C_7  and  O_39
    2  A    between atoms: N_9  and  C_20
    3  A    between atoms: C_11  and  C_24
    4  A    between atoms: C_11  and  O_30
    5  A    between atoms: C_13  and  O_42
    6  A    between atoms: C_15  and  C_17
    7  A    between atoms: C_15  and  N_33
    8  A    between atoms: C_16  and  C_18
    9  A    between atoms: C_16  and  O_21
   10  A    between atoms: O_21  and  C_22
   11  A    between atoms: C_22  and  C_26
   12  A    between atoms: C_22  and  C_43
   13  A    between atoms: C_24  and  O_39
   14  A    between atoms: C_26  and  N_33
   15  A    between atoms: O_30  and  C_43
   16  A    between atoms: C_32  and  N_33
                            x       y       z     vdW  Elec       q    Type
                         _______ _______ _______ _____ _____    ______ ____

>  <TORSDO>
F 16

$$$$
=
 OpenBabel11052411253D

 43 47  0  0  1  0  0  0  0  0999 V2000
  158.4320  213.4720  146.8550 C   0  0  0  0  0  2  0  0  0  0  0  0
  160.1420  213.1060  149.3720 C   0  0  0  0  0  2  0  0  0  0  0  0
  160.7830  213.4600  148.0210 C   0  0  2  0  0  3  0  0  0  0  0  0
  157.9310  213.7470  150.4620 N   0  0  0  0  0  0  0  0  0  0  0  0
  155.6890  214.2320  150.6320 O   0  0  0  0  0  0  0  0  0  0  0  0
  159.8840  213.0470  146.8680 C   0  0  0  0  0  0  0  0  0  0  0  0
  157.9300  213.6420  148.2560 C   0  0  0  0  0  0  0  0  0  0  0  0
  156.7020  213.9230  148.6240 O   0  0  0  0  0  0  0  0  0  0  0  0
  160.3330  212.4140  145.9280 O   0  0  0  0  0  0  0  0  0  0  0  0
  158.7100  213.5350  149.3850 C   0  0  0  0  0  0  0  0  0  0  0  0
  156.7120  213.9880  149.9380 C   0  0  0  0  0  0  0  0  0  0  0  0
  159.7580  212.2890  153.3180 C   0  0  0  0  0  2  0  0  0  0  0  0
  158.6560  212.2820  152.2790 C   0  0  0  0  0  2  0  0  0  0  0  0
  159.2790  211.6530  154.6230 C   0  0  2  0  0  3  0  0  0  0  0  0
  158.5590  212.6230  155.5740 C   0  0  2  0  0  3  0  0  0  0  0  0
  158.2250  211.9610  156.7530 O   0  0  0  0  0  1  0  0  0  0  0  0
  158.2980  213.7050  151.8780 C   0  0  2  0  0  3  0  0  0  0  0  0
  157.1720  214.2820  152.7320 C   0  0  0  0  0  2  0  0  0  0  0  0
  157.2870  213.1820  154.9570 C   0  0  0  0  0  2  0  0  0  0  0  0
  157.5830  214.4510  154.1830 C   0  0  0  0  0  2  0  0  0  0  0  0
  160.0740  209.5440  155.0300 C   0  0  0  0  0  1  0  0  0  0  0  0
  160.3000  210.9110  155.2580 O   0  0  0  0  0  0  0  0  0  0  0  0
  162.0350  212.8440  147.9330 O   0  0  0  0  0  0  0  0  0  0  0  0
  162.0320  211.8430  148.9130 C   0  0  0  0  0  2  0  0  0  0  0  0
  162.3210  210.4750  148.3000 C   0  0  0  0  0  2  0  0  0  0  0  0
  161.8060  209.4600  149.1110 O   0  0  0  0  0  0  0  0  0  0  0  0
  162.3080  208.2760  148.5660 C   0  0  0  0  0  2  0  0  0  0  0  0
  161.2310  207.1930  148.5080 C   0  0  2  0  0  3  0  0  0  0  0  0
  160.5070  207.1640  149.7040 O   0  0  0  0  0  0  0  0  0  0  0  0
  161.1410  206.1940  150.4820 C   0  0  0  0  0  2  0  0  0  0  0  0
  161.1820  205.6040  152.9770 C   0  0  2  0  0  3  0  0  0  0  0  0
  160.9930  204.1840  152.4490 C   0  0  0  0  0  1  0  0  0  0  0  0
  161.2860  206.6950  151.9080 C   0  0  1  0  0  3  0  0  0  0  0  0
  162.5350  206.1230  152.5360 C   0  0  0  0  0  2  0  0  0  0  0  0
  161.8520  205.8270  148.2590 C   0  0  0  0  0  2  0  0  0  0  0  0
  161.1820  205.1600  147.1450 N   0  0  0  0  0  0  0  0  0  0  0  0
  161.4370  205.8220  143.6080 O   0  0  0  0  0  1  0  0  0  0  0  0
  162.2980  204.2590  145.1680 C   0  0  0  0  0  2  0  0  0  0  0  0
  161.8910  205.5130  145.9190 C   0  0  1  0  0  3  0  0  0  0  0  0
  161.0910  205.0460  144.7130 C   0  0  1  0  0  3  0  0  0  0  0  0
  161.2300  203.7030  147.3490 C   0  0  0  0  0  2  0  0  0  0  0  0
  161.4850  203.2970  148.8050 C   0  0  0  0  0  2  0  0  0  0  0  0
  160.3940  202.3580  149.2660 C   0  0  0  0  0  1  0  0  0  0  0  0
  1  6  1  0  0  0  0
  1  7  1  0  0  0  0
  2 10  1  0  0  0  0
  3 23  1  6  0  0  0
  3  2  1  0  0  0  0
  6  3  1  0  0  0  0
  7  8  1  0  0  0  0
  7 10  2  0  0  0  0
  8 11  1  0  0  0  0
  9  6  2  0  0  0  0
 10  4  1  0  0  0  0
 11  4  1  0  0  0  0
 11  5  2  0  0  0  0
 12 14  1  0  0  0  0
 13 12  1  0  0  0  0
 14 22  1  1  0  0  0
 14 15  1  0  0  0  0
 15 16  1  1  0  0  0
 17  4  1  6  0  0  0
 17 13  1  0  0  0  0
 17 18  1  0  0  0  0
 18 20  1  0  0  0  0
 19 15  1  0  0  0  0
 20 19  1  0  0  0  0
 21 22  1  0  0  0  0
 23 24  1  0  0  0  0
 25 24  1  0  0  0  0
 25 26  1  0  0  0  0
 27 26  1  0  0  0  0
 28 35  1  1  0  0  0
 28 27  1  0  0  0  0
 28 29  1  0  0  0  0
 29 30  1  0  0  0  0
 31 32  1  6  0  0  0
 33 30  1  6  0  0  0
 33 34  1  0  0  0  0
 33 31  1  0  0  0  0
 34 31  1  0  0  0  0
 36 41  1  0  0  0  0
 36 35  1  0  0  0  0
 38 39  1  0  0  0  0
 39 36  1  1  0  0  0
 40 37  1  6  0  0  0
 40 38  1  0  0  0  0
 40 39  1  0  0  0  0
 41 42  1  0  0  0  0
 42 43  1  0  0  0  0
M  END
>  <MODEL>
3

>  <REMARK>
 VINA RESULT:      -6.8      2.457      9.603
  Name = 
  16 active torsions:
  status: ('A' for Active; 'I' for Inactive)
    1  A    between atoms: C_7  and  O_39
    2  A    between atoms: N_9  and  C_20
    3  A    between atoms: C_11  and  C_24
    4  A    between atoms: C_11  and  O_30
    5  A    between atoms: C_13  and  O_42
    6  A    between atoms: C_15  and  C_17
    7  A    between atoms: C_15  and  N_33
    8  A    between atoms: C_16  and  C_18
    9  A    between atoms: C_16  and  O_21
   10  A    between atoms: O_21  and  C_22
   11  A    between atoms: C_22  and  C_26
   12  A    between atoms: C_22  and  C_43
   13  A    between atoms: C_24  and  O_39
   14  A    between atoms: C_26  and  N_33
   15  A    between atoms: O_30  and  C_43
   16  A    between atoms: C_32  and  N_33
                            x       y       z     vdW  Elec       q    Type
                         _______ _______ _______ _____ _____    ______ ____

>  <TORSDO>
F 16

$$$$
=
 OpenBabel11052411253D

 43 47  0  0  1  0  0  0  0  0999 V2000
  157.7690  211.2170  155.7730 C   0  0  0  0  0  2  0  0  0  0  0  0
  159.6580  211.6460  153.3980 C   0  0  0  0  0  2  0  0  0  0  0  0
  159.6920  210.3450  154.2150 C   0  0  2  0  0  3  0  0  0  0  0  0
  157.7700  213.2150  152.7150 N   0  0  0  0  0  0  0  0  0  0  0  0
  155.8210  214.4230  152.8930 O   0  0  0  0  0  0  0  0  0  0  0  0
  159.1220  210.5630  155.6070 C   0  0  0  0  0  0  0  0  0  0  0  0
  157.5010  212.1490  154.6310 C   0  0  0  0  0  0  0  0  0  0  0  0
  156.4650  212.9420  154.4880 O   0  0  0  0  0  0  0  0  0  0  0  0
  159.7250  210.1720  156.5910 O   0  0  0  0  0  0  0  0  0  0  0  0
  158.3200  212.2990  153.5350 C   0  0  0  0  0  0  0  0  0  0  0  0
  156.6310  213.5700  153.3430 C   0  0  0  0  0  0  0  0  0  0  0  0
  157.5020  213.8190  149.0840 C   0  0  0  0  0  2  0  0  0  0  0  0
  157.7200  212.9270  150.2890 C   0  0  0  0  0  2  0  0  0  0  0  0
  158.3560  213.3570  147.9030 C   0  0  2  0  0  3  0  0  0  0  0  0
  159.7860  213.9220  147.8960 C   0  0  2  0  0  3  0  0  0  0  0  0
  160.4530  213.4940  146.7500 O   0  0  0  0  0  1  0  0  0  0  0  0
  158.2860  213.7320  151.4480 C   0  0  2  0  0  3  0  0  0  0  0  0
  159.8130  213.7340  151.4620 C   0  0  0  0  0  2  0  0  0  0  0  0
  160.5790  213.4730  149.1120 C   0  0  0  0  0  2  0  0  0  0  0  0
  160.3970  214.4490  150.2580 C   0  0  0  0  0  2  0  0  0  0  0  0
  157.0960  212.3000  146.3090 C   0  0  0  0  0  1  0  0  0  0  0  0
  157.6880  213.5220  146.6690 O   0  0  0  0  0  0  0  0  0  0  0  0
  161.0080  209.8770  154.2740 O   0  0  0  0  0  0  0  0  0  0  0  0
  160.9070  208.5010  154.5170 C   0  0  0  0  0  2  0  0  0  0  0  0
  160.9690  207.7080  153.2130 C   0  0  0  0  0  2  0  0  0  0  0  0
  160.7580  206.3490  153.4590 O   0  0  0  0  0  0  0  0  0  0  0  0
  161.7140  205.6910  152.6810 C   0  0  0  0  0  2  0  0  0  0  0  0
  161.1290  205.2540  151.3390 C   0  0  2  0  0  3  0  0  0  0  0  0
  161.0890  203.8580  151.2580 O   0  0  0  0  0  0  0  0  0  0  0  0
  160.4480  203.5880  150.0470 C   0  0  0  0  0  2  0  0  0  0  0  0
  160.5470  201.3990  148.7150 C   0  0  2  0  0  3  0  0  0  0  0  0
  161.3530  202.2520  147.7390 C   0  0  0  0  0  1  0  0  0  0  0  0
  160.0740  202.1180  149.9830 C   0  0  1  0  0  3  0  0  0  0  0  0
  161.3180  201.2620  150.0120 C   0  0  0  0  0  2  0  0  0  0  0  0
  161.9540  205.8030  150.1850 C   0  0  0  0  0  2  0  0  0  0  0  0
  161.3530  207.0320  149.6710 N   0  0  0  0  0  0  0  0  0  0  0  0
  162.7080  210.0290  151.1520 O   0  0  0  0  0  1  0  0  0  0  0  0
  161.8830  209.3320  149.0430 C   0  0  0  0  0  2  0  0  0  0  0  0
  162.3330  208.1040  149.8120 C   0  0  1  0  0  3  0  0  0  0  0  0
  161.7030  209.2800  150.5420 C   0  0  1  0  0  3  0  0  0  0  0  0
  161.0110  206.8500  148.2510 C   0  0  0  0  0  2  0  0  0  0  0  0
  162.0370  206.0150  147.4760 C   0  0  0  0  0  2  0  0  0  0  0  0
  161.5910  205.8730  146.0400 C   0  0  0  0  0  1  0  0  0  0  0  0
  2 10  1  0  0  0  0
  2  3  1  0  0  0  0
  3 23  1  1  0  0  0
  3  6  1  0  0  0  0
  4 11  1  0  0  0  0
  4 10  1  0  0  0  0
  5 11  2  0  0  0  0
  6  1  1  0  0  0  0
  6  9  2  0  0  0  0
  7  1  1  0  0  0  0
  8  7  1  0  0  0  0
 10  7  2  0  0  0  0
 11  8  1  0  0  0  0
 12 13  1  0  0  0  0
 14 22  1  6  0  0  0
 14 12  1  0  0  0  0
 15 16  1  6  0  0  0
 15 14  1  0  0  0  0
 15 19  1  0  0  0  0
 17 13  1  6  0  0  0
 17 18  1  0  0  0  0
 17  4  1  0  0  0  0
 19 20  1  0  0  0  0
 20 18  1  0  0  0  0
 21 22  1  0  0  0  0
 23 24  1  0  0  0  0
 25 26  1  0  0  0  0
 25 24  1  0  0  0  0
 27 26  1  0  0  0  0
 28 35  1  6  0  0  0
 28 27  1  0  0  0  0
 29 28  1  0  0  0  0
 30 29  1  0  0  0  0
 31 32  1  6  0  0  0
 31 33  1  0  0  0  0
 31 34  1  0  0  0  0
 33 34  1  0  0  0  0
 33 30  1  6  0  0  0
 36 35  1  0  0  0  0
 38 39  1  0  0  0  0
 38 40  1  0  0  0  0
 39 36  1  6  0  0  0
 39 40  1  0  0  0  0
 40 37  1  1  0  0  0
 41 36  1  0  0  0  0
 42 41  1  0  0  0  0
 43 42  1  0  0  0  0
M  END
>  <MODEL>
4

>  <REMARK>
 VINA RESULT:      -6.8      2.675      9.127
  Name = 
  16 active torsions:
  status: ('A' for Active; 'I' for Inactive)
    1  A    between atoms: C_7  and  O_39
    2  A    between atoms: N_9  and  C_20
    3  A    between atoms: C_11  and  C_24
    4  A    between atoms: C_11  and  O_30
    5  A    between atoms: C_13  and  O_42
    6  A    between atoms: C_15  and  C_17
    7  A    between atoms: C_15  and  N_33
    8  A    between atoms: C_16  and  C_18
    9  A    between atoms: C_16  and  O_21
   10  A    between atoms: O_21  and  C_22
   11  A    between atoms: C_22  and  C_26
   12  A    between atoms: C_22  and  C_43
   13  A    between atoms: C_24  and  O_39
   14  A    between atoms: C_26  and  N_33
   15  A    between atoms: O_30  and  C_43
   16  A    between atoms: C_32  and  N_33
                            x       y       z     vdW  Elec       q    Type
                         _______ _______ _______ _____ _____    ______ ____

>  <TORSDO>
F 16

$$$$
=
 OpenBabel11052411253D

 43 47  0  0  1  0  0  0  0  0999 V2000
  161.6530  204.1830  148.1930 C   0  0  0  0  0  2  0  0  0  0  0  0
  161.4380  206.9190  149.5590 C   0  0  0  0  0  2  0  0  0  0  0  0
  161.2380  206.7700  148.0420 C   0  0  2  0  0  3  0  0  0  0  0  0
  160.8630  205.4210  151.5370 N   0  0  0  0  0  0  0  0  0  0  0  0
  160.5900  203.4840  152.7480 O   0  0  0  0  0  0  0  0  0  0  0  0
  161.9190  205.5140  147.5250 C   0  0  0  0  0  0  0  0  0  0  0  0
  161.3150  204.3880  149.6380 C   0  0  0  0  0  0  0  0  0  0  0  0
  161.1070  203.4550  150.5370 O   0  0  0  0  0  0  0  0  0  0  0  0
  162.6430  205.5600  146.5450 O   0  0  0  0  0  0  0  0  0  0  0  0
  161.1610  205.6170  150.2390 C   0  0  0  0  0  0  0  0  0  0  0  0
  160.8340  204.0790  151.6640 C   0  0  0  0  0  0  0  0  0  0  0  0
  160.8100  208.8970  152.7730 C   0  0  0  0  0  2  0  0  0  0  0  0
  161.5220  207.6340  152.3350 C   0  0  0  0  0  2  0  0  0  0  0  0
  161.5850  209.6000  153.8890 C   0  0  2  0  0  3  0  0  0  0  0  0
  161.2620  209.0880  155.3030 C   0  0  2  0  0  3  0  0  0  0  0  0
  161.9680  209.8350  156.2430 O   0  0  0  0  0  1  0  0  0  0  0  0
  160.6420  206.4190  152.5840 C   0  0  2  0  0  3  0  0  0  0  0  0
  160.8820  205.8010  153.9600 C   0  0  0  0  0  2  0  0  0  0  0  0
  161.6320  207.6240  155.4730 C   0  0  0  0  0  2  0  0  0  0  0  0
  160.4700  206.7310  155.0850 C   0  0  0  0  0  2  0  0  0  0  0  0
  160.1870  211.3720  153.5020 C   0  0  0  0  0  1  0  0  0  0  0  0
  161.5140  211.0070  153.7800 O   0  0  0  0  0  0  0  0  0  0  0  0
  161.7290  207.9120  147.4020 O   0  0  0  0  0  0  0  0  0  0  0  0
  161.9550  208.8470  148.4210 C   0  0  0  0  0  2  0  0  0  0  0  0
  161.5480  210.2500  147.9770 C   0  0  0  0  0  2  0  0  0  0  0  0
  162.1320  211.2110  148.8060 O   0  0  0  0  0  0  0  0  0  0  0  0
  162.7420  212.1150  147.9330 C   0  0  0  0  0  2  0  0  0  0  0  0
  161.7740  213.2250  147.5200 C   0  0  2  0  0  3  0  0  0  0  0  0
  162.4760  214.2990  146.9630 O   0  0  0  0  0  0  0  0  0  0  0  0
  162.0590  214.3460  145.6320 C   0  0  0  0  0  2  0  0  0  0  0  0
  162.7740  212.9750  143.5860 C   0  0  2  0  0  3  0  0  0  0  0  0
  161.2830  212.6590  143.5150 C   0  0  0  0  0  1  0  0  0  0  0  0
  163.1950  213.9110  144.7230 C   0  0  1  0  0  3  0  0  0  0  0  0
  162.9830  214.4530  143.3300 C   0  0  0  0  0  2  0  0  0  0  0  0
  160.9700  213.7120  148.7160 C   0  0  0  0  0  2  0  0  0  0  0  0
  159.5980  214.0130  148.3170 N   0  0  0  0  0  0  0  0  0  0  0  0
  158.3490  212.3970  145.3430 O   0  0  0  0  0  1  0  0  0  0  0  0
  157.5790  212.8860  147.5300 C   0  0  0  0  0  2  0  0  0  0  0  0
  159.0960  212.8810  147.5450 C   0  0  1  0  0  3  0  0  0  0  0  0
  158.3410  213.3870  146.3260 C   0  0  1  0  0  3  0  0  0  0  0  0
  158.7710  214.2060  149.5190 C   0  0  0  0  0  2  0  0  0  0  0  0
  159.5900  214.4520  150.7920 C   0  0  0  0  0  2  0  0  0  0  0  0
  158.7300  214.1830  152.0050 C   0  0  0  0  0  1  0  0  0  0  0  0
  1  7  1  0  0  0  0
  2 10  1  0  0  0  0
  3 23  1  6  0  0  0
  3  2  1  0  0  0  0
  4 11  1  0  0  0  0
  6  3  1  0  0  0  0
  6  1  1  0  0  0  0
  7 10  2  0  0  0  0
  7  8  1  0  0  0  0
  8 11  1  0  0  0  0
  9  6  2  0  0  0  0
 10  4  1  0  0  0  0
 11  5  2  0  0  0  0
 12 14  1  0  0  0  0
 13 17  1  0  0  0  0
 13 12  1  0  0  0  0
 14 22  1  1  0  0  0
 14 15  1  0  0  0  0
 15 19  1  0  0  0  0
 15 16  1  1  0  0  0
 17  4  1  6  0  0  0
 17 18  1  0  0  0  0
 18 20  1  0  0  0  0
 20 19  1  0  0  0  0
 21 22  1  0  0  0  0
 23 24  1  0  0  0  0
 25 24  1  0  0  0  0
 25 26  1  0  0  0  0
 27 26  1  0  0  0  0
 28 27  1  1  0  0  0
 28 35  1  0  0  0  0
 29 28  1  0  0  0  0
 30 29  1  0  0  0  0
 31 32  1  1  0  0  0
 31 33  1  0  0  0  0
 33 30  1  1  0  0  0
 34 31  1  0  0  0  0
 34 33  1  0  0  0  0
 36 35  1  0  0  0  0
 36 41  1  0  0  0  0
 38 39  1  0  0  0  0
 39 36  1  1  0  0  0
 40 37  1  6  0  0  0
 40 38  1  0  0  0  0
 40 39  1  0  0  0  0
 41 42  1  0  0  0  0
 42 43  1  0  0  0  0
M  END
>  <MODEL>
5

>  <REMARK>
 VINA RESULT:      -6.3      1.805      6.023
  Name = 
  16 active torsions:
  status: ('A' for Active; 'I' for Inactive)
    1  A    between atoms: C_7  and  O_39
    2  A    between atoms: N_9  and  C_20
    3  A    between atoms: C_11  and  C_24
    4  A    between atoms: C_11  and  O_30
    5  A    between atoms: C_13  and  O_42
    6  A    between atoms: C_15  and  C_17
    7  A    between atoms: C_15  and  N_33
    8  A    between atoms: C_16  and  C_18
    9  A    between atoms: C_16  and  O_21
   10  A    between atoms: O_21  and  C_22
   11  A    between atoms: C_22  and  C_26
   12  A    between atoms: C_22  and  C_43
   13  A    between atoms: C_24  and  O_39
   14  A    between atoms: C_26  and  N_33
   15  A    between atoms: O_30  and  C_43
   16  A    between atoms: C_32  and  N_33
                            x       y       z     vdW  Elec       q    Type
                         _______ _______ _______ _____ _____    ______ ____

>  <TORSDO>
F 16

$$$$
=
 OpenBabel11052411253D

 43 47  0  0  1  0  0  0  0  0999 V2000
  159.3230  213.7020  147.5700 C   0  0  0  0  0  2  0  0  0  0  0  0
  161.4580  213.1410  145.4440 C   0  0  0  0  0  2  0  0  0  0  0  0
  161.5870  212.5770  146.8670 C   0  0  2  0  0  3  0  0  0  0  0  0
  159.4590  213.5660  143.9230 N   0  0  0  0  0  0  0  0  0  0  0  0
  157.3290  214.1760  143.3080 O   0  0  0  0  0  0  0  0  0  0  0  0
  160.7780  213.4020  147.8540 C   0  0  0  0  0  0  0  0  0  0  0  0
  159.0810  213.7370  146.0920 C   0  0  0  0  0  0  0  0  0  0  0  0
  157.9600  214.0470  145.4850 O   0  0  0  0  0  0  0  0  0  0  0  0
  161.2780  213.7840  148.8980 O   0  0  0  0  0  0  0  0  0  0  0  0
  160.0230  213.4280  145.1370 C   0  0  0  0  0  0  0  0  0  0  0  0
  158.1930  213.9390  144.1940 C   0  0  0  0  0  0  0  0  0  0  0  0
  160.4860  211.4710  141.0640 C   0  0  0  0  0  2  0  0  0  0  0  0
  160.6290  211.9740  142.4850 C   0  0  0  0  0  2  0  0  0  0  0  0
  161.8550  211.1740  140.4510 C   0  0  2  0  0  3  0  0  0  0  0  0
  162.5390  212.3920  139.8090 C   0  0  2  0  0  3  0  0  0  0  0  0
  163.7420  212.0000  139.2260 O   0  0  0  0  0  1  0  0  0  0  0  0
  160.0700  213.3830  142.6060 C   0  0  2  0  0  3  0  0  0  0  0  0
  161.1340  214.4520  142.3650 C   0  0  0  0  0  2  0  0  0  0  0  0
  162.8280  213.4820  140.8270 C   0  0  0  0  0  2  0  0  0  0  0  0
  161.6530  214.4330  140.9400 C   0  0  0  0  0  2  0  0  0  0  0  0
  160.4870  209.7670  139.2710 C   0  0  0  0  0  1  0  0  0  0  0  0
  161.8230  210.0450  139.6020 O   0  0  0  0  0  0  0  0  0  0  0  0
  162.9380  212.5420  147.2250 O   0  0  0  0  0  0  0  0  0  0  0  0
  163.0050  211.7340  148.3670 C   0  0  0  0  0  2  0  0  0  0  0  0
  161.9300  210.6500  148.3350 C   0  0  0  0  0  2  0  0  0  0  0  0
  162.5180  209.3840  148.2680 O   0  0  0  0  0  0  0  0  0  0  0  0
  161.8420  208.6240  149.2260 C   0  0  0  0  0  2  0  0  0  0  0  0
  161.8090  207.1460  148.8380 C   0  0  2  0  0  3  0  0  0  0  0  0
  161.8090  207.0100  147.4460 O   0  0  0  0  0  0  0  0  0  0  0  0
  161.1180  205.8210  147.2040 C   0  0  0  0  0  2  0  0  0  0  0  0
  161.9220  203.8610  145.7580 C   0  0  2  0  0  3  0  0  0  0  0  0
  160.8110  204.3410  144.8280 C   0  0  0  0  0  1  0  0  0  0  0  0
  162.1060  204.6790  147.0400 C   0  0  1  0  0  3  0  0  0  0  0  0
  162.9940  204.9270  145.8440 C   0  0  0  0  0  2  0  0  0  0  0  0
  160.5770  206.4640  149.4130 C   0  0  0  0  0  2  0  0  0  0  0  0
  160.8560  205.9580  150.7550 N   0  0  0  0  0  0  0  0  0  0  0  0
  160.9660  202.4670  149.8530 O   0  0  0  0  0  1  0  0  0  0  0  0
  161.1650  203.7800  151.8160 C   0  0  0  0  0  2  0  0  0  0  0  0
  161.4930  204.6530  150.6190 C   0  0  1  0  0  3  0  0  0  0  0  0
  160.4290  203.5720  150.5130 C   0  0  1  0  0  3  0  0  0  0  0  0
  161.7610  206.8880  151.4480 C   0  0  0  0  0  2  0  0  0  0  0  0
  161.1250  207.5670  152.6670 C   0  0  0  0  0  2  0  0  0  0  0  0
  161.2030  206.6410  153.8580 C   0  0  0  0  0  1  0  0  0  0  0  0
  1  6  1  0  0  0  0
  2  3  1  0  0  0  0
  3 23  1  1  0  0  0
  3  6  1  0  0  0  0
  4 11  1  0  0  0  0
  4 10  1  0  0  0  0
  5 11  2  0  0  0  0
  6  9  2  0  0  0  0
  7  1  1  0  0  0  0
  8  7  1  0  0  0  0
 10  2  1  0  0  0  0
 10  7  2  0  0  0  0
 11  8  1  0  0  0  0
 12 13  1  0  0  0  0
 13 17  1  0  0  0  0
 14 22  1  6  0  0  0
 14 12  1  0  0  0  0
 15 16  1  1  0  0  0
 15 14  1  0  0  0  0
 15 19  1  0  0  0  0
 17 18  1  1  0  0  0
 17  4  1  0  0  0  0
 19 20  1  0  0  0  0
 20 18  1  0  0  0  0
 21 22  1  0  0  0  0
 23 24  1  0  0  0  0
 25 24  1  0  0  0  0
 26 25  1  0  0  0  0
 26 27  1  0  0  0  0
 28 27  1  6  0  0  0
 28 35  1  0  0  0  0
 29 28  1  0  0  0  0
 30 29  1  0  0  0  0
 31 32  1  6  0  0  0
 31 34  1  0  0  0  0
 31 33  1  0  0  0  0
 33 30  1  6  0  0  0
 34 33  1  0  0  0  0
 35 36  1  0  0  0  0
 36 41  1  0  0  0  0
 39 36  1  1  0  0  0
 39 38  1  0  0  0  0
 40 37  1  6  0  0  0
 40 39  1  0  0  0  0
 40 38  1  0  0  0  0
 41 42  1  0  0  0  0
 42 43  1  0  0  0  0
M  END
>  <MODEL>
6

>  <REMARK>
 VINA RESULT:      -6.2      2.415      9.970
  Name = 
  16 active torsions:
  status: ('A' for Active; 'I' for Inactive)
    1  A    between atoms: C_7  and  O_39
    2  A    between atoms: N_9  and  C_20
    3  A    between atoms: C_11  and  C_24
    4  A    between atoms: C_11  and  O_30
    5  A    between atoms: C_13  and  O_42
    6  A    between atoms: C_15  and  C_17
    7  A    between atoms: C_15  and  N_33
    8  A    between atoms: C_16  and  C_18
    9  A    between atoms: C_16  and  O_21
   10  A    between atoms: O_21  and  C_22
   11  A    between atoms: C_22  and  C_26
   12  A    between atoms: C_22  and  C_43
   13  A    between atoms: C_24  and  O_39
   14  A    between atoms: C_26  and  N_33
   15  A    between atoms: O_30  and  C_43
   16  A    between atoms: C_32  and  N_33
                            x       y       z     vdW  Elec       q    Type
                         _______ _______ _______ _____ _____    ______ ____

>  <TORSDO>
F 16

$$$$
=
 OpenBabel11052411253D

 43 47  0  0  1  0  0  0  0  0999 V2000
  158.0290  214.2070  146.1430 C   0  0  0  0  0  2  0  0  0  0  0  0
  160.5910  213.4280  144.6530 C   0  0  0  0  0  2  0  0  0  0  0  0
  160.3370  212.9590  146.0940 C   0  0  2  0  0  3  0  0  0  0  0  0
  159.0530  213.8150  142.6590 N   0  0  0  0  0  0  0  0  0  0  0  0
  157.1730  214.4530  141.4980 O   0  0  0  0  0  0  0  0  0  0  0  0
  159.3520  213.8770  146.7980 C   0  0  0  0  0  0  0  0  0  0  0  0
  158.1610  214.1470  144.6520 C   0  0  0  0  0  0  0  0  0  0  0  0
  157.2400  214.4530  143.7670 O   0  0  0  0  0  0  0  0  0  0  0  0
  159.5970  214.3140  147.9090 O   0  0  0  0  0  0  0  0  0  0  0  0
  159.2920  213.7420  143.9820 C   0  0  0  0  0  0  0  0  0  0  0  0
  157.7790  214.2490  142.5840 C   0  0  0  0  0  0  0  0  0  0  0  0
  160.5340  211.5250  140.1740 C   0  0  0  0  0  2  0  0  0  0  0  0
  160.3600  212.0540  141.5820 C   0  0  0  0  0  2  0  0  0  0  0  0
  161.9700  211.0540  139.9420 C   0  0  2  0  0  3  0  0  0  0  0  0
  162.9370  212.1660  139.5000 C   0  0  2  0  0  3  0  0  0  0  0  0
  164.1950  211.6200  139.2540 O   0  0  0  0  0  1  0  0  0  0  0  0
  159.9600  213.5210  141.5500 C   0  0  2  0  0  3  0  0  0  0  0  0
  161.1690  214.4530  141.5950 C   0  0  0  0  0  2  0  0  0  0  0  0
  163.0780  213.2470  140.5570 C   0  0  0  0  0  2  0  0  0  0  0  0
  162.0350  214.3290  140.3560 C   0  0  0  0  0  2  0  0  0  0  0  0
  161.3610  208.8540  139.7600 C   0  0  0  0  0  1  0  0  0  0  0  0
  162.0270  209.9090  139.1160 O   0  0  0  0  0  0  0  0  0  0  0  0
  161.5540  212.9030  146.7780 O   0  0  0  0  0  0  0  0  0  0  0  0
  161.3810  211.9360  147.7770 C   0  0  0  0  0  2  0  0  0  0  0  0
  162.6220  211.8340  148.6620 C   0  0  0  0  0  2  0  0  0  0  0  0
  162.3240  211.1390  149.8370 O   0  0  0  0  0  0  0  0  0  0  0  0
  162.1920  209.8060  149.4420 C   0  0  0  0  0  2  0  0  0  0  0  0
  161.7450  208.9250  150.6080 C   0  0  2  0  0  3  0  0  0  0  0  0
  162.0290  209.5510  151.8270 O   0  0  0  0  0  0  0  0  0  0  0  0
  160.7850  209.7340  152.4320 C   0  0  0  0  0  2  0  0  0  0  0  0
  160.6600  210.4730  154.8850 C   0  0  2  0  0  3  0  0  0  0  0  0
  160.4580  208.9800  155.1260 C   0  0  0  0  0  1  0  0  0  0  0  0
  160.8620  210.8830  153.4230 C   0  0  1  0  0  3  0  0  0  0  0  0
  162.0520  210.7050  154.3350 C   0  0  0  0  0  2  0  0  0  0  0  0
  162.4400  207.5730  150.5600 C   0  0  0  0  0  2  0  0  0  0  0  0
  161.4810  206.5200  150.2350 N   0  0  0  0  0  0  0  0  0  0  0  0
  160.8100  206.2930  146.6980 O   0  0  0  0  0  1  0  0  0  0  0  0
  160.9410  204.8290  148.5570 C   0  0  0  0  0  2  0  0  0  0  0  0
  161.7460  206.0770  148.8700 C   0  0  1  0  0  3  0  0  0  0  0  0
  160.4720  206.1710  148.0450 C   0  0  1  0  0  3  0  0  0  0  0  0
  161.6550  205.3960  151.1690 C   0  0  0  0  0  2  0  0  0  0  0  0
  162.2250  205.8140  152.5300 C   0  0  0  0  0  2  0  0  0  0  0  0
  161.1140  205.8550  153.5520 C   0  0  0  0  0  1  0  0  0  0  0  0
  1  6  1  0  0  0  0
  2  3  1  0  0  0  0
  3 23  1  1  0  0  0
  3  6  1  0  0  0  0
  4 10  1  0  0  0  0
  5 11  2  0  0  0  0
  6  9  2  0  0  0  0
  7  1  1  0  0  0  0
  8  7  1  0  0  0  0
 10  7  2  0  0  0  0
 10  2  1  0  0  0  0
 11  4  1  0  0  0  0
 11  8  1  0  0  0  0
 12 13  1  0  0  0  0
 14 22  1  6  0  0  0
 14 12  1  0  0  0  0
 15 16  1  1  0  0  0
 15 14  1  0  0  0  0
 15 19  1  0  0  0  0
 17 13  1  1  0  0  0
 17 18  1  0  0  0  0
 17  4  1  0  0  0  0
 20 19  1  0  0  0  0
 20 18  1  0  0  0  0
 22 21  1  0  0  0  0
 23 24  1  0  0  0  0
 24 25  1  0  0  0  0
 25 26  1  0  0  0  0
 27 26  1  0  0  0  0
 28 27  1  6  0  0  0
 28 29  1  0  0  0  0
 29 30  1  0  0  0  0
 31 32  1  6  0  0  0
 33 30  1  6  0  0  0
 33 34  1  0  0  0  0
 33 31  1  0  0  0  0
 34 31  1  0  0  0  0
 35 28  1  0  0  0  0
 36 35  1  0  0  0  0
 36 41  1  0  0  0  0
 38 39  1  0  0  0  0
 39 36  1  1  0  0  0
 40 37  1  6  0  0  0
 40 38  1  0  0  0  0
 40 39  1  0  0  0  0
 41 42  1  0  0  0  0
 42 43  1  0  0  0  0
M  END
>  <MODEL>
7

>  <REMARK>
 VINA RESULT:      -6.0      2.812      9.616
  Name = 
  16 active torsions:
  status: ('A' for Active; 'I' for Inactive)
    1  A    between atoms: C_7  and  O_39
    2  A    between atoms: N_9  and  C_20
    3  A    between atoms: C_11  and  C_24
    4  A    between atoms: C_11  and  O_30
    5  A    between atoms: C_13  and  O_42
    6  A    between atoms: C_15  and  C_17
    7  A    between atoms: C_15  and  N_33
    8  A    between atoms: C_16  and  C_18
    9  A    between atoms: C_16  and  O_21
   10  A    between atoms: O_21  and  C_22
   11  A    between atoms: C_22  and  C_26
   12  A    between atoms: C_22  and  C_43
   13  A    between atoms: C_24  and  O_39
   14  A    between atoms: C_26  and  N_33
   15  A    between atoms: O_30  and  C_43
   16  A    between atoms: C_32  and  N_33
                            x       y       z     vdW  Elec       q    Type
                         _______ _______ _______ _____ _____    ______ ____

>  <TORSDO>
F 16

$$$$
=
 OpenBabel11052411253D

 43 47  0  0  1  0  0  0  0  0999 V2000
  162.3670  209.5010  137.6020 C   0  0  0  0  0  2  0  0  0  0  0  0
  161.2510  209.6730  140.4520 C   0  0  0  0  0  2  0  0  0  0  0  0
  161.9150  208.3870  139.9350 C   0  0  2  0  0  3  0  0  0  0  0  0
  161.7040  212.1450  140.0320 N   0  0  0  0  0  0  0  0  0  0  0  0
  162.2520  214.0540  138.8730 O   0  0  0  0  0  0  0  0  0  0  0  0
  161.8730  208.3260  138.4170 C   0  0  0  0  0  0  0  0  0  0  0  0
  162.1870  210.7750  138.3690 C   0  0  0  0  0  0  0  0  0  0  0  0
  162.4300  211.9920  137.9420 O   0  0  0  0  0  0  0  0  0  0  0  0
  161.4880  207.3200  137.8480 O   0  0  0  0  0  0  0  0  0  0  0  0
  161.7410  210.8500  139.6690 C   0  0  0  0  0  0  0  0  0  0  0  0
  162.1430  212.8010  138.9390 C   0  0  0  0  0  0  0  0  0  0  0  0
  162.3700  213.5710  143.3700 C   0  0  0  0  0  2  0  0  0  0  0  0
  162.2860  212.4200  142.3890 C   0  0  0  0  0  2  0  0  0  0  0  0
  161.9710  213.1200  144.7750 C   0  0  2  0  0  3  0  0  0  0  0  0
  160.4590  213.1720  145.0500 C   0  0  2  0  0  3  0  0  0  0  0  0
  160.2110  212.8060  146.3720 O   0  0  0  0  0  1  0  0  0  0  0  0
  161.2670  212.7250  141.3030 C   0  0  2  0  0  3  0  0  0  0  0  0
  159.8700  212.2210  141.6600 C   0  0  0  0  0  2  0  0  0  0  0  0
  159.6840  212.2370  144.1370 C   0  0  0  0  0  2  0  0  0  0  0  0
  159.2880  212.9470  142.8580 C   0  0  0  0  0  2  0  0  0  0  0  0
  163.0590  212.8160  146.7670 C   0  0  0  0  0  1  0  0  0  0  0  0
  162.7380  213.7580  145.7760 O   0  0  0  0  0  0  0  0  0  0  0  0
  161.2740  207.2820  140.5030 O   0  0  0  0  0  0  0  0  0  0  0  0
  162.2440  206.6490  141.2910 C   0  0  0  0  0  2  0  0  0  0  0  0
  161.5950  205.7990  142.3820 C   0  0  0  0  0  2  0  0  0  0  0  0
  161.5810  206.4930  143.5940 O   0  0  0  0  0  0  0  0  0  0  0  0
  161.0750  205.5800  144.5230 C   0  0  0  0  0  2  0  0  0  0  0  0
  161.7250  205.7680  145.8940 C   0  0  2  0  0  3  0  0  0  0  0  0
  162.2730  204.5600  146.3400 O   0  0  0  0  0  0  0  0  0  0  0  0
  161.4540  203.5720  145.7910 C   0  0  0  0  0  2  0  0  0  0  0  0
  160.1260  201.4640  146.3990 C   0  0  2  0  0  3  0  0  0  0  0  0
  160.0090  201.3320  144.8830 C   0  0  0  0  0  1  0  0  0  0  0  0
  160.9320  202.6690  146.8950 C   0  0  1  0  0  3  0  0  0  0  0  0
  161.5780  201.3070  146.8010 C   0  0  0  0  0  2  0  0  0  0  0  0
  160.7090  206.2680  146.9090 C   0  0  0  0  0  2  0  0  0  0  0  0
  161.2680  206.2100  148.2580 N   0  0  0  0  0  0  0  0  0  0  0  0
  162.3030  209.6490  148.5940 O   0  0  0  0  0  1  0  0  0  0  0  0
  162.2330  207.6980  149.9370 C   0  0  0  0  0  2  0  0  0  0  0  0
  161.2100  207.5530  148.8260 C   0  0  1  0  0  3  0  0  0  0  0  0
  162.5250  208.2730  148.5710 C   0  0  1  0  0  3  0  0  0  0  0  0
  160.4690  205.2850  149.0780 C   0  0  0  0  0  2  0  0  0  0  0  0
  161.3110  204.4320  150.0340 C   0  0  0  0  0  2  0  0  0  0  0  0
  160.4980  203.2470  150.5030 C   0  0  0  0  0  1  0  0  0  0  0  0
  1  7  1  0  0  0  0
  1  6  1  0  0  0  0
  3  2  1  0  0  0  0
  3 23  1  1  0  0  0
  5 11  2  0  0  0  0
  6  3  1  0  0  0  0
  7 10  2  0  0  0  0
  8  7  1  0  0  0  0
  8 11  1  0  0  0  0
  9  6  2  0  0  0  0
 10  4  1  0  0  0  0
 10  2  1  0  0  0  0
 11  4  1  0  0  0  0
 12 14  1  0  0  0  0
 13 12  1  0  0  0  0
 14 15  1  0  0  0  0
 14 22  1  1  0  0  0
 15 16  1  1  0  0  0
 17  4  1  6  0  0  0
 17 18  1  0  0  0  0
 17 13  1  0  0  0  0
 18 20  1  0  0  0  0
 19 15  1  0  0  0  0
 20 19  1  0  0  0  0
 22 21  1  0  0  0  0
 23 24  1  0  0  0  0
 24 25  1  0  0  0  0
 25 26  1  0  0  0  0
 26 27  1  0  0  0  0
 28 27  1  6  0  0  0
 28 29  1  0  0  0  0
 28 35  1  0  0  0  0
 30 29  1  0  0  0  0
 31 32  1  6  0  0  0
 31 34  1  0  0  0  0
 31 33  1  0  0  0  0
 33 30  1  6  0  0  0
 34 33  1  0  0  0  0
 35 36  1  0  0  0  0
 36 41  1  0  0  0  0
 39 36  1  6  0  0  0
 39 38  1  0  0  0  0
 40 37  1  1  0  0  0
 40 39  1  0  0  0  0
 40 38  1  0  0  0  0
 41 42  1  0  0  0  0
 42 43  1  0  0  0  0
M  END
>  <MODEL>
8

>  <REMARK>
 VINA RESULT:      -5.6      3.458     11.386
  Name = 
  16 active torsions:
  status: ('A' for Active; 'I' for Inactive)
    1  A    between atoms: C_7  and  O_39
    2  A    between atoms: N_9  and  C_20
    3  A    between atoms: C_11  and  C_24
    4  A    between atoms: C_11  and  O_30
    5  A    between atoms: C_13  and  O_42
    6  A    between atoms: C_15  and  C_17
    7  A    between atoms: C_15  and  N_33
    8  A    between atoms: C_16  and  C_18
    9  A    between atoms: C_16  and  O_21
   10  A    between atoms: O_21  and  C_22
   11  A    between atoms: C_22  and  C_26
   12  A    between atoms: C_22  and  C_43
   13  A    between atoms: C_24  and  O_39
   14  A    between atoms: C_26  and  N_33
   15  A    between atoms: O_30  and  C_43
   16  A    between atoms: C_32  and  N_33
                            x       y       z     vdW  Elec       q    Type
                         _______ _______ _______ _____ _____    ______ ____

>  <TORSDO>
F 16

$$$$
=
 OpenBabel11052411253D

 43 47  0  0  1  0  0  0  0  0999 V2000
  159.3110  210.2660  154.9800 C   0  0  0  0  0  2  0  0  0  0  0  0
  160.5830  211.2740  152.3790 C   0  0  0  0  0  2  0  0  0  0  0  0
  160.8750  209.8630  152.9120 C   0  0  2  0  0  3  0  0  0  0  0  0
  158.5040  212.7460  152.4220 N   0  0  0  0  0  0  0  0  0  0  0  0
  156.5820  213.7120  153.2350 O   0  0  0  0  0  0  0  0  0  0  0  0
  160.6260  209.7840  154.4090 C   0  0  0  0  0  0  0  0  0  0  0  0
  158.7380  211.3480  154.1160 C   0  0  0  0  0  0  0  0  0  0  0  0
  157.6540  212.0500  154.3500 O   0  0  0  0  0  0  0  0  0  0  0  0
  161.4580  209.2910  155.1510 O   0  0  0  0  0  0  0  0  0  0  0  0
  159.2770  211.7620  152.9190 C   0  0  0  0  0  0  0  0  0  0  0  0
  157.5200  212.8770  153.3340 C   0  0  0  0  0  0  0  0  0  0  0  0
  157.2930  214.1240  149.2200 C   0  0  0  0  0  2  0  0  0  0  0  0
  157.7680  212.9900  150.1050 C   0  0  0  0  0  2  0  0  0  0  0  0
  157.7530  213.9170  147.7770 C   0  0  2  0  0  3  0  0  0  0  0  0
  159.1630  214.4530  147.4790 C   0  0  2  0  0  3  0  0  0  0  0  0
  159.4560  214.2750  146.1290 O   0  0  0  0  0  1  0  0  0  0  0  0
  158.6880  213.5190  151.1940 C   0  0  2  0  0  3  0  0  0  0  0  0
  160.1560  213.4980  150.7730 C   0  0  0  0  0  2  0  0  0  0  0  0
  160.2250  213.7430  148.3010 C   0  0  0  0  0  2  0  0  0  0  0  0
  160.4360  214.4500  149.6250 C   0  0  0  0  0  2  0  0  0  0  0  0
  156.5580  213.3250  145.9150 C   0  0  0  0  0  1  0  0  0  0  0  0
  156.7860  214.3530  146.8440 O   0  0  0  0  0  0  0  0  0  0  0  0
  162.1940  209.5200  152.6000 O   0  0  0  0  0  0  0  0  0  0  0  0
  162.2340  209.4040  151.2050 C   0  0  0  0  0  2  0  0  0  0  0  0
  161.2930  208.3030  150.7200 C   0  0  0  0  0  2  0  0  0  0  0  0
  161.9770  207.4070  149.8940 O   0  0  0  0  0  0  0  0  0  0  0  0
  161.0430  206.4140  149.5900 C   0  0  0  0  0  2  0  0  0  0  0  0
  161.7210  205.1810  148.9930 C   0  0  2  0  0  3  0  0  0  0  0  0
  160.9190  204.6250  147.9900 O   0  0  0  0  0  0  0  0  0  0  0  0
  161.7630  204.5030  146.8850 C   0  0  0  0  0  2  0  0  0  0  0  0
  161.0910  205.8150  144.7860 C   0  0  2  0  0  3  0  0  0  0  0  0
  160.3920  204.5070  144.4250 C   0  0  0  0  0  1  0  0  0  0  0  0
  161.8170  205.8230  146.1340 C   0  0  1  0  0  3  0  0  0  0  0  0
  160.4310  206.4090  146.0130 C   0  0  0  0  0  2  0  0  0  0  0  0
  161.9850  204.1360  150.0660 C   0  0  0  0  0  2  0  0  0  0  0  0
  160.7780  203.3520  150.3190 N   0  0  0  0  0  0  0  0  0  0  0  0
  161.0220  200.5740  148.0300 O   0  0  0  0  0  1  0  0  0  0  0  0
  159.7800  201.1510  149.9630 C   0  0  0  0  0  2  0  0  0  0  0  0
  161.0590  201.9670  149.9530 C   0  0  1  0  0  3  0  0  0  0  0  0
  160.3530  201.6290  148.6490 C   0  0  1  0  0  3  0  0  0  0  0  0
  160.4330  203.4330  151.7470 C   0  0  0  0  0  2  0  0  0  0  0  0
  161.4000  204.3010  152.5610 C   0  0  0  0  0  2  0  0  0  0  0  0
  160.7680  205.6480  152.8260 C   0  0  0  0  0  1  0  0  0  0  0  0
  2  3  1  0  0  0  0
  2 10  1  0  0  0  0
  3 23  1  1  0  0  0
  3  6  1  0  0  0  0
  4 10  1  0  0  0  0
  4 11  1  0  0  0  0
  5 11  2  0  0  0  0
  6  1  1  0  0  0  0
  6  9  2  0  0  0  0
  7  8  1  0  0  0  0
  7  1  1  0  0  0  0
 10  7  2  0  0  0  0
 11  8  1  0  0  0  0
 12 13  1  0  0  0  0
 14 22  1  6  0  0  0
 14 12  1  0  0  0  0
 15 16  1  6  0  0  0
 15 14  1  0  0  0  0
 15 19  1  0  0  0  0
 17 13  1  6  0  0  0
 17  4  1  0  0  0  0
 18 17  1  0  0  0  0
 19 20  1  0  0  0  0
 20 18  1  0  0  0  0
 21 22  1  0  0  0  0
 24 23  1  0  0  0  0
 25 24  1  0  0  0  0
 26 25  1  0  0  0  0
 27 26  1  0  0  0  0
 28 27  1  1  0  0  0
 28 35  1  0  0  0  0
 29 28  1  0  0  0  0
 30 29  1  0  0  0  0
 31 32  1  1  0  0  0
 31 34  1  0  0  0  0
 31 33  1  0  0  0  0
 33 30  1  1  0  0  0
 34 33  1  0  0  0  0
 35 36  1  0  0  0  0
 36 41  1  0  0  0  0
 39 38  1  0  0  0  0
 39 36  1  1  0  0  0
 40 37  1  6  0  0  0
 40 39  1  0  0  0  0
 40 38  1  0  0  0  0
 41 42  1  0  0  0  0
 42 43  1  0  0  0  0
M  END
>  <MODEL>
9

>  <REMARK>
 VINA RESULT:      -5.5      2.514      9.472
  Name = 
  16 active torsions:
  status: ('A' for Active; 'I' for Inactive)
    1  A    between atoms: C_7  and  O_39
    2  A    between atoms: N_9  and  C_20
    3  A    between atoms: C_11  and  C_24
    4  A    between atoms: C_11  and  O_30
    5  A    between atoms: C_13  and  O_42
    6  A    between atoms: C_15  and  C_17
    7  A    between atoms: C_15  and  N_33
    8  A    between atoms: C_16  and  C_18
    9  A    between atoms: C_16  and  O_21
   10  A    between atoms: O_21  and  C_22
   11  A    between atoms: C_22  and  C_26
   12  A    between atoms: C_22  and  C_43
   13  A    between atoms: C_24  and  O_39
   14  A    between atoms: C_26  and  N_33
   15  A    between atoms: O_30  and  C_43
   16  A    between atoms: C_32  and  N_33
                            x       y       z     vdW  Elec       q    Type
                         _______ _______ _______ _____ _____    ______ ____

>  <TORSDO>
F 16

$$$$
