=
 OpenBabel11052411193D

 31 34  0  0  1  0  0  0  0  0999 V2000
  161.8610  210.4110  155.2470 C   0  0  0  0  0  3  0  0  0  0  0  0
  156.8510  211.5420  154.3060 C   0  0  0  0  0  3  0  0  0  0  0  0
  158.0390  211.4780  153.5010 N   0  0  0  0  0  0  0  0  0  0  0  0
  159.0240  212.6780  156.0370 N   0  0  0  0  0  0  0  0  0  0  0  0
  161.5960  209.5850  154.1000 N   0  0  0  0  0  0  0  0  0  0  0  0
  157.3450  214.1760  156.8630 C   0  0  0  0  0  1  0  0  0  0  0  0
  160.3860  211.3490  152.9390 C   0  0  2  0  0  3  0  0  0  0  0  0
  160.9380  209.9480  153.0390 C   0  0  0  0  0  0  0  0  0  0  0  0
  161.0260  211.3150  155.7840 C   0  0  0  0  0  0  0  0  0  0  0  0
  159.2680  211.5310  153.9180 C   0  0  0  0  0  0  0  0  0  0  0  0
  161.5150  212.0640  156.8500 O   0  0  0  0  0  1  0  0  0  0  0  0
  159.5670  211.4910  155.3930 C   0  0  2  0  0  3  0  0  0  0  0  0
  157.7660  212.9960  156.0620 C   0  0  0  0  0  0  0  0  0  0  0  0
  156.7550  212.2070  155.4210 N   0  0  0  0  0  0  0  0  0  0  0  0
  159.7570  213.2830  151.6840 C   0  0  0  0  0  2  0  0  0  0  0  0
  159.2830  213.8020  150.3270 C   0  0  0  0  0  2  0  0  0  0  0  0
  160.8410  212.1350  149.2620 C   0  0  0  0  0  2  0  0  0  0  0  0
  160.3590  213.5860  149.2620 C   0  0  2  0  0  3  0  0  0  0  0  0
  161.2380  211.7040  150.6720 C   0  0  0  0  0  2  0  0  0  0  0  0
  160.0990  211.8620  151.5850 N   0  0  1  0  0  0  0  0  0  0  0  0
  161.4350  214.4510  149.4770 O   0  0  0  0  0  0  0  0  0  0  0  0
  162.1590  214.3630  148.3820 O   0  0  0  0  0  1  0  0  0  0  0  0
  160.7450  209.0320  152.0060 O   0  0  0  0  0  0  0  0  0  0  0  0
  161.5480  207.9700  151.8590 O   0  0  0  0  0  0  0  0  0  0  0  0
  162.0600  208.0910  150.5660 C   0  0  0  0  0  2  0  0  0  0  0  0
  161.2800  207.2030  149.6110 C   0  0  0  0  0  2  0  0  0  0  0  0
  161.6970  207.4650  148.2420 N   0  0  0  0  0  2  0  0  0  0  0  0
  161.2670  205.0320  148.1300 O   0  0  0  0  0  1  0  0  0  0  0  0
  160.8790  206.3980  146.2840 O   0  0  0  0  0  0  0  0  0  0  0  0
  161.5270  206.2390  147.4790 C   0  0  0  0  0  0  0  0  0  0  0  0
  162.2090  206.1590  146.2940 O   0  0  0  0  0  0  0  0  0  0  0  0
  1  9  2  0  0  0  0
  2 14  2  0  0  0  0
  3 10  2  0  0  0  0
  3  2  1  0  0  0  0
  4 13  2  0  0  0  0
  5  1  1  0  0  0  0
  7  8  1  6  0  0  0
  7 10  1  0  0  0  0
  8  5  2  0  0  0  0
  9 11  1  0  0  0  0
 12 10  1  6  0  0  0
 12  9  1  0  0  0  0
 12  4  1  0  0  0  0
 13  6  1  0  0  0  0
 14 13  1  0  0  0  0
 16 15  1  0  0  0  0
 17 19  1  0  0  0  0
 18 17  1  0  0  0  0
 18 21  1  1  0  0  0
 18 16  1  0  0  0  0
 20 19  1  6  0  0  0
 20 15  1  0  0  0  0
 20  7  1  0  0  0  0
 22 21  1  0  0  0  0
 23  8  1  0  0  0  0
 24 23  1  0  0  0  0
 25 24  1  0  0  0  0
 26 25  1  0  0  0  0
 27 26  1  0  0  0  0
 29 31  1  0  0  0  0
 29 30  1  0  0  0  0
 30 28  1  0  0  0  0
 30 27  1  0  0  0  0
 31 30  1  0  0  0  0
M  END
>  <MODEL>
1

>  <REMARK>
 VINA RESULT:      -4.8      0.000      0.000
  Name = 
  8 active torsions:
  status: ('A' for Active; 'I' for Inactive)
    1  A    between atoms: C_7  and  O_15
    2  A    between atoms: C_7  and  C_20
    3  A    between atoms: O_9  and  C_21
    4  A    between atoms: O_10  and  O_15
    5  A    between atoms: O_10  and  C_16
    6  A    between atoms: C_12  and  N_30
    7  A    between atoms: C_20  and  N_28
    8  A    between atoms: C_22  and  N_28
                            x       y       z     vdW  Elec       q    Type
                         _______ _______ _______ _____ _____    ______ ____

>  <TORSDO>
F 8

$$$$
=
 OpenBabel11052411193D

 31 34  0  0  1  0  0  0  0  0999 V2000
  159.2350  212.4560  151.4900 C   0  0  0  0  0  3  0  0  0  0  0  0
  162.6180  210.6840  155.0510 C   0  0  0  0  0  3  0  0  0  0  0  0
  162.2180  210.2560  153.7400 N   0  0  0  0  0  0  0  0  0  0  0  0
  159.6570  211.1630  154.9500 N   0  0  0  0  0  0  0  0  0  0  0  0
  160.4130  212.2640  150.6890 N   0  0  0  0  0  0  0  0  0  0  0  0
  159.6490  210.5280  157.2600 C   0  0  0  0  0  1  0  0  0  0  0  0
  160.9200  210.1120  151.7060 C   0  0  2  0  0  3  0  0  0  0  0  0
  161.2090  211.2370  150.7430 C   0  0  0  0  0  0  0  0  0  0  0  0
  159.0870  212.1100  152.7790 C   0  0  0  0  0  0  0  0  0  0  0  0
  161.1250  210.5760  153.1150 C   0  0  0  0  0  0  0  0  0  0  0  0
  157.8310  212.3170  153.3420 O   0  0  0  0  0  1  0  0  0  0  0  0
  160.2090  211.6260  153.6840 C   0  0  2  0  0  3  0  0  0  0  0  0
  160.3600  210.8710  156.0000 C   0  0  0  0  0  0  0  0  0  0  0  0
  161.7920  210.9500  156.0210 N   0  0  0  0  0  0  0  0  0  0  0  0
  160.7850  207.7640  152.1320 C   0  0  0  0  0  2  0  0  0  0  0  0
  161.4900  206.4160  151.9840 C   0  0  0  0  0  2  0  0  0  0  0  0
  162.2460  207.1810  149.7070 C   0  0  0  0  0  2  0  0  0  0  0  0
  161.6220  206.0370  150.5080 C   0  0  2  0  0  3  0  0  0  0  0  0
  161.5000  208.4870  149.9700 C   0  0  0  0  0  2  0  0  0  0  0  0
  161.5230  208.7990  151.4040 N   0  0  1  0  0  0  0  0  0  0  0  0
  160.3730  205.7040  149.9790 O   0  0  0  0  0  0  0  0  0  0  0  0
  160.6070  205.4360  148.7120 O   0  0  0  0  0  1  0  0  0  0  0  0
  162.3280  211.1920  149.9120 O   0  0  0  0  0  0  0  0  0  0  0  0
  162.2100  211.2970  148.5820 O   0  0  0  0  0  0  0  0  0  0  0  0
  163.0410  212.3660  148.2380 C   0  0  0  0  0  2  0  0  0  0  0  0
  162.2380  213.4430  147.5300 C   0  0  0  0  0  2  0  0  0  0  0  0
  162.2040  213.1760  146.1000 N   0  0  0  0  0  2  0  0  0  0  0  0
  159.7860  213.2450  146.6120 O   0  0  0  0  0  1  0  0  0  0  0  0
  160.5850  213.9320  144.5360 O   0  0  0  0  0  0  0  0  0  0  0  0
  160.8160  213.2030  145.6710 C   0  0  0  0  0  0  0  0  0  0  0  0
  160.5330  212.5840  144.4830 O   0  0  0  0  0  0  0  0  0  0  0  0
  1  9  2  0  0  0  0
  2 14  2  0  0  0  0
  3  2  1  0  0  0  0
  4 13  2  0  0  0  0
  5  8  2  0  0  0  0
  5  1  1  0  0  0  0
  7  8  1  6  0  0  0
  7 10  1  0  0  0  0
  9 11  1  0  0  0  0
 10 12  1  0  0  0  0
 10  3  2  0  0  0  0
 12  9  1  6  0  0  0
 12  4  1  0  0  0  0
 13 14  1  0  0  0  0
 13  6  1  0  0  0  0
 16 15  1  0  0  0  0
 17 19  1  0  0  0  0
 17 18  1  0  0  0  0
 18 21  1  6  0  0  0
 18 16  1  0  0  0  0
 20 19  1  6  0  0  0
 20  7  1  0  0  0  0
 20 15  1  0  0  0  0
 22 21  1  0  0  0  0
 23  8  1  0  0  0  0
 24 23  1  0  0  0  0
 25 24  1  0  0  0  0
 26 25  1  0  0  0  0
 27 26  1  0  0  0  0
 29 30  1  0  0  0  0
 30 27  1  0  0  0  0
 30 28  1  0  0  0  0
 31 29  1  0  0  0  0
 31 30  1  0  0  0  0
M  END
>  <MODEL>
2

>  <REMARK>
 VINA RESULT:      -4.8      2.556      5.545
  Name = 
  8 active torsions:
  status: ('A' for Active; 'I' for Inactive)
    1  A    between atoms: C_7  and  O_15
    2  A    between atoms: C_7  and  C_20
    3  A    between atoms: O_9  and  C_21
    4  A    between atoms: O_10  and  O_15
    5  A    between atoms: O_10  and  C_16
    6  A    between atoms: C_12  and  N_30
    7  A    between atoms: C_20  and  N_28
    8  A    between atoms: C_22  and  N_28
                            x       y       z     vdW  Elec       q    Type
                         _______ _______ _______ _____ _____    ______ ____

>  <TORSDO>
F 8

$$$$
=
 OpenBabel11052411193D

 31 34  0  0  1  0  0  0  0  0999 V2000
  161.9360  210.0550  154.9870 C   0  0  0  0  0  3  0  0  0  0  0  0
  157.1430  211.8020  153.8760 C   0  0  0  0  0  3  0  0  0  0  0  0
  158.3270  211.5460  153.1040 N   0  0  0  0  0  0  0  0  0  0  0  0
  159.4130  212.7110  155.6160 N   0  0  0  0  0  0  0  0  0  0  0  0
  161.5860  209.2240  153.8670 N   0  0  0  0  0  0  0  0  0  0  0  0
  157.9350  214.4530  156.3390 C   0  0  0  0  0  1  0  0  0  0  0  0
  160.6460  211.0820  152.6070 C   0  0  2  0  0  3  0  0  0  0  0  0
  161.0030  209.6260  152.7760 C   0  0  0  0  0  0  0  0  0  0  0  0
  161.2190  211.0840  155.4670 C   0  0  0  0  0  0  0  0  0  0  0  0
  159.5430  211.4530  153.5500 C   0  0  0  0  0  0  0  0  0  0  0  0
  161.7840  211.8050  156.5140 O   0  0  0  0  0  1  0  0  0  0  0  0
  159.8050  211.4360  155.0320 C   0  0  2  0  0  3  0  0  0  0  0  0
  158.2090  213.1950  155.5960 C   0  0  0  0  0  0  0  0  0  0  0  0
  157.1140  212.5210  154.9610 N   0  0  0  0  0  0  0  0  0  0  0  0
  160.0700  212.9820  151.2780 C   0  0  0  0  0  2  0  0  0  0  0  0
  159.6950  213.4730  149.8800 C   0  0  0  0  0  2  0  0  0  0  0  0
  161.3790  211.8360  148.9680 C   0  0  0  0  0  2  0  0  0  0  0  0
  160.8600  213.2740  148.9090 C   0  0  2  0  0  3  0  0  0  0  0  0
  161.6710  211.4330  150.4120 C   0  0  0  0  0  2  0  0  0  0  0  0
  160.4570  211.5710  151.2270 N   0  0  1  0  0  0  0  0  0  0  0  0
  161.8910  214.1700  149.1990 O   0  0  0  0  0  0  0  0  0  0  0  0
  162.6880  214.1120  148.1530 O   0  0  0  0  0  1  0  0  0  0  0  0
  160.7090  208.7010  151.7760 O   0  0  0  0  0  0  0  0  0  0  0  0
  161.6710  207.9600  151.2090 O   0  0  0  0  0  0  0  0  0  0  0  0
  161.2060  207.7070  149.9170 C   0  0  0  0  0  2  0  0  0  0  0  0
  161.1890  206.2110  149.6530 C   0  0  0  0  0  2  0  0  0  0  0  0
  161.6490  205.4960  150.8340 N   0  0  0  0  0  2  0  0  0  0  0  0
  160.8270  203.5700  149.5170 O   0  0  0  0  0  1  0  0  0  0  0  0
  161.7300  203.2640  151.6410 O   0  0  0  0  0  0  0  0  0  0  0  0
  161.1550  204.1310  150.7520 C   0  0  0  0  0  0  0  0  0  0  0  0
  160.4570  203.6710  151.8370 O   0  0  0  0  0  0  0  0  0  0  0  0
  1  9  2  0  0  0  0
  2 14  2  0  0  0  0
  3 10  2  0  0  0  0
  3  2  1  0  0  0  0
  5  1  1  0  0  0  0
  7  8  1  6  0  0  0
  7 10  1  0  0  0  0
  8  5  2  0  0  0  0
  9 11  1  0  0  0  0
 12 10  1  6  0  0  0
 12  9  1  0  0  0  0
 12  4  1  0  0  0  0
 13  4  2  0  0  0  0
 13  6  1  0  0  0  0
 14 13  1  0  0  0  0
 16 15  1  0  0  0  0
 17 19  1  0  0  0  0
 18 17  1  0  0  0  0
 18 21  1  1  0  0  0
 18 16  1  0  0  0  0
 20 19  1  6  0  0  0
 20 15  1  0  0  0  0
 20  7  1  0  0  0  0
 22 21  1  0  0  0  0
 23  8  1  0  0  0  0
 24 23  1  0  0  0  0
 25 24  1  0  0  0  0
 26 25  1  0  0  0  0
 26 27  1  0  0  0  0
 28 30  1  0  0  0  0
 29 31  1  0  0  0  0
 30 27  1  0  0  0  0
 30 29  1  0  0  0  0
 30 31  1  0  0  0  0
M  END
>  <MODEL>
3

>  <REMARK>
 VINA RESULT:      -4.6      1.468      1.965
  Name = 
  8 active torsions:
  status: ('A' for Active; 'I' for Inactive)
    1  A    between atoms: C_7  and  O_15
    2  A    between atoms: C_7  and  C_20
    3  A    between atoms: O_9  and  C_21
    4  A    between atoms: O_10  and  O_15
    5  A    between atoms: O_10  and  C_16
    6  A    between atoms: C_12  and  N_30
    7  A    between atoms: C_20  and  N_28
    8  A    between atoms: C_22  and  N_28
                            x       y       z     vdW  Elec       q    Type
                         _______ _______ _______ _____ _____    ______ ____

>  <TORSDO>
F 8

$$$$
=
 OpenBabel11052411193D

 31 34  0  0  1  0  0  0  0  0999 V2000
  161.4180  206.6790  154.6170 C   0  0  0  0  0  3  0  0  0  0  0  0
  158.9420  210.9130  152.8270 C   0  0  0  0  0  3  0  0  0  0  0  0
  159.9970  210.0760  152.3270 N   0  0  0  0  0  0  0  0  0  0  0  0
  160.6110  210.2560  155.2320 N   0  0  0  0  0  0  0  0  0  0  0  0
  161.0870  206.2680  153.2790 N   0  0  0  0  0  0  0  0  0  0  0  0
  160.1150  212.4800  155.9710 C   0  0  0  0  0  1  0  0  0  0  0  0
  161.7420  208.4040  152.3130 C   0  0  2  0  0  3  0  0  0  0  0  0
  161.2070  206.9970  152.2090 C   0  0  0  0  0  0  0  0  0  0  0  0
  161.2300  207.9020  155.1410 C   0  0  0  0  0  0  0  0  0  0  0  0
  160.7530  209.2790  153.0210 C   0  0  0  0  0  0  0  0  0  0  0  0
  161.6970  208.1060  156.4350 O   0  0  0  0  0  1  0  0  0  0  0  0
  160.4510  209.0240  154.4730 C   0  0  2  0  0  3  0  0  0  0  0  0
  159.9250  211.3390  155.0370 C   0  0  0  0  0  0  0  0  0  0  0  0
  158.9280  211.4510  154.0110 N   0  0  0  0  0  0  0  0  0  0  0  0
  161.6230  208.4330  149.9270 C   0  0  0  0  0  2  0  0  0  0  0  0
  162.3060  208.8910  148.6390 C   0  0  0  0  0  2  0  0  0  0  0  0
  162.9030  211.0240  149.8370 C   0  0  0  0  0  2  0  0  0  0  0  0
  162.3310  210.4170  148.5550 C   0  0  2  0  0  3  0  0  0  0  0  0
  162.1860  210.4600  151.0610 C   0  0  0  0  0  2  0  0  0  0  0  0
  162.3130  208.9980  151.0890 N   0  0  1  0  0  0  0  0  0  0  0  0
  161.0450  210.9110  148.3210 O   0  0  0  0  0  0  0  0  0  0  0  0
  161.2200  211.9290  147.5060 O   0  0  0  0  0  1  0  0  0  0  0  0
  160.8310  206.4690  150.9750 O   0  0  0  0  0  0  0  0  0  0  0  0
  160.3930  205.2080  150.8620 O   0  0  0  0  0  0  0  0  0  0  0  0
  161.2840  204.6040  149.9720 C   0  0  0  0  0  2  0  0  0  0  0  0
  161.0740  205.1520  148.5720 C   0  0  0  0  0  2  0  0  0  0  0  0
  161.4150  204.1360  147.5870 N   0  0  0  0  0  2  0  0  0  0  0  0
  161.9790  206.1940  146.3360 O   0  0  0  0  0  1  0  0  0  0  0  0
  162.6250  204.1020  145.5440 O   0  0  0  0  0  0  0  0  0  0  0  0
  161.7800  204.8120  146.3530 C   0  0  0  0  0  0  0  0  0  0  0  0
  161.3290  204.2460  145.1910 O   0  0  0  0  0  0  0  0  0  0  0  0
  1  9  2  0  0  0  0
  2 14  2  0  0  0  0
  3  2  1  0  0  0  0
  3 10  2  0  0  0  0
  5  1  1  0  0  0  0
  7  8  1  6  0  0  0
  7 10  1  0  0  0  0
  8  5  2  0  0  0  0
  9 11  1  0  0  0  0
 12 10  1  6  0  0  0
 12  9  1  0  0  0  0
 12  4  1  0  0  0  0
 13  4  2  0  0  0  0
 13  6  1  0  0  0  0
 14 13  1  0  0  0  0
 16 15  1  0  0  0  0
 17 19  1  0  0  0  0
 18 21  1  1  0  0  0
 18 16  1  0  0  0  0
 18 17  1  0  0  0  0
 19 20  1  0  0  0  0
 20 15  1  6  0  0  0
 20  7  1  0  0  0  0
 22 21  1  0  0  0  0
 23  8  1  0  0  0  0
 24 23  1  0  0  0  0
 25 24  1  0  0  0  0
 26 25  1  0  0  0  0
 27 26  1  0  0  0  0
 28 30  1  0  0  0  0
 29 30  1  0  0  0  0
 30 27  1  0  0  0  0
 31 29  1  0  0  0  0
 31 30  1  0  0  0  0
M  END
>  <MODEL>
4

>  <REMARK>
 VINA RESULT:      -4.4      2.318      3.289
  Name = 
  8 active torsions:
  status: ('A' for Active; 'I' for Inactive)
    1  A    between atoms: C_7  and  O_15
    2  A    between atoms: C_7  and  C_20
    3  A    between atoms: O_9  and  C_21
    4  A    between atoms: O_10  and  O_15
    5  A    between atoms: O_10  and  C_16
    6  A    between atoms: C_12  and  N_30
    7  A    between atoms: C_20  and  N_28
    8  A    between atoms: C_22  and  N_28
                            x       y       z     vdW  Elec       q    Type
                         _______ _______ _______ _____ _____    ______ ____

>  <TORSDO>
F 8

$$$$
=
 OpenBabel11052411193D

 31 34  0  0  1  0  0  0  0  0999 V2000
  162.1290  209.2240  156.4110 C   0  0  0  0  0  3  0  0  0  0  0  0
  157.8300  211.2330  154.2330 C   0  0  0  0  0  3  0  0  0  0  0  0
  158.9590  210.4940  153.7400 N   0  0  0  0  0  0  0  0  0  0  0  0
  160.1870  212.3220  155.7400 N   0  0  0  0  0  0  0  0  0  0  0  0
  161.6490  208.1030  155.6490 N   0  0  0  0  0  0  0  0  0  0  0  0
  159.0760  214.4400  155.6050 C   0  0  0  0  0  1  0  0  0  0  0  0
  161.1470  209.4690  153.6980 C   0  0  2  0  0  3  0  0  0  0  0  0
  161.1930  208.1520  154.4320 C   0  0  0  0  0  0  0  0  0  0  0  0
  161.6240  210.4690  156.3970 C   0  0  0  0  0  0  0  0  0  0  0  0
  160.1170  210.3650  154.3140 C   0  0  0  0  0  0  0  0  0  0  0  0
  162.2940  211.4240  157.1550 O   0  0  0  0  0  1  0  0  0  0  0  0
  160.3260  210.8720  155.7160 C   0  0  2  0  0  3  0  0  0  0  0  0
  159.1080  212.9660  155.4150 C   0  0  0  0  0  0  0  0  0  0  0  0
  157.9170  212.3070  154.9640 N   0  0  0  0  0  0  0  0  0  0  0  0
  162.3580  209.9570  151.6970 C   0  0  0  0  0  2  0  0  0  0  0  0
  162.2770  210.0800  150.1760 C   0  0  0  0  0  2  0  0  0  0  0  0
  160.7550  208.0740  150.1990 C   0  0  0  0  0  2  0  0  0  0  0  0
  161.9730  208.7230  149.5400 C   0  0  2  0  0  3  0  0  0  0  0  0
  160.9180  208.0500  151.7170 C   0  0  0  0  0  2  0  0  0  0  0  0
  161.1040  209.4150  152.2240 N   0  0  1  0  0  0  0  0  0  0  0  0
  163.0830  207.8800  149.6450 O   0  0  0  0  0  0  0  0  0  0  0  0
  162.8600  206.9250  148.7680 O   0  0  0  0  0  1  0  0  0  0  0  0
  160.7460  206.9810  153.8210 O   0  0  0  0  0  0  0  0  0  0  0  0
  161.5210  205.8910  153.7560 O   0  0  0  0  0  0  0  0  0  0  0  0
  160.7870  204.9820  152.9890 C   0  0  0  0  0  2  0  0  0  0  0  0
  161.6180  204.5050  151.8110 C   0  0  0  0  0  2  0  0  0  0  0  0
  161.1540  203.1960  151.3770 N   0  0  0  0  0  2  0  0  0  0  0  0
  160.6920  204.5340  149.3490 O   0  0  0  0  0  1  0  0  0  0  0  0
  161.3230  202.2990  149.1840 O   0  0  0  0  0  0  0  0  0  0  0  0
  160.7980  203.2890  149.9700 C   0  0  0  0  0  0  0  0  0  0  0  0
  160.0040  202.2900  149.4750 O   0  0  0  0  0  0  0  0  0  0  0  0
  2 14  2  0  0  0  0
  3  2  1  0  0  0  0
  3 10  2  0  0  0  0
  5  1  1  0  0  0  0
  7 10  1  1  0  0  0
  7  8  1  0  0  0  0
  8  5  2  0  0  0  0
  9  1  2  0  0  0  0
  9 11  1  0  0  0  0
 12 10  1  6  0  0  0
 12  4  1  0  0  0  0
 12  9  1  0  0  0  0
 13  6  1  0  0  0  0
 13  4  2  0  0  0  0
 14 13  1  0  0  0  0
 16 15  1  0  0  0  0
 17 19  1  0  0  0  0
 18 21  1  1  0  0  0
 18 16  1  0  0  0  0
 18 17  1  0  0  0  0
 19 20  1  0  0  0  0
 20 15  1  6  0  0  0
 20  7  1  0  0  0  0
 22 21  1  0  0  0  0
 23  8  1  0  0  0  0
 24 23  1  0  0  0  0
 25 24  1  0  0  0  0
 26 25  1  0  0  0  0
 27 26  1  0  0  0  0
 28 30  1  0  0  0  0
 29 31  1  0  0  0  0
 29 30  1  0  0  0  0
 30 27  1  0  0  0  0
 31 30  1  0  0  0  0
M  END
>  <MODEL>
5

>  <REMARK>
 VINA RESULT:      -4.4      2.872      3.549
  Name = 
  8 active torsions:
  status: ('A' for Active; 'I' for Inactive)
    1  A    between atoms: C_7  and  O_15
    2  A    between atoms: C_7  and  C_20
    3  A    between atoms: O_9  and  C_21
    4  A    between atoms: O_10  and  O_15
    5  A    between atoms: O_10  and  C_16
    6  A    between atoms: C_12  and  N_30
    7  A    between atoms: C_20  and  N_28
    8  A    between atoms: C_22  and  N_28
                            x       y       z     vdW  Elec       q    Type
                         _______ _______ _______ _____ _____    ______ ____

>  <TORSDO>
F 8

$$$$
=
 OpenBabel11052411193D

 31 34  0  0  1  0  0  0  0  0999 V2000
  161.2300  210.7530  151.1100 C   0  0  0  0  0  3  0  0  0  0  0  0
  161.5800  208.2160  155.6610 C   0  0  0  0  0  3  0  0  0  0  0  0
  161.3680  207.8160  154.2980 N   0  0  0  0  0  0  0  0  0  0  0  0
  159.7830  210.3240  154.5080 N   0  0  0  0  0  0  0  0  0  0  0  0
  162.1690  209.7140  150.7830 N   0  0  0  0  0  0  0  0  0  0  0  0
  158.7540  210.3860  156.6700 C   0  0  0  0  0  1  0  0  0  0  0  0
  160.8830  207.9990  151.9370 C   0  0  2  0  0  3  0  0  0  0  0  0
  162.0690  208.4640  151.1280 C   0  0  0  0  0  0  0  0  0  0  0  0
  160.5570  210.8790  152.2660 C   0  0  0  0  0  0  0  0  0  0  0  0
  160.9520  208.5660  153.3210 C   0  0  0  0  0  0  0  0  0  0  0  0
  159.6360  211.9190  152.3430 O   0  0  0  0  0  1  0  0  0  0  0  0
  160.8140  210.0520  153.5160 C   0  0  2  0  0  3  0  0  0  0  0  0
  159.8210  209.9290  155.7430 C   0  0  0  0  0  0  0  0  0  0  0  0
  160.8970  209.1410  156.2700 N   0  0  0  0  0  0  0  0  0  0  0  0
  160.2100  206.2090  150.5050 C   0  0  0  0  0  2  0  0  0  0  0  0
  159.6960  204.7710  150.4450 C   0  0  0  0  0  2  0  0  0  0  0  0
  161.2300  204.2530  152.3740 C   0  0  0  0  0  2  0  0  0  0  0  0
  160.7420  203.8010  150.9970 C   0  0  2  0  0  3  0  0  0  0  0  0
  161.6690  205.7150  152.3320 C   0  0  0  0  0  2  0  0  0  0  0  0
  160.5560  206.5610  151.8830 N   0  0  1  0  0  0  0  0  0  0  0  0
  161.8200  203.6980  150.1140 O   0  0  0  0  0  0  0  0  0  0  0  0
  161.3340  203.0670  149.0660 O   0  0  0  0  0  1  0  0  0  0  0  0
  163.0670  207.5670  150.7500 O   0  0  0  0  0  0  0  0  0  0  0  0
  162.9380  206.8030  149.6570 O   0  0  0  0  0  0  0  0  0  0  0  0
  162.6910  207.7080  148.6220 C   0  0  0  0  0  2  0  0  0  0  0  0
  161.7380  207.0950  147.6100 C   0  0  0  0  0  2  0  0  0  0  0  0
  162.3300  205.8950  147.0390 N   0  0  0  0  0  2  0  0  0  0  0  0
  160.4130  206.2170  145.5100 O   0  0  0  0  0  1  0  0  0  0  0  0
  162.0460  204.6210  145.0540 O   0  0  0  0  0  0  0  0  0  0  0  0
  161.4410  205.4090  145.9970 C   0  0  0  0  0  0  0  0  0  0  0  0
  161.2220  204.0570  145.9640 O   0  0  0  0  0  0  0  0  0  0  0  0
  1  9  2  0  0  0  0
  2 14  2  0  0  0  0
  3  2  1  0  0  0  0
  4 13  2  0  0  0  0
  5  1  1  0  0  0  0
  5  8  2  0  0  0  0
  7  8  1  1  0  0  0
  7 10  1  0  0  0  0
  9 11  1  0  0  0  0
 10 12  1  0  0  0  0
 10  3  2  0  0  0  0
 12  9  1  6  0  0  0
 12  4  1  0  0  0  0
 13 14  1  0  0  0  0
 13  6  1  0  0  0  0
 16 15  1  0  0  0  0
 16 18  1  0  0  0  0
 18 21  1  6  0  0  0
 18 17  1  0  0  0  0
 19 17  1  0  0  0  0
 20 15  1  6  0  0  0
 20  7  1  0  0  0  0
 20 19  1  0  0  0  0
 22 21  1  0  0  0  0
 23  8  1  0  0  0  0
 24 23  1  0  0  0  0
 25 24  1  0  0  0  0
 26 25  1  0  0  0  0
 27 26  1  0  0  0  0
 28 30  1  0  0  0  0
 29 31  1  0  0  0  0
 29 30  1  0  0  0  0
 30 27  1  0  0  0  0
 31 30  1  0  0  0  0
M  END
>  <MODEL>
6

>  <REMARK>
 VINA RESULT:      -4.0      2.729      5.390
  Name = 
  8 active torsions:
  status: ('A' for Active; 'I' for Inactive)
    1  A    between atoms: C_7  and  O_15
    2  A    between atoms: C_7  and  C_20
    3  A    between atoms: O_9  and  C_21
    4  A    between atoms: O_10  and  O_15
    5  A    between atoms: O_10  and  C_16
    6  A    between atoms: C_12  and  N_30
    7  A    between atoms: C_20  and  N_28
    8  A    between atoms: C_22  and  N_28
                            x       y       z     vdW  Elec       q    Type
                         _______ _______ _______ _____ _____    ______ ____

>  <TORSDO>
F 8

$$$$
=
 OpenBabel11052411193D

 31 34  0  0  1  0  0  0  0  0999 V2000
  161.3930  206.3860  154.2370 C   0  0  0  0  0  3  0  0  0  0  0  0
  159.1040  210.8710  152.8560 C   0  0  0  0  0  3  0  0  0  0  0  0
  160.0970  210.0210  152.2600 N   0  0  0  0  0  0  0  0  0  0  0  0
  160.8040  209.9410  155.1480 N   0  0  0  0  0  0  0  0  0  0  0  0
  161.0010  206.0980  152.8840 N   0  0  0  0  0  0  0  0  0  0  0  0
  160.4530  212.1250  156.0690 C   0  0  0  0  0  1  0  0  0  0  0  0
  161.7450  208.2640  152.0620 C   0  0  2  0  0  3  0  0  0  0  0  0
  161.1300  206.9000  151.8690 C   0  0  0  0  0  0  0  0  0  0  0  0
  161.2890  207.5720  154.8580 C   0  0  0  0  0  0  0  0  0  0  0  0
  160.8270  209.1330  152.8650 C   0  0  0  0  0  0  0  0  0  0  0  0
  161.8030  207.6500  156.1480 O   0  0  0  0  0  1  0  0  0  0  0  0
  160.5530  208.7820  154.3030 C   0  0  2  0  0  3  0  0  0  0  0  0
  160.1730  211.0720  155.0580 C   0  0  0  0  0  0  0  0  0  0  0  0
  159.1550  211.3150  154.0780 N   0  0  0  0  0  0  0  0  0  0  0  0
  161.6080  208.4280  149.6820 C   0  0  0  0  0  2  0  0  0  0  0  0
  162.2860  208.9500  148.4150 C   0  0  0  0  0  2  0  0  0  0  0  0
  162.9140  211.0070  149.7260 C   0  0  0  0  0  2  0  0  0  0  0  0
  162.3250  210.4790  148.4160 C   0  0  2  0  0  3  0  0  0  0  0  0
  162.2000  210.3830  150.9230 C   0  0  0  0  0  2  0  0  0  0  0  0
  162.3130  208.9200  150.8670 N   0  0  1  0  0  0  0  0  0  0  0  0
  161.0420  210.9970  148.2220 O   0  0  0  0  0  0  0  0  0  0  0  0
  161.2070  212.3030  148.2150 O   0  0  0  0  0  1  0  0  0  0  0  0
  160.6900  206.4900  150.6110 O   0  0  0  0  0  0  0  0  0  0  0  0
  160.6220  205.1920  150.2880 O   0  0  0  0  0  0  0  0  0  0  0  0
  161.0840  205.1320  148.9710 C   0  0  0  0  0  2  0  0  0  0  0  0
  161.5920  203.7350  148.6600 C   0  0  0  0  0  2  0  0  0  0  0  0
  160.4700  202.8550  148.3670 N   0  0  0  0  0  2  0  0  0  0  0  0
  161.5700  200.6390  148.3720 O   0  0  0  0  0  1  0  0  0  0  0  0
  160.8350  201.6100  150.3560 O   0  0  0  0  0  0  0  0  0  0  0  0
  160.7340  201.5690  148.9920 C   0  0  0  0  0  0  0  0  0  0  0  0
  159.7400  201.0620  149.7860 O   0  0  0  0  0  0  0  0  0  0  0  0
  1  9  2  0  0  0  0
  2 14  2  0  0  0  0
  3  2  1  0  0  0  0
  3 10  2  0  0  0  0
  5  1  1  0  0  0  0
  7  8  1  6  0  0  0
  7 10  1  0  0  0  0
  8  5  2  0  0  0  0
  9 11  1  0  0  0  0
 12 10  1  6  0  0  0
 12  9  1  0  0  0  0
 12  4  1  0  0  0  0
 13  4  2  0  0  0  0
 13  6  1  0  0  0  0
 14 13  1  0  0  0  0
 16 18  1  0  0  0  0
 16 15  1  0  0  0  0
 17 19  1  0  0  0  0
 18 21  1  1  0  0  0
 18 17  1  0  0  0  0
 20 15  1  6  0  0  0
 20 19  1  0  0  0  0
 20  7  1  0  0  0  0
 22 21  1  0  0  0  0
 23  8  1  0  0  0  0
 24 23  1  0  0  0  0
 25 24  1  0  0  0  0
 26 25  1  0  0  0  0
 27 26  1  0  0  0  0
 27 30  1  0  0  0  0
 28 30  1  0  0  0  0
 30 31  1  0  0  0  0
 30 29  1  0  0  0  0
 31 29  1  0  0  0  0
M  END
>  <MODEL>
7

>  <REMARK>
 VINA RESULT:      -3.9      2.828      3.962
  Name = 
  8 active torsions:
  status: ('A' for Active; 'I' for Inactive)
    1  A    between atoms: C_7  and  O_15
    2  A    between atoms: C_7  and  C_20
    3  A    between atoms: O_9  and  C_21
    4  A    between atoms: O_10  and  O_15
    5  A    between atoms: O_10  and  C_16
    6  A    between atoms: C_12  and  N_30
    7  A    between atoms: C_20  and  N_28
    8  A    between atoms: C_22  and  N_28
                            x       y       z     vdW  Elec       q    Type
                         _______ _______ _______ _____ _____    ______ ____

>  <TORSDO>
F 8

$$$$
=
 OpenBabel11052411193D

 31 34  0  0  1  0  0  0  0  0999 V2000
  160.7490  202.9180  150.9130 C   0  0  0  0  0  3  0  0  0  0  0  0
  163.1200  205.3180  146.9280 C   0  0  0  0  0  3  0  0  0  0  0  0
  162.4740  205.7620  148.1320 N   0  0  0  0  0  0  0  0  0  0  0  0
  160.7450  203.5110  147.2430 N   0  0  0  0  0  0  0  0  0  0  0  0
  161.6340  203.8120  151.6090 N   0  0  0  0  0  0  0  0  0  0  0  0
  160.5970  203.5730  144.8530 C   0  0  0  0  0  1  0  0  0  0  0  0
  161.1250  205.6810  150.1360 C   0  0  2  0  0  3  0  0  0  0  0  0
  161.8470  205.0590  151.3050 C   0  0  0  0  0  0  0  0  0  0  0  0
  160.5440  202.8770  149.5860 C   0  0  0  0  0  0  0  0  0  0  0  0
  161.6240  205.0930  148.8520 C   0  0  0  0  0  0  0  0  0  0  0  0
  159.5810  201.9820  149.1290 O   0  0  0  0  0  1  0  0  0  0  0  0
  161.3610  203.6410  148.5560 C   0  0  2  0  0  3  0  0  0  0  0  0
  161.2960  203.8800  146.1280 C   0  0  0  0  0  0  0  0  0  0  0  0
  162.5900  204.4960  146.0700 N   0  0  0  0  0  0  0  0  0  0  0  0
  160.8060  207.6170  151.5000 C   0  0  0  0  0  2  0  0  0  0  0  0
  160.5030  209.1150  151.5080 C   0  0  0  0  0  2  0  0  0  0  0  0
  161.9640  209.3140  149.4660 C   0  0  0  0  0  2  0  0  0  0  0  0
  161.6360  209.8970  150.8420 C   0  0  2  0  0  3  0  0  0  0  0  0
  162.1960  207.8080  149.5660 C   0  0  0  0  0  2  0  0  0  0  0  0
  161.0080  207.1530  150.1260 N   0  0  1  0  0  0  0  0  0  0  0  0
  162.7740  209.8870  151.6530 O   0  0  0  0  0  0  0  0  0  0  0  0
  162.3440  210.2720  152.8350 O   0  0  0  0  0  1  0  0  0  0  0  0
  162.7480  205.8040  152.0640 O   0  0  0  0  0  0  0  0  0  0  0  0
  162.7230  205.7720  153.4030 O   0  0  0  0  0  0  0  0  0  0  0  0
  161.4330  206.1870  153.7410 C   0  0  0  0  0  2  0  0  0  0  0  0
  161.4850  207.1440  154.9190 C   0  0  0  0  0  2  0  0  0  0  0  0
  160.1890  207.7820  155.0950 N   0  0  0  0  0  2  0  0  0  0  0  0
  161.6830  209.5400  155.9870 O   0  0  0  0  0  1  0  0  0  0  0  0
  159.7230  210.0990  154.8620 O   0  0  0  0  0  0  0  0  0  0  0  0
  160.4180  209.1430  155.5530 C   0  0  0  0  0  0  0  0  0  0  0  0
  159.3490  209.7830  156.1210 O   0  0  0  0  0  0  0  0  0  0  0  0
  1  5  1  0  0  0  0
  2  3  1  0  0  0  0
  3 10  2  0  0  0  0
  6 13  1  0  0  0  0
  7 10  1  6  0  0  0
  7  8  1  0  0  0  0
  8  5  2  0  0  0  0
  8 23  1  0  0  0  0
  9  1  2  0  0  0  0
 11  9  1  0  0  0  0
 12  4  1  6  0  0  0
 12 10  1  0  0  0  0
 12  9  1  0  0  0  0
 13  4  2  0  0  0  0
 14 13  1  0  0  0  0
 14  2  2  0  0  0  0
 15 16  1  0  0  0  0
 17 19  1  0  0  0  0
 17 18  1  0  0  0  0
 18 16  1  0  0  0  0
 18 21  1  1  0  0  0
 20 19  1  1  0  0  0
 20  7  1  0  0  0  0
 20 15  1  0  0  0  0
 21 22  1  0  0  0  0
 23 24  1  0  0  0  0
 24 25  1  0  0  0  0
 25 26  1  0  0  0  0
 26 27  1  0  0  0  0
 27 30  1  0  0  0  0
 29 30  1  0  0  0  0
 29 31  1  0  0  0  0
 30 28  1  0  0  0  0
 30 31  1  0  0  0  0
M  END
>  <MODEL>
8

>  <REMARK>
 VINA RESULT:      -3.7      3.807      8.676
  Name = 
  8 active torsions:
  status: ('A' for Active; 'I' for Inactive)
    1  A    between atoms: C_7  and  O_15
    2  A    between atoms: C_7  and  C_20
    3  A    between atoms: O_9  and  C_21
    4  A    between atoms: O_10  and  O_15
    5  A    between atoms: O_10  and  C_16
    6  A    between atoms: C_12  and  N_30
    7  A    between atoms: C_20  and  N_28
    8  A    between atoms: C_22  and  N_28
                            x       y       z     vdW  Elec       q    Type
                         _______ _______ _______ _____ _____    ______ ____

>  <TORSDO>
F 8

$$$$
=
 OpenBabel11052411193D

 31 34  0  0  1  0  0  0  0  0999 V2000
  163.0810  213.0650  138.5160 C   0  0  0  0  0  3  0  0  0  0  0  0
  159.5160  209.2840  139.0210 C   0  0  0  0  0  3  0  0  0  0  0  0
  159.7220  210.5640  139.6390 N   0  0  0  0  0  0  0  0  0  0  0  0
  162.4880  209.4990  139.3820 N   0  0  0  0  0  0  0  0  0  0  0  0
  161.8590  213.8180  138.4370 N   0  0  0  0  0  0  0  0  0  0  0  0
  162.4310  207.1440  139.8210 C   0  0  0  0  0  1  0  0  0  0  0  0
  160.8350  212.6100  140.2850 C   0  0  2  0  0  3  0  0  0  0  0  0
  160.8170  213.6570  139.1990 C   0  0  0  0  0  0  0  0  0  0  0  0
  163.1910  211.7550  138.7930 C   0  0  0  0  0  0  0  0  0  0  0  0
  160.8310  211.2410  139.6790 C   0  0  0  0  0  0  0  0  0  0  0  0
  164.4800  211.2430  138.8970 O   0  0  0  0  0  1  0  0  0  0  0  0
  162.0230  210.7850  138.8810 C   0  0  2  0  0  3  0  0  0  0  0  0
  161.7820  208.4100  139.3910 C   0  0  0  0  0  0  0  0  0  0  0  0
  160.4280  208.3610  138.9210 N   0  0  0  0  0  0  0  0  0  0  0  0
  160.4820  212.2300  142.6180 C   0  0  0  0  0  2  0  0  0  0  0  0
  159.4580  212.2340  143.7520 C   0  0  0  0  0  2  0  0  0  0  0  0
  158.4660  214.3000  142.7090 C   0  0  0  0  0  2  0  0  0  0  0  0
  158.9430  213.6510  144.0090 C   0  0  2  0  0  3  0  0  0  0  0  0
  159.5430  214.1940  141.6320 C   0  0  0  0  0  2  0  0  0  0  0  0
  159.8850  212.7850  141.4010 N   0  0  1  0  0  0  0  0  0  0  0  0
  159.9430  214.4290  144.5980 O   0  0  0  0  0  0  0  0  0  0  0  0
  159.7330  214.3190  145.8920 O   0  0  0  0  0  1  0  0  0  0  0  0
  159.6910  214.4530  138.9970 O   0  0  0  0  0  0  0  0  0  0  0  0
  158.9590  214.3510  137.8790 O   0  0  0  0  0  0  0  0  0  0  0  0
  157.6590  214.1130  138.3310 C   0  0  0  0  0  2  0  0  0  0  0  0
  157.3590  212.6240  138.2980 C   0  0  0  0  0  2  0  0  0  0  0  0
  156.5050  212.2670  139.4200 N   0  0  0  0  0  2  0  0  0  0  0  0
  154.6950  211.9820  137.7590 O   0  0  0  0  0  1  0  0  0  0  0  0
  155.4650  210.1730  139.0060 O   0  0  0  0  0  0  0  0  0  0  0  0
  155.3630  211.5330  138.8990 C   0  0  0  0  0  0  0  0  0  0  0  0
  154.6140  210.8420  139.8140 O   0  0  0  0  0  0  0  0  0  0  0  0
  1  9  2  0  0  0  0
  2  3  1  0  0  0  0
  3 10  2  0  0  0  0
  4 13  2  0  0  0  0
  5  1  1  0  0  0  0
  5  8  2  0  0  0  0
  7  8  1  6  0  0  0
  7 20  1  0  0  0  0
  9 11  1  0  0  0  0
 10  7  1  0  0  0  0
 12  9  1  1  0  0  0
 12  4  1  0  0  0  0
 12 10  1  0  0  0  0
 13  6  1  0  0  0  0
 14  2  2  0  0  0  0
 14 13  1  0  0  0  0
 15 16  1  0  0  0  0
 16 18  1  0  0  0  0
 17 18  1  0  0  0  0
 18 21  1  6  0  0  0
 19 17  1  0  0  0  0
 20 19  1  1  0  0  0
 20 15  1  0  0  0  0
 21 22  1  0  0  0  0
 23  8  1  0  0  0  0
 24 25  1  0  0  0  0
 24 23  1  0  0  0  0
 26 25  1  0  0  0  0
 26 27  1  0  0  0  0
 28 30  1  0  0  0  0
 29 31  1  0  0  0  0
 30 29  1  0  0  0  0
 30 27  1  0  0  0  0
 30 31  1  0  0  0  0
M  END
>  <MODEL>
9

>  <REMARK>
 VINA RESULT:      -3.6      9.837     13.563
  Name = 
  8 active torsions:
  status: ('A' for Active; 'I' for Inactive)
    1  A    between atoms: C_7  and  O_15
    2  A    between atoms: C_7  and  C_20
    3  A    between atoms: O_9  and  C_21
    4  A    between atoms: O_10  and  O_15
    5  A    between atoms: O_10  and  C_16
    6  A    between atoms: C_12  and  N_30
    7  A    between atoms: C_20  and  N_28
    8  A    between atoms: C_22  and  N_28
                            x       y       z     vdW  Elec       q    Type
                         _______ _______ _______ _____ _____    ______ ____

>  <TORSDO>
F 8

$$$$
