=
 OpenBabel11042421353D

 45 49  0  0  1  0  0  0  0  0999 V2000
  160.9040  210.6770  152.3920 C   0  0  0  0  0  2  0  0  0  0  0  0
  159.4300  212.7510  151.9230 C   0  0  2  0  0  3  0  0  0  0  0  0
  159.8560  211.6820  152.8970 C   0  0  2  0  0  3  0  0  0  0  0  0
  159.9670  212.1250  154.3480 C   0  0  0  0  0  2  0  0  0  0  0  0
  157.5950  214.0100  150.7160 C   0  0  1  0  0  3  0  0  0  0  0  0
  156.1130  213.9540  152.5100 N   0  0  0  0  0  0  0  0  0  0  0  0
  157.5670  211.3910  154.5780 C   0  0  0  0  0  2  0  0  0  0  0  0
  156.3600  214.4520  151.2560 O   0  0  0  0  0  0  0  0  0  0  0  0
  158.1610  213.2150  151.8660 C   0  0  2  0  0  3  0  0  0  0  0  0
  158.9660  211.3370  155.1850 C   0  0  0  0  0  2  0  0  0  0  0  0
  157.0900  213.2100  152.8970 C   0  0  0  0  0  0  0  0  0  0  0  0
  157.1670  212.8350  154.3470 C   0  0  0  0  0  2  0  0  0  0  0  0
  157.2720  213.0910  149.5420 C   0  0  1  0  0  3  0  0  0  0  0  0
  156.3520  213.8290  148.5890 C   0  0  0  0  0  2  0  0  0  0  0  0
  157.8100  213.6420  148.2370 C   0  0  2  0  0  3  0  0  0  0  0  0
  157.9130  212.5230  147.2160 C   0  0  0  0  0  2  0  0  0  0  0  0
  158.7220  212.4990  144.8800 C   0  0  0  0  0  1  0  0  0  0  0  0
  157.6680  213.0500  145.8170 C   0  0  0  0  0  2  0  0  0  0  0  0
  160.4480  213.3110  150.9710 C   0  0  0  0  0  2  0  0  0  0  0  0
  160.9040  212.3190  150.0630 O   0  0  0  0  0  0  0  0  0  0  0  0
  161.2220  211.7140  147.8770 O   0  0  0  0  0  0  0  0  0  0  0  0
  161.2650  212.6180  148.7500 C   0  0  0  0  0  0  0  0  0  0  0  0
  161.7030  213.9880  148.3530 C   0  0  0  0  0  1  0  0  0  0  0  0
  160.6140  209.2160  152.7430 C   0  0  2  0  0  3  0  0  0  0  0  0
  160.9570  208.9220  154.2090 C   0  0  2  0  0  3  0  0  0  0  0  0
  162.3290  209.4830  154.5570 C   0  0  0  0  0  1  0  0  0  0  0  0
  160.9620  207.4470  154.4690 C   0  0  0  0  0  3  0  0  0  0  0  0
  159.8700  207.6930  156.5600 O   0  0  0  0  0  1  0  0  0  0  0  0
  160.4530  206.9060  155.5730 C   0  0  0  0  0  3  0  0  0  0  0  0
  161.4060  208.3650  151.8650 N   0  0  0  0  0  2  0  0  0  0  0  0
  160.9140  207.7170  149.5590 C   0  0  1  0  0  3  0  0  0  0  0  0
  160.4840  206.1560  151.4070 C   0  0  0  0  0  2  0  0  0  0  0  0
  160.5570  205.3880  150.1040 C   0  0  1  0  0  3  0  0  0  0  0  0
  160.4860  207.6190  151.0180 C   0  0  1  0  0  3  0  0  0  0  0  0
  162.2150  207.0550  149.3490 N   0  0  0  0  0  0  0  0  0  0  0  0
  162.7520  207.5850  148.1080 C   0  0  0  0  0  1  0  0  0  0  0  0
  160.9600  206.3630  149.0040 C   0  0  2  0  0  3  0  0  0  0  0  0
  161.5550  204.2420  150.2100 C   0  0  0  0  0  2  0  0  0  0  0  0
  161.9890  203.9080  147.4390 O   0  0  0  0  0  0  0  0  0  0  0  0
  161.3630  202.9910  148.0370 C   0  0  0  0  0  0  0  0  0  0  0  0
  160.4150  202.1110  150.0790 O   0  0  0  0  0  1  0  0  0  0  0  0
  161.0920  203.0950  149.4420 N   0  0  0  0  0  0  0  0  0  0  0  0
  160.9400  201.7810  147.2730 C   0  0  0  0  0  2  0  0  0  0  0  0
  160.8310  202.0860  145.7870 C   0  0  0  0  0  2  0  0  0  0  0  0
  160.0550  200.9920  145.0770 C   0  0  0  0  0  1  0  0  0  0  0  0
  2 19  1  6  0  0  0
  2  3  1  0  0  0  0
  3  1  1  6  0  0  0
  3  4  1  0  0  0  0
  4 10  1  0  0  0  0
  5  8  1  1  0  0  0
  5  9  1  0  0  0  0
  6 11  2  0  0  0  0
  7 10  1  0  0  0  0
  8  6  1  0  0  0  0
  9  2  1  0  0  0  0
  9 11  1  1  0  0  0
 11 12  1  0  0  0  0
 12  7  1  0  0  0  0
 13 14  1  6  0  0  0
 13  5  1  0  0  0  0
 15 16  1  6  0  0  0
 15 14  1  0  0  0  0
 15 13  1  0  0  0  0
 17 18  1  0  0  0  0
 18 16  1  0  0  0  0
 20 19  1  0  0  0  0
 21 22  2  0  0  0  0
 22 20  1  0  0  0  0
 23 22  1  0  0  0  0
 24  1  1  6  0  0  0
 24 25  1  0  0  0  0
 25 27  1  0  0  0  0
 25 26  1  6  0  0  0
 27 29  2  0  0  0  0
 29 28  1  0  0  0  0
 30 24  1  0  0  0  0
 31 35  1  1  0  0  0
 31 34  1  0  0  0  0
 33 38  1  1  0  0  0
 33 32  1  0  0  0  0
 34 32  1  0  0  0  0
 34 30  1  1  0  0  0
 36 35  1  0  0  0  0
 37 35  1  1  0  0  0
 37 31  1  0  0  0  0
 37 33  1  0  0  0  0
 39 40  2  0  0  0  0
 40 42  1  0  0  0  0
 42 41  1  0  0  0  0
 42 38  1  0  0  0  0
 43 40  1  0  0  0  0
 44 43  1  0  0  0  0
 45 44  1  0  0  0  0
M  END
>  <MODEL>
1

>  <REMARK>
 VINA RESULT:      -6.3      0.000      0.000
  Name = 
  16 active torsions:
  status: ('A' for Active; 'I' for Inactive)
    1  A    between atoms: C_1  and  C_19
    2  A    between atoms: N_2  and  C_22
    3  A    between atoms: N_2  and  C_27
    4  A    between atoms: C_3  and  C_5
    5  A    between atoms: C_5  and  C_33
    6  A    between atoms: C_7  and  C_16
    7  A    between atoms: C_8  and  C_11
    8  A    between atoms: C_9  and  O_38
    9  A    between atoms: C_11  and  O_38
   10  A    between atoms: C_13  and  C_40
   11  A    between atoms: C_19  and  C_22
   12  A    between atoms: C_22  and  C_40
   13  A    between atoms: C_23  and  C_26
   14  A    between atoms: C_26  and  N_45
   15  A    between atoms: C_28  and  C_43
   16  A    between atoms: C_29  and  C_43
                            x       y       z     vdW  Elec       q    Type
                         _______ _______ _______ _____ _____    ______ ____

>  <TORSDO>
F 16

$$$$
=
 OpenBabel11042421353D

 45 49  0  0  1  0  0  0  0  0999 V2000
  160.4940  209.2190  151.7940 C   0  0  0  0  0  2  0  0  0  0  0  0
  160.0710  210.8200  153.7810 C   0  0  2  0  0  3  0  0  0  0  0  0
  160.6060  209.4940  153.3020 C   0  0  2  0  0  3  0  0  0  0  0  0
  161.8650  209.0040  154.0020 C   0  0  0  0  0  2  0  0  0  0  0  0
  158.6020  212.1490  155.3570 C   0  0  1  0  0  3  0  0  0  0  0  0
  158.9590  210.7470  157.1810 N   0  0  0  0  0  0  0  0  0  0  0  0
  160.3110  207.8140  155.5910 C   0  0  0  0  0  2  0  0  0  0  0  0
  158.4120  211.9280  156.7450 O   0  0  0  0  0  0  0  0  0  0  0  0
  159.4480  210.9620  154.9740 C   0  0  2  0  0  3  0  0  0  0  0  0
  161.5560  207.6930  154.7160 C   0  0  0  0  0  2  0  0  0  0  0  0
  159.5330  210.1330  156.2050 C   0  0  0  0  0  0  0  0  0  0  0  0
  160.4590  208.9980  156.5260 C   0  0  0  0  0  2  0  0  0  0  0  0
  157.2310  212.0620  154.6940 C   0  0  1  0  0  3  0  0  0  0  0  0
  156.2750  212.9750  155.4370 C   0  0  0  0  0  2  0  0  0  0  0  0
  156.8180  213.3880  154.0880 C   0  0  2  0  0  3  0  0  0  0  0  0
  155.7360  213.1580  153.0480 C   0  0  0  0  0  2  0  0  0  0  0  0
  155.2480  214.2000  150.8600 C   0  0  0  0  0  1  0  0  0  0  0  0
  155.3820  214.4530  152.3470 C   0  0  0  0  0  2  0  0  0  0  0  0
  160.2230  212.0250  152.8980 C   0  0  0  0  0  2  0  0  0  0  0  0
  159.1300  212.1420  151.9970 O   0  0  0  0  0  0  0  0  0  0  0  0
  158.3740  212.9730  150.0000 O   0  0  0  0  0  0  0  0  0  0  0  0
  159.0560  213.1550  151.0410 C   0  0  0  0  0  0  0  0  0  0  0  0
  159.7690  214.4530  151.2220 C   0  0  0  0  0  1  0  0  0  0  0  0
  161.8310  209.1670  151.0510 C   0  0  2  0  0  3  0  0  0  0  0  0
  161.7270  209.8410  149.6770 C   0  0  2  0  0  3  0  0  0  0  0  0
  162.6850  209.1880  148.6900 C   0  0  0  0  0  1  0  0  0  0  0  0
  162.0560  211.2980  149.7720 C   0  0  0  0  0  3  0  0  0  0  0  0
  161.0720  211.7790  147.6680 O   0  0  0  0  0  1  0  0  0  0  0  0
  161.7420  212.1740  148.8210 C   0  0  0  0  0  3  0  0  0  0  0  0
  162.2160  207.7710  150.8930 N   0  0  0  0  0  2  0  0  0  0  0  0
  160.4310  206.7450  149.5720 C   0  0  1  0  0  3  0  0  0  0  0  0
  161.3170  205.6060  151.5610 C   0  0  0  0  0  2  0  0  0  0  0  0
  160.6030  204.6020  150.6800 C   0  0  1  0  0  3  0  0  0  0  0  0
  161.0060  206.9630  150.9660 C   0  0  1  0  0  3  0  0  0  0  0  0
  161.3510  205.9430  148.7450 N   0  0  0  0  0  0  0  0  0  0  0  0
  160.9760  206.1790  147.3630 C   0  0  0  0  0  1  0  0  0  0  0  0
  160.1890  205.3130  149.3970 C   0  0  2  0  0  3  0  0  0  0  0  0
  161.5050  203.4120  150.3790 C   0  0  0  0  0  2  0  0  0  0  0  0
  162.2400  203.1870  147.6600 O   0  0  0  0  0  0  0  0  0  0  0  0
  161.3000  202.4500  148.0650 C   0  0  0  0  0  0  0  0  0  0  0  0
  159.8490  201.7270  149.8570 O   0  0  0  0  0  1  0  0  0  0  0  0
  160.8610  202.5170  149.4290 N   0  0  0  0  0  0  0  0  0  0  0  0
  160.6750  201.4820  147.1160 C   0  0  0  0  0  2  0  0  0  0  0  0
  160.8240  201.9550  145.6790 C   0  0  0  0  0  2  0  0  0  0  0  0
  159.6720  201.4490  144.8310 C   0  0  0  0  0  1  0  0  0  0  0  0
  2 19  1  6  0  0  0
  2  9  1  0  0  0  0
  3  1  1  6  0  0  0
  3  2  1  0  0  0  0
  3  4  1  0  0  0  0
  4 10  1  0  0  0  0
  5  8  1  1  0  0  0
  7 12  1  0  0  0  0
  8  6  1  0  0  0  0
  9  5  1  0  0  0  0
  9 11  1  1  0  0  0
 10  7  1  0  0  0  0
 11 12  1  0  0  0  0
 11  6  2  0  0  0  0
 13  5  1  0  0  0  0
 13 14  1  1  0  0  0
 15 16  1  6  0  0  0
 15 13  1  0  0  0  0
 15 14  1  0  0  0  0
 17 18  1  0  0  0  0
 18 16  1  0  0  0  0
 20 19  1  0  0  0  0
 21 22  2  0  0  0  0
 22 23  1  0  0  0  0
 22 20  1  0  0  0  0
 24  1  1  6  0  0  0
 25 26  1  6  0  0  0
 25 27  1  0  0  0  0
 25 24  1  0  0  0  0
 28 29  1  0  0  0  0
 29 27  2  0  0  0  0
 30 24  1  0  0  0  0
 31 35  1  6  0  0  0
 31 34  1  0  0  0  0
 33 38  1  6  0  0  0
 33 32  1  0  0  0  0
 34 30  1  6  0  0  0
 34 32  1  0  0  0  0
 36 35  1  0  0  0  0
 37 35  1  6  0  0  0
 37 31  1  0  0  0  0
 37 33  1  0  0  0  0
 39 40  2  0  0  0  0
 40 42  1  0  0  0  0
 42 41  1  0  0  0  0
 42 38  1  0  0  0  0
 43 40  1  0  0  0  0
 44 43  1  0  0  0  0
 45 44  1  0  0  0  0
M  END
>  <MODEL>
2

>  <REMARK>
 VINA RESULT:      -6.0      2.110      4.321
  Name = 
  16 active torsions:
  status: ('A' for Active; 'I' for Inactive)
    1  A    between atoms: C_1  and  C_19
    2  A    between atoms: N_2  and  C_22
    3  A    between atoms: N_2  and  C_27
    4  A    between atoms: C_3  and  C_5
    5  A    between atoms: C_5  and  C_33
    6  A    between atoms: C_7  and  C_16
    7  A    between atoms: C_8  and  C_11
    8  A    between atoms: C_9  and  O_38
    9  A    between atoms: C_11  and  O_38
   10  A    between atoms: C_13  and  C_40
   11  A    between atoms: C_19  and  C_22
   12  A    between atoms: C_22  and  C_40
   13  A    between atoms: C_23  and  C_26
   14  A    between atoms: C_26  and  N_45
   15  A    between atoms: C_28  and  C_43
   16  A    between atoms: C_29  and  C_43
                            x       y       z     vdW  Elec       q    Type
                         _______ _______ _______ _____ _____    ______ ____

>  <TORSDO>
F 16

$$$$
=
 OpenBabel11042421353D

 45 49  0  0  1  0  0  0  0  0999 V2000
  160.6870  208.9760  152.8140 C   0  0  0  0  0  2  0  0  0  0  0  0
  162.0210  207.7000  151.0020 C   0  0  2  0  0  3  0  0  0  0  0  0
  161.5110  209.0220  151.5170 C   0  0  2  0  0  3  0  0  0  0  0  0
  162.4550  210.2020  151.3400 C   0  0  0  0  0  2  0  0  0  0  0  0
  162.2680  206.0340  149.1130 C   0  0  1  0  0  3  0  0  0  0  0  0
  162.4890  207.6530  147.4560 N   0  0  0  0  0  0  0  0  0  0  0  0
  161.2790  210.5930  149.1450 C   0  0  0  0  0  2  0  0  0  0  0  0
  162.5520  206.3150  147.7520 O   0  0  0  0  0  0  0  0  0  0  0  0
  162.1030  207.4200  149.6810 C   0  0  2  0  0  3  0  0  0  0  0  0
  161.7950  211.2330  150.4310 C   0  0  0  0  0  2  0  0  0  0  0  0
  162.1990  208.3330  148.5110 C   0  0  0  0  0  0  0  0  0  0  0  0
  162.3980  209.8190  148.4780 C   0  0  0  0  0  2  0  0  0  0  0  0
  160.9430  205.2800  149.1520 C   0  0  1  0  0  3  0  0  0  0  0  0
  160.7210  204.6220  147.8040 C   0  0  0  0  0  2  0  0  0  0  0  0
  161.1430  203.7870  148.9910 C   0  0  2  0  0  3  0  0  0  0  0  0
  159.9230  203.0510  149.5140 C   0  0  0  0  0  2  0  0  0  0  0  0
  161.1450  201.1260  148.5590 C   0  0  0  0  0  1  0  0  0  0  0  0
  160.2140  201.5720  149.6670 C   0  0  0  0  0  2  0  0  0  0  0  0
  162.4400  206.6490  151.9910 C   0  0  0  0  0  2  0  0  0  0  0  0
  161.3210  205.9110  152.4610 O   0  0  0  0  0  0  0  0  0  0  0  0
  160.2870  203.9190  152.9200 O   0  0  0  0  0  0  0  0  0  0  0  0
  161.3000  204.5170  152.4760 C   0  0  0  0  0  0  0  0  0  0  0  0
  162.4540  203.7130  151.9770 C   0  0  0  0  0  1  0  0  0  0  0  0
  161.2930  209.7510  153.9870 C   0  0  2  0  0  3  0  0  0  0  0  0
  160.9070  209.1140  155.3280 C   0  0  2  0  0  3  0  0  0  0  0  0
  161.5970  209.8360  156.4770 C   0  0  0  0  0  1  0  0  0  0  0  0
  161.2990  207.6700  155.3650 C   0  0  0  0  0  3  0  0  0  0  0  0
  159.5670  207.1170  156.8890 O   0  0  0  0  0  1  0  0  0  0  0  0
  160.6600  206.7660  156.1030 C   0  0  0  0  0  3  0  0  0  0  0  0
  160.8120  211.1240  153.9300 N   0  0  0  0  0  2  0  0  0  0  0  0
  158.6770  211.8070  154.9080 C   0  0  1  0  0  3  0  0  0  0  0  0
  158.9730  211.7750  152.4680 C   0  0  0  0  0  2  0  0  0  0  0  0
  157.7920  212.6550  152.8220 C   0  0  1  0  0  3  0  0  0  0  0  0
  159.3660  211.0840  153.7570 C   0  0  1  0  0  3  0  0  0  0  0  0
  159.0010  213.2450  154.8930 N   0  0  0  0  0  0  0  0  0  0  0  0
  158.7170  213.7460  156.2250 C   0  0  0  0  0  1  0  0  0  0  0  0
  157.7230  212.7610  154.3410 C   0  0  2  0  0  3  0  0  0  0  0  0
  157.9360  214.0300  152.1830 C   0  0  0  0  0  2  0  0  0  0  0  0
  159.2460  213.8380  149.6880 O   0  0  0  0  0  0  0  0  0  0  0  0
  157.9890  213.9500  149.6710 C   0  0  0  0  0  0  0  0  0  0  0  0
  155.9070  214.1900  150.8740 O   0  0  0  0  0  1  0  0  0  0  0  0
  157.2550  214.0650  150.8970 N   0  0  0  0  0  0  0  0  0  0  0  0
  157.2750  213.9220  148.3610 C   0  0  0  0  0  2  0  0  0  0  0  0
  157.5290  212.6140  147.6290 C   0  0  0  0  0  2  0  0  0  0  0  0
  157.1330  212.7370  146.1690 C   0  0  0  0  0  1  0  0  0  0  0  0
  2  3  1  0  0  0  0
  2 19  1  1  0  0  0
  3  1  1  1  0  0  0
  4  3  1  0  0  0  0
  5  8  1  6  0  0  0
  5 13  1  0  0  0  0
  5  9  1  0  0  0  0
  6  8  1  0  0  0  0
  6 11  2  0  0  0  0
  7 10  1  0  0  0  0
  9 11  1  1  0  0  0
  9  2  1  0  0  0  0
 10  4  1  0  0  0  0
 12 11  1  0  0  0  0
 12  7  1  0  0  0  0
 13 14  1  6  0  0  0
 14 15  1  0  0  0  0
 15 13  1  0  0  0  0
 15 16  1  1  0  0  0
 16 18  1  0  0  0  0
 17 18  1  0  0  0  0
 19 20  1  0  0  0  0
 20 22  1  0  0  0  0
 22 21  2  0  0  0  0
 23 22  1  0  0  0  0
 24  1  1  6  0  0  0
 24 25  1  0  0  0  0
 25 27  1  0  0  0  0
 25 26  1  1  0  0  0
 27 29  2  0  0  0  0
 29 28  1  0  0  0  0
 30 24  1  0  0  0  0
 31 35  1  6  0  0  0
 32 33  1  0  0  0  0
 32 34  1  0  0  0  0
 33 38  1  6  0  0  0
 33 37  1  0  0  0  0
 34 30  1  1  0  0  0
 34 31  1  0  0  0  0
 35 36  1  0  0  0  0
 37 35  1  6  0  0  0
 37 31  1  0  0  0  0
 40 39  2  0  0  0  0
 40 42  1  0  0  0  0
 41 42  1  0  0  0  0
 42 38  1  0  0  0  0
 43 40  1  0  0  0  0
 44 43  1  0  0  0  0
 45 44  1  0  0  0  0
M  END
>  <MODEL>
3

>  <REMARK>
 VINA RESULT:      -5.2      1.931      8.550
  Name = 
  16 active torsions:
  status: ('A' for Active; 'I' for Inactive)
    1  A    between atoms: C_1  and  C_19
    2  A    between atoms: N_2  and  C_22
    3  A    between atoms: N_2  and  C_27
    4  A    between atoms: C_3  and  C_5
    5  A    between atoms: C_5  and  C_33
    6  A    between atoms: C_7  and  C_16
    7  A    between atoms: C_8  and  C_11
    8  A    between atoms: C_9  and  O_38
    9  A    between atoms: C_11  and  O_38
   10  A    between atoms: C_13  and  C_40
   11  A    between atoms: C_19  and  C_22
   12  A    between atoms: C_22  and  C_40
   13  A    between atoms: C_23  and  C_26
   14  A    between atoms: C_26  and  N_45
   15  A    between atoms: C_28  and  C_43
   16  A    between atoms: C_29  and  C_43
                            x       y       z     vdW  Elec       q    Type
                         _______ _______ _______ _____ _____    ______ ____

>  <TORSDO>
F 16

$$$$
=
 OpenBabel11042421353D

 45 49  0  0  1  0  0  0  0  0999 V2000
  160.3440  209.0340  151.5100 C   0  0  0  0  0  2  0  0  0  0  0  0
  160.4170  210.2570  153.7880 C   0  0  2  0  0  3  0  0  0  0  0  0
  160.6780  208.9930  153.0100 C   0  0  2  0  0  3  0  0  0  0  0  0
  161.9220  208.2170  153.4190 C   0  0  0  0  0  2  0  0  0  0  0  0
  159.3720  211.4330  155.7710 C   0  0  1  0  0  3  0  0  0  0  0  0
  159.7260  209.6680  157.2480 N   0  0  0  0  0  0  0  0  0  0  0  0
  160.4070  206.9510  154.9860 C   0  0  0  0  0  2  0  0  0  0  0  0
  159.3190  210.9720  157.1120 O   0  0  0  0  0  0  0  0  0  0  0  0
  159.9720  210.2430  155.0650 C   0  0  2  0  0  3  0  0  0  0  0  0
  161.5030  206.8430  153.9300 C   0  0  0  0  0  2  0  0  0  0  0  0
  160.0760  209.1870  156.1060 C   0  0  0  0  0  0  0  0  0  0  0  0
  160.8480  207.9010  156.0820 C   0  0  0  0  0  2  0  0  0  0  0  0
  157.9340  211.6540  155.3130 C   0  0  1  0  0  3  0  0  0  0  0  0
  156.9980  211.1280  156.3840 C   0  0  0  0  0  2  0  0  0  0  0  0
  157.1990  212.6180  156.2230 C   0  0  2  0  0  3  0  0  0  0  0  0
  155.9940  213.1850  155.4960 C   0  0  0  0  0  2  0  0  0  0  0  0
  154.9890  213.7110  153.2990 C   0  0  0  0  0  1  0  0  0  0  0  0
  156.2390  213.2240  154.0010 C   0  0  0  0  0  2  0  0  0  0  0  0
  160.6440  211.5820  153.1160 C   0  0  0  0  0  2  0  0  0  0  0  0
  159.6750  211.8180  152.1050 O   0  0  0  0  0  0  0  0  0  0  0  0
  159.3070  213.9940  152.7230 O   0  0  0  0  0  0  0  0  0  0  0  0
  159.1260  213.0800  151.8790 C   0  0  0  0  0  0  0  0  0  0  0  0
  158.3250  213.3740  150.6550 C   0  0  0  0  0  1  0  0  0  0  0  0
  161.2960  208.2330  150.6190 C   0  0  2  0  0  3  0  0  0  0  0  0
  161.7230  209.0500  149.3920 C   0  0  2  0  0  3  0  0  0  0  0  0
  162.8580  208.3500  148.6560 C   0  0  0  0  0  1  0  0  0  0  0  0
  162.1850  210.4150  149.7960 C   0  0  0  0  0  3  0  0  0  0  0  0
  161.2900  211.4230  147.8440 O   0  0  0  0  0  1  0  0  0  0  0  0
  161.9720  211.4990  149.0540 C   0  0  0  0  0  3  0  0  0  0  0  0
  160.6170  207.0160  150.1950 N   0  0  0  0  0  2  0  0  0  0  0  0
  161.7200  204.9730  150.9660 C   0  0  1  0  0  3  0  0  0  0  0  0
  161.2870  205.3250  148.5730 C   0  0  0  0  0  2  0  0  0  0  0  0
  161.5210  203.8510  148.8330 C   0  0  1  0  0  3  0  0  0  0  0  0
  161.6350  206.0270  149.8680 C   0  0  1  0  0  3  0  0  0  0  0  0
  160.4710  204.1940  151.0420 N   0  0  0  0  0  0  0  0  0  0  0  0
  160.4500  203.5740  152.3550 C   0  0  0  0  0  1  0  0  0  0  0  0
  161.6480  203.6530  150.3390 C   0  0  2  0  0  3  0  0  0  0  0  0
  160.3790  203.0170  148.2670 C   0  0  0  0  0  2  0  0  0  0  0  0
  161.1530  200.4700  149.2140 O   0  0  0  0  0  0  0  0  0  0  0  0
  161.2600  200.6810  147.9750 C   0  0  0  0  0  0  0  0  0  0  0  0
  161.0220  202.1750  146.0910 O   0  0  0  0  0  1  0  0  0  0  0  0
  160.9000  201.9530  147.4210 N   0  0  0  0  0  0  0  0  0  0  0  0
  161.7330  199.5760  147.0890 C   0  0  0  0  0  2  0  0  0  0  0  0
  160.8580  199.4580  145.8520 C   0  0  0  0  0  2  0  0  0  0  0  0
  161.2140  198.2090  145.0670 C   0  0  0  0  0  1  0  0  0  0  0  0
  2 19  1  6  0  0  0
  2  9  1  0  0  0  0
  3  1  1  6  0  0  0
  3  4  1  0  0  0  0
  3  2  1  0  0  0  0
  4 10  1  0  0  0  0
  5  8  1  1  0  0  0
  7 12  1  0  0  0  0
  8  6  1  0  0  0  0
  9  5  1  0  0  0  0
  9 11  1  1  0  0  0
 10  7  1  0  0  0  0
 11  6  2  0  0  0  0
 12 11  1  0  0  0  0
 13  5  1  0  0  0  0
 13 15  1  0  0  0  0
 13 14  1  1  0  0  0
 15 16  1  6  0  0  0
 15 14  1  0  0  0  0
 17 18  1  0  0  0  0
 18 16  1  0  0  0  0
 20 19  1  0  0  0  0
 22 20  1  0  0  0  0
 22 21  2  0  0  0  0
 23 22  1  0  0  0  0
 24  1  1  1  0  0  0
 25 26  1  1  0  0  0
 25 27  1  0  0  0  0
 25 24  1  0  0  0  0
 28 29  1  0  0  0  0
 29 27  2  0  0  0  0
 30 24  1  0  0  0  0
 31 35  1  1  0  0  0
 32 33  1  0  0  0  0
 32 34  1  0  0  0  0
 33 38  1  1  0  0  0
 33 37  1  0  0  0  0
 34 30  1  1  0  0  0
 34 31  1  0  0  0  0
 35 36  1  0  0  0  0
 37 31  1  0  0  0  0
 37 35  1  1  0  0  0
 40 39  2  0  0  0  0
 41 42  1  0  0  0  0
 42 40  1  0  0  0  0
 42 38  1  0  0  0  0
 43 40  1  0  0  0  0
 44 43  1  0  0  0  0
 45 44  1  0  0  0  0
M  END
>  <MODEL>
4

>  <REMARK>
 VINA RESULT:      -4.6      2.302      5.253
  Name = 
  16 active torsions:
  status: ('A' for Active; 'I' for Inactive)
    1  A    between atoms: C_1  and  C_19
    2  A    between atoms: N_2  and  C_22
    3  A    between atoms: N_2  and  C_27
    4  A    between atoms: C_3  and  C_5
    5  A    between atoms: C_5  and  C_33
    6  A    between atoms: C_7  and  C_16
    7  A    between atoms: C_8  and  C_11
    8  A    between atoms: C_9  and  O_38
    9  A    between atoms: C_11  and  O_38
   10  A    between atoms: C_13  and  C_40
   11  A    between atoms: C_19  and  C_22
   12  A    between atoms: C_22  and  C_40
   13  A    between atoms: C_23  and  C_26
   14  A    between atoms: C_26  and  N_45
   15  A    between atoms: C_28  and  C_43
   16  A    between atoms: C_29  and  C_43
                            x       y       z     vdW  Elec       q    Type
                         _______ _______ _______ _____ _____    ______ ____

>  <TORSDO>
F 16

$$$$
=
 OpenBabel11042421353D

 45 49  0  0  1  0  0  0  0  0999 V2000
  161.7330  207.9890  151.4150 C   0  0  0  0  0  2  0  0  0  0  0  0
  160.6300  205.8990  150.3650 C   0  0  2  0  0  3  0  0  0  0  0  0
  161.1470  206.5810  151.6050 C   0  0  2  0  0  3  0  0  0  0  0  0
  160.3420  206.3330  152.8720 C   0  0  0  0  0  2  0  0  0  0  0  0
  160.5760  203.8840  148.8330 C   0  0  1  0  0  3  0  0  0  0  0  0
  160.7670  202.3290  150.5550 N   0  0  0  0  0  0  0  0  0  0  0  0
  161.9000  204.3940  153.2780 C   0  0  0  0  0  2  0  0  0  0  0  0
  160.5500  202.5170  149.2130 O   0  0  0  0  0  0  0  0  0  0  0  0
  160.7510  204.5660  150.1660 C   0  0  2  0  0  3  0  0  0  0  0  0
  161.2260  205.6190  153.8890 C   0  0  0  0  0  2  0  0  0  0  0  0
  160.9260  203.4630  151.1470 C   0  0  0  0  0  0  0  0  0  0  0  0
  160.8530  203.5000  152.6440 C   0  0  0  0  0  2  0  0  0  0  0  0
  161.8130  204.0880  147.9640 C   0  0  1  0  0  3  0  0  0  0  0  0
  162.0010  202.8600  147.0940 C   0  0  0  0  0  2  0  0  0  0  0  0
  161.4600  204.1370  146.4910 C   0  0  2  0  0  3  0  0  0  0  0  0
  162.5810  204.8120  145.7220 C   0  0  0  0  0  2  0  0  0  0  0  0
  160.5210  205.9150  144.9140 C   0  0  0  0  0  1  0  0  0  0  0  0
  162.0240  205.8360  144.7530 C   0  0  0  0  0  2  0  0  0  0  0  0
  159.9690  206.7300  149.3020 C   0  0  0  0  0  2  0  0  0  0  0  0
  160.8270  206.9140  148.1850 O   0  0  0  0  0  0  0  0  0  0  0  0
  161.5290  209.0920  148.0830 O   0  0  0  0  0  0  0  0  0  0  0  0
  161.8360  207.8760  148.1700 C   0  0  0  0  0  0  0  0  0  0  0  0
  163.2770  207.4970  148.2530 C   0  0  0  0  0  1  0  0  0  0  0  0
  160.9780  209.1020  152.1460 C   0  0  2  0  0  3  0  0  0  0  0  0
  160.9200  210.3790  151.2970 C   0  0  2  0  0  3  0  0  0  0  0  0
  162.2930  210.6990  150.7240 C   0  0  0  0  0  1  0  0  0  0  0  0
  160.4600  211.5440  152.1190 C   0  0  0  0  0  3  0  0  0  0  0  0
  160.0070  212.8670  150.2030 O   0  0  0  0  0  1  0  0  0  0  0  0
  160.0450  212.6880  151.5820 C   0  0  0  0  0  3  0  0  0  0  0  0
  161.6590  209.3710  153.4050 N   0  0  0  0  0  2  0  0  0  0  0  0
  161.5250  208.9190  155.8050 C   0  0  1  0  0  3  0  0  0  0  0  0
  159.6620  210.0210  154.6420 C   0  0  0  0  0  2  0  0  0  0  0  0
  159.5530  210.2810  156.1300 C   0  0  1  0  0  3  0  0  0  0  0  0
  160.7620  208.9920  154.4880 C   0  0  1  0  0  3  0  0  0  0  0  0
  162.0220  210.2500  156.1980 N   0  0  0  0  0  0  0  0  0  0  0  0
  163.0910  210.0270  157.1540 C   0  0  0  0  0  1  0  0  0  0  0  0
  160.7930  209.7020  156.8010 C   0  0  2  0  0  3  0  0  0  0  0  0
  159.4270  211.7730  156.4070 C   0  0  0  0  0  2  0  0  0  0  0  0
  158.6890  213.7940  154.5760 O   0  0  0  0  0  0  0  0  0  0  0  0
  157.7620  213.2410  155.2280 C   0  0  0  0  0  0  0  0  0  0  0  0
  157.0600  211.6300  156.8870 O   0  0  0  0  0  1  0  0  0  0  0  0
  158.0590  212.2160  156.1860 N   0  0  0  0  0  0  0  0  0  0  0  0
  156.3480  213.6430  154.9630 C   0  0  0  0  0  2  0  0  0  0  0  0
  156.1880  214.1660  153.5450 C   0  0  0  0  0  2  0  0  0  0  0  0
  154.7630  213.9650  153.0630 C   0  0  0  0  0  1  0  0  0  0  0  0
  2 19  1  6  0  0  0
  2  3  1  0  0  0  0
  3  1  1  6  0  0  0
  3  4  1  0  0  0  0
  4 10  1  0  0  0  0
  5  8  1  1  0  0  0
  5  9  1  0  0  0  0
  6 11  2  0  0  0  0
  7 10  1  0  0  0  0
  8  6  1  0  0  0  0
  9  2  1  0  0  0  0
  9 11  1  1  0  0  0
 11 12  1  0  0  0  0
 12  7  1  0  0  0  0
 13 14  1  6  0  0  0
 13  5  1  0  0  0  0
 15 16  1  6  0  0  0
 15 14  1  0  0  0  0
 15 13  1  0  0  0  0
 18 17  1  0  0  0  0
 18 16  1  0  0  0  0
 20 19  1  0  0  0  0
 21 22  2  0  0  0  0
 22 20  1  0  0  0  0
 22 23  1  0  0  0  0
 24  1  1  6  0  0  0
 24 30  1  0  0  0  0
 25 26  1  1  0  0  0
 25 27  1  0  0  0  0
 25 24  1  0  0  0  0
 28 29  1  0  0  0  0
 29 27  2  0  0  0  0
 31 35  1  6  0  0  0
 31 37  1  0  0  0  0
 32 33  1  0  0  0  0
 33 38  1  6  0  0  0
 33 37  1  0  0  0  0
 34 30  1  6  0  0  0
 34 32  1  0  0  0  0
 34 31  1  0  0  0  0
 35 36  1  0  0  0  0
 37 35  1  6  0  0  0
 39 40  2  0  0  0  0
 40 42  1  0  0  0  0
 42 38  1  0  0  0  0
 42 41  1  0  0  0  0
 43 40  1  0  0  0  0
 44 43  1  0  0  0  0
 45 44  1  0  0  0  0
M  END
>  <MODEL>
5

>  <REMARK>
 VINA RESULT:      -4.4      2.790      9.005
  Name = 
  16 active torsions:
  status: ('A' for Active; 'I' for Inactive)
    1  A    between atoms: C_1  and  C_19
    2  A    between atoms: N_2  and  C_22
    3  A    between atoms: N_2  and  C_27
    4  A    between atoms: C_3  and  C_5
    5  A    between atoms: C_5  and  C_33
    6  A    between atoms: C_7  and  C_16
    7  A    between atoms: C_8  and  C_11
    8  A    between atoms: C_9  and  O_38
    9  A    between atoms: C_11  and  O_38
   10  A    between atoms: C_13  and  C_40
   11  A    between atoms: C_19  and  C_22
   12  A    between atoms: C_22  and  C_40
   13  A    between atoms: C_23  and  C_26
   14  A    between atoms: C_26  and  N_45
   15  A    between atoms: C_28  and  C_43
   16  A    between atoms: C_29  and  C_43
                            x       y       z     vdW  Elec       q    Type
                         _______ _______ _______ _____ _____    ______ ____

>  <TORSDO>
F 16

$$$$
=
 OpenBabel11042421353D

 45 49  0  0  1  0  0  0  0  0999 V2000
  160.8310  208.0470  150.4460 C   0  0  0  0  0  2  0  0  0  0  0  0
  161.2410  209.8340  152.2710 C   0  0  2  0  0  3  0  0  0  0  0  0
  161.0910  208.3750  151.9250 C   0  0  2  0  0  3  0  0  0  0  0  0
  161.9950  207.4230  152.6950 C   0  0  0  0  0  2  0  0  0  0  0  0
  160.5900  211.8290  153.6870 C   0  0  1  0  0  3  0  0  0  0  0  0
  160.2970  210.5920  155.6370 N   0  0  0  0  0  0  0  0  0  0  0  0
  160.1030  207.2360  154.3500 C   0  0  0  0  0  2  0  0  0  0  0  0
  160.3490  211.8470  155.0850 O   0  0  0  0  0  0  0  0  0  0  0  0
  160.7810  210.3550  153.4320 C   0  0  2  0  0  3  0  0  0  0  0  0
  161.1310  206.4740  153.5170 C   0  0  0  0  0  2  0  0  0  0  0  0
  160.5000  209.6960  154.7340 C   0  0  0  0  0  0  0  0  0  0  0  0
  160.8030  208.2960  155.1770 C   0  0  0  0  0  2  0  0  0  0  0  0
  159.3200  212.3270  153.0040 C   0  0  1  0  0  3  0  0  0  0  0  0
  158.5460  213.1830  153.9870 C   0  0  0  0  0  2  0  0  0  0  0  0
  159.3160  213.8350  152.8620 C   0  0  2  0  0  3  0  0  0  0  0  0
  158.3300  214.2420  151.7820 C   0  0  0  0  0  2  0  0  0  0  0  0
  157.1620  213.3720  149.7840 C   0  0  0  0  0  1  0  0  0  0  0  0
  157.6800  213.0210  151.1630 C   0  0  0  0  0  2  0  0  0  0  0  0
  161.9140  210.7470  151.2860 C   0  0  0  0  0  2  0  0  0  0  0  0
  160.9660  211.3540  150.4190 O   0  0  0  0  0  0  0  0  0  0  0  0
  162.3320  211.8650  148.6520 O   0  0  0  0  0  0  0  0  0  0  0  0
  161.3440  212.1820  149.3620 C   0  0  0  0  0  0  0  0  0  0  0  0
  160.6040  213.4400  149.0530 C   0  0  0  0  0  1  0  0  0  0  0  0
  161.6370  206.8660  149.9000 C   0  0  2  0  0  3  0  0  0  0  0  0
  162.0810  207.1220  148.4530 C   0  0  2  0  0  3  0  0  0  0  0  0
  162.4570  208.5850  148.2640 C   0  0  0  0  0  1  0  0  0  0  0  0
  160.9850  206.7810  147.4920 C   0  0  0  0  0  3  0  0  0  0  0  0
  162.4990  205.8690  145.9090 O   0  0  0  0  0  1  0  0  0  0  0  0
  161.2110  206.2020  146.3150 C   0  0  0  0  0  3  0  0  0  0  0  0
  160.8040  205.6730  149.9620 N   0  0  0  0  0  2  0  0  0  0  0  0
  161.6810  203.8560  151.3450 C   0  0  1  0  0  3  0  0  0  0  0  0
  161.2130  203.4880  148.9610 C   0  0  0  0  0  2  0  0  0  0  0  0
  161.2780  202.1540  149.6750 C   0  0  1  0  0  3  0  0  0  0  0  0
  161.6850  204.5130  149.9700 C   0  0  1  0  0  3  0  0  0  0  0  0
  160.3520  203.3010  151.6570 N   0  0  0  0  0  0  0  0  0  0  0  0
  160.3010  203.1340  153.0980 C   0  0  0  0  0  1  0  0  0  0  0  0
  161.4320  202.4260  151.1670 C   0  0  2  0  0  3  0  0  0  0  0  0
  160.0270  201.3320  149.3950 C   0  0  0  0  0  2  0  0  0  0  0  0
  161.8790  200.1860  147.5960 O   0  0  0  0  0  0  0  0  0  0  0  0
  160.7930  200.6090  147.1130 C   0  0  0  0  0  0  0  0  0  0  0  0
  158.6460  201.6710  147.4370 O   0  0  0  0  0  1  0  0  0  0  0  0
  159.8080  201.2140  147.9610 N   0  0  0  0  0  0  0  0  0  0  0  0
  160.5310  200.4350  145.6530 C   0  0  0  0  0  2  0  0  0  0  0  0
  160.0810  201.7420  145.0210 C   0  0  0  0  0  2  0  0  0  0  0  0
  161.1100  202.8310  145.2630 C   0  0  0  0  0  1  0  0  0  0  0  0
  2 19  1  6  0  0  0
  2  9  1  0  0  0  0
  3  1  1  6  0  0  0
  3  2  1  0  0  0  0
  3  4  1  0  0  0  0
  4 10  1  0  0  0  0
  5  8  1  1  0  0  0
  7 12  1  0  0  0  0
  8  6  1  0  0  0  0
  9  5  1  0  0  0  0
  9 11  1  1  0  0  0
 10  7  1  0  0  0  0
 11 12  1  0  0  0  0
 11  6  2  0  0  0  0
 13  5  1  0  0  0  0
 13 14  1  1  0  0  0
 15 16  1  6  0  0  0
 15 13  1  0  0  0  0
 15 14  1  0  0  0  0
 17 18  1  0  0  0  0
 18 16  1  0  0  0  0
 20 19  1  0  0  0  0
 21 22  2  0  0  0  0
 22 20  1  0  0  0  0
 23 22  1  0  0  0  0
 24 30  1  0  0  0  0
 24  1  1  6  0  0  0
 25 26  1  1  0  0  0
 25 24  1  0  0  0  0
 27 25  1  0  0  0  0
 28 29  1  0  0  0  0
 29 27  2  0  0  0  0
 31 35  1  1  0  0  0
 32 33  1  0  0  0  0
 32 34  1  0  0  0  0
 33 38  1  1  0  0  0
 33 37  1  0  0  0  0
 34 30  1  1  0  0  0
 34 31  1  0  0  0  0
 35 36  1  0  0  0  0
 37 31  1  0  0  0  0
 37 35  1  1  0  0  0
 40 39  2  0  0  0  0
 40 42  1  0  0  0  0
 41 42  1  0  0  0  0
 42 38  1  0  0  0  0
 43 40  1  0  0  0  0
 44 45  1  0  0  0  0
 44 43  1  0  0  0  0
M  END
>  <MODEL>
6

>  <REMARK>
 VINA RESULT:      -4.2      2.265      4.808
  Name = 
  16 active torsions:
  status: ('A' for Active; 'I' for Inactive)
    1  A    between atoms: C_1  and  C_19
    2  A    between atoms: N_2  and  C_22
    3  A    between atoms: N_2  and  C_27
    4  A    between atoms: C_3  and  C_5
    5  A    between atoms: C_5  and  C_33
    6  A    between atoms: C_7  and  C_16
    7  A    between atoms: C_8  and  C_11
    8  A    between atoms: C_9  and  O_38
    9  A    between atoms: C_11  and  O_38
   10  A    between atoms: C_13  and  C_40
   11  A    between atoms: C_19  and  C_22
   12  A    between atoms: C_22  and  C_40
   13  A    between atoms: C_23  and  C_26
   14  A    between atoms: C_26  and  N_45
   15  A    between atoms: C_28  and  C_43
   16  A    between atoms: C_29  and  C_43
                            x       y       z     vdW  Elec       q    Type
                         _______ _______ _______ _____ _____    ______ ____

>  <TORSDO>
F 16

$$$$
=
 OpenBabel11042421353D

 45 49  0  0  1  0  0  0  0  0999 V2000
  161.0500  210.4300  150.7850 C   0  0  0  0  0  2  0  0  0  0  0  0
  160.0550  212.3720  152.1760 C   0  0  2  0  0  3  0  0  0  0  0  0
  160.7780  211.0490  152.1660 C   0  0  2  0  0  3  0  0  0  0  0  0
  161.8630  210.8880  153.2210 C   0  0  0  0  0  2  0  0  0  0  0  0
  158.1640  213.8290  153.0170 C   0  0  1  0  0  3  0  0  0  0  0  0
  158.1680  212.9280  155.1630 N   0  0  0  0  0  0  0  0  0  0  0  0
  160.0590  209.9030  154.6800 C   0  0  0  0  0  2  0  0  0  0  0  0
  157.6620  213.9040  154.3420 O   0  0  0  0  0  0  0  0  0  0  0  0
  159.1560  212.7000  153.1320 C   0  0  2  0  0  3  0  0  0  0  0  0
  161.4820  209.7430  154.1530 C   0  0  0  0  0  2  0  0  0  0  0  0
  159.0000  212.1860  154.5180 C   0  0  0  0  0  0  0  0  0  0  0  0
  159.8970  211.2750  155.3020 C   0  0  0  0  0  2  0  0  0  0  0  0
  157.0010  213.4270  152.1160 C   0  0  1  0  0  3  0  0  0  0  0  0
  155.8930  214.4510  152.2690 C   0  0  0  0  0  2  0  0  0  0  0  0
  156.7560  214.4520  151.0280 C   0  0  2  0  0  3  0  0  0  0  0  0
  155.9670  213.8160  149.8980 C   0  0  0  0  0  2  0  0  0  0  0  0
  157.0470  212.6750  147.9890 C   0  0  0  0  0  1  0  0  0  0  0  0
  156.6700  214.0210  148.5710 C   0  0  0  0  0  2  0  0  0  0  0  0
  160.3310  213.3570  151.0750 C   0  0  0  0  0  2  0  0  0  0  0  0
  160.0340  212.8010  149.8020 O   0  0  0  0  0  0  0  0  0  0  0  0
  160.3680  212.6940  147.5380 O   0  0  0  0  0  0  0  0  0  0  0  0
  160.6530  213.2430  148.6330 C   0  0  0  0  0  0  0  0  0  0  0  0
  161.6480  214.3550  148.6480 C   0  0  0  0  0  1  0  0  0  0  0  0
  161.8840  209.1470  150.8110 C   0  0  2  0  0  3  0  0  0  0  0  0
  162.2860  208.7210  149.3930 C   0  0  2  0  0  3  0  0  0  0  0  0
  162.5720  209.9440  148.5320 C   0  0  0  0  0  1  0  0  0  0  0  0
  161.1950  207.9250  148.7460 C   0  0  0  0  0  3  0  0  0  0  0  0
  162.7320  206.5950  147.5230 O   0  0  0  0  0  1  0  0  0  0  0  0
  161.4330  206.9450  147.8780 C   0  0  0  0  0  3  0  0  0  0  0  0
  161.0940  208.0980  151.4410 N   0  0  0  0  0  2  0  0  0  0  0  0
  161.7510  206.8230  153.4230 C   0  0  1  0  0  3  0  0  0  0  0  0
  161.8280  205.7860  151.1960 C   0  0  0  0  0  2  0  0  0  0  0  0
  161.8110  204.7050  152.2570 C   0  0  1  0  0  3  0  0  0  0  0  0
  162.0150  207.0880  151.9460 C   0  0  1  0  0  3  0  0  0  0  0  0
  160.4180  206.2240  153.6170 N   0  0  0  0  0  0  0  0  0  0  0  0
  160.0670  206.4400  155.0100 C   0  0  0  0  0  1  0  0  0  0  0  0
  161.6250  205.3780  153.6120 C   0  0  2  0  0  3  0  0  0  0  0  0
  160.6960  203.7030  151.9860 C   0  0  0  0  0  2  0  0  0  0  0  0
  159.5810  202.6670  149.6060 O   0  0  0  0  0  0  0  0  0  0  0  0
  160.6020  202.0850  150.0640 C   0  0  0  0  0  0  0  0  0  0  0  0
  162.3100  201.9140  151.7660 O   0  0  0  0  0  1  0  0  0  0  0  0
  161.2170  202.5450  151.2750 N   0  0  0  0  0  0  0  0  0  0  0  0
  161.1840  200.9360  149.3090 C   0  0  0  0  0  2  0  0  0  0  0  0
  161.6910  201.3790  147.9470 C   0  0  0  0  0  2  0  0  0  0  0  0
  160.5280  201.7100  147.0300 C   0  0  0  0  0  1  0  0  0  0  0  0
  2 19  1  6  0  0  0
  2  9  1  0  0  0  0
  3  1  1  6  0  0  0
  3  2  1  0  0  0  0
  3  4  1  0  0  0  0
  4 10  1  0  0  0  0
  5  9  1  0  0  0  0
  5  8  1  1  0  0  0
  7 12  1  0  0  0  0
  8  6  1  0  0  0  0
  9 11  1  1  0  0  0
 10  7  1  0  0  0  0
 11  6  2  0  0  0  0
 11 12  1  0  0  0  0
 13 14  1  1  0  0  0
 13  5  1  0  0  0  0
 15 16  1  6  0  0  0
 15 13  1  0  0  0  0
 15 14  1  0  0  0  0
 17 18  1  0  0  0  0
 18 16  1  0  0  0  0
 20 19  1  0  0  0  0
 21 22  2  0  0  0  0
 22 23  1  0  0  0  0
 22 20  1  0  0  0  0
 24  1  1  6  0  0  0
 24 30  1  0  0  0  0
 25 26  1  6  0  0  0
 25 24  1  0  0  0  0
 27 25  1  0  0  0  0
 28 29  1  0  0  0  0
 29 27  2  0  0  0  0
 31 37  1  0  0  0  0
 31 35  1  6  0  0  0
 32 34  1  0  0  0  0
 32 33  1  0  0  0  0
 33 38  1  6  0  0  0
 33 37  1  0  0  0  0
 34 30  1  6  0  0  0
 34 31  1  0  0  0  0
 35 36  1  0  0  0  0
 37 35  1  6  0  0  0
 39 40  2  0  0  0  0
 40 42  1  0  0  0  0
 42 41  1  0  0  0  0
 42 38  1  0  0  0  0
 43 40  1  0  0  0  0
 44 43  1  0  0  0  0
 45 44  1  0  0  0  0
M  END
>  <MODEL>
7

>  <REMARK>
 VINA RESULT:      -4.2      1.919      3.583
  Name = 
  16 active torsions:
  status: ('A' for Active; 'I' for Inactive)
    1  A    between atoms: C_1  and  C_19
    2  A    between atoms: N_2  and  C_22
    3  A    between atoms: N_2  and  C_27
    4  A    between atoms: C_3  and  C_5
    5  A    between atoms: C_5  and  C_33
    6  A    between atoms: C_7  and  C_16
    7  A    between atoms: C_8  and  C_11
    8  A    between atoms: C_9  and  O_38
    9  A    between atoms: C_11  and  O_38
   10  A    between atoms: C_13  and  C_40
   11  A    between atoms: C_19  and  C_22
   12  A    between atoms: C_22  and  C_40
   13  A    between atoms: C_23  and  C_26
   14  A    between atoms: C_26  and  N_45
   15  A    between atoms: C_28  and  C_43
   16  A    between atoms: C_29  and  C_43
                            x       y       z     vdW  Elec       q    Type
                         _______ _______ _______ _____ _____    ______ ____

>  <TORSDO>
F 16

$$$$
=
 OpenBabel11042421353D

 45 49  0  0  1  0  0  0  0  0999 V2000
  162.1600  207.6400  150.2330 C   0  0  0  0  0  2  0  0  0  0  0  0
  160.6720  205.5380  149.9870 C   0  0  2  0  0  3  0  0  0  0  0  0
  161.4770  206.4320  150.8950 C   0  0  2  0  0  3  0  0  0  0  0  0
  160.8970  206.6440  152.2860 C   0  0  0  0  0  2  0  0  0  0  0  0
  160.1290  203.2280  149.1060 C   0  0  1  0  0  3  0  0  0  0  0  0
  160.4720  202.1600  151.1460 N   0  0  0  0  0  0  0  0  0  0  0  0
  162.2940  204.6640  152.9820 C   0  0  0  0  0  2  0  0  0  0  0  0
  160.0330  202.0260  149.8540 O   0  0  0  0  0  0  0  0  0  0  0  0
  160.6160  204.1970  150.1530 C   0  0  2  0  0  3  0  0  0  0  0  0
  161.8740  206.0920  153.3190 C   0  0  0  0  0  2  0  0  0  0  0  0
  160.8530  203.3710  151.3660 C   0  0  0  0  0  0  0  0  0  0  0  0
  161.0620  203.8040  152.7870 C   0  0  0  0  0  2  0  0  0  0  0  0
  161.1990  203.0120  148.0410 C   0  0  1  0  0  3  0  0  0  0  0  0
  161.3980  201.5210  147.8490 C   0  0  0  0  0  2  0  0  0  0  0  0
  160.6380  202.3200  146.8160 C   0  0  2  0  0  3  0  0  0  0  0  0
  161.5540  202.5610  145.6300 C   0  0  0  0  0  2  0  0  0  0  0  0
  159.3700  202.8300  144.5040 C   0  0  0  0  0  1  0  0  0  0  0  0
  160.8160  203.2790  144.5190 C   0  0  0  0  0  2  0  0  0  0  0  0
  159.9160  206.1560  148.8450 C   0  0  0  0  0  2  0  0  0  0  0  0
  160.7920  206.8320  147.9540 O   0  0  0  0  0  0  0  0  0  0  0  0
  160.2650  206.2270  145.8080 O   0  0  0  0  0  0  0  0  0  0  0  0
  161.1390  206.3090  146.7080 C   0  0  0  0  0  0  0  0  0  0  0  0
  162.5250  205.8430  146.4160 C   0  0  0  0  0  1  0  0  0  0  0  0
  161.3920  208.9580  150.3530 C   0  0  2  0  0  3  0  0  0  0  0  0
  161.6660  209.8690  149.1500 C   0  0  2  0  0  3  0  0  0  0  0  0
  162.7620  209.2780  148.2750 C   0  0  0  0  0  1  0  0  0  0  0  0
  162.0960  211.2310  149.6010 C   0  0  0  0  0  3  0  0  0  0  0  0
  161.0720  212.2970  147.7460 O   0  0  0  0  0  1  0  0  0  0  0  0
  161.8080  212.3400  148.9250 C   0  0  0  0  0  3  0  0  0  0  0  0
  161.8010  209.6190  151.5840 N   0  0  0  0  0  2  0  0  0  0  0  0
  161.2290  209.5100  153.9600 C   0  0  1  0  0  3  0  0  0  0  0  0
  159.7790  210.7190  152.3860 C   0  0  0  0  0  2  0  0  0  0  0  0
  159.4910  211.1840  153.7980 C   0  0  1  0  0  3  0  0  0  0  0  0
  160.6980  209.5250  152.5310 C   0  0  1  0  0  3  0  0  0  0  0  0
  161.8790  210.7910  154.2910 N   0  0  0  0  0  0  0  0  0  0  0  0
  162.7360  210.5350  155.4340 C   0  0  0  0  0  1  0  0  0  0  0  0
  160.4980  210.5180  154.7280 C   0  0  2  0  0  3  0  0  0  0  0  0
  159.5800  212.7020  153.8930 C   0  0  0  0  0  2  0  0  0  0  0  0
  156.8230  213.2150  153.5520 O   0  0  0  0  0  0  0  0  0  0  0  0
  157.3100  213.4210  154.6980 C   0  0  0  0  0  0  0  0  0  0  0  0
  159.2220  213.4230  156.1750 O   0  0  0  0  0  1  0  0  0  0  0  0
  158.7040  213.1960  154.9450 N   0  0  0  0  0  0  0  0  0  0  0  0
  156.4080  213.8670  155.8010 C   0  0  0  0  0  2  0  0  0  0  0  0
  156.1540  212.7380  156.7870 C   0  0  0  0  0  2  0  0  0  0  0  0
  155.8410  211.4500  156.0490 C   0  0  0  0  0  1  0  0  0  0  0  0
  2 19  1  6  0  0  0
  2  9  1  0  0  0  0
  2  3  1  0  0  0  0
  3  1  1  6  0  0  0
  3  4  1  0  0  0  0
  4 10  1  0  0  0  0
  5  8  1  1  0  0  0
  5  9  1  0  0  0  0
  6 11  2  0  0  0  0
  7 10  1  0  0  0  0
  8  6  1  0  0  0  0
  9 11  1  1  0  0  0
 11 12  1  0  0  0  0
 12  7  1  0  0  0  0
 13 14  1  1  0  0  0
 13  5  1  0  0  0  0
 15 16  1  6  0  0  0
 15 14  1  0  0  0  0
 15 13  1  0  0  0  0
 17 18  1  0  0  0  0
 18 16  1  0  0  0  0
 20 19  1  0  0  0  0
 21 22  2  0  0  0  0
 22 20  1  0  0  0  0
 23 22  1  0  0  0  0
 24  1  1  6  0  0  0
 24 30  1  0  0  0  0
 25 26  1  6  0  0  0
 25 27  1  0  0  0  0
 25 24  1  0  0  0  0
 28 29  1  0  0  0  0
 29 27  2  0  0  0  0
 31 35  1  6  0  0  0
 31 37  1  0  0  0  0
 32 34  1  0  0  0  0
 32 33  1  0  0  0  0
 33 38  1  6  0  0  0
 33 37  1  0  0  0  0
 34 30  1  6  0  0  0
 34 31  1  0  0  0  0
 35 36  1  0  0  0  0
 37 35  1  6  0  0  0
 38 42  1  0  0  0  0
 39 40  2  0  0  0  0
 40 42  1  0  0  0  0
 40 43  1  0  0  0  0
 42 41  1  0  0  0  0
 43 44  1  0  0  0  0
 45 44  1  0  0  0  0
M  END
>  <MODEL>
8

>  <REMARK>
 VINA RESULT:      -4.1      2.621      9.427
  Name = 
  16 active torsions:
  status: ('A' for Active; 'I' for Inactive)
    1  A    between atoms: C_1  and  C_19
    2  A    between atoms: N_2  and  C_22
    3  A    between atoms: N_2  and  C_27
    4  A    between atoms: C_3  and  C_5
    5  A    between atoms: C_5  and  C_33
    6  A    between atoms: C_7  and  C_16
    7  A    between atoms: C_8  and  C_11
    8  A    between atoms: C_9  and  O_38
    9  A    between atoms: C_11  and  O_38
   10  A    between atoms: C_13  and  C_40
   11  A    between atoms: C_19  and  C_22
   12  A    between atoms: C_22  and  C_40
   13  A    between atoms: C_23  and  C_26
   14  A    between atoms: C_26  and  N_45
   15  A    between atoms: C_28  and  C_43
   16  A    between atoms: C_29  and  C_43
                            x       y       z     vdW  Elec       q    Type
                         _______ _______ _______ _____ _____    ______ ____

>  <TORSDO>
F 16

$$$$
=
 OpenBabel11042421353D

 45 49  0  0  1  0  0  0  0  0999 V2000
  160.0380  210.2770  152.1600 C   0  0  0  0  0  2  0  0  0  0  0  0
  159.9480  212.3090  153.7570 C   0  0  2  0  0  3  0  0  0  0  0  0
  160.5170  210.9460  153.4580 C   0  0  2  0  0  3  0  0  0  0  0  0
  161.9770  210.7490  153.8390 C   0  0  0  0  0  2  0  0  0  0  0  0
  158.7880  213.8980  155.3520 C   0  0  1  0  0  3  0  0  0  0  0  0
  159.8310  213.0540  157.2550 N   0  0  0  0  0  0  0  0  0  0  0  0
  161.1080  209.9100  156.0520 C   0  0  0  0  0  2  0  0  0  0  0  0
  159.0200  214.0360  156.7450 O   0  0  0  0  0  0  0  0  0  0  0  0
  159.6610  212.7150  155.0160 C   0  0  2  0  0  3  0  0  0  0  0  0
  162.0690  209.6530  154.8950 C   0  0  0  0  0  2  0  0  0  0  0  0
  160.1990  212.2470  156.3200 C   0  0  0  0  0  0  0  0  0  0  0  0
  161.3320  211.3050  156.5990 C   0  0  0  0  0  2  0  0  0  0  0  0
  157.3160  213.5420  155.1720 C   0  0  1  0  0  3  0  0  0  0  0  0
  156.8740  213.9920  153.7930 C   0  0  0  0  0  2  0  0  0  0  0  0
  157.1180  212.5250  154.0660 C   0  0  2  0  0  3  0  0  0  0  0  0
  155.7730  211.8430  154.2370 C   0  0  0  0  0  2  0  0  0  0  0  0
  155.1390  210.9680  156.4610 C   0  0  0  0  0  1  0  0  0  0  0  0
  155.8870  210.6630  155.1800 C   0  0  0  0  0  2  0  0  0  0  0  0
  159.6740  213.2480  152.6160 C   0  0  0  0  0  2  0  0  0  0  0  0
  159.0620  212.5690  151.5290 O   0  0  0  0  0  0  0  0  0  0  0  0
  157.1780  213.3960  150.5200 O   0  0  0  0  0  0  0  0  0  0  0  0
  158.4260  213.2470  150.4890 C   0  0  0  0  0  0  0  0  0  0  0  0
  159.1930  213.8010  149.3350 C   0  0  0  0  0  1  0  0  0  0  0  0
  161.0820  209.3960  151.4700 C   0  0  2  0  0  3  0  0  0  0  0  0
  161.3720  209.8930  150.0480 C   0  0  2  0  0  3  0  0  0  0  0  0
  162.1090  208.8250  149.2510 C   0  0  0  0  0  1  0  0  0  0  0  0
  162.2110  211.1330  150.0780 C   0  0  0  0  0  3  0  0  0  0  0  0
  161.6360  211.7180  147.8520 O   0  0  0  0  0  1  0  0  0  0  0  0
  162.3170  211.9590  149.0410 C   0  0  0  0  0  3  0  0  0  0  0  0
  160.5760  208.0310  151.4270 N   0  0  0  0  0  2  0  0  0  0  0  0
  161.8340  206.8940  153.1900 C   0  0  1  0  0  3  0  0  0  0  0  0
  161.4560  205.7930  151.0260 C   0  0  0  0  0  2  0  0  0  0  0  0
  161.8150  204.7530  152.0650 C   0  0  1  0  0  3  0  0  0  0  0  0
  161.6920  207.1320  151.6920 C   0  0  1  0  0  3  0  0  0  0  0  0
  160.6600  206.1760  153.7200 N   0  0  0  0  0  0  0  0  0  0  0  0
  160.6490  206.4050  155.1530 C   0  0  0  0  0  1  0  0  0  0  0  0
  161.9070  205.4500  153.4180 C   0  0  2  0  0  3  0  0  0  0  0  0
  160.7760  203.6390  152.0940 C   0  0  0  0  0  2  0  0  0  0  0  0
  159.7090  202.8010  149.6160 O   0  0  0  0  0  0  0  0  0  0  0  0
  160.6650  202.1280  150.0880 C   0  0  0  0  0  0  0  0  0  0  0  0
  162.2750  201.7550  151.8520 O   0  0  0  0  0  1  0  0  0  0  0  0
  161.2520  202.4840  151.3470 N   0  0  0  0  0  0  0  0  0  0  0  0
  161.2030  200.9790  149.3010 C   0  0  0  0  0  2  0  0  0  0  0  0
  161.0660  201.2300  147.8080 C   0  0  0  0  0  2  0  0  0  0  0  0
  161.5210  200.0150  147.0210 C   0  0  0  0  0  1  0  0  0  0  0  0
  2 19  1  6  0  0  0
  2  9  1  0  0  0  0
  3  1  1  6  0  0  0
  3  2  1  0  0  0  0
  3  4  1  0  0  0  0
  4 10  1  0  0  0  0
  5  8  1  1  0  0  0
  7 12  1  0  0  0  0
  8  6  1  0  0  0  0
  9  5  1  0  0  0  0
  9 11  1  6  0  0  0
 10  7  1  0  0  0  0
 11 12  1  0  0  0  0
 11  6  2  0  0  0  0
 13 14  1  6  0  0  0
 13  5  1  0  0  0  0
 14 15  1  0  0  0  0
 15 16  1  1  0  0  0
 15 13  1  0  0  0  0
 16 18  1  0  0  0  0
 18 17  1  0  0  0  0
 20 19  1  0  0  0  0
 22 21  2  0  0  0  0
 22 20  1  0  0  0  0
 23 22  1  0  0  0  0
 24  1  1  6  0  0  0
 25 26  1  6  0  0  0
 25 27  1  0  0  0  0
 25 24  1  0  0  0  0
 28 29  1  0  0  0  0
 29 27  2  0  0  0  0
 30 24  1  0  0  0  0
 31 37  1  0  0  0  0
 31 35  1  1  0  0  0
 32 34  1  0  0  0  0
 32 33  1  0  0  0  0
 33 38  1  1  0  0  0
 33 37  1  0  0  0  0
 34 30  1  1  0  0  0
 34 31  1  0  0  0  0
 35 36  1  0  0  0  0
 37 35  1  1  0  0  0
 39 40  2  0  0  0  0
 40 42  1  0  0  0  0
 42 41  1  0  0  0  0
 42 38  1  0  0  0  0
 43 40  1  0  0  0  0
 44 43  1  0  0  0  0
 45 44  1  0  0  0  0
M  END
>  <MODEL>
9

>  <REMARK>
 VINA RESULT:      -3.9      2.276      4.877
  Name = 
  16 active torsions:
  status: ('A' for Active; 'I' for Inactive)
    1  A    between atoms: C_1  and  C_19
    2  A    between atoms: N_2  and  C_22
    3  A    between atoms: N_2  and  C_27
    4  A    between atoms: C_3  and  C_5
    5  A    between atoms: C_5  and  C_33
    6  A    between atoms: C_7  and  C_16
    7  A    between atoms: C_8  and  C_11
    8  A    between atoms: C_9  and  O_38
    9  A    between atoms: C_11  and  O_38
   10  A    between atoms: C_13  and  C_40
   11  A    between atoms: C_19  and  C_22
   12  A    between atoms: C_22  and  C_40
   13  A    between atoms: C_23  and  C_26
   14  A    between atoms: C_26  and  N_45
   15  A    between atoms: C_28  and  C_43
   16  A    between atoms: C_29  and  C_43
                            x       y       z     vdW  Elec       q    Type
                         _______ _______ _______ _____ _____    ______ ____

>  <TORSDO>
F 16

$$$$
