=
 OpenBabel11042422153D

 50 54  0  0  1  0  0  0  0  0999 V2000
  160.8550  213.4780  146.8830 N   0  0  0  0  0  0  0  0  0  0  0  0
  161.1760  212.2600  148.8520 C   0  0  0  0  0  0  0  0  0  0  0  0
  161.4470  212.3570  147.4670 N   0  0  0  0  0  0  0  0  0  0  0  0
  161.5720  211.2270  149.6190 C   0  0  1  0  0  3  0  0  0  0  0  0
  160.0600  214.3050  147.7830 C   0  0  0  0  0  2  0  0  0  0  0  0
  160.2020  213.6240  149.4810 S   0  0  0  0  0  0  0  0  0  0  0  0
  161.0290  213.5330  142.5630 C   0  0  1  0  0  3  0  0  0  0  0  0
  162.2270  213.1890  143.4180 C   0  0  0  0  0  0  0  0  0  0  0  0
  160.0360  214.4510  143.3050 C   0  0  1  0  0  3  0  0  0  0  0  0
  163.1120  212.4780  142.9690 O   0  0  0  0  0  0  0  0  0  0  0  0
  160.9890  213.7640  145.4840 C   0  0  0  0  0  0  0  0  0  0  0  0
  162.3420  213.7050  144.8250 C   0  0  0  0  0  2  0  0  0  0  0  0
  158.6630  214.3930  142.6640 C   0  0  0  0  0  1  0  0  0  0  0  0
  159.9150  214.1040  144.7600 C   0  0  0  0  0  3  0  0  0  0  0  0
  161.4970  214.2070  141.2800 C   0  0  0  0  0  2  0  0  0  0  0  0
  160.9010  213.5990  140.1730 O   0  0  0  0  0  0  0  0  0  0  0  0
  161.8710  211.2620  137.4390 S   0  0  0  0  0  0  0  0  0  0  0  0
  161.9670  213.0960  139.4230 C   0  0  2  0  0  3  0  0  0  0  0  0
  162.0040  213.7890  138.0690 C   0  0  1  0  0  3  0  0  0  0  0  0
  161.7800  211.6050  139.2140 C   0  0  2  0  0  3  0  0  0  0  0  0
  163.4360  214.1340  137.6980 C   0  0  0  0  0  1  0  0  0  0  0  0
  161.4150  212.9270  137.0540 N   0  0  0  0  0  2  0  0  0  0  0  0
  162.8790  210.8470  139.9360 C   0  0  0  0  0  1  0  0  0  0  0  0
  161.2140  211.2440  151.0090 N   0  0  0  0  0  0  0  0  0  0  0  0
  161.8070  210.5250  151.9080 C   0  0  0  0  0  3  0  0  0  0  0  0
  161.3830  210.6010  153.3360 C   0  0  0  0  0  2  0  0  0  0  0  0
  161.0040  209.2560  155.1640 N   0  0  0  0  0  2  0  0  0  0  0  0
  160.3270  206.8860  154.7890 C   0  0  0  0  0  2  0  0  0  0  0  0
  160.8390  209.3230  153.7670 N   0  0  0  0  0  0  0  0  0  0  0  0
  160.2000  208.1390  155.6710 C   0  0  0  0  0  2  0  0  0  0  0  0
  161.6740  208.2830  153.1570 C   0  0  0  0  0  2  0  0  0  0  0  0
  161.5760  206.9480  153.9120 C   0  0  2  0  0  3  0  0  0  0  0  0
  161.6180  205.7970  152.9630 C   0  0  0  0  0  0  0  0  0  0  0  0
  161.0300  204.7170  153.2380 O   0  0  0  0  0  1  0  0  0  0  0  0
  162.3180  205.9160  151.7700 O   0  0  0  0  0  0  0  0  0  0  0  0
  161.8500  208.8930  148.7450 C   0  0  0  0  0  3  0  0  0  0  0  0
  162.3540  210.0720  149.0980 C   0  0  0  0  0  3  0  0  0  0  0  0
  162.7390  207.8120  148.2360 C   0  0  0  0  0  2  0  0  0  0  0  0
  162.0610  207.0630  147.1830 N   0  0  0  0  0  2  0  0  0  0  0  0
  162.0380  205.6400  147.5190 C   0  0  2  0  0  3  0  0  0  0  0  0
  162.7040  204.8920  146.5440 O   0  0  0  0  0  1  0  0  0  0  0  0
  160.7230  205.1830  147.6600 O   0  0  0  0  0  0  0  0  0  0  0  0
  160.5420  205.0350  149.0360 C   0  0  0  0  0  2  0  0  0  0  0  0
  161.2990  203.9570  149.4960 O   0  0  0  0  0  0  0  0  0  0  0  0
  160.3700  203.0910  150.0840 C   0  0  2  0  0  3  0  0  0  0  0  0
  161.1240  201.9190  150.7440 C   0  0  0  0  0  0  0  0  0  0  0  0
  161.2020  201.5090  148.2220 C   0  0  0  0  0  1  0  0  0  0  0  0
  160.3430  201.8080  149.4420 C   0  0  2  0  0  0  0  0  0  0  0  0
  159.1590  201.0860  149.5880 O   0  0  0  0  0  1  0  0  0  0  0  0
  161.8210  201.4470  151.6270 O   0  0  0  0  0  0  0  0  0  0  0  0
  1  3  1  0  0  0  0
  1  5  1  0  0  0  0
  2  6  1  0  0  0  0
  2  4  1  0  0  0  0
  3  2  2  0  0  0  0
  4 37  1  6  0  0  0
  4 24  1  0  0  0  0
  5  6  1  0  0  0  0
  7 15  1  6  0  0  0
  7  9  1  0  0  0  0
  7  8  1  0  0  0  0
  8 12  1  0  0  0  0
  9 13  1  6  0  0  0
  9 14  1  0  0  0  0
 10  8  2  0  0  0  0
 11  1  1  0  0  0  0
 12 11  1  0  0  0  0
 14 11  2  0  0  0  0
 16 15  1  0  0  0  0
 17 20  1  0  0  0  0
 18 16  1  1  0  0  0
 19 21  1  6  0  0  0
 19 18  1  0  0  0  0
 20 18  1  0  0  0  0
 20 23  1  1  0  0  0
 22 17  1  0  0  0  0
 22 19  1  0  0  0  0
 24 25  2  0  0  0  0
 25 26  1  0  0  0  0
 26 29  1  0  0  0  0
 27 30  1  0  0  0  0
 28 30  1  0  0  0  0
 29 27  1  0  0  0  0
 31 29  1  0  0  0  0
 31 32  1  0  0  0  0
 32 33  1  6  0  0  0
 32 28  1  0  0  0  0
 33 34  1  0  0  0  0
 35 33  2  0  0  0  0
 36 37  2  0  0  0  0
 38 36  1  0  0  0  0
 39 40  1  0  0  0  0
 39 38  1  0  0  0  0
 40 41  1  6  0  0  0
 40 42  1  0  0  0  0
 42 43  1  0  0  0  0
 43 44  1  0  0  0  0
 45 44  1  6  0  0  0
 45 46  1  0  0  0  0
 46 50  2  0  0  0  0
 48 47  1  6  0  0  0
 48 49  1  0  0  0  0
 48 45  1  0  0  0  0
 48 46  1  0  0  0  0
M  END
>  <MODEL>
1

>  <REMARK>
 VINA RESULT:      -6.2      0.000      0.000
  Name = 
  16 active torsions:
  status: ('A' for Active; 'I' for Inactive)
    1  A    between atoms: C_1  and  C_11
    2  A    between atoms: N_2  and  C_25
    3  A    between atoms: N_4  and  C_5
    4  A    between atoms: N_4  and  C_18
    5  A    between atoms: C_5  and  O_29
    6  A    between atoms: C_6  and  O_39
    7  A    between atoms: C_7  and  C_18
    8  A    between atoms: N_8  and  C_40
    9  A    between atoms: C_11  and  O_48
   10  A    between atoms: C_13  and  C_45
   11  A    between atoms: C_16  and  O_29
   12  A    between atoms: C_16  and  O_39
   13  A    between atoms: C_19  and  C_25
   14  A    between atoms: C_22  and  O_48
   15  A    between atoms: C_23  and  N_32
   16  A    between atoms: C_23  and  C_43
                            x       y       z     vdW  Elec       q    Type
                         _______ _______ _______ _____ _____    ______ ____

>  <TORSDO>
F 16

$$$$
=
 OpenBabel11042422153D

 50 54  0  0  1  0  0  0  0  0999 V2000
  160.8950  213.3970  147.0130 N   0  0  0  0  0  0  0  0  0  0  0  0
  161.2560  212.1460  148.9540 C   0  0  0  0  0  0  0  0  0  0  0  0
  161.4430  212.2340  147.5550 N   0  0  0  0  0  0  0  0  0  0  0  0
  161.6280  211.0830  149.6920 C   0  0  1  0  0  3  0  0  0  0  0  0
  160.2190  214.2710  147.9650 C   0  0  0  0  0  2  0  0  0  0  0  0
  160.4220  213.5700  149.6490 S   0  0  0  0  0  0  0  0  0  0  0  0
  160.8340  213.4540  142.6910 C   0  0  1  0  0  3  0  0  0  0  0  0
  162.0710  213.0890  143.4790 C   0  0  0  0  0  0  0  0  0  0  0  0
  159.8990  214.3880  143.4850 C   0  0  1  0  0  3  0  0  0  0  0  0
  162.9190  212.3630  142.9830 O   0  0  0  0  0  0  0  0  0  0  0  0
  160.9570  213.6820  145.6090 C   0  0  0  0  0  0  0  0  0  0  0  0
  162.2700  213.6010  144.8780 C   0  0  0  0  0  2  0  0  0  0  0  0
  158.4920  214.3530  142.9200 C   0  0  0  0  0  1  0  0  0  0  0  0
  159.8510  214.0410  144.9450 C   0  0  0  0  0  3  0  0  0  0  0  0
  161.2430  214.1220  141.3840 C   0  0  0  0  0  2  0  0  0  0  0  0
  160.2260  213.9870  140.4370 O   0  0  0  0  0  0  0  0  0  0  0  0
  162.8620  211.5320  139.4870 S   0  0  0  0  0  0  0  0  0  0  0  0
  160.8130  213.2930  139.3760 C   0  0  2  0  0  3  0  0  0  0  0  0
  160.2810  211.8690  139.3460 C   0  0  1  0  0  3  0  0  0  0  0  0
  162.3180  213.2580  139.5660 C   0  0  2  0  0  3  0  0  0  0  0  0
  159.9830  211.4520  137.9160 C   0  0  0  0  0  1  0  0  0  0  0  0
  161.2520  210.9630  139.9430 N   0  0  0  0  0  2  0  0  0  0  0  0
  162.9910  214.0550  138.4640 C   0  0  0  0  0  1  0  0  0  0  0  0
  161.3640  211.1160  151.1030 N   0  0  0  0  0  0  0  0  0  0  0  0
  161.9250  210.3180  151.9530 C   0  0  0  0  0  3  0  0  0  0  0  0
  161.6030  210.4160  153.4060 C   0  0  0  0  0  2  0  0  0  0  0  0
  161.4990  208.9450  155.1730 N   0  0  0  0  0  2  0  0  0  0  0  0
  160.4210  206.7240  154.8220 C   0  0  0  0  0  2  0  0  0  0  0  0
  161.0060  209.1740  153.8730 N   0  0  0  0  0  0  0  0  0  0  0  0
  160.6940  207.8860  155.7920 C   0  0  0  0  0  2  0  0  0  0  0  0
  161.5100  208.1100  152.9980 C   0  0  0  0  0  2  0  0  0  0  0  0
  161.4120  206.7260  153.6600 C   0  0  2  0  0  3  0  0  0  0  0  0
  161.0560  205.6820  152.6540 C   0  0  0  0  0  0  0  0  0  0  0  0
  160.7470  206.0050  151.4760 O   0  0  0  0  0  0  0  0  0  0  0  0
  161.0590  204.3440  153.0230 O   0  0  0  0  0  1  0  0  0  0  0  0
  161.6960  208.7230  148.8460 C   0  0  0  0  0  3  0  0  0  0  0  0
  162.2930  209.8810  149.1180 C   0  0  0  0  0  3  0  0  0  0  0  0
  162.4710  207.5890  148.2720 C   0  0  0  0  0  2  0  0  0  0  0  0
  161.7200  206.9710  147.1840 N   0  0  0  0  0  2  0  0  0  0  0  0
  161.6030  205.5320  147.4140 C   0  0  2  0  0  3  0  0  0  0  0  0
  161.5530  205.2530  148.7830 O   0  0  0  0  0  1  0  0  0  0  0  0
  162.6680  204.8450  146.8230 O   0  0  0  0  0  0  0  0  0  0  0  0
  162.1670  204.3920  145.6010 C   0  0  0  0  0  2  0  0  0  0  0  0
  161.0120  203.6380  145.8190 O   0  0  0  0  0  0  0  0  0  0  0  0
  161.4230  202.3070  145.6920 C   0  0  2  0  0  3  0  0  0  0  0  0
  160.1920  201.4260  145.3990 C   0  0  0  0  0  0  0  0  0  0  0  0
  160.0660  202.0560  147.8730 C   0  0  0  0  0  1  0  0  0  0  0  0
  160.9050  201.4780  146.7420 C   0  0  2  0  0  0  0  0  0  0  0  0
  161.6300  200.3180  147.0080 O   0  0  0  0  0  1  0  0  0  0  0  0
  159.3130  201.0150  144.6590 O   0  0  0  0  0  0  0  0  0  0  0  0
  1  3  1  0  0  0  0
  1  5  1  0  0  0  0
  2  6  1  0  0  0  0
  2  4  1  0  0  0  0
  3  2  2  0  0  0  0
  4 37  1  6  0  0  0
  4 24  1  0  0  0  0
  5  6  1  0  0  0  0
  7 15  1  6  0  0  0
  7  8  1  0  0  0  0
  7  9  1  0  0  0  0
  8 12  1  0  0  0  0
  9 13  1  6  0  0  0
  9 14  1  0  0  0  0
 10  8  2  0  0  0  0
 11  1  1  0  0  0  0
 12 11  1  0  0  0  0
 14 11  2  0  0  0  0
 16 15  1  0  0  0  0
 17 20  1  0  0  0  0
 17 22  1  0  0  0  0
 18 20  1  0  0  0  0
 18 16  1  1  0  0  0
 19 21  1  6  0  0  0
 19 18  1  0  0  0  0
 19 22  1  0  0  0  0
 20 23  1  6  0  0  0
 24 25  2  0  0  0  0
 25 26  1  0  0  0  0
 26 29  1  0  0  0  0
 27 30  1  0  0  0  0
 28 30  1  0  0  0  0
 29 27  1  0  0  0  0
 31 32  1  0  0  0  0
 31 29  1  0  0  0  0
 32 33  1  6  0  0  0
 32 28  1  0  0  0  0
 33 35  1  0  0  0  0
 34 33  2  0  0  0  0
 36 37  2  0  0  0  0
 38 36  1  0  0  0  0
 39 40  1  0  0  0  0
 39 38  1  0  0  0  0
 40 41  1  1  0  0  0
 42 40  1  0  0  0  0
 43 44  1  0  0  0  0
 43 42  1  0  0  0  0
 45 44  1  1  0  0  0
 45 48  1  0  0  0  0
 46 45  1  0  0  0  0
 46 48  1  0  0  0  0
 48 49  1  0  0  0  0
 48 47  1  1  0  0  0
 50 46  2  0  0  0  0
M  END
>  <MODEL>
2

>  <REMARK>
 VINA RESULT:      -5.9      1.438      2.209
  Name = 
  16 active torsions:
  status: ('A' for Active; 'I' for Inactive)
    1  A    between atoms: C_1  and  C_11
    2  A    between atoms: N_2  and  C_25
    3  A    between atoms: N_4  and  C_5
    4  A    between atoms: N_4  and  C_18
    5  A    between atoms: C_5  and  O_29
    6  A    between atoms: C_6  and  O_39
    7  A    between atoms: C_7  and  C_18
    8  A    between atoms: N_8  and  C_40
    9  A    between atoms: C_11  and  O_48
   10  A    between atoms: C_13  and  C_45
   11  A    between atoms: C_16  and  O_29
   12  A    between atoms: C_16  and  O_39
   13  A    between atoms: C_19  and  C_25
   14  A    between atoms: C_22  and  O_48
   15  A    between atoms: C_23  and  N_32
   16  A    between atoms: C_23  and  C_43
                            x       y       z     vdW  Elec       q    Type
                         _______ _______ _______ _____ _____    ______ ____

>  <TORSDO>
F 16

$$$$
=
 OpenBabel11042422153D

 50 54  0  0  1  0  0  0  0  0999 V2000
  160.8420  206.2210  153.3000 N   0  0  0  0  0  0  0  0  0  0  0  0
  160.8140  204.8460  151.4100 C   0  0  0  0  0  0  0  0  0  0  0  0
  160.8520  206.1700  151.9050 N   0  0  0  0  0  0  0  0  0  0  0  0
  160.7380  204.5400  150.1010 C   0  0  1  0  0  3  0  0  0  0  0  0
  160.7640  204.9290  153.9720 C   0  0  0  0  0  2  0  0  0  0  0  0
  160.8200  203.6060  152.7020 S   0  0  0  0  0  0  0  0  0  0  0  0
  161.7370  209.9330  155.3280 C   0  0  1  0  0  3  0  0  0  0  0  0
  161.6790  208.6070  156.0520 C   0  0  0  0  0  0  0  0  0  0  0  0
  160.8490  209.9400  154.0670 C   0  0  1  0  0  3  0  0  0  0  0  0
  162.3190  208.4450  157.0790 O   0  0  0  0  0  0  0  0  0  0  0  0
  160.8620  207.4650  154.0130 C   0  0  0  0  0  0  0  0  0  0  0  0
  160.8470  207.4750  155.5190 C   0  0  0  0  0  2  0  0  0  0  0  0
  161.2740  211.0400  153.1130 C   0  0  0  0  0  1  0  0  0  0  0  0
  160.8740  208.6250  153.3440 C   0  0  0  0  0  3  0  0  0  0  0  0
  161.3020  211.0470  156.2720 C   0  0  0  0  0  2  0  0  0  0  0  0
  160.1810  210.6490  157.0010 O   0  0  0  0  0  0  0  0  0  0  0  0
  158.9060  213.5060  154.9800 S   0  0  0  0  0  0  0  0  0  0  0  0
  159.3380  211.7630  157.0010 C   0  0  2  0  0  3  0  0  0  0  0  0
  158.0430  211.4180  156.2810 C   0  0  1  0  0  3  0  0  0  0  0  0
  160.0180  212.9110  156.2800 C   0  0  2  0  0  3  0  0  0  0  0  0
  156.8560  211.9840  157.0400 C   0  0  0  0  0  1  0  0  0  0  0  0
  158.0730  211.9480  154.9250 N   0  0  0  0  0  2  0  0  0  0  0  0
  160.3020  214.0340  157.2610 C   0  0  0  0  0  1  0  0  0  0  0  0
  160.6880  203.1530  149.7350 N   0  0  0  0  0  0  0  0  0  0  0  0
  161.6330  202.5520  149.0850 C   0  0  0  0  0  3  0  0  0  0  0  0
  161.5120  201.1050  148.7440 C   0  0  0  0  0  2  0  0  0  0  0  0
  161.5470  199.9680  146.7440 N   0  0  0  0  0  2  0  0  0  0  0  0
  160.0740  200.7550  144.8910 C   0  0  0  0  0  2  0  0  0  0  0  0
  160.8340  200.9440  147.4670 N   0  0  0  0  0  0  0  0  0  0  0  0
  160.7310  199.5560  145.5960 C   0  0  0  0  0  2  0  0  0  0  0  0
  160.9630  202.2230  146.7600 C   0  0  0  0  0  2  0  0  0  0  0  0
  160.7840  202.0620  145.2410 C   0  0  2  0  0  3  0  0  0  0  0  0
  160.0590  203.2320  144.6650 C   0  0  0  0  0  0  0  0  0  0  0  0
  158.8950  203.1000  144.2000 O   0  0  0  0  0  0  0  0  0  0  0  0
  160.6750  204.4750  144.6360 O   0  0  0  0  0  1  0  0  0  0  0  0
  161.7270  205.9140  148.2520 C   0  0  0  0  0  3  0  0  0  0  0  0
  160.7000  205.5650  149.0220 C   0  0  0  0  0  3  0  0  0  0  0  0
  161.5640  206.9570  147.2020 C   0  0  0  0  0  2  0  0  0  0  0  0
  161.1730  208.2240  147.8130 N   0  0  0  0  0  2  0  0  0  0  0  0
  162.2660  208.7370  148.6380 C   0  0  2  0  0  3  0  0  0  0  0  0
  161.9080  208.7340  149.9890 O   0  0  0  0  0  1  0  0  0  0  0  0
  162.6250  210.0290  148.2400 O   0  0  0  0  0  0  0  0  0  0  0  0
  161.9630  210.8750  149.1320 C   0  0  0  0  0  2  0  0  0  0  0  0
  162.0570  212.1940  148.6840 O   0  0  0  0  0  0  0  0  0  0  0  0
  161.1630  212.2730  147.6100 C   0  0  2  0  0  3  0  0  0  0  0  0
  161.4990  213.5190  146.7660 C   0  0  0  0  0  0  0  0  0  0  0  0
  160.3620  214.3630  148.8940 C   0  0  0  0  0  1  0  0  0  0  0  0
  160.3040  213.4180  147.7030 C   0  0  2  0  0  0  0  0  0  0  0  0
  159.0940  213.3210  147.0180 O   0  0  0  0  0  1  0  0  0  0  0  0
  162.1960  214.1240  145.9690 O   0  0  0  0  0  0  0  0  0  0  0  0
  1  5  1  0  0  0  0
  1 11  1  0  0  0  0
  2  3  2  0  0  0  0
  2  6  1  0  0  0  0
  3  1  1  0  0  0  0
  4 37  1  1  0  0  0
  4  2  1  0  0  0  0
  6  5  1  0  0  0  0
  7  8  1  0  0  0  0
  7 15  1  1  0  0  0
  8 10  2  0  0  0  0
  9 13  1  6  0  0  0
  9  7  1  0  0  0  0
 11 12  1  0  0  0  0
 12  8  1  0  0  0  0
 14 11  2  0  0  0  0
 14  9  1  0  0  0  0
 15 16  1  0  0  0  0
 17 20  1  0  0  0  0
 18 16  1  6  0  0  0
 19 18  1  0  0  0  0
 19 21  1  1  0  0  0
 20 18  1  0  0  0  0
 20 23  1  1  0  0  0
 22 17  1  0  0  0  0
 22 19  1  0  0  0  0
 24  4  1  0  0  0  0
 25 24  2  0  0  0  0
 26 25  1  0  0  0  0
 27 29  1  0  0  0  0
 28 32  1  0  0  0  0
 28 30  1  0  0  0  0
 29 26  1  0  0  0  0
 30 27  1  0  0  0  0
 31 29  1  0  0  0  0
 32 33  1  1  0  0  0
 32 31  1  0  0  0  0
 34 33  2  0  0  0  0
 35 33  1  0  0  0  0
 36 37  2  0  0  0  0
 38 39  1  0  0  0  0
 38 36  1  0  0  0  0
 39 40  1  0  0  0  0
 40 41  1  1  0  0  0
 42 40  1  0  0  0  0
 42 43  1  0  0  0  0
 44 43  1  0  0  0  0
 45 48  1  0  0  0  0
 45 44  1  1  0  0  0
 46 45  1  0  0  0  0
 46 48  1  0  0  0  0
 48 47  1  1  0  0  0
 49 48  1  0  0  0  0
 50 46  2  0  0  0  0
M  END
>  <MODEL>
3

>  <REMARK>
 VINA RESULT:      -5.4      4.980     11.769
  Name = 
  16 active torsions:
  status: ('A' for Active; 'I' for Inactive)
    1  A    between atoms: C_1  and  C_11
    2  A    between atoms: N_2  and  C_25
    3  A    between atoms: N_4  and  C_5
    4  A    between atoms: N_4  and  C_18
    5  A    between atoms: C_5  and  O_29
    6  A    between atoms: C_6  and  O_39
    7  A    between atoms: C_7  and  C_18
    8  A    between atoms: N_8  and  C_40
    9  A    between atoms: C_11  and  O_48
   10  A    between atoms: C_13  and  C_45
   11  A    between atoms: C_16  and  O_29
   12  A    between atoms: C_16  and  O_39
   13  A    between atoms: C_19  and  C_25
   14  A    between atoms: C_22  and  O_48
   15  A    between atoms: C_23  and  N_32
   16  A    between atoms: C_23  and  C_43
                            x       y       z     vdW  Elec       q    Type
                         _______ _______ _______ _____ _____    ______ ____

>  <TORSDO>
F 16

$$$$
=
 OpenBabel11042422153D

 50 54  0  0  1  0  0  0  0  0999 V2000
  161.6160  208.3560  152.3960 N   0  0  0  0  0  0  0  0  0  0  0  0
  162.1150  208.1430  150.1230 C   0  0  0  0  0  0  0  0  0  0  0  0
  161.6780  209.0000  151.1600 N   0  0  0  0  0  0  0  0  0  0  0  0
  162.1820  208.5110  148.8290 C   0  0  1  0  0  3  0  0  0  0  0  0
  161.9750  206.9430  152.3840 C   0  0  0  0  0  2  0  0  0  0  0  0
  162.5190  206.4940  150.6890 S   0  0  0  0  0  0  0  0  0  0  0  0
  159.6400  210.6100  155.5120 C   0  0  1  0  0  3  0  0  0  0  0  0
  160.6220  211.2420  154.5530 C   0  0  0  0  0  0  0  0  0  0  0  0
  159.9130  209.1050  155.7070 C   0  0  1  0  0  3  0  0  0  0  0  0
  160.5470  212.4350  154.3010 O   0  0  0  0  0  0  0  0  0  0  0  0
  161.1840  209.0350  153.5840 C   0  0  0  0  0  0  0  0  0  0  0  0
  161.6910  210.4190  153.8920 C   0  0  0  0  0  2  0  0  0  0  0  0
  158.6850  208.3990  156.2500 C   0  0  0  0  0  1  0  0  0  0  0  0
  160.3440  208.4330  154.4350 C   0  0  0  0  0  3  0  0  0  0  0  0
  159.7090  211.3260  156.8550 C   0  0  0  0  0  2  0  0  0  0  0  0
  159.1140  212.5850  156.7590 O   0  0  0  0  0  0  0  0  0  0  0  0
  155.5660  213.6710  156.4310 S   0  0  0  0  0  0  0  0  0  0  0  0
  157.9080  212.3630  156.0910 C   0  0  2  0  0  3  0  0  0  0  0  0
  157.7310  213.4110  155.0030 C   0  0  1  0  0  3  0  0  0  0  0  0
  156.7570  212.4690  157.0750 C   0  0  2  0  0  3  0  0  0  0  0  0
  157.2010  212.7630  153.7360 C   0  0  0  0  0  1  0  0  0  0  0  0
  156.8190  214.4510  155.4570 N   0  0  0  0  0  2  0  0  0  0  0  0
  156.0860  211.1160  157.2230 C   0  0  0  0  0  1  0  0  0  0  0  0
  162.6270  207.5360  147.8740 N   0  0  0  0  0  0  0  0  0  0  0  0
  161.8990  206.5410  147.4770 C   0  0  0  0  0  3  0  0  0  0  0  0
  162.4290  205.5700  146.4770 C   0  0  0  0  0  2  0  0  0  0  0  0
  161.1580  203.7190  145.9730 N   0  0  0  0  0  2  0  0  0  0  0  0
  161.0150  201.8720  147.6410 C   0  0  0  0  0  2  0  0  0  0  0  0
  162.1140  204.2090  146.8840 N   0  0  0  0  0  0  0  0  0  0  0  0
  161.0470  202.2680  146.1560 C   0  0  0  0  0  2  0  0  0  0  0  0
  161.4840  204.3000  148.2050 C   0  0  0  0  0  2  0  0  0  0  0  0
  160.6350  203.0580  148.5250 C   0  0  2  0  0  3  0  0  0  0  0  0
  160.7410  202.7020  149.9700 C   0  0  0  0  0  0  0  0  0  0  0  0
  161.0830  203.5660  150.8210 O   0  0  0  0  0  1  0  0  0  0  0  0
  160.4650  201.4040  150.3790 O   0  0  0  0  0  0  0  0  0  0  0  0
  162.1510  211.0160  148.9340 C   0  0  0  0  0  3  0  0  0  0  0  0
  161.8180  209.8710  148.3440 C   0  0  0  0  0  3  0  0  0  0  0  0
  161.7250  212.3180  148.3510 C   0  0  0  0  0  2  0  0  0  0  0  0
  160.9960  212.0930  147.1070 N   0  0  0  0  0  2  0  0  0  0  0  0
  159.9260  213.0810  146.9700 C   0  0  2  0  0  3  0  0  0  0  0  0
  158.7950  212.6870  147.6890 O   0  0  0  0  0  1  0  0  0  0  0  0
  159.5970  213.2740  145.6240 O   0  0  0  0  0  0  0  0  0  0  0  0
  160.7090  212.8180  144.9150 C   0  0  0  0  0  2  0  0  0  0  0  0
  160.7100  213.3760  143.6350 O   0  0  0  0  0  0  0  0  0  0  0  0
  160.9730  212.3040  142.7760 C   0  0  2  0  0  3  0  0  0  0  0  0
  161.7010  212.8300  141.5230 C   0  0  0  0  0  0  0  0  0  0  0  0
  159.2530  213.5320  141.2950 C   0  0  0  0  0  1  0  0  0  0  0  0
  160.2410  212.4020  141.5470 C   0  0  2  0  0  0  0  0  0  0  0  0
  160.0250  211.1990  140.8760 O   0  0  0  0  0  1  0  0  0  0  0  0
  162.6870  213.2670  140.9530 O   0  0  0  0  0  0  0  0  0  0  0  0
  1 11  1  0  0  0  0
  2  6  1  0  0  0  0
  2  3  2  0  0  0  0
  3  1  1  0  0  0  0
  4 37  1  6  0  0  0
  4  2  1  0  0  0  0
  5  1  1  0  0  0  0
  6  5  1  0  0  0  0
  7  9  1  0  0  0  0
  7 15  1  1  0  0  0
  8  7  1  0  0  0  0
  9 13  1  6  0  0  0
 10  8  2  0  0  0  0
 11 12  1  0  0  0  0
 11 14  2  0  0  0  0
 12  8  1  0  0  0  0
 14  9  1  0  0  0  0
 16 15  1  0  0  0  0
 17 20  1  0  0  0  0
 18 16  1  1  0  0  0
 18 20  1  0  0  0  0
 19 21  1  6  0  0  0
 19 22  1  0  0  0  0
 19 18  1  0  0  0  0
 20 23  1  6  0  0  0
 22 17  1  0  0  0  0
 24  4  1  0  0  0  0
 25 24  2  0  0  0  0
 26 29  1  0  0  0  0
 26 25  1  0  0  0  0
 27 30  1  0  0  0  0
 27 29  1  0  0  0  0
 28 32  1  0  0  0  0
 29 31  1  0  0  0  0
 30 28  1  0  0  0  0
 31 32  1  0  0  0  0
 32 33  1  1  0  0  0
 33 35  2  0  0  0  0
 33 34  1  0  0  0  0
 37 36  2  0  0  0  0
 38 36  1  0  0  0  0
 39 38  1  0  0  0  0
 40 39  1  0  0  0  0
 40 41  1  1  0  0  0
 42 40  1  0  0  0  0
 43 42  1  0  0  0  0
 44 43  1  0  0  0  0
 45 44  1  1  0  0  0
 46 48  1  0  0  0  0
 46 45  1  0  0  0  0
 48 47  1  6  0  0  0
 48 45  1  0  0  0  0
 49 48  1  0  0  0  0
 50 46  2  0  0  0  0
M  END
>  <MODEL>
4

>  <REMARK>
 VINA RESULT:      -4.9      3.484     11.459
  Name = 
  16 active torsions:
  status: ('A' for Active; 'I' for Inactive)
    1  A    between atoms: C_1  and  C_11
    2  A    between atoms: N_2  and  C_25
    3  A    between atoms: N_4  and  C_5
    4  A    between atoms: N_4  and  C_18
    5  A    between atoms: C_5  and  O_29
    6  A    between atoms: C_6  and  O_39
    7  A    between atoms: C_7  and  C_18
    8  A    between atoms: N_8  and  C_40
    9  A    between atoms: C_11  and  O_48
   10  A    between atoms: C_13  and  C_45
   11  A    between atoms: C_16  and  O_29
   12  A    between atoms: C_16  and  O_39
   13  A    between atoms: C_19  and  C_25
   14  A    between atoms: C_22  and  O_48
   15  A    between atoms: C_23  and  N_32
   16  A    between atoms: C_23  and  C_43
                            x       y       z     vdW  Elec       q    Type
                         _______ _______ _______ _____ _____    ______ ____

>  <TORSDO>
F 16

$$$$
=
 OpenBabel11042422153D

 50 54  0  0  1  0  0  0  0  0999 V2000
  159.8250  213.5430  149.2180 N   0  0  0  0  0  0  0  0  0  0  0  0
  160.1730  212.3590  151.2030 C   0  0  0  0  0  0  0  0  0  0  0  0
  160.3650  212.3960  149.8020 N   0  0  0  0  0  0  0  0  0  0  0  0
  160.5370  211.3200  151.9790 C   0  0  1  0  0  3  0  0  0  0  0  0
  159.1500  214.4530  150.1360 C   0  0  0  0  0  2  0  0  0  0  0  0
  159.3450  213.8100  151.8440 S   0  0  0  0  0  0  0  0  0  0  0  0
  160.0470  213.4100  144.9020 C   0  0  1  0  0  3  0  0  0  0  0  0
  161.2790  213.4740  145.7760 C   0  0  0  0  0  0  0  0  0  0  0  0
  158.8200  214.0420  145.5900 C   0  0  1  0  0  3  0  0  0  0  0  0
  162.3390  213.0260  145.3680 O   0  0  0  0  0  0  0  0  0  0  0  0
  159.8940  213.7790  147.8050 C   0  0  0  0  0  0  0  0  0  0  0  0
  161.2170  214.0770  147.1510 C   0  0  0  0  0  2  0  0  0  0  0  0
  157.5320  213.5550  144.9540 C   0  0  0  0  0  1  0  0  0  0  0  0
  158.7790  213.7550  147.0630 C   0  0  0  0  0  3  0  0  0  0  0  0
  160.3210  214.1210  143.5830 C   0  0  0  0  0  2  0  0  0  0  0  0
  159.5600  213.5490  142.5620 O   0  0  0  0  0  0  0  0  0  0  0  0
  161.6500  211.3240  140.4260 S   0  0  0  0  0  0  0  0  0  0  0  0
  160.4170  213.4970  141.4600 C   0  0  2  0  0  3  0  0  0  0  0  0
  159.6520  212.9910  140.2470 C   0  0  1  0  0  3  0  0  0  0  0  0
  161.5650  212.5510  141.7560 C   0  0  2  0  0  3  0  0  0  0  0  0
  160.0240  213.8020  139.0190 C   0  0  0  0  0  1  0  0  0  0  0  0
  159.9460  211.5820  140.0270 N   0  0  0  0  0  2  0  0  0  0  0  0
  162.8670  213.3290  141.8150 C   0  0  0  0  0  1  0  0  0  0  0  0
  160.2680  211.4030  153.3860 N   0  0  0  0  0  0  0  0  0  0  0  0
  159.2030  210.9180  153.9400 C   0  0  0  0  0  3  0  0  0  0  0  0
  158.9940  211.0390  155.4110 C   0  0  0  0  0  2  0  0  0  0  0  0
  157.2030  211.6100  156.7370 N   0  0  0  0  0  2  0  0  0  0  0  0
  155.8610  213.6240  156.1370 C   0  0  0  0  0  2  0  0  0  0  0  0
  158.0240  212.0850  155.6970 N   0  0  0  0  0  0  0  0  0  0  0  0
  156.4220  212.7370  157.2610 C   0  0  0  0  0  2  0  0  0  0  0  0
  157.2000  212.2330  154.4930 C   0  0  0  0  0  2  0  0  0  0  0  0
  155.8410  212.8840  154.8010 C   0  0  2  0  0  3  0  0  0  0  0  0
  155.4260  213.7940  153.6940 C   0  0  0  0  0  0  0  0  0  0  0  0
  154.2080  214.0510  153.4980 O   0  0  0  0  0  1  0  0  0  0  0  0
  156.3900  214.3580  152.8700 O   0  0  0  0  0  0  0  0  0  0  0  0
  161.8960  209.2210  152.1700 C   0  0  0  0  0  3  0  0  0  0  0  0
  161.1970  210.0950  151.4490 C   0  0  0  0  0  3  0  0  0  0  0  0
  162.5120  208.0300  151.5230 C   0  0  0  0  0  2  0  0  0  0  0  0
  161.6680  207.5630  150.4280 N   0  0  0  0  0  2  0  0  0  0  0  0
  160.9080  206.3870  150.8500 C   0  0  2  0  0  3  0  0  0  0  0  0
  161.7530  205.4340  151.4260 O   0  0  0  0  0  1  0  0  0  0  0  0
  160.2190  205.8260  149.7700 O   0  0  0  0  0  0  0  0  0  0  0  0
  160.9240  206.2450  148.6400 C   0  0  0  0  0  2  0  0  0  0  0  0
  160.8330  205.2720  147.6430 O   0  0  0  0  0  0  0  0  0  0  0  0
  161.9030  205.5390  146.7820 C   0  0  2  0  0  3  0  0  0  0  0  0
  161.3830  205.5800  145.3310 C   0  0  0  0  0  0  0  0  0  0  0  0
  161.4290  203.1190  146.0220 C   0  0  0  0  0  1  0  0  0  0  0  0
  162.1920  204.4310  145.9170 C   0  0  2  0  0  0  0  0  0  0  0  0
  163.4920  204.3820  145.4160 O   0  0  0  0  0  1  0  0  0  0  0  0
  160.7780  206.1160  144.4180 O   0  0  0  0  0  0  0  0  0  0  0  0
  1  3  1  0  0  0  0
  1  5  1  0  0  0  0
  2  6  1  0  0  0  0
  2  4  1  0  0  0  0
  3  2  2  0  0  0  0
  4 37  1  6  0  0  0
  4 24  1  0  0  0  0
  5  6  1  0  0  0  0
  7 15  1  6  0  0  0
  7  9  1  0  0  0  0
  7  8  1  0  0  0  0
  8 12  1  0  0  0  0
  9 13  1  6  0  0  0
  9 14  1  0  0  0  0
 10  8  2  0  0  0  0
 11  1  1  0  0  0  0
 12 11  1  0  0  0  0
 14 11  2  0  0  0  0
 16 15  1  0  0  0  0
 17 20  1  0  0  0  0
 18 20  1  0  0  0  0
 18 16  1  1  0  0  0
 19 21  1  6  0  0  0
 19 18  1  0  0  0  0
 20 23  1  6  0  0  0
 22 19  1  0  0  0  0
 22 17  1  0  0  0  0
 24 25  2  0  0  0  0
 25 26  1  0  0  0  0
 26 29  1  0  0  0  0
 27 30  1  0  0  0  0
 28 30  1  0  0  0  0
 29 27  1  0  0  0  0
 31 32  1  0  0  0  0
 31 29  1  0  0  0  0
 32 33  1  6  0  0  0
 32 28  1  0  0  0  0
 34 33  1  0  0  0  0
 35 33  2  0  0  0  0
 37 36  2  0  0  0  0
 38 36  1  0  0  0  0
 39 40  1  0  0  0  0
 39 38  1  0  0  0  0
 40 41  1  6  0  0  0
 42 40  1  0  0  0  0
 43 42  1  0  0  0  0
 44 43  1  0  0  0  0
 45 44  1  1  0  0  0
 46 48  1  0  0  0  0
 46 45  1  0  0  0  0
 48 47  1  1  0  0  0
 48 45  1  0  0  0  0
 49 48  1  0  0  0  0
 50 46  2  0  0  0  0
M  END
>  <MODEL>
5

>  <REMARK>
 VINA RESULT:      -4.9      3.598      4.706
  Name = 
  16 active torsions:
  status: ('A' for Active; 'I' for Inactive)
    1  A    between atoms: C_1  and  C_11
    2  A    between atoms: N_2  and  C_25
    3  A    between atoms: N_4  and  C_5
    4  A    between atoms: N_4  and  C_18
    5  A    between atoms: C_5  and  O_29
    6  A    between atoms: C_6  and  O_39
    7  A    between atoms: C_7  and  C_18
    8  A    between atoms: N_8  and  C_40
    9  A    between atoms: C_11  and  O_48
   10  A    between atoms: C_13  and  C_45
   11  A    between atoms: C_16  and  O_29
   12  A    between atoms: C_16  and  O_39
   13  A    between atoms: C_19  and  C_25
   14  A    between atoms: C_22  and  O_48
   15  A    between atoms: C_23  and  N_32
   16  A    between atoms: C_23  and  C_43
                            x       y       z     vdW  Elec       q    Type
                         _______ _______ _______ _____ _____    ______ ____

>  <TORSDO>
F 16

$$$$
=
 OpenBabel11042422153D

 50 54  0  0  1  0  0  0  0  0999 V2000
  161.6870  207.6730  152.5730 N   0  0  0  0  0  0  0  0  0  0  0  0
  162.3830  207.3630  150.3640 C   0  0  0  0  0  0  0  0  0  0  0  0
  161.9010  208.2740  151.3320 N   0  0  0  0  0  0  0  0  0  0  0  0
  162.5930  207.6860  149.0730 C   0  0  1  0  0  3  0  0  0  0  0  0
  161.9630  206.2430  152.6310 C   0  0  0  0  0  2  0  0  0  0  0  0
  162.6370  205.7120  151.0090 S   0  0  0  0  0  0  0  0  0  0  0  0
  160.6820  209.3950  156.4100 C   0  0  1  0  0  3  0  0  0  0  0  0
  159.9070  208.2450  155.8100 C   0  0  0  0  0  0  0  0  0  0  0  0
  161.3500  210.2670  155.3270 C   0  0  1  0  0  3  0  0  0  0  0  0
  159.3090  207.4670  156.5380 O   0  0  0  0  0  0  0  0  0  0  0  0
  161.1850  208.4110  153.6960 C   0  0  0  0  0  0  0  0  0  0  0  0
  159.8690  208.0360  154.3220 C   0  0  0  0  0  2  0  0  0  0  0  0
  162.4830  211.0860  155.9140 C   0  0  0  0  0  1  0  0  0  0  0  0
  161.8760  209.4510  154.1810 C   0  0  0  0  0  3  0  0  0  0  0  0
  159.7490  210.2500  157.2570 C   0  0  0  0  0  2  0  0  0  0  0  0
  160.0910  211.5990  157.1370 O   0  0  0  0  0  0  0  0  0  0  0  0
  157.8050  212.3670  154.2970 S   0  0  0  0  0  0  0  0  0  0  0  0
  158.9060  212.2370  156.7640 C   0  0  2  0  0  3  0  0  0  0  0  0
  157.7950  211.2070  156.6320 C   0  0  1  0  0  3  0  0  0  0  0  0
  159.1020  212.9300  155.4280 C   0  0  2  0  0  3  0  0  0  0  0  0
  156.5120  211.7400  157.2470 C   0  0  0  0  0  1  0  0  0  0  0  0
  157.5830  210.8810  155.2290 N   0  0  0  0  0  2  0  0  0  0  0  0
  159.0010  214.4330  155.6120 C   0  0  0  0  0  1  0  0  0  0  0  0
  163.0680  206.6580  148.1910 N   0  0  0  0  0  0  0  0  0  0  0  0
  162.3110  206.0390  147.3430 C   0  0  0  0  0  3  0  0  0  0  0  0
  162.8790  204.9850  146.4540 C   0  0  0  0  0  2  0  0  0  0  0  0
  161.0580  203.7800  145.7290 N   0  0  0  0  0  2  0  0  0  0  0  0
  160.3630  201.7630  147.0200 C   0  0  0  0  0  2  0  0  0  0  0  0
  162.1470  203.7390  146.6210 N   0  0  0  0  0  0  0  0  0  0  0  0
  160.4820  202.4330  145.6410 C   0  0  0  0  0  2  0  0  0  0  0  0
  161.6180  203.7420  147.9890 C   0  0  0  0  0  2  0  0  0  0  0  0
  160.4180  202.7940  148.1450 C   0  0  2  0  0  3  0  0  0  0  0  0
  160.4410  202.1250  149.4790 C   0  0  0  0  0  0  0  0  0  0  0  0
  160.2910  200.8770  149.5740 O   0  0  0  0  0  0  0  0  0  0  0  0
  160.6220  202.8860  150.6260 O   0  0  0  0  0  1  0  0  0  0  0  0
  162.4280  210.1840  149.2090 C   0  0  0  0  0  3  0  0  0  0  0  0
  162.3540  209.0480  148.5210 C   0  0  0  0  0  3  0  0  0  0  0  0
  162.1660  211.4890  148.5430 C   0  0  0  0  0  2  0  0  0  0  0  0
  161.0950  211.3440  147.5630 N   0  0  0  0  0  2  0  0  0  0  0  0
  161.3470  212.2140  146.4150 C   0  0  2  0  0  3  0  0  0  0  0  0
  162.2050  213.2600  146.7670 O   0  0  0  0  0  1  0  0  0  0  0  0
  160.1490  212.7250  145.9050 O   0  0  0  0  0  0  0  0  0  0  0  0
  160.5390  213.6230  144.9090 C   0  0  0  0  0  2  0  0  0  0  0  0
  161.2050  212.9350  143.8930 O   0  0  0  0  0  0  0  0  0  0  0  0
  160.2430  212.7470  142.8950 C   0  0  2  0  0  3  0  0  0  0  0  0
  160.8240  211.8270  141.8030 C   0  0  0  0  0  0  0  0  0  0  0  0
  161.9370  214.1090  141.5040 C   0  0  0  0  0  1  0  0  0  0  0  0
  160.6380  213.3290  141.6450 C   0  0  2  0  0  0  0  0  0  0  0  0
  159.5970  213.6500  140.7750 O   0  0  0  0  0  1  0  0  0  0  0  0
  161.1750  210.7340  141.3890 O   0  0  0  0  0  0  0  0  0  0  0  0
  1  5  1  0  0  0  0
  1 11  1  0  0  0  0
  2  6  1  0  0  0  0
  2  3  2  0  0  0  0
  3  1  1  0  0  0  0
  4 37  1  6  0  0  0
  4  2  1  0  0  0  0
  6  5  1  0  0  0  0
  7 15  1  6  0  0  0
  8  7  1  0  0  0  0
  8 10  2  0  0  0  0
  9 13  1  1  0  0  0
  9  7  1  0  0  0  0
 11 14  2  0  0  0  0
 11 12  1  0  0  0  0
 12  8  1  0  0  0  0
 14  9  1  0  0  0  0
 16 15  1  0  0  0  0
 17 22  1  0  0  0  0
 17 20  1  0  0  0  0
 18 16  1  6  0  0  0
 19 18  1  0  0  0  0
 19 21  1  6  0  0  0
 20 23  1  1  0  0  0
 20 18  1  0  0  0  0
 22 19  1  0  0  0  0
 24  4  1  0  0  0  0
 25 24  2  0  0  0  0
 26 29  1  0  0  0  0
 26 25  1  0  0  0  0
 27 29  1  0  0  0  0
 28 32  1  0  0  0  0
 29 31  1  0  0  0  0
 30 27  1  0  0  0  0
 30 28  1  0  0  0  0
 31 32  1  0  0  0  0
 32 33  1  1  0  0  0
 33 34  2  0  0  0  0
 33 35  1  0  0  0  0
 37 36  2  0  0  0  0
 38 36  1  0  0  0  0
 39 38  1  0  0  0  0
 40 41  1  1  0  0  0
 40 39  1  0  0  0  0
 42 40  1  0  0  0  0
 43 42  1  0  0  0  0
 44 43  1  0  0  0  0
 45 44  1  1  0  0  0
 46 45  1  0  0  0  0
 48 47  1  6  0  0  0
 48 46  1  0  0  0  0
 48 45  1  0  0  0  0
 49 48  1  0  0  0  0
 50 46  2  0  0  0  0
M  END
>  <MODEL>
6

>  <REMARK>
 VINA RESULT:      -3.7      3.390     11.671
  Name = 
  16 active torsions:
  status: ('A' for Active; 'I' for Inactive)
    1  A    between atoms: C_1  and  C_11
    2  A    between atoms: N_2  and  C_25
    3  A    between atoms: N_4  and  C_5
    4  A    between atoms: N_4  and  C_18
    5  A    between atoms: C_5  and  O_29
    6  A    between atoms: C_6  and  O_39
    7  A    between atoms: C_7  and  C_18
    8  A    between atoms: N_8  and  C_40
    9  A    between atoms: C_11  and  O_48
   10  A    between atoms: C_13  and  C_45
   11  A    between atoms: C_16  and  O_29
   12  A    between atoms: C_16  and  O_39
   13  A    between atoms: C_19  and  C_25
   14  A    between atoms: C_22  and  O_48
   15  A    between atoms: C_23  and  N_32
   16  A    between atoms: C_23  and  C_43
                            x       y       z     vdW  Elec       q    Type
                         _______ _______ _______ _____ _____    ______ ____

>  <TORSDO>
F 16

$$$$
=
 OpenBabel11042422153D

 50 54  0  0  1  0  0  0  0  0999 V2000
  160.8930  207.3000  152.8550 N   0  0  0  0  0  0  0  0  0  0  0  0
  161.1870  205.5640  151.3180 C   0  0  0  0  0  0  0  0  0  0  0  0
  160.8750  206.9300  151.5090 N   0  0  0  0  0  0  0  0  0  0  0  0
  161.1590  204.9520  150.1180 C   0  0  1  0  0  3  0  0  0  0  0  0
  161.1920  206.2260  153.7940 C   0  0  0  0  0  2  0  0  0  0  0  0
  161.5710  204.7040  152.8410 S   0  0  0  0  0  0  0  0  0  0  0  0
  160.8210  211.4470  154.0770 C   0  0  1  0  0  3  0  0  0  0  0  0
  160.9370  210.3110  155.0680 C   0  0  0  0  0  0  0  0  0  0  0  0
  160.0980  211.0130  152.7860 C   0  0  1  0  0  3  0  0  0  0  0  0
  161.4750  210.4980  156.1480 O   0  0  0  0  0  0  0  0  0  0  0  0
  160.5920  208.6370  153.2770 C   0  0  0  0  0  0  0  0  0  0  0  0
  160.4040  208.9450  154.7390 C   0  0  0  0  0  2  0  0  0  0  0  0
  160.4090  211.9630  151.6460 C   0  0  0  0  0  1  0  0  0  0  0  0
  160.4570  209.6150  152.3720 C   0  0  0  0  0  3  0  0  0  0  0  0
  160.0760  212.6090  154.7200 C   0  0  0  0  0  2  0  0  0  0  0  0
  158.9360  212.1440  155.3780 O   0  0  0  0  0  0  0  0  0  0  0  0
  155.5160  213.0180  154.1870 S   0  0  0  0  0  0  0  0  0  0  0  0
  158.0000  213.1730  155.2440 C   0  0  2  0  0  3  0  0  0  0  0  0
  156.9660  213.0630  156.3540 C   0  0  1  0  0  3  0  0  0  0  0  0
  157.3040  213.0520  153.9010 C   0  0  2  0  0  3  0  0  0  0  0  0
  156.6550  214.4390  156.9160 C   0  0  0  0  0  1  0  0  0  0  0  0
  155.7520  212.4420  155.8420 N   0  0  0  0  0  2  0  0  0  0  0  0
  157.6590  214.2450  153.0340 C   0  0  0  0  0  1  0  0  0  0  0  0
  161.4810  203.5550  150.0670 N   0  0  0  0  0  0  0  0  0  0  0  0
  160.6540  202.6460  149.6560 C   0  0  0  0  0  3  0  0  0  0  0  0
  161.0620  201.2120  149.6270 C   0  0  0  0  0  2  0  0  0  0  0  0
  161.9980  199.9840  147.9220 N   0  0  0  0  0  2  0  0  0  0  0  0
  160.8160  199.8810  145.7280 C   0  0  0  0  0  2  0  0  0  0  0  0
  160.8180  200.6470  148.3090 N   0  0  0  0  0  0  0  0  0  0  0  0
  161.6960  199.1480  146.7540 C   0  0  0  0  0  2  0  0  0  0  0  0
  160.6090  201.7790  147.3990 C   0  0  0  0  0  2  0  0  0  0  0  0
  160.8680  201.3940  145.9330 C   0  0  2  0  0  3  0  0  0  0  0  0
  159.9070  202.0880  145.0260 C   0  0  0  0  0  0  0  0  0  0  0  0
  159.9460  203.3390  144.8850 O   0  0  0  0  0  1  0  0  0  0  0  0
  158.9570  201.3460  144.3360 O   0  0  0  0  0  0  0  0  0  0  0  0
  161.4740  205.5480  147.7030 C   0  0  0  0  0  3  0  0  0  0  0  0
  160.8100  205.6520  148.8510 C   0  0  0  0  0  3  0  0  0  0  0  0
  161.0260  206.3010  146.4990 C   0  0  0  0  0  2  0  0  0  0  0  0
  162.0120  206.1700  145.4320 N   0  0  0  0  0  2  0  0  0  0  0  0
  161.3730  205.6510  144.2230 C   0  0  2  0  0  3  0  0  0  0  0  0
  161.9670  204.4490  143.8280 O   0  0  0  0  0  1  0  0  0  0  0  0
  161.4420  206.5850  143.1840 O   0  0  0  0  0  0  0  0  0  0  0  0
  162.0720  205.9100  142.1370 C   0  0  0  0  0  2  0  0  0  0  0  0
  162.5520  206.8310  141.2060 O   0  0  0  0  0  0  0  0  0  0  0  0
  161.5440  206.9240  140.2390 C   0  0  2  0  0  3  0  0  0  0  0  0
  162.1920  207.0620  138.8480 C   0  0  0  0  0  0  0  0  0  0  0  0
  162.4760  209.3200  140.0130 C   0  0  0  0  0  1  0  0  0  0  0  0
  161.5250  208.2070  139.5970 C   0  0  2  0  0  0  0  0  0  0  0  0
  160.3070  208.5790  139.0300 O   0  0  0  0  0  1  0  0  0  0  0  0
  162.7910  206.6060  137.8880 O   0  0  0  0  0  0  0  0  0  0  0  0
  1 11  1  0  0  0  0
  1  5  1  0  0  0  0
  2  3  2  0  0  0  0
  2  6  1  0  0  0  0
  3  1  1  0  0  0  0
  4 37  1  1  0  0  0
  4  2  1  0  0  0  0
  6  5  1  0  0  0  0
  7 15  1  1  0  0  0
  7  8  1  0  0  0  0
  8 10  2  0  0  0  0
  9 13  1  6  0  0  0
  9  7  1  0  0  0  0
 11 12  1  0  0  0  0
 12  8  1  0  0  0  0
 14  9  1  0  0  0  0
 14 11  2  0  0  0  0
 15 16  1  0  0  0  0
 17 22  1  0  0  0  0
 18 16  1  1  0  0  0
 18 19  1  0  0  0  0
 19 21  1  6  0  0  0
 20 23  1  6  0  0  0
 20 17  1  0  0  0  0
 20 18  1  0  0  0  0
 22 19  1  0  0  0  0
 24  4  1  0  0  0  0
 25 24  2  0  0  0  0
 26 25  1  0  0  0  0
 27 29  1  0  0  0  0
 28 32  1  0  0  0  0
 28 30  1  0  0  0  0
 29 26  1  0  0  0  0
 30 27  1  0  0  0  0
 31 29  1  0  0  0  0
 32 33  1  6  0  0  0
 32 31  1  0  0  0  0
 34 33  1  0  0  0  0
 35 33  2  0  0  0  0
 36 37  2  0  0  0  0
 38 36  1  0  0  0  0
 39 38  1  0  0  0  0
 40 41  1  6  0  0  0
 40 39  1  0  0  0  0
 42 40  1  0  0  0  0
 43 42  1  0  0  0  0
 44 43  1  0  0  0  0
 45 44  1  1  0  0  0
 46 48  1  0  0  0  0
 46 45  1  0  0  0  0
 48 47  1  1  0  0  0
 48 45  1  0  0  0  0
 49 48  1  0  0  0  0
 50 46  2  0  0  0  0
M  END
>  <MODEL>
7

>  <REMARK>
 VINA RESULT:      -3.4      5.124     11.231
  Name = 
  16 active torsions:
  status: ('A' for Active; 'I' for Inactive)
    1  A    between atoms: C_1  and  C_11
    2  A    between atoms: N_2  and  C_25
    3  A    between atoms: N_4  and  C_5
    4  A    between atoms: N_4  and  C_18
    5  A    between atoms: C_5  and  O_29
    6  A    between atoms: C_6  and  O_39
    7  A    between atoms: C_7  and  C_18
    8  A    between atoms: N_8  and  C_40
    9  A    between atoms: C_11  and  O_48
   10  A    between atoms: C_13  and  C_45
   11  A    between atoms: C_16  and  O_29
   12  A    between atoms: C_16  and  O_39
   13  A    between atoms: C_19  and  C_25
   14  A    between atoms: C_22  and  O_48
   15  A    between atoms: C_23  and  N_32
   16  A    between atoms: C_23  and  C_43
                            x       y       z     vdW  Elec       q    Type
                         _______ _______ _______ _____ _____    ______ ____

>  <TORSDO>
F 16

$$$$
