=
 OpenBabel11052409433D

 31 34  0  0  1  0  0  0  0  0999 V2000
  160.7990  204.2900  151.1990 C   0  0  0  0  0  2  0  0  0  0  0  0
  160.3980  204.5980  149.8970 O   0  0  0  0  0  0  0  0  0  0  0  0
  161.1150  203.7170  149.0800 C   0  0  2  0  0  3  0  0  0  0  0  0
  160.7500  205.2450  147.1760 C   0  0  0  0  0  3  0  0  0  0  0  0
  161.5680  204.4100  147.8290 C   0  0  0  0  0  0  0  0  0  0  0  0
  161.1370  205.9820  145.9160 C   0  0  0  0  0  0  0  0  0  0  0  0
  160.9670  205.6490  143.4250 N   0  0  0  0  0  1  0  0  0  0  0  0
  162.5500  205.6520  145.3600 C   0  0  0  0  0  0  0  0  0  0  0  0
  162.9030  204.1080  147.3030 C   0  0  0  0  0  3  0  0  0  0  0  0
  161.3030  205.0670  144.7120 C   0  0  1  0  0  0  0  0  0  0  0  0
  161.0810  203.6920  144.8580 O   0  0  0  0  0  1  0  0  0  0  0  0
  163.3460  204.6580  146.1760 C   0  0  0  0  0  3  0  0  0  0  0  0
  160.2550  202.5020  148.7550 C   0  0  0  0  0  2  0  0  0  0  0  0
  161.4390  200.4450  147.9860 O   0  0  0  0  0  0  0  0  0  0  0  0
  160.9960  201.2370  149.0380 C   0  0  0  0  0  0  0  0  0  0  0  0
  161.2440  200.9040  150.2260 O   0  0  0  0  0  1  0  0  0  0  0  0
  161.9220  205.2220  151.6350 C   0  0  0  0  0  2  0  0  0  0  0  0
  161.4030  206.3110  152.5650 C   0  0  0  0  0  2  0  0  0  0  0  0
  161.8970  207.6090  152.1420 N   0  0  0  0  0  0  0  0  0  0  0  0
  160.7590  208.5390  152.2350 C   0  0  2  0  0  3  0  0  0  0  0  0
  161.1450  207.9670  150.9300 C   0  0  1  0  0  3  0  0  0  0  0  0
  162.0030  210.0910  153.7160 O   0  0  0  0  0  0  0  0  0  0  0  0
  159.2980  210.5840  155.9860 O   0  0  0  0  0  0  0  0  0  0  0  0
  162.0370  209.8670  156.0930 C   0  0  0  0  0  1  0  0  0  0  0  0
  159.9350  210.4870  154.9040 C   0  0  0  0  0  0  0  0  0  0  0  0
  161.2160  209.7030  154.8270 C   0  0  1  0  0  3  0  0  0  0  0  0
  160.1340  210.9980  152.4550 C   0  0  0  0  0  2  0  0  0  0  0  0
  161.2630  209.9670  152.5130 C   0  0  2  0  0  3  0  0  0  0  0  0
  159.3790  211.0240  153.7050 N   0  0  0  0  0  2  0  0  0  0  0  0
  162.2690  208.1600  148.7200 C   0  0  0  0  0  1  0  0  0  0  0  0
  162.0170  208.8510  150.0450 C   0  0  0  0  0  2  0  0  0  0  0  0
  1 17  1  0  0  0  0
  2  1  1  0  0  0  0
  3 13  1  6  0  0  0
  3  2  1  0  0  0  0
  4  5  1  0  0  0  0
  5  3  1  0  0  0  0
  6  4  2  3  0  0  0
  8  6  1  0  0  0  0
  8 12  2  3  0  0  0
  9  5  2  0  0  0  0
 10  7  1  6  0  0  0
 10 11  1  0  0  0  0
 10  8  1  0  0  0  0
 10  6  1  0  0  0  0
 12  9  1  0  0  0  0
 13 15  1  0  0  0  0
 14 15  2  0  0  0  0
 15 16  1  0  0  0  0
 17 18  1  0  0  0  0
 19 18  1  0  0  0  0
 20 19  1  1  0  0  0
 20 28  1  0  0  0  0
 21 31  1  6  0  0  0
 21 19  1  0  0  0  0
 21 20  1  0  0  0  0
 22 26  1  0  0  0  0
 25 23  2  0  0  0  0
 26 25  1  0  0  0  0
 26 24  1  1  0  0  0
 27 29  1  0  0  0  0
 28 27  1  1  0  0  0
 28 22  1  0  0  0  0
 29 25  1  0  0  0  0
 30 31  1  0  0  0  0
M  END
>  <MODEL>
1

>  <REMARK>
 VINA RESULT:      -7.3      0.000      0.000
  Name = 
  10 active torsions:
  status: ('A' for Active; 'I' for Inactive)
    1  A    between atoms: C_4  and  C_16
    2  A    between atoms: N_5  and  C_31
    3  A    between atoms: O_6  and  C_9
    4  A    between atoms: O_6  and  C_22
    5  A    between atoms: C_8  and  C_25
    6  A    between atoms: C_9  and  C_29
    7  A    between atoms: C_11  and  C_22
    8  A    between atoms: C_16  and  C_22
    9  A    between atoms: C_21  and  C_27
   10  A    between atoms: C_29  and  C_31
                            x       y       z     vdW  Elec       q    Type
                         _______ _______ _______ _____ _____    ______ ____

>  <TORSDO>
F 10

$$$$
=
 OpenBabel11052409433D

 31 34  0  0  1  0  0  0  0  0999 V2000
  161.9760  207.8820  150.4560 C   0  0  0  0  0  2  0  0  0  0  0  0
  161.1160  207.1930  149.5980 O   0  0  0  0  0  0  0  0  0  0  0  0
  161.5310  205.8590  149.6650 C   0  0  2  0  0  3  0  0  0  0  0  0
  162.3150  206.0330  147.3310 C   0  0  0  0  0  3  0  0  0  0  0  0
  161.7300  205.3010  148.2870 C   0  0  0  0  0  0  0  0  0  0  0  0
  162.5540  205.5370  145.9250 C   0  0  0  0  0  0  0  0  0  0  0  0
  161.3830  205.5940  143.6950 N   0  0  0  0  0  1  0  0  0  0  0  0
  162.0010  204.1190  145.6160 C   0  0  0  0  0  0  0  0  0  0  0  0
  161.2160  203.9600  147.9910 C   0  0  0  0  0  3  0  0  0  0  0  0
  161.2720  205.3610  145.1240 C   0  0  1  0  0  0  0  0  0  0  0  0
  160.0430  205.6700  145.7180 O   0  0  0  0  0  1  0  0  0  0  0  0
  161.3240  203.4260  146.7770 C   0  0  0  0  0  3  0  0  0  0  0  0
  160.5100  205.0410  150.4470 C   0  0  0  0  0  2  0  0  0  0  0  0
  161.2830  205.0980  152.8180 O   0  0  0  0  0  1  0  0  0  0  0  0
  161.1480  204.3910  151.6300 C   0  0  0  0  0  0  0  0  0  0  0  0
  161.5360  203.1960  151.5590 O   0  0  0  0  0  0  0  0  0  0  0  0
  161.1830  208.8360  151.3390 C   0  0  0  0  0  2  0  0  0  0  0  0
  162.0680  209.9550  151.8730 C   0  0  0  0  0  2  0  0  0  0  0  0
  161.2900  210.8520  152.7090 N   0  0  0  0  0  0  0  0  0  0  0  0
  160.4070  210.0040  153.5250 C   0  0  2  0  0  3  0  0  0  0  0  0
  159.8840  210.6740  152.3190 C   0  0  1  0  0  3  0  0  0  0  0  0
  161.2330  211.2270  155.5170 O   0  0  0  0  0  0  0  0  0  0  0  0
  162.2880  208.3020  157.2610 O   0  0  0  0  0  0  0  0  0  0  0  0
  163.3680  210.8080  156.5030 C   0  0  0  0  0  1  0  0  0  0  0  0
  161.5650  209.0880  156.5950 C   0  0  0  0  0  0  0  0  0  0  0  0
  162.1730  210.2040  155.7890 C   0  0  1  0  0  3  0  0  0  0  0  0
  159.2910  209.7970  155.8050 C   0  0  0  0  0  2  0  0  0  0  0  0
  160.0920  210.6970  154.8640 C   0  0  2  0  0  3  0  0  0  0  0  0
  160.1610  208.8540  156.5010 N   0  0  0  0  0  2  0  0  0  0  0  0
  159.6280  213.0380  151.5890 C   0  0  0  0  0  1  0  0  0  0  0  0
  159.1320  211.9800  152.5540 C   0  0  0  0  0  2  0  0  0  0  0  0
  1 17  1  0  0  0  0
  2  3  1  0  0  0  0
  2  1  1  0  0  0  0
  3 13  1  6  0  0  0
  4  5  1  0  0  0  0
  5  3  1  0  0  0  0
  6  4  2  3  0  0  0
  8  6  1  0  0  0  0
  8 12  2  3  0  0  0
  9  5  2  0  0  0  0
 10  7  1  6  0  0  0
 10  8  1  0  0  0  0
 10 11  1  0  0  0  0
 10  6  1  0  0  0  0
 12  9  1  0  0  0  0
 13 15  1  0  0  0  0
 15 14  1  0  0  0  0
 16 15  2  0  0  0  0
 17 18  1  0  0  0  0
 18 19  1  0  0  0  0
 20 19  1  6  0  0  0
 20 28  1  0  0  0  0
 21 31  1  1  0  0  0
 21 19  1  0  0  0  0
 21 20  1  0  0  0  0
 22 26  1  0  0  0  0
 25 23  2  0  0  0  0
 26 24  1  1  0  0  0
 26 25  1  0  0  0  0
 27 29  1  0  0  0  0
 28 22  1  0  0  0  0
 28 27  1  1  0  0  0
 29 25  1  0  0  0  0
 30 31  1  0  0  0  0
M  END
>  <MODEL>
2

>  <REMARK>
 VINA RESULT:      -7.0      1.825      3.186
  Name = 
  10 active torsions:
  status: ('A' for Active; 'I' for Inactive)
    1  A    between atoms: C_4  and  C_16
    2  A    between atoms: N_5  and  C_31
    3  A    between atoms: O_6  and  C_9
    4  A    between atoms: O_6  and  C_22
    5  A    between atoms: C_8  and  C_25
    6  A    between atoms: C_9  and  C_29
    7  A    between atoms: C_11  and  C_22
    8  A    between atoms: C_16  and  C_22
    9  A    between atoms: C_21  and  C_27
   10  A    between atoms: C_29  and  C_31
                            x       y       z     vdW  Elec       q    Type
                         _______ _______ _______ _____ _____    ______ ____

>  <TORSDO>
F 10

$$$$
=
 OpenBabel11052409433D

 31 34  0  0  1  0  0  0  0  0999 V2000
  161.7030  206.6940  152.0180 C   0  0  0  0  0  2  0  0  0  0  0  0
  160.8040  206.3490  151.0060 O   0  0  0  0  0  0  0  0  0  0  0  0
  161.1980  207.1060  149.8990 C   0  0  2  0  0  3  0  0  0  0  0  0
  162.1660  206.6800  147.6680 C   0  0  0  0  0  3  0  0  0  0  0  0
  161.5000  206.2130  148.7310 C   0  0  0  0  0  0  0  0  0  0  0  0
  162.5100  205.8400  146.4610 C   0  0  0  0  0  0  0  0  0  0  0  0
  161.5200  205.3070  144.2060 N   0  0  0  0  0  1  0  0  0  0  0  0
  161.9680  204.3850  146.4860 C   0  0  0  0  0  0  0  0  0  0  0  0
  160.9960  204.8360  148.7520 C   0  0  0  0  0  3  0  0  0  0  0  0
  161.2940  205.4500  145.6340 C   0  0  1  0  0  0  0  0  0  0  0  0
  160.0250  205.8900  146.0290 O   0  0  0  0  0  1  0  0  0  0  0  0
  161.1940  204.0090  147.7300 C   0  0  0  0  0  3  0  0  0  0  0  0
  162.4060  207.9610  150.2630 C   0  0  0  0  0  2  0  0  0  0  0  0
  162.1030  210.3080  151.0520 O   0  0  0  0  0  1  0  0  0  0  0  0
  162.1330  209.4040  149.9970 C   0  0  0  0  0  0  0  0  0  0  0  0
  161.9570  209.8060  148.8170 O   0  0  0  0  0  0  0  0  0  0  0  0
  160.9570  206.9280  153.3240 C   0  0  0  0  0  2  0  0  0  0  0  0
  160.8760  208.4130  153.6530 C   0  0  0  0  0  2  0  0  0  0  0  0
  160.3750  208.6010  155.0030 N   0  0  0  0  0  0  0  0  0  0  0  0
  160.8880  209.9030  155.4610 C   0  0  2  0  0  3  0  0  0  0  0  0
  161.5520  208.6550  155.8820 C   0  0  1  0  0  3  0  0  0  0  0  0
  158.5950  210.6740  156.0070 O   0  0  0  0  0  0  0  0  0  0  0  0
  158.9390  213.8350  154.3950 O   0  0  0  0  0  0  0  0  0  0  0  0
  157.1350  211.6510  154.3890 C   0  0  0  0  0  1  0  0  0  0  0  0
  159.1990  212.8420  155.1240 C   0  0  0  0  0  0  0  0  0  0  0  0
  158.5710  211.5000  154.8590 C   0  0  1  0  0  3  0  0  0  0  0  0
  160.4500  211.8410  157.0550 C   0  0  0  0  0  2  0  0  0  0  0  0
  159.9210  210.5240  156.4870 C   0  0  2  0  0  3  0  0  0  0  0  0
  160.1910  212.9510  156.1430 N   0  0  0  0  0  2  0  0  0  0  0  0
  160.2620  206.9220  157.1140 C   0  0  0  0  0  1  0  0  0  0  0  0
  161.1700  208.1270  157.2610 C   0  0  0  0  0  2  0  0  0  0  0  0
  1 17  1  0  0  0  0
  2  1  1  0  0  0  0
  3 13  1  1  0  0  0
  3  2  1  0  0  0  0
  4  5  1  0  0  0  0
  5  9  2  0  0  0  0
  5  3  1  0  0  0  0
  6  8  1  0  0  0  0
  6  4  2  3  0  0  0
  8 12  2  3  0  0  0
 10  7  1  6  0  0  0
 10 11  1  0  0  0  0
 10  6  1  0  0  0  0
 10  8  1  0  0  0  0
 12  9  1  0  0  0  0
 15 13  1  0  0  0  0
 15 14  1  0  0  0  0
 16 15  2  0  0  0  0
 17 18  1  0  0  0  0
 18 19  1  0  0  0  0
 19 21  1  0  0  0  0
 20 19  1  6  0  0  0
 20 21  1  0  0  0  0
 20 28  1  0  0  0  0
 21 31  1  1  0  0  0
 22 28  1  0  0  0  0
 23 25  2  0  0  0  0
 25 29  1  0  0  0  0
 26 24  1  1  0  0  0
 26 25  1  0  0  0  0
 26 22  1  0  0  0  0
 28 27  1  6  0  0  0
 29 27  1  0  0  0  0
 30 31  1  0  0  0  0
M  END
>  <MODEL>
3

>  <REMARK>
 VINA RESULT:      -6.8      2.287      4.660
  Name = 
  10 active torsions:
  status: ('A' for Active; 'I' for Inactive)
    1  A    between atoms: C_4  and  C_16
    2  A    between atoms: N_5  and  C_31
    3  A    between atoms: O_6  and  C_9
    4  A    between atoms: O_6  and  C_22
    5  A    between atoms: C_8  and  C_25
    6  A    between atoms: C_9  and  C_29
    7  A    between atoms: C_11  and  C_22
    8  A    between atoms: C_16  and  C_22
    9  A    between atoms: C_21  and  C_27
   10  A    between atoms: C_29  and  C_31
                            x       y       z     vdW  Elec       q    Type
                         _______ _______ _______ _____ _____    ______ ____

>  <TORSDO>
F 10

$$$$
=
 OpenBabel11052409433D

 31 34  0  0  1  0  0  0  0  0999 V2000
  161.7920  208.2790  149.7860 C   0  0  0  0  0  2  0  0  0  0  0  0
  160.8120  207.3830  149.3550 O   0  0  0  0  0  0  0  0  0  0  0  0
  161.3940  206.1180  149.4900 C   0  0  2  0  0  3  0  0  0  0  0  0
  162.2020  206.2420  147.1610 C   0  0  0  0  0  3  0  0  0  0  0  0
  161.6560  205.5140  148.1420 C   0  0  0  0  0  0  0  0  0  0  0  0
  162.5010  205.7020  145.7820 C   0  0  0  0  0  0  0  0  0  0  0  0
  161.3670  205.5700  143.5370 N   0  0  0  0  0  1  0  0  0  0  0  0
  162.0580  204.2340  145.5340 C   0  0  0  0  0  0  0  0  0  0  0  0
  161.2460  204.1260  147.9030 C   0  0  0  0  0  3  0  0  0  0  0  0
  161.2490  205.3950  144.9730 C   0  0  1  0  0  0  0  0  0  0  0  0
  159.9910  205.6400  145.5360 O   0  0  0  0  0  1  0  0  0  0  0  0
  161.4130  203.5470  146.7170 C   0  0  0  0  0  3  0  0  0  0  0  0
  160.4890  205.2220  150.3270 C   0  0  0  0  0  2  0  0  0  0  0  0
  160.7850  203.3150  151.9080 O   0  0  0  0  0  1  0  0  0  0  0  0
  161.2790  204.4950  151.3650 C   0  0  0  0  0  0  0  0  0  0  0  0
  162.4010  204.9350  151.7270 O   0  0  0  0  0  0  0  0  0  0  0  0
  161.8040  208.3510  151.3070 C   0  0  0  0  0  2  0  0  0  0  0  0
  161.0160  209.5550  151.8070 C   0  0  0  0  0  2  0  0  0  0  0  0
  160.3350  209.2280  153.0470 N   0  0  0  0  0  0  0  0  0  0  0  0
  160.7350  210.2520  154.0260 C   0  0  2  0  0  3  0  0  0  0  0  0
  161.3820  208.9260  154.0330 C   0  0  1  0  0  3  0  0  0  0  0  0
  158.4150  210.9740  154.5260 O   0  0  0  0  0  0  0  0  0  0  0  0
  159.1970  214.4500  154.6590 O   0  0  0  0  0  0  0  0  0  0  0  0
  157.3330  212.7570  153.3620 C   0  0  0  0  0  1  0  0  0  0  0  0
  159.2700  213.2110  154.8650 C   0  0  0  0  0  0  0  0  0  0  0  0
  158.6460  212.2280  153.9120 C   0  0  1  0  0  3  0  0  0  0  0  0
  160.0880  211.2910  156.2600 C   0  0  0  0  0  2  0  0  0  0  0  0
  159.6190  210.4550  155.0680 C   0  0  2  0  0  3  0  0  0  0  0  0
  160.0550  212.7170  155.9500 N   0  0  0  0  0  2  0  0  0  0  0  0
  160.6490  206.5750  154.3810 C   0  0  0  0  0  1  0  0  0  0  0  0
  160.8400  207.9230  155.0460 C   0  0  0  0  0  2  0  0  0  0  0  0
  1 17  1  0  0  0  0
  2  3  1  0  0  0  0
  2  1  1  0  0  0  0
  3 13  1  1  0  0  0
  4  5  1  0  0  0  0
  5  3  1  0  0  0  0
  6  4  2  3  0  0  0
  8  6  1  0  0  0  0
  8 12  2  3  0  0  0
  9  5  2  0  0  0  0
 10  7  1  6  0  0  0
 10  8  1  0  0  0  0
 10 11  1  0  0  0  0
 10  6  1  0  0  0  0
 12  9  1  0  0  0  0
 13 15  1  0  0  0  0
 15 16  2  0  0  0  0
 15 14  1  0  0  0  0
 17 18  1  0  0  0  0
 18 19  1  0  0  0  0
 19 21  1  0  0  0  0
 20 19  1  6  0  0  0
 20 21  1  0  0  0  0
 20 28  1  0  0  0  0
 21 31  1  1  0  0  0
 22 28  1  0  0  0  0
 23 25  2  0  0  0  0
 25 29  1  0  0  0  0
 26 24  1  1  0  0  0
 26 22  1  0  0  0  0
 26 25  1  0  0  0  0
 28 27  1  1  0  0  0
 29 27  1  0  0  0  0
 30 31  1  0  0  0  0
M  END
>  <MODEL>
4

>  <REMARK>
 VINA RESULT:      -6.7      1.936      3.394
  Name = 
  10 active torsions:
  status: ('A' for Active; 'I' for Inactive)
    1  A    between atoms: C_4  and  C_16
    2  A    between atoms: N_5  and  C_31
    3  A    between atoms: O_6  and  C_9
    4  A    between atoms: O_6  and  C_22
    5  A    between atoms: C_8  and  C_25
    6  A    between atoms: C_9  and  C_29
    7  A    between atoms: C_11  and  C_22
    8  A    between atoms: C_16  and  C_22
    9  A    between atoms: C_21  and  C_27
   10  A    between atoms: C_29  and  C_31
                            x       y       z     vdW  Elec       q    Type
                         _______ _______ _______ _____ _____    ______ ____

>  <TORSDO>
F 10

$$$$
=
 OpenBabel11052409433D

 31 34  0  0  1  0  0  0  0  0999 V2000
  162.1230  205.6140  152.1130 C   0  0  0  0  0  2  0  0  0  0  0  0
  160.9950  205.5590  151.2920 O   0  0  0  0  0  0  0  0  0  0  0  0
  161.2670  204.5410  150.3720 C   0  0  2  0  0  3  0  0  0  0  0  0
  161.0290  204.1810  147.9420 C   0  0  0  0  0  3  0  0  0  0  0  0
  161.0840  205.0380  148.9680 C   0  0  0  0  0  0  0  0  0  0  0  0
  160.8420  204.6070  146.5040 C   0  0  0  0  0  0  0  0  0  0  0  0
  162.2820  205.1630  144.5140 N   0  0  0  0  0  1  0  0  0  0  0  0
  160.7910  206.1400  146.2660 C   0  0  0  0  0  0  0  0  0  0  0  0
  161.0290  206.4850  148.7370 C   0  0  0  0  0  3  0  0  0  0  0  0
  162.0450  205.3440  145.9350 C   0  0  1  0  0  0  0  0  0  0  0  0
  163.1730  205.5440  146.7400 O   0  0  0  0  0  1  0  0  0  0  0  0
  160.9110  206.9890  147.5120 C   0  0  0  0  0  3  0  0  0  0  0  0
  160.3690  203.3420  150.6520 C   0  0  0  0  0  2  0  0  0  0  0  0
  161.0610  201.0200  150.0600 O   0  0  0  0  0  0  0  0  0  0  0  0
  161.1840  202.1170  150.9030 C   0  0  0  0  0  0  0  0  0  0  0  0
  162.0000  202.0890  151.8600 O   0  0  0  0  0  1  0  0  0  0  0  0
  161.7810  206.2980  153.4300 C   0  0  0  0  0  2  0  0  0  0  0  0
  160.7570  207.4060  153.2250 C   0  0  0  0  0  2  0  0  0  0  0  0
  161.4290  208.6700  152.9790 N   0  0  0  0  0  0  0  0  0  0  0  0
  160.3720  209.6630  152.7260 C   0  0  2  0  0  3  0  0  0  0  0  0
  161.1040  209.0550  151.5980 C   0  0  1  0  0  3  0  0  0  0  0  0
  161.1620  211.1690  154.5310 O   0  0  0  0  0  0  0  0  0  0  0  0
  157.9040  211.8710  155.7960 O   0  0  0  0  0  0  0  0  0  0  0  0
  160.4070  210.9940  156.7900 C   0  0  0  0  0  1  0  0  0  0  0  0
  158.8500  211.7140  154.9800 C   0  0  0  0  0  0  0  0  0  0  0  0
  160.0340  210.8520  155.3250 C   0  0  1  0  0  3  0  0  0  0  0  0
  159.8670  212.1600  152.7300 C   0  0  0  0  0  2  0  0  0  0  0  0
  160.8480  211.0650  153.1520 C   0  0  2  0  0  3  0  0  0  0  0  0
  158.7500  212.2570  153.6650 N   0  0  0  0  0  2  0  0  0  0  0  0
  162.0790  210.0270  149.5270 C   0  0  0  0  0  1  0  0  0  0  0  0
  162.2520  209.8790  151.0250 C   0  0  0  0  0  2  0  0  0  0  0  0
  1 17  1  0  0  0  0
  2  1  1  0  0  0  0
  3 13  1  1  0  0  0
  3  2  1  0  0  0  0
  4  5  1  0  0  0  0
  5  3  1  0  0  0  0
  6  4  2  3  0  0  0
  8  6  1  0  0  0  0
  8 12  2  3  0  0  0
  9  5  2  0  0  0  0
 10  7  1  6  0  0  0
 10  8  1  0  0  0  0
 10  6  1  0  0  0  0
 10 11  1  0  0  0  0
 12  9  1  0  0  0  0
 13 15  1  0  0  0  0
 14 15  2  0  0  0  0
 15 16  1  0  0  0  0
 18 17  1  0  0  0  0
 19 18  1  0  0  0  0
 20 19  1  1  0  0  0
 20 28  1  0  0  0  0
 21 31  1  1  0  0  0
 21 20  1  0  0  0  0
 21 19  1  0  0  0  0
 22 26  1  0  0  0  0
 25 26  1  0  0  0  0
 25 23  2  0  0  0  0
 26 24  1  1  0  0  0
 27 29  1  0  0  0  0
 28 27  1  1  0  0  0
 28 22  1  0  0  0  0
 29 25  1  0  0  0  0
 30 31  1  0  0  0  0
M  END
>  <MODEL>
5

>  <REMARK>
 VINA RESULT:      -6.4      1.537      1.956
  Name = 
  10 active torsions:
  status: ('A' for Active; 'I' for Inactive)
    1  A    between atoms: C_4  and  C_16
    2  A    between atoms: N_5  and  C_31
    3  A    between atoms: O_6  and  C_9
    4  A    between atoms: O_6  and  C_22
    5  A    between atoms: C_8  and  C_25
    6  A    between atoms: C_9  and  C_29
    7  A    between atoms: C_11  and  C_22
    8  A    between atoms: C_16  and  C_22
    9  A    between atoms: C_21  and  C_27
   10  A    between atoms: C_29  and  C_31
                            x       y       z     vdW  Elec       q    Type
                         _______ _______ _______ _____ _____    ______ ____

>  <TORSDO>
F 10

$$$$
=
 OpenBabel11052409433D

 31 34  0  0  1  0  0  0  0  0999 V2000
  161.8210  208.2410  149.0350 C   0  0  0  0  0  2  0  0  0  0  0  0
  162.5880  207.2480  148.4210 O   0  0  0  0  0  0  0  0  0  0  0  0
  161.6690  206.4710  147.7080 C   0  0  2  0  0  3  0  0  0  0  0  0
  160.4530  205.5350  149.6410 C   0  0  0  0  0  3  0  0  0  0  0  0
  161.1910  205.3220  148.5460 C   0  0  0  0  0  0  0  0  0  0  0  0
  159.9320  204.4300  150.5290 C   0  0  0  0  0  0  0  0  0  0  0  0
  160.6490  203.2040  152.6090 N   0  0  0  0  0  1  0  0  0  0  0  0
  160.3750  202.9950  150.1330 C   0  0  0  0  0  0  0  0  0  0  0  0
  161.6010  203.9640  148.1730 C   0  0  0  0  0  3  0  0  0  0  0  0
  161.0280  203.7150  151.3040 C   0  0  1  0  0  0  0  0  0  0  0  0
  162.3580  204.1270  151.1520 O   0  0  0  0  0  1  0  0  0  0  0  0
  161.2450  202.9070  148.8990 C   0  0  0  0  0  3  0  0  0  0  0  0
  162.3060  205.9810  146.4130 C   0  0  0  0  0  2  0  0  0  0  0  0
  159.9760  206.2400  145.5600 O   0  0  0  0  0  1  0  0  0  0  0  0
  161.2690  205.7710  145.3600 C   0  0  0  0  0  0  0  0  0  0  0  0
  161.5710  205.1950  144.2830 O   0  0  0  0  0  0  0  0  0  0  0  0
  162.3360  208.5060  150.4430 C   0  0  0  0  0  2  0  0  0  0  0  0
  161.6610  209.7260  151.0560 C   0  0  0  0  0  2  0  0  0  0  0  0
  160.7250  209.3150  152.0870 N   0  0  0  0  0  0  0  0  0  0  0  0
  160.8180  210.3200  153.1600 C   0  0  2  0  0  3  0  0  0  0  0  0
  161.5240  209.0300  153.2880 C   0  0  1  0  0  3  0  0  0  0  0  0
  158.4520  211.0630  153.1650 O   0  0  0  0  0  0  0  0  0  0  0  0
  159.1960  214.4500  153.9950 O   0  0  0  0  0  0  0  0  0  0  0  0
  157.7100  213.0360  152.0420 C   0  0  0  0  0  1  0  0  0  0  0  0
  159.2070  213.1920  154.0300 C   0  0  0  0  0  0  0  0  0  0  0  0
  158.8380  212.3800  152.8180 C   0  0  1  0  0  3  0  0  0  0  0  0
  159.6340  211.0630  155.2890 C   0  0  0  0  0  2  0  0  0  0  0  0
  159.4760  210.4230  153.9080 C   0  0  2  0  0  3  0  0  0  0  0  0
  159.6890  212.5180  155.1920 N   0  0  0  0  0  2  0  0  0  0  0  0
  161.2060  206.5850  153.6120 C   0  0  0  0  0  1  0  0  0  0  0  0
  160.8190  207.9610  154.1150 C   0  0  0  0  0  2  0  0  0  0  0  0
  1 17  1  0  0  0  0
  2  1  1  0  0  0  0
  3 13  1  6  0  0  0
  3  2  1  0  0  0  0
  3  5  1  0  0  0  0
  4  6  1  0  0  0  0
  5  4  2  0  0  0  0
  6 10  1  0  0  0  0
  8  6  2  0  0  0  0
  8 10  1  0  0  0  0
  9  5  1  0  0  0  0
  9 12  2  0  0  0  0
 10 11  1  6  0  0  0
 10  7  1  0  0  0  0
 12  8  1  0  0  0  0
 15 14  1  0  0  0  0
 15 13  1  0  0  0  0
 16 15  2  0  0  0  0
 17 18  1  0  0  0  0
 18 19  1  0  0  0  0
 19 21  1  0  0  0  0
 20 19  1  6  0  0  0
 20 21  1  0  0  0  0
 20 28  1  0  0  0  0
 21 31  1  1  0  0  0
 22 28  1  0  0  0  0
 23 25  2  0  0  0  0
 25 29  1  0  0  0  0
 26 24  1  1  0  0  0
 26 22  1  0  0  0  0
 26 25  1  0  0  0  0
 28 27  1  1  0  0  0
 29 27  1  0  0  0  0
 30 31  1  0  0  0  0
M  END
>  <MODEL>
6

>  <REMARK>
 VINA RESULT:      -6.3      2.562      4.642
  Name = 
  10 active torsions:
  status: ('A' for Active; 'I' for Inactive)
    1  A    between atoms: C_4  and  C_16
    2  A    between atoms: N_5  and  C_31
    3  A    between atoms: O_6  and  C_9
    4  A    between atoms: O_6  and  C_22
    5  A    between atoms: C_8  and  C_25
    6  A    between atoms: C_9  and  C_29
    7  A    between atoms: C_11  and  C_22
    8  A    between atoms: C_16  and  C_22
    9  A    between atoms: C_21  and  C_27
   10  A    between atoms: C_29  and  C_31
                            x       y       z     vdW  Elec       q    Type
                         _______ _______ _______ _____ _____    ______ ____

>  <TORSDO>
F 10

$$$$
=
 OpenBabel11052409433D

 31 34  0  0  1  0  0  0  0  0999 V2000
  162.0420  208.5270  150.5800 C   0  0  0  0  0  2  0  0  0  0  0  0
  161.2500  207.8020  149.6860 O   0  0  0  0  0  0  0  0  0  0  0  0
  161.6340  206.4690  149.8610 C   0  0  2  0  0  3  0  0  0  0  0  0
  162.3120  206.4080  147.4880 C   0  0  0  0  0  3  0  0  0  0  0  0
  161.7610  205.7800  148.5340 C   0  0  0  0  0  0  0  0  0  0  0  0
  162.4780  205.7780  146.1250 C   0  0  0  0  0  0  0  0  0  0  0  0
  161.2060  205.6470  143.9550 N   0  0  0  0  0  1  0  0  0  0  0  0
  161.8910  204.3480  145.9780 C   0  0  0  0  0  0  0  0  0  0  0  0
  161.2140  204.4270  148.3900 C   0  0  0  0  0  3  0  0  0  0  0  0
  161.1580  205.5520  145.4030 C   0  0  1  0  0  0  0  0  0  0  0  0
  159.9630  205.9390  146.0200 O   0  0  0  0  0  1  0  0  0  0  0  0
  161.2580  203.7800  147.2290 C   0  0  0  0  0  3  0  0  0  0  0  0
  160.6280  205.7570  150.7560 C   0  0  0  0  0  2  0  0  0  0  0  0
  161.2350  205.6760  153.1750 O   0  0  0  0  0  1  0  0  0  0  0  0
  161.3150  205.1050  151.9100 C   0  0  0  0  0  0  0  0  0  0  0  0
  161.9420  204.0270  151.7440 O   0  0  0  0  0  0  0  0  0  0  0  0
  161.8710  210.0210  150.3400 C   0  0  0  0  0  2  0  0  0  0  0  0
  162.0510  210.3660  148.8680 C   0  0  0  0  0  2  0  0  0  0  0  0
  162.1810  211.8030  148.7020 N   0  0  0  0  0  0  0  0  0  0  0  0
  160.8550  212.2980  148.2960 C   0  0  2  0  0  3  0  0  0  0  0  0
  161.9090  212.0870  147.2860 C   0  0  1  0  0  3  0  0  0  0  0  0
  160.5130  213.8840  150.1720 O   0  0  0  0  0  0  0  0  0  0  0  0
  157.0000  213.3250  150.4120 O   0  0  0  0  0  0  0  0  0  0  0  0
  159.2560  213.3300  152.1250 C   0  0  0  0  0  1  0  0  0  0  0  0
  158.1320  213.5550  149.9110 C   0  0  0  0  0  0  0  0  0  0  0  0
  159.3920  213.1470  150.6250 C   0  0  1  0  0  3  0  0  0  0  0  0
  159.5240  214.4530  148.0270 C   0  0  0  0  0  2  0  0  0  0  0  0
  160.6630  213.7510  148.7680 C   0  0  2  0  0  3  0  0  0  0  0  0
  158.2280  214.1000  148.5960 N   0  0  0  0  0  2  0  0  0  0  0  0
  162.4250  213.6310  145.4060 C   0  0  0  0  0  1  0  0  0  0  0  0
  162.6900  213.3280  146.8670 C   0  0  0  0  0  2  0  0  0  0  0  0
  2  3  1  0  0  0  0
  2  1  1  0  0  0  0
  3 13  1  1  0  0  0
  4  5  1  0  0  0  0
  5  3  1  0  0  0  0
  6  4  2  3  0  0  0
  8  6  1  0  0  0  0
  8 12  2  3  0  0  0
  9  5  2  0  0  0  0
 10  7  1  6  0  0  0
 10  8  1  0  0  0  0
 10 11  1  0  0  0  0
 10  6  1  0  0  0  0
 12  9  1  0  0  0  0
 13 15  1  0  0  0  0
 15 14  1  0  0  0  0
 16 15  2  0  0  0  0
 17  1  1  0  0  0  0
 18 17  1  0  0  0  0
 19 18  1  0  0  0  0
 20 19  1  1  0  0  0
 20 28  1  0  0  0  0
 21 31  1  1  0  0  0
 21 20  1  0  0  0  0
 21 19  1  0  0  0  0
 22 26  1  0  0  0  0
 25 23  2  0  0  0  0
 25 26  1  0  0  0  0
 26 24  1  1  0  0  0
 27 29  1  0  0  0  0
 28 27  1  6  0  0  0
 28 22  1  0  0  0  0
 29 25  1  0  0  0  0
 30 31  1  0  0  0  0
M  END
>  <MODEL>
7

>  <REMARK>
 VINA RESULT:      -6.3      3.549      4.640
  Name = 
  10 active torsions:
  status: ('A' for Active; 'I' for Inactive)
    1  A    between atoms: C_4  and  C_16
    2  A    between atoms: N_5  and  C_31
    3  A    between atoms: O_6  and  C_9
    4  A    between atoms: O_6  and  C_22
    5  A    between atoms: C_8  and  C_25
    6  A    between atoms: C_9  and  C_29
    7  A    between atoms: C_11  and  C_22
    8  A    between atoms: C_16  and  C_22
    9  A    between atoms: C_21  and  C_27
   10  A    between atoms: C_29  and  C_31
                            x       y       z     vdW  Elec       q    Type
                         _______ _______ _______ _____ _____    ______ ____

>  <TORSDO>
F 10

$$$$
=
 OpenBabel11052409433D

 31 34  0  0  1  0  0  0  0  0999 V2000
  162.2910  208.8790  149.5680 C   0  0  0  0  0  2  0  0  0  0  0  0
  161.2280  208.0260  149.2640 O   0  0  0  0  0  0  0  0  0  0  0  0
  161.7060  206.7410  149.5400 C   0  0  2  0  0  3  0  0  0  0  0  0
  162.3860  206.4760  147.1810 C   0  0  0  0  0  3  0  0  0  0  0  0
  161.8280  205.9430  148.2750 C   0  0  0  0  0  0  0  0  0  0  0  0
  162.5480  205.7340  145.8760 C   0  0  0  0  0  0  0  0  0  0  0  0
  161.2780  205.4360  143.7210 N   0  0  0  0  0  1  0  0  0  0  0  0
  161.9470  204.3020  145.8470 C   0  0  0  0  0  0  0  0  0  0  0  0
  161.2680  204.5880  148.2420 C   0  0  0  0  0  3  0  0  0  0  0  0
  161.2270  205.4610  145.1720 C   0  0  1  0  0  0  0  0  0  0  0  0
  160.0350  205.9100  145.7520 O   0  0  0  0  0  1  0  0  0  0  0  0
  161.3060  203.8470  147.1390 C   0  0  0  0  0  3  0  0  0  0  0  0
  160.7840  206.0520  150.5370 C   0  0  0  0  0  2  0  0  0  0  0  0
  162.7660  206.2190  152.0430 O   0  0  0  0  0  0  0  0  0  0  0  0
  161.5400  205.6330  151.7550 C   0  0  0  0  0  0  0  0  0  0  0  0
  161.0550  204.7710  152.5330 O   0  0  0  0  0  1  0  0  0  0  0  0
  161.8780  210.3290  149.3520 C   0  0  0  0  0  2  0  0  0  0  0  0
  161.5530  210.5960  147.8880 C   0  0  0  0  0  2  0  0  0  0  0  0
  161.1400  211.9770  147.7110 N   0  0  0  0  0  0  0  0  0  0  0  0
  162.2760  212.6760  147.0870 C   0  0  2  0  0  3  0  0  0  0  0  0
  162.0400  212.7930  148.5390 C   0  0  1  0  0  3  0  0  0  0  0  0
  160.6250  213.5460  145.4530 O   0  0  0  0  0  0  0  0  0  0  0  0
  162.2450  212.1480  142.6020 O   0  0  0  0  0  0  0  0  0  0  0  0
  159.6540  212.1900  143.7440 C   0  0  0  0  0  1  0  0  0  0  0  0
  162.0790  212.7640  143.6870 C   0  0  0  0  0  0  0  0  0  0  0  0
  160.8950  212.4740  144.5690 C   0  0  1  0  0  3  0  0  0  0  0  0
  162.8770  214.4530  145.3630 C   0  0  0  0  0  2  0  0  0  0  0  0
  161.7700  213.8520  146.2310 C   0  0  2  0  0  3  0  0  0  0  0  0
  163.0840  213.6650  144.1520 N   0  0  0  0  0  2  0  0  0  0  0  0
  160.3090  213.6850  150.0850 C   0  0  0  0  0  1  0  0  0  0  0  0
  161.3000  214.0450  148.9970 C   0  0  0  0  0  2  0  0  0  0  0  0
  2  3  1  0  0  0  0
  2  1  1  0  0  0  0
  3 13  1  1  0  0  0
  4  5  1  0  0  0  0
  5  3  1  0  0  0  0
  6  4  2  3  0  0  0
  8  6  1  0  0  0  0
  8 12  2  3  0  0  0
  9  5  2  0  0  0  0
 10  7  1  6  0  0  0
 10 11  1  0  0  0  0
 10  8  1  0  0  0  0
 10  6  1  0  0  0  0
 12  9  1  0  0  0  0
 13 15  1  0  0  0  0
 15 14  2  0  0  0  0
 15 16  1  0  0  0  0
 17  1  1  0  0  0  0
 18 17  1  0  0  0  0
 19 18  1  0  0  0  0
 19 21  1  0  0  0  0
 20 19  1  6  0  0  0
 20 21  1  0  0  0  0
 21 31  1  6  0  0  0
 22 28  1  0  0  0  0
 23 25  2  0  0  0  0
 25 29  1  0  0  0  0
 25 26  1  0  0  0  0
 26 24  1  6  0  0  0
 26 22  1  0  0  0  0
 28 27  1  6  0  0  0
 28 20  1  0  0  0  0
 29 27  1  0  0  0  0
 31 30  1  0  0  0  0
M  END
>  <MODEL>
8

>  <REMARK>
 VINA RESULT:      -6.2      4.514      6.634
  Name = 
  10 active torsions:
  status: ('A' for Active; 'I' for Inactive)
    1  A    between atoms: C_4  and  C_16
    2  A    between atoms: N_5  and  C_31
    3  A    between atoms: O_6  and  C_9
    4  A    between atoms: O_6  and  C_22
    5  A    between atoms: C_8  and  C_25
    6  A    between atoms: C_9  and  C_29
    7  A    between atoms: C_11  and  C_22
    8  A    between atoms: C_16  and  C_22
    9  A    between atoms: C_21  and  C_27
   10  A    between atoms: C_29  and  C_31
                            x       y       z     vdW  Elec       q    Type
                         _______ _______ _______ _____ _____    ______ ____

>  <TORSDO>
F 10

$$$$
=
 OpenBabel11052409433D

 31 34  0  0  1  0  0  0  0  0999 V2000
  161.8740  207.6840  149.4520 C   0  0  0  0  0  2  0  0  0  0  0  0
  160.6750  206.9680  149.5000 O   0  0  0  0  0  0  0  0  0  0  0  0
  160.7050  206.1390  148.3740 C   0  0  2  0  0  3  0  0  0  0  0  0
  161.7530  203.9400  147.9730 C   0  0  0  0  0  3  0  0  0  0  0  0
  161.0200  204.7260  148.7700 C   0  0  0  0  0  0  0  0  0  0  0  0
  162.1150  202.5120  148.3060 C   0  0  0  0  0  0  0  0  0  0  0  0
  161.2060  200.2020  147.8800 N   0  0  0  0  0  1  0  0  0  0  0  0
  161.5090  201.9640  149.6270 C   0  0  0  0  0  0  0  0  0  0  0  0
  160.4560  204.2040  150.0190 C   0  0  0  0  0  3  0  0  0  0  0  0
  160.9220  201.5690  148.2790 C   0  0  1  0  0  0  0  0  0  0  0  0
  159.6570  202.0700  147.9510 O   0  0  0  0  0  1  0  0  0  0  0  0
  160.6630  202.9480  150.4040 C   0  0  0  0  0  3  0  0  0  0  0  0
  161.7220  206.6680  147.3710 C   0  0  0  0  0  2  0  0  0  0  0  0
  160.0810  206.2040  145.5510 O   0  0  0  0  0  1  0  0  0  0  0  0
  161.3990  206.2000  145.9910 C   0  0  0  0  0  0  0  0  0  0  0  0
  162.3210  205.8280  145.2190 O   0  0  0  0  0  0  0  0  0  0  0  0
  162.2740  208.1310  150.8510 C   0  0  0  0  0  2  0  0  0  0  0  0
  161.2070  209.0250  151.4700 C   0  0  0  0  0  2  0  0  0  0  0  0
  160.6490  208.3940  152.6520 N   0  0  0  0  0  0  0  0  0  0  0  0
  161.3240  209.0030  153.8100 C   0  0  2  0  0  3  0  0  0  0  0  0
  161.7540  207.6830  153.3090 C   0  0  1  0  0  3  0  0  0  0  0  0
  159.1890  209.7020  154.8590 O   0  0  0  0  0  0  0  0  0  0  0  0
  160.3390  212.9530  155.7640 O   0  0  0  0  0  0  0  0  0  0  0  0
  158.1430  211.7980  154.3970 C   0  0  0  0  0  1  0  0  0  0  0  0
  160.3110  211.7020  155.6240 C   0  0  0  0  0  0  0  0  0  0  0  0
  159.4580  211.0600  154.5640 C   0  0  1  0  0  3  0  0  0  0  0  0
  161.1160  209.4270  156.3130 C   0  0  0  0  0  2  0  0  0  0  0  0
  160.3960  208.9810  155.0380 C   0  0  2  0  0  3  0  0  0  0  0  0
  161.1880  210.8820  156.3960 N   0  0  0  0  0  2  0  0  0  0  0  0
  161.2060  205.2630  153.1410 C   0  0  0  0  0  1  0  0  0  0  0  0
  161.1990  206.4730  154.0530 C   0  0  0  0  0  2  0  0  0  0  0  0
  1  2  1  0  0  0  0
  1 17  1  0  0  0  0
  3 13  1  6  0  0  0
  3  5  1  0  0  0  0
  3  2  1  0  0  0  0
  4  6  2  3  0  0  0
  4  5  1  0  0  0  0
  5  9  2  0  0  0  0
  6  8  1  0  0  0  0
  8 12  2  3  0  0  0
  9 12  1  0  0  0  0
 10  7  1  6  0  0  0
 10  6  1  0  0  0  0
 10  8  1  0  0  0  0
 11 10  1  0  0  0  0
 14 15  1  0  0  0  0
 15 13  1  0  0  0  0
 16 15  2  0  0  0  0
 17 18  1  0  0  0  0
 18 19  1  0  0  0  0
 19 21  1  0  0  0  0
 20 19  1  6  0  0  0
 20 28  1  0  0  0  0
 21 20  1  0  0  0  0
 21 31  1  1  0  0  0
 22 28  1  0  0  0  0
 25 23  2  0  0  0  0
 25 29  1  0  0  0  0
 26 24  1  1  0  0  0
 26 22  1  0  0  0  0
 26 25  1  0  0  0  0
 27 29  1  0  0  0  0
 28 27  1  1  0  0  0
 30 31  1  0  0  0  0
M  END
>  <MODEL>
9

>  <REMARK>
 VINA RESULT:      -6.0      2.118      4.113
  Name = 
  10 active torsions:
  status: ('A' for Active; 'I' for Inactive)
    1  A    between atoms: C_4  and  C_16
    2  A    between atoms: N_5  and  C_31
    3  A    between atoms: O_6  and  C_9
    4  A    between atoms: O_6  and  C_22
    5  A    between atoms: C_8  and  C_25
    6  A    between atoms: C_9  and  C_29
    7  A    between atoms: C_11  and  C_22
    8  A    between atoms: C_16  and  C_22
    9  A    between atoms: C_21  and  C_27
   10  A    between atoms: C_29  and  C_31
                            x       y       z     vdW  Elec       q    Type
                         _______ _______ _______ _____ _____    ______ ____

>  <TORSDO>
F 10

$$$$
