=
 OpenBabel11052412103D

 56 62  0  0  1  0  0  0  0  0999 V2000
  160.1910  212.0380  152.4160 C   0  0  2  0  0  3  0  0  0  0  0  0
  158.9530  211.9110  153.3220 C   0  0  1  0  0  3  0  0  0  0  0  0
  159.0590  211.0680  155.6510 C   0  0  0  0  0  3  0  0  0  0  0  0
  159.0240  210.7910  154.3420 C   0  0  0  0  0  3  0  0  0  0  0  0
  158.9640  212.4830  156.1450 C   0  0  1  0  0  3  0  0  0  0  0  0
  159.3100  213.4510  155.0060 C   0  0  0  0  0  2  0  0  0  0  0  0
  158.5400  213.1570  153.8610 O   0  0  0  0  0  0  0  0  0  0  0  0
  157.6120  212.7380  156.6170 N   0  0  0  0  0  2  0  0  0  0  0  0
  155.6950  211.4860  157.2610 C   0  0  0  0  0  2  0  0  0  0  0  0
  156.8230  211.5490  156.3380 C   0  0  1  0  0  3  0  0  0  0  0  0
  155.4840  211.9550  155.8840 N   0  0  0  0  0  2  0  0  0  0  0  0
  159.3630  213.0120  150.3050 C   0  0  0  0  0  3  0  0  0  0  0  0
  160.0350  213.1690  151.4450 C   0  0  0  0  0  3  0  0  0  0  0  0
  159.2120  213.3590  146.9370 C   0  0  0  0  0  0  0  0  0  0  0  0
  159.8650  213.8600  148.0890 N   0  0  0  0  0  0  0  0  0  0  0  0
  159.2050  214.1600  149.3570 C   0  0  1  0  0  3  0  0  0  0  0  0
  160.0820  212.9940  145.9940 C   0  0  0  0  0  0  0  0  0  0  0  0
  161.4990  213.1630  146.4670 C   0  0  0  0  0  2  0  0  0  0  0  0
  162.1490  214.0050  148.6660 O   0  0  0  0  0  0  0  0  0  0  0  0
  157.0780  213.3890  148.2060 C   0  0  0  0  0  2  0  0  0  0  0  0
  157.7160  214.4530  149.1120 C   0  0  0  0  0  2  0  0  0  0  0  0
  161.2520  213.7160  147.8310 C   0  0  0  0  0  0  0  0  0  0  0  0
  157.7190  213.3800  146.8150 C   0  0  0  0  0  2  0  0  0  0  0  0
  159.7220  212.4480  144.6520 C   0  0  0  0  0  2  0  0  0  0  0  0
  160.3810  213.2690  143.5480 C   0  0  0  0  0  2  0  0  0  0  0  0
  157.1880  214.2640  140.1980 C   0  0  0  0  0  1  0  0  0  0  0  0
  158.4900  213.3350  141.8980 C   0  0  0  0  0  2  0  0  0  0  0  0
  159.9100  212.8750  142.1490 C   0  0  1  0  0  0  0  0  0  0  0  0
  160.7400  213.5450  141.0640 C   0  0  2  0  0  3  0  0  0  0  0  0
  159.9560  211.4820  142.0320 O   0  0  0  0  0  1  0  0  0  0  0  0
  159.6850  213.8350  139.6150 S   0  0  0  0  0  0  0  0  0  0  0  0
  158.2260  213.2850  140.4670 N   0  0  0  0  0  0  0  0  0  0  0  0
  162.0580  212.8920  140.7470 C   0  0  0  0  0  0  0  0  0  0  0  0
  163.1140  213.5040  141.0600 O   0  0  0  0  0  0  0  0  0  0  0  0
  162.1670  211.5700  140.1010 C   0  0  0  0  0  0  0  0  0  0  0  0
  161.4730  211.3190  138.9240 O   0  0  0  0  0  0  0  0  0  0  0  0
  162.8790  210.6580  140.6030 O   0  0  0  0  0  1  0  0  0  0  0  0
  160.4910  210.7440  151.6670 C   0  0  0  0  0  2  0  0  0  0  0  0
  161.8520  210.8160  150.9960 C   0  0  0  0  0  2  0  0  0  0  0  0
  162.5880  209.4960  151.1620 C   0  0  0  0  0  2  0  0  0  0  0  0
  161.4970  207.6140  150.0200 C   0  0  0  0  0  3  0  0  0  0  0  0
  162.3830  208.6060  149.9790 C   0  0  0  0  0  3  0  0  0  0  0  0
  161.3070  206.7340  148.8310 C   0  0  0  0  0  2  0  0  0  0  0  0
  161.0020  206.0300  151.6810 C   0  0  0  0  0  1  0  0  0  0  0  0
  160.6480  203.1960  152.4030 C   0  0  0  0  0  1  0  0  0  0  0  0
  160.9720  202.9650  148.6420 C   0  0  0  0  0  0  0  0  0  0  0  0
  161.1360  204.3110  148.2880 C   0  0  0  0  0  3  0  0  0  0  0  0
  160.8140  202.6270  149.9910 C   0  0  0  0  0  3  0  0  0  0  0  0
  160.9860  204.9680  150.6240 C   0  0  0  0  0  0  0  0  0  0  0  0
  160.8210  203.6150  150.9810 C   0  0  0  0  0  0  0  0  0  0  0  0
  161.1470  205.3120  149.2650 C   0  0  0  0  0  0  0  0  0  0  0  0
  160.7890  200.7840  145.6350 N   0  0  0  0  0  0  0  0  0  0  0  0
  161.2550  200.6800  147.8500 N   0  0  0  0  0  0  0  0  0  0  0  0
  161.1350  200.0030  146.6060 C   0  0  0  0  0  2  0  0  0  0  0  0
  160.9680  201.9150  147.6080 C   0  0  0  0  0  0  0  0  0  0  0  0
  160.6380  202.1280  146.1700 C   0  0  0  0  0  3  0  0  0  0  0  0
  1 13  1  6  0  0  0
  2  1  1  1  0  0  0
  2  7  1  0  0  0  0
  2  4  1  0  0  0  0
  3  5  1  0  0  0  0
  4  3  2  0  0  0  0
  5  8  1  6  0  0  0
  6  5  1  0  0  0  0
  7  6  1  0  0  0  0
 10  8  1  1  0  0  0
 10  9  1  0  0  0  0
 11 10  1  0  0  0  0
 11  9  1  0  0  0  0
 12 13  2  0  0  0  0
 14 15  1  0  0  0  0
 15 16  1  0  0  0  0
 16 12  1  1  0  0  0
 17 18  1  0  0  0  0
 17 14  2  0  0  0  0
 18 22  1  0  0  0  0
 20 21  1  0  0  0  0
 21 16  1  0  0  0  0
 22 15  1  0  0  0  0
 22 19  2  0  0  0  0
 23 14  1  0  0  0  0
 23 20  1  0  0  0  0
 24 17  1  0  0  0  0
 25 24  1  0  0  0  0
 26 32  1  0  0  0  0
 27 28  1  0  0  0  0
 28 30  1  6  0  0  0
 28 25  1  0  0  0  0
 29 33  1  6  0  0  0
 29 28  1  0  0  0  0
 31 32  1  0  0  0  0
 31 29  1  0  0  0  0
 32 27  1  0  0  0  0
 33 34  2  0  0  0  0
 35 37  1  0  0  0  0
 35 33  1  0  0  0  0
 36 35  2  0  0  0  0
 38  1  1  0  0  0  0
 39 40  1  0  0  0  0
 39 38  1  0  0  0  0
 42 41  2  0  0  0  0
 42 40  1  0  0  0  0
 43 51  1  0  0  0  0
 43 41  1  0  0  0  0
 46 48  1  0  0  0  0
 47 46  2  0  0  0  0
 47 51  1  0  0  0  0
 48 50  2  0  0  0  0
 49 50  1  0  0  0  0
 49 44  1  0  0  0  0
 50 45  1  0  0  0  0
 51 49  2  0  0  0  0
 52 56  2  0  0  0  0
 52 54  1  0  0  0  0
 54 53  1  0  0  0  0
 55 53  2  0  0  0  0
 55 46  1  0  0  0  0
 56 55  1  0  0  0  0
M  END
>  <MODEL>
1

>  <REMARK>
 VINA RESULT:      -6.3      0.000      0.000
  Name = 
  17 active torsions:
  status: ('A' for Active; 'I' for Inactive)
    1  A    between atoms: C_3  and  C_8
    2  A    between atoms: C_10  and  C_33
    3  A    between atoms: C_11  and  C_14
    4  A    between atoms: C_12  and  C_16
    5  A    between atoms: C_13  and  C_55
    6  A    between atoms: C_14  and  C_33
    7  A    between atoms: C_16  and  C_17
    8  A    between atoms: C_20  and  C_42
    9  A    between atoms: C_24  and  C_26
   10  A    between atoms: C_24  and  C_55
   11  A    between atoms: C_26  and  C_27
   12  A    between atoms: C_27  and  C_52
   13  A    between atoms: N_36  and  C_40
   14  A    between atoms: N_36  and  C_44
   15  A    between atoms: C_37  and  C_48
   16  A    between atoms: C_45  and  C_55
   17  A    between atoms: C_48  and  C_53
                            x       y       z     vdW  Elec       q    Type
                         _______ _______ _______ _____ _____    ______ ____

>  <TORSDO>
F 17

$$$$
=
 OpenBabel11052412103D

 56 62  0  0  1  0  0  0  0  0999 V2000
  158.7410  212.7770  151.8170 C   0  0  2  0  0  3  0  0  0  0  0  0
  158.3150  213.8180  152.8680 C   0  0  1  0  0  3  0  0  0  0  0  0
  156.0000  213.9940  153.7380 C   0  0  0  0  0  3  0  0  0  0  0  0
  156.8720  214.2730  152.7620 C   0  0  0  0  0  3  0  0  0  0  0  0
  156.4380  213.2840  154.9860 C   0  0  1  0  0  3  0  0  0  0  0  0
  157.7700  212.5670  154.7310 C   0  0  0  0  0  2  0  0  0  0  0  0
  158.7120  213.4630  154.1820 O   0  0  0  0  0  0  0  0  0  0  0  0
  156.5960  214.2520  156.0600 N   0  0  0  0  0  2  0  0  0  0  0  0
  154.5650  213.8420  157.2290 C   0  0  0  0  0  2  0  0  0  0  0  0
  156.0140  213.6710  157.2590 C   0  0  1  0  0  3  0  0  0  0  0  0
  155.1510  212.5420  156.8760 N   0  0  0  0  0  2  0  0  0  0  0  0
  160.1480  210.9330  152.6630 C   0  0  0  0  0  3  0  0  0  0  0  0
  160.0660  212.1680  152.1690 C   0  0  0  0  0  3  0  0  0  0  0  0
  161.4980  207.8270  152.5550 C   0  0  0  0  0  0  0  0  0  0  0  0
  161.3240  208.9460  153.4050 N   0  0  0  0  0  0  0  0  0  0  0  0
  161.4820  210.3380  152.9910 C   0  0  1  0  0  3  0  0  0  0  0  0
  161.1030  206.6950  153.1400 C   0  0  0  0  0  0  0  0  0  0  0  0
  160.5270  206.9610  154.5040 C   0  0  0  0  0  2  0  0  0  0  0  0
  160.3410  209.1650  155.5400 O   0  0  0  0  0  0  0  0  0  0  0  0
  162.0290  209.3900  150.7010 C   0  0  0  0  0  2  0  0  0  0  0  0
  162.4190  210.4170  151.7750 C   0  0  0  0  0  2  0  0  0  0  0  0
  160.7060  208.4410  154.5760 C   0  0  0  0  0  0  0  0  0  0  0  0
  162.1670  207.9560  151.2210 C   0  0  0  0  0  2  0  0  0  0  0  0
  161.1730  205.3360  152.5270 C   0  0  0  0  0  2  0  0  0  0  0  0
  162.0130  205.3700  151.2530 C   0  0  0  0  0  2  0  0  0  0  0  0
  161.7260  206.1640  146.5950 C   0  0  0  0  0  1  0  0  0  0  0  0
  161.4320  206.0540  148.9080 C   0  0  0  0  0  2  0  0  0  0  0  0
  161.2070  205.0300  149.9990 C   0  0  1  0  0  0  0  0  0  0  0  0
  161.6410  203.7040  149.3920 C   0  0  2  0  0  3  0  0  0  0  0  0
  159.8480  205.0150  150.3250 O   0  0  0  0  0  1  0  0  0  0  0  0
  161.4170  203.7840  147.5920 S   0  0  0  0  0  0  0  0  0  0  0  0
  160.9690  205.5020  147.6420 N   0  0  0  0  0  0  0  0  0  0  0  0
  161.0680  202.4690  150.0320 C   0  0  0  0  0  0  0  0  0  0  0  0
  161.1840  202.3370  151.2790 O   0  0  0  0  0  0  0  0  0  0  0  0
  160.3690  201.4170  149.2680 C   0  0  0  0  0  0  0  0  0  0  0  0
  161.1050  200.4720  148.5630 O   0  0  0  0  0  0  0  0  0  0  0  0
  159.1090  201.3630  149.2400 O   0  0  0  0  0  1  0  0  0  0  0  0
  158.7950  213.3660  150.4120 C   0  0  0  0  0  2  0  0  0  0  0  0
  160.2280  213.4220  149.9080 C   0  0  0  0  0  2  0  0  0  0  0  0
  160.2730  214.0570  148.5270 C   0  0  0  0  0  2  0  0  0  0  0  0
  159.9710  213.3810  146.1850 C   0  0  0  0  0  3  0  0  0  0  0  0
  160.1670  213.0250  147.4510 C   0  0  0  0  0  3  0  0  0  0  0  0
  159.8640  212.3380  145.1240 C   0  0  0  0  0  2  0  0  0  0  0  0
  162.6200  213.3080  144.7040 C   0  0  0  0  0  1  0  0  0  0  0  0
  163.3590  214.3480  142.0480 C   0  0  0  0  0  1  0  0  0  0  0  0
  159.7250  213.4510  141.5050 C   0  0  0  0  0  0  0  0  0  0  0  0
  159.3650  212.9500  142.7640 C   0  0  0  0  0  3  0  0  0  0  0  0
  161.0340  213.9010  141.2970 C   0  0  0  0  0  3  0  0  0  0  0  0
  161.6160  213.3520  143.5930 C   0  0  0  0  0  0  0  0  0  0  0  0
  161.9780  213.8560  142.3280 C   0  0  0  0  0  0  0  0  0  0  0  0
  160.2960  212.8990  143.8060 C   0  0  0  0  0  0  0  0  0  0  0  0
  156.8050  213.6870  139.2150 N   0  0  0  0  0  0  0  0  0  0  0  0
  159.0470  213.3730  139.1670 N   0  0  0  0  0  0  0  0  0  0  0  0
  157.8260  213.4880  138.4490 C   0  0  0  0  0  3  0  0  0  0  0  0
  158.7380  213.5090  140.4140 C   0  0  0  0  0  0  0  0  0  0  0  0
  157.2730  213.7260  140.5910 C   0  0  0  0  0  2  0  0  0  0  0  0
  1 38  1  6  0  0  0
  1 13  1  0  0  0  0
  2  1  1  6  0  0  0
  2  7  1  0  0  0  0
  3  5  1  0  0  0  0
  4  2  1  0  0  0  0
  4  3  2  0  0  0  0
  5  8  1  1  0  0  0
  6  5  1  0  0  0  0
  7  6  1  0  0  0  0
  9 10  1  0  0  0  0
 10  8  1  6  0  0  0
 11  9  1  0  0  0  0
 11 10  1  0  0  0  0
 13 12  2  0  0  0  0
 14 17  2  0  0  0  0
 14 15  1  0  0  0  0
 15 22  1  0  0  0  0
 16 12  1  6  0  0  0
 16 15  1  0  0  0  0
 17 18  1  0  0  0  0
 18 22  1  0  0  0  0
 20 23  1  0  0  0  0
 20 21  1  0  0  0  0
 21 16  1  0  0  0  0
 22 19  2  0  0  0  0
 23 14  1  0  0  0  0
 24 17  1  0  0  0  0
 25 24  1  0  0  0  0
 26 32  1  0  0  0  0
 27 28  1  0  0  0  0
 28 30  1  1  0  0  0
 28 25  1  0  0  0  0
 29 28  1  0  0  0  0
 29 33  1  1  0  0  0
 31 32  1  0  0  0  0
 31 29  1  0  0  0  0
 32 27  1  0  0  0  0
 33 34  2  0  0  0  0
 35 33  1  0  0  0  0
 36 35  2  0  0  0  0
 37 35  1  0  0  0  0
 39 38  1  0  0  0  0
 40 39  1  0  0  0  0
 41 42  2  0  0  0  0
 42 40  1  0  0  0  0
 43 41  1  0  0  0  0
 45 50  1  0  0  0  0
 46 47  1  0  0  0  0
 47 51  2  0  0  0  0
 48 46  2  0  0  0  0
 48 50  1  0  0  0  0
 49 51  1  0  0  0  0
 49 44  1  0  0  0  0
 50 49  2  0  0  0  0
 51 43  1  0  0  0  0
 52 56  1  0  0  0  0
 53 55  2  0  0  0  0
 54 53  1  0  0  0  0
 54 52  2  0  0  0  0
 55 56  1  0  0  0  0
 55 46  1  0  0  0  0
M  END
>  <MODEL>
2

>  <REMARK>
 VINA RESULT:      -5.7      4.268      9.822
  Name = 
  17 active torsions:
  status: ('A' for Active; 'I' for Inactive)
    1  A    between atoms: C_3  and  C_8
    2  A    between atoms: C_10  and  C_33
    3  A    between atoms: C_11  and  C_14
    4  A    between atoms: C_12  and  C_16
    5  A    between atoms: C_13  and  C_55
    6  A    between atoms: C_14  and  C_33
    7  A    between atoms: C_16  and  C_17
    8  A    between atoms: C_20  and  C_42
    9  A    between atoms: C_24  and  C_26
   10  A    between atoms: C_24  and  C_55
   11  A    between atoms: C_26  and  C_27
   12  A    between atoms: C_27  and  C_52
   13  A    between atoms: N_36  and  C_40
   14  A    between atoms: N_36  and  C_44
   15  A    between atoms: C_37  and  C_48
   16  A    between atoms: C_45  and  C_55
   17  A    between atoms: C_48  and  C_53
                            x       y       z     vdW  Elec       q    Type
                         _______ _______ _______ _____ _____    ______ ____

>  <TORSDO>
F 17

$$$$
=
 OpenBabel11052412103D

 56 62  0  0  1  0  0  0  0  0999 V2000
  162.1820  207.4330  148.4100 C   0  0  2  0  0  3  0  0  0  0  0  0
  161.1460  206.3220  148.1600 C   0  0  1  0  0  3  0  0  0  0  0  0
  161.1040  204.9470  146.0970 C   0  0  0  0  0  3  0  0  0  0  0  0
  160.7910  206.1000  146.7020 C   0  0  0  0  0  3  0  0  0  0  0  0
  161.7520  203.8260  146.8570 C   0  0  1  0  0  3  0  0  0  0  0  0
  162.3830  204.3720  148.1440 C   0  0  0  0  0  2  0  0  0  0  0  0
  161.4400  205.1300  148.8700 O   0  0  0  0  0  0  0  0  0  0  0  0
  160.7480  202.8250  147.1850 N   0  0  0  0  0  2  0  0  0  0  0  0
  160.1590  201.5770  149.1220 C   0  0  0  0  0  2  0  0  0  0  0  0
  161.2670  202.0370  148.2920 C   0  0  1  0  0  3  0  0  0  0  0  0
  160.7820  200.6530  148.1650 N   0  0  0  0  0  2  0  0  0  0  0  0
  161.8570  207.5180  150.8550 C   0  0  0  0  0  3  0  0  0  0  0  0
  162.6880  207.3910  149.8210 C   0  0  0  0  0  3  0  0  0  0  0  0
  160.7490  208.5280  153.8950 C   0  0  0  0  0  0  0  0  0  0  0  0
  161.8720  208.5830  153.0340 N   0  0  0  0  0  0  0  0  0  0  0  0
  162.3810  207.4560  152.2560 C   0  0  1  0  0  3  0  0  0  0  0  0
  160.3930  209.7400  154.3220 C   0  0  0  0  0  0  0  0  0  0  0  0
  161.2540  210.8080  153.7050 C   0  0  0  0  0  2  0  0  0  0  0  0
  163.0790  210.4010  152.1340 O   0  0  0  0  0  0  0  0  0  0  0  0
  160.4810  206.1330  153.2970 C   0  0  0  0  0  2  0  0  0  0  0  0
  161.9720  206.1340  152.9250 C   0  0  0  0  0  2  0  0  0  0  0  0
  162.1680  209.9610  152.8840 C   0  0  0  0  0  0  0  0  0  0  0  0
  160.1600  207.2200  154.3260 C   0  0  0  0  0  2  0  0  0  0  0  0
  159.2660  210.0300  155.2570 C   0  0  0  0  0  2  0  0  0  0  0  0
  158.9480  211.5220  155.2620 C   0  0  0  0  0  2  0  0  0  0  0  0
  154.9000  212.9470  157.2590 C   0  0  0  0  0  1  0  0  0  0  0  0
  156.6510  211.7890  156.2400 C   0  0  0  0  0  2  0  0  0  0  0  0
  157.4770  211.8190  154.9720 C   0  0  1  0  0  0  0  0  0  0  0  0
  157.2850  213.2190  154.4090 C   0  0  2  0  0  3  0  0  0  0  0  0
  156.9840  210.8490  154.0940 O   0  0  0  0  0  1  0  0  0  0  0  0
  155.6680  213.8480  154.9450 S   0  0  0  0  0  0  0  0  0  0  0  0
  155.3740  212.4380  155.9850 N   0  0  0  0  0  0  0  0  0  0  0  0
  157.5520  213.3780  152.9370 C   0  0  0  0  0  0  0  0  0  0  0  0
  156.5770  213.2950  152.1440 O   0  0  0  0  0  0  0  0  0  0  0  0
  158.8960  213.6370  152.3860 C   0  0  0  0  0  0  0  0  0  0  0  0
  159.1260  213.4790  151.0250 O   0  0  0  0  0  0  0  0  0  0  0  0
  159.8460  213.9990  153.1330 O   0  0  0  0  0  1  0  0  0  0  0  0
  161.6270  208.8180  148.0960 C   0  0  0  0  0  2  0  0  0  0  0  0
  161.9470  209.7910  149.2180 C   0  0  0  0  0  2  0  0  0  0  0  0
  162.7350  210.9740  148.6770 C   0  0  0  0  0  2  0  0  0  0  0  0
  162.3230  213.2130  147.7550 C   0  0  0  0  0  3  0  0  0  0  0  0
  161.8280  212.0860  148.2590 C   0  0  0  0  0  3  0  0  0  0  0  0
  161.4040  214.3140  147.3460 C   0  0  0  0  0  2  0  0  0  0  0  0
  158.4780  214.4510  147.7040 C   0  0  0  0  0  1  0  0  0  0  0  0
  156.7440  213.5170  145.5120 C   0  0  0  0  0  1  0  0  0  0  0  0
  160.1790  212.8760  144.0620 C   0  0  0  0  0  0  0  0  0  0  0  0
  161.0110  213.3220  145.0970 C   0  0  0  0  0  3  0  0  0  0  0  0
  158.7900  212.9500  144.2210 C   0  0  0  0  0  3  0  0  0  0  0  0
  159.0700  213.9100  146.4380 C   0  0  0  0  0  0  0  0  0  0  0  0
  158.2320  213.4610  145.3970 C   0  0  0  0  0  0  0  0  0  0  0  0
  160.4700  213.8340  146.2810 C   0  0  0  0  0  0  0  0  0  0  0  0
  162.1870  211.7320  141.1490 N   0  0  0  0  0  0  0  0  0  0  0  0
  160.0590  211.7140  141.9250 N   0  0  0  0  0  0  0  0  0  0  0  0
  160.9760  211.3550  140.9000 C   0  0  0  0  0  3  0  0  0  0  0  0
  160.7550  212.3300  142.8210 C   0  0  0  0  0  0  0  0  0  0  0  0
  162.1930  212.4150  142.4330 C   0  0  0  0  0  2  0  0  0  0  0  0
  1 38  1  1  0  0  0
  1 13  1  0  0  0  0
  2  1  1  6  0  0  0
  2  7  1  0  0  0  0
  3  4  2  0  0  0  0
  3  5  1  0  0  0  0
  4  2  1  0  0  0  0
  5  8  1  1  0  0  0
  5  6  1  0  0  0  0
  6  7  1  0  0  0  0
 10  8  1  6  0  0  0
 10  9  1  0  0  0  0
 11 10  1  0  0  0  0
 11  9  1  0  0  0  0
 13 12  2  0  0  0  0
 14 17  2  0  0  0  0
 14 23  1  0  0  0  0
 15 14  1  0  0  0  0
 16 12  1  6  0  0  0
 16 21  1  0  0  0  0
 16 15  1  0  0  0  0
 17 24  1  0  0  0  0
 18 17  1  0  0  0  0
 19 22  2  0  0  0  0
 20 23  1  0  0  0  0
 21 20  1  0  0  0  0
 22 15  1  0  0  0  0
 22 18  1  0  0  0  0
 24 25  1  0  0  0  0
 28 30  1  6  0  0  0
 28 25  1  0  0  0  0
 28 27  1  0  0  0  0
 29 33  1  6  0  0  0
 29 31  1  0  0  0  0
 29 28  1  0  0  0  0
 31 32  1  0  0  0  0
 32 27  1  0  0  0  0
 32 26  1  0  0  0  0
 34 33  2  0  0  0  0
 35 33  1  0  0  0  0
 35 37  1  0  0  0  0
 36 35  2  0  0  0  0
 38 39  1  0  0  0  0
 40 39  1  0  0  0  0
 41 42  2  0  0  0  0
 42 40  1  0  0  0  0
 43 41  1  0  0  0  0
 46 48  2  0  0  0  0
 46 47  1  0  0  0  0
 47 51  2  0  0  0  0
 48 50  1  0  0  0  0
 49 44  1  0  0  0  0
 50 45  1  0  0  0  0
 50 49  2  0  0  0  0
 51 49  1  0  0  0  0
 51 43  1  0  0  0  0
 52 56  1  0  0  0  0
 53 55  2  0  0  0  0
 54 52  2  0  0  0  0
 54 53  1  0  0  0  0
 55 46  1  0  0  0  0
 56 55  1  0  0  0  0
M  END
>  <MODEL>
3

>  <REMARK>
 VINA RESULT:      -5.3      4.035     10.925
  Name = 
  17 active torsions:
  status: ('A' for Active; 'I' for Inactive)
    1  A    between atoms: C_3  and  C_8
    2  A    between atoms: C_10  and  C_33
    3  A    between atoms: C_11  and  C_14
    4  A    between atoms: C_12  and  C_16
    5  A    between atoms: C_13  and  C_55
    6  A    between atoms: C_14  and  C_33
    7  A    between atoms: C_16  and  C_17
    8  A    between atoms: C_20  and  C_42
    9  A    between atoms: C_24  and  C_26
   10  A    between atoms: C_24  and  C_55
   11  A    between atoms: C_26  and  C_27
   12  A    between atoms: C_27  and  C_52
   13  A    between atoms: N_36  and  C_40
   14  A    between atoms: N_36  and  C_44
   15  A    between atoms: C_37  and  C_48
   16  A    between atoms: C_45  and  C_55
   17  A    between atoms: C_48  and  C_53
                            x       y       z     vdW  Elec       q    Type
                         _______ _______ _______ _____ _____    ______ ____

>  <TORSDO>
F 17

$$$$
=
 OpenBabel11052412103D

 56 62  0  0  1  0  0  0  0  0999 V2000
  158.8670  212.2050  152.1690 C   0  0  2  0  0  3  0  0  0  0  0  0
  158.8070  213.2440  153.3030 C   0  0  1  0  0  3  0  0  0  0  0  0
  156.7200  214.4080  153.9650 C   0  0  0  0  0  3  0  0  0  0  0  0
  157.7560  214.3230  153.1210 C   0  0  0  0  0  3  0  0  0  0  0  0
  156.6050  213.4850  155.1440 C   0  0  1  0  0  3  0  0  0  0  0  0
  157.4930  212.2540  154.9240 C   0  0  0  0  0  2  0  0  0  0  0  0
  158.8060  212.6490  154.5910 O   0  0  0  0  0  0  0  0  0  0  0  0
  157.0230  214.1880  156.3470 N   0  0  0  0  0  2  0  0  0  0  0  0
  154.6500  214.2330  156.4970 C   0  0  0  0  0  2  0  0  0  0  0  0
  155.8920  214.1970  157.2610 C   0  0  1  0  0  3  0  0  0  0  0  0
  155.1120  212.9640  157.0740 N   0  0  0  0  0  2  0  0  0  0  0  0
  160.3240  210.2220  152.3650 C   0  0  0  0  0  3  0  0  0  0  0  0
  160.2040  211.5280  152.1270 C   0  0  0  0  0  3  0  0  0  0  0  0
  161.5440  207.3480  151.0460 C   0  0  0  0  0  0  0  0  0  0  0  0
  161.5130  208.1120  152.2380 N   0  0  0  0  0  0  0  0  0  0  0  0
  161.6670  209.5640  152.3020 C   0  0  1  0  0  3  0  0  0  0  0  0
  161.1840  206.0830  151.2600 C   0  0  0  0  0  0  0  0  0  0  0  0
  160.7880  205.8650  152.6950 C   0  0  0  0  0  2  0  0  0  0  0  0
  160.8060  207.5860  154.4280 O   0  0  0  0  0  0  0  0  0  0  0  0
  161.8980  209.4530  149.7770 C   0  0  0  0  0  2  0  0  0  0  0  0
  162.4500  210.0580  151.0760 C   0  0  0  0  0  2  0  0  0  0  0  0
  161.0250  207.2340  153.2380 C   0  0  0  0  0  0  0  0  0  0  0  0
  162.0480  207.9290  149.7600 C   0  0  0  0  0  2  0  0  0  0  0  0
  161.1320  205.0120  150.2200 C   0  0  0  0  0  2  0  0  0  0  0  0
  161.4240  205.5950  148.8410 C   0  0  0  0  0  2  0  0  0  0  0  0
  160.9440  200.9830  147.8870 C   0  0  0  0  0  1  0  0  0  0  0  0
  161.6840  203.1370  148.3980 C   0  0  0  0  0  2  0  0  0  0  0  0
  161.7200  204.5240  147.7910 C   0  0  1  0  0  0  0  0  0  0  0  0
  160.6650  204.5030  146.6950 C   0  0  2  0  0  3  0  0  0  0  0  0
  162.9940  204.7480  147.2630 O   0  0  0  0  0  1  0  0  0  0  0  0
  160.4890  202.8010  146.0850 S   0  0  0  0  0  0  0  0  0  0  0  0
  161.5870  202.1570  147.3250 N   0  0  0  0  0  0  0  0  0  0  0  0
  160.8240  205.5340  145.6100 C   0  0  0  0  0  0  0  0  0  0  0  0
  159.9980  206.4830  145.5680 O   0  0  0  0  0  0  0  0  0  0  0  0
  161.9070  205.4870  144.6080 C   0  0  0  0  0  0  0  0  0  0  0  0
  161.6010  205.6070  143.2580 O   0  0  0  0  0  0  0  0  0  0  0  0
  163.1090  205.3370  144.9570 O   0  0  0  0  0  1  0  0  0  0  0  0
  158.5510  212.8190  150.8090 C   0  0  0  0  0  2  0  0  0  0  0  0
  159.8120  213.3640  150.1600 C   0  0  0  0  0  2  0  0  0  0  0  0
  159.4570  214.4470  149.1540 C   0  0  0  0  0  2  0  0  0  0  0  0
  159.7170  213.1110  147.1090 C   0  0  0  0  0  3  0  0  0  0  0  0
  158.9350  213.8590  147.8840 C   0  0  0  0  0  3  0  0  0  0  0  0
  159.1800  212.5340  145.8430 C   0  0  0  0  0  2  0  0  0  0  0  0
  161.8360  213.7190  146.3490 C   0  0  0  0  0  1  0  0  0  0  0  0
  163.8370  213.6680  144.1870 C   0  0  0  0  0  1  0  0  0  0  0  0
  160.8930  211.9870  142.5090 C   0  0  0  0  0  0  0  0  0  0  0  0
  159.9360  212.0020  143.5320 C   0  0  0  0  0  3  0  0  0  0  0  0
  162.1580  212.5360  142.7470 C   0  0  0  0  0  3  0  0  0  0  0  0
  161.5090  213.1120  145.0180 C   0  0  0  0  0  0  0  0  0  0  0  0
  162.4710  213.0980  143.9890 C   0  0  0  0  0  0  0  0  0  0  0  0
  160.2320  212.5610  144.7800 C   0  0  0  0  0  0  0  0  0  0  0  0
  159.5510  210.8630  139.2270 N   0  0  0  0  0  0  0  0  0  0  0  0
  161.3390  210.5620  140.5850 N   0  0  0  0  0  0  0  0  0  0  0  0
  160.6780  210.2450  139.3680 C   0  0  0  0  0  3  0  0  0  0  0  0
  160.5730  211.4030  141.1950 C   0  0  0  0  0  0  0  0  0  0  0  0
  159.3440  211.6950  140.4020 C   0  0  0  0  0  2  0  0  0  0  0  0
  1 38  1  6  0  0  0
  2  1  1  6  0  0  0
  2  7  1  0  0  0  0
  3  5  1  0  0  0  0
  4  2  1  0  0  0  0
  4  3  2  0  0  0  0
  5  8  1  1  0  0  0
  6  5  1  0  0  0  0
  7  6  1  0  0  0  0
  9 11  1  0  0  0  0
  9 10  1  0  0  0  0
 10  8  1  6  0  0  0
 11 10  1  0  0  0  0
 13  1  1  0  0  0  0
 13 12  2  0  0  0  0
 14 17  2  0  0  0  0
 14 15  1  0  0  0  0
 15 16  1  0  0  0  0
 15 22  1  0  0  0  0
 16 12  1  6  0  0  0
 17 18  1  0  0  0  0
 18 22  1  0  0  0  0
 20 21  1  0  0  0  0
 21 16  1  0  0  0  0
 22 19  2  0  0  0  0
 23 20  1  0  0  0  0
 23 14  1  0  0  0  0
 24 17  1  0  0  0  0
 25 24  1  0  0  0  0
 28 30  1  6  0  0  0
 28 27  1  0  0  0  0
 28 25  1  0  0  0  0
 29 33  1  6  0  0  0
 29 28  1  0  0  0  0
 31 29  1  0  0  0  0
 31 32  1  0  0  0  0
 32 26  1  0  0  0  0
 32 27  1  0  0  0  0
 34 33  2  0  0  0  0
 35 37  1  0  0  0  0
 35 33  1  0  0  0  0
 36 35  2  0  0  0  0
 39 38  1  0  0  0  0
 40 39  1  0  0  0  0
 41 42  2  0  0  0  0
 42 40  1  0  0  0  0
 43 41  1  0  0  0  0
 46 48  2  0  0  0  0
 46 47  1  0  0  0  0
 47 51  2  0  0  0  0
 48 50  1  0  0  0  0
 49 44  1  0  0  0  0
 50 45  1  0  0  0  0
 50 49  2  0  0  0  0
 51 49  1  0  0  0  0
 51 43  1  0  0  0  0
 52 54  2  0  0  0  0
 52 56  1  0  0  0  0
 53 55  2  0  0  0  0
 54 53  1  0  0  0  0
 55 46  1  0  0  0  0
 56 55  1  0  0  0  0
M  END
>  <MODEL>
4

>  <REMARK>
 VINA RESULT:      -4.8      3.311      8.543
  Name = 
  17 active torsions:
  status: ('A' for Active; 'I' for Inactive)
    1  A    between atoms: C_3  and  C_8
    2  A    between atoms: C_10  and  C_33
    3  A    between atoms: C_11  and  C_14
    4  A    between atoms: C_12  and  C_16
    5  A    between atoms: C_13  and  C_55
    6  A    between atoms: C_14  and  C_33
    7  A    between atoms: C_16  and  C_17
    8  A    between atoms: C_20  and  C_42
    9  A    between atoms: C_24  and  C_26
   10  A    between atoms: C_24  and  C_55
   11  A    between atoms: C_26  and  C_27
   12  A    between atoms: C_27  and  C_52
   13  A    between atoms: N_36  and  C_40
   14  A    between atoms: N_36  and  C_44
   15  A    between atoms: C_37  and  C_48
   16  A    between atoms: C_45  and  C_55
   17  A    between atoms: C_48  and  C_53
                            x       y       z     vdW  Elec       q    Type
                         _______ _______ _______ _____ _____    ______ ____

>  <TORSDO>
F 17

$$$$
=
 OpenBabel11052412103D

 56 62  0  0  1  0  0  0  0  0999 V2000
  162.1820  207.4230  148.4910 C   0  0  2  0  0  3  0  0  0  0  0  0
  161.1560  206.3210  148.1720 C   0  0  1  0  0  3  0  0  0  0  0  0
  161.0190  205.1970  145.9660 C   0  0  0  0  0  3  0  0  0  0  0  0
  160.7200  206.2610  146.7200 C   0  0  0  0  0  3  0  0  0  0  0  0
  161.7350  204.0120  146.5490 C   0  0  1  0  0  3  0  0  0  0  0  0
  162.4310  204.4220  147.8540 C   0  0  0  0  0  2  0  0  0  0  0  0
  161.5180  205.0620  148.7170 O   0  0  0  0  0  0  0  0  0  0  0  0
  160.7740  202.9530  146.8140 N   0  0  0  0  0  2  0  0  0  0  0  0
  160.0950  201.6750  148.7010 C   0  0  0  0  0  2  0  0  0  0  0  0
  161.2400  202.2260  147.9840 C   0  0  1  0  0  3  0  0  0  0  0  0
  160.8980  200.8020  147.8340 N   0  0  0  0  0  2  0  0  0  0  0  0
  161.7800  207.5680  150.9220 C   0  0  0  0  0  3  0  0  0  0  0  0
  162.6300  207.3450  149.9210 C   0  0  0  0  0  3  0  0  0  0  0  0
  160.6140  208.6280  153.9230 C   0  0  0  0  0  0  0  0  0  0  0  0
  161.7720  208.6200  153.1080 N   0  0  0  0  0  0  0  0  0  0  0  0
  162.2430  207.4680  152.3420 C   0  0  1  0  0  3  0  0  0  0  0  0
  160.3150  209.8570  154.3450 C   0  0  0  0  0  0  0  0  0  0  0  0
  161.2620  210.8750  153.7700 C   0  0  0  0  0  2  0  0  0  0  0  0
  163.1190  210.3660  152.2680 O   0  0  0  0  0  0  0  0  0  0  0  0
  160.2290  206.2560  153.2980 C   0  0  0  0  0  2  0  0  0  0  0  0
  161.7300  206.1700  152.9850 C   0  0  0  0  0  2  0  0  0  0  0  0
  162.1550  209.9780  152.9790 C   0  0  0  0  0  0  0  0  0  0  0  0
  159.9320  207.3560  154.3220 C   0  0  0  0  0  2  0  0  0  0  0  0
  159.1710  210.2090  155.2380 C   0  0  0  0  0  2  0  0  0  0  0  0
  159.3930  211.5800  155.8710 C   0  0  0  0  0  2  0  0  0  0  0  0
  159.1950  213.6490  151.6180 C   0  0  0  0  0  1  0  0  0  0  0  0
  159.5270  213.0700  153.8550 C   0  0  0  0  0  2  0  0  0  0  0  0
  158.7270  212.7120  155.0890 C   0  0  1  0  0  0  0  0  0  0  0  0
  157.3560  212.3080  154.5690 C   0  0  2  0  0  3  0  0  0  0  0  0
  158.6440  213.8400  155.9100 O   0  0  0  0  0  1  0  0  0  0  0  0
  157.0470  213.1740  153.0030 S   0  0  0  0  0  0  0  0  0  0  0  0
  158.6870  213.8560  152.9620 N   0  0  0  0  0  0  0  0  0  0  0  0
  156.2250  212.3970  155.5570 C   0  0  0  0  0  0  0  0  0  0  0  0
  155.8560  213.5400  155.9360 O   0  0  0  0  0  0  0  0  0  0  0  0
  155.5270  211.2120  156.0900 C   0  0  0  0  0  0  0  0  0  0  0  0
  155.3820  210.0810  155.2950 O   0  0  0  0  0  0  0  0  0  0  0  0
  155.0530  211.2070  157.2590 O   0  0  0  0  0  1  0  0  0  0  0  0
  161.6420  208.8170  148.1890 C   0  0  0  0  0  2  0  0  0  0  0  0
  162.0660  209.8020  149.2660 C   0  0  0  0  0  2  0  0  0  0  0  0
  162.2390  211.1890  148.6690 C   0  0  0  0  0  2  0  0  0  0  0  0
  160.8150  212.5650  147.2150 C   0  0  0  0  0  3  0  0  0  0  0  0
  161.3610  211.3800  147.4750 C   0  0  0  0  0  3  0  0  0  0  0  0
  159.9390  212.7370  146.0210 C   0  0  0  0  0  2  0  0  0  0  0  0
  162.3580  214.4240  145.9030 C   0  0  0  0  0  1  0  0  0  0  0  0
  163.9370  214.4520  143.4160 C   0  0  0  0  0  1  0  0  0  0  0  0
  161.1390  212.0820  142.4870 C   0  0  0  0  0  0  0  0  0  0  0  0
  160.3840  212.0580  143.6680 C   0  0  0  0  0  3  0  0  0  0  0  0
  162.2940  212.8700  142.4300 C   0  0  0  0  0  3  0  0  0  0  0  0
  161.9370  213.6060  144.7200 C   0  0  0  0  0  0  0  0  0  0  0  0
  162.6960  213.6300  143.5330 C   0  0  0  0  0  0  0  0  0  0  0  0
  160.7710  212.8130  144.7800 C   0  0  0  0  0  0  0  0  0  0  0  0
  160.6930  209.8820  139.5220 N   0  0  0  0  0  0  0  0  0  0  0  0
  159.5230  211.3050  140.8400 N   0  0  0  0  0  0  0  0  0  0  0  0
  159.5370  210.4210  139.7270 C   0  0  0  0  0  3  0  0  0  0  0  0
  160.7230  211.2900  141.3170 C   0  0  0  0  0  0  0  0  0  0  0  0
  161.6100  210.3820  140.5350 C   0  0  0  0  0  2  0  0  0  0  0  0
  1 38  1  1  0  0  0
  1 13  1  0  0  0  0
  2  1  1  6  0  0  0
  2  7  1  0  0  0  0
  3  5  1  0  0  0  0
  3  4  2  0  0  0  0
  4  2  1  0  0  0  0
  5  8  1  1  0  0  0
  5  6  1  0  0  0  0
  6  7  1  0  0  0  0
 10  8  1  6  0  0  0
 10  9  1  0  0  0  0
 11 10  1  0  0  0  0
 11  9  1  0  0  0  0
 13 12  2  0  0  0  0
 14 23  1  0  0  0  0
 14 17  2  0  0  0  0
 15 14  1  0  0  0  0
 16 12  1  6  0  0  0
 16 21  1  0  0  0  0
 16 15  1  0  0  0  0
 17 24  1  0  0  0  0
 18 17  1  0  0  0  0
 19 22  2  0  0  0  0
 20 23  1  0  0  0  0
 21 20  1  0  0  0  0
 22 15  1  0  0  0  0
 22 18  1  0  0  0  0
 24 25  1  0  0  0  0
 26 32  1  0  0  0  0
 27 28  1  0  0  0  0
 28 25  1  0  0  0  0
 28 30  1  1  0  0  0
 29 28  1  0  0  0  0
 29 33  1  1  0  0  0
 31 29  1  0  0  0  0
 32 31  1  0  0  0  0
 32 27  1  0  0  0  0
 33 34  2  0  0  0  0
 33 35  1  0  0  0  0
 35 37  1  0  0  0  0
 36 35  2  0  0  0  0
 38 39  1  0  0  0  0
 40 39  1  0  0  0  0
 41 42  2  0  0  0  0
 42 40  1  0  0  0  0
 43 41  1  0  0  0  0
 45 50  1  0  0  0  0
 46 47  1  0  0  0  0
 47 51  2  0  0  0  0
 48 46  2  0  0  0  0
 48 50  1  0  0  0  0
 49 51  1  0  0  0  0
 49 44  1  0  0  0  0
 50 49  2  0  0  0  0
 51 43  1  0  0  0  0
 52 54  2  0  0  0  0
 52 56  1  0  0  0  0
 53 55  2  0  0  0  0
 54 53  1  0  0  0  0
 55 46  1  0  0  0  0
 56 55  1  0  0  0  0
M  END
>  <MODEL>
5

>  <REMARK>
 VINA RESULT:      -4.7      4.030     11.216
  Name = 
  17 active torsions:
  status: ('A' for Active; 'I' for Inactive)
    1  A    between atoms: C_3  and  C_8
    2  A    between atoms: C_10  and  C_33
    3  A    between atoms: C_11  and  C_14
    4  A    between atoms: C_12  and  C_16
    5  A    between atoms: C_13  and  C_55
    6  A    between atoms: C_14  and  C_33
    7  A    between atoms: C_16  and  C_17
    8  A    between atoms: C_20  and  C_42
    9  A    between atoms: C_24  and  C_26
   10  A    between atoms: C_24  and  C_55
   11  A    between atoms: C_26  and  C_27
   12  A    between atoms: C_27  and  C_52
   13  A    between atoms: N_36  and  C_40
   14  A    between atoms: N_36  and  C_44
   15  A    between atoms: C_37  and  C_48
   16  A    between atoms: C_45  and  C_55
   17  A    between atoms: C_48  and  C_53
                            x       y       z     vdW  Elec       q    Type
                         _______ _______ _______ _____ _____    ______ ____

>  <TORSDO>
F 17

$$$$
=
 OpenBabel11052412103D

 56 62  0  0  1  0  0  0  0  0999 V2000
  161.5920  209.8020  149.3050 C   0  0  2  0  0  3  0  0  0  0  0  0
  162.3560  208.9520  148.2730 C   0  0  1  0  0  3  0  0  0  0  0  0
  162.8780  206.5520  148.6160 C   0  0  0  0  0  3  0  0  0  0  0  0
  163.1880  207.8300  148.8650 C   0  0  0  0  0  3  0  0  0  0  0  0
  161.7440  206.1960  147.6980 C   0  0  1  0  0  3  0  0  0  0  0  0
  160.8070  207.4010  147.5450 C   0  0  0  0  0  2  0  0  0  0  0  0
  161.5400  208.5510  147.1840 O   0  0  0  0  0  0  0  0  0  0  0  0
  162.2780  205.8190  146.3980 N   0  0  0  0  0  2  0  0  0  0  0  0
  160.4680  205.8940  144.8570 C   0  0  0  0  0  2  0  0  0  0  0  0
  161.2610  205.0290  145.7230 C   0  0  1  0  0  3  0  0  0  0  0  0
  161.5190  205.0490  144.2750 N   0  0  0  0  0  2  0  0  0  0  0  0
  160.8640  212.1470  149.5500 C   0  0  0  0  0  3  0  0  0  0  0  0
  161.2730  211.1600  148.7550 C   0  0  0  0  0  3  0  0  0  0  0  0
  160.1520  213.3700  146.4700 C   0  0  0  0  0  0  0  0  0  0  0  0
  160.9990  213.5670  147.5880 N   0  0  0  0  0  0  0  0  0  0  0  0
  160.5670  213.5000  148.9820 C   0  0  1  0  0  3  0  0  0  0  0  0
  160.8430  213.2930  145.3320 C   0  0  0  0  0  0  0  0  0  0  0  0
  162.3230  213.3710  145.5900 C   0  0  0  0  0  2  0  0  0  0  0  0
  163.3500  213.6190  147.7910 O   0  0  0  0  0  0  0  0  0  0  0  0
  158.2640  213.0020  148.0400 C   0  0  0  0  0  2  0  0  0  0  0  0
  159.0640  213.8050  149.0760 C   0  0  0  0  0  2  0  0  0  0  0  0
  162.3190  213.5360  147.0730 C   0  0  0  0  0  0  0  0  0  0  0  0
  158.6600  213.3800  146.6100 C   0  0  0  0  0  2  0  0  0  0  0  0
  160.2530  213.1120  143.9730 C   0  0  0  0  0  2  0  0  0  0  0  0
  161.2480  213.5390  142.8990 C   0  0  0  0  0  2  0  0  0  0  0  0
  158.1050  212.2670  139.5950 C   0  0  0  0  0  1  0  0  0  0  0  0
  159.6420  212.3910  141.3470 C   0  0  0  0  0  2  0  0  0  0  0  0
  161.0900  212.7570  141.5950 C   0  0  1  0  0  0  0  0  0  0  0  0
  161.4990  213.5870  140.3870 C   0  0  2  0  0  3  0  0  0  0  0  0
  161.8410  211.5810  141.6780 O   0  0  0  0  0  1  0  0  0  0  0  0
  160.4910  213.0830  138.9630 S   0  0  0  0  0  0  0  0  0  0  0  0
  159.4870  212.0020  139.9530 N   0  0  0  0  0  0  0  0  0  0  0  0
  162.9760  213.6540  140.1050 C   0  0  0  0  0  0  0  0  0  0  0  0
  163.6920  214.3650  140.8580 O   0  0  0  0  0  0  0  0  0  0  0  0
  163.6180  212.9180  139.0000 C   0  0  0  0  0  0  0  0  0  0  0  0
  163.8940  213.5710  137.8050 O   0  0  0  0  0  0  0  0  0  0  0  0
  163.9210  211.6990  139.1200 O   0  0  0  0  0  1  0  0  0  0  0  0
  162.3580  209.9380  150.6170 C   0  0  0  0  0  2  0  0  0  0  0  0
  161.4720  209.5700  151.7960 C   0  0  0  0  0  2  0  0  0  0  0  0
  161.7010  208.1190  152.1900 C   0  0  0  0  0  2  0  0  0  0  0  0
  161.0380  206.0400  151.0630 C   0  0  0  0  0  3  0  0  0  0  0  0
  160.6840  207.2190  151.5680 C   0  0  0  0  0  3  0  0  0  0  0  0
  160.0100  205.1560  150.4430 C   0  0  0  0  0  2  0  0  0  0  0  0
  161.3480  203.6810  152.6220 C   0  0  0  0  0  1  0  0  0  0  0  0
  162.3780  200.9770  152.0690 C   0  0  0  0  0  1  0  0  0  0  0  0
  160.9490  201.9260  148.6980 C   0  0  0  0  0  0  0  0  0  0  0  0
  160.4510  203.2110  148.9520 C   0  0  0  0  0  3  0  0  0  0  0  0
  161.5730  201.2180  149.7310 C   0  0  0  0  0  3  0  0  0  0  0  0
  161.2040  203.0710  151.2600 C   0  0  0  0  0  0  0  0  0  0  0  0
  161.7050  201.7790  151.0050 C   0  0  0  0  0  0  0  0  0  0  0  0
  160.5750  203.7890  150.2200 C   0  0  0  0  0  0  0  0  0  0  0  0
  160.3730  200.9750  145.1490 N   0  0  0  0  0  0  0  0  0  0  0  0
  161.1940  200.1220  147.0800 N   0  0  0  0  0  0  0  0  0  0  0  0
  160.9020  199.9340  145.7020 C   0  0  0  0  0  3  0  0  0  0  0  0
  160.8220  201.3270  147.3580 C   0  0  0  0  0  0  0  0  0  0  0  0
  160.2560  202.0130  146.1610 C   0  0  0  0  0  2  0  0  0  0  0  0
  1 13  1  6  0  0  0
  1 38  1  0  0  0  0
  2  4  1  0  0  0  0
  2  1  1  1  0  0  0
  3  4  2  0  0  0  0
  5  8  1  6  0  0  0
  5  3  1  0  0  0  0
  6  5  1  0  0  0  0
  7  6  1  0  0  0  0
  7  2  1  0  0  0  0
  9 10  1  0  0  0  0
 10  8  1  1  0  0  0
 11  9  1  0  0  0  0
 11 10  1  0  0  0  0
 13 12  2  0  0  0  0
 14 23  1  0  0  0  0
 14 15  1  0  0  0  0
 15 16  1  0  0  0  0
 16 21  1  0  0  0  0
 16 12  1  6  0  0  0
 17 18  1  0  0  0  0
 17 14  2  0  0  0  0
 18 22  1  0  0  0  0
 20 21  1  0  0  0  0
 22 15  1  0  0  0  0
 22 19  2  0  0  0  0
 23 20  1  0  0  0  0
 24 17  1  0  0  0  0
 25 24  1  0  0  0  0
 26 32  1  0  0  0  0
 27 28  1  0  0  0  0
 28 30  1  1  0  0  0
 28 25  1  0  0  0  0
 29 33  1  6  0  0  0
 29 28  1  0  0  0  0
 31 32  1  0  0  0  0
 31 29  1  0  0  0  0
 32 27  1  0  0  0  0
 33 34  2  0  0  0  0
 35 37  1  0  0  0  0
 35 33  1  0  0  0  0
 36 35  2  0  0  0  0
 38 39  1  0  0  0  0
 39 40  1  0  0  0  0
 41 42  2  0  0  0  0
 42 40  1  0  0  0  0
 43 41  1  0  0  0  0
 46 47  2  0  0  0  0
 46 48  1  0  0  0  0
 47 51  1  0  0  0  0
 48 50  2  0  0  0  0
 49 44  1  0  0  0  0
 50 49  1  0  0  0  0
 50 45  1  0  0  0  0
 51 43  1  0  0  0  0
 51 49  2  0  0  0  0
 52 54  2  0  0  0  0
 52 56  1  0  0  0  0
 53 55  2  0  0  0  0
 54 53  1  0  0  0  0
 55 46  1  0  0  0  0
 56 55  1  0  0  0  0
M  END
>  <MODEL>
6

>  <REMARK>
 VINA RESULT:      -3.9      3.194      5.018
  Name = 
  17 active torsions:
  status: ('A' for Active; 'I' for Inactive)
    1  A    between atoms: C_3  and  C_8
    2  A    between atoms: C_10  and  C_33
    3  A    between atoms: C_11  and  C_14
    4  A    between atoms: C_12  and  C_16
    5  A    between atoms: C_13  and  C_55
    6  A    between atoms: C_14  and  C_33
    7  A    between atoms: C_16  and  C_17
    8  A    between atoms: C_20  and  C_42
    9  A    between atoms: C_24  and  C_26
   10  A    between atoms: C_24  and  C_55
   11  A    between atoms: C_26  and  C_27
   12  A    between atoms: C_27  and  C_52
   13  A    between atoms: N_36  and  C_40
   14  A    between atoms: N_36  and  C_44
   15  A    between atoms: C_37  and  C_48
   16  A    between atoms: C_45  and  C_55
   17  A    between atoms: C_48  and  C_53
                            x       y       z     vdW  Elec       q    Type
                         _______ _______ _______ _____ _____    ______ ____

>  <TORSDO>
F 17

$$$$
=
 OpenBabel11052412103D

 56 62  0  0  1  0  0  0  0  0999 V2000
  161.9260  209.8550  149.7280 C   0  0  2  0  0  3  0  0  0  0  0  0
  162.5990  209.0240  148.6200 C   0  0  1  0  0  3  0  0  0  0  0  0
  162.8380  206.5580  148.7330 C   0  0  0  0  0  3  0  0  0  0  0  0
  163.2900  207.7630  149.1030 C   0  0  0  0  0  3  0  0  0  0  0  0
  161.6820  206.4250  147.7840 C   0  0  1  0  0  3  0  0  0  0  0  0
  160.8910  207.7380  147.7470 C   0  0  0  0  0  2  0  0  0  0  0  0
  161.7550  208.8250  147.4970 O   0  0  0  0  0  0  0  0  0  0  0  0
  162.1850  206.1130  146.4550 N   0  0  0  0  0  2  0  0  0  0  0  0
  160.1720  206.0320  145.1900 C   0  0  0  0  0  2  0  0  0  0  0  0
  161.2170  205.2320  145.8200 C   0  0  1  0  0  3  0  0  0  0  0  0
  161.2440  205.4570  144.3660 N   0  0  0  0  0  2  0  0  0  0  0  0
  160.8220  211.9360  148.9920 C   0  0  0  0  0  3  0  0  0  0  0  0
  161.9330  211.3150  149.3860 C   0  0  0  0  0  3  0  0  0  0  0  0
  160.0910  213.8280  146.2770 C   0  0  0  0  0  0  0  0  0  0  0  0
  161.0970  213.5980  147.2470 N   0  0  0  0  0  0  0  0  0  0  0  0
  160.8480  213.3980  148.6730 C   0  0  1  0  0  3  0  0  0  0  0  0
  160.5800  213.7790  145.0370 C   0  0  0  0  0  0  0  0  0  0  0  0
  162.0430  213.4270  145.0430 C   0  0  0  0  0  2  0  0  0  0  0  0
  163.3730  213.0070  147.0470 O   0  0  0  0  0  0  0  0  0  0  0  0
  158.3960  213.6850  148.0850 C   0  0  0  0  0  2  0  0  0  0  0  0
  159.5160  214.0580  149.0670 C   0  0  0  0  0  2  0  0  0  0  0  0
  162.2770  213.3210  146.5130 C   0  0  0  0  0  0  0  0  0  0  0  0
  158.6940  214.1960  146.6720 C   0  0  0  0  0  2  0  0  0  0  0  0
  159.7920  214.0000  143.7890 C   0  0  0  0  0  2  0  0  0  0  0  0
  159.6990  212.7080  142.9820 C   0  0  0  0  0  2  0  0  0  0  0  0
  162.6280  210.3720  140.0880 C   0  0  0  0  0  1  0  0  0  0  0  0
  161.5900  211.8390  141.5780 C   0  0  0  0  0  2  0  0  0  0  0  0
  160.4170  212.7940  141.6350 C   0  0  1  0  0  0  0  0  0  0  0  0
  159.5110  212.3770  140.4860 C   0  0  2  0  0  3  0  0  0  0  0  0
  160.8910  214.0970  141.4570 O   0  0  0  0  0  1  0  0  0  0  0  0
  160.5270  211.6120  139.1890 S   0  0  0  0  0  0  0  0  0  0  0  0
  161.9950  211.6750  140.1890 N   0  0  0  0  0  0  0  0  0  0  0  0
  158.5580  213.4280  139.9850 C   0  0  0  0  0  0  0  0  0  0  0  0
  157.6910  213.8720  140.7830 O   0  0  0  0  0  0  0  0  0  0  0  0
  158.6030  213.9650  138.6110 C   0  0  0  0  0  0  0  0  0  0  0  0
  157.4210  214.1510  137.9050 O   0  0  0  0  0  0  0  0  0  0  0  0
  159.7000  214.2580  138.0630 O   0  0  0  0  0  1  0  0  0  0  0  0
  162.5790  209.6350  151.0880 C   0  0  0  0  0  2  0  0  0  0  0  0
  161.5240  209.4220  152.1620 C   0  0  0  0  0  2  0  0  0  0  0  0
  161.4410  207.9490  152.5290 C   0  0  0  0  0  2  0  0  0  0  0  0
  160.8560  205.8970  151.3110 C   0  0  0  0  0  3  0  0  0  0  0  0
  160.6210  207.1870  151.5400 C   0  0  0  0  0  3  0  0  0  0  0  0
  160.0290  205.1530  150.3180 C   0  0  0  0  0  2  0  0  0  0  0  0
  161.3270  203.6930  152.5310 C   0  0  0  0  0  1  0  0  0  0  0  0
  162.3300  200.9690  152.0250 C   0  0  0  0  0  1  0  0  0  0  0  0
  160.9460  201.8890  148.6270 C   0  0  0  0  0  0  0  0  0  0  0  0
  160.4620  203.1830  148.8590 C   0  0  0  0  0  3  0  0  0  0  0  0
  161.5520  201.1870  149.6760 C   0  0  0  0  0  3  0  0  0  0  0  0
  161.1890  203.0660  151.1760 C   0  0  0  0  0  0  0  0  0  0  0  0
  161.6770  201.7640  150.9430 C   0  0  0  0  0  0  0  0  0  0  0  0
  160.5800  203.7760  150.1200 C   0  0  0  0  0  0  0  0  0  0  0  0
  160.9070  199.8220  145.5360 N   0  0  0  0  0  0  0  0  0  0  0  0
  160.3300  201.8860  146.2710 N   0  0  0  0  0  0  0  0  0  0  0  0
  160.3950  200.9590  145.1950 C   0  0  0  0  0  3  0  0  0  0  0  0
  160.8250  201.2730  147.2940 C   0  0  0  0  0  0  0  0  0  0  0  0
  161.2510  199.8870  146.9470 C   0  0  0  0  0  2  0  0  0  0  0  0
  1 13  1  6  0  0  0
  1 38  1  0  0  0  0
  2  4  1  0  0  0  0
  2  1  1  1  0  0  0
  3  4  2  0  0  0  0
  5  8  1  6  0  0  0
  5  3  1  0  0  0  0
  6  5  1  0  0  0  0
  7  6  1  0  0  0  0
  7  2  1  0  0  0  0
  9 10  1  0  0  0  0
 10  8  1  1  0  0  0
 11  9  1  0  0  0  0
 11 10  1  0  0  0  0
 12 13  2  0  0  0  0
 14 23  1  0  0  0  0
 14 15  1  0  0  0  0
 15 16  1  0  0  0  0
 16 12  1  6  0  0  0
 16 21  1  0  0  0  0
 17 18  1  0  0  0  0
 17 14  2  0  0  0  0
 18 22  1  0  0  0  0
 20 21  1  0  0  0  0
 22 19  2  0  0  0  0
 22 15  1  0  0  0  0
 23 20  1  0  0  0  0
 24 17  1  0  0  0  0
 25 24  1  0  0  0  0
 26 32  1  0  0  0  0
 27 28  1  0  0  0  0
 28 30  1  6  0  0  0
 28 25  1  0  0  0  0
 29 33  1  6  0  0  0
 29 28  1  0  0  0  0
 31 32  1  0  0  0  0
 31 29  1  0  0  0  0
 32 27  1  0  0  0  0
 33 34  2  0  0  0  0
 35 33  1  0  0  0  0
 36 35  2  0  0  0  0
 37 35  1  0  0  0  0
 38 39  1  0  0  0  0
 39 40  1  0  0  0  0
 41 42  2  0  0  0  0
 42 40  1  0  0  0  0
 43 41  1  0  0  0  0
 46 47  2  0  0  0  0
 46 48  1  0  0  0  0
 47 51  1  0  0  0  0
 48 50  2  0  0  0  0
 49 44  1  0  0  0  0
 50 49  1  0  0  0  0
 50 45  1  0  0  0  0
 51 43  1  0  0  0  0
 51 49  2  0  0  0  0
 52 56  1  0  0  0  0
 53 55  2  0  0  0  0
 54 52  2  0  0  0  0
 54 53  1  0  0  0  0
 55 46  1  0  0  0  0
 56 55  1  0  0  0  0
M  END
>  <MODEL>
7

>  <REMARK>
 VINA RESULT:      -3.8      3.379      5.256
  Name = 
  17 active torsions:
  status: ('A' for Active; 'I' for Inactive)
    1  A    between atoms: C_3  and  C_8
    2  A    between atoms: C_10  and  C_33
    3  A    between atoms: C_11  and  C_14
    4  A    between atoms: C_12  and  C_16
    5  A    between atoms: C_13  and  C_55
    6  A    between atoms: C_14  and  C_33
    7  A    between atoms: C_16  and  C_17
    8  A    between atoms: C_20  and  C_42
    9  A    between atoms: C_24  and  C_26
   10  A    between atoms: C_24  and  C_55
   11  A    between atoms: C_26  and  C_27
   12  A    between atoms: C_27  and  C_52
   13  A    between atoms: N_36  and  C_40
   14  A    between atoms: N_36  and  C_44
   15  A    between atoms: C_37  and  C_48
   16  A    between atoms: C_45  and  C_55
   17  A    between atoms: C_48  and  C_53
                            x       y       z     vdW  Elec       q    Type
                         _______ _______ _______ _____ _____    ______ ____

>  <TORSDO>
F 17

$$$$
