=
 OpenBabel11042421123D

 32 35  0  0  1  0  0  0  0  0999 V2000
  161.2490  208.3660  151.6430 C   0  0  0  0  0  0  0  0  0  0  0  0
  161.3050  210.9710  151.2490 S   0  0  0  0  0  0  0  0  0  0  0  0
  161.0130  209.5260  152.2450 C   0  0  0  0  0  0  0  0  0  0  0  0
  162.2170  209.9250  150.0630 C   0  0  1  0  0  3  0  0  0  0  0  0
  161.8340  208.4650  150.2760 C   0  0  1  0  0  3  0  0  0  0  0  0
  162.9690  207.6790  150.1840 F   0  0  0  0  0  0  0  0  0  0  0  0
  161.9710  210.3660  148.6260 C   0  0  0  0  0  2  0  0  0  0  0  0
  162.3210  211.7670  148.4420 N   0  0  0  0  0  2  0  0  0  0  0  0
  162.0300  214.3480  147.4440 S   0  0  0  0  0  1  0  0  0  0  0  0
  161.5430  212.6400  147.6250 C   0  0  0  0  0  0  0  0  0  0  0  0
  160.5170  212.2170  147.0290 O   0  0  0  0  0  0  0  0  0  0  0  0
  160.4410  209.6450  153.5550 N   0  0  0  0  0  2  0  0  0  0  0  0
  161.8610  208.4960  156.8230 C   0  0  0  0  0  3  0  0  0  0  0  0
  162.0100  210.6790  155.1190 C   0  0  0  0  0  3  0  0  0  0  0  0
  162.7320  210.6500  156.2720 N   0  0  0  0  0  0  0  0  0  0  0  0
  161.1120  208.5070  155.6470 C   0  0  0  0  0  3  0  0  0  0  0  0
  161.1710  209.6120  154.7880 C   0  0  0  0  0  0  0  0  0  0  0  0
  162.6730  209.5910  157.1230 C   0  0  0  0  0  3  0  0  0  0  0  0
  160.8460  207.1210  152.2230 N   0  0  0  0  0  2  0  0  0  0  0  0
  161.7670  204.8090  152.1790 C   0  0  1  0  0  3  0  0  0  0  0  0
  161.7790  206.1900  152.8440 C   0  0  2  0  0  3  0  0  0  0  0  0
  161.0040  205.0460  153.4660 C   0  0  0  0  0  2  0  0  0  0  0  0
  160.7940  204.6890  151.0060 C   0  0  0  0  0  2  0  0  0  0  0  0
  161.0010  203.4600  150.3200 O   0  0  0  0  0  0  0  0  0  0  0  0
  161.4990  204.4560  148.1440 C   0  0  0  0  0  3  0  0  0  0  0  0
  161.5770  204.3200  146.7580 C   0  0  0  0  0  0  0  0  0  0  0  0
  161.0840  203.3680  148.9270 C   0  0  0  0  0  0  0  0  0  0  0  0
  161.3080  202.9420  144.8180 F   0  0  0  0  0  0  0  0  0  0  0  0
  160.8310  202.0380  146.9710 C   0  0  0  0  0  3  0  0  0  0  0  0
  160.7630  202.1920  148.3210 N   0  0  0  0  0  0  0  0  0  0  0  0
  161.2400  203.1010  146.1630 C   0  0  0  0  0  0  0  0  0  0  0  0
  162.1000  205.6820  145.7870 Cl  0  0  0  0  0  0  0  0  0  0  0  0
  1 19  1  0  0  0  0
  1  3  2  0  0  0  0
  2  3  1  0  0  0  0
  3 12  1  0  0  0  0
  4  7  1  6  0  0  0
  4  5  1  0  0  0  0
  4  2  1  0  0  0  0
  5  6  1  1  0  0  0
  5  1  1  0  0  0  0
  8  7  1  0  0  0  0
  9 10  1  0  0  0  0
 10  8  1  0  0  0  0
 11 10  2  0  0  0  0
 12 17  1  0  0  0  0
 13 18  1  0  0  0  0
 14 15  1  0  0  0  0
 15 18  2  0  0  0  0
 16 13  2  0  0  0  0
 17 14  2  0  0  0  0
 17 16  1  0  0  0  0
 20 23  1  6  0  0  0
 20 21  1  0  0  0  0
 20 22  1  0  0  0  0
 21 19  1  6  0  0  0
 21 22  1  0  0  0  0
 24 23  1  0  0  0  0
 25 27  1  0  0  0  0
 26 25  2  0  0  0  0
 27 24  1  0  0  0  0
 28 31  1  0  0  0  0
 29 30  1  0  0  0  0
 30 27  2  0  0  0  0
 31 26  1  0  0  0  0
 31 29  2  0  0  0  0
 32 26  1  0  0  0  0
M  END
>  <MODEL>
1

>  <REMARK>
 VINA RESULT:      -7.8      0.000      0.000
  Name = 
  9 active torsions:
  status: ('A' for Active; 'I' for Inactive)
    1  A    between atoms: C_3  and  O_8
    2  A    between atoms: C_4  and  C_20
    3  A    between atoms: N_5  and  C_9
    4  A    between atoms: C_6  and  N_30
    5  A    between atoms: O_8  and  C_20
    6  A    between atoms: C_9  and  C_23
    7  A    between atoms: C_13  and  N_30
    8  A    between atoms: N_17  and  C_22
    9  A    between atoms: N_17  and  C_26
                            x       y       z     vdW  Elec       q    Type
                         _______ _______ _______ _____ _____    ______ ____

>  <TORSDO>
F 9

$$$$
=
 OpenBabel11042421123D

 32 35  0  0  1  0  0  0  0  0999 V2000
  162.2670  207.9920  150.5920 C   0  0  0  0  0  0  0  0  0  0  0  0
  161.8740  209.1810  148.2740 S   0  0  0  0  0  0  0  0  0  0  0  0
  162.0200  207.7440  149.3120 C   0  0  0  0  0  0  0  0  0  0  0  0
  161.7220  210.2060  149.7760 C   0  0  1  0  0  3  0  0  0  0  0  0
  162.2610  209.4330  150.9740 C   0  0  1  0  0  3  0  0  0  0  0  0
  161.4290  209.6370  152.0590 F   0  0  0  0  0  0  0  0  0  0  0  0
  162.4260  211.5470  149.6110 C   0  0  0  0  0  2  0  0  0  0  0  0
  162.2690  212.0550  148.2550 N   0  0  0  0  0  2  0  0  0  0  0  0
  161.0890  213.5410  146.2200 S   0  0  0  0  0  1  0  0  0  0  0  0
  161.2220  212.9570  147.9020 C   0  0  0  0  0  0  0  0  0  0  0  0
  160.3900  213.3460  148.7650 O   0  0  0  0  0  0  0  0  0  0  0  0
  161.9950  206.4260  148.7440 N   0  0  0  0  0  2  0  0  0  0  0  0
  162.5470  205.1860  145.2550 C   0  0  0  0  0  3  0  0  0  0  0  0
  160.5600  206.3950  146.7650 C   0  0  0  0  0  3  0  0  0  0  0  0
  160.3440  206.0850  145.4580 N   0  0  0  0  0  0  0  0  0  0  0  0
  162.7880  205.4980  146.5930 C   0  0  0  0  0  3  0  0  0  0  0  0
  161.7940  206.1210  147.3580 C   0  0  0  0  0  0  0  0  0  0  0  0
  161.3050  205.4940  144.6980 C   0  0  0  0  0  3  0  0  0  0  0  0
  162.6380  206.9530  151.5040 N   0  0  0  0  0  2  0  0  0  0  0  0
  161.4590  205.1410  152.7360 C   0  0  1  0  0  3  0  0  0  0  0  0
  161.8640  206.6190  152.6930 C   0  0  2  0  0  3  0  0  0  0  0  0
  160.4710  206.1940  152.2780 C   0  0  0  0  0  2  0  0  0  0  0  0
  161.9480  204.3230  151.5420 C   0  0  0  0  0  2  0  0  0  0  0  0
  160.8400  203.8210  150.8030 O   0  0  0  0  0  0  0  0  0  0  0  0
  160.8400  203.0110  148.4970 C   0  0  0  0  0  3  0  0  0  0  0  0
  160.9640  201.9450  147.6060 C   0  0  0  0  0  0  0  0  0  0  0  0
  160.9490  202.7790  149.8770 C   0  0  0  0  0  0  0  0  0  0  0  0
  161.3200  199.6040  147.2520 F   0  0  0  0  0  0  0  0  0  0  0  0
  161.2990  200.4610  149.4750 C   0  0  0  0  0  3  0  0  0  0  0  0
  161.1760  201.5140  150.3270 N   0  0  0  0  0  0  0  0  0  0  0  0
  161.1950  200.6570  148.0960 C   0  0  0  0  0  0  0  0  0  0  0  0
  160.8300  202.2430  145.8840 Cl  0  0  0  0  0  0  0  0  0  0  0  0
  1  5  1  0  0  0  0
  1 19  1  0  0  0  0
  2  3  1  0  0  0  0
  2  4  1  0  0  0  0
  3  1  2  0  0  0  0
  4  7  1  6  0  0  0
  4  5  1  0  0  0  0
  5  6  1  1  0  0  0
  8  7  1  0  0  0  0
  9 10  1  0  0  0  0
 10  8  1  0  0  0  0
 10 11  2  0  0  0  0
 12  3  1  0  0  0  0
 13 16  1  0  0  0  0
 14 17  1  0  0  0  0
 15 14  2  0  0  0  0
 16 17  2  0  0  0  0
 17 12  1  0  0  0  0
 18 13  2  0  0  0  0
 18 15  1  0  0  0  0
 20 23  1  6  0  0  0
 21 19  1  6  0  0  0
 21 20  1  0  0  0  0
 22 21  1  0  0  0  0
 22 20  1  0  0  0  0
 24 23  1  0  0  0  0
 25 27  1  0  0  0  0
 26 31  1  0  0  0  0
 26 25  2  0  0  0  0
 27 30  2  0  0  0  0
 27 24  1  0  0  0  0
 28 31  1  0  0  0  0
 29 30  1  0  0  0  0
 31 29  2  0  0  0  0
 32 26  1  0  0  0  0
M  END
>  <MODEL>
2

>  <REMARK>
 VINA RESULT:      -7.3      2.726      5.224
  Name = 
  9 active torsions:
  status: ('A' for Active; 'I' for Inactive)
    1  A    between atoms: C_3  and  O_8
    2  A    between atoms: C_4  and  C_20
    3  A    between atoms: N_5  and  C_9
    4  A    between atoms: C_6  and  N_30
    5  A    between atoms: O_8  and  C_20
    6  A    between atoms: C_9  and  C_23
    7  A    between atoms: C_13  and  N_30
    8  A    between atoms: N_17  and  C_22
    9  A    between atoms: N_17  and  C_26
                            x       y       z     vdW  Elec       q    Type
                         _______ _______ _______ _____ _____    ______ ____

>  <TORSDO>
F 9

$$$$
=
 OpenBabel11042421123D

 32 35  0  0  1  0  0  0  0  0999 V2000
  161.1640  206.0710  150.4450 C   0  0  0  0  0  0  0  0  0  0  0  0
  161.2250  208.4190  149.2510 S   0  0  0  0  0  0  0  0  0  0  0  0
  160.8730  206.6760  149.3000 C   0  0  0  0  0  0  0  0  0  0  0  0
  161.3900  208.4000  151.0690 C   0  0  1  0  0  3  0  0  0  0  0  0
  161.6240  206.9690  151.5420 C   0  0  1  0  0  3  0  0  0  0  0  0
  160.8840  206.7430  152.6880 F   0  0  0  0  0  0  0  0  0  0  0  0
  162.4980  209.3340  151.5390 C   0  0  0  0  0  2  0  0  0  0  0  0
  162.1840  209.9020  152.8430 N   0  0  0  0  0  2  0  0  0  0  0  0
  160.7660  211.4630  154.6590 S   0  0  0  0  0  1  0  0  0  0  0  0
  161.0950  210.8040  153.0320 C   0  0  0  0  0  0  0  0  0  0  0  0
  160.3630  211.1410  152.0630 O   0  0  0  0  0  0  0  0  0  0  0  0
  160.4280  205.9870  148.1230 N   0  0  0  0  0  2  0  0  0  0  0  0
  163.2230  204.7020  145.9890 C   0  0  0  0  0  3  0  0  0  0  0  0
  160.7740  205.9720  145.7020 C   0  0  0  0  0  3  0  0  0  0  0  0
  161.5210  205.6550  144.6100 N   0  0  0  0  0  0  0  0  0  0  0  0
  162.4720  205.0200  147.1210 C   0  0  0  0  0  3  0  0  0  0  0  0
  161.2410  205.6740  146.9850 C   0  0  0  0  0  0  0  0  0  0  0  0
  162.7260  205.0340  144.7270 C   0  0  0  0  0  3  0  0  0  0  0  0
  161.1570  204.6450  150.5680 N   0  0  0  0  0  2  0  0  0  0  0  0
  161.5700  202.4190  151.6010 C   0  0  1  0  0  3  0  0  0  0  0  0
  161.7940  203.9340  151.6680 C   0  0  2  0  0  3  0  0  0  0  0  0
  160.7290  203.2790  152.5230 C   0  0  0  0  0  2  0  0  0  0  0  0
  160.7380  201.9630  150.4040 C   0  0  0  0  0  2  0  0  0  0  0  0
  161.5640  201.2990  149.4550 O   0  0  0  0  0  0  0  0  0  0  0  0
  161.4530  199.9410  147.4260 C   0  0  0  0  0  3  0  0  0  0  0  0
  161.0750  199.8210  146.0880 C   0  0  0  0  0  0  0  0  0  0  0  0
  161.2100  201.1410  148.1110 C   0  0  0  0  0  0  0  0  0  0  0  0
  160.0820  200.8080  144.1450 F   0  0  0  0  0  0  0  0  0  0  0  0
  160.2320  202.0780  146.1550 C   0  0  0  0  0  3  0  0  0  0  0  0
  160.6070  202.1730  147.4590 N   0  0  0  0  0  0  0  0  0  0  0  0
  160.4600  200.8980  145.4440 C   0  0  0  0  0  0  0  0  0  0  0  0
  161.3780  198.3180  145.2400 Cl  0  0  0  0  0  0  0  0  0  0  0  0
  1 19  1  0  0  0  0
  1  5  1  0  0  0  0
  2  3  1  0  0  0  0
  2  4  1  0  0  0  0
  3  1  2  0  0  0  0
  4  7  1  6  0  0  0
  4  5  1  0  0  0  0
  5  6  1  1  0  0  0
  7  8  1  0  0  0  0
  8 10  1  0  0  0  0
 10  9  1  0  0  0  0
 11 10  2  0  0  0  0
 12  3  1  0  0  0  0
 13 16  1  0  0  0  0
 14 17  1  0  0  0  0
 15 18  1  0  0  0  0
 15 14  2  0  0  0  0
 17 16  2  0  0  0  0
 17 12  1  0  0  0  0
 18 13  2  0  0  0  0
 20 23  1  6  0  0  0
 20 21  1  0  0  0  0
 20 22  1  0  0  0  0
 21 19  1  6  0  0  0
 21 22  1  0  0  0  0
 24 23  1  0  0  0  0
 25 27  1  0  0  0  0
 26 25  2  0  0  0  0
 27 24  1  0  0  0  0
 28 31  1  0  0  0  0
 29 30  1  0  0  0  0
 30 27  2  0  0  0  0
 31 26  1  0  0  0  0
 31 29  2  0  0  0  0
 32 26  1  0  0  0  0
M  END
>  <MODEL>
3

>  <REMARK>
 VINA RESULT:      -7.1      3.212      6.001
  Name = 
  9 active torsions:
  status: ('A' for Active; 'I' for Inactive)
    1  A    between atoms: C_3  and  O_8
    2  A    between atoms: C_4  and  C_20
    3  A    between atoms: N_5  and  C_9
    4  A    between atoms: C_6  and  N_30
    5  A    between atoms: O_8  and  C_20
    6  A    between atoms: C_9  and  C_23
    7  A    between atoms: C_13  and  N_30
    8  A    between atoms: N_17  and  C_22
    9  A    between atoms: N_17  and  C_26
                            x       y       z     vdW  Elec       q    Type
                         _______ _______ _______ _____ _____    ______ ____

>  <TORSDO>
F 9

$$$$
=
 OpenBabel11042421123D

 32 35  0  0  1  0  0  0  0  0999 V2000
  161.2790  208.4030  151.6740 C   0  0  0  0  0  0  0  0  0  0  0  0
  161.4190  210.9980  151.2400 S   0  0  0  0  0  0  0  0  0  0  0  0
  161.1130  209.5780  152.2670 C   0  0  0  0  0  0  0  0  0  0  0  0
  162.2410  209.9030  150.0330 C   0  0  1  0  0  3  0  0  0  0  0  0
  161.8110  208.4610  150.2830 C   0  0  1  0  0  3  0  0  0  0  0  0
  162.9100  207.6310  150.1550 F   0  0  0  0  0  0  0  0  0  0  0  0
  161.9530  210.3350  148.6010 C   0  0  0  0  0  2  0  0  0  0  0  0
  162.2190  211.7550  148.4210 N   0  0  0  0  0  2  0  0  0  0  0  0
  161.7500  214.3250  147.4640 S   0  0  0  0  0  1  0  0  0  0  0  0
  161.3640  212.5910  147.6430 C   0  0  0  0  0  0  0  0  0  0  0  0
  160.3400  212.1180  147.0810 O   0  0  0  0  0  0  0  0  0  0  0  0
  160.6000  209.7350  153.5980 N   0  0  0  0  0  2  0  0  0  0  0  0
  158.0300  212.3920  154.1970 C   0  0  0  0  0  3  0  0  0  0  0  0
  160.5510  211.6660  155.0980 C   0  0  0  0  0  3  0  0  0  0  0  0
  159.9230  212.7600  155.6070 N   0  0  0  0  0  0  0  0  0  0  0  0
  158.6590  211.2680  153.6620 C   0  0  0  0  0  3  0  0  0  0  0  0
  159.9380  210.9030  154.1020 C   0  0  0  0  0  0  0  0  0  0  0  0
  158.6880  213.1360  155.1790 C   0  0  0  0  0  3  0  0  0  0  0  0
  160.8540  207.1810  152.2860 N   0  0  0  0  0  2  0  0  0  0  0  0
  161.8790  204.9290  152.0240 C   0  0  1  0  0  3  0  0  0  0  0  0
  161.7770  206.2100  152.8590 C   0  0  2  0  0  3  0  0  0  0  0  0
  161.0090  204.9690  153.2640 C   0  0  0  0  0  2  0  0  0  0  0  0
  161.0070  204.9290  150.7700 C   0  0  0  0  0  2  0  0  0  0  0  0
  161.3420  203.8260  149.9370 O   0  0  0  0  0  0  0  0  0  0  0  0
  161.0230  202.7850  147.7480 C   0  0  0  0  0  3  0  0  0  0  0  0
  161.0330  202.9010  146.3580 C   0  0  0  0  0  0  0  0  0  0  0  0
  161.3500  203.8970  148.5400 C   0  0  0  0  0  0  0  0  0  0  0  0
  161.3880  204.2620  144.4200 F   0  0  0  0  0  0  0  0  0  0  0  0
  161.6900  205.2090  146.5850 C   0  0  0  0  0  3  0  0  0  0  0  0
  161.6730  205.0740  147.9390 N   0  0  0  0  0  0  0  0  0  0  0  0
  161.3710  204.1220  145.7680 C   0  0  0  0  0  0  0  0  0  0  0  0
  160.6200  201.5100  145.3760 Cl  0  0  0  0  0  0  0  0  0  0  0  0
  1  3  2  0  0  0  0
  1 19  1  0  0  0  0
  2  3  1  0  0  0  0
  3 12  1  0  0  0  0
  4  7  1  6  0  0  0
  4  5  1  0  0  0  0
  4  2  1  0  0  0  0
  5  6  1  1  0  0  0
  5  1  1  0  0  0  0
  8  7  1  0  0  0  0
  9 10  1  0  0  0  0
 10  8  1  0  0  0  0
 11 10  2  0  0  0  0
 12 17  1  0  0  0  0
 13 18  1  0  0  0  0
 14 15  1  0  0  0  0
 16 17  1  0  0  0  0
 16 13  2  0  0  0  0
 17 14  2  0  0  0  0
 18 15  2  0  0  0  0
 20 23  1  6  0  0  0
 20 21  1  0  0  0  0
 20 22  1  0  0  0  0
 21 19  1  6  0  0  0
 21 22  1  0  0  0  0
 24 23  1  0  0  0  0
 25 27  1  0  0  0  0
 26 25  2  0  0  0  0
 27 24  1  0  0  0  0
 28 31  1  0  0  0  0
 29 30  1  0  0  0  0
 30 27  2  0  0  0  0
 31 26  1  0  0  0  0
 31 29  2  0  0  0  0
 32 26  1  0  0  0  0
M  END
>  <MODEL>
4

>  <REMARK>
 VINA RESULT:      -7.1      1.772      2.210
  Name = 
  9 active torsions:
  status: ('A' for Active; 'I' for Inactive)
    1  A    between atoms: C_3  and  O_8
    2  A    between atoms: C_4  and  C_20
    3  A    between atoms: N_5  and  C_9
    4  A    between atoms: C_6  and  N_30
    5  A    between atoms: O_8  and  C_20
    6  A    between atoms: C_9  and  C_23
    7  A    between atoms: C_13  and  N_30
    8  A    between atoms: N_17  and  C_22
    9  A    between atoms: N_17  and  C_26
                            x       y       z     vdW  Elec       q    Type
                         _______ _______ _______ _____ _____    ______ ____

>  <TORSDO>
F 9

$$$$
=
 OpenBabel11042421123D

 32 35  0  0  1  0  0  0  0  0999 V2000
  161.8490  208.8740  149.2850 C   0  0  0  0  0  0  0  0  0  0  0  0
  161.2550  206.3550  149.7770 S   0  0  0  0  0  0  0  0  0  0  0  0
  161.6540  207.7040  148.6890 C   0  0  0  0  0  0  0  0  0  0  0  0
  161.8100  207.3740  151.1860 C   0  0  1  0  0  3  0  0  0  0  0  0
  161.8240  208.8420  150.7750 C   0  0  1  0  0  3  0  0  0  0  0  0
  162.9580  209.4470  151.2860 F   0  0  0  0  0  0  0  0  0  0  0  0
  160.9440  207.1440  152.4180 C   0  0  0  0  0  2  0  0  0  0  0  0
  161.0700  208.2480  153.3590 N   0  0  0  0  0  2  0  0  0  0  0  0
  160.9770  209.4850  155.8500 S   0  0  0  0  0  1  0  0  0  0  0  0
  160.8020  208.0880  154.7510 C   0  0  0  0  0  0  0  0  0  0  0  0
  160.4410  206.9730  155.2130 O   0  0  0  0  0  0  0  0  0  0  0  0
  161.6280  207.5270  147.2650 N   0  0  0  0  0  0  0  0  0  0  0  0
  162.2260  203.9630  146.2880 C   0  0  0  0  0  3  0  0  0  0  0  0
  160.6020  206.0940  145.5710 C   0  0  0  0  0  3  0  0  0  0  0  0
  160.4930  204.8960  144.9350 N   0  0  0  0  0  0  0  0  0  0  0  0
  162.3540  205.1840  146.9510 C   0  0  0  0  0  3  0  0  0  0  0  0
  161.5470  206.2690  146.5850 C   0  0  0  0  0  0  0  0  0  0  0  0
  161.2800  203.8380  145.2690 C   0  0  0  0  0  3  0  0  0  0  0  0
  161.9480  210.0930  148.5410 N   0  0  0  0  0  0  0  0  0  0  0  0
  161.4180  212.5210  148.4390 C   0  0  1  0  0  3  0  0  0  0  0  0
  162.1610  211.3940  149.1620 C   0  0  2  0  0  3  0  0  0  0  0  0
  162.8950  212.2960  148.1920 C   0  0  0  0  0  2  0  0  0  0  0  0
  160.6060  212.0610  147.2300 C   0  0  0  0  0  2  0  0  0  0  0  0
  160.5830  213.0780  146.2350 O   0  0  0  0  0  0  0  0  0  0  0  0
  160.3400  212.4040  143.8990 C   0  0  0  0  0  3  0  0  0  0  0  0
  160.9080  212.2560  142.6330 C   0  0  0  0  0  0  0  0  0  0  0  0
  161.1170  212.9060  144.9540 C   0  0  0  0  0  0  0  0  0  0  0  0
  162.8210  212.4770  141.2100 F   0  0  0  0  0  0  0  0  0  0  0  0
  162.9890  213.1070  143.5010 C   0  0  0  0  0  3  0  0  0  0  0  0
  162.4150  213.2440  144.7270 N   0  0  0  0  0  0  0  0  0  0  0  0
  162.2450  212.6100  142.4290 C   0  0  0  0  0  0  0  0  0  0  0  0
  159.9310  211.6320  141.3190 Cl  0  0  0  0  0  0  0  0  0  0  0  0
  1  5  1  0  0  0  0
  2  4  1  0  0  0  0
  3  1  1  0  0  0  0
  3  2  1  0  0  0  0
  4  7  1  1  0  0  0
  5  4  1  0  0  0  0
  5  6  1  1  0  0  0
  7  8  1  0  0  0  0
  8 10  1  0  0  0  0
 10 11  2  0  0  0  0
 10  9  1  0  0  0  0
 12  3  2  0  0  0  0
 13 16  1  0  0  0  0
 14 17  1  0  0  0  0
 15 18  1  0  0  0  0
 15 14  2  0  0  0  0
 17 16  2  0  0  0  0
 17 12  1  0  0  0  0
 18 13  2  0  0  0  0
 19  1  2  0  0  0  0
 20 23  1  6  0  0  0
 20 21  1  0  0  0  0
 21 19  1  6  0  0  0
 22 20  1  0  0  0  0
 22 21  1  0  0  0  0
 24 23  1  0  0  0  0
 25 27  1  0  0  0  0
 26 25  2  0  0  0  0
 27 24  1  0  0  0  0
 28 31  1  0  0  0  0
 29 30  1  0  0  0  0
 30 27  2  0  0  0  0
 31 26  1  0  0  0  0
 31 29  2  0  0  0  0
 32 26  1  0  0  0  0
M  END
>  <MODEL>
5

>  <REMARK>
 VINA RESULT:      -6.9      3.689      8.666
  Name = 
  9 active torsions:
  status: ('A' for Active; 'I' for Inactive)
    1  A    between atoms: C_3  and  O_8
    2  A    between atoms: C_4  and  C_20
    3  A    between atoms: N_5  and  C_9
    4  A    between atoms: C_6  and  N_30
    5  A    between atoms: O_8  and  C_20
    6  A    between atoms: C_9  and  C_23
    7  A    between atoms: C_13  and  N_30
    8  A    between atoms: N_17  and  C_22
    9  A    between atoms: N_17  and  C_26
                            x       y       z     vdW  Elec       q    Type
                         _______ _______ _______ _____ _____    ______ ____

>  <TORSDO>
F 9

$$$$
=
 OpenBabel11042421123D

 32 35  0  0  1  0  0  0  0  0999 V2000
  161.4900  206.1140  150.8020 C   0  0  0  0  0  0  0  0  0  0  0  0
  161.1750  204.0230  152.3730 S   0  0  0  0  0  0  0  0  0  0  0  0
  161.5550  205.7340  152.0720 C   0  0  0  0  0  0  0  0  0  0  0  0
  160.4660  203.9220  150.6940 C   0  0  1  0  0  3  0  0  0  0  0  0
  160.9920  205.0790  149.8520 C   0  0  1  0  0  3  0  0  0  0  0  0
  159.9590  205.5890  149.0860 F   0  0  0  0  0  0  0  0  0  0  0  0
  160.7600  202.5760  150.0430 C   0  0  0  0  0  2  0  0  0  0  0  0
  160.6270  202.6560  148.5950 N   0  0  0  0  0  2  0  0  0  0  0  0
  160.7030  201.7040  145.9820 S   0  0  0  0  0  1  0  0  0  0  0  0
  160.8860  201.5360  147.7500 C   0  0  0  0  0  0  0  0  0  0  0  0
  161.2430  200.4300  148.2380 O   0  0  0  0  0  0  0  0  0  0  0  0
  162.0200  206.5780  153.1350 N   0  0  0  0  0  2  0  0  0  0  0  0
  159.7490  207.7700  155.8620 C   0  0  0  0  0  3  0  0  0  0  0  0
  161.1080  208.7830  153.6660 C   0  0  0  0  0  3  0  0  0  0  0  0
  160.3520  209.5990  154.4500 N   0  0  0  0  0  0  0  0  0  0  0  0
  160.5170  206.9170  155.0700 C   0  0  0  0  0  3  0  0  0  0  0  0
  161.1950  207.4190  153.9520 C   0  0  0  0  0  0  0  0  0  0  0  0
  159.6750  209.1240  155.5290 C   0  0  0  0  0  3  0  0  0  0  0  0
  161.9850  207.3850  150.3680 N   0  0  0  0  0  2  0  0  0  0  0  0
  162.5180  209.1000  148.6450 C   0  0  1  0  0  3  0  0  0  0  0  0
  162.5320  207.6180  149.0370 C   0  0  2  0  0  3  0  0  0  0  0  0
  161.4420  208.1630  148.1380 C   0  0  0  0  0  2  0  0  0  0  0  0
  161.9470  210.0260  149.7180 C   0  0  0  0  0  2  0  0  0  0  0  0
  162.2690  211.3790  149.4220 O   0  0  0  0  0  0  0  0  0  0  0  0
  160.6570  211.9720  147.6840 C   0  0  0  0  0  2  0  0  0  0  0  0
  160.3890  212.6000  146.4680 C   0  0  0  0  0  0  0  0  0  0  0  0
  161.9610  211.9900  148.2020 C   0  0  0  0  0  0  0  0  0  0  0  0
  161.1890  213.8590  144.5940 F   0  0  0  0  0  0  0  0  0  0  0  0
  162.7080  213.2400  146.3220 C   0  0  0  0  0  2  0  0  0  0  0  0
  162.9470  212.6220  147.5100 N   0  0  0  0  0  0  0  0  0  0  0  0
  161.4220  213.2410  145.7780 C   0  0  0  0  0  0  0  0  0  0  0  0
  158.7580  212.5780  145.8280 Cl  0  0  0  0  0  0  0  0  0  0  0  0
  1  3  2  0  0  0  0
  3  2  1  0  0  0  0
  3 12  1  0  0  0  0
  4  7  1  6  0  0  0
  4  2  1  0  0  0  0
  5  6  1  1  0  0  0
  5  4  1  0  0  0  0
  5  1  1  0  0  0  0
  8  7  1  0  0  0  0
  9 10  1  0  0  0  0
 10 11  2  0  0  0  0
 10  8  1  0  0  0  0
 12 17  1  0  0  0  0
 14 17  2  0  0  0  0
 14 15  1  0  0  0  0
 15 18  2  0  0  0  0
 16 13  2  0  0  0  0
 17 16  1  0  0  0  0
 18 13  1  0  0  0  0
 19  1  1  0  0  0  0
 20 21  1  0  0  0  0
 20 23  1  1  0  0  0
 21 19  1  1  0  0  0
 22 20  1  0  0  0  0
 22 21  1  0  0  0  0
 24 23  1  0  0  0  0
 25 27  1  0  0  0  0
 26 25  1  0  0  0  0
 27 24  1  0  0  0  0
 28 31  1  0  0  0  0
 29 30  1  0  0  0  0
 30 27  2  0  0  0  0
 31 29  1  0  0  0  0
 31 26  2  0  0  0  0
 32 26  1  0  0  0  0
M  END
>  <MODEL>
6

>  <REMARK>
 VINA RESULT:      -6.9      3.478      7.259
  Name = 
  9 active torsions:
  status: ('A' for Active; 'I' for Inactive)
    1  A    between atoms: C_3  and  O_8
    2  A    between atoms: C_4  and  C_20
    3  A    between atoms: N_5  and  C_9
    4  A    between atoms: C_6  and  N_30
    5  A    between atoms: O_8  and  C_20
    6  A    between atoms: C_9  and  C_23
    7  A    between atoms: C_13  and  N_30
    8  A    between atoms: N_17  and  C_22
    9  A    between atoms: N_17  and  C_26
                            x       y       z     vdW  Elec       q    Type
                         _______ _______ _______ _____ _____    ______ ____

>  <TORSDO>
F 9

$$$$
=
 OpenBabel11042421123D

 32 35  0  0  1  0  0  0  0  0999 V2000
  161.8920  207.7790  152.0070 C   0  0  0  0  0  0  0  0  0  0  0  0
  161.1720  206.5730  154.2360 S   0  0  0  0  0  0  0  0  0  0  0  0
  161.9570  206.6140  152.6400 C   0  0  0  0  0  0  0  0  0  0  0  0
  161.1180  208.3980  154.2170 C   0  0  1  0  0  3  0  0  0  0  0  0
  161.2810  208.8940  152.7840 C   0  0  1  0  0  3  0  0  0  0  0  0
  162.1160  209.9960  152.7780 F   0  0  0  0  0  0  0  0  0  0  0  0
  159.8380  208.9250  154.8520 C   0  0  0  0  0  2  0  0  0  0  0  0
  160.0590  210.2240  155.4730 N   0  0  0  0  0  2  0  0  0  0  0  0
  159.7060  212.9600  155.8330 S   0  0  0  0  0  1  0  0  0  0  0  0
  159.3870  211.3990  155.0260 C   0  0  0  0  0  0  0  0  0  0  0  0
  158.5710  211.3490  154.0670 O   0  0  0  0  0  0  0  0  0  0  0  0
  162.4960  205.4180  152.0600 N   0  0  0  0  0  2  0  0  0  0  0  0
  160.1380  203.5710  149.8130 C   0  0  0  0  0  3  0  0  0  0  0  0
  161.9100  203.0510  151.8830 C   0  0  0  0  0  3  0  0  0  0  0  0
  161.2110  202.0400  151.2980 N   0  0  0  0  0  0  0  0  0  0  0  0
  160.8430  204.6210  150.4000 C   0  0  0  0  0  3  0  0  0  0  0  0
  161.7300  204.3680  151.4550 C   0  0  0  0  0  0  0  0  0  0  0  0
  160.3360  202.2720  150.2840 C   0  0  0  0  0  3  0  0  0  0  0  0
  162.2660  207.9120  150.6310 N   0  0  0  0  0  2  0  0  0  0  0  0
  161.5220  207.9290  148.2570 C   0  0  1  0  0  3  0  0  0  0  0  0
  161.4400  208.5870  149.6390 C   0  0  2  0  0  3  0  0  0  0  0  0
  162.3300  209.1740  148.5640 C   0  0  0  0  0  2  0  0  0  0  0  0
  162.4390  206.7090  148.1990 C   0  0  0  0  0  2  0  0  0  0  0  0
  162.6180  206.2910  146.8510 O   0  0  0  0  0  0  0  0  0  0  0  0
  161.9170  203.9510  146.8930 C   0  0  0  0  0  2  0  0  0  0  0  0
  161.2060  202.9060  146.3020 C   0  0  0  0  0  0  0  0  0  0  0  0
  161.9260  205.2150  146.2850 C   0  0  0  0  0  0  0  0  0  0  0  0
  159.8140  202.1320  144.5140 F   0  0  0  0  0  0  0  0  0  0  0  0
  160.5420  204.4000  144.5310 C   0  0  0  0  0  2  0  0  0  0  0  0
  161.2400  205.4050  145.1260 N   0  0  0  0  0  0  0  0  0  0  0  0
  160.5120  203.1290  145.1090 C   0  0  0  0  0  0  0  0  0  0  0  0
  161.1960  201.3300  147.0680 Cl  0  0  0  0  0  0  0  0  0  0  0  0
  1  3  2  0  0  0  0
  1  5  1  0  0  0  0
  3  2  1  0  0  0  0
  4  2  1  0  0  0  0
  4  7  1  6  0  0  0
  5  6  1  1  0  0  0
  5  4  1  0  0  0  0
  7  8  1  0  0  0  0
 10  8  1  0  0  0  0
 10  9  1  0  0  0  0
 11 10  2  0  0  0  0
 12  3  1  0  0  0  0
 13 18  2  0  0  0  0
 13 16  1  0  0  0  0
 15 14  2  0  0  0  0
 16 17  2  0  0  0  0
 17 14  1  0  0  0  0
 17 12  1  0  0  0  0
 18 15  1  0  0  0  0
 19  1  1  0  0  0  0
 20 23  1  1  0  0  0
 20 22  1  0  0  0  0
 20 21  1  0  0  0  0
 21 19  1  1  0  0  0
 22 21  1  0  0  0  0
 24 23  1  0  0  0  0
 26 25  1  0  0  0  0
 26 32  1  0  0  0  0
 27 24  1  0  0  0  0
 27 25  1  0  0  0  0
 28 31  1  0  0  0  0
 29 31  1  0  0  0  0
 29 30  1  0  0  0  0
 30 27  2  0  0  0  0
 31 26  2  0  0  0  0
M  END
>  <MODEL>
7

>  <REMARK>
 VINA RESULT:      -6.8      3.121      5.681
  Name = 
  9 active torsions:
  status: ('A' for Active; 'I' for Inactive)
    1  A    between atoms: C_3  and  O_8
    2  A    between atoms: C_4  and  C_20
    3  A    between atoms: N_5  and  C_9
    4  A    between atoms: C_6  and  N_30
    5  A    between atoms: O_8  and  C_20
    6  A    between atoms: C_9  and  C_23
    7  A    between atoms: C_13  and  N_30
    8  A    between atoms: N_17  and  C_22
    9  A    between atoms: N_17  and  C_26
                            x       y       z     vdW  Elec       q    Type
                         _______ _______ _______ _____ _____    ______ ____

>  <TORSDO>
F 9

$$$$
=
 OpenBabel11042421123D

 32 35  0  0  1  0  0  0  0  0999 V2000
  161.8560  208.4940  150.3180 C   0  0  0  0  0  0  0  0  0  0  0  0
  161.6830  210.9080  151.3590 S   0  0  0  0  0  0  0  0  0  0  0  0
  161.9020  209.7820  150.0000 C   0  0  0  0  0  0  0  0  0  0  0  0
  161.0650  209.5160  152.3660 C   0  0  1  0  0  3  0  0  0  0  0  0
  161.5080  208.2000  151.7370 C   0  0  1  0  0  3  0  0  0  0  0  0
  160.4650  207.2940  151.7970 F   0  0  0  0  0  0  0  0  0  0  0  0
  161.5220  209.6290  153.8150 C   0  0  0  0  0  2  0  0  0  0  0  0
  161.0820  208.4790  154.5920 N   0  0  0  0  0  2  0  0  0  0  0  0
  160.1320  207.1490  156.8440 S   0  0  0  0  0  1  0  0  0  0  0  0
  160.6610  208.6010  155.9500 C   0  0  0  0  0  0  0  0  0  0  0  0
  160.6580  209.7230  156.5240 O   0  0  0  0  0  0  0  0  0  0  0  0
  162.2310  210.2700  148.6910 N   0  0  0  0  0  2  0  0  0  0  0  0
  162.7770  213.8340  147.6840 C   0  0  0  0  0  3  0  0  0  0  0  0
  160.7400  211.9520  147.7290 C   0  0  0  0  0  3  0  0  0  0  0  0
  160.5140  213.2060  147.2500 N   0  0  0  0  0  0  0  0  0  0  0  0
  163.0280  212.5550  148.1800 C   0  0  0  0  0  3  0  0  0  0  0  0
  162.0010  211.6030  148.2190 C   0  0  0  0  0  0  0  0  0  0  0  0
  161.4970  214.1450  147.2200 C   0  0  0  0  0  3  0  0  0  0  0  0
  162.2400  207.4730  149.3900 N   0  0  0  0  0  2  0  0  0  0  0  0
  160.9150  205.6830  148.2810 C   0  0  1  0  0  3  0  0  0  0  0  0
  161.4490  207.1180  148.2190 C   0  0  2  0  0  3  0  0  0  0  0  0
  162.1480  206.0080  147.4620 C   0  0  0  0  0  2  0  0  0  0  0  0
  161.3090  204.9230  149.5450 C   0  0  0  0  0  2  0  0  0  0  0  0
  160.5610  203.7170  149.6480 O   0  0  0  0  0  0  0  0  0  0  0  0
  160.4180  202.6170  147.4700 C   0  0  0  0  0  3  0  0  0  0  0  0
  160.6650  201.4940  146.6810 C   0  0  0  0  0  0  0  0  0  0  0  0
  160.7830  202.6080  148.8250 C   0  0  0  0  0  0  0  0  0  0  0  0
  161.5240  199.2660  146.5030 F   0  0  0  0  0  0  0  0  0  0  0  0
  161.6230  200.3940  148.5990 C   0  0  0  0  0  3  0  0  0  0  0  0
  161.3740  201.5010  149.3500 N   0  0  0  0  0  0  0  0  0  0  0  0
  161.2720  200.3700  147.2480 C   0  0  0  0  0  0  0  0  0  0  0  0
  160.2100  201.5140  144.9880 Cl  0  0  0  0  0  0  0  0  0  0  0  0
  1  5  1  0  0  0  0
  2  4  1  0  0  0  0
  3  1  2  0  0  0  0
  3  2  1  0  0  0  0
  4  7  1  1  0  0  0
  5  6  1  6  0  0  0
  5  4  1  0  0  0  0
  7  8  1  0  0  0  0
  8 10  1  0  0  0  0
 10 11  2  0  0  0  0
 10  9  1  0  0  0  0
 12  3  1  0  0  0  0
 13 16  1  0  0  0  0
 14 17  1  0  0  0  0
 15 14  2  0  0  0  0
 16 17  2  0  0  0  0
 17 12  1  0  0  0  0
 18 15  1  0  0  0  0
 18 13  2  0  0  0  0
 19  1  1  0  0  0  0
 20 23  1  1  0  0  0
 21 20  1  0  0  0  0
 21 19  1  1  0  0  0
 22 21  1  0  0  0  0
 22 20  1  0  0  0  0
 23 24  1  0  0  0  0
 25 27  1  0  0  0  0
 26 31  1  0  0  0  0
 26 25  2  0  0  0  0
 27 30  2  0  0  0  0
 27 24  1  0  0  0  0
 28 31  1  0  0  0  0
 29 30  1  0  0  0  0
 31 29  2  0  0  0  0
 32 26  1  0  0  0  0
M  END
>  <MODEL>
8

>  <REMARK>
 VINA RESULT:      -6.6      2.702      5.929
  Name = 
  9 active torsions:
  status: ('A' for Active; 'I' for Inactive)
    1  A    between atoms: C_3  and  O_8
    2  A    between atoms: C_4  and  C_20
    3  A    between atoms: N_5  and  C_9
    4  A    between atoms: C_6  and  N_30
    5  A    between atoms: O_8  and  C_20
    6  A    between atoms: C_9  and  C_23
    7  A    between atoms: C_13  and  N_30
    8  A    between atoms: N_17  and  C_22
    9  A    between atoms: N_17  and  C_26
                            x       y       z     vdW  Elec       q    Type
                         _______ _______ _______ _____ _____    ______ ____

>  <TORSDO>
F 9

$$$$
=
 OpenBabel11042421123D

 32 35  0  0  1  0  0  0  0  0999 V2000
  161.7160  208.8080  150.4250 C   0  0  0  0  0  0  0  0  0  0  0  0
  161.9340  211.4330  150.4690 S   0  0  0  0  0  0  0  0  0  0  0  0
  161.9140  209.8330  151.2450 C   0  0  0  0  0  0  0  0  0  0  0  0
  162.1030  210.6070  148.8500 C   0  0  1  0  0  3  0  0  0  0  0  0
  161.6640  209.1520  148.9760 C   0  0  1  0  0  3  0  0  0  0  0  0
  162.5360  208.3510  148.2620 F   0  0  0  0  0  0  0  0  0  0  0  0
  161.3220  211.3380  147.7660 C   0  0  0  0  0  2  0  0  0  0  0  0
  162.1000  212.4380  147.2130 N   0  0  0  0  0  2  0  0  0  0  0  0
  162.7130  214.4530  145.3950 S   0  0  0  0  0  1  0  0  0  0  0  0
  161.7120  213.1110  146.0170 C   0  0  0  0  0  0  0  0  0  0  0  0
  160.6710  212.7690  145.3950 O   0  0  0  0  0  0  0  0  0  0  0  0
  161.9820  209.7120  152.6730 N   0  0  0  0  0  2  0  0  0  0  0  0
  158.8000  211.0820  154.0920 C   0  0  0  0  0  3  0  0  0  0  0  0
  160.9740  209.5590  154.8950 C   0  0  0  0  0  3  0  0  0  0  0  0
  159.9680  209.8430  155.7660 N   0  0  0  0  0  0  0  0  0  0  0  0
  159.8220  210.8030  153.1850 C   0  0  0  0  0  3  0  0  0  0  0  0
  160.9300  210.0460  153.5870 C   0  0  0  0  0  0  0  0  0  0  0  0
  158.8930  210.5900  155.3950 C   0  0  0  0  0  3  0  0  0  0  0  0
  161.4450  207.4910  150.9160 N   0  0  0  0  0  2  0  0  0  0  0  0
  161.9870  205.2360  151.8180 C   0  0  1  0  0  3  0  0  0  0  0  0
  162.4160  206.6990  151.6600 C   0  0  2  0  0  3  0  0  0  0  0  0
  161.7850  206.2210  152.9510 C   0  0  0  0  0  2  0  0  0  0  0  0
  160.6460  204.9030  151.1650 C   0  0  0  0  0  2  0  0  0  0  0  0
  160.6760  203.5900  150.6200 O   0  0  0  0  0  0  0  0  0  0  0  0
  161.2850  204.3330  148.3730 C   0  0  0  0  0  3  0  0  0  0  0  0
  161.4600  204.0320  147.0220 C   0  0  0  0  0  0  0  0  0  0  0  0
  160.8550  203.3320  149.2570 C   0  0  0  0  0  0  0  0  0  0  0  0
  161.3670  202.4180  145.2560 F   0  0  0  0  0  0  0  0  0  0  0  0
  160.7780  201.7640  147.4700 C   0  0  0  0  0  3  0  0  0  0  0  0
  160.6150  202.0790  148.7840 N   0  0  0  0  0  0  0  0  0  0  0  0
  161.2040  202.7370  146.5630 C   0  0  0  0  0  0  0  0  0  0  0  0
  162.0010  205.2860  145.9240 Cl  0  0  0  0  0  0  0  0  0  0  0  0
  1 19  1  0  0  0  0
  1  3  2  0  0  0  0
  2  3  1  0  0  0  0
  3 12  1  0  0  0  0
  4  7  1  6  0  0  0
  4  5  1  0  0  0  0
  4  2  1  0  0  0  0
  5  6  1  6  0  0  0
  5  1  1  0  0  0  0
  8  7  1  0  0  0  0
  9 10  1  0  0  0  0
 10  8  1  0  0  0  0
 11 10  2  0  0  0  0
 12 17  1  0  0  0  0
 13 18  1  0  0  0  0
 14 15  1  0  0  0  0
 16 17  1  0  0  0  0
 16 13  2  0  0  0  0
 17 14  2  0  0  0  0
 18 15  2  0  0  0  0
 20 23  1  6  0  0  0
 20 22  1  0  0  0  0
 21 19  1  6  0  0  0
 21 20  1  0  0  0  0
 21 22  1  0  0  0  0
 24 23  1  0  0  0  0
 25 27  1  0  0  0  0
 26 25  2  0  0  0  0
 27 24  1  0  0  0  0
 28 31  1  0  0  0  0
 29 30  1  0  0  0  0
 30 27  2  0  0  0  0
 31 26  1  0  0  0  0
 31 29  2  0  0  0  0
 32 26  1  0  0  0  0
M  END
>  <MODEL>
9

>  <REMARK>
 VINA RESULT:      -6.6      1.358      1.836
  Name = 
  9 active torsions:
  status: ('A' for Active; 'I' for Inactive)
    1  A    between atoms: C_3  and  O_8
    2  A    between atoms: C_4  and  C_20
    3  A    between atoms: N_5  and  C_9
    4  A    between atoms: C_6  and  N_30
    5  A    between atoms: O_8  and  C_20
    6  A    between atoms: C_9  and  C_23
    7  A    between atoms: C_13  and  N_30
    8  A    between atoms: N_17  and  C_22
    9  A    between atoms: N_17  and  C_26
                            x       y       z     vdW  Elec       q    Type
                         _______ _______ _______ _____ _____    ______ ____

>  <TORSDO>
F 9

$$$$
