=
 OpenBabel11042422553D

 54 58  0  0  1  0  0  0  0  0999 V2000
  162.1150  209.2530  151.2120 C   0  0  1  0  0  3  0  0  0  0  0  0
  162.3290  211.4800  148.2360 C   0  0  2  0  0  3  0  0  0  0  0  0
  161.9000  210.0220  148.5410 C   0  0  0  0  0  2  0  0  0  0  0  0
  162.6080  211.6730  149.7590 C   0  0  0  0  0  2  0  0  0  0  0  0
  162.1810  210.2600  149.9760 C   0  0  2  0  0  3  0  0  0  0  0  0
  161.2390  212.4150  147.6340 C   0  0  0  0  0  0  0  0  0  0  0  0
  159.3130  214.4530  147.0940 C   0  0  0  0  0  3  0  0  0  0  0  0
  160.0430  212.5760  148.3900 C   0  0  0  0  0  3  0  0  0  0  0  0
  159.0980  213.5660  148.1330 C   0  0  0  0  0  3  0  0  0  0  0  0
  161.4180  213.2730  146.5100 C   0  0  0  0  0  0  0  0  0  0  0  0
  160.4690  214.3070  146.2860 C   0  0  0  0  0  3  0  0  0  0  0  0
  162.6890  213.1010  145.1750 S   0  0  0  0  0  0  0  0  0  0  0  0
  161.4550  213.4900  143.8500 C   0  0  0  0  0  2  0  0  0  0  0  0
  161.7700  213.6570  142.3420 C   0  0  0  0  0  2  0  0  0  0  0  0
  161.9800  212.3080  141.5550 C   0  0  0  0  0  2  0  0  0  0  0  0
  161.9140  212.7670  139.6990 P   0  0  2  0  0  0  0  0  0  0  0  0
  162.4370  214.0930  139.1520 O   0  0  0  0  0  0  0  0  0  0  0  0
  159.8560  214.0010  138.1010 O   0  0  0  0  0  1  0  0  0  0  0  0
  159.7450  213.0050  139.5800 P   0  0  0  0  0  0  0  0  0  0  0  0
  159.0390  211.5480  138.8570 O   0  0  0  0  0  1  0  0  0  0  0  0
  163.1890  211.6910  139.0090 C   0  0  0  0  0  2  0  0  0  0  0  0
  162.7530  210.2560  138.8870 N   0  0  0  0  0  0  0  0  0  0  0  0
  160.9390  208.1110  137.9290 C   0  0  0  0  0  2  0  0  0  0  0  0
  162.3500  207.0390  139.6490 O   0  0  0  0  0  1  0  0  0  0  0  0
  161.9030  210.3830  137.6930 C   0  0  0  0  0  2  0  0  0  0  0  0
  161.8840  209.5500  139.8650 C   0  0  0  0  0  2  0  0  0  0  0  0
  161.7650  208.9960  137.0190 C   0  0  0  0  0  2  0  0  0  0  0  0
  161.4590  208.1580  139.3440 C   0  0  1  0  0  3  0  0  0  0  0  0
  161.9170  209.9640  152.5140 N   0  0  0  0  0  2  0  0  0  0  0  0
  160.6890  209.9760  152.9510 C   0  0  0  0  0  2  0  0  0  0  0  0
  158.8260  211.0550  154.4030 C   0  0  0  0  0  3  0  0  0  0  0  0
  160.8360  210.3670  155.4210 C   0  0  0  0  0  3  0  0  0  0  0  0
  160.4520  210.7730  156.6530 N   0  0  0  0  0  0  0  0  0  0  0  0
  159.1850  211.3320  156.7830 C   0  0  0  0  0  3  0  0  0  0  0  0
  158.3740  211.4960  155.6920 C   0  0  0  0  0  3  0  0  0  0  0  0
  160.0880  210.4650  154.2440 C   0  0  0  0  0  0  0  0  0  0  0  0
  161.1100  208.2420  150.9900 N   0  0  0  0  0  2  0  0  0  0  0  0
  161.7880  207.0280  150.5750 C   0  0  0  0  0  2  0  0  0  0  0  0
  162.4970  206.4430  151.8880 C   0  0  0  0  0  2  0  0  0  0  0  0
  161.0830  204.4910  152.5720 N   0  0  0  0  0  0  0  0  0  0  0  0
  161.4040  205.7420  152.6420 C   0  0  0  0  0  3  0  0  0  0  0  0
  161.5930  203.3490  151.8180 C   0  0  0  0  0  0  0  0  0  0  0  0
  162.8340  203.2450  151.7020 O   0  0  0  0  0  0  0  0  0  0  0  0
  160.3590  202.2800  150.9830 S   0  0  0  0  0  0  0  0  0  0  0  0
  160.6530  204.0880  148.8590 N   0  0  0  0  0  2  0  0  0  0  0  0
  160.5600  201.7830  148.2330 N   0  0  0  0  0  2  0  0  0  0  0  0
  160.5000  202.6970  149.1790 C   0  0  0  0  0  0  0  0  0  0  0  0
  160.6980  206.1800  145.7230 C   0  0  0  0  0  3  0  0  0  0  0  0
  161.0700  204.6080  147.5990 C   0  0  0  0  0  0  0  0  0  0  0  0
  162.5890  204.5850  145.6010 C   0  0  0  0  0  2  0  0  0  0  0  0
  161.4600  205.2700  144.8060 C   0  0  2  0  0  3  0  0  0  0  0  0
  162.0390  204.0160  146.9280 C   0  0  0  0  0  3  0  0  0  0  0  0
  160.4610  205.8300  147.0080 C   0  0  0  0  0  3  0  0  0  0  0  0
  161.9560  205.9660  143.7480 F   0  0  0  0  0  0  0  0  0  0  0  0
  1 37  1  6  0  0  0
  1 29  1  0  0  0  0
  2  6  1  1  0  0  0
  2  3  1  0  0  0  0
  2  4  1  0  0  0  0
  3  5  1  0  0  0  0
  4  5  1  0  0  0  0
  5  1  1  6  0  0  0
  6  8  1  0  0  0  0
  7  9  1  0  0  0  0
  9  8  2  0  0  0  0
 10  6  2  0  0  0  0
 11 10  1  0  0  0  0
 11  7  2  0  0  0  0
 12 10  1  0  0  0  0
 13 12  1  0  0  0  0
 14 13  1  0  0  0  0
 15 14  1  0  0  0  0
 16 17  2  6  0  0  0
 16 15  1  0  0  0  0
 18 19  1  0  0  0  0
 19 16  1  0  0  0  0
 20 19  1  0  0  0  0
 21 16  1  0  0  0  0
 22 21  1  0  0  0  0
 22 26  1  0  0  0  0
 23 28  1  0  0  0  0
 25 22  1  0  0  0  0
 27 25  1  0  0  0  0
 27 23  1  0  0  0  0
 28 24  1  6  0  0  0
 28 26  1  0  0  0  0
 29 30  1  0  0  0  0
 30 36  1  0  0  0  0
 31 35  1  0  0  0  0
 32 33  2  0  0  0  0
 33 34  1  0  0  0  0
 35 34  2  0  0  0  0
 36 31  2  0  0  0  0
 36 32  1  0  0  0  0
 38 37  1  0  0  0  0
 38 39  1  0  0  0  0
 39 41  1  0  0  0  0
 40 41  2  0  0  0  0
 42 40  1  0  0  0  0
 43 42  2  0  0  0  0
 44 42  1  0  0  0  0
 45 47  1  0  0  0  0
 46 47  2  0  0  0  0
 47 44  1  0  0  0  0
 48 53  2  0  0  0  0
 49 45  1  0  0  0  0
 50 52  1  0  0  0  0
 51 54  1  6  0  0  0
 51 50  1  0  0  0  0
 51 48  1  0  0  0  0
 52 49  2  0  0  0  0
 53 49  1  0  0  0  0
M  END
>  <MODEL>
1

>  <REMARK>
 VINA RESULT:      -6.0      0.000      0.000
  Name = 
  20 active torsions:
  status: ('A' for Active; 'I' for Inactive)
    1  A    between atoms: C_3  and  N_5
    2  A    between atoms: C_3  and  P_11
    3  A    between atoms: N_6  and  C_10
    4  A    between atoms: N_8  and  C_13
    5  A    between atoms: C_9  and  C_22
    6  A    between atoms: C_10  and  S_53
    7  A    between atoms: P_11  and  P_25
    8  A    between atoms: P_11  and  C_35
    9  A    between atoms: C_15  and  N_17
   10  A    between atoms: C_15  and  N_29
   11  A    between atoms: C_15  and  C_48
   12  A    between atoms: N_17  and  C_23
   13  A    between atoms: C_20  and  S_33
   14  A    between atoms: C_20  and  C_34
   15  A    between atoms: C_23  and  C_39
   16  A    between atoms: S_33  and  C_37
   17  A    between atoms: C_34  and  C_35
   18  A    between atoms: C_39  and  C_51
   19  A    between atoms: C_42  and  S_53
   20  A    between atoms: C_45  and  C_47
                            x       y       z     vdW  Elec       q    Type
                         _______ _______ _______ _____ _____    ______ ____

>  <TORSDO>
F 20

$$$$
=
 OpenBabel11042422553D

 54 58  0  0  1  0  0  0  0  0999 V2000
  161.7870  208.2270  150.1870 C   0  0  1  0  0  3  0  0  0  0  0  0
  161.8220  211.8320  149.2580 C   0  0  2  0  0  3  0  0  0  0  0  0
  161.9790  210.4670  148.5400 C   0  0  0  0  0  2  0  0  0  0  0  0
  161.5840  211.0560  150.5910 C   0  0  0  0  0  2  0  0  0  0  0  0
  161.7470  209.7820  149.8320 C   0  0  2  0  0  3  0  0  0  0  0  0
  160.6410  212.7330  148.7910 C   0  0  0  0  0  0  0  0  0  0  0  0
  158.2200  213.8180  147.7340 C   0  0  0  0  0  3  0  0  0  0  0  0
  160.3060  212.6850  147.4080 C   0  0  0  0  0  3  0  0  0  0  0  0
  159.1290  213.2140  146.8830 C   0  0  0  0  0  3  0  0  0  0  0  0
  159.7470  213.4330  149.6540 C   0  0  0  0  0  0  0  0  0  0  0  0
  158.5290  213.9270  149.1130 C   0  0  0  0  0  3  0  0  0  0  0  0
  160.0610  213.9290  151.4090 S   0  0  0  0  0  0  0  0  0  0  0  0
  158.9830  212.5710  152.0620 C   0  0  0  0  0  2  0  0  0  0  0  0
  159.1970  211.8080  153.3930 C   0  0  0  0  0  2  0  0  0  0  0  0
  160.7040  211.6240  153.8170 C   0  0  0  0  0  2  0  0  0  0  0  0
  160.6970  211.4550  155.7220 P   0  0  2  0  0  0  0  0  0  0  0  0
  161.8920  211.8340  156.5950 O   0  0  0  0  0  0  0  0  0  0  0  0
  161.7220  209.2390  157.2560 O   0  0  0  0  0  1  0  0  0  0  0  0
  160.7200  209.2700  155.7770 P   0  0  0  0  0  0  0  0  0  0  0  0
  159.2000  208.6900  156.4820 O   0  0  0  0  0  1  0  0  0  0  0  0
  159.5960  212.8010  156.2070 C   0  0  0  0  0  2  0  0  0  0  0  0
  158.1390  212.4580  156.0610 N   0  0  0  0  0  0  0  0  0  0  0  0
  155.2660  213.1560  155.7920 C   0  0  0  0  0  2  0  0  0  0  0  0
  155.2950  210.7410  156.3060 O   0  0  0  0  0  1  0  0  0  0  0  0
  157.6610  213.7420  155.5220 C   0  0  0  0  0  2  0  0  0  0  0  0
  157.2160  212.1870  157.1950 C   0  0  0  0  0  2  0  0  0  0  0  0
  156.3270  213.5100  154.7700 C   0  0  0  0  0  2  0  0  0  0  0  0
  155.7510  212.0690  156.7170 C   0  0  1  0  0  3  0  0  0  0  0  0
  162.2710  207.3940  149.0430 N   0  0  0  0  0  2  0  0  0  0  0  0
  161.3340  206.9430  148.2570 C   0  0  0  0  0  2  0  0  0  0  0  0
  162.4160  205.3190  146.5430 C   0  0  0  0  0  3  0  0  0  0  0  0
  160.3660  206.3550  146.0220 C   0  0  0  0  0  3  0  0  0  0  0  0
  160.2780  205.7670  144.8070 N   0  0  0  0  0  0  0  0  0  0  0  0
  161.2950  204.8940  144.4380 C   0  0  0  0  0  3  0  0  0  0  0  0
  162.3630  204.6680  145.2660 C   0  0  0  0  0  3  0  0  0  0  0  0
  161.3930  206.1860  146.9540 C   0  0  0  0  0  0  0  0  0  0  0  0
  162.5580  208.0000  151.3850 N   0  0  0  0  0  2  0  0  0  0  0  0
  161.7430  208.3970  152.5190 C   0  0  0  0  0  2  0  0  0  0  0  0
  160.8280  207.1300  152.8740 C   0  0  0  0  0  2  0  0  0  0  0  0
  161.8630  204.8490  152.9570 N   0  0  0  0  0  0  0  0  0  0  0  0
  161.7860  206.0780  153.3540 C   0  0  0  0  0  3  0  0  0  0  0  0
  161.1330  204.0480  151.9790 C   0  0  0  0  0  0  0  0  0  0  0  0
  160.3540  203.1740  152.4170 O   0  0  0  0  0  0  0  0  0  0  0  0
  161.5590  204.2950  150.2120 S   0  0  0  0  0  0  0  0  0  0  0  0
  161.2350  202.6530  147.9620 N   0  0  0  0  0  2  0  0  0  0  0  0
  160.1000  201.9200  149.9330 N   0  0  0  0  0  2  0  0  0  0  0  0
  160.8440  202.8240  149.3320 C   0  0  0  0  0  0  0  0  0  0  0  0
  161.6180  199.0890  146.7960 C   0  0  0  0  0  3  0  0  0  0  0  0
  161.0590  201.4670  147.1910 C   0  0  0  0  0  0  0  0  0  0  0  0
  160.0940  200.2430  145.2220 C   0  0  0  0  0  2  0  0  0  0  0  0
  161.2570  199.2400  145.3480 C   0  0  2  0  0  3  0  0  0  0  0  0
  160.3890  201.5120  146.0550 C   0  0  0  0  0  3  0  0  0  0  0  0
  161.5900  200.1500  147.6340 C   0  0  0  0  0  3  0  0  0  0  0  0
  160.9280  198.0360  144.8100 F   0  0  0  0  0  0  0  0  0  0  0  0
  1 29  1  6  0  0  0
  1 37  1  0  0  0  0
  2  6  1  6  0  0  0
  2  4  1  0  0  0  0
  3  2  1  0  0  0  0
  3  5  1  0  0  0  0
  5  1  1  1  0  0  0
  5  4  1  0  0  0  0
  6 10  1  0  0  0  0
  7 11  1  0  0  0  0
  8  6  2  0  0  0  0
  9  8  1  0  0  0  0
  9  7  2  0  0  0  0
 10 12  1  0  0  0  0
 11 10  2  0  0  0  0
 12 13  1  0  0  0  0
 13 14  1  0  0  0  0
 14 15  1  0  0  0  0
 15 16  1  0  0  0  0
 16 19  1  0  0  0  0
 16 21  1  0  0  0  0
 16 17  2  1  0  0  0
 19 20  1  0  0  0  0
 19 18  1  0  0  0  0
 22 21  1  0  0  0  0
 22 26  1  0  0  0  0
 23 28  1  0  0  0  0
 25 22  1  0  0  0  0
 27 25  1  0  0  0  0
 27 23  1  0  0  0  0
 28 24  1  6  0  0  0
 28 26  1  0  0  0  0
 30 29  1  0  0  0  0
 31 36  1  0  0  0  0
 32 36  2  0  0  0  0
 33 32  1  0  0  0  0
 34 33  2  0  0  0  0
 34 35  1  0  0  0  0
 35 31  2  0  0  0  0
 36 30  1  0  0  0  0
 37 38  1  0  0  0  0
 38 39  1  0  0  0  0
 39 41  1  0  0  0  0
 40 41  2  0  0  0  0
 42 43  2  0  0  0  0
 42 40  1  0  0  0  0
 44 42  1  0  0  0  0
 45 47  1  0  0  0  0
 47 46  2  0  0  0  0
 47 44  1  0  0  0  0
 48 53  2  0  0  0  0
 49 53  1  0  0  0  0
 49 45  1  0  0  0  0
 50 51  1  0  0  0  0
 50 52  1  0  0  0  0
 51 54  1  1  0  0  0
 51 48  1  0  0  0  0
 52 49  2  0  0  0  0
M  END
>  <MODEL>
2

>  <REMARK>
 VINA RESULT:      -5.6      6.491     10.434
  Name = 
  20 active torsions:
  status: ('A' for Active; 'I' for Inactive)
    1  A    between atoms: C_3  and  N_5
    2  A    between atoms: C_3  and  P_11
    3  A    between atoms: N_6  and  C_10
    4  A    between atoms: N_8  and  C_13
    5  A    between atoms: C_9  and  C_22
    6  A    between atoms: C_10  and  S_53
    7  A    between atoms: P_11  and  P_25
    8  A    between atoms: P_11  and  C_35
    9  A    between atoms: C_15  and  N_17
   10  A    between atoms: C_15  and  N_29
   11  A    between atoms: C_15  and  C_48
   12  A    between atoms: N_17  and  C_23
   13  A    between atoms: C_20  and  S_33
   14  A    between atoms: C_20  and  C_34
   15  A    between atoms: C_23  and  C_39
   16  A    between atoms: S_33  and  C_37
   17  A    between atoms: C_34  and  C_35
   18  A    between atoms: C_39  and  C_51
   19  A    between atoms: C_42  and  S_53
   20  A    between atoms: C_45  and  C_47
                            x       y       z     vdW  Elec       q    Type
                         _______ _______ _______ _____ _____    ______ ____

>  <TORSDO>
F 20

$$$$
=
 OpenBabel11042422553D

 54 58  0  0  1  0  0  0  0  0999 V2000
  162.3530  205.6850  146.0790 C   0  0  1  0  0  3  0  0  0  0  0  0
  161.5880  208.0630  148.8380 C   0  0  2  0  0  3  0  0  0  0  0  0
  160.7950  207.2040  147.8200 C   0  0  0  0  0  2  0  0  0  0  0  0
  162.9050  207.4710  148.2490 C   0  0  0  0  0  2  0  0  0  0  0  0
  162.0760  206.6740  147.2990 C   0  0  2  0  0  3  0  0  0  0  0  0
  161.3370  207.7640  150.3460 C   0  0  0  0  0  0  0  0  0  0  0  0
  161.3940  206.8200  153.0410 C   0  0  0  0  0  3  0  0  0  0  0  0
  161.1020  206.4050  150.7000 C   0  0  0  0  0  3  0  0  0  0  0  0
  161.1260  205.9360  152.0110 C   0  0  0  0  0  3  0  0  0  0  0  0
  161.5280  208.6900  151.4130 C   0  0  0  0  0  0  0  0  0  0  0  0
  161.5950  208.1910  152.7420 C   0  0  0  0  0  3  0  0  0  0  0  0
  161.5400  210.5370  151.2890 S   0  0  0  0  0  0  0  0  0  0  0  0
  160.7010  210.7260  152.9300 C   0  0  0  0  0  2  0  0  0  0  0  0
  159.2720  211.2790  153.1560 C   0  0  0  0  0  2  0  0  0  0  0  0
  159.1980  212.5810  154.0420 C   0  0  0  0  0  2  0  0  0  0  0  0
  158.0010  212.1710  155.4770 P   0  0  2  0  0  0  0  0  0  0  0  0
  157.3320  210.8070  155.6380 O   0  0  0  0  0  0  0  0  0  0  0  0
  157.3220  214.1010  153.4450 O   0  0  0  0  0  1  0  0  0  0  0  0
  156.3610  213.4490  154.8030 P   0  0  0  0  0  0  0  0  0  0  0  0
  155.2140  212.4770  153.8640 O   0  0  0  0  0  1  0  0  0  0  0  0
  159.1320  212.0620  156.8800 C   0  0  0  0  0  2  0  0  0  0  0  0
  160.4100  211.3370  156.5570 N   0  0  0  0  0  0  0  0  0  0  0  0
  162.3170  209.0780  156.8270 C   0  0  0  0  0  2  0  0  0  0  0  0
  163.5770  210.8450  155.6480 O   0  0  0  0  0  1  0  0  0  0  0  0
  160.0140  209.9860  156.9850 C   0  0  0  0  0  2  0  0  0  0  0  0
  161.7060  211.5600  157.2490 C   0  0  0  0  0  2  0  0  0  0  0  0
  160.9130  208.9460  156.2730 C   0  0  0  0  0  2  0  0  0  0  0  0
  162.7650  210.5180  156.8200 C   0  0  1  0  0  3  0  0  0  0  0  0
  161.9880  204.2700  146.4000 N   0  0  0  0  0  2  0  0  0  0  0  0
  161.8010  204.0250  147.6670 C   0  0  0  0  0  2  0  0  0  0  0  0
  161.3740  201.4750  147.9180 C   0  0  0  0  0  3  0  0  0  0  0  0
  160.7170  202.9370  149.6460 C   0  0  0  0  0  3  0  0  0  0  0  0
  160.2170  201.9420  150.4140 N   0  0  0  0  0  0  0  0  0  0  0  0
  160.3120  200.6420  149.9300 C   0  0  0  0  0  3  0  0  0  0  0  0
  160.8610  200.3880  148.7020 C   0  0  0  0  0  3  0  0  0  0  0  0
  161.3160  202.7950  148.3910 C   0  0  0  0  0  0  0  0  0  0  0  0
  161.6930  206.1550  144.8850 N   0  0  0  0  0  2  0  0  0  0  0  0
  161.0830  205.0090  144.2350 C   0  0  0  0  0  2  0  0  0  0  0  0
  161.4120  205.1550  142.6730 C   0  0  0  0  0  2  0  0  0  0  0  0
  161.9060  207.2200  141.3410 N   0  0  0  0  0  0  0  0  0  0  0  0
  161.6040  206.6280  142.4520 C   0  0  0  0  0  3  0  0  0  0  0  0
  162.1560  206.7600  139.9780 C   0  0  0  0  0  0  0  0  0  0  0  0
  162.8390  205.7220  139.8370 O   0  0  0  0  0  0  0  0  0  0  0  0
  161.5830  207.8420  138.6130 S   0  0  0  0  0  0  0  0  0  0  0  0
  160.3300  210.1300  139.6410 N   0  0  0  0  0  2  0  0  0  0  0  0
  162.7180  210.2040  139.6020 N   0  0  0  0  0  2  0  0  0  0  0  0
  161.6060  209.5610  139.3150 C   0  0  0  0  0  0  0  0  0  0  0  0
  160.3220  212.4060  142.6460 C   0  0  0  0  0  3  0  0  0  0  0  0
  160.1180  211.2850  140.4490 C   0  0  0  0  0  0  0  0  0  0  0  0
  159.2020  213.5980  140.7860 C   0  0  0  0  0  2  0  0  0  0  0  0
  159.1720  213.3040  142.2990 C   0  0  2  0  0  3  0  0  0  0  0  0
  159.3930  212.2870  139.9900 C   0  0  0  0  0  3  0  0  0  0  0  0
  160.7120  211.4210  141.8050 C   0  0  0  0  0  3  0  0  0  0  0  0
  159.2270  214.4520  143.0240 F   0  0  0  0  0  0  0  0  0  0  0  0
  1 37  1  6  0  0  0
  1 29  1  0  0  0  0
  2  6  1  1  0  0  0
  3  2  1  0  0  0  0
  4  2  1  0  0  0  0
  5  1  1  6  0  0  0
  5  3  1  0  0  0  0
  5  4  1  0  0  0  0
  6  8  2  0  0  0  0
  6 10  1  0  0  0  0
  8  9  1  0  0  0  0
  9  7  2  0  0  0  0
 10 11  2  0  0  0  0
 11  7  1  0  0  0  0
 12 10  1  0  0  0  0
 12 13  1  0  0  0  0
 13 14  1  0  0  0  0
 14 15  1  0  0  0  0
 15 16  1  0  0  0  0
 16 17  2  6  0  0  0
 16 21  1  0  0  0  0
 18 19  1  0  0  0  0
 19 16  1  0  0  0  0
 20 19  1  0  0  0  0
 22 21  1  0  0  0  0
 22 25  1  0  0  0  0
 22 26  1  0  0  0  0
 27 23  1  0  0  0  0
 27 25  1  0  0  0  0
 28 24  1  6  0  0  0
 28 23  1  0  0  0  0
 28 26  1  0  0  0  0
 29 30  1  0  0  0  0
 30 36  1  0  0  0  0
 31 36  2  0  0  0  0
 31 35  1  0  0  0  0
 32 33  2  0  0  0  0
 34 33  1  0  0  0  0
 35 34  2  0  0  0  0
 36 32  1  0  0  0  0
 38 37  1  0  0  0  0
 39 38  1  0  0  0  0
 40 41  2  0  0  0  0
 41 39  1  0  0  0  0
 42 40  1  0  0  0  0
 43 42  2  0  0  0  0
 44 47  1  0  0  0  0
 44 42  1  0  0  0  0
 45 49  1  0  0  0  0
 47 46  2  0  0  0  0
 47 45  1  0  0  0  0
 49 53  1  0  0  0  0
 50 51  1  0  0  0  0
 51 48  1  0  0  0  0
 51 54  1  1  0  0  0
 52 49  2  0  0  0  0
 52 50  1  0  0  0  0
 53 48  2  0  0  0  0
M  END
>  <MODEL>
3

>  <REMARK>
 VINA RESULT:      -5.3      5.011     11.931
  Name = 
  20 active torsions:
  status: ('A' for Active; 'I' for Inactive)
    1  A    between atoms: C_3  and  N_5
    2  A    between atoms: C_3  and  P_11
    3  A    between atoms: N_6  and  C_10
    4  A    between atoms: N_8  and  C_13
    5  A    between atoms: C_9  and  C_22
    6  A    between atoms: C_10  and  S_53
    7  A    between atoms: P_11  and  P_25
    8  A    between atoms: P_11  and  C_35
    9  A    between atoms: C_15  and  N_17
   10  A    between atoms: C_15  and  N_29
   11  A    between atoms: C_15  and  C_48
   12  A    between atoms: N_17  and  C_23
   13  A    between atoms: C_20  and  S_33
   14  A    between atoms: C_20  and  C_34
   15  A    between atoms: C_23  and  C_39
   16  A    between atoms: S_33  and  C_37
   17  A    between atoms: C_34  and  C_35
   18  A    between atoms: C_39  and  C_51
   19  A    between atoms: C_42  and  S_53
   20  A    between atoms: C_45  and  C_47
                            x       y       z     vdW  Elec       q    Type
                         _______ _______ _______ _____ _____    ______ ____

>  <TORSDO>
F 20

$$$$
=
 OpenBabel11042422553D

 54 58  0  0  1  0  0  0  0  0999 V2000
  162.0820  208.3570  151.0360 C   0  0  1  0  0  3  0  0  0  0  0  0
  162.4380  211.1600  148.6120 C   0  0  2  0  0  3  0  0  0  0  0  0
  161.9760  209.6810  148.5850 C   0  0  0  0  0  2  0  0  0  0  0  0
  162.6650  211.0180  150.1490 C   0  0  0  0  0  2  0  0  0  0  0  0
  162.2090  209.6020  150.0450 C   0  0  2  0  0  3  0  0  0  0  0  0
  161.3850  212.2270  148.1890 C   0  0  0  0  0  0  0  0  0  0  0  0
  159.6020  214.4490  147.9910 C   0  0  0  0  0  3  0  0  0  0  0  0
  160.2760  212.4140  149.0610 C   0  0  0  0  0  3  0  0  0  0  0  0
  159.4000  213.4940  148.9710 C   0  0  0  0  0  3  0  0  0  0  0  0
  161.5420  213.1630  147.1250 C   0  0  0  0  0  0  0  0  0  0  0  0
  160.6690  214.2830  147.0720 C   0  0  0  0  0  3  0  0  0  0  0  0
  162.6760  213.0080  145.6700 S   0  0  0  0  0  0  0  0  0  0  0  0
  161.2570  212.8270  144.4920 C   0  0  0  0  0  2  0  0  0  0  0  0
  161.2990  213.1310  142.9730 C   0  0  0  0  0  2  0  0  0  0  0  0
  162.2810  212.2210  142.1420 C   0  0  0  0  0  2  0  0  0  0  0  0
  161.3520  211.7840  140.5280 P   0  0  2  0  0  0  0  0  0  0  0  0
  160.8110  210.3870  140.2330 O   0  0  0  0  0  0  0  0  0  0  0  0
  162.7460  210.3450  138.4530 O   0  0  0  0  0  1  0  0  0  0  0  0
  163.0810  211.9340  139.1990 P   0  0  0  0  0  0  0  0  0  0  0  0
  162.6640  212.9620  137.8160 O   0  0  0  0  0  1  0  0  0  0  0  0
  159.7710  212.6180  140.7770 C   0  0  0  0  0  2  0  0  0  0  0  0
  158.7050  212.1680  139.8150 N   0  0  0  0  0  0  0  0  0  0  0  0
  157.0970  212.4220  137.3330 C   0  0  0  0  0  2  0  0  0  0  0  0
  155.9210  210.7270  138.6900 O   0  0  0  0  0  1  0  0  0  0  0  0
  159.1650  212.8910  138.6190 C   0  0  0  0  0  2  0  0  0  0  0  0
  157.2670  212.5310  139.9150 C   0  0  0  0  0  2  0  0  0  0  0  0
  158.5950  212.1980  137.3570 C   0  0  0  0  0  2  0  0  0  0  0  0
  156.4790  212.0780  138.6640 C   0  0  1  0  0  3  0  0  0  0  0  0
  162.2480  208.7520  152.4690 N   0  0  0  0  0  2  0  0  0  0  0  0
  161.1450  209.0950  153.0750 C   0  0  0  0  0  2  0  0  0  0  0  0
  160.4660  208.5380  155.5190 C   0  0  0  0  0  3  0  0  0  0  0  0
  160.9400  210.7690  154.9280 C   0  0  0  0  0  3  0  0  0  0  0  0
  160.6950  211.2410  156.1720 N   0  0  0  0  0  0  0  0  0  0  0  0
  160.3360  210.3230  157.1520 C   0  0  0  0  0  3  0  0  0  0  0  0
  160.2010  208.9930  156.8540 C   0  0  0  0  0  3  0  0  0  0  0  0
  160.8550  209.4360  154.5140 C   0  0  0  0  0  0  0  0  0  0  0  0
  160.8440  207.6520  150.8090 N   0  0  0  0  0  2  0  0  0  0  0  0
  161.1680  206.3650  150.2230 C   0  0  0  0  0  2  0  0  0  0  0  0
  161.9170  205.5300  151.3690 C   0  0  0  0  0  2  0  0  0  0  0  0
  160.7450  203.4230  152.0520 N   0  0  0  0  0  0  0  0  0  0  0  0
  160.8400  204.7130  152.0230 C   0  0  0  0  0  3  0  0  0  0  0  0
  161.5570  202.3300  151.5250 C   0  0  0  0  0  0  0  0  0  0  0  0
  162.7840  202.3590  151.7620 O   0  0  0  0  0  0  0  0  0  0  0  0
  160.7200  201.1180  150.4320 S   0  0  0  0  0  0  0  0  0  0  0  0
  160.7610  203.1460  148.4970 N   0  0  0  0  0  2  0  0  0  0  0  0
  161.4830  200.9970  147.7400 N   0  0  0  0  0  2  0  0  0  0  0  0
  160.9990  201.7470  148.7080 C   0  0  0  0  0  0  0  0  0  0  0  0
  161.8940  206.0600  146.3910 C   0  0  0  0  0  3  0  0  0  0  0  0
  161.1840  203.8970  147.3610 C   0  0  0  0  0  0  0  0  0  0  0  0
  161.6550  204.0950  144.9030 C   0  0  0  0  0  2  0  0  0  0  0  0
  161.4240  205.6130  145.0390 C   0  0  2  0  0  3  0  0  0  0  0  0
  161.1300  203.3600  146.1570 C   0  0  0  0  0  3  0  0  0  0  0  0
  161.7150  205.2810  147.4820 C   0  0  0  0  0  3  0  0  0  0  0  0
  162.0690  206.2980  144.0580 F   0  0  0  0  0  0  0  0  0  0  0  0
  1 37  1  1  0  0  0
  1 29  1  0  0  0  0
  2  6  1  1  0  0  0
  2  4  1  0  0  0  0
  3  2  1  0  0  0  0
  3  5  1  0  0  0  0
  5  4  1  0  0  0  0
  5  1  1  6  0  0  0
  6  8  1  0  0  0  0
  7  9  1  0  0  0  0
  9  8  2  0  0  0  0
 10  6  2  0  0  0  0
 11 10  1  0  0  0  0
 11  7  2  0  0  0  0
 12 10  1  0  0  0  0
 13 12  1  0  0  0  0
 14 13  1  0  0  0  0
 15 14  1  0  0  0  0
 16 17  2  1  0  0  0
 16 21  1  0  0  0  0
 16 15  1  0  0  0  0
 18 19  1  0  0  0  0
 19 16  1  0  0  0  0
 20 19  1  0  0  0  0
 22 26  1  0  0  0  0
 22 21  1  0  0  0  0
 23 27  1  0  0  0  0
 23 28  1  0  0  0  0
 25 22  1  0  0  0  0
 27 25  1  0  0  0  0
 28 24  1  1  0  0  0
 28 26  1  0  0  0  0
 29 30  1  0  0  0  0
 30 36  1  0  0  0  0
 31 35  1  0  0  0  0
 32 33  2  0  0  0  0
 33 34  1  0  0  0  0
 35 34  2  0  0  0  0
 36 32  1  0  0  0  0
 36 31  2  0  0  0  0
 38 37  1  0  0  0  0
 38 39  1  0  0  0  0
 39 41  1  0  0  0  0
 41 40  2  0  0  0  0
 42 43  2  0  0  0  0
 42 40  1  0  0  0  0
 44 42  1  0  0  0  0
 45 47  1  0  0  0  0
 46 47  2  0  0  0  0
 47 44  1  0  0  0  0
 48 53  2  0  0  0  0
 49 53  1  0  0  0  0
 49 45  1  0  0  0  0
 50 51  1  0  0  0  0
 50 52  1  0  0  0  0
 51 54  1  6  0  0  0
 51 48  1  0  0  0  0
 52 49  2  0  0  0  0
M  END
>  <MODEL>
4

>  <REMARK>
 VINA RESULT:      -5.1      2.030      2.588
  Name = 
  20 active torsions:
  status: ('A' for Active; 'I' for Inactive)
    1  A    between atoms: C_3  and  N_5
    2  A    between atoms: C_3  and  P_11
    3  A    between atoms: N_6  and  C_10
    4  A    between atoms: N_8  and  C_13
    5  A    between atoms: C_9  and  C_22
    6  A    between atoms: C_10  and  S_53
    7  A    between atoms: P_11  and  P_25
    8  A    between atoms: P_11  and  C_35
    9  A    between atoms: C_15  and  N_17
   10  A    between atoms: C_15  and  N_29
   11  A    between atoms: C_15  and  C_48
   12  A    between atoms: N_17  and  C_23
   13  A    between atoms: C_20  and  S_33
   14  A    between atoms: C_20  and  C_34
   15  A    between atoms: C_23  and  C_39
   16  A    between atoms: S_33  and  C_37
   17  A    between atoms: C_34  and  C_35
   18  A    between atoms: C_39  and  C_51
   19  A    between atoms: C_42  and  S_53
   20  A    between atoms: C_45  and  C_47
                            x       y       z     vdW  Elec       q    Type
                         _______ _______ _______ _____ _____    ______ ____

>  <TORSDO>
F 20

$$$$
=
 OpenBabel11042422553D

 54 58  0  0  1  0  0  0  0  0999 V2000
  158.5270  212.9490  151.6600 C   0  0  1  0  0  3  0  0  0  0  0  0
  161.2040  211.1550  153.5240 C   0  0  2  0  0  3  0  0  0  0  0  0
  160.1010  212.1980  153.8350 C   0  0  0  0  0  2  0  0  0  0  0  0
  160.6940  211.1160  152.0500 C   0  0  0  0  0  2  0  0  0  0  0  0
  159.6580  212.1220  152.4240 C   0  0  2  0  0  3  0  0  0  0  0  0
  161.1230  209.8040  154.2940 C   0  0  0  0  0  0  0  0  0  0  0  0
  160.4050  207.5690  155.9200 C   0  0  0  0  0  3  0  0  0  0  0  0
  161.0000  209.8800  155.7100 C   0  0  0  0  0  3  0  0  0  0  0  0
  160.6520  208.7950  156.5110 C   0  0  0  0  0  3  0  0  0  0  0  0
  160.9540  208.5220  153.6940 C   0  0  0  0  0  0  0  0  0  0  0  0
  160.5550  207.4340  154.5160 C   0  0  0  0  0  3  0  0  0  0  0  0
  161.3560  208.0530  151.9490 S   0  0  0  0  0  0  0  0  0  0  0  0
  161.0000  206.2640  152.2710 C   0  0  0  0  0  2  0  0  0  0  0  0
  161.9110  205.0750  151.8740 C   0  0  0  0  0  2  0  0  0  0  0  0
  161.1890  203.6750  151.8240 C   0  0  0  0  0  2  0  0  0  0  0  0
  160.8150  203.3420  149.9780 P   0  0  2  0  0  0  0  0  0  0  0  0
  159.4610  203.6370  149.3370 O   0  0  0  0  0  0  0  0  0  0  0  0
  159.1380  201.0340  149.5570 O   0  0  0  0  0  1  0  0  0  0  0  0
  160.8320  201.1600  150.1120 P   0  0  0  0  0  0  0  0  0  0  0  0
  161.6250  200.4950  148.6730 O   0  0  0  0  0  1  0  0  0  0  0  0
  161.7650  204.6470  149.1700 C   0  0  0  0  0  2  0  0  0  0  0  0
  161.2830  204.9580  147.7790 N   0  0  0  0  0  0  0  0  0  0  0  0
  161.4600  204.8150  144.8190 C   0  0  0  0  0  2  0  0  0  0  0  0
  159.7960  206.5800  145.2790 O   0  0  0  0  0  1  0  0  0  0  0  0
  161.9770  203.8790  147.0570 C   0  0  0  0  0  2  0  0  0  0  0  0
  161.6410  206.1800  147.0130 C   0  0  0  0  0  2  0  0  0  0  0  0
  161.2460  203.6140  145.7180 C   0  0  0  0  0  2  0  0  0  0  0  0
  161.1490  206.0970  145.5500 C   0  0  1  0  0  3  0  0  0  0  0  0
  157.7230  213.8040  152.5890 N   0  0  0  0  0  2  0  0  0  0  0  0
  156.9500  213.1490  153.4080 C   0  0  0  0  0  2  0  0  0  0  0  0
  154.7520  214.0250  154.4780 C   0  0  0  0  0  3  0  0  0  0  0  0
  156.6390  213.6590  155.8410 C   0  0  0  0  0  3  0  0  0  0  0  0
  156.0090  214.0600  156.9690 N   0  0  0  0  0  0  0  0  0  0  0  0
  154.6780  214.4470  156.8630 C   0  0  0  0  0  3  0  0  0  0  0  0
  154.0420  214.4530  155.6490 C   0  0  0  0  0  3  0  0  0  0  0  0
  156.0880  213.6050  154.5570 C   0  0  0  0  0  0  0  0  0  0  0  0
  159.1010  213.7150  150.5810 N   0  0  0  0  0  2  0  0  0  0  0  0
  158.0100  214.2180  149.7660 C   0  0  0  0  0  2  0  0  0  0  0  0
  157.5670  213.0050  148.8170 C   0  0  0  0  0  2  0  0  0  0  0  0
  158.7220  213.5270  146.6550 N   0  0  0  0  0  0  0  0  0  0  0  0
  157.6780  213.5430  147.4190 C   0  0  0  0  0  3  0  0  0  0  0  0
  160.0860  213.0280  146.8050 C   0  0  0  0  0  0  0  0  0  0  0  0
  160.2860  212.1530  147.6760 O   0  0  0  0  0  0  0  0  0  0  0  0
  161.3920  213.8530  145.8160 S   0  0  0  0  0  0  0  0  0  0  0  0
  161.5820  214.2270  143.0440 N   0  0  0  0  0  2  0  0  0  0  0  0
  160.4400  212.2430  143.7310 N   0  0  0  0  0  2  0  0  0  0  0  0
  161.0480  213.3640  144.0580 C   0  0  0  0  0  0  0  0  0  0  0  0
  163.1440  213.3650  139.7230 C   0  0  0  0  0  3  0  0  0  0  0  0
  161.7020  213.9050  141.6600 C   0  0  0  0  0  0  0  0  0  0  0  0
  160.7000  213.5760  139.3810 C   0  0  0  0  0  2  0  0  0  0  0  0
  162.0900  213.8810  138.7890 C   0  0  2  0  0  3  0  0  0  0  0  0
  160.6500  213.9940  140.8690 C   0  0  0  0  0  3  0  0  0  0  0  0
  162.9840  213.4440  141.0630 C   0  0  0  0  0  3  0  0  0  0  0  0
  162.2320  213.3260  137.5560 F   0  0  0  0  0  0  0  0  0  0  0  0
  1 37  1  6  0  0  0
  1 29  1  0  0  0  0
  2  3  1  0  0  0  0
  2  6  1  1  0  0  0
  4  5  1  0  0  0  0
  4  2  1  0  0  0  0
  5  1  1  6  0  0  0
  5  3  1  0  0  0  0
  6  8  1  0  0  0  0
  7  9  1  0  0  0  0
  8  9  2  0  0  0  0
 10  6  2  0  0  0  0
 10 11  1  0  0  0  0
 11  7  2  0  0  0  0
 12 13  1  0  0  0  0
 12 10  1  0  0  0  0
 14 13  1  0  0  0  0
 15 14  1  0  0  0  0
 16 17  2  6  0  0  0
 16 19  1  0  0  0  0
 16 15  1  0  0  0  0
 18 19  1  0  0  0  0
 20 19  1  0  0  0  0
 21 16  1  0  0  0  0
 22 21  1  0  0  0  0
 23 28  1  0  0  0  0
 23 27  1  0  0  0  0
 25 22  1  0  0  0  0
 26 22  1  0  0  0  0
 27 25  1  0  0  0  0
 28 24  1  1  0  0  0
 28 26  1  0  0  0  0
 29 30  1  0  0  0  0
 30 36  1  0  0  0  0
 31 36  2  0  0  0  0
 31 35  1  0  0  0  0
 32 33  2  0  0  0  0
 34 33  1  0  0  0  0
 35 34  2  0  0  0  0
 36 32  1  0  0  0  0
 38 37  1  0  0  0  0
 39 38  1  0  0  0  0
 40 42  1  0  0  0  0
 40 41  2  0  0  0  0
 41 39  1  0  0  0  0
 42 43  2  0  0  0  0
 44 42  1  0  0  0  0
 45 47  1  0  0  0  0
 46 47  2  0  0  0  0
 47 44  1  0  0  0  0
 48 53  2  0  0  0  0
 49 45  1  0  0  0  0
 50 52  1  0  0  0  0
 51 54  1  6  0  0  0
 51 50  1  0  0  0  0
 51 48  1  0  0  0  0
 52 49  2  0  0  0  0
 53 49  1  0  0  0  0
M  END
>  <MODEL>
5

>  <REMARK>
 VINA RESULT:      -5.0      4.713      9.887
  Name = 
  20 active torsions:
  status: ('A' for Active; 'I' for Inactive)
    1  A    between atoms: C_3  and  N_5
    2  A    between atoms: C_3  and  P_11
    3  A    between atoms: N_6  and  C_10
    4  A    between atoms: N_8  and  C_13
    5  A    between atoms: C_9  and  C_22
    6  A    between atoms: C_10  and  S_53
    7  A    between atoms: P_11  and  P_25
    8  A    between atoms: P_11  and  C_35
    9  A    between atoms: C_15  and  N_17
   10  A    between atoms: C_15  and  N_29
   11  A    between atoms: C_15  and  C_48
   12  A    between atoms: N_17  and  C_23
   13  A    between atoms: C_20  and  S_33
   14  A    between atoms: C_20  and  C_34
   15  A    between atoms: C_23  and  C_39
   16  A    between atoms: S_33  and  C_37
   17  A    between atoms: C_34  and  C_35
   18  A    between atoms: C_39  and  C_51
   19  A    between atoms: C_42  and  S_53
   20  A    between atoms: C_45  and  C_47
                            x       y       z     vdW  Elec       q    Type
                         _______ _______ _______ _____ _____    ______ ____

>  <TORSDO>
F 20

$$$$
=
 OpenBabel11042422553D

 54 58  0  0  1  0  0  0  0  0999 V2000
  160.1140  211.2970  153.5750 C   0  0  1  0  0  3  0  0  0  0  0  0
  159.4260  213.6790  150.7980 C   0  0  2  0  0  3  0  0  0  0  0  0
  160.5270  212.6560  151.1770 C   0  0  0  0  0  2  0  0  0  0  0  0
  158.6520  213.2610  152.0870 C   0  0  0  0  0  2  0  0  0  0  0  0
  159.7520  212.2980  152.3860 C   0  0  2  0  0  3  0  0  0  0  0  0
  158.6730  213.4290  149.4580 C   0  0  0  0  0  0  0  0  0  0  0  0
  157.0370  213.5580  147.1210 C   0  0  0  0  0  3  0  0  0  0  0  0
  157.2500  213.4650  149.5050 C   0  0  0  0  0  3  0  0  0  0  0  0
  156.4440  213.5260  148.3710 C   0  0  0  0  0  3  0  0  0  0  0  0
  159.2800  213.3730  148.1700 C   0  0  0  0  0  0  0  0  0  0  0  0
  158.4490  213.4820  147.0220 C   0  0  0  0  0  3  0  0  0  0  0  0
  161.0550  213.0070  147.7950 S   0  0  0  0  0  0  0  0  0  0  0  0
  160.9450  213.8130  146.1300 C   0  0  0  0  0  2  0  0  0  0  0  0
  160.9750  213.0780  144.7670 C   0  0  0  0  0  2  0  0  0  0  0  0
  160.8720  214.0180  143.5060 C   0  0  0  0  0  2  0  0  0  0  0  0
  160.6400  212.8570  142.0030 P   0  0  2  0  0  0  0  0  0  0  0  0
  160.4710  211.3450  142.1400 O   0  0  0  0  0  0  0  0  0  0  0  0
  162.4080  211.7810  139.9950 O   0  0  0  0  0  1  0  0  0  0  0  0
  162.6700  213.0570  141.2190 P   0  0  0  0  0  0  0  0  0  0  0  0
  162.7370  214.4520  140.1280 O   0  0  0  0  0  1  0  0  0  0  0  0
  158.9550  213.2520  141.4900 C   0  0  0  0  0  2  0  0  0  0  0  0
  158.6380  212.7980  140.0920 N   0  0  0  0  0  0  0  0  0  0  0  0
  157.7090  213.2430  137.3080 C   0  0  0  0  0  2  0  0  0  0  0  0
  157.7580  210.7890  137.5850 O   0  0  0  0  0  1  0  0  0  0  0  0
  158.6880  214.1050  139.4170 C   0  0  0  0  0  2  0  0  0  0  0  0
  157.3330  212.2300  139.6620 C   0  0  0  0  0  2  0  0  0  0  0  0
  158.9440  213.8850  137.9060 C   0  0  0  0  0  2  0  0  0  0  0  0
  157.2680  212.0560  138.1270 C   0  0  1  0  0  3  0  0  0  0  0  0
  159.2190  211.4740  154.7610 N   0  0  0  0  0  2  0  0  0  0  0  0
  158.3130  212.4020  154.6300 C   0  0  0  0  0  2  0  0  0  0  0  0
  156.7580  214.1280  155.7910 C   0  0  0  0  0  3  0  0  0  0  0  0
  156.4170  211.8270  156.1640 C   0  0  0  0  0  3  0  0  0  0  0  0
  155.3730  212.0290  157.0000 N   0  0  0  0  0  0  0  0  0  0  0  0
  154.9790  213.3410  157.2360 C   0  0  0  0  0  3  0  0  0  0  0  0
  155.6510  214.3900  156.6670 C   0  0  0  0  0  3  0  0  0  0  0  0
  157.1630  212.8140  155.5140 C   0  0  0  0  0  0  0  0  0  0  0  0
  160.1220  209.9330  153.1030 N   0  0  0  0  0  2  0  0  0  0  0  0
  160.4940  209.0820  154.2190 C   0  0  0  0  0  2  0  0  0  0  0  0
  161.5010  207.9850  153.6250 C   0  0  0  0  0  2  0  0  0  0  0  0
  161.0990  205.5230  153.8680 N   0  0  0  0  0  0  0  0  0  0  0  0
  161.1740  206.7170  154.3610 C   0  0  0  0  0  3  0  0  0  0  0  0
  161.2850  204.9590  152.5350 C   0  0  0  0  0  0  0  0  0  0  0  0
  160.8250  203.8160  152.3250 O   0  0  0  0  0  0  0  0  0  0  0  0
  162.3140  205.9170  151.3570 S   0  0  0  0  0  0  0  0  0  0  0  0
  162.2550  205.5370  148.5800 N   0  0  0  0  0  2  0  0  0  0  0  0
  160.1210  205.8210  149.6170 N   0  0  0  0  0  2  0  0  0  0  0  0
  161.4330  205.7880  149.7280 C   0  0  0  0  0  0  0  0  0  0  0  0
  160.8950  205.6930  145.0670 C   0  0  0  0  0  3  0  0  0  0  0  0
  161.7880  205.1130  147.3020 C   0  0  0  0  0  0  0  0  0  0  0  0
  161.1500  203.3060  145.6790 C   0  0  0  0  0  2  0  0  0  0  0  0
  160.2550  204.3400  144.9680 C   0  0  2  0  0  3  0  0  0  0  0  0
  161.5730  203.8320  147.0700 C   0  0  0  0  0  3  0  0  0  0  0  0
  161.5500  206.0710  146.1890 C   0  0  0  0  0  3  0  0  0  0  0  0
  160.0520  204.0030  143.6670 F   0  0  0  0  0  0  0  0  0  0  0  0
  1 37  1  6  0  0  0
  1 29  1  0  0  0  0
  2  6  1  6  0  0  0
  2  3  1  0  0  0  0
  2  4  1  0  0  0  0
  3  5  1  0  0  0  0
  4  5  1  0  0  0  0
  5  1  1  1  0  0  0
  6  8  1  0  0  0  0
  7  9  1  0  0  0  0
  9  8  2  0  0  0  0
 10  6  2  0  0  0  0
 11  7  2  0  0  0  0
 11 10  1  0  0  0  0
 12 10  1  0  0  0  0
 13 12  1  0  0  0  0
 14 13  1  0  0  0  0
 15 14  1  0  0  0  0
 16 17  2  1  0  0  0
 16 15  1  0  0  0  0
 18 19  1  0  0  0  0
 19 16  1  0  0  0  0
 20 19  1  0  0  0  0
 21 16  1  0  0  0  0
 22 21  1  0  0  0  0
 23 27  1  0  0  0  0
 23 28  1  0  0  0  0
 25 22  1  0  0  0  0
 26 22  1  0  0  0  0
 27 25  1  0  0  0  0
 28 24  1  6  0  0  0
 28 26  1  0  0  0  0
 30 29  1  0  0  0  0
 30 36  1  0  0  0  0
 31 35  1  0  0  0  0
 32 33  2  0  0  0  0
 33 34  1  0  0  0  0
 35 34  2  0  0  0  0
 36 31  2  0  0  0  0
 36 32  1  0  0  0  0
 37 38  1  0  0  0  0
 39 38  1  0  0  0  0
 39 41  1  0  0  0  0
 40 41  2  0  0  0  0
 42 40  1  0  0  0  0
 43 42  2  0  0  0  0
 44 42  1  0  0  0  0
 45 47  1  0  0  0  0
 46 47  2  0  0  0  0
 47 44  1  0  0  0  0
 48 53  2  0  0  0  0
 49 45  1  0  0  0  0
 50 52  1  0  0  0  0
 51 54  1  6  0  0  0
 51 48  1  0  0  0  0
 51 50  1  0  0  0  0
 52 49  2  0  0  0  0
 53 49  1  0  0  0  0
M  END
>  <MODEL>
6

>  <REMARK>
 VINA RESULT:      -4.6      2.832      3.747
  Name = 
  20 active torsions:
  status: ('A' for Active; 'I' for Inactive)
    1  A    between atoms: C_3  and  N_5
    2  A    between atoms: C_3  and  P_11
    3  A    between atoms: N_6  and  C_10
    4  A    between atoms: N_8  and  C_13
    5  A    between atoms: C_9  and  C_22
    6  A    between atoms: C_10  and  S_53
    7  A    between atoms: P_11  and  P_25
    8  A    between atoms: P_11  and  C_35
    9  A    between atoms: C_15  and  N_17
   10  A    between atoms: C_15  and  N_29
   11  A    between atoms: C_15  and  C_48
   12  A    between atoms: N_17  and  C_23
   13  A    between atoms: C_20  and  S_33
   14  A    between atoms: C_20  and  C_34
   15  A    between atoms: C_23  and  C_39
   16  A    between atoms: S_33  and  C_37
   17  A    between atoms: C_34  and  C_35
   18  A    between atoms: C_39  and  C_51
   19  A    between atoms: C_42  and  S_53
   20  A    between atoms: C_45  and  C_47
                            x       y       z     vdW  Elec       q    Type
                         _______ _______ _______ _____ _____    ______ ____

>  <TORSDO>
F 20

$$$$
=
 OpenBabel11042422553D

 54 58  0  0  1  0  0  0  0  0999 V2000
  161.1770  211.1600  153.2250 C   0  0  1  0  0  3  0  0  0  0  0  0
  160.1290  212.1430  149.7910 C   0  0  2  0  0  3  0  0  0  0  0  0
  160.0190  212.7190  151.2260 C   0  0  0  0  0  2  0  0  0  0  0  0
  160.9380  210.9450  150.3790 C   0  0  0  0  0  2  0  0  0  0  0  0
  160.7900  211.5600  151.7300 C   0  0  2  0  0  3  0  0  0  0  0  0
  160.8910  213.0140  148.7480 C   0  0  0  0  0  0  0  0  0  0  0  0
  162.7630  214.1730  146.9300 C   0  0  0  0  0  3  0  0  0  0  0  0
  162.1360  213.5660  149.1610 C   0  0  0  0  0  3  0  0  0  0  0  0
  163.0550  214.1350  148.2820 C   0  0  0  0  0  3  0  0  0  0  0  0
  160.5520  213.1320  147.3690 C   0  0  0  0  0  0  0  0  0  0  0  0
  161.5160  213.6730  146.4760 C   0  0  0  0  0  3  0  0  0  0  0  0
  158.9000  212.8020  146.6000 S   0  0  0  0  0  0  0  0  0  0  0  0
  159.1310  214.1510  145.3520 C   0  0  0  0  0  2  0  0  0  0  0  0
  159.0290  213.9880  143.8150 C   0  0  0  0  0  2  0  0  0  0  0  0
  159.6320  212.6450  143.2500 C   0  0  0  0  0  2  0  0  0  0  0  0
  160.5950  213.1270  141.6690 P   0  0  2  0  0  0  0  0  0  0  0  0
  161.3570  214.4430  141.5280 O   0  0  0  0  0  0  0  0  0  0  0  0
  159.8050  214.2650  139.1400 O   0  0  0  0  0  1  0  0  0  0  0  0
  158.8450  213.4320  140.3960 P   0  0  0  0  0  0  0  0  0  0  0  0
  158.5020  211.9350  139.5090 O   0  0  0  0  0  1  0  0  0  0  0  0
  162.0200  212.0210  141.7550 C   0  0  0  0  0  2  0  0  0  0  0  0
  162.0930  211.0570  140.6020 N   0  0  0  0  0  0  0  0  0  0  0  0
  161.9470  210.3560  137.7210 C   0  0  0  0  0  2  0  0  0  0  0  0
  161.9300  208.1920  138.9110 O   0  0  0  0  0  1  0  0  0  0  0  0
  162.3180  212.0260  139.5170 C   0  0  0  0  0  2  0  0  0  0  0  0
  160.9550  210.2370  140.1110 C   0  0  0  0  0  2  0  0  0  0  0  0
  162.9730  211.2990  138.3170 C   0  0  0  0  0  2  0  0  0  0  0  0
  161.3070  209.5100  138.7930 C   0  0  1  0  0  3  0  0  0  0  0  0
  160.0470  211.3750  154.1820 N   0  0  0  0  0  2  0  0  0  0  0  0
  159.2900  212.4030  153.9160 C   0  0  0  0  0  2  0  0  0  0  0  0
  156.8330  213.2410  153.8550 C   0  0  0  0  0  3  0  0  0  0  0  0
  157.9460  213.0630  155.9240 C   0  0  0  0  0  3  0  0  0  0  0  0
  156.8830  213.5090  156.6320 N   0  0  0  0  0  0  0  0  0  0  0  0
  155.7250  213.8210  155.9300 C   0  0  0  0  0  3  0  0  0  0  0  0
  155.6790  213.7130  154.5650 C   0  0  0  0  0  3  0  0  0  0  0  0
  158.0080  212.8940  154.5380 C   0  0  0  0  0  0  0  0  0  0  0  0
  161.6770  209.8070  153.2760 N   0  0  0  0  0  2  0  0  0  0  0  0
  161.1450  209.1820  154.4720 C   0  0  0  0  0  2  0  0  0  0  0  0
  161.6660  207.6670  154.4530 C   0  0  0  0  0  2  0  0  0  0  0  0
  160.4870  205.9640  153.0410 N   0  0  0  0  0  0  0  0  0  0  0  0
  160.4940  206.8570  153.9770 C   0  0  0  0  0  3  0  0  0  0  0  0
  161.5050  205.4170  152.1490 C   0  0  0  0  0  0  0  0  0  0  0  0
  162.3850  206.2000  151.7320 O   0  0  0  0  0  0  0  0  0  0  0  0
  161.2920  203.6790  151.6040 S   0  0  0  0  0  0  0  0  0  0  0  0
  161.3080  205.0170  149.1400 N   0  0  0  0  0  2  0  0  0  0  0  0
  160.5270  202.7590  149.0710 N   0  0  0  0  0  2  0  0  0  0  0  0
  160.9600  203.7800  149.7800 C   0  0  0  0  0  0  0  0  0  0  0  0
  160.5150  206.2030  145.6510 C   0  0  0  0  0  3  0  0  0  0  0  0
  161.4210  205.2200  147.7340 C   0  0  0  0  0  0  0  0  0  0  0  0
  162.5520  204.7980  145.5320 C   0  0  0  0  0  2  0  0  0  0  0  0
  161.2190  205.1520  144.8440 C   0  0  2  0  0  3  0  0  0  0  0  0
  162.3270  204.5550  147.0420 C   0  0  0  0  0  3  0  0  0  0  0  0
  160.5590  206.1860  147.0030 C   0  0  0  0  0  3  0  0  0  0  0  0
  161.4210  205.5830  143.5710 F   0  0  0  0  0  0  0  0  0  0  0  0
  1 37  1  6  0  0  0
  1 29  1  0  0  0  0
  2  6  1  6  0  0  0
  2  4  1  0  0  0  0
  2  3  1  0  0  0  0
  3  5  1  0  0  0  0
  4  5  1  0  0  0  0
  5  1  1  1  0  0  0
  6  8  1  0  0  0  0
  7  9  1  0  0  0  0
  9  8  2  0  0  0  0
 10  6  2  0  0  0  0
 11  7  2  0  0  0  0
 11 10  1  0  0  0  0
 12 10  1  0  0  0  0
 13 12  1  0  0  0  0
 14 13  1  0  0  0  0
 15 14  1  0  0  0  0
 16 17  2  1  0  0  0
 16 21  1  0  0  0  0
 16 15  1  0  0  0  0
 18 19  1  0  0  0  0
 19 16  1  0  0  0  0
 20 19  1  0  0  0  0
 22 21  1  0  0  0  0
 23 27  1  0  0  0  0
 23 28  1  0  0  0  0
 25 22  1  0  0  0  0
 26 22  1  0  0  0  0
 27 25  1  0  0  0  0
 28 24  1  1  0  0  0
 28 26  1  0  0  0  0
 30 29  1  0  0  0  0
 30 36  1  0  0  0  0
 31 36  2  0  0  0  0
 31 35  1  0  0  0  0
 32 33  2  0  0  0  0
 34 33  1  0  0  0  0
 35 34  2  0  0  0  0
 36 32  1  0  0  0  0
 37 38  1  0  0  0  0
 39 38  1  0  0  0  0
 40 41  2  0  0  0  0
 41 39  1  0  0  0  0
 42 40  1  0  0  0  0
 43 42  2  0  0  0  0
 44 42  1  0  0  0  0
 45 47  1  0  0  0  0
 46 47  2  0  0  0  0
 47 44  1  0  0  0  0
 48 53  2  0  0  0  0
 49 45  1  0  0  0  0
 50 52  1  0  0  0  0
 51 54  1  6  0  0  0
 51 50  1  0  0  0  0
 51 48  1  0  0  0  0
 52 49  2  0  0  0  0
 53 49  1  0  0  0  0
M  END
>  <MODEL>
7

>  <REMARK>
 VINA RESULT:      -4.5      1.904      2.558
  Name = 
  20 active torsions:
  status: ('A' for Active; 'I' for Inactive)
    1  A    between atoms: C_3  and  N_5
    2  A    between atoms: C_3  and  P_11
    3  A    between atoms: N_6  and  C_10
    4  A    between atoms: N_8  and  C_13
    5  A    between atoms: C_9  and  C_22
    6  A    between atoms: C_10  and  S_53
    7  A    between atoms: P_11  and  P_25
    8  A    between atoms: P_11  and  C_35
    9  A    between atoms: C_15  and  N_17
   10  A    between atoms: C_15  and  N_29
   11  A    between atoms: C_15  and  C_48
   12  A    between atoms: N_17  and  C_23
   13  A    between atoms: C_20  and  S_33
   14  A    between atoms: C_20  and  C_34
   15  A    between atoms: C_23  and  C_39
   16  A    between atoms: S_33  and  C_37
   17  A    between atoms: C_34  and  C_35
   18  A    between atoms: C_39  and  C_51
   19  A    between atoms: C_42  and  S_53
   20  A    between atoms: C_45  and  C_47
                            x       y       z     vdW  Elec       q    Type
                         _______ _______ _______ _____ _____    ______ ____

>  <TORSDO>
F 20

$$$$
