=
 OpenBabel11042420093D

 30 35  0  0  1  0  0  0  0  0999 V2000
  160.8390  212.4250  150.4260 N   0  0  0  0  0  0  0  0  0  0  0  0
  162.0210  211.4790  148.5940 O   0  0  0  0  0  0  0  0  0  0  0  0
  160.7590  209.7510  152.8450 C   0  0  0  0  0  3  0  0  0  0  0  0
  161.5620  206.8140  149.6840 C   0  0  0  0  0  0  0  0  0  0  0  0
  161.6360  205.5060  151.7010 N   0  0  0  0  0  0  0  0  0  0  0  0
  160.7910  203.2940  149.1050 N   0  0  0  0  0  0  0  0  0  0  0  0
  161.7470  206.7050  151.0580 C   0  0  0  0  0  0  0  0  0  0  0  0
  161.7790  208.1940  149.3340 C   0  0  0  0  0  0  0  0  0  0  0  0
  161.6480  208.6830  148.1810 O   0  0  0  0  0  0  0  0  0  0  0  0
  162.1380  208.0250  151.6620 C   0  0  1  0  0  3  0  0  0  0  0  0
  161.3050  204.4260  150.9400 C   0  0  0  0  0  0  0  0  0  0  0  0
  162.1080  208.9470  150.5020 N   0  0  0  0  0  0  0  0  0  0  0  0
  161.1960  208.4800  152.7780 C   0  0  0  0  0  0  0  0  0  0  0  0
  160.8260  202.5160  150.2210 C   0  0  0  0  0  0  0  0  0  0  0  0
  161.5850  211.4060  149.7720 C   0  0  0  0  0  0  0  0  0  0  0  0
  161.0980  210.7010  151.7770 C   0  0  0  0  0  0  0  0  0  0  0  0
  160.5440  201.0570  150.1840 C   0  0  0  0  0  1  0  0  0  0  0  0
  160.5490  212.0080  151.5970 N   0  0  0  0  0  0  0  0  0  0  0  0
  161.2210  205.7100  148.8900 C   0  0  0  0  0  3  0  0  0  0  0  0
  161.1380  203.1700  151.3720 N   0  0  0  0  0  2  0  0  0  0  0  0
  161.1000  204.5050  149.5900 C   0  0  0  0  0  0  0  0  0  0  0  0
  161.7500  210.3150  150.7050 C   0  0  0  0  0  0  0  0  0  0  0  0
  160.8920  207.5590  153.9120 C   0  0  0  0  0  2  0  0  0  0  0  0
  159.7740  207.2890  155.9530 C   0  0  0  0  0  2  0  0  0  0  0  0
  159.8320  208.1240  154.7430 N   0  0  0  0  0  0  0  0  0  0  0  0
  160.3010  208.6450  156.0580 C   0  0  2  0  0  3  0  0  0  0  0  0
  162.1350  207.6850  157.2360 F   0  0  0  0  0  0  0  0  0  0  0  0
  161.8170  208.6210  156.2690 C   0  0  2  0  0  3  0  0  0  0  0  0
  162.8930  210.6550  155.6500 O   0  0  0  0  0  1  0  0  0  0  0  0
  162.2870  209.9920  156.7170 C   0  0  0  0  0  2  0  0  0  0  0  0
  1 18  2  0  0  0  0
  2 15  2  0  0  0  0
  4  7  2  0  0  0  0
  6 21  1  0  0  0  0
  6 14  2  0  0  0  0
  7  5  1  0  0  0  0
  8  4  1  0  0  0  0
  8 12  1  0  0  0  0
  9  8  2  0  0  0  0
 10  7  1  6  0  0  0
 10 13  1  0  0  0  0
 11 20  1  0  0  0  0
 11  5  2  0  0  0  0
 12 22  1  0  0  0  0
 12 10  1  0  0  0  0
 13  3  2  0  0  0  0
 13 23  1  0  0  0  0
 14 20  1  0  0  0  0
 15  1  1  0  0  0  0
 15 22  1  0  0  0  0
 16  3  1  0  0  0  0
 17 14  1  0  0  0  0
 18 16  1  0  0  0  0
 19 21  2  0  0  0  0
 19  4  1  0  0  0  0
 21 11  1  0  0  0  0
 22 16  2  0  0  0  0
 23 25  1  0  0  0  0
 24 26  1  0  0  0  0
 25 24  1  0  0  0  0
 25 26  1  0  0  0  0
 26 28  1  6  0  0  0
 28 30  1  0  0  0  0
 28 27  1  1  0  0  0
 29 30  1  0  0  0  0
M  END
>  <MODEL>
1

>  <REMARK>
 VINA RESULT:      -7.9      0.000      0.000
  Name = 
  4 active torsions:
  status: ('A' for Active; 'I' for Inactive)
    1  A    between atoms: N_10  and  C_23
    2  A    between atoms: C_11  and  C_20
    3  A    between atoms: C_18  and  C_23
    4  A    between atoms: C_20  and  C_26
                            x       y       z     vdW  Elec       q    Type
                         _______ _______ _______ _____ _____    ______ ____

>  <TORSDO>
F 4

$$$$
=
 OpenBabel11042420093D

 30 35  0  0  1  0  0  0  0  0999 V2000
  160.5080  203.7990  152.4540 N   0  0  0  0  0  0  0  0  0  0  0  0
  161.4610  205.4250  153.9020 O   0  0  0  0  0  0  0  0  0  0  0  0
  161.1400  205.1330  149.1630 C   0  0  0  0  0  3  0  0  0  0  0  0
  161.7190  209.1410  150.8550 C   0  0  0  0  0  0  0  0  0  0  0  0
  162.2800  209.4230  148.5330 N   0  0  0  0  0  0  0  0  0  0  0  0
  161.2600  212.5740  149.7050 N   0  0  0  0  0  0  0  0  0  0  0  0
  162.1450  208.6280  149.6350 C   0  0  0  0  0  0  0  0  0  0  0  0
  161.7170  208.0520  151.7970 C   0  0  0  0  0  0  0  0  0  0  0  0
  161.3380  208.1250  152.9960 O   0  0  0  0  0  0  0  0  0  0  0  0
  162.4830  207.1670  149.7450 C   0  0  1  0  0  3  0  0  0  0  0  0
  161.9470  210.7360  148.6750 C   0  0  0  0  0  0  0  0  0  0  0  0
  162.1530  206.8530  151.1560 N   0  0  0  0  0  0  0  0  0  0  0  0
  161.6990  206.2920  148.7670 C   0  0  0  0  0  0  0  0  0  0  0  0
  161.5700  212.7790  148.3960 C   0  0  0  0  0  0  0  0  0  0  0  0
  161.2420  204.9820  152.7450 C   0  0  0  0  0  0  0  0  0  0  0  0
  161.1850  204.7430  150.5780 C   0  0  0  0  0  0  0  0  0  0  0  0
  161.4510  214.1120  147.7480 C   0  0  0  0  0  1  0  0  0  0  0  0
  160.4700  203.6640  151.1850 N   0  0  0  0  0  0  0  0  0  0  0  0
  161.3740  210.4910  151.0140 C   0  0  0  0  0  3  0  0  0  0  0  0
  161.9980  211.6760  147.7240 N   0  0  0  0  0  2  0  0  0  0  0  0
  161.5080  211.2660  149.8580 C   0  0  0  0  0  0  0  0  0  0  0  0
  161.6840  205.5450  151.4900 C   0  0  0  0  0  0  0  0  0  0  0  0
  161.6960  206.6260  147.3130 C   0  0  0  0  0  2  0  0  0  0  0  0
  160.5190  206.5220  145.2900 C   0  0  0  0  0  2  0  0  0  0  0  0
  160.3720  206.3800  146.7460 N   0  0  0  0  0  0  0  0  0  0  0  0
  160.3030  205.1920  145.8490 C   0  0  2  0  0  3  0  0  0  0  0  0
  162.2770  204.6840  144.6190 F   0  0  0  0  0  0  0  0  0  0  0  0
  161.5830  204.3570  145.7690 C   0  0  2  0  0  3  0  0  0  0  0  0
  161.1830  202.3850  147.0460 O   0  0  0  0  0  1  0  0  0  0  0  0
  161.2250  202.8830  145.7440 C   0  0  0  0  0  2  0  0  0  0  0  0
  1 15  1  0  0  0  0
  3 16  1  0  0  0  0
  4 19  1  0  0  0  0
  4  8  1  0  0  0  0
  5 11  2  0  0  0  0
  5  7  1  0  0  0  0
  6 21  1  0  0  0  0
  7 10  1  0  0  0  0
  7  4  2  0  0  0  0
  8  9  2  0  0  0  0
 10 13  1  6  0  0  0
 10 12  1  0  0  0  0
 11 21  1  0  0  0  0
 12 22  1  0  0  0  0
 12  8  1  0  0  0  0
 13  3  2  0  0  0  0
 14  6  2  0  0  0  0
 15  2  2  0  0  0  0
 16 18  1  0  0  0  0
 16 22  2  0  0  0  0
 17 14  1  0  0  0  0
 18  1  2  0  0  0  0
 20 14  1  0  0  0  0
 20 11  1  0  0  0  0
 21 19  2  0  0  0  0
 22 15  1  0  0  0  0
 23 13  1  0  0  0  0
 24 26  1  0  0  0  0
 24 25  1  0  0  0  0
 25 23  1  0  0  0  0
 26 28  1  1  0  0  0
 26 25  1  0  0  0  0
 28 27  1  6  0  0  0
 30 28  1  0  0  0  0
 30 29  1  0  0  0  0
M  END
>  <MODEL>
2

>  <REMARK>
 VINA RESULT:      -7.7      3.644      8.151
  Name = 
  4 active torsions:
  status: ('A' for Active; 'I' for Inactive)
    1  A    between atoms: N_10  and  C_23
    2  A    between atoms: C_11  and  C_20
    3  A    between atoms: C_18  and  C_23
    4  A    between atoms: C_20  and  C_26
                            x       y       z     vdW  Elec       q    Type
                         _______ _______ _______ _____ _____    ______ ____

>  <TORSDO>
F 4

$$$$
=
 OpenBabel11042420093D

 30 35  0  0  1  0  0  0  0  0999 V2000
  159.8970  207.7290  155.8570 N   0  0  0  0  0  0  0  0  0  0  0  0
  160.2900  210.0420  156.2420 O   0  0  0  0  0  0  0  0  0  0  0  0
  161.2060  207.1960  152.5390 C   0  0  0  0  0  3  0  0  0  0  0  0
  160.9460  211.4960  151.7020 C   0  0  0  0  0  0  0  0  0  0  0  0
  162.0450  210.6080  149.7550 N   0  0  0  0  0  0  0  0  0  0  0  0
  160.4600  213.5760  148.7430 N   0  0  0  0  0  0  0  0  0  0  0  0
  161.7140  210.5200  151.0770 C   0  0  0  0  0  0  0  0  0  0  0  0
  160.8120  211.1120  153.0830 C   0  0  0  0  0  0  0  0  0  0  0  0
  160.1380  211.7290  153.9500 O   0  0  0  0  0  0  0  0  0  0  0  0
  162.1540  209.4640  152.0530 C   0  0  1  0  0  3  0  0  0  0  0  0
  161.5610  211.6800  149.0690 C   0  0  0  0  0  0  0  0  0  0  0  0
  161.5110  209.8890  153.3190 N   0  0  0  0  0  0  0  0  0  0  0  0
  161.7310  208.0530  151.6440 C   0  0  0  0  0  0  0  0  0  0  0  0
  161.0690  213.1120  147.6180 C   0  0  0  0  0  0  0  0  0  0  0  0
  160.4150  209.0120  155.5290 C   0  0  0  0  0  0  0  0  0  0  0  0
  160.9300  207.6460  153.9100 C   0  0  0  0  0  0  0  0  0  0  0  0
  160.9890  213.8250  146.3160 C   0  0  0  0  0  1  0  0  0  0  0  0
  160.1930  206.9320  154.9050 N   0  0  0  0  0  0  0  0  0  0  0  0
  160.4420  212.6050  151.0060 C   0  0  0  0  0  3  0  0  0  0  0  0
  161.7580  211.9490  147.7720 N   0  0  0  0  0  2  0  0  0  0  0  0
  160.7880  212.6470  149.6520 C   0  0  0  0  0  0  0  0  0  0  0  0
  161.1020  208.8980  154.2630 C   0  0  0  0  0  0  0  0  0  0  0  0
  162.0630  207.5460  150.2800 C   0  0  0  0  0  2  0  0  0  0  0  0
  161.2820  207.0130  148.1360 C   0  0  0  0  0  2  0  0  0  0  0  0
  160.8520  207.4680  149.4670 N   0  0  0  0  0  0  0  0  0  0  0  0
  160.5290  206.0960  148.9840 C   0  0  2  0  0  3  0  0  0  0  0  0
  161.8580  204.1890  148.4670 F   0  0  0  0  0  0  0  0  0  0  0  0
  161.4350  204.9830  149.5170 C   0  0  2  0  0  3  0  0  0  0  0  0
  161.4790  203.8440  151.6090 O   0  0  0  0  0  1  0  0  0  0  0  0
  160.6660  204.1390  150.5150 C   0  0  0  0  0  2  0  0  0  0  0  0
  3 16  1  0  0  0  0
  4  8  1  0  0  0  0
  5  7  1  0  0  0  0
  6 21  1  0  0  0  0
  7  4  2  0  0  0  0
  8 12  1  0  0  0  0
  8  9  2  0  0  0  0
 10  7  1  6  0  0  0
 10 12  1  0  0  0  0
 11 21  1  0  0  0  0
 11  5  2  0  0  0  0
 12 22  1  0  0  0  0
 13 10  1  0  0  0  0
 13  3  2  0  0  0  0
 14 20  1  0  0  0  0
 14  6  2  0  0  0  0
 15  1  1  0  0  0  0
 15  2  2  0  0  0  0
 16 22  2  0  0  0  0
 16 18  1  0  0  0  0
 17 14  1  0  0  0  0
 18  1  2  0  0  0  0
 19  4  1  0  0  0  0
 20 11  1  0  0  0  0
 21 19  2  0  0  0  0
 22 15  1  0  0  0  0
 23 13  1  0  0  0  0
 24 26  1  0  0  0  0
 24 25  1  0  0  0  0
 25 23  1  0  0  0  0
 26 25  1  0  0  0  0
 26 28  1  1  0  0  0
 28 27  1  6  0  0  0
 28 30  1  0  0  0  0
 30 29  1  0  0  0  0
M  END
>  <MODEL>
3

>  <REMARK>
 VINA RESULT:      -7.5      2.976      7.076
  Name = 
  4 active torsions:
  status: ('A' for Active; 'I' for Inactive)
    1  A    between atoms: N_10  and  C_23
    2  A    between atoms: C_11  and  C_20
    3  A    between atoms: C_18  and  C_23
    4  A    between atoms: C_20  and  C_26
                            x       y       z     vdW  Elec       q    Type
                         _______ _______ _______ _____ _____    ______ ____

>  <TORSDO>
F 4

$$$$
=
 OpenBabel11042420093D

 30 35  0  0  1  0  0  0  0  0999 V2000
  161.9740  207.6190  152.9840 N   0  0  0  0  0  0  0  0  0  0  0  0
  161.1040  205.6330  153.9580 O   0  0  0  0  0  0  0  0  0  0  0  0
  161.3770  207.1550  149.4570 C   0  0  0  0  0  3  0  0  0  0  0  0
  160.9880  202.8250  150.0520 C   0  0  0  0  0  0  0  0  0  0  0  0
  160.4220  203.1280  147.7340 N   0  0  0  0  0  0  0  0  0  0  0  0
  161.5890  199.8300  148.0550 N   0  0  0  0  0  0  0  0  0  0  0  0
  160.5310  203.6160  149.0050 C   0  0  0  0  0  0  0  0  0  0  0  0
  160.9490  203.6320  151.2440 C   0  0  0  0  0  0  0  0  0  0  0  0
  161.3390  203.2680  152.3850 O   0  0  0  0  0  0  0  0  0  0  0  0
  160.1290  204.9820  149.4880 C   0  0  1  0  0  3  0  0  0  0  0  0
  160.8130  201.8390  147.5330 C   0  0  0  0  0  0  0  0  0  0  0  0
  160.4550  204.9350  150.9330 N   0  0  0  0  0  0  0  0  0  0  0  0
  160.8670  206.1140  148.7730 C   0  0  0  0  0  0  0  0  0  0  0  0
  161.2780  199.9560  146.7370 C   0  0  0  0  0  0  0  0  0  0  0  0
  161.2950  206.3700  152.9560 C   0  0  0  0  0  0  0  0  0  0  0  0
  161.3260  207.1630  150.9250 C   0  0  0  0  0  0  0  0  0  0  0  0
  161.4500  198.8430  145.7660 C   0  0  0  0  0  1  0  0  0  0  0  0
  161.9970  208.0790  151.7930 N   0  0  0  0  0  0  0  0  0  0  0  0
  161.3930  201.4960  149.8580 C   0  0  0  0  0  3  0  0  0  0  0  0
  160.7970  201.1750  146.3710 N   0  0  0  0  0  2  0  0  0  0  0  0
  161.2840  201.0410  148.5400 C   0  0  0  0  0  0  0  0  0  0  0  0
  160.8690  206.1320  151.5960 C   0  0  0  0  0  0  0  0  0  0  0  0
  160.8740  206.1690  147.2810 C   0  0  0  0  0  2  0  0  0  0  0  0
  162.9150  205.0780  146.9210 C   0  0  0  0  0  2  0  0  0  0  0  0
  162.2350  206.3760  146.7950 N   0  0  0  0  0  0  0  0  0  0  0  0
  162.5820  205.5720  145.5890 C   0  0  2  0  0  3  0  0  0  0  0  0
  161.8810  203.5100  144.6280 F   0  0  0  0  0  0  0  0  0  0  0  0
  161.4290  204.7670  144.9860 C   0  0  2  0  0  3  0  0  0  0  0  0
  161.9560  205.8280  142.9190 O   0  0  0  0  0  1  0  0  0  0  0  0
  160.8980  205.4830  143.7590 C   0  0  0  0  0  2  0  0  0  0  0  0
  3 16  1  0  0  0  0
  4  8  1  0  0  0  0
  5  7  1  0  0  0  0
  6 21  1  0  0  0  0
  7 10  1  0  0  0  0
  7  4  2  0  0  0  0
  8  9  2  0  0  0  0
 10 13  1  6  0  0  0
 10 12  1  0  0  0  0
 11  5  2  0  0  0  0
 11 21  1  0  0  0  0
 12  8  1  0  0  0  0
 12 22  1  0  0  0  0
 13  3  2  0  0  0  0
 14  6  2  0  0  0  0
 15  1  1  0  0  0  0
 15  2  2  0  0  0  0
 16 22  2  0  0  0  0
 16 18  1  0  0  0  0
 17 14  1  0  0  0  0
 18  1  2  0  0  0  0
 19  4  1  0  0  0  0
 20 14  1  0  0  0  0
 20 11  1  0  0  0  0
 21 19  2  0  0  0  0
 22 15  1  0  0  0  0
 23 13  1  0  0  0  0
 25 24  1  0  0  0  0
 25 23  1  0  0  0  0
 26 28  1  1  0  0  0
 26 25  1  0  0  0  0
 26 24  1  0  0  0  0
 28 27  1  6  0  0  0
 29 30  1  0  0  0  0
 30 28  1  0  0  0  0
M  END
>  <MODEL>
4

>  <REMARK>
 VINA RESULT:      -7.5      4.102      7.200
  Name = 
  4 active torsions:
  status: ('A' for Active; 'I' for Inactive)
    1  A    between atoms: N_10  and  C_23
    2  A    between atoms: C_11  and  C_20
    3  A    between atoms: C_18  and  C_23
    4  A    between atoms: C_20  and  C_26
                            x       y       z     vdW  Elec       q    Type
                         _______ _______ _______ _____ _____    ______ ____

>  <TORSDO>
F 4

$$$$
=
 OpenBabel11042420093D

 30 35  0  0  1  0  0  0  0  0999 V2000
  160.7790  209.0660  154.7090 N   0  0  0  0  0  0  0  0  0  0  0  0
  162.0820  210.3050  153.1530 O   0  0  0  0  0  0  0  0  0  0  0  0
  160.6160  205.7790  153.2350 C   0  0  0  0  0  3  0  0  0  0  0  0
  161.6530  207.4430  149.3090 C   0  0  0  0  0  0  0  0  0  0  0  0
  161.6390  205.0680  148.9280 N   0  0  0  0  0  0  0  0  0  0  0  0
  160.9850  206.5820  145.8260 N   0  0  0  0  0  0  0  0  0  0  0  0
  161.7620  206.1360  149.7700 C   0  0  0  0  0  0  0  0  0  0  0  0
  161.8620  208.3110  150.4380 C   0  0  0  0  0  0  0  0  0  0  0  0
  161.7870  209.5680  150.4160 O   0  0  0  0  0  0  0  0  0  0  0  0
  162.0930  206.1000  151.2360 C   0  0  1  0  0  3  0  0  0  0  0  0
  161.3720  205.3410  147.6210 C   0  0  0  0  0  0  0  0  0  0  0  0
  162.1100  207.5340  151.6100 N   0  0  0  0  0  0  0  0  0  0  0  0
  161.0810  205.3070  152.0630 C   0  0  0  0  0  0  0  0  0  0  0  0
  160.9720  205.2470  145.5650 C   0  0  0  0  0  0  0  0  0  0  0  0
  161.5810  209.2190  153.5440 C   0  0  0  0  0  0  0  0  0  0  0  0
  160.9960  207.1230  153.6870 C   0  0  0  0  0  0  0  0  0  0  0  0
  160.7220  204.7020  144.2040 C   0  0  0  0  0  1  0  0  0  0  0  0
  160.4320  207.8400  154.7870 N   0  0  0  0  0  0  0  0  0  0  0  0
  161.3800  207.7370  147.9650 C   0  0  0  0  0  3  0  0  0  0  0  0
  161.2060  204.4460  146.6390 N   0  0  0  0  0  2  0  0  0  0  0  0
  161.2420  206.6160  147.1410 C   0  0  0  0  0  0  0  0  0  0  0  0
  161.7150  207.9180  152.9290 C   0  0  0  0  0  0  0  0  0  0  0  0
  160.7310  203.9120  151.6650 C   0  0  0  0  0  2  0  0  0  0  0  0
  161.5810  201.7550  152.0050 C   0  0  0  0  0  2  0  0  0  0  0  0
  161.9440  203.1060  151.5480 N   0  0  0  0  0  0  0  0  0  0  0  0
  161.8350  201.9740  150.5860 C   0  0  2  0  0  3  0  0  0  0  0  0
  159.7020  200.9470  150.3240 F   0  0  0  0  0  0  0  0  0  0  0  0
  160.5290  201.9170  149.7880 C   0  0  2  0  0  3  0  0  0  0  0  0
  161.5690  200.3980  148.2750 O   0  0  0  0  0  1  0  0  0  0  0  0
  160.8340  201.5800  148.3410 C   0  0  0  0  0  2  0  0  0  0  0  0
  1 18  2  0  0  0  0
  2 15  2  0  0  0  0
  3 16  1  0  0  0  0
  4  7  2  0  0  0  0
  4  8  1  0  0  0  0
  5  7  1  0  0  0  0
  6 21  1  0  0  0  0
  8 12  1  0  0  0  0
  9  8  2  0  0  0  0
 10  7  1  6  0  0  0
 10 12  1  0  0  0  0
 10 13  1  0  0  0  0
 11  5  2  0  0  0  0
 12 22  1  0  0  0  0
 13  3  2  0  0  0  0
 14  6  2  0  0  0  0
 14 20  1  0  0  0  0
 15  1  1  0  0  0  0
 16 18  1  0  0  0  0
 17 14  1  0  0  0  0
 19  4  1  0  0  0  0
 20 11  1  0  0  0  0
 21 11  1  0  0  0  0
 21 19  2  0  0  0  0
 22 15  1  0  0  0  0
 22 16  2  0  0  0  0
 23 13  1  0  0  0  0
 25 23  1  0  0  0  0
 25 24  1  0  0  0  0
 26 28  1  6  0  0  0
 26 25  1  0  0  0  0
 26 24  1  0  0  0  0
 28 27  1  1  0  0  0
 29 30  1  0  0  0  0
 30 28  1  0  0  0  0
M  END
>  <MODEL>
5

>  <REMARK>
 VINA RESULT:      -7.2      3.078      5.786
  Name = 
  4 active torsions:
  status: ('A' for Active; 'I' for Inactive)
    1  A    between atoms: N_10  and  C_23
    2  A    between atoms: C_11  and  C_20
    3  A    between atoms: C_18  and  C_23
    4  A    between atoms: C_20  and  C_26
                            x       y       z     vdW  Elec       q    Type
                         _______ _______ _______ _____ _____    ______ ____

>  <TORSDO>
F 4

$$$$
=
 OpenBabel11042420093D

 30 35  0  0  1  0  0  0  0  0999 V2000
  160.5230  213.5650  149.2230 N   0  0  0  0  0  0  0  0  0  0  0  0
  162.0780  212.3150  147.9300 O   0  0  0  0  0  0  0  0  0  0  0  0
  160.1620  211.6020  152.2270 C   0  0  0  0  0  3  0  0  0  0  0  0
  161.7110  208.0610  150.1490 C   0  0  0  0  0  0  0  0  0  0  0  0
  161.4920  207.3250  152.4280 N   0  0  0  0  0  0  0  0  0  0  0  0
  161.2760  204.4480  150.4230 N   0  0  0  0  0  0  0  0  0  0  0  0
  161.6460  208.3260  151.5120 C   0  0  0  0  0  0  0  0  0  0  0  0
  161.9040  209.3210  149.4790 C   0  0  0  0  0  0  0  0  0  0  0  0
  161.9580  209.4840  148.2320 O   0  0  0  0  0  0  0  0  0  0  0  0
  161.8380  209.7910  151.7930 C   0  0  1  0  0  3  0  0  0  0  0  0
  161.3730  206.0580  151.9430 C   0  0  0  0  0  0  0  0  0  0  0  0
  161.9660  210.3770  150.4380 N   0  0  0  0  0  0  0  0  0  0  0  0
  160.6810  210.4100  152.5770 C   0  0  0  0  0  0  0  0  0  0  0  0
  161.1520  203.9880  151.6980 C   0  0  0  0  0  0  0  0  0  0  0  0
  161.4380  212.4990  148.9980 C   0  0  0  0  0  0  0  0  0  0  0  0
  160.6340  212.2790  151.0130 C   0  0  0  0  0  0  0  0  0  0  0  0
  160.9710  202.5460  152.0110 C   0  0  0  0  0  1  0  0  0  0  0  0
  160.0480  213.4310  150.4010 N   0  0  0  0  0  0  0  0  0  0  0  0
  161.5900  206.7610  149.6370 C   0  0  0  0  0  3  0  0  0  0  0  0
  161.2060  204.9430  152.6650 N   0  0  0  0  0  2  0  0  0  0  0  0
  161.4150  205.7690  150.6070 C   0  0  0  0  0  0  0  0  0  0  0  0
  161.4940  211.7060  150.2040 C   0  0  0  0  0  0  0  0  0  0  0  0
  160.2290  209.7810  153.8530 C   0  0  0  0  0  2  0  0  0  0  0  0
  159.0130  210.2450  155.8010 C   0  0  0  0  0  2  0  0  0  0  0  0
  159.9940  210.8110  154.8620 N   0  0  0  0  0  0  0  0  0  0  0  0
  160.3930  210.4160  156.2420 C   0  0  2  0  0  3  0  0  0  0  0  0
  160.2350  208.1400  156.9260 F   0  0  0  0  0  0  0  0  0  0  0  0
  161.0960  209.0610  156.3570 C   0  0  2  0  0  3  0  0  0  0  0  0
  163.0770  210.3050  156.8090 O   0  0  0  0  0  1  0  0  0  0  0  0
  162.3310  209.2030  157.2250 C   0  0  0  0  0  2  0  0  0  0  0  0
  1 18  2  0  0  0  0
  2 15  2  0  0  0  0
  3 13  2  0  0  0  0
  4  7  2  0  0  0  0
  6 21  1  0  0  0  0
  6 14  2  0  0  0  0
  7  5  1  0  0  0  0
  8  4  1  0  0  0  0
  8 12  1  0  0  0  0
  9  8  2  0  0  0  0
 10  7  1  6  0  0  0
 10 13  1  0  0  0  0
 11  5  2  0  0  0  0
 11 20  1  0  0  0  0
 12 10  1  0  0  0  0
 13 23  1  0  0  0  0
 14 17  1  0  0  0  0
 14 20  1  0  0  0  0
 15  1  1  0  0  0  0
 15 22  1  0  0  0  0
 16  3  1  0  0  0  0
 18 16  1  0  0  0  0
 19  4  1  0  0  0  0
 19 21  2  0  0  0  0
 21 11  1  0  0  0  0
 22 12  1  0  0  0  0
 22 16  2  0  0  0  0
 23 25  1  0  0  0  0
 24 26  1  0  0  0  0
 25 24  1  0  0  0  0
 25 26  1  0  0  0  0
 26 28  1  6  0  0  0
 28 27  1  1  0  0  0
 28 30  1  0  0  0  0
 29 30  1  0  0  0  0
M  END
>  <MODEL>
6

>  <REMARK>
 VINA RESULT:      -7.1      1.457      1.805
  Name = 
  4 active torsions:
  status: ('A' for Active; 'I' for Inactive)
    1  A    between atoms: N_10  and  C_23
    2  A    between atoms: C_11  and  C_20
    3  A    between atoms: C_18  and  C_23
    4  A    between atoms: C_20  and  C_26
                            x       y       z     vdW  Elec       q    Type
                         _______ _______ _______ _____ _____    ______ ____

>  <TORSDO>
F 4

$$$$
=
 OpenBabel11042420093D

 30 35  0  0  1  0  0  0  0  0999 V2000
  160.8320  205.3490  147.1440 N   0  0  0  0  0  0  0  0  0  0  0  0
  161.2800  204.0830  149.1050 O   0  0  0  0  0  0  0  0  0  0  0  0
  161.6510  208.7230  148.1180 C   0  0  0  0  0  3  0  0  0  0  0  0
  161.2800  207.6330  152.3530 C   0  0  0  0  0  0  0  0  0  0  0  0
  162.0870  209.8980  152.4220 N   0  0  0  0  0  0  0  0  0  0  0  0
  160.3780  209.3530  155.4430 N   0  0  0  0  0  0  0  0  0  0  0  0
  161.9490  208.7050  151.7730 C   0  0  0  0  0  0  0  0  0  0  0  0
  161.3450  206.5370  151.4220 C   0  0  0  0  0  0  0  0  0  0  0  0
  160.8030  205.4110  151.5810 O   0  0  0  0  0  0  0  0  0  0  0  0
  162.5230  208.3300  150.4340 C   0  0  1  0  0  3  0  0  0  0  0  0
  161.5110  210.0010  153.6520 C   0  0  0  0  0  0  0  0  0  0  0  0
  162.0680  206.9310  150.2560 N   0  0  0  0  0  0  0  0  0  0  0  0
  162.0440  209.2360  149.2990 C   0  0  0  0  0  0  0  0  0  0  0  0
  160.8190  210.6370  155.5260 C   0  0  0  0  0  0  0  0  0  0  0  0
  161.2990  205.1720  148.4750 C   0  0  0  0  0  0  0  0  0  0  0  0
  161.5740  207.2680  147.9390 C   0  0  0  0  0  0  0  0  0  0  0  0
  160.5540  211.4960  156.7100 C   0  0  0  0  0  1  0  0  0  0  0  0
  160.9870  206.5770  146.8340 N   0  0  0  0  0  0  0  0  0  0  0  0
  160.6830  207.7260  153.6190 C   0  0  0  0  0  3  0  0  0  0  0  0
  161.5210  211.0780  154.4480 N   0  0  0  0  0  2  0  0  0  0  0  0
  160.8310  208.9700  154.2420 C   0  0  0  0  0  0  0  0  0  0  0  0
  161.7980  206.4460  148.9390 C   0  0  0  0  0  0  0  0  0  0  0  0
  162.1760  210.7170  149.4260 C   0  0  0  0  0  2  0  0  0  0  0  0
  161.0570  212.7750  149.3690 C   0  0  0  0  0  2  0  0  0  0  0  0
  160.9620  211.3700  148.9430 N   0  0  0  0  0  0  0  0  0  0  0  0
  161.2060  212.4570  147.9540 C   0  0  2  0  0  3  0  0  0  0  0  0
  163.2610  213.6210  148.2610 F   0  0  0  0  0  0  0  0  0  0  0  0
  162.6620  212.6250  147.5110 C   0  0  2  0  0  3  0  0  0  0  0  0
  161.4190  212.9620  145.5070 O   0  0  0  0  0  1  0  0  0  0  0  0
  162.7060  212.9990  146.0430 C   0  0  0  0  0  2  0  0  0  0  0  0
  1 15  1  0  0  0  0
  3 13  2  0  0  0  0
  4 19  1  0  0  0  0
  5 11  2  0  0  0  0
  6 14  2  0  0  0  0
  7  4  2  0  0  0  0
  7  5  1  0  0  0  0
  8  9  2  0  0  0  0
  8  4  1  0  0  0  0
 10 13  1  6  0  0  0
 10  7  1  0  0  0  0
 11 21  1  0  0  0  0
 11 20  1  0  0  0  0
 12 10  1  0  0  0  0
 12  8  1  0  0  0  0
 13 23  1  0  0  0  0
 14 17  1  0  0  0  0
 15 22  1  0  0  0  0
 15  2  2  0  0  0  0
 16  3  1  0  0  0  0
 16 22  2  0  0  0  0
 18  1  2  0  0  0  0
 18 16  1  0  0  0  0
 19 21  2  0  0  0  0
 20 14  1  0  0  0  0
 21  6  1  0  0  0  0
 22 12  1  0  0  0  0
 25 24  1  0  0  0  0
 25 23  1  0  0  0  0
 26 28  1  1  0  0  0
 26 25  1  0  0  0  0
 26 24  1  0  0  0  0
 28 27  1  1  0  0  0
 29 30  1  0  0  0  0
 30 28  1  0  0  0  0
M  END
>  <MODEL>
7

>  <REMARK>
 VINA RESULT:      -7.1      3.239      7.163
  Name = 
  4 active torsions:
  status: ('A' for Active; 'I' for Inactive)
    1  A    between atoms: N_10  and  C_23
    2  A    between atoms: C_11  and  C_20
    3  A    between atoms: C_18  and  C_23
    4  A    between atoms: C_20  and  C_26
                            x       y       z     vdW  Elec       q    Type
                         _______ _______ _______ _____ _____    ______ ____

>  <TORSDO>
F 4

$$$$
=
 OpenBabel11042420093D

 30 35  0  0  1  0  0  0  0  0999 V2000
  161.3800  201.3650  150.5240 N   0  0  0  0  0  0  0  0  0  0  0  0
  160.3890  202.1430  148.5080 O   0  0  0  0  0  0  0  0  0  0  0  0
  161.6100  204.3400  152.5490 C   0  0  0  0  0  3  0  0  0  0  0  0
  161.2590  206.8530  148.9680 C   0  0  0  0  0  0  0  0  0  0  0  0
  161.2180  208.4390  150.7760 N   0  0  0  0  0  0  0  0  0  0  0  0
  162.4050  210.1670  147.9560 N   0  0  0  0  0  0  0  0  0  0  0  0
  161.0200  207.1750  150.2990 C   0  0  0  0  0  0  0  0  0  0  0  0
  160.9230  205.4630  148.8000 C   0  0  0  0  0  0  0  0  0  0  0  0
  161.0600  204.8030  147.7360 O   0  0  0  0  0  0  0  0  0  0  0  0
  160.4690  205.9980  151.0550 C   0  0  1  0  0  3  0  0  0  0  0  0
  161.6930  209.3630  149.8950 C   0  0  0  0  0  0  0  0  0  0  0  0
  160.4630  204.9200  150.0380 N   0  0  0  0  0  0  0  0  0  0  0  0
  161.3050  205.6240  152.2790 C   0  0  0  0  0  0  0  0  0  0  0  0
  162.3950  211.0970  148.9480 C   0  0  0  0  0  0  0  0  0  0  0  0
  160.7720  202.3440  149.6900 C   0  0  0  0  0  0  0  0  0  0  0  0
  161.2290  203.2820  151.6040 C   0  0  0  0  0  0  0  0  0  0  0  0
  162.8220  212.5040  148.7280 C   0  0  0  0  0  1  0  0  0  0  0  0
  161.6530  201.9180  151.6410 N   0  0  0  0  0  0  0  0  0  0  0  0
  161.7470  207.7960  148.0510 C   0  0  0  0  0  3  0  0  0  0  0  0
  161.9630  210.6480  150.1570 N   0  0  0  0  0  2  0  0  0  0  0  0
  161.9540  209.0720  148.5830 C   0  0  0  0  0  0  0  0  0  0  0  0
  160.6720  203.5680  150.4500 C   0  0  0  0  0  0  0  0  0  0  0  0
  161.6460  206.6660  153.2910 C   0  0  0  0  0  2  0  0  0  0  0  0
  161.2630  207.1980  155.5400 C   0  0  0  0  0  2  0  0  0  0  0  0
  160.6020  206.7310  154.3120 N   0  0  0  0  0  0  0  0  0  0  0  0
  160.3530  208.1000  154.8440 C   0  0  2  0  0  3  0  0  0  0  0  0
  162.0310  209.7780  155.0400 F   0  0  0  0  0  0  0  0  0  0  0  0
  161.1290  209.2230  154.1510 C   0  0  2  0  0  3  0  0  0  0  0  0
  160.8630  211.4430  153.3280 O   0  0  0  0  0  1  0  0  0  0  0  0
  160.1610  210.2900  153.6770 C   0  0  0  0  0  2  0  0  0  0  0  0
  1 18  2  0  0  0  0
  2 15  2  0  0  0  0
  4  7  2  0  0  0  0
  6 21  1  0  0  0  0
  6 14  2  0  0  0  0
  7  5  1  0  0  0  0
  8  4  1  0  0  0  0
  8 12  1  0  0  0  0
  9  8  2  0  0  0  0
 10  7  1  6  0  0  0
 10 13  1  0  0  0  0
 11 20  1  0  0  0  0
 11  5  2  0  0  0  0
 12 22  1  0  0  0  0
 12 10  1  0  0  0  0
 13  3  2  0  0  0  0
 13 23  1  0  0  0  0
 14 20  1  0  0  0  0
 15 22  1  0  0  0  0
 15  1  1  0  0  0  0
 16 18  1  0  0  0  0
 16  3  1  0  0  0  0
 17 14  1  0  0  0  0
 19 21  2  0  0  0  0
 19  4  1  0  0  0  0
 21 11  1  0  0  0  0
 22 16  2  0  0  0  0
 23 25  1  0  0  0  0
 25 26  1  0  0  0  0
 25 24  1  0  0  0  0
 26 28  1  6  0  0  0
 26 24  1  0  0  0  0
 28 27  1  1  0  0  0
 29 30  1  0  0  0  0
 30 28  1  0  0  0  0
M  END
>  <MODEL>
8

>  <REMARK>
 VINA RESULT:      -7.0      2.125      5.850
  Name = 
  4 active torsions:
  status: ('A' for Active; 'I' for Inactive)
    1  A    between atoms: N_10  and  C_23
    2  A    between atoms: C_11  and  C_20
    3  A    between atoms: C_18  and  C_23
    4  A    between atoms: C_20  and  C_26
                            x       y       z     vdW  Elec       q    Type
                         _______ _______ _______ _____ _____    ______ ____

>  <TORSDO>
F 4

$$$$
=
 OpenBabel11042420093D

 30 35  0  0  1  0  0  0  0  0999 V2000
  159.8160  207.7540  155.9900 N   0  0  0  0  0  0  0  0  0  0  0  0
  160.2320  210.0690  156.3390 O   0  0  0  0  0  0  0  0  0  0  0  0
  161.1460  207.1500  152.6930 C   0  0  0  0  0  3  0  0  0  0  0  0
  160.9410  211.4370  151.7800 C   0  0  0  0  0  0  0  0  0  0  0  0
  162.0460  210.5040  149.8580 N   0  0  0  0  0  0  0  0  0  0  0  0
  160.5030  213.4710  148.7820 N   0  0  0  0  0  0  0  0  0  0  0  0
  161.7030  210.4420  151.1780 C   0  0  0  0  0  0  0  0  0  0  0  0
  160.7920  211.0790  153.1670 C   0  0  0  0  0  0  0  0  0  0  0  0
  160.1180  211.7180  154.0170 O   0  0  0  0  0  0  0  0  0  0  0  0
  162.1240  209.3980  152.1760 C   0  0  1  0  0  3  0  0  0  0  0  0
  161.5800  211.5690  149.1490 C   0  0  0  0  0  0  0  0  0  0  0  0
  161.4750  209.8520  153.4290 N   0  0  0  0  0  0  0  0  0  0  0  0
  161.6890  207.9850  151.7870 C   0  0  0  0  0  0  0  0  0  0  0  0
  161.1160  212.9810  147.6700 C   0  0  0  0  0  0  0  0  0  0  0  0
  160.3510  209.0260  155.6440 C   0  0  0  0  0  0  0  0  0  0  0  0
  160.8640  207.6260  154.0530 C   0  0  0  0  0  0  0  0  0  0  0  0
  161.0540  213.6720  146.3550 C   0  0  0  0  0  1  0  0  0  0  0  0
  160.1110  206.9380  155.0550 N   0  0  0  0  0  0  0  0  0  0  0  0
  160.4560  212.5390  151.0610 C   0  0  0  0  0  3  0  0  0  0  0  0
  161.7900  211.8140  147.8500 N   0  0  0  0  0  2  0  0  0  0  0  0
  160.8130  212.5550  149.7090 C   0  0  0  0  0  0  0  0  0  0  0  0
  161.0480  208.8820  154.3870 C   0  0  0  0  0  0  0  0  0  0  0  0
  162.0260  207.4510  150.4350 C   0  0  0  0  0  2  0  0  0  0  0  0
  160.2530  206.2020  149.5480 C   0  0  0  0  0  2  0  0  0  0  0  0
  161.5160  206.0900  150.2940 N   0  0  0  0  0  0  0  0  0  0  0  0
  161.4140  205.6190  148.8840 C   0  0  2  0  0  3  0  0  0  0  0  0
  161.0270  207.5380  147.5280 F   0  0  0  0  0  0  0  0  0  0  0  0
  161.9750  206.5780  147.8320 C   0  0  2  0  0  3  0  0  0  0  0  0
  162.1170  204.4410  146.7880 O   0  0  0  0  0  1  0  0  0  0  0  0
  162.3320  205.8020  146.5780 C   0  0  0  0  0  2  0  0  0  0  0  0
  3 16  1  0  0  0  0
  4  8  1  0  0  0  0
  5  7  1  0  0  0  0
  6 21  1  0  0  0  0
  7  4  2  0  0  0  0
  8 12  1  0  0  0  0
  8  9  2  0  0  0  0
 10  7  1  6  0  0  0
 10 12  1  0  0  0  0
 11 21  1  0  0  0  0
 11  5  2  0  0  0  0
 12 22  1  0  0  0  0
 13 10  1  0  0  0  0
 13  3  2  0  0  0  0
 14 20  1  0  0  0  0
 14  6  2  0  0  0  0
 15  1  1  0  0  0  0
 15  2  2  0  0  0  0
 16 22  2  0  0  0  0
 16 18  1  0  0  0  0
 17 14  1  0  0  0  0
 18  1  2  0  0  0  0
 19  4  1  0  0  0  0
 20 11  1  0  0  0  0
 21 19  2  0  0  0  0
 22 15  1  0  0  0  0
 23 13  1  0  0  0  0
 24 25  1  0  0  0  0
 25 23  1  0  0  0  0
 26 28  1  6  0  0  0
 26 24  1  0  0  0  0
 26 25  1  0  0  0  0
 28 27  1  6  0  0  0
 30 29  1  0  0  0  0
 30 28  1  0  0  0  0
M  END
>  <MODEL>
9

>  <REMARK>
 VINA RESULT:      -7.0      2.933      7.289
  Name = 
  4 active torsions:
  status: ('A' for Active; 'I' for Inactive)
    1  A    between atoms: N_10  and  C_23
    2  A    between atoms: C_11  and  C_20
    3  A    between atoms: C_18  and  C_23
    4  A    between atoms: C_20  and  C_26
                            x       y       z     vdW  Elec       q    Type
                         _______ _______ _______ _____ _____    ______ ____

>  <TORSDO>
F 4

$$$$
