=
 OpenBabel11042422193D

 52 57  0  0  1  0  0  0  0  0999 V2000
  162.1820  209.7280  149.9350 O   0  0  0  0  0  0  0  0  0  0  0  0
  161.7420  210.9500  150.1820 C   0  0  0  0  0  0  0  0  0  0  0  0
  162.0720  207.6170  151.1290 C   0  0  0  0  0  3  0  0  0  0  0  0
  161.8230  208.9760  150.9490 C   0  0  0  0  0  0  0  0  0  0  0  0
  160.8770  207.7800  153.2620 C   0  0  0  0  0  3  0  0  0  0  0  0
  161.5860  207.0120  152.3040 C   0  0  0  0  0  0  0  0  0  0  0  0
  161.1330  209.7130  151.8800 C   0  0  0  0  0  0  0  0  0  0  0  0
  161.0680  210.9970  151.3940 C   0  0  0  0  0  0  0  0  0  0  0  0
  160.6440  209.1500  153.0550 C   0  0  0  0  0  3  0  0  0  0  0  0
  161.8340  205.5530  152.5320 C   0  0  1  0  0  3  0  0  0  0  0  0
  160.8110  205.0370  153.3350 O   0  0  0  0  0  1  0  0  0  0  0  0
  161.5470  205.6770  150.0390 C   0  0  0  0  0  2  0  0  0  0  0  0
  161.7450  204.9990  148.7500 N   0  0  0  0  0  0  0  0  0  0  0  0
  160.7570  203.8980  148.7040 C   0  0  2  0  0  3  0  0  0  0  0  0
  161.0120  203.5600  151.1950 C   0  0  1  0  0  3  0  0  0  0  0  0
  161.4070  202.6250  152.1500 O   0  0  0  0  0  1  0  0  0  0  0  0
  161.9420  204.7760  151.2080 C   0  0  2  0  0  3  0  0  0  0  0  0
  161.0340  202.8940  149.8270 C   0  0  0  0  0  2  0  0  0  0  0  0
  160.1010  206.1970  147.5320 O   0  0  0  0  0  1  0  0  0  0  0  0
  161.4750  205.9990  147.6910 C   0  0  2  0  0  3  0  0  0  0  0  0
  162.0280  205.5760  146.3550 C   0  0  0  0  0  0  0  0  0  0  0  0
  163.3240  204.8450  146.2910 C   0  0  0  0  0  1  0  0  0  0  0  0
  161.4180  205.8150  145.3260 O   0  0  0  0  0  0  0  0  0  0  0  0
  160.8150  203.1090  147.3970 C   0  0  0  0  0  2  0  0  0  0  0  0
  161.0170  201.6260  147.6730 C   0  0  0  0  0  2  0  0  0  0  0  0
  160.1810  201.4010  145.2400 C   0  0  0  0  0  1  0  0  0  0  0  0
  161.3530  199.7020  146.3510 O   0  0  0  0  0  0  0  0  0  0  0  0
  160.8890  200.8270  146.4160 C   0  0  0  0  0  0  0  0  0  0  0  0
  161.9230  212.0380  149.3290 O   0  0  0  0  0  0  0  0  0  0  0  0
  158.8410  213.1040  143.9940 C   0  0  0  0  0  1  0  0  0  0  0  0
  161.9040  211.8830  147.9160 C   0  0  2  0  0  3  0  0  0  0  0  0
  159.9600  213.6150  148.1390 C   0  0  0  0  0  2  0  0  0  0  0  0
  158.5020  213.3000  147.8380 C   0  0  0  0  0  2  0  0  0  0  0  0
  158.2300  213.4510  146.3680 C   0  0  0  0  0  0  0  0  0  0  0  0
  162.1870  213.1210  147.3050 O   0  0  0  0  0  0  0  0  0  0  0  0
  160.3970  212.3060  145.8770 C   0  0  0  0  0  2  0  0  0  0  0  0
  160.8440  212.7070  147.2850 C   0  0  1  0  0  0  0  0  0  0  0  0
  156.7440  214.2640  145.8870 Cl  0  0  0  0  0  0  0  0  0  0  0  0
  159.1120  212.9860  145.4580 C   0  0  0  0  0  0  0  0  0  0  0  0
  160.4710  212.1910  152.0550 C   0  0  0  0  0  2  0  0  0  0  0  0
  159.1420  211.8130  152.6860 C   0  0  0  0  0  2  0  0  0  0  0  0
  158.7070  212.8680  153.7030 C   0  0  2  0  0  3  0  0  0  0  0  0
  160.4080  211.2410  156.4390 C   0  0  0  0  0  0  0  0  0  0  0  0
  158.3670  210.8750  155.2910 C   0  0  1  0  0  3  0  0  0  0  0  0
  161.4990  211.0160  157.1650 C   0  0  0  0  0  2  0  0  0  0  0  0
  159.3360  210.2340  156.2690 C   0  0  0  0  0  2  0  0  0  0  0  0
  157.0670  210.7790  155.7850 O   0  0  0  0  0  1  0  0  0  0  0  0
  160.1570  212.5170  155.7300 C   0  0  0  0  0  2  0  0  0  0  0  0
  158.7630  212.3510  155.1480 C   0  0  1  0  0  3  0  0  0  0  0  0
  156.3270  212.5920  153.7120 F   0  0  0  0  0  0  0  0  0  0  0  0
  157.3410  213.4590  153.3500 C   0  0  0  0  0  3  0  0  0  0  0  0
  157.2510  213.7520  152.0000 F   0  0  0  0  0  0  0  0  0  0  0  0
  1  2  1  0  0  0  0
  1  4  1  0  0  0  0
  2  8  2  0  0  0  0
  3  6  1  0  0  0  0
  4  3  2  0  0  0  0
  4  7  1  0  0  0  0
  6 10  1  0  0  0  0
  6  5  2  0  0  0  0
  7  9  2  0  0  0  0
  8  7  1  0  0  0  0
  8 40  1  0  0  0  0
  9  5  1  0  0  0  0
 10 11  1  1  0  0  0
 12 17  1  0  0  0  0
 13 12  1  0  0  0  0
 14 24  1  6  0  0  0
 14 13  1  0  0  0  0
 14 18  1  0  0  0  0
 15 17  1  0  0  0  0
 15 16  1  1  0  0  0
 17 10  1  1  0  0  0
 18 15  1  0  0  0  0
 20 19  1  6  0  0  0
 20 13  1  0  0  0  0
 21 20  1  0  0  0  0
 22 21  1  0  0  0  0
 23 21  2  0  0  0  0
 24 25  1  0  0  0  0
 26 28  1  0  0  0  0
 27 28  2  0  0  0  0
 28 25  1  0  0  0  0
 29  2  1  0  0  0  0
 30 39  1  0  0  0  0
 31 29  1  1  0  0  0
 33 32  1  0  0  0  0
 34 33  1  0  0  0  0
 35 31  1  0  0  0  0
 37 36  1  6  0  0  0
 37 35  1  0  0  0  0
 37 31  1  0  0  0  0
 37 32  1  0  0  0  0
 38 34  1  0  0  0  0
 39 36  1  0  0  0  0
 39 34  2  0  0  0  0
 40 41  1  0  0  0  0
 42 41  1  6  0  0  0
 43 45  2  0  0  0  0
 44 47  1  1  0  0  0
 44 46  1  0  0  0  0
 46 43  1  0  0  0  0
 48 43  1  0  0  0  0
 49 42  1  6  0  0  0
 49 44  1  0  0  0  0
 49 48  1  0  0  0  0
 51 42  1  0  0  0  0
 51 50  1  0  0  0  0
 52 51  1  0  0  0  0
M  END
>  <MODEL>
1

>  <REMARK>
 VINA RESULT:      -8.7      0.000      0.000
  Name = 
  14 active torsions:
  status: ('A' for Active; 'I' for Inactive)
    1  A    between atoms: C_4  and  C_28
    2  A    between atoms: C_4  and  C_45
    3  A    between atoms: O_6  and  C_10
    4  A    between atoms: O_6  and  C_17
    5  A    between atoms: N_9  and  C_50
    6  A    between atoms: C_16  and  C_21
    7  A    between atoms: C_18  and  C_50
    8  A    between atoms: C_21  and  C_42
    9  A    between atoms: C_21  and  C_47
   10  A    between atoms: C_30  and  C_36
   11  A    between atoms: C_36  and  C_44
   12  A    between atoms: C_37  and  C_45
   13  A    between atoms: C_38  and  C_40
   14  A    between atoms: C_40  and  C_47
                            x       y       z     vdW  Elec       q    Type
                         _______ _______ _______ _____ _____    ______ ____

>  <TORSDO>
F 14

$$$$
=
 OpenBabel11042422193D

 52 57  0  0  1  0  0  0  0  0999 V2000
  161.6530  209.0730  148.0450 O   0  0  0  0  0  0  0  0  0  0  0  0
  161.8610  208.4940  149.2150 C   0  0  0  0  0  0  0  0  0  0  0  0
  161.3950  211.3740  147.3170 C   0  0  0  0  0  3  0  0  0  0  0  0
  161.6000  210.3670  148.2580 C   0  0  0  0  0  0  0  0  0  0  0  0
  161.5590  212.9870  149.1550 C   0  0  0  0  0  3  0  0  0  0  0  0
  161.3780  212.7050  147.7770 C   0  0  0  0  0  0  0  0  0  0  0  0
  161.7770  210.6480  149.5900 C   0  0  0  0  0  0  0  0  0  0  0  0
  161.9530  209.4420  150.2250 C   0  0  0  0  0  0  0  0  0  0  0  0
  161.7610  211.9500  150.0810 C   0  0  0  0  0  3  0  0  0  0  0  0
  161.1600  213.8150  146.7960 C   0  0  1  0  0  3  0  0  0  0  0  0
  162.3800  214.4530  146.5490 O   0  0  0  0  0  1  0  0  0  0  0  0
  161.5580  213.3450  144.3600 C   0  0  0  0  0  2  0  0  0  0  0  0
  161.0170  212.7630  143.1230 N   0  0  0  0  0  0  0  0  0  0  0  0
  159.9510  213.6820  142.6640 C   0  0  2  0  0  3  0  0  0  0  0  0
  159.3420  214.1800  145.0650 C   0  0  1  0  0  3  0  0  0  0  0  0
  158.3000  214.0800  145.9860 O   0  0  0  0  0  1  0  0  0  0  0  0
  160.5270  213.3090  145.4880 C   0  0  2  0  0  3  0  0  0  0  0  0
  158.8260  213.7450  143.7010 C   0  0  0  0  0  2  0  0  0  0  0  0
  162.2650  213.9350  141.4820 O   0  0  0  0  0  1  0  0  0  0  0  0
  162.1320  212.7140  142.1480 C   0  0  2  0  0  3  0  0  0  0  0  0
  161.9260  211.6490  141.1030 C   0  0  0  0  0  0  0  0  0  0  0  0
  162.6060  211.7690  139.7830 C   0  0  0  0  0  1  0  0  0  0  0  0
  161.2170  210.6830  141.3330 O   0  0  0  0  0  0  0  0  0  0  0  0
  159.3070  213.2290  141.3560 C   0  0  0  0  0  2  0  0  0  0  0  0
  159.1030  214.4120  140.4190 C   0  0  0  0  0  2  0  0  0  0  0  0
  157.8160  213.6320  138.3210 C   0  0  0  0  0  1  0  0  0  0  0  0
  160.1480  213.8710  138.3760 O   0  0  0  0  0  0  0  0  0  0  0  0
  159.1010  213.9690  138.9920 C   0  0  0  0  0  0  0  0  0  0  0  0
  161.9830  207.1180  149.4020 O   0  0  0  0  0  0  0  0  0  0  0  0
  160.8730  201.3150  147.3560 C   0  0  0  0  0  1  0  0  0  0  0  0
  162.0100  206.2210  148.2990 C   0  0  2  0  0  3  0  0  0  0  0  0
  160.5930  204.7660  149.9440 C   0  0  0  0  0  2  0  0  0  0  0  0
  161.0790  203.4630  150.5610 C   0  0  0  0  0  2  0  0  0  0  0  0
  160.8340  202.3190  149.6180 C   0  0  0  0  0  0  0  0  0  0  0  0
  160.6930  205.9930  147.8500 O   0  0  0  0  0  0  0  0  0  0  0  0
  161.6160  203.7470  147.7220 C   0  0  0  0  0  2  0  0  0  0  0  0
  161.2870  204.9600  148.5960 C   0  0  1  0  0  0  0  0  0  0  0  0
  160.1960  200.8220  150.2920 Cl  0  0  0  0  0  0  0  0  0  0  0  0
  161.0860  202.4530  148.2990 C   0  0  0  0  0  0  0  0  0  0  0  0
  162.1290  209.1990  151.6840 C   0  0  0  0  0  2  0  0  0  0  0  0
  160.7920  209.3400  152.3900 C   0  0  0  0  0  2  0  0  0  0  0  0
  160.8530  210.4390  153.4510 C   0  0  2  0  0  3  0  0  0  0  0  0
  160.3290  208.2600  156.2790 C   0  0  0  0  0  0  0  0  0  0  0  0
  160.5190  210.6050  155.9940 C   0  0  1  0  0  3  0  0  0  0  0  0
  160.0030  207.0790  156.7980 C   0  0  0  0  0  2  0  0  0  0  0  0
  160.1070  209.5370  156.9930 C   0  0  0  0  0  2  0  0  0  0  0  0
  161.3810  211.5140  156.6060 O   0  0  0  0  0  1  0  0  0  0  0  0
  160.9460  208.4140  154.9410 C   0  0  0  0  0  2  0  0  0  0  0  0
  161.2390  209.9000  154.8360 C   0  0  1  0  0  3  0  0  0  0  0  0
  158.7740  210.9700  152.3860 F   0  0  0  0  0  0  0  0  0  0  0  0
  159.5620  211.2590  153.4850 C   0  0  0  0  0  3  0  0  0  0  0  0
  159.8270  212.6170  153.5300 F   0  0  0  0  0  0  0  0  0  0  0  0
  1  4  1  0  0  0  0
  1  2  1  0  0  0  0
  2 29  1  0  0  0  0
  2  8  2  0  0  0  0
  3  6  2  0  0  0  0
  3  4  1  0  0  0  0
  4  7  2  0  0  0  0
  5  9  2  0  0  0  0
  6  5  1  0  0  0  0
  7  9  1  0  0  0  0
  7  8  1  0  0  0  0
  8 40  1  0  0  0  0
 10 11  1  6  0  0  0
 10  6  1  0  0  0  0
 12 17  1  0  0  0  0
 13 12  1  0  0  0  0
 14 24  1  6  0  0  0
 14 13  1  0  0  0  0
 14 18  1  0  0  0  0
 15 17  1  0  0  0  0
 15 16  1  1  0  0  0
 17 10  1  1  0  0  0
 18 15  1  0  0  0  0
 20 19  1  6  0  0  0
 20 13  1  0  0  0  0
 21 23  2  0  0  0  0
 21 20  1  0  0  0  0
 22 21  1  0  0  0  0
 25 24  1  0  0  0  0
 26 28  1  0  0  0  0
 27 28  2  0  0  0  0
 28 25  1  0  0  0  0
 30 39  1  0  0  0  0
 31 37  1  0  0  0  0
 31 29  1  1  0  0  0
 32 33  1  0  0  0  0
 34 38  1  0  0  0  0
 34 33  1  0  0  0  0
 35 31  1  0  0  0  0
 35 37  1  0  0  0  0
 36 39  1  0  0  0  0
 37 36  1  6  0  0  0
 37 32  1  0  0  0  0
 39 34  2  0  0  0  0
 40 41  1  0  0  0  0
 42 41  1  6  0  0  0
 42 51  1  0  0  0  0
 43 45  2  0  0  0  0
 43 46  1  0  0  0  0
 44 47  1  1  0  0  0
 44 46  1  0  0  0  0
 48 43  1  0  0  0  0
 49 42  1  6  0  0  0
 49 48  1  0  0  0  0
 49 44  1  0  0  0  0
 50 51  1  0  0  0  0
 51 52  1  0  0  0  0
M  END
>  <MODEL>
2

>  <REMARK>
 VINA RESULT:      -8.6      3.788      8.752
  Name = 
  14 active torsions:
  status: ('A' for Active; 'I' for Inactive)
    1  A    between atoms: C_4  and  C_28
    2  A    between atoms: C_4  and  C_45
    3  A    between atoms: O_6  and  C_10
    4  A    between atoms: O_6  and  C_17
    5  A    between atoms: N_9  and  C_50
    6  A    between atoms: C_16  and  C_21
    7  A    between atoms: C_18  and  C_50
    8  A    between atoms: C_21  and  C_42
    9  A    between atoms: C_21  and  C_47
   10  A    between atoms: C_30  and  C_36
   11  A    between atoms: C_36  and  C_44
   12  A    between atoms: C_37  and  C_45
   13  A    between atoms: C_38  and  C_40
   14  A    between atoms: C_40  and  C_47
                            x       y       z     vdW  Elec       q    Type
                         _______ _______ _______ _____ _____    ______ ____

>  <TORSDO>
F 14

$$$$
=
 OpenBabel11042422193D

 52 57  0  0  1  0  0  0  0  0999 V2000
  161.5780  208.3540  150.4600 O   0  0  0  0  0  0  0  0  0  0  0  0
  161.7610  209.5070  151.0810 C   0  0  0  0  0  0  0  0  0  0  0  0
  161.3150  206.0560  151.1990 C   0  0  0  0  0  3  0  0  0  0  0  0
  161.5010  207.4250  151.3840 C   0  0  0  0  0  0  0  0  0  0  0  0
  161.4010  205.8150  153.6360 C   0  0  0  0  0  3  0  0  0  0  0  0
  161.2610  205.2420  152.3470 C   0  0  0  0  0  0  0  0  0  0  0  0
  161.6330  207.9730  152.6360 C   0  0  0  0  0  0  0  0  0  0  0  0
  161.7980  209.3260  152.4560 C   0  0  0  0  0  0  0  0  0  0  0  0
  161.5900  207.1990  153.7920 C   0  0  0  0  0  3  0  0  0  0  0  0
  161.0620  203.7670  152.1890 C   0  0  1  0  0  3  0  0  0  0  0  0
  159.7340  203.4490  152.4910 O   0  0  0  0  0  1  0  0  0  0  0  0
  160.9350  204.2850  149.7330 C   0  0  0  0  0  2  0  0  0  0  0  0
  161.3720  203.9120  148.3800 N   0  0  0  0  0  0  0  0  0  0  0  0
  160.6610  202.6570  148.0460 C   0  0  2  0  0  3  0  0  0  0  0  0
  160.8050  201.9270  150.4600 C   0  0  1  0  0  3  0  0  0  0  0  0
  161.3300  200.9350  151.2870 O   0  0  0  0  0  1  0  0  0  0  0  0
  161.4370  203.2860  150.7750 C   0  0  2  0  0  3  0  0  0  0  0  0
  161.0730  201.5430  149.0130 C   0  0  0  0  0  2  0  0  0  0  0  0
  160.2950  204.5130  146.3550 O   0  0  0  0  0  1  0  0  0  0  0  0
  160.9620  205.0120  147.4770 C   0  0  2  0  0  3  0  0  0  0  0  0
  162.1400  205.8100  146.9830 C   0  0  0  0  0  0  0  0  0  0  0  0
  162.9030  205.3420  145.7930 C   0  0  0  0  0  1  0  0  0  0  0  0
  162.4660  206.8450  147.5420 O   0  0  0  0  0  0  0  0  0  0  0  0
  160.9860  202.1520  146.6420 C   0  0  0  0  0  2  0  0  0  0  0  0
  161.3450  200.6730  146.6730 C   0  0  0  0  0  2  0  0  0  0  0  0
  160.9660  198.4930  145.3420 C   0  0  0  0  0  1  0  0  0  0  0  0
  160.1460  200.5750  144.6450 O   0  0  0  0  0  0  0  0  0  0  0  0
  160.7690  199.9600  145.4930 C   0  0  0  0  0  0  0  0  0  0  0  0
  161.8860  210.7360  150.4360 O   0  0  0  0  0  0  0  0  0  0  0  0
  160.0860  213.2260  144.9900 C   0  0  0  0  0  1  0  0  0  0  0  0
  162.1100  210.8180  149.0350 C   0  0  2  0  0  3  0  0  0  0  0  0
  160.4650  212.8340  149.2790 C   0  0  0  0  0  2  0  0  0  0  0  0
  159.0600  212.8600  148.6970 C   0  0  0  0  0  2  0  0  0  0  0  0
  159.1000  213.2950  147.2600 C   0  0  0  0  0  0  0  0  0  0  0  0
  162.7010  212.0600  148.7270 O   0  0  0  0  0  0  0  0  0  0  0  0
  161.1060  211.8480  146.9040 C   0  0  0  0  0  2  0  0  0  0  0  0
  161.3370  211.9220  148.4160 C   0  0  1  0  0  0  0  0  0  0  0  0
  157.8830  214.4470  146.7170 Cl  0  0  0  0  0  0  0  0  0  0  0  0
  160.0520  212.8230  146.4280 C   0  0  0  0  0  0  0  0  0  0  0  0
  162.0370  210.3600  153.5020 C   0  0  0  0  0  2  0  0  0  0  0  0
  160.8870  211.3510  153.5110 C   0  0  0  0  0  2  0  0  0  0  0  0
  159.6310  210.7180  154.1110 C   0  0  2  0  0  3  0  0  0  0  0  0
  157.6240  213.3640  152.6990 C   0  0  0  0  0  0  0  0  0  0  0  0
  157.3360  211.8170  154.4710 C   0  0  1  0  0  3  0  0  0  0  0  0
  157.4920  214.4530  151.9470 C   0  0  0  0  0  2  0  0  0  0  0  0
  156.7600  213.0870  153.8680 C   0  0  0  0  0  2  0  0  0  0  0  0
  156.3130  210.8980  154.7000 O   0  0  0  0  0  1  0  0  0  0  0  0
  158.6460  212.3230  152.4420 C   0  0  0  0  0  2  0  0  0  0  0  0
  158.3410  211.2420  153.4640 C   0  0  1  0  0  3  0  0  0  0  0  0
  160.7510  211.4850  156.0840 F   0  0  0  0  0  0  0  0  0  0  0  0
  159.6110  210.8440  155.6350 C   0  0  0  0  0  3  0  0  0  0  0  0
  159.4950  209.6060  156.2430 F   0  0  0  0  0  0  0  0  0  0  0  0
  1  2  1  0  0  0  0
  1  4  1  0  0  0  0
  2  8  2  0  0  0  0
  3  4  2  0  0  0  0
  3  6  1  0  0  0  0
  4  7  1  0  0  0  0
  5  9  1  0  0  0  0
  6  5  2  0  0  0  0
  7  9  2  0  0  0  0
  8  7  1  0  0  0  0
  8 40  1  0  0  0  0
 10  6  1  0  0  0  0
 10 11  1  6  0  0  0
 12 17  1  0  0  0  0
 13 12  1  0  0  0  0
 14 24  1  6  0  0  0
 14 13  1  0  0  0  0
 14 18  1  0  0  0  0
 15 17  1  0  0  0  0
 15 16  1  1  0  0  0
 17 10  1  1  0  0  0
 18 15  1  0  0  0  0
 20 19  1  6  0  0  0
 20 13  1  0  0  0  0
 21 20  1  0  0  0  0
 21 23  2  0  0  0  0
 22 21  1  0  0  0  0
 24 25  1  0  0  0  0
 26 28  1  0  0  0  0
 27 28  2  0  0  0  0
 28 25  1  0  0  0  0
 29  2  1  0  0  0  0
 30 39  1  0  0  0  0
 31 29  1  1  0  0  0
 33 32  1  0  0  0  0
 34 33  1  0  0  0  0
 35 31  1  0  0  0  0
 37 36  1  6  0  0  0
 37 35  1  0  0  0  0
 37 31  1  0  0  0  0
 37 32  1  0  0  0  0
 38 34  1  0  0  0  0
 39 36  1  0  0  0  0
 39 34  2  0  0  0  0
 40 41  1  0  0  0  0
 42 41  1  6  0  0  0
 42 51  1  0  0  0  0
 43 46  1  0  0  0  0
 44 47  1  6  0  0  0
 45 43  2  0  0  0  0
 46 44  1  0  0  0  0
 48 43  1  0  0  0  0
 48 49  1  0  0  0  0
 49 42  1  1  0  0  0
 49 44  1  0  0  0  0
 51 50  1  0  0  0  0
 51 52  1  0  0  0  0
M  END
>  <MODEL>
3

>  <REMARK>
 VINA RESULT:      -7.7      1.680      2.559
  Name = 
  14 active torsions:
  status: ('A' for Active; 'I' for Inactive)
    1  A    between atoms: C_4  and  C_28
    2  A    between atoms: C_4  and  C_45
    3  A    between atoms: O_6  and  C_10
    4  A    between atoms: O_6  and  C_17
    5  A    between atoms: N_9  and  C_50
    6  A    between atoms: C_16  and  C_21
    7  A    between atoms: C_18  and  C_50
    8  A    between atoms: C_21  and  C_42
    9  A    between atoms: C_21  and  C_47
   10  A    between atoms: C_30  and  C_36
   11  A    between atoms: C_36  and  C_44
   12  A    between atoms: C_37  and  C_45
   13  A    between atoms: C_38  and  C_40
   14  A    between atoms: C_40  and  C_47
                            x       y       z     vdW  Elec       q    Type
                         _______ _______ _______ _____ _____    ______ ____

>  <TORSDO>
F 14

$$$$
=
 OpenBabel11042422193D

 52 57  0  0  1  0  0  0  0  0999 V2000
  160.7620  208.8400  153.4490 O   0  0  0  0  0  0  0  0  0  0  0  0
  161.0850  210.0070  152.9190 C   0  0  0  0  0  0  0  0  0  0  0  0
  160.9850  206.5330  152.7250 C   0  0  0  0  0  3  0  0  0  0  0  0
  161.1280  207.9120  152.5950 C   0  0  0  0  0  0  0  0  0  0  0  0
  162.0480  206.3130  150.5290 C   0  0  0  0  0  3  0  0  0  0  0  0
  161.4570  205.7230  151.6750 C   0  0  0  0  0  0  0  0  0  0  0  0
  161.7040  208.4760  151.4830 C   0  0  0  0  0  0  0  0  0  0  0  0
  161.6880  209.8370  151.6800 C   0  0  0  0  0  0  0  0  0  0  0  0
  162.1770  207.7080  150.4230 C   0  0  0  0  0  3  0  0  0  0  0  0
  161.3200  204.2360  151.7790 C   0  0  1  0  0  3  0  0  0  0  0  0
  160.0190  203.9240  152.1880 O   0  0  0  0  0  1  0  0  0  0  0  0
  161.0400  204.2930  149.2820 C   0  0  0  0  0  2  0  0  0  0  0  0
  161.4420  203.7120  147.9930 N   0  0  0  0  0  0  0  0  0  0  0  0
  160.8150  202.3730  147.9280 C   0  0  2  0  0  3  0  0  0  0  0  0
  161.1270  202.1020  150.4200 C   0  0  1  0  0  3  0  0  0  0  0  0
  161.7630  201.3130  151.3770 O   0  0  0  0  0  1  0  0  0  0  0  0
  161.6650  203.5340  150.4530 C   0  0  2  0  0  3  0  0  0  0  0  0
  161.3560  201.4820  149.0500 C   0  0  0  0  0  2  0  0  0  0  0  0
  161.6190  204.4430  145.7430 O   0  0  0  0  0  1  0  0  0  0  0  0
  160.9060  204.6010  146.9350 C   0  0  2  0  0  3  0  0  0  0  0  0
  160.9890  206.0550  147.3210 C   0  0  0  0  0  0  0  0  0  0  0  0
  162.2400  206.8190  147.0560 C   0  0  0  0  0  1  0  0  0  0  0  0
  160.0350  206.6160  147.8350 O   0  0  0  0  0  0  0  0  0  0  0  0
  161.1140  201.6460  146.6190 C   0  0  0  0  0  2  0  0  0  0  0  0
  161.1830  200.1420  146.8420 C   0  0  0  0  0  2  0  0  0  0  0  0
  161.4960  198.0790  145.3210 C   0  0  0  0  0  1  0  0  0  0  0  0
  160.0960  199.8760  144.7670 O   0  0  0  0  0  0  0  0  0  0  0  0
  160.8640  199.4000  145.5850 C   0  0  0  0  0  0  0  0  0  0  0  0
  160.8600  211.2390  153.5320 O   0  0  0  0  0  0  0  0  0  0  0  0
  155.8180  213.2540  156.6310 C   0  0  0  0  0  1  0  0  0  0  0  0
  160.1930  211.3310  154.7830 C   0  0  2  0  0  3  0  0  0  0  0  0
  158.2130  212.0540  153.2380 C   0  0  0  0  0  2  0  0  0  0  0  0
  157.6180  213.4540  153.2180 C   0  0  0  0  0  2  0  0  0  0  0  0
  156.5890  213.5970  154.3040 C   0  0  0  0  0  0  0  0  0  0  0  0
  159.1100  210.4290  154.8040 O   0  0  0  0  0  0  0  0  0  0  0  0
  158.1060  212.3720  155.8670 C   0  0  0  0  0  2  0  0  0  0  0  0
  158.7890  211.7860  154.6280 C   0  0  1  0  0  0  0  0  0  0  0  0
  155.0840  214.4200  153.9060 Cl  0  0  0  0  0  0  0  0  0  0  0  0
  156.8190  213.0950  155.5350 C   0  0  0  0  0  0  0  0  0  0  0  0
  162.1480  210.8970  150.7410 C   0  0  0  0  0  2  0  0  0  0  0  0
  160.9520  211.6830  150.2340 C   0  0  0  0  0  2  0  0  0  0  0  0
  161.3560  212.5990  149.0780 C   0  0  2  0  0  3  0  0  0  0  0  0
  157.8920  213.6070  149.0410 C   0  0  0  0  0  0  0  0  0  0  0  0
  159.5020  213.1130  147.3740 C   0  0  1  0  0  3  0  0  0  0  0  0
  156.7190  213.7730  149.6460 C   0  0  0  0  0  2  0  0  0  0  0  0
  158.0150  213.3340  147.5920 C   0  0  0  0  0  2  0  0  0  0  0  0
  159.9390  213.8810  146.2970 O   0  0  0  0  0  1  0  0  0  0  0  0
  159.1870  213.6790  149.7560 C   0  0  0  0  0  2  0  0  0  0  0  0
  160.2260  213.5480  148.6550 C   0  0  1  0  0  3  0  0  0  0  0  0
  162.4270  210.5910  148.3310 F   0  0  0  0  0  0  0  0  0  0  0  0
  161.9190  211.8020  147.9000 C   0  0  0  0  0  3  0  0  0  0  0  0
  162.8990  212.5130  147.2300 F   0  0  0  0  0  0  0  0  0  0  0  0
  2  1  1  0  0  0  0
  2 29  1  0  0  0  0
  4  3  1  0  0  0  0
  4  1  1  0  0  0  0
  5  6  1  0  0  0  0
  6 10  1  0  0  0  0
  6  3  2  0  0  0  0
  7  8  1  0  0  0  0
  7  4  2  0  0  0  0
  8  2  2  0  0  0  0
  9  5  2  0  0  0  0
  9  7  1  0  0  0  0
 10 11  1  6  0  0  0
 12 17  1  0  0  0  0
 13 12  1  0  0  0  0
 14 24  1  6  0  0  0
 14 13  1  0  0  0  0
 14 18  1  0  0  0  0
 15 17  1  0  0  0  0
 15 16  1  1  0  0  0
 17 10  1  1  0  0  0
 18 15  1  0  0  0  0
 20 19  1  6  0  0  0
 20 21  1  0  0  0  0
 20 13  1  0  0  0  0
 21 23  2  0  0  0  0
 22 21  1  0  0  0  0
 24 25  1  0  0  0  0
 26 28  1  0  0  0  0
 27 28  2  0  0  0  0
 28 25  1  0  0  0  0
 31 29  1  6  0  0  0
 31 35  1  0  0  0  0
 33 32  1  0  0  0  0
 33 34  1  0  0  0  0
 34 39  2  0  0  0  0
 37 32  1  6  0  0  0
 37 31  1  0  0  0  0
 37 35  1  0  0  0  0
 37 36  1  0  0  0  0
 38 34  1  0  0  0  0
 39 36  1  0  0  0  0
 39 30  1  0  0  0  0
 40  8  1  0  0  0  0
 41 40  1  0  0  0  0
 42 41  1  1  0  0  0
 43 45  2  0  0  0  0
 43 48  1  0  0  0  0
 44 47  1  6  0  0  0
 44 46  1  0  0  0  0
 44 49  1  0  0  0  0
 46 43  1  0  0  0  0
 49 42  1  1  0  0  0
 49 48  1  0  0  0  0
 51 50  1  0  0  0  0
 51 42  1  0  0  0  0
 52 51  1  0  0  0  0
M  END
>  <MODEL>
4

>  <REMARK>
 VINA RESULT:      -7.5      2.474      5.616
  Name = 
  14 active torsions:
  status: ('A' for Active; 'I' for Inactive)
    1  A    between atoms: C_4  and  C_28
    2  A    between atoms: C_4  and  C_45
    3  A    between atoms: O_6  and  C_10
    4  A    between atoms: O_6  and  C_17
    5  A    between atoms: N_9  and  C_50
    6  A    between atoms: C_16  and  C_21
    7  A    between atoms: C_18  and  C_50
    8  A    between atoms: C_21  and  C_42
    9  A    between atoms: C_21  and  C_47
   10  A    between atoms: C_30  and  C_36
   11  A    between atoms: C_36  and  C_44
   12  A    between atoms: C_37  and  C_45
   13  A    between atoms: C_38  and  C_40
   14  A    between atoms: C_40  and  C_47
                            x       y       z     vdW  Elec       q    Type
                         _______ _______ _______ _____ _____    ______ ____

>  <TORSDO>
F 14

$$$$
=
 OpenBabel11042422193D

 52 57  0  0  1  0  0  0  0  0999 V2000
  162.2360  208.9470  150.3250 O   0  0  0  0  0  0  0  0  0  0  0  0
  162.0170  210.1480  150.8330 C   0  0  0  0  0  0  0  0  0  0  0  0
  161.8850  206.6820  151.1250 C   0  0  0  0  0  3  0  0  0  0  0  0
  161.8430  208.0710  151.2200 C   0  0  0  0  0  0  0  0  0  0  0  0
  160.9050  206.5960  153.3690 C   0  0  0  0  0  3  0  0  0  0  0  0
  161.4040  205.9360  152.2170 C   0  0  0  0  0  0  0  0  0  0  0  0
  161.3560  208.7040  152.3370 C   0  0  0  0  0  0  0  0  0  0  0  0
  161.4570  210.0540  152.0990 C   0  0  0  0  0  0  0  0  0  0  0  0
  160.8770  207.9990  153.4380 C   0  0  0  0  0  3  0  0  0  0  0  0
  161.4330  204.4400  152.1520 C   0  0  1  0  0  3  0  0  0  0  0  0
  160.2060  203.9400  152.5980 O   0  0  0  0  0  1  0  0  0  0  0  0
  161.4260  205.0180  149.7060 C   0  0  0  0  0  2  0  0  0  0  0  0
  161.8240  204.6070  148.3520 N   0  0  0  0  0  0  0  0  0  0  0  0
  160.9360  203.4820  147.9830 C   0  0  2  0  0  3  0  0  0  0  0  0
  160.9280  202.6940  150.3820 C   0  0  1  0  0  3  0  0  0  0  0  0
  161.2820  201.6180  151.1950 O   0  0  0  0  0  1  0  0  0  0  0  0
  161.7530  203.9340  150.7340 C   0  0  2  0  0  3  0  0  0  0  0  0
  161.1590  202.3010  148.9310 C   0  0  0  0  0  2  0  0  0  0  0  0
  160.2370  206.0630  147.3580 O   0  0  0  0  0  1  0  0  0  0  0  0
  161.6000  205.7730  147.4660 C   0  0  2  0  0  3  0  0  0  0  0  0
  162.1230  205.5370  146.0730 C   0  0  0  0  0  0  0  0  0  0  0  0
  161.1840  205.5610  144.9180 C   0  0  0  0  0  1  0  0  0  0  0  0
  163.3120  205.3400  145.8820 O   0  0  0  0  0  0  0  0  0  0  0  0
  161.2040  202.9590  146.5730 C   0  0  0  0  0  2  0  0  0  0  0  0
  160.7440  201.5140  146.4380 C   0  0  0  0  0  2  0  0  0  0  0  0
  159.2190  202.4340  144.5680 C   0  0  0  0  0  1  0  0  0  0  0  0
  159.9990  200.2230  144.6110 O   0  0  0  0  0  0  0  0  0  0  0  0
  159.9920  201.3100  145.1630 C   0  0  0  0  0  0  0  0  0  0  0  0
  162.3000  211.3440  150.1740 O   0  0  0  0  0  0  0  0  0  0  0  0
  160.4920  214.4530  145.0600 C   0  0  0  0  0  1  0  0  0  0  0  0
  161.2770  212.1030  149.5450 C   0  0  2  0  0  3  0  0  0  0  0  0
  162.7740  211.6640  147.4490 C   0  0  0  0  0  2  0  0  0  0  0  0
  163.5430  212.7500  146.7100 C   0  0  0  0  0  2  0  0  0  0  0  0
  162.6500  213.4300  145.7110 C   0  0  0  0  0  0  0  0  0  0  0  0
  160.6450  211.3130  148.5640 O   0  0  0  0  0  0  0  0  0  0  0  0
  160.8090  213.4420  147.4010 C   0  0  0  0  0  2  0  0  0  0  0  0
  161.5400  212.2910  148.0980 C   0  0  1  0  0  0  0  0  0  0  0  0
  163.3140  213.7690  144.1150 Cl  0  0  0  0  0  0  0  0  0  0  0  0
  161.3810  213.7520  146.0350 C   0  0  0  0  0  0  0  0  0  0  0  0
  161.1120  211.1690  153.0240 C   0  0  0  0  0  2  0  0  0  0  0  0
  159.6300  211.1210  153.3510 C   0  0  0  0  0  2  0  0  0  0  0  0
  159.2730  212.1710  154.4040 C   0  0  2  0  0  3  0  0  0  0  0  0
  161.4010  210.3280  156.6620 C   0  0  0  0  0  0  0  0  0  0  0  0
  159.0600  210.4790  156.3270 C   0  0  1  0  0  3  0  0  0  0  0  0
  162.5920  209.8540  157.0180 C   0  0  0  0  0  2  0  0  0  0  0  0
  160.1310  209.6600  157.0260 C   0  0  0  0  0  2  0  0  0  0  0  0
  158.0450  210.7940  157.2290 O   0  0  0  0  0  1  0  0  0  0  0  0
  161.2270  211.5680  155.8710 C   0  0  0  0  0  2  0  0  0  0  0  0
  159.7220  211.7660  155.8150 C   0  0  1  0  0  3  0  0  0  0  0  0
  157.0080  211.4740  154.7520 F   0  0  0  0  0  0  0  0  0  0  0  0
  157.7900  212.5400  154.3480 C   0  0  0  0  0  3  0  0  0  0  0  0
  157.4170  212.9440  153.0780 F   0  0  0  0  0  0  0  0  0  0  0  0
  1  2  1  0  0  0  0
  1  4  1  0  0  0  0
  2  8  2  0  0  0  0
  3  4  2  0  0  0  0
  3  6  1  0  0  0  0
  4  7  1  0  0  0  0
  5  9  1  0  0  0  0
  6  5  2  0  0  0  0
  7  9  2  0  0  0  0
  8  7  1  0  0  0  0
  8 40  1  0  0  0  0
 10  6  1  0  0  0  0
 10 11  1  6  0  0  0
 12 17  1  0  0  0  0
 13 12  1  0  0  0  0
 14 24  1  6  0  0  0
 14 13  1  0  0  0  0
 14 18  1  0  0  0  0
 15 17  1  0  0  0  0
 15 16  1  1  0  0  0
 17 10  1  1  0  0  0
 18 15  1  0  0  0  0
 20 19  1  6  0  0  0
 20 13  1  0  0  0  0
 21 20  1  0  0  0  0
 22 21  1  0  0  0  0
 23 21  2  0  0  0  0
 25 24  1  0  0  0  0
 26 28  1  0  0  0  0
 27 28  2  0  0  0  0
 28 25  1  0  0  0  0
 29  2  1  0  0  0  0
 30 39  1  0  0  0  0
 31 29  1  1  0  0  0
 32 37  1  0  0  0  0
 33 32  1  0  0  0  0
 34 39  2  0  0  0  0
 34 33  1  0  0  0  0
 35 31  1  0  0  0  0
 37 36  1  6  0  0  0
 37 35  1  0  0  0  0
 37 31  1  0  0  0  0
 38 34  1  0  0  0  0
 39 36  1  0  0  0  0
 40 41  1  0  0  0  0
 42 41  1  6  0  0  0
 43 45  2  0  0  0  0
 43 46  1  0  0  0  0
 44 46  1  0  0  0  0
 44 47  1  1  0  0  0
 48 43  1  0  0  0  0
 49 42  1  6  0  0  0
 49 48  1  0  0  0  0
 49 44  1  0  0  0  0
 51 42  1  0  0  0  0
 51 50  1  0  0  0  0
 52 51  1  0  0  0  0
M  END
>  <MODEL>
5

>  <REMARK>
 VINA RESULT:      -6.2      1.594      1.989
  Name = 
  14 active torsions:
  status: ('A' for Active; 'I' for Inactive)
    1  A    between atoms: C_4  and  C_28
    2  A    between atoms: C_4  and  C_45
    3  A    between atoms: O_6  and  C_10
    4  A    between atoms: O_6  and  C_17
    5  A    between atoms: N_9  and  C_50
    6  A    between atoms: C_16  and  C_21
    7  A    between atoms: C_18  and  C_50
    8  A    between atoms: C_21  and  C_42
    9  A    between atoms: C_21  and  C_47
   10  A    between atoms: C_30  and  C_36
   11  A    between atoms: C_36  and  C_44
   12  A    between atoms: C_37  and  C_45
   13  A    between atoms: C_38  and  C_40
   14  A    between atoms: C_40  and  C_47
                            x       y       z     vdW  Elec       q    Type
                         _______ _______ _______ _____ _____    ______ ____

>  <TORSDO>
F 14

$$$$
=
 OpenBabel11042422193D

 52 57  0  0  1  0  0  0  0  0999 V2000
  161.4120  212.0300  148.8960 O   0  0  0  0  0  0  0  0  0  0  0  0
  160.8120  213.0730  149.4450 C   0  0  0  0  0  0  0  0  0  0  0  0
  161.9710  209.7980  149.6680 C   0  0  0  0  0  3  0  0  0  0  0  0
  161.4340  211.0770  149.7980 C   0  0  0  0  0  0  0  0  0  0  0  0
  161.2650  209.3740  151.9760 C   0  0  0  0  0  3  0  0  0  0  0  0
  161.8800  208.9340  150.7760 C   0  0  0  0  0  0  0  0  0  0  0  0
  160.8380  211.4950  150.9620 C   0  0  0  0  0  0  0  0  0  0  0  0
  160.4240  212.7880  150.7470 C   0  0  0  0  0  0  0  0  0  0  0  0
  160.7350  210.6710  152.0780 C   0  0  0  0  0  3  0  0  0  0  0  0
  162.4450  207.5510  150.6750 C   0  0  1  0  0  3  0  0  0  0  0  0
  162.4360  206.9600  151.9430 O   0  0  0  0  0  1  0  0  0  0  0  0
  161.6680  205.2290  150.1100 C   0  0  0  0  0  2  0  0  0  0  0  0
  160.8450  204.3980  149.2190 N   0  0  0  0  0  0  0  0  0  0  0  0
  161.5470  204.3680  147.9160 C   0  0  2  0  0  3  0  0  0  0  0  0
  162.3200  206.7460  148.2720 C   0  0  1  0  0  3  0  0  0  0  0  0
  162.2310  208.0300  147.7370 O   0  0  0  0  0  1  0  0  0  0  0  0
  161.6740  206.6900  149.6590 C   0  0  2  0  0  3  0  0  0  0  0  0
  161.6250  205.7790  147.3260 C   0  0  0  0  0  2  0  0  0  0  0  0
  159.5450  202.4500  149.5950 O   0  0  0  0  0  1  0  0  0  0  0  0
  160.7880  203.0470  149.8230 C   0  0  2  0  0  3  0  0  0  0  0  0
  161.0050  203.0820  151.3130 C   0  0  0  0  0  0  0  0  0  0  0  0
  162.2330  202.4730  151.8950 C   0  0  0  0  0  1  0  0  0  0  0  0
  160.1890  203.6160  152.0470 O   0  0  0  0  0  0  0  0  0  0  0  0
  160.8270  203.5070  146.8800 C   0  0  0  0  0  2  0  0  0  0  0  0
  161.7410  202.4000  146.3720 C   0  0  0  0  0  2  0  0  0  0  0  0
  160.2120  200.6420  145.2600 C   0  0  0  0  0  1  0  0  0  0  0  0
  161.1570  200.3520  147.3860 O   0  0  0  0  0  0  0  0  0  0  0  0
  161.0490  201.0760  146.4110 C   0  0  0  0  0  0  0  0  0  0  0  0
  160.5900  214.2860  148.7950 O   0  0  0  0  0  0  0  0  0  0  0  0
  159.0050  214.1300  142.7500 C   0  0  0  0  0  1  0  0  0  0  0  0
  159.5520  214.4320  147.8350 C   0  0  2  0  0  3  0  0  0  0  0  0
  161.3560  213.3410  146.2900 C   0  0  0  0  0  2  0  0  0  0  0  0
  162.0400  214.0650  145.1390 C   0  0  0  0  0  2  0  0  0  0  0  0
  161.1910  213.9910  143.9020 C   0  0  0  0  0  0  0  0  0  0  0  0
  159.1790  213.1610  147.3520 O   0  0  0  0  0  0  0  0  0  0  0  0
  159.1670  214.4530  145.2930 C   0  0  0  0  0  2  0  0  0  0  0  0
  159.9680  213.9480  146.4960 C   0  0  1  0  0  0  0  0  0  0  0  0
  161.9950  213.6430  142.3740 Cl  0  0  0  0  0  0  0  0  0  0  0  0
  159.8560  214.1740  143.9760 C   0  0  0  0  0  0  0  0  0  0  0  0
  159.7700  213.7070  151.7210 C   0  0  0  0  0  2  0  0  0  0  0  0
  158.4060  213.1590  152.1020 C   0  0  0  0  0  2  0  0  0  0  0  0
  157.8890  213.8310  153.3750 C   0  0  2  0  0  3  0  0  0  0  0  0
  159.7270  211.6250  155.5600 C   0  0  0  0  0  0  0  0  0  0  0  0
  157.7310  211.4370  154.2970 C   0  0  1  0  0  3  0  0  0  0  0  0
  160.8330  211.2920  156.2200 C   0  0  0  0  0  2  0  0  0  0  0  0
  158.7530  210.6230  155.0720 C   0  0  0  0  0  2  0  0  0  0  0  0
  156.4440  211.0860  154.7040 O   0  0  0  0  0  1  0  0  0  0  0  0
  159.3620  213.0260  155.2500 C   0  0  0  0  0  2  0  0  0  0  0  0
  157.9900  212.9180  154.6050 C   0  0  1  0  0  3  0  0  0  0  0  0
  155.7220  214.2080  154.3220 F   0  0  0  0  0  0  0  0  0  0  0  0
  156.4800  214.3920  153.1800 C   0  0  0  0  0  3  0  0  0  0  0  0
  155.8480  213.8090  152.0960 F   0  0  0  0  0  0  0  0  0  0  0  0
  1  2  1  0  0  0  0
  1  4  1  0  0  0  0
  2  8  2  0  0  0  0
  3  4  2  0  0  0  0
  3  6  1  0  0  0  0
  4  7  1  0  0  0  0
  5  9  1  0  0  0  0
  6  5  2  0  0  0  0
  7  9  2  0  0  0  0
  8  7  1  0  0  0  0
  8 40  1  0  0  0  0
 10  6  1  0  0  0  0
 10 11  1  1  0  0  0
 13 20  1  0  0  0  0
 13 12  1  0  0  0  0
 14 24  1  6  0  0  0
 14 13  1  0  0  0  0
 15 16  1  6  0  0  0
 15 17  1  0  0  0  0
 17 12  1  0  0  0  0
 17 10  1  1  0  0  0
 18 14  1  0  0  0  0
 18 15  1  0  0  0  0
 20 19  1  1  0  0  0
 20 21  1  0  0  0  0
 21 22  1  0  0  0  0
 21 23  2  0  0  0  0
 25 28  1  0  0  0  0
 25 24  1  0  0  0  0
 26 28  1  0  0  0  0
 28 27  2  0  0  0  0
 29  2  1  0  0  0  0
 30 39  1  0  0  0  0
 31 29  1  1  0  0  0
 32 37  1  0  0  0  0
 33 32  1  0  0  0  0
 34 39  2  0  0  0  0
 34 33  1  0  0  0  0
 35 31  1  0  0  0  0
 37 36  1  6  0  0  0
 37 35  1  0  0  0  0
 37 31  1  0  0  0  0
 38 34  1  0  0  0  0
 39 36  1  0  0  0  0
 40 41  1  0  0  0  0
 42 41  1  6  0  0  0
 43 45  2  0  0  0  0
 44 49  1  0  0  0  0
 44 47  1  1  0  0  0
 44 46  1  0  0  0  0
 46 43  1  0  0  0  0
 48 43  1  0  0  0  0
 49 42  1  6  0  0  0
 49 48  1  0  0  0  0
 51 42  1  0  0  0  0
 51 50  1  0  0  0  0
 52 51  1  0  0  0  0
M  END
>  <MODEL>
6

>  <REMARK>
 VINA RESULT:      -6.1      1.711      2.998
  Name = 
  14 active torsions:
  status: ('A' for Active; 'I' for Inactive)
    1  A    between atoms: C_4  and  C_28
    2  A    between atoms: C_4  and  C_45
    3  A    between atoms: O_6  and  C_10
    4  A    between atoms: O_6  and  C_17
    5  A    between atoms: N_9  and  C_50
    6  A    between atoms: C_16  and  C_21
    7  A    between atoms: C_18  and  C_50
    8  A    between atoms: C_21  and  C_42
    9  A    between atoms: C_21  and  C_47
   10  A    between atoms: C_30  and  C_36
   11  A    between atoms: C_36  and  C_44
   12  A    between atoms: C_37  and  C_45
   13  A    between atoms: C_38  and  C_40
   14  A    between atoms: C_40  and  C_47
                            x       y       z     vdW  Elec       q    Type
                         _______ _______ _______ _____ _____    ______ ____

>  <TORSDO>
F 14

$$$$
=
 OpenBabel11042422193D

 52 57  0  0  1  0  0  0  0  0999 V2000
  159.8520  213.8150  148.8940 O   0  0  0  0  0  0  0  0  0  0  0  0
  160.6170  213.0240  148.1610 C   0  0  0  0  0  0  0  0  0  0  0  0
  159.2350  213.8710  151.2410 C   0  0  0  0  0  3  0  0  0  0  0  0
  159.8920  213.3590  150.1240 C   0  0  0  0  0  0  0  0  0  0  0  0
  160.2590  212.0690  152.5480 C   0  0  0  0  0  3  0  0  0  0  0  0
  159.4270  213.2150  152.4710 C   0  0  0  0  0  0  0  0  0  0  0  0
  160.6980  212.2510  150.2060 C   0  0  0  0  0  0  0  0  0  0  0  0
  161.1810  212.0230  148.9390 C   0  0  0  0  0  0  0  0  0  0  0  0
  160.9060  211.5740  151.4040 C   0  0  0  0  0  3  0  0  0  0  0  0
  158.7380  213.7360  153.6940 C   0  0  1  0  0  3  0  0  0  0  0  0
  157.4460  214.1480  153.3500 O   0  0  0  0  0  1  0  0  0  0  0  0
  160.0840  212.5610  155.4610 C   0  0  0  0  0  2  0  0  0  0  0  0
  160.0570  211.6490  156.6140 N   0  0  0  0  0  0  0  0  0  0  0  0
  159.7870  210.3000  156.0690 C   0  0  2  0  0  3  0  0  0  0  0  0
  158.3030  211.3090  154.2920 C   0  0  1  0  0  3  0  0  0  0  0  0
  156.9910  211.3200  153.8210 O   0  0  0  0  0  1  0  0  0  0  0  0
  158.7010  212.6890  154.8220 C   0  0  2  0  0  3  0  0  0  0  0  0
  158.4130  210.2680  155.3960 C   0  0  0  0  0  2  0  0  0  0  0  0
  161.8800  213.0220  157.2600 O   0  0  0  0  0  1  0  0  0  0  0  0
  161.3980  211.7100  157.2420 C   0  0  2  0  0  3  0  0  0  0  0  0
  162.4080  210.8690  156.5070 C   0  0  0  0  0  0  0  0  0  0  0  0
  162.2920  210.6970  155.0320 C   0  0  0  0  0  1  0  0  0  0  0  0
  163.3280  210.3370  157.1070 O   0  0  0  0  0  0  0  0  0  0  0  0
  159.7620  209.2230  157.1520 C   0  0  0  0  0  2  0  0  0  0  0  0
  159.6280  207.8390  156.5310 C   0  0  0  0  0  2  0  0  0  0  0  0
  160.8460  206.9650  154.4280 C   0  0  0  0  0  1  0  0  0  0  0  0
  161.9580  207.4930  156.4240 O   0  0  0  0  0  0  0  0  0  0  0  0
  160.8900  207.4400  155.8370 C   0  0  0  0  0  0  0  0  0  0  0  0
  160.8360  213.1880  146.7930 O   0  0  0  0  0  0  0  0  0  0  0  0
  158.8500  213.7400  140.8910 C   0  0  0  0  0  1  0  0  0  0  0  0
  159.7980  213.6200  145.9240 C   0  0  2  0  0  3  0  0  0  0  0  0
  161.1900  212.2360  144.2000 C   0  0  0  0  0  2  0  0  0  0  0  0
  161.9430  212.8480  143.0280 C   0  0  0  0  0  2  0  0  0  0  0  0
  161.0180  213.0400  141.8600 C   0  0  0  0  0  0  0  0  0  0  0  0
  159.1080  212.4970  145.4240 O   0  0  0  0  0  0  0  0  0  0  0  0
  159.2560  213.8730  143.4240 C   0  0  0  0  0  2  0  0  0  0  0  0
  159.9980  213.1310  144.5390 C   0  0  1  0  0  0  0  0  0  0  0  0
  161.6140  212.6050  140.2610 Cl  0  0  0  0  0  0  0  0  0  0  0  0
  159.7700  213.5180  142.0460 C   0  0  0  0  0  0  0  0  0  0  0  0
  162.0560  210.9060  148.4870 C   0  0  0  0  0  2  0  0  0  0  0  0
  161.2130  209.6710  148.2230 C   0  0  0  0  0  2  0  0  0  0  0  0
  161.9400  208.4090  148.6880 C   0  0  2  0  0  3  0  0  0  0  0  0
  161.1340  204.9170  149.1120 C   0  0  0  0  0  0  0  0  0  0  0  0
  162.0710  206.2110  147.3610 C   0  0  1  0  0  3  0  0  0  0  0  0
  160.8310  203.8750  149.8800 C   0  0  0  0  0  2  0  0  0  0  0  0
  161.8500  204.7810  147.8230 C   0  0  0  0  0  2  0  0  0  0  0  0
  161.6700  206.3440  146.0330 O   0  0  0  0  0  1  0  0  0  0  0  0
  160.7860  206.3120  149.4660 C   0  0  0  0  0  2  0  0  0  0  0  0
  161.2200  207.1230  148.2570 C   0  0  1  0  0  3  0  0  0  0  0  0
  163.0440  207.3940  150.5550 F   0  0  0  0  0  0  0  0  0  0  0  0
  162.2210  208.4430  150.1910 C   0  0  0  0  0  3  0  0  0  0  0  0
  161.0480  208.4010  150.9250 F   0  0  0  0  0  0  0  0  0  0  0  0
  1  4  1  0  0  0  0
  2  1  1  0  0  0  0
  2  8  2  0  0  0  0
  3  6  1  0  0  0  0
  4  7  1  0  0  0  0
  4  3  2  0  0  0  0
  6  5  2  0  0  0  0
  6 10  1  0  0  0  0
  7  9  2  0  0  0  0
  8  7  1  0  0  0  0
  9  5  1  0  0  0  0
 10 11  1  6  0  0  0
 12 13  1  0  0  0  0
 13 20  1  0  0  0  0
 14 13  1  0  0  0  0
 14 24  1  1  0  0  0
 15 16  1  1  0  0  0
 15 17  1  0  0  0  0
 15 18  1  0  0  0  0
 17 10  1  6  0  0  0
 17 12  1  0  0  0  0
 18 14  1  0  0  0  0
 20 19  1  6  0  0  0
 21 23  2  0  0  0  0
 21 20  1  0  0  0  0
 22 21  1  0  0  0  0
 25 24  1  0  0  0  0
 26 28  1  0  0  0  0
 28 27  2  0  0  0  0
 28 25  1  0  0  0  0
 29  2  1  0  0  0  0
 30 39  1  0  0  0  0
 31 29  1  1  0  0  0
 32 37  1  0  0  0  0
 33 32  1  0  0  0  0
 34 39  2  0  0  0  0
 34 33  1  0  0  0  0
 35 31  1  0  0  0  0
 37 36  1  6  0  0  0
 37 35  1  0  0  0  0
 37 31  1  0  0  0  0
 38 34  1  0  0  0  0
 39 36  1  0  0  0  0
 40  8  1  0  0  0  0
 41 40  1  0  0  0  0
 42 41  1  1  0  0  0
 42 51  1  0  0  0  0
 43 48  1  0  0  0  0
 43 45  2  0  0  0  0
 44 47  1  6  0  0  0
 44 46  1  0  0  0  0
 44 49  1  0  0  0  0
 46 43  1  0  0  0  0
 49 42  1  1  0  0  0
 49 48  1  0  0  0  0
 51 50  1  0  0  0  0
 51 52  1  0  0  0  0
M  END
>  <MODEL>
7

>  <REMARK>
 VINA RESULT:      -5.7      3.185      8.250
  Name = 
  14 active torsions:
  status: ('A' for Active; 'I' for Inactive)
    1  A    between atoms: C_4  and  C_28
    2  A    between atoms: C_4  and  C_45
    3  A    between atoms: O_6  and  C_10
    4  A    between atoms: O_6  and  C_17
    5  A    between atoms: N_9  and  C_50
    6  A    between atoms: C_16  and  C_21
    7  A    between atoms: C_18  and  C_50
    8  A    between atoms: C_21  and  C_42
    9  A    between atoms: C_21  and  C_47
   10  A    between atoms: C_30  and  C_36
   11  A    between atoms: C_36  and  C_44
   12  A    between atoms: C_37  and  C_45
   13  A    between atoms: C_38  and  C_40
   14  A    between atoms: C_40  and  C_47
                            x       y       z     vdW  Elec       q    Type
                         _______ _______ _______ _____ _____    ______ ____

>  <TORSDO>
F 14

$$$$
