=
 OpenBabel11042421393D

 45 49  0  0  1  0  0  0  0  0999 V2000
  157.0570  213.5090  151.8710 O   0  0  0  0  0  0  0  0  0  0  0  0
  163.4720  210.8320  152.4170 O   0  0  0  0  0  1  0  0  0  0  0  0
  162.3400  211.9380  149.9130 C   0  0  0  0  0  2  0  0  0  0  0  0
  156.9910  211.3270  155.7850 C   0  0  0  0  0  0  0  0  0  0  0  0
  161.6370  210.1900  151.0590 N   0  0  1  0  0  0  0  0  0  0  0  0
  159.5880  213.1410  149.7650 C   0  0  0  0  0  0  0  0  0  0  0  0
  161.4910  210.0020  153.4850 C   0  0  0  0  0  3  0  0  0  0  0  0
  158.0110  213.1210  152.5990 C   0  0  0  0  0  0  0  0  0  0  0  0
  161.7450  210.7870  154.5420 C   0  0  0  0  0  3  0  0  0  0  0  0
  159.4440  213.0810  152.2600 C   0  0  0  0  0  0  0  0  0  0  0  0
  162.4090  209.9250  152.2860 C   0  0  2  0  0  3  0  0  0  0  0  0
  160.1130  212.6410  153.2760 N   0  0  0  0  0  0  0  0  0  0  0  0
  157.8450  212.6780  153.9370 N   0  0  0  0  0  0  0  0  0  0  0  0
  155.8790  210.8330  156.6390 C   0  0  0  0  0  1  0  0  0  0  0  0
  160.0720  213.0710  150.9710 N   0  0  0  0  0  0  0  0  0  0  0  0
  158.2580  211.0410  156.1280 C   0  0  0  0  0  3  0  0  0  0  0  0
  156.6570  212.0360  154.4940 C   0  0  0  0  0  2  0  0  0  0  0  0
  161.6200  212.3050  148.6460 C   0  0  0  0  0  0  0  0  0  0  0  0
  162.4750  210.5480  150.0420 O   0  0  0  0  0  0  0  0  0  0  0  0
  159.4110  211.4710  155.3130 C   0  0  0  0  0  0  0  0  0  0  0  0
  158.2010  213.3800  149.5240 N   0  0  0  0  0  1  0  0  0  0  0  0
  160.4300  212.8460  148.6380 N   0  0  0  0  0  0  0  0  0  0  0  0
  159.1750  212.3200  154.2970 C   0  0  0  0  0  0  0  0  0  0  0  0
  160.7780  210.9340  155.6860 C   0  0  0  0  0  2  0  0  0  0  0  0
  160.5850  208.0790  151.8970 C   0  0  0  0  0  2  0  0  0  0  0  0
  161.7080  208.2190  149.5800 C   0  0  0  0  0  0  0  0  0  0  0  0
  161.6840  206.0950  150.9820 C   0  0  1  0  0  3  0  0  0  0  0  0
  160.9470  208.9470  150.6720 C   0  0  2  0  0  3  0  0  0  0  0  0
  162.0060  206.7400  149.6370 C   0  0  0  0  0  2  0  0  0  0  0  0
  160.3700  206.6270  151.5220 C   0  0  0  0  0  2  0  0  0  0  0  0
  161.8770  208.8310  148.4110 C   0  0  0  0  0  2  0  0  0  0  0  0
  161.6020  204.2880  150.7870 S   0  0  0  0  0  0  0  0  0  0  0  0
  160.8040  204.3820  149.1510 C   0  0  0  0  0  2  0  0  0  0  0  0
  162.0150  204.1490  147.1140 O   0  0  0  0  0  1  0  0  0  0  0  0
  161.4900  203.4320  148.1900 C   0  0  0  0  0  2  0  0  0  0  0  0
  162.3150  212.0670  147.3450 C   0  0  0  0  0  2  0  0  0  0  0  0
  158.9870  212.6870  143.8590 F   0  0  0  0  0  0  0  0  0  0  0  0
  160.9740  211.7810  143.3250 F   0  0  0  0  0  0  0  0  0  0  0  0
  160.8940  214.1150  143.8210 C   0  0  1  0  0  3  0  0  0  0  0  0
  160.5600  212.3430  145.6020 C   0  0  0  0  0  2  0  0  0  0  0  0
  160.6690  214.4530  142.4990 F   0  0  0  0  0  0  0  0  0  0  0  0
  162.8790  213.2480  145.1940 C   0  0  0  0  0  2  0  0  0  0  0  0
  160.3420  212.7170  144.1270 C   0  0  0  0  0  0  0  0  0  0  0  0
  161.7990  212.9850  146.2420 C   0  0  2  0  0  3  0  0  0  0  0  0
  162.3900  214.2470  144.1410 C   0  0  0  0  0  2  0  0  0  0  0  0
  1  8  2  0  0  0  0
  3 19  1  0  0  0  0
  4 16  2  0  0  0  0
  4 14  1  0  0  0  0
  5 19  1  6  0  0  0
  5 11  1  0  0  0  0
  6 15  2  0  0  0  0
  7  9  2  0  0  0  0
  8 13  1  0  0  0  0
  9 24  1  0  0  0  0
 10  8  1  0  0  0  0
 10 12  2  0  0  0  0
 11  2  1  1  0  0  0
 11  7  1  0  0  0  0
 12 23  1  0  0  0  0
 13 23  1  0  0  0  0
 13 17  1  0  0  0  0
 15 10  1  0  0  0  0
 17  4  1  0  0  0  0
 18  3  1  0  0  0  0
 20 24  1  0  0  0  0
 20 16  1  0  0  0  0
 21  6  1  0  0  0  0
 22 18  2  0  0  0  0
 22  6  1  0  0  0  0
 23 20  2  0  0  0  0
 26 29  1  0  0  0  0
 26 28  1  0  0  0  0
 27 32  1  6  0  0  0
 27 30  1  0  0  0  0
 28  5  1  0  0  0  0
 28 25  1  1  0  0  0
 29 27  1  0  0  0  0
 30 25  1  0  0  0  0
 31 26  2  0  0  0  0
 33 32  1  0  0  0  0
 34 35  1  0  0  0  0
 35 33  1  0  0  0  0
 36 18  1  0  0  0  0
 37 43  1  0  0  0  0
 38 43  1  0  0  0  0
 39 41  1  6  0  0  0
 39 43  1  0  0  0  0
 39 45  1  0  0  0  0
 40 44  1  0  0  0  0
 42 44  1  0  0  0  0
 43 40  1  0  0  0  0
 44 36  1  1  0  0  0
 45 42  1  0  0  0  0
M  END
>  <MODEL>
1

>  <REMARK>
 VINA RESULT:      -4.4      0.000      0.000
  Name = 
  6 active torsions:
  status: ('A' for Active; 'I' for Inactive)
    1  A    between atoms: C_1  and  C_34
    2  A    between atoms: C_1  and  C_36
    3  A    between atoms: N_8  and  C_16
    4  A    between atoms: C_14  and  S_23
    5  A    between atoms: S_23  and  C_39
    6  A    between atoms: C_39  and  C_40
                            x       y       z     vdW  Elec       q    Type
                         _______ _______ _______ _____ _____    ______ ____

>  <TORSDO>
F 6

$$$$
