=
 OpenBabel11042421263D

 33 38  0  0  1  0  0  0  0  0999 V2000
  160.0750  211.0570  155.2280 C   0  0  0  0  0  0  0  0  0  0  0  0
  161.9990  209.3510  150.9940 C   0  0  0  0  0  2  0  0  0  0  0  0
  160.8160  211.4610  151.4020 N   0  0  0  0  0  0  0  0  0  0  0  0
  158.5090  211.2260  153.3820 C   0  0  0  0  0  3  0  0  0  0  0  0
  161.5520  208.8930  153.7670 C   0  0  2  0  0  3  0  0  0  0  0  0
  157.6960  212.0660  154.1450 C   0  0  0  0  0  3  0  0  0  0  0  0
  161.0710  210.2540  151.7860 C   0  0  0  0  0  0  0  0  0  0  0  0
  163.0090  207.1990  150.8620 O   0  0  0  0  0  1  0  0  0  0  0  0
  158.0620  212.3920  155.4510 C   0  0  0  0  0  3  0  0  0  0  0  0
  159.7090  210.7180  153.9000 C   0  0  0  0  0  0  0  0  0  0  0  0
  159.2450  211.8840  155.9900 C   0  0  0  0  0  3  0  0  0  0  0  0
  161.5780  210.4450  155.9880 S   0  0  0  0  0  0  0  0  0  0  0  0
  160.6500  207.2620  150.8730 C   0  0  0  0  0  1  0  0  0  0  0  0
  160.4640  209.7040  153.0550 C   0  0  2  0  0  3  0  0  0  0  0  0
  161.9570  207.6640  152.9490 C   0  0  0  0  0  2  0  0  0  0  0  0
  161.1040  208.4460  155.4640 S   0  0  0  0  0  0  0  0  0  0  0  0
  161.9270  207.8740  151.4210 C   0  0  2  0  0  0  0  0  0  0  0  0
  161.8880  211.3490  147.9200 C   0  0  0  0  0  3  0  0  0  0  0  0
  161.6480  210.9980  149.1870 C   0  0  0  0  0  3  0  0  0  0  0  0
  159.0570  213.3610  150.1160 C   0  0  0  0  0  1  0  0  0  0  0  0
  161.3880  212.0590  150.2170 C   0  0  1  0  0  3  0  0  0  0  0  0
  160.4850  213.1700  149.6360 C   0  0  2  0  0  0  0  0  0  0  0  0
  161.2080  214.4530  149.2990 C   0  0  0  0  0  2  0  0  0  0  0  0
  160.7050  213.5590  148.1700 C   0  0  1  0  0  3  0  0  0  0  0  0
  161.8880  212.8070  147.5370 C   0  0  2  0  0  3  0  0  0  0  0  0
  161.8910  213.2780  143.2670 C   0  0  0  0  0  3  0  0  0  0  0  0
  161.9050  212.9760  146.0510 C   0  0  0  0  0  0  0  0  0  0  0  0
  160.7120  212.9240  143.9310 C   0  0  0  0  0  0  0  0  0  0  0  0
  160.7260  212.7740  145.3280 C   0  0  0  0  0  3  0  0  0  0  0  0
  163.0730  213.4810  143.9840 C   0  0  0  0  0  3  0  0  0  0  0  0
  163.0820  213.3310  145.3740 C   0  0  0  0  0  3  0  0  0  0  0  0
  159.5480  212.7270  143.1850 O   0  0  0  0  0  0  0  0  0  0  0  0
  159.0140  213.7200  142.3190 C   0  0  0  0  0  1  0  0  0  0  0  0
  1 12  1  0  0  0  0
  1 11  1  0  0  0  0
  2 17  1  0  0  0  0
  2  7  1  0  0  0  0
  3  7  2  0  0  0  0
  4 10  1  0  0  0  0
  4  6  2  0  0  0  0
  5 15  1  6  0  0  0
  5 16  1  0  0  0  0
  6  9  1  0  0  0  0
  8 17  1  0  0  0  0
  9 11  2  0  0  0  0
 10  1  2  0  0  0  0
 14  7  1  6  0  0  0
 14  5  1  0  0  0  0
 14 10  1  0  0  0  0
 16 12  1  0  0  0  0
 17 13  1  6  0  0  0
 17 15  1  0  0  0  0
 18 19  2  0  0  0  0
 19 21  1  0  0  0  0
 21  3  1  1  0  0  0
 22 20  1  1  0  0  0
 22 21  1  0  0  0  0
 23 22  1  0  0  0  0
 24 23  1  1  0  0  0
 24 22  1  0  0  0  0
 25 27  1  6  0  0  0
 25 18  1  0  0  0  0
 25 24  1  0  0  0  0
 26 28  2  0  0  0  0
 26 30  1  0  0  0  0
 28 29  1  0  0  0  0
 29 27  2  0  0  0  0
 30 31  2  0  0  0  0
 31 27  1  0  0  0  0
 32 28  1  0  0  0  0
 33 32  1  0  0  0  0
M  END
>  <MODEL>
1

>  <REMARK>
 VINA RESULT:      -5.6      0.000      0.000
  Name = 
  3 active torsions:
  status: ('A' for Active; 'I' for Inactive)
    1  A    between atoms: N_6  and  C_12
    2  A    between atoms: C_8  and  C_23
    3  A    between atoms: C_10  and  O_22
                            x       y       z     vdW  Elec       q    Type
                         _______ _______ _______ _____ _____    ______ ____

>  <TORSDO>
F 3

$$$$
=
 OpenBabel11042421263D

 33 38  0  0  1  0  0  0  0  0999 V2000
  161.0560  203.9940  145.4590 C   0  0  0  0  0  0  0  0  0  0  0  0
  160.5300  203.0640  150.2960 C   0  0  0  0  0  2  0  0  0  0  0  0
  161.1470  205.1670  149.1960 N   0  0  0  0  0  0  0  0  0  0  0  0
  162.9380  204.8100  146.7540 C   0  0  0  0  0  3  0  0  0  0  0  0
  160.4100  202.0420  147.6420 C   0  0  2  0  0  3  0  0  0  0  0  0
  163.3720  205.5580  145.6570 C   0  0  0  0  0  3  0  0  0  0  0  0
  161.0540  203.8800  149.1290 C   0  0  0  0  0  0  0  0  0  0  0  0
  160.0220  200.8790  151.0970 O   0  0  0  0  0  1  0  0  0  0  0  0
  162.6600  205.5150  144.4590 C   0  0  0  0  0  3  0  0  0  0  0  0
  161.7760  204.0300  146.6800 C   0  0  0  0  0  0  0  0  0  0  0  0
  161.5090  204.7310  144.3610 C   0  0  0  0  0  3  0  0  0  0  0  0
  159.5700  203.0140  145.2570 S   0  0  0  0  0  0  0  0  0  0  0  0
  162.2550  201.2750  150.4450 C   0  0  0  0  0  1  0  0  0  0  0  0
  161.4500  203.1430  147.8720 C   0  0  2  0  0  3  0  0  0  0  0  0
  160.4540  200.9910  148.7550 C   0  0  0  0  0  2  0  0  0  0  0  0
  160.5360  201.2810  146.0030 S   0  0  0  0  0  0  0  0  0  0  0  0
  160.7920  201.5530  150.1520 C   0  0  2  0  0  0  0  0  0  0  0  0
  160.8900  205.6870  152.7950 C   0  0  0  0  0  3  0  0  0  0  0  0
  160.9040  205.1010  151.5940 C   0  0  0  0  0  3  0  0  0  0  0  0
  162.8070  207.4930  149.6390 C   0  0  0  0  0  1  0  0  0  0  0  0
  160.7560  205.9360  150.3550 C   0  0  1  0  0  3  0  0  0  0  0  0
  161.5680  207.2450  150.4830 C   0  0  2  0  0  0  0  0  0  0  0  0
  160.7340  208.4770  150.7470 C   0  0  0  0  0  2  0  0  0  0  0  0
  161.6110  207.9130  151.8610 C   0  0  1  0  0  3  0  0  0  0  0  0
  160.7340  207.1830  152.8930 C   0  0  2  0  0  3  0  0  0  0  0  0
  161.5540  208.6110  156.8600 C   0  0  0  0  0  3  0  0  0  0  0  0
  161.0120  207.6660  154.2800 C   0  0  0  0  0  0  0  0  0  0  0  0
  161.8630  209.4070  155.7520 C   0  0  0  0  0  0  0  0  0  0  0  0
  161.5890  208.9270  154.4610 C   0  0  0  0  0  3  0  0  0  0  0  0
  160.9780  207.3510  156.6860 C   0  0  0  0  0  3  0  0  0  0  0  0
  160.7070  206.8770  155.4000 C   0  0  0  0  0  3  0  0  0  0  0  0
  162.4390  210.6620  155.9600 O   0  0  0  0  0  0  0  0  0  0  0  0
  163.3080  210.9370  157.0510 C   0  0  0  0  0  1  0  0  0  0  0  0
  1 10  1  0  0  0  0
  5 14  1  0  0  0  0
  5 15  1  1  0  0  0
  6  4  1  0  0  0  0
  7  3  2  0  0  0  0
  7  2  1  0  0  0  0
  9  6  2  0  0  0  0
 10  4  2  0  0  0  0
 11  9  1  0  0  0  0
 11  1  2  0  0  0  0
 12  1  1  0  0  0  0
 12 16  1  0  0  0  0
 14 10  1  6  0  0  0
 14  7  1  0  0  0  0
 15 17  1  0  0  0  0
 16  5  1  0  0  0  0
 17  2  1  0  0  0  0
 17 13  1  1  0  0  0
 17  8  1  0  0  0  0
 18 25  1  0  0  0  0
 19 18  2  0  0  0  0
 21  3  1  6  0  0  0
 21 22  1  0  0  0  0
 21 19  1  0  0  0  0
 22 20  1  6  0  0  0
 22 23  1  0  0  0  0
 22 24  1  0  0  0  0
 24 23  1  6  0  0  0
 24 25  1  0  0  0  0
 25 27  1  1  0  0  0
 27 29  2  0  0  0  0
 27 31  1  0  0  0  0
 28 32  1  0  0  0  0
 28 26  2  0  0  0  0
 29 28  1  0  0  0  0
 30 26  1  0  0  0  0
 31 30  2  0  0  0  0
 32 33  1  0  0  0  0
M  END
>  <MODEL>
2

>  <REMARK>
 VINA RESULT:      -5.6      6.228     10.112
  Name = 
  3 active torsions:
  status: ('A' for Active; 'I' for Inactive)
    1  A    between atoms: N_6  and  C_12
    2  A    between atoms: C_8  and  C_23
    3  A    between atoms: C_10  and  O_22
                            x       y       z     vdW  Elec       q    Type
                         _______ _______ _______ _____ _____    ______ ____

>  <TORSDO>
F 3

$$$$
=
 OpenBabel11042421263D

 33 38  0  0  1  0  0  0  0  0999 V2000
  160.8610  210.9890  156.2340 C   0  0  0  0  0  0  0  0  0  0  0  0
  159.2690  211.0750  151.5440 C   0  0  0  0  0  2  0  0  0  0  0  0
  160.8390  209.5170  152.6040 N   0  0  0  0  0  0  0  0  0  0  0  0
  162.6890  210.8190  154.6480 C   0  0  0  0  0  3  0  0  0  0  0  0
  159.1590  212.2720  154.1240 C   0  0  2  0  0  3  0  0  0  0  0  0
  163.5490  210.4310  155.6770 C   0  0  0  0  0  3  0  0  0  0  0  0
  160.2490  210.6660  152.6280 C   0  0  0  0  0  0  0  0  0  0  0  0
  157.8110  212.7850  150.7540 O   0  0  0  0  0  1  0  0  0  0  0  0
  163.0730  210.3330  156.9840 C   0  0  0  0  0  3  0  0  0  0  0  0
  161.3380  211.0930  154.9030 C   0  0  0  0  0  0  0  0  0  0  0  0
  161.7350  210.6180  157.2600 C   0  0  0  0  0  3  0  0  0  0  0  0
  159.1570  211.3360  156.6660 S   0  0  0  0  0  0  0  0  0  0  0  0
  160.0870  213.3610  150.9930 C   0  0  0  0  0  1  0  0  0  0  0  0
  160.5050  211.6400  153.7540 C   0  0  2  0  0  3  0  0  0  0  0  0
  158.6070  213.1210  152.9760 C   0  0  0  0  0  2  0  0  0  0  0  0
  159.2200  213.2080  155.6740 S   0  0  0  0  0  0  0  0  0  0  0  0
  158.9220  212.5760  151.5680 C   0  0  2  0  0  0  0  0  0  0  0  0
  161.4380  208.0970  149.3000 C   0  0  0  0  0  3  0  0  0  0  0  0
  161.2560  208.9750  150.2910 C   0  0  0  0  0  3  0  0  0  0  0  0
  162.0350  206.9530  153.2020 C   0  0  0  0  0  1  0  0  0  0  0  0
  160.6160  208.5270  151.5740 C   0  0  1  0  0  3  0  0  0  0  0  0
  161.1430  207.1340  151.9870 C   0  0  2  0  0  0  0  0  0  0  0  0
  160.1700  206.0020  151.7510 C   0  0  0  0  0  2  0  0  0  0  0  0
  161.4070  206.1240  150.8660 C   0  0  1  0  0  3  0  0  0  0  0  0
  161.0050  206.6640  149.4830 C   0  0  2  0  0  3  0  0  0  0  0  0
  162.4980  204.1300  146.3530 C   0  0  0  0  0  3  0  0  0  0  0  0
  161.5320  205.7960  148.3860 C   0  0  0  0  0  0  0  0  0  0  0  0
  161.6550  203.6040  147.3370 C   0  0  0  0  0  0  0  0  0  0  0  0
  161.1740  204.4450  148.3540 C   0  0  0  0  0  3  0  0  0  0  0  0
  162.8590  205.4790  146.3790 C   0  0  0  0  0  3  0  0  0  0  0  0
  162.3790  206.3120  147.3930 C   0  0  0  0  0  3  0  0  0  0  0  0
  161.3130  202.2510  147.2820 O   0  0  0  0  0  0  0  0  0  0  0  0
  160.9300  201.5080  148.4320 C   0  0  0  0  0  1  0  0  0  0  0  0
  1 12  1  0  0  0  0
  1 11  1  0  0  0  0
  2 17  1  0  0  0  0
  2  7  1  0  0  0  0
  3  7  2  0  0  0  0
  4 10  1  0  0  0  0
  4  6  2  0  0  0  0
  5 15  1  6  0  0  0
  5 16  1  0  0  0  0
  6  9  1  0  0  0  0
  8 17  1  0  0  0  0
  9 11  2  0  0  0  0
 10  1  2  0  0  0  0
 14  7  1  6  0  0  0
 14  5  1  0  0  0  0
 14 10  1  0  0  0  0
 16 12  1  0  0  0  0
 17 13  1  6  0  0  0
 17 15  1  0  0  0  0
 18 25  1  0  0  0  0
 18 19  2  0  0  0  0
 19 21  1  0  0  0  0
 21 22  1  0  0  0  0
 21  3  1  1  0  0  0
 22 20  1  1  0  0  0
 23 22  1  0  0  0  0
 24 23  1  1  0  0  0
 24 22  1  0  0  0  0
 25 27  1  6  0  0  0
 25 24  1  0  0  0  0
 26 30  2  0  0  0  0
 26 28  1  0  0  0  0
 28 29  2  0  0  0  0
 29 27  1  0  0  0  0
 30 31  1  0  0  0  0
 31 27  2  0  0  0  0
 32 28  1  0  0  0  0
 32 33  1  0  0  0  0
M  END
>  <MODEL>
3

>  <REMARK>
 VINA RESULT:      -5.5      4.103      6.598
  Name = 
  3 active torsions:
  status: ('A' for Active; 'I' for Inactive)
    1  A    between atoms: N_6  and  C_12
    2  A    between atoms: C_8  and  C_23
    3  A    between atoms: C_10  and  O_22
                            x       y       z     vdW  Elec       q    Type
                         _______ _______ _______ _____ _____    ______ ____

>  <TORSDO>
F 3

$$$$
=
 OpenBabel11042421263D

 33 38  0  0  1  0  0  0  0  0999 V2000
  159.7310  210.0060  155.1950 C   0  0  0  0  0  0  0  0  0  0  0  0
  161.1280  208.6980  150.6260 C   0  0  0  0  0  2  0  0  0  0  0  0
  160.6890  207.2640  152.5650 N   0  0  0  0  0  0  0  0  0  0  0  0
  161.5980  208.4560  155.2210 C   0  0  0  0  0  3  0  0  0  0  0  0
  160.4550  210.8190  152.4000 C   0  0  2  0  0  3  0  0  0  0  0  0
  161.4020  208.2390  156.5860 C   0  0  0  0  0  3  0  0  0  0  0  0
  160.9700  208.4410  152.1120 C   0  0  0  0  0  0  0  0  0  0  0  0
  161.5910  210.3270  148.9500 O   0  0  0  0  0  1  0  0  0  0  0  0
  160.3830  208.9120  157.2600 C   0  0  0  0  0  3  0  0  0  0  0  0
  160.7660  209.3280  154.5030 C   0  0  0  0  0  0  0  0  0  0  0  0
  159.5550  209.7960  156.5660 C   0  0  0  0  0  3  0  0  0  0  0  0
  158.6270  211.1530  154.3720 S   0  0  0  0  0  0  0  0  0  0  0  0
  163.2590  209.9860  150.5850 C   0  0  0  0  0  1  0  0  0  0  0  0
  161.1320  209.6110  153.0540 C   0  0  2  0  0  3  0  0  0  0  0  0
  161.1750  211.2350  151.1140 C   0  0  0  0  0  2  0  0  0  0  0  0
  160.2570  212.2180  153.5340 S   0  0  0  0  0  0  0  0  0  0  0  0
  161.7680  210.0620  150.3060 C   0  0  2  0  0  0  0  0  0  0  0  0
  160.3050  205.6700  149.3100 C   0  0  0  0  0  3  0  0  0  0  0  0
  160.2210  206.5530  150.3090 C   0  0  0  0  0  3  0  0  0  0  0  0
  163.0120  205.5490  152.3990 C   0  0  0  0  0  1  0  0  0  0  0  0
  160.4890  206.1090  151.7190 C   0  0  1  0  0  3  0  0  0  0  0  0
  161.6940  205.1420  151.7640 C   0  0  2  0  0  0  0  0  0  0  0  0
  161.3250  203.6910  151.9630 C   0  0  0  0  0  2  0  0  0  0  0  0
  161.8420  204.1520  150.6050 C   0  0  1  0  0  3  0  0  0  0  0  0
  160.6750  204.2390  149.6070 C   0  0  2  0  0  3  0  0  0  0  0  0
  161.5490  202.1200  145.9740 C   0  0  0  0  0  3  0  0  0  0  0  0
  160.9770  203.4870  148.3510 C   0  0  0  0  0  0  0  0  0  0  0  0
  161.6280  203.5160  146.0060 C   0  0  0  0  0  0  0  0  0  0  0  0
  161.3390  204.1950  147.2020 C   0  0  0  0  0  3  0  0  0  0  0  0
  161.1880  201.4060  147.1190 C   0  0  0  0  0  3  0  0  0  0  0  0
  160.9020  202.0860  148.3060 C   0  0  0  0  0  3  0  0  0  0  0  0
  161.9910  204.2000  144.8440 O   0  0  0  0  0  0  0  0  0  0  0  0
  161.3670  205.4110  144.4380 C   0  0  0  0  0  1  0  0  0  0  0  0
  1 11  1  0  0  0  0
  2  7  1  0  0  0  0
  4  6  2  0  0  0  0
  5 15  1  6  0  0  0
  5 14  1  0  0  0  0
  5 16  1  0  0  0  0
  6  9  1  0  0  0  0
  7  3  2  0  0  0  0
  8 17  1  0  0  0  0
 10  1  2  0  0  0  0
 10  4  1  0  0  0  0
 11  9  2  0  0  0  0
 12  1  1  0  0  0  0
 14  7  1  6  0  0  0
 14 10  1  0  0  0  0
 16 12  1  0  0  0  0
 17 13  1  1  0  0  0
 17  2  1  0  0  0  0
 17 15  1  0  0  0  0
 18 25  1  0  0  0  0
 18 19  2  0  0  0  0
 19 21  1  0  0  0  0
 21 22  1  0  0  0  0
 21  3  1  1  0  0  0
 22 23  1  0  0  0  0
 22 20  1  1  0  0  0
 24 22  1  0  0  0  0
 24 23  1  1  0  0  0
 25 27  1  6  0  0  0
 25 24  1  0  0  0  0
 26 28  2  0  0  0  0
 26 30  1  0  0  0  0
 28 29  1  0  0  0  0
 29 27  2  0  0  0  0
 30 31  2  0  0  0  0
 31 27  1  0  0  0  0
 32 28  1  0  0  0  0
 33 32  1  0  0  0  0
M  END
>  <MODEL>
4

>  <REMARK>
 VINA RESULT:      -5.1      4.091      6.977
  Name = 
  3 active torsions:
  status: ('A' for Active; 'I' for Inactive)
    1  A    between atoms: N_6  and  C_12
    2  A    between atoms: C_8  and  C_23
    3  A    between atoms: C_10  and  O_22
                            x       y       z     vdW  Elec       q    Type
                         _______ _______ _______ _____ _____    ______ ____

>  <TORSDO>
F 3

$$$$
=
 OpenBabel11042421263D

 33 38  0  0  1  0  0  0  0  0999 V2000
  158.7380  213.4660  154.7240 C   0  0  0  0  0  0  0  0  0  0  0  0
  161.8680  209.6490  155.1370 C   0  0  0  0  0  2  0  0  0  0  0  0
  160.3210  210.1740  153.3080 N   0  0  0  0  0  0  0  0  0  0  0  0
  157.6620  211.3480  154.2310 C   0  0  0  0  0  3  0  0  0  0  0  0
  160.8320  212.0240  156.3150 C   0  0  2  0  0  3  0  0  0  0  0  0
  156.5720  212.0270  153.6830 C   0  0  0  0  0  3  0  0  0  0  0  0
  160.6520  210.3370  154.5460 C   0  0  0  0  0  0  0  0  0  0  0  0
  163.1890  209.3260  157.0930 O   0  0  0  0  0  1  0  0  0  0  0  0
  156.5560  213.4210  153.6660 C   0  0  0  0  0  3  0  0  0  0  0  0
  158.7620  212.0490  154.7480 C   0  0  0  0  0  0  0  0  0  0  0  0
  157.6340  214.1370  154.1900 C   0  0  0  0  0  3  0  0  0  0  0  0
  160.0850  214.4530  155.3760 S   0  0  0  0  0  0  0  0  0  0  0  0
  160.9160  208.7080  157.2370 C   0  0  0  0  0  1  0  0  0  0  0  0
  159.8420  211.2390  155.4480 C   0  0  2  0  0  3  0  0  0  0  0  0
  161.6030  211.0970  157.2600 C   0  0  0  0  0  2  0  0  0  0  0  0
  160.0560  213.3930  157.2120 S   0  0  0  0  0  0  0  0  0  0  0  0
  161.9150  209.7040  156.6750 C   0  0  2  0  0  0  0  0  0  0  0  0
  160.7320  207.2180  151.2150 C   0  0  0  0  0  3  0  0  0  0  0  0
  160.3960  208.0180  152.2320 C   0  0  0  0  0  3  0  0  0  0  0  0
  160.4470  211.2770  150.6380 C   0  0  0  0  0  1  0  0  0  0  0  0
  161.0680  209.3520  152.3840 C   0  0  1  0  0  3  0  0  0  0  0  0
  161.2380  210.0340  151.0080 C   0  0  2  0  0  0  0  0  0  0  0  0
  162.6480  210.0050  150.4640 C   0  0  0  0  0  2  0  0  0  0  0  0
  161.5760  209.1340  149.8150 C   0  0  1  0  0  3  0  0  0  0  0  0
  161.7790  207.6670  150.2270 C   0  0  2  0  0  3  0  0  0  0  0  0
  161.8760  205.0450  146.8270 C   0  0  0  0  0  3  0  0  0  0  0  0
  161.8170  206.7680  149.0340 C   0  0  0  0  0  0  0  0  0  0  0  0
  161.4720  204.5590  148.0740 C   0  0  0  0  0  0  0  0  0  0  0  0
  161.4450  205.4280  149.1770 C   0  0  0  0  0  3  0  0  0  0  0  0
  162.2490  206.3830  146.6770 C   0  0  0  0  0  3  0  0  0  0  0  0
  162.2210  207.2440  147.7770 C   0  0  0  0  0  3  0  0  0  0  0  0
  161.1050  203.2150  148.1900 O   0  0  0  0  0  0  0  0  0  0  0  0
  160.9500  202.5680  149.4460 C   0  0  0  0  0  1  0  0  0  0  0  0
  1 10  1  0  0  0  0
  1 12  1  0  0  0  0
  2 17  1  0  0  0  0
  3  7  2  0  0  0  0
  4 10  2  0  0  0  0
  5 16  1  0  0  0  0
  5 15  1  1  0  0  0
  6  4  1  0  0  0  0
  7  2  1  0  0  0  0
  9  6  2  0  0  0  0
  9 11  1  0  0  0  0
 10 14  1  0  0  0  0
 11  1  2  0  0  0  0
 12 16  1  0  0  0  0
 14  7  1  6  0  0  0
 14  5  1  0  0  0  0
 17  8  1  0  0  0  0
 17 13  1  1  0  0  0
 17 15  1  0  0  0  0
 18 19  2  0  0  0  0
 19 21  1  0  0  0  0
 21  3  1  1  0  0  0
 22 20  1  6  0  0  0
 22 21  1  0  0  0  0
 23 22  1  0  0  0  0
 24 25  1  0  0  0  0
 24 23  1  1  0  0  0
 24 22  1  0  0  0  0
 25 27  1  6  0  0  0
 25 18  1  0  0  0  0
 26 28  1  0  0  0  0
 27 29  1  0  0  0  0
 28 32  1  0  0  0  0
 28 29  2  0  0  0  0
 30 26  2  0  0  0  0
 30 31  1  0  0  0  0
 31 27  2  0  0  0  0
 32 33  1  0  0  0  0
M  END
>  <MODEL>
5

>  <REMARK>
 VINA RESULT:      -4.6      4.261      5.841
  Name = 
  3 active torsions:
  status: ('A' for Active; 'I' for Inactive)
    1  A    between atoms: N_6  and  C_12
    2  A    between atoms: C_8  and  C_23
    3  A    between atoms: C_10  and  O_22
                            x       y       z     vdW  Elec       q    Type
                         _______ _______ _______ _____ _____    ______ ____

>  <TORSDO>
F 3

$$$$
=
 OpenBabel11042421263D

 33 38  0  0  1  0  0  0  0  0999 V2000
  159.7170  209.7140  155.4590 C   0  0  0  0  0  0  0  0  0  0  0  0
  161.0450  209.3570  150.7000 C   0  0  0  0  0  2  0  0  0  0  0  0
  160.6850  207.5620  152.3320 N   0  0  0  0  0  0  0  0  0  0  0  0
  161.6220  208.2440  155.1520 C   0  0  0  0  0  3  0  0  0  0  0  0
  160.3570  211.0740  152.8630 C   0  0  2  0  0  3  0  0  0  0  0  0
  161.4620  207.7610  156.4530 C   0  0  0  0  0  3  0  0  0  0  0  0
  160.9260  208.8120  152.1110 C   0  0  0  0  0  0  0  0  0  0  0  0
  161.4290  211.2910  149.3650 O   0  0  0  0  0  1  0  0  0  0  0  0
  160.4420  208.2610  157.2610 C   0  0  0  0  0  3  0  0  0  0  0  0
  160.7530  209.2130  154.6310 C   0  0  0  0  0  0  0  0  0  0  0  0
  159.5760  209.2380  156.7660 C   0  0  0  0  0  3  0  0  0  0  0  0
  158.5660  210.9660  154.8930 S   0  0  0  0  0  0  0  0  0  0  0  0
  163.1400  210.6900  150.8740 C   0  0  0  0  0  1  0  0  0  0  0  0
  161.0800  209.7820  153.2590 C   0  0  2  0  0  3  0  0  0  0  0  0
  161.0380  211.7510  151.6710 C   0  0  0  0  0  2  0  0  0  0  0  0
  160.1500  212.2200  154.2500 S   0  0  0  0  0  0  0  0  0  0  0  0
  161.6430  210.7750  150.6410 C   0  0  2  0  0  0  0  0  0  0  0  0
  160.7560  206.5180  148.8400 C   0  0  0  0  0  3  0  0  0  0  0  0
  160.5980  207.2580  149.9410 C   0  0  0  0  0  3  0  0  0  0  0  0
  162.7070  205.4940  152.3090 C   0  0  0  0  0  1  0  0  0  0  0  0
  160.4960  206.5880  151.2810 C   0  0  1  0  0  3  0  0  0  0  0  0
  161.5050  205.4220  151.3830 C   0  0  2  0  0  0  0  0  0  0  0  0
  160.8890  204.0470  151.2640 C   0  0  0  0  0  2  0  0  0  0  0  0
  161.7430  204.5870  150.1210 C   0  0  1  0  0  3  0  0  0  0  0  0
  160.8370  205.0170  148.9550 C   0  0  2  0  0  3  0  0  0  0  0  0
  162.0870  203.2000  145.2690 C   0  0  0  0  0  3  0  0  0  0  0  0
  161.2790  204.3990  147.6670 C   0  0  0  0  0  0  0  0  0  0  0  0
  161.2930  202.4820  146.1690 C   0  0  0  0  0  0  0  0  0  0  0  0
  160.8920  203.0890  147.3700 C   0  0  0  0  0  3  0  0  0  0  0  0
  162.4770  204.5090  145.5590 C   0  0  0  0  0  3  0  0  0  0  0  0
  162.0760  205.1100  146.7550 C   0  0  0  0  0  3  0  0  0  0  0  0
  160.9200  201.1740  145.8490 O   0  0  0  0  0  0  0  0  0  0  0  0
  161.2520  200.0590  146.6650 C   0  0  0  0  0  1  0  0  0  0  0  0
  1 11  1  0  0  0  0
  2  7  1  0  0  0  0
  4  6  2  0  0  0  0
  5 15  1  6  0  0  0
  5 14  1  0  0  0  0
  5 16  1  0  0  0  0
  6  9  1  0  0  0  0
  7  3  2  0  0  0  0
  8 17  1  0  0  0  0
 10  4  1  0  0  0  0
 10  1  2  0  0  0  0
 11  9  2  0  0  0  0
 12  1  1  0  0  0  0
 14  7  1  6  0  0  0
 14 10  1  0  0  0  0
 16 12  1  0  0  0  0
 17  2  1  0  0  0  0
 17 13  1  1  0  0  0
 17 15  1  0  0  0  0
 18 25  1  0  0  0  0
 18 19  2  0  0  0  0
 19 21  1  0  0  0  0
 21 22  1  0  0  0  0
 21  3  1  1  0  0  0
 22 20  1  1  0  0  0
 23 22  1  0  0  0  0
 24 23  1  1  0  0  0
 24 22  1  0  0  0  0
 25 27  1  6  0  0  0
 25 24  1  0  0  0  0
 26 30  2  0  0  0  0
 26 28  1  0  0  0  0
 28 29  2  0  0  0  0
 29 27  1  0  0  0  0
 30 31  1  0  0  0  0
 31 27  2  0  0  0  0
 32 28  1  0  0  0  0
 32 33  1  0  0  0  0
M  END
>  <MODEL>
6

>  <REMARK>
 VINA RESULT:      -4.6      4.117      6.965
  Name = 
  3 active torsions:
  status: ('A' for Active; 'I' for Inactive)
    1  A    between atoms: N_6  and  C_12
    2  A    between atoms: C_8  and  C_23
    3  A    between atoms: C_10  and  O_22
                            x       y       z     vdW  Elec       q    Type
                         _______ _______ _______ _____ _____    ______ ____

>  <TORSDO>
F 3

$$$$
=
 OpenBabel11042421263D

 33 38  0  0  1  0  0  0  0  0999 V2000
  160.4210  211.8610  154.5260 C   0  0  0  0  0  0  0  0  0  0  0  0
  160.9490  206.9650  155.0680 C   0  0  0  0  0  2  0  0  0  0  0  0
  160.6660  208.2590  153.0040 N   0  0  0  0  0  0  0  0  0  0  0  0
  158.7550  210.6200  153.2720 C   0  0  0  0  0  3  0  0  0  0  0  0
  160.7970  209.5050  156.3440 C   0  0  2  0  0  3  0  0  0  0  0  0
  158.4180  211.7780  152.5690 C   0  0  0  0  0  3  0  0  0  0  0  0
  160.5330  208.1980  154.2880 C   0  0  0  0  0  0  0  0  0  0  0  0
  161.1000  205.9590  157.2220 O   0  0  0  0  0  1  0  0  0  0  0  0
  159.0700  212.9780  152.8490 C   0  0  0  0  0  3  0  0  0  0  0  0
  159.7620  210.6360  154.2480 C   0  0  0  0  0  0  0  0  0  0  0  0
  160.0640  213.0190  153.8290 C   0  0  0  0  0  3  0  0  0  0  0  0
  161.7080  211.9900  155.7660 S   0  0  0  0  0  0  0  0  0  0  0  0
  158.9470  206.6060  156.5040 C   0  0  0  0  0  1  0  0  0  0  0  0
  159.9710  209.3680  155.0610 C   0  0  2  0  0  3  0  0  0  0  0  0
  160.6110  208.2920  157.2600 C   0  0  0  0  0  2  0  0  0  0  0  0
  160.4840  211.0570  157.2240 S   0  0  0  0  0  0  0  0  0  0  0  0
  160.4250  206.9530  156.5170 C   0  0  2  0  0  0  0  0  0  0  0  0
  160.4200  205.0930  151.2130 C   0  0  0  0  0  3  0  0  0  0  0  0
  160.2490  206.0500  152.1300 C   0  0  0  0  0  3  0  0  0  0  0  0
  161.1760  209.0190  150.2610 C   0  0  0  0  0  1  0  0  0  0  0  0
  161.2240  207.1890  152.2080 C   0  0  1  0  0  3  0  0  0  0  0  0
  161.6170  207.6660  150.7910 C   0  0  2  0  0  0  0  0  0  0  0  0
  162.9970  207.2400  150.3470 C   0  0  0  0  0  2  0  0  0  0  0  0
  161.7710  206.5940  149.7080 C   0  0  1  0  0  3  0  0  0  0  0  0
  161.5860  205.1710  150.2610 C   0  0  2  0  0  3  0  0  0  0  0  0
  161.2060  202.3370  147.0560 C   0  0  0  0  0  3  0  0  0  0  0  0
  161.4510  204.1730  149.1570 C   0  0  0  0  0  0  0  0  0  0  0  0
  161.5900  203.6540  146.7840 C   0  0  0  0  0  0  0  0  0  0  0  0
  161.7100  204.5700  147.8420 C   0  0  0  0  0  3  0  0  0  0  0  0
  160.9450  201.9340  148.3680 C   0  0  0  0  0  3  0  0  0  0  0  0
  161.0670  202.8480  149.4180 C   0  0  0  0  0  3  0  0  0  0  0  0
  161.8430  204.0260  145.4610 O   0  0  0  0  0  0  0  0  0  0  0  0
  160.8680  204.6540  144.6400 C   0  0  0  0  0  1  0  0  0  0  0  0
  1 12  1  0  0  0  0
  2 17  1  0  0  0  0
  3  7  2  0  0  0  0
  4 10  2  0  0  0  0
  5 16  1  0  0  0  0
  5 15  1  1  0  0  0
  6  9  2  0  0  0  0
  6  4  1  0  0  0  0
  7 14  1  0  0  0  0
  7  2  1  0  0  0  0
  9 11  1  0  0  0  0
 10  1  1  0  0  0  0
 11  1  2  0  0  0  0
 12 16  1  0  0  0  0
 14 10  1  6  0  0  0
 14  5  1  0  0  0  0
 17 13  1  6  0  0  0
 17  8  1  0  0  0  0
 17 15  1  0  0  0  0
 18 19  2  0  0  0  0
 19 21  1  0  0  0  0
 21  3  1  1  0  0  0
 22 20  1  6  0  0  0
 22 21  1  0  0  0  0
 23 22  1  0  0  0  0
 24 25  1  0  0  0  0
 24 23  1  1  0  0  0
 24 22  1  0  0  0  0
 25 27  1  6  0  0  0
 25 18  1  0  0  0  0
 26 30  1  0  0  0  0
 27 31  1  0  0  0  0
 28 26  2  0  0  0  0
 28 29  1  0  0  0  0
 29 27  2  0  0  0  0
 30 31  2  0  0  0  0
 32 28  1  0  0  0  0
 33 32  1  0  0  0  0
M  END
>  <MODEL>
7

>  <REMARK>
 VINA RESULT:      -4.6      4.563      6.567
  Name = 
  3 active torsions:
  status: ('A' for Active; 'I' for Inactive)
    1  A    between atoms: N_6  and  C_12
    2  A    between atoms: C_8  and  C_23
    3  A    between atoms: C_10  and  O_22
                            x       y       z     vdW  Elec       q    Type
                         _______ _______ _______ _____ _____    ______ ____

>  <TORSDO>
F 3

$$$$
=
 OpenBabel11042421263D

 33 38  0  0  1  0  0  0  0  0999 V2000
  161.0610  203.3390  146.1860 C   0  0  0  0  0  0  0  0  0  0  0  0
  160.7470  203.9670  151.0900 C   0  0  0  0  0  2  0  0  0  0  0  0
  161.2340  205.6330  149.3570 N   0  0  0  0  0  0  0  0  0  0  0  0
  162.9520  204.5770  147.0690 C   0  0  0  0  0  3  0  0  0  0  0  0
  160.5760  202.1570  148.9000 C   0  0  2  0  0  3  0  0  0  0  0  0
  163.3140  204.9530  145.7740 C   0  0  0  0  0  3  0  0  0  0  0  0
  161.1940  204.3890  149.7030 C   0  0  0  0  0  0  0  0  0  0  0  0
  160.3620  202.1330  152.5590 O   0  0  0  0  0  1  0  0  0  0  0  0
  162.5610  204.5140  144.6850 C   0  0  0  0  0  3  0  0  0  0  0  0
  161.8210  203.7790  147.2990 C   0  0  0  0  0  0  0  0  0  0  0  0
  161.4430  203.7050  144.8920 C   0  0  0  0  0  3  0  0  0  0  0  0
  159.6110  202.3020  146.3730 S   0  0  0  0  0  0  0  0  0  0  0  0
  162.5510  202.3680  151.7120 C   0  0  0  0  0  1  0  0  0  0  0  0
  161.5770  203.3040  148.7230 C   0  0  2  0  0  3  0  0  0  0  0  0
  160.7050  201.5130  150.2830 C   0  0  0  0  0  2  0  0  0  0  0  0
  160.6770  200.9220  147.5790 S   0  0  0  0  0  0  0  0  0  0  0  0
  161.0680  202.4960  151.4150 C   0  0  2  0  0  0  0  0  0  0  0  0
  160.8540  207.1470  152.6520 C   0  0  0  0  0  3  0  0  0  0  0  0
  160.8760  206.2500  151.6610 C   0  0  0  0  0  3  0  0  0  0  0  0
  163.0510  207.8810  149.2570 C   0  0  0  0  0  1  0  0  0  0  0  0
  160.8520  206.7170  150.2340 C   0  0  1  0  0  3  0  0  0  0  0  0
  161.7590  207.9560  150.0520 C   0  0  2  0  0  0  0  0  0  0  0  0
  161.0140  209.2630  149.9140 C   0  0  0  0  0  2  0  0  0  0  0  0
  161.7900  208.9760  151.1950 C   0  0  1  0  0  3  0  0  0  0  0  0
  160.8120  208.6180  152.3260 C   0  0  2  0  0  3  0  0  0  0  0  0
  161.4850  211.0030  155.8340 C   0  0  0  0  0  3  0  0  0  0  0  0
  161.0630  209.4480  153.5440 C   0  0  0  0  0  0  0  0  0  0  0  0
  160.2020  210.5260  155.5480 C   0  0  0  0  0  0  0  0  0  0  0  0
  159.9970  209.7470  154.3980 C   0  0  0  0  0  3  0  0  0  0  0  0
  162.5540  210.7090  154.9860 C   0  0  0  0  0  3  0  0  0  0  0  0
  162.3460  209.9330  153.8420 C   0  0  0  0  0  3  0  0  0  0  0  0
  159.1540  210.8400  156.4170 O   0  0  0  0  0  0  0  0  0  0  0  0
  157.9220  211.3870  155.9680 C   0  0  0  0  0  1  0  0  0  0  0  0
  1 12  1  0  0  0  0
  1 10  1  0  0  0  0
  2 17  1  0  0  0  0
  3  7  2  0  0  0  0
  4 10  2  0  0  0  0
  5 15  1  1  0  0  0
  6  4  1  0  0  0  0
  7  2  1  0  0  0  0
  9 11  1  0  0  0  0
  9  6  2  0  0  0  0
 11  1  2  0  0  0  0
 12 16  1  0  0  0  0
 14 10  1  6  0  0  0
 14  5  1  0  0  0  0
 14  7  1  0  0  0  0
 15 17  1  0  0  0  0
 16  5  1  0  0  0  0
 17 13  1  1  0  0  0
 17  8  1  0  0  0  0
 19 18  2  0  0  0  0
 21  3  1  6  0  0  0
 21 19  1  0  0  0  0
 22 20  1  6  0  0  0
 22 21  1  0  0  0  0
 22 24  1  0  0  0  0
 23 22  1  0  0  0  0
 24 23  1  6  0  0  0
 24 25  1  0  0  0  0
 25 18  1  0  0  0  0
 25 27  1  1  0  0  0
 27 31  2  0  0  0  0
 27 29  1  0  0  0  0
 28 26  1  0  0  0  0
 28 32  1  0  0  0  0
 29 28  2  0  0  0  0
 30 26  2  0  0  0  0
 31 30  1  0  0  0  0
 33 32  1  0  0  0  0
M  END
>  <MODEL>
8

>  <REMARK>
 VINA RESULT:      -4.1      5.599      9.331
  Name = 
  3 active torsions:
  status: ('A' for Active; 'I' for Inactive)
    1  A    between atoms: N_6  and  C_12
    2  A    between atoms: C_8  and  C_23
    3  A    between atoms: C_10  and  O_22
                            x       y       z     vdW  Elec       q    Type
                         _______ _______ _______ _____ _____    ______ ____

>  <TORSDO>
F 3

$$$$
=
 OpenBabel11042421263D

 33 38  0  0  1  0  0  0  0  0999 V2000
  157.2700  211.7040  138.5460 C   0  0  0  0  0  0  0  0  0  0  0  0
  161.3160  211.8220  141.4020 C   0  0  0  0  0  2  0  0  0  0  0  0
  159.0190  212.4660  141.9680 N   0  0  0  0  0  0  0  0  0  0  0  0
  157.5160  213.8290  139.6910 C   0  0  0  0  0  3  0  0  0  0  0  0
  160.2130  211.2070  138.8520 C   0  0  2  0  0  3  0  0  0  0  0  0
  156.2020  214.1630  139.3580 C   0  0  0  0  0  3  0  0  0  0  0  0
  159.9010  212.2410  141.0510 C   0  0  0  0  0  0  0  0  0  0  0  0
  163.4610  211.2320  140.5500 O   0  0  0  0  0  1  0  0  0  0  0  0
  155.4260  213.2780  138.6110 C   0  0  0  0  0  3  0  0  0  0  0  0
  158.0670  212.5980  139.3050 C   0  0  0  0  0  0  0  0  0  0  0  0
  155.9620  212.0550  138.2020 C   0  0  0  0  0  3  0  0  0  0  0  0
  157.8870  210.1170  137.9890 S   0  0  0  0  0  0  0  0  0  0  0  0
  162.6440  213.3700  139.9740 C   0  0  0  0  0  1  0  0  0  0  0  0
  159.5440  212.3720  139.5900 C   0  0  2  0  0  3  0  0  0  0  0  0
  161.7390  211.3170  138.9030 C   0  0  0  0  0  2  0  0  0  0  0  0
  159.6170  211.0130  137.1520 S   0  0  0  0  0  0  0  0  0  0  0  0
  162.2930  211.9130  140.2140 C   0  0  2  0  0  0  0  0  0  0  0  0
  161.1750  212.7440  144.8940 C   0  0  0  0  0  3  0  0  0  0  0  0
  160.7500  212.5280  143.6460 C   0  0  0  0  0  3  0  0  0  0  0  0
  157.6750  214.4530  143.5840 C   0  0  0  0  0  1  0  0  0  0  0  0
  159.2850  212.3300  143.3820 C   0  0  1  0  0  3  0  0  0  0  0  0
  158.4430  213.3120  144.2280 C   0  0  2  0  0  0  0  0  0  0  0  0
  157.7510  212.6840  145.4150 C   0  0  0  0  0  2  0  0  0  0  0  0
  158.9350  213.6170  145.6460 C   0  0  1  0  0  3  0  0  0  0  0  0
  160.1790  212.7940  146.0240 C   0  0  2  0  0  3  0  0  0  0  0  0
  161.9500  214.2570  149.6540 C   0  0  0  0  0  3  0  0  0  0  0  0
  160.8090  213.3080  147.2790 C   0  0  0  0  0  0  0  0  0  0  0  0
  160.7220  213.5890  149.6940 C   0  0  0  0  0  0  0  0  0  0  0  0
  160.1550  213.1160  148.4990 C   0  0  0  0  0  3  0  0  0  0  0  0
  162.6090  214.4520  148.4380 C   0  0  0  0  0  3  0  0  0  0  0  0
  162.0410  213.9800  147.2510 C   0  0  0  0  0  3  0  0  0  0  0  0
  160.0890  213.4100  150.9270 O   0  0  0  0  0  0  0  0  0  0  0  0
  158.6900  213.5880  151.1050 C   0  0  0  0  0  1  0  0  0  0  0  0
  1 10  1  0  0  0  0
  5 15  1  6  0  0  0
  5 14  1  0  0  0  0
  6  4  1  0  0  0  0
  7  2  1  0  0  0  0
  7  3  2  0  0  0  0
  9  6  2  0  0  0  0
 10  4  2  0  0  0  0
 11  1  2  0  0  0  0
 11  9  1  0  0  0  0
 12  1  1  0  0  0  0
 14 10  1  1  0  0  0
 14  7  1  0  0  0  0
 15 17  1  0  0  0  0
 16 12  1  0  0  0  0
 16  5  1  0  0  0  0
 17 13  1  6  0  0  0
 17  8  1  0  0  0  0
 17  2  1  0  0  0  0
 18 25  1  0  0  0  0
 19 18  2  0  0  0  0
 21  3  1  6  0  0  0
 21 19  1  0  0  0  0
 21 22  1  0  0  0  0
 22 20  1  6  0  0  0
 22 23  1  0  0  0  0
 22 24  1  0  0  0  0
 24 23  1  1  0  0  0
 24 25  1  0  0  0  0
 25 27  1  1  0  0  0
 26 28  1  0  0  0  0
 27 29  1  0  0  0  0
 28 32  1  0  0  0  0
 29 28  2  0  0  0  0
 30 26  2  0  0  0  0
 31 27  2  0  0  0  0
 31 30  1  0  0  0  0
 32 33  1  0  0  0  0
M  END
>  <MODEL>
9

>  <REMARK>
 VINA RESULT:      -2.8      6.010     11.102
  Name = 
  3 active torsions:
  status: ('A' for Active; 'I' for Inactive)
    1  A    between atoms: N_6  and  C_12
    2  A    between atoms: C_8  and  C_23
    3  A    between atoms: C_10  and  O_22
                            x       y       z     vdW  Elec       q    Type
                         _______ _______ _______ _____ _____    ______ ____

>  <TORSDO>
F 3

$$$$
