=
 OpenBabel11042420053D

 42 46  0  0  1  0  0  0  0  0999 V2000
  160.9670  204.0890  150.7690 C   0  0  0  0  0  0  0  0  0  0  0  0
  161.6690  208.3220  153.5560 C   0  0  0  0  0  0  0  0  0  0  0  0
  160.7190  208.2420  150.0460 O   0  0  0  0  0  0  0  0  0  0  0  0
  161.2550  204.6050  153.1230 C   0  0  0  0  0  3  0  0  0  0  0  0
  162.2300  209.0720  154.4000 O   0  0  0  0  0  0  0  0  0  0  0  0
  161.1960  205.9750  152.8450 C   0  0  0  0  0  0  0  0  0  0  0  0
  161.3800  208.7980  152.2240 N   0  0  0  0  0  0  0  0  0  0  0  0
  161.1470  203.6680  152.0930 C   0  0  0  0  0  3  0  0  0  0  0  0
  161.0260  206.4070  151.5150 C   0  0  0  0  0  0  0  0  0  0  0  0
  161.0150  207.8470  151.2080 C   0  0  0  0  0  0  0  0  0  0  0  0
  159.8680  207.0400  154.6390 C   0  0  0  0  0  1  0  0  0  0  0  0
  160.9120  205.4610  150.4880 C   0  0  0  0  0  3  0  0  0  0  0  0
  161.2360  206.9510  153.9870 C   0  0  2  0  0  3  0  0  0  0  0  0
  160.8360  203.1010  149.6820 C   0  0  0  0  0  0  0  0  0  0  0  0
  160.3530  201.9600  149.9200 O   0  0  0  0  0  0  0  0  0  0  0  0
  161.2480  203.4400  148.3530 N   0  0  0  0  0  2  0  0  0  0  0  0
  161.1850  202.4960  147.2500 C   0  0  0  0  0  2  0  0  0  0  0  0
  161.2500  203.2370  145.9270 C   0  0  0  0  0  2  0  0  0  0  0  0
  162.0320  204.5310  146.0910 C   0  0  0  0  0  2  0  0  0  0  0  0
  161.0430  206.6310  146.8630 O   0  0  0  0  0  0  0  0  0  0  0  0
  161.1620  205.6760  145.8810 N   0  0  0  0  0  0  0  0  0  0  0  0
  160.6320  205.8620  144.7660 O   0  0  0  0  0  0  0  0  0  0  0  0
  161.5030  210.2170  151.8480 C   0  0  2  0  0  3  0  0  0  0  0  0
  159.5490  212.0210  151.8890 C   0  0  0  0  0  2  0  0  0  0  0  0
  159.0880  210.7720  152.6330 C   0  0  0  0  0  2  0  0  0  0  0  0
  160.5520  211.1550  152.6170 C   0  0  0  0  0  0  0  0  0  0  0  0
  160.6600  212.1430  156.1580 O   0  0  0  0  0  0  0  0  0  0  0  0
  160.9930  211.6470  153.9160 N   0  0  0  0  0  2  0  0  0  0  0  0
  160.2230  211.5780  155.1210 C   0  0  0  0  0  0  0  0  0  0  0  0
  158.9010  210.8750  155.1660 C   0  0  0  0  0  2  0  0  0  0  0  0
  157.5910  211.6000  157.0220 O   0  0  0  0  0  0  0  0  0  0  0  0
  157.8490  211.7340  155.7960 C   0  0  0  0  0  0  0  0  0  0  0  0
  155.7390  212.5940  154.8300 O   0  0  0  0  0  1  0  0  0  0  0  0
  157.7100  213.7030  154.4830 O   0  0  0  0  0  0  0  0  0  0  0  0
  157.1110  212.7270  155.0030 C   0  0  0  0  0  0  0  0  0  0  0  0
  161.4310  210.4250  150.3400 C   0  0  0  0  0  2  0  0  0  0  0  0
  162.4760  211.4320  149.8980 C   0  0  0  0  0  2  0  0  0  0  0  0
  161.6630  213.6730  147.1070 C   0  0  2  0  0  3  0  0  0  0  0  0
  161.8230  213.0370  145.8760 O   0  0  0  0  0  1  0  0  0  0  0  0
  162.3430  211.6710  148.4100 C   0  0  2  0  0  3  0  0  0  0  0  0
  162.6660  213.1200  148.1040 C   0  0  2  0  0  3  0  0  0  0  0  0
  161.2260  212.6640  148.1540 C   0  0  1  0  0  3  0  0  0  0  0  0
  1  8  1  0  0  0  0
  2 13  1  0  0  0  0
  2  5  2  0  0  0  0
  3 10  2  0  0  0  0
  6  4  1  0  0  0  0
  6 13  1  0  0  0  0
  7  2  1  0  0  0  0
  8  4  2  0  0  0  0
  9  6  2  0  0  0  0
 10  9  1  0  0  0  0
 10  7  1  0  0  0  0
 12  1  2  0  0  0  0
 12  9  1  0  0  0  0
 13 11  1  6  0  0  0
 14 15  2  0  0  0  0
 14  1  1  0  0  0  0
 16 14  1  0  0  0  0
 17 16  1  0  0  0  0
 18 19  1  0  0  0  0
 18 17  1  0  0  0  0
 21 19  1  0  0  0  0
 21 20  2  0  0  0  0
 22 21  2  0  0  0  0
 23 36  1  6  0  0  0
 23  7  1  0  0  0  0
 23 26  1  0  0  0  0
 24 26  1  0  0  0  0
 24 25  1  0  0  0  0
 26 25  1  0  0  0  0
 26 28  1  0  0  0  0
 28 29  1  0  0  0  0
 29 30  1  0  0  0  0
 29 27  2  0  0  0  0
 30 32  1  0  0  0  0
 32 31  2  0  0  0  0
 33 35  1  0  0  0  0
 34 35  2  0  0  0  0
 35 32  1  0  0  0  0
 37 36  1  0  0  0  0
 38 41  1  0  0  0  0
 38 42  1  0  0  0  0
 39 38  1  0  0  0  0
 40 37  1  0  0  0  0
 41 42  1  0  0  0  0
 41 40  1  0  0  0  0
 42 40  1  0  0  0  0
M  END
>  <MODEL>
1

>  <REMARK>
 VINA RESULT:      -6.4      0.000      0.000
  Name = 
  14 active torsions:
  status: ('A' for Active; 'I' for Inactive)
    1  A    between atoms: C_1  and  C_8
    2  A    between atoms: C_5  and  C_7
    3  A    between atoms: C_5  and  N_20
    4  A    between atoms: C_7  and  C_11
    5  A    between atoms: C_11  and  N_40
    6  A    between atoms: C_13  and  C_36
    7  A    between atoms: N_16  and  C_24
    8  A    between atoms: C_23  and  C_28
    9  A    between atoms: C_23  and  C_35
   10  A    between atoms: C_24  and  C_28
   11  A    between atoms: C_24  and  C_41
   12  A    between atoms: C_25  and  C_36
   13  A    between atoms: C_25  and  C_39
   14  A    between atoms: N_32  and  C_41
                            x       y       z     vdW  Elec       q    Type
                         _______ _______ _______ _____ _____    ______ ____

>  <TORSDO>
F 14

$$$$
=
 OpenBabel11042420053D

 42 46  0  0  1  0  0  0  0  0999 V2000
  160.9660  204.0860  150.7240 C   0  0  0  0  0  0  0  0  0  0  0  0
  161.7990  208.4190  153.3140 C   0  0  0  0  0  0  0  0  0  0  0  0
  160.8740  208.2060  149.8030 O   0  0  0  0  0  0  0  0  0  0  0  0
  161.2540  204.7030  153.0540 C   0  0  0  0  0  3  0  0  0  0  0  0
  162.3790  209.1870  154.1270 O   0  0  0  0  0  0  0  0  0  0  0  0
  161.2470  206.0590  152.7100 C   0  0  0  0  0  0  0  0  0  0  0  0
  161.5370  208.8410  151.9580 N   0  0  0  0  0  0  0  0  0  0  0  0
  161.1200  203.7230  152.0680 C   0  0  0  0  0  3  0  0  0  0  0  0
  161.1020  206.4330  151.3600 C   0  0  0  0  0  0  0  0  0  0  0  0
  161.1470  207.8570  150.9850 C   0  0  0  0  0  0  0  0  0  0  0  0
  159.9440  207.2540  154.4390 C   0  0  0  0  0  1  0  0  0  0  0  0
  160.9620  205.4440  150.3770 C   0  0  0  0  0  3  0  0  0  0  0  0
  161.3130  207.0870  153.8050 C   0  0  2  0  0  3  0  0  0  0  0  0
  160.8080  203.0530  149.6830 C   0  0  0  0  0  0  0  0  0  0  0  0
  160.3080  201.9320  149.9770 O   0  0  0  0  0  0  0  0  0  0  0  0
  161.2130  203.3250  148.3370 N   0  0  0  0  0  2  0  0  0  0  0  0
  161.1230  202.3330  147.2780 C   0  0  0  0  0  2  0  0  0  0  0  0
  161.0700  203.0200  145.9250 C   0  0  0  0  0  2  0  0  0  0  0  0
  161.5690  204.4520  146.0470 C   0  0  0  0  0  2  0  0  0  0  0  0
  159.9690  206.1740  145.3680 O   0  0  0  0  0  0  0  0  0  0  0  0
  160.9610  205.2860  145.0240 N   0  0  0  0  0  0  0  0  0  0  0  0
  161.4280  205.2950  143.8660 O   0  0  0  0  0  0  0  0  0  0  0  0
  161.7140  210.2350  151.5170 C   0  0  2  0  0  3  0  0  0  0  0  0
  159.4070  210.6790  152.7630 C   0  0  0  0  0  2  0  0  0  0  0  0
  160.5190  211.4250  153.4960 C   0  0  0  0  0  2  0  0  0  0  0  0
  160.6080  211.1930  152.0020 C   0  0  0  0  0  0  0  0  0  0  0  0
  159.0830  214.1140  150.3690 O   0  0  0  0  0  0  0  0  0  0  0  0
  160.4070  212.4280  151.2540 N   0  0  0  0  0  2  0  0  0  0  0  0
  159.1610  213.1210  151.1390 C   0  0  0  0  0  0  0  0  0  0  0  0
  157.9440  212.6730  151.8900 C   0  0  0  0  0  2  0  0  0  0  0  0
  158.2840  214.2370  153.6570 O   0  0  0  0  0  0  0  0  0  0  0  0
  157.4710  213.7290  152.8400 C   0  0  0  0  0  0  0  0  0  0  0  0
  155.3800  214.3030  154.0330 O   0  0  0  0  0  1  0  0  0  0  0  0
  155.4920  214.4530  151.7530 O   0  0  0  0  0  0  0  0  0  0  0  0
  156.0710  214.1760  152.8350 C   0  0  0  0  0  0  0  0  0  0  0  0
  161.9590  210.3420  150.0170 C   0  0  0  0  0  2  0  0  0  0  0  0
  162.3230  211.7650  149.6420 C   0  0  0  0  0  2  0  0  0  0  0  0
  161.2650  213.5350  146.6060 C   0  0  2  0  0  3  0  0  0  0  0  0
  161.7890  212.9410  145.4570 O   0  0  0  0  0  1  0  0  0  0  0  0
  162.3370  211.8990  148.1350 C   0  0  2  0  0  3  0  0  0  0  0  0
  162.2360  213.3640  147.7600 C   0  0  2  0  0  3  0  0  0  0  0  0
  161.0170  212.4760  147.6650 C   0  0  1  0  0  3  0  0  0  0  0  0
  1  8  1  0  0  0  0
  2 13  1  0  0  0  0
  2  5  2  0  0  0  0
  3 10  2  0  0  0  0
  6  4  1  0  0  0  0
  6 13  1  0  0  0  0
  7  2  1  0  0  0  0
  8  4  2  0  0  0  0
  9  6  2  0  0  0  0
 10  9  1  0  0  0  0
 10  7  1  0  0  0  0
 12  1  2  0  0  0  0
 12  9  1  0  0  0  0
 13 11  1  6  0  0  0
 14 15  2  0  0  0  0
 14  1  1  0  0  0  0
 16 14  1  0  0  0  0
 17 16  1  0  0  0  0
 18 19  1  0  0  0  0
 18 17  1  0  0  0  0
 21 20  2  0  0  0  0
 21 19  1  0  0  0  0
 22 21  2  0  0  0  0
 23 36  1  6  0  0  0
 23  7  1  0  0  0  0
 23 26  1  0  0  0  0
 24 25  1  0  0  0  0
 26 24  1  0  0  0  0
 26 25  1  0  0  0  0
 27 29  2  0  0  0  0
 28 26  1  0  0  0  0
 29 28  1  0  0  0  0
 29 30  1  0  0  0  0
 30 32  1  0  0  0  0
 32 31  2  0  0  0  0
 34 35  2  0  0  0  0
 35 32  1  0  0  0  0
 35 33  1  0  0  0  0
 37 36  1  0  0  0  0
 38 42  1  0  0  0  0
 38 41  1  0  0  0  0
 39 38  1  0  0  0  0
 40 37  1  0  0  0  0
 41 40  1  0  0  0  0
 42 41  1  0  0  0  0
 42 40  1  0  0  0  0
M  END
>  <MODEL>
2

>  <REMARK>
 VINA RESULT:      -6.2      1.425      1.915
  Name = 
  14 active torsions:
  status: ('A' for Active; 'I' for Inactive)
    1  A    between atoms: C_1  and  C_8
    2  A    between atoms: C_5  and  C_7
    3  A    between atoms: C_5  and  N_20
    4  A    between atoms: C_7  and  C_11
    5  A    between atoms: C_11  and  N_40
    6  A    between atoms: C_13  and  C_36
    7  A    between atoms: N_16  and  C_24
    8  A    between atoms: C_23  and  C_28
    9  A    between atoms: C_23  and  C_35
   10  A    between atoms: C_24  and  C_28
   11  A    between atoms: C_24  and  C_41
   12  A    between atoms: C_25  and  C_36
   13  A    between atoms: C_25  and  C_39
   14  A    between atoms: N_32  and  C_41
                            x       y       z     vdW  Elec       q    Type
                         _______ _______ _______ _____ _____    ______ ____

>  <TORSDO>
F 14

$$$$
=
 OpenBabel11042420053D

 42 46  0  0  1  0  0  0  0  0999 V2000
  160.8860  203.1170  150.2720 C   0  0  0  0  0  0  0  0  0  0  0  0
  161.8320  207.6640  152.4190 C   0  0  0  0  0  0  0  0  0  0  0  0
  160.2220  207.1470  149.1980 O   0  0  0  0  0  0  0  0  0  0  0  0
  161.5920  203.9070  152.4550 C   0  0  0  0  0  3  0  0  0  0  0  0
  162.4950  208.5280  153.0530 O   0  0  0  0  0  0  0  0  0  0  0  0
  161.3880  205.2330  152.0580 C   0  0  0  0  0  0  0  0  0  0  0  0
  161.2570  207.9740  151.1310 N   0  0  0  0  0  0  0  0  0  0  0  0
  161.3480  202.8560  151.5680 C   0  0  0  0  0  3  0  0  0  0  0  0
  160.9330  205.5040  150.7530 C   0  0  0  0  0  0  0  0  0  0  0  0
  160.7660  206.8990  150.3110 C   0  0  0  0  0  0  0  0  0  0  0  0
  160.3680  206.4300  153.9660 C   0  0  0  0  0  1  0  0  0  0  0  0
  160.6840  204.4450  149.8700 C   0  0  0  0  0  3  0  0  0  0  0  0
  161.5850  206.3320  153.0640 C   0  0  2  0  0  3  0  0  0  0  0  0
  160.6110  202.0090  149.3380 C   0  0  0  0  0  0  0  0  0  0  0  0
  160.0720  200.9490  149.7580 O   0  0  0  0  0  0  0  0  0  0  0  0
  160.9490  202.1390  147.9530 N   0  0  0  0  0  2  0  0  0  0  0  0
  160.7440  201.0660  146.9940 C   0  0  0  0  0  2  0  0  0  0  0  0
  160.6040  201.6400  145.5950 C   0  0  0  0  0  2  0  0  0  0  0  0
  161.2670  203.0060  145.5210 C   0  0  0  0  0  2  0  0  0  0  0  0
  160.9940  205.1350  144.3490 O   0  0  0  0  0  0  0  0  0  0  0  0
  160.4900  203.9000  144.6790 N   0  0  0  0  0  0  0  0  0  0  0  0
  159.4330  203.4980  144.1490 O   0  0  0  0  0  0  0  0  0  0  0  0
  161.2080  209.3460  150.5970 C   0  0  2  0  0  3  0  0  0  0  0  0
  162.9010  208.4440  148.7560 C   0  0  0  0  0  2  0  0  0  0  0  0
  161.6710  209.0190  148.0600 C   0  0  0  0  0  2  0  0  0  0  0  0
  162.1330  209.5830  149.3880 C   0  0  0  0  0  0  0  0  0  0  0  0
  162.8120  213.0290  148.2960 O   0  0  0  0  0  0  0  0  0  0  0  0
  162.7180  210.9090  149.2340 N   0  0  0  0  0  2  0  0  0  0  0  0
  162.1550  211.9660  148.4500 C   0  0  0  0  0  0  0  0  0  0  0  0
  160.8190  211.8220  147.7860 C   0  0  0  0  0  2  0  0  0  0  0  0
  159.9960  213.9980  147.2650 O   0  0  0  0  0  0  0  0  0  0  0  0
  160.5560  212.9520  146.8410 C   0  0  0  0  0  0  0  0  0  0  0  0
  162.1550  213.3720  144.9990 O   0  0  0  0  0  1  0  0  0  0  0  0
  160.1730  212.3030  144.5930 O   0  0  0  0  0  0  0  0  0  0  0  0
  160.9380  212.8560  145.4260 C   0  0  0  0  0  0  0  0  0  0  0  0
  161.3920  210.3970  151.6850 C   0  0  0  0  0  2  0  0  0  0  0  0
  160.0510  210.9870  152.0790 C   0  0  0  0  0  2  0  0  0  0  0  0
  159.5310  211.9050  155.5940 C   0  0  2  0  0  3  0  0  0  0  0  0
  159.2120  210.7920  156.3730 O   0  0  0  0  0  1  0  0  0  0  0  0
  159.7260  210.5840  153.5010 C   0  0  2  0  0  3  0  0  0  0  0  0
  158.9910  211.7180  154.1880 C   0  0  2  0  0  3  0  0  0  0  0  0
  160.4600  211.4930  154.4660 C   0  0  1  0  0  3  0  0  0  0  0  0
  1  8  1  0  0  0  0
  2  5  2  0  0  0  0
  2 13  1  0  0  0  0
  3 10  2  0  0  0  0
  6  4  1  0  0  0  0
  6 13  1  0  0  0  0
  7  2  1  0  0  0  0
  8  4  2  0  0  0  0
  9  6  2  0  0  0  0
 10  9  1  0  0  0  0
 10  7  1  0  0  0  0
 12  1  2  0  0  0  0
 12  9  1  0  0  0  0
 13 11  1  6  0  0  0
 14 15  2  0  0  0  0
 14  1  1  0  0  0  0
 16 14  1  0  0  0  0
 17 16  1  0  0  0  0
 18 17  1  0  0  0  0
 19 18  1  0  0  0  0
 20 21  2  0  0  0  0
 21 19  1  0  0  0  0
 22 21  2  0  0  0  0
 23  7  1  0  0  0  0
 23 36  1  1  0  0  0
 24 26  1  0  0  0  0
 25 24  1  0  0  0  0
 25 26  1  0  0  0  0
 26 23  1  0  0  0  0
 27 29  2  0  0  0  0
 28 26  1  0  0  0  0
 29 28  1  0  0  0  0
 30 29  1  0  0  0  0
 32 31  2  0  0  0  0
 32 30  1  0  0  0  0
 33 35  1  0  0  0  0
 34 35  2  0  0  0  0
 35 32  1  0  0  0  0
 36 37  1  0  0  0  0
 37 40  1  0  0  0  0
 38 39  1  0  0  0  0
 40 41  1  0  0  0  0
 40 42  1  0  0  0  0
 41 42  1  0  0  0  0
 41 38  1  0  0  0  0
 42 38  1  0  0  0  0
M  END
>  <MODEL>
3

>  <REMARK>
 VINA RESULT:      -5.7      1.700      5.400
  Name = 
  14 active torsions:
  status: ('A' for Active; 'I' for Inactive)
    1  A    between atoms: C_1  and  C_8
    2  A    between atoms: C_5  and  C_7
    3  A    between atoms: C_5  and  N_20
    4  A    between atoms: C_7  and  C_11
    5  A    between atoms: C_11  and  N_40
    6  A    between atoms: C_13  and  C_36
    7  A    between atoms: N_16  and  C_24
    8  A    between atoms: C_23  and  C_28
    9  A    between atoms: C_23  and  C_35
   10  A    between atoms: C_24  and  C_28
   11  A    between atoms: C_24  and  C_41
   12  A    between atoms: C_25  and  C_36
   13  A    between atoms: C_25  and  C_39
   14  A    between atoms: N_32  and  C_41
                            x       y       z     vdW  Elec       q    Type
                         _______ _______ _______ _____ _____    ______ ____

>  <TORSDO>
F 14

$$$$
=
 OpenBabel11042420053D

 42 46  0  0  1  0  0  0  0  0999 V2000
  161.1520  204.9040  146.1370 C   0  0  0  0  0  0  0  0  0  0  0  0
  162.2120  206.4860  150.8860 C   0  0  0  0  0  0  0  0  0  0  0  0
  161.0620  208.6070  148.1640 O   0  0  0  0  0  0  0  0  0  0  0  0
  161.5970  203.8440  148.2750 C   0  0  0  0  0  3  0  0  0  0  0  0
  162.8540  206.5470  151.9690 O   0  0  0  0  0  0  0  0  0  0  0  0
  161.5880  205.0910  148.9110 C   0  0  0  0  0  0  0  0  0  0  0  0
  161.8710  207.6880  150.1610 N   0  0  0  0  0  0  0  0  0  0  0  0
  161.3860  203.7510  146.8970 C   0  0  0  0  0  3  0  0  0  0  0  0
  161.3640  206.2550  148.1520 C   0  0  0  0  0  0  0  0  0  0  0  0
  161.4050  207.5750  148.8060 C   0  0  0  0  0  0  0  0  0  0  0  0
  160.4160  204.8120  151.0700 C   0  0  0  0  0  1  0  0  0  0  0  0
  161.1470  206.1540  146.7710 C   0  0  0  0  0  3  0  0  0  0  0  0
  161.7390  205.1460  150.4050 C   0  0  2  0  0  3  0  0  0  0  0  0
  160.9130  204.8060  144.6850 C   0  0  0  0  0  0  0  0  0  0  0  0
  160.1660  203.8990  144.2280 O   0  0  0  0  0  0  0  0  0  0  0  0
  161.5220  205.7470  143.7940 N   0  0  0  0  0  2  0  0  0  0  0  0
  161.3600  205.6760  142.3510 C   0  0  0  0  0  2  0  0  0  0  0  0
  162.2910  206.6670  141.6750 C   0  0  0  0  0  2  0  0  0  0  0  0
  162.2730  206.4550  140.1690 C   0  0  0  0  0  2  0  0  0  0  0  0
  161.7710  208.8490  140.1510 O   0  0  0  0  0  0  0  0  0  0  0  0
  161.7610  207.6390  139.4990 N   0  0  0  0  0  0  0  0  0  0  0  0
  161.4400  207.5850  138.2940 O   0  0  0  0  0  0  0  0  0  0  0  0
  162.0390  209.0330  150.7380 C   0  0  2  0  0  3  0  0  0  0  0  0
  161.8470  210.2760  153.0810 C   0  0  0  0  0  2  0  0  0  0  0  0
  160.5460  210.4680  152.3090 C   0  0  0  0  0  2  0  0  0  0  0  0
  161.3720  209.2140  152.1150 C   0  0  0  0  0  0  0  0  0  0  0  0
  160.2820  206.6230  154.4870 O   0  0  0  0  0  0  0  0  0  0  0  0
  160.7310  208.0510  152.7140 N   0  0  0  0  0  2  0  0  0  0  0  0
  160.7750  207.7170  154.1050 C   0  0  0  0  0  0  0  0  0  0  0  0
  161.4200  208.6250  155.1080 C   0  0  0  0  0  2  0  0  0  0  0  0
  160.2130  208.4000  157.1520 O   0  0  0  0  0  0  0  0  0  0  0  0
  160.4320  209.1000  156.1270 C   0  0  0  0  0  0  0  0  0  0  0  0
  160.3810  211.5740  156.1010 O   0  0  0  0  0  1  0  0  0  0  0  0
  158.4900  210.3710  155.6430 O   0  0  0  0  0  0  0  0  0  0  0  0
  159.7110  210.3670  155.9450 C   0  0  0  0  0  0  0  0  0  0  0  0
  161.6590  210.1350  149.7580 C   0  0  0  0  0  2  0  0  0  0  0  0
  162.7950  211.1290  149.6160 C   0  0  0  0  0  2  0  0  0  0  0  0
  161.5350  213.4860  147.1010 C   0  0  2  0  0  3  0  0  0  0  0  0
  162.1650  213.3070  145.8690 O   0  0  0  0  0  1  0  0  0  0  0  0
  162.8170  211.6670  148.2020 C   0  0  2  0  0  3  0  0  0  0  0  0
  162.4990  213.1490  148.2240 C   0  0  2  0  0  3  0  0  0  0  0  0
  161.4330  212.1550  147.8240 C   0  0  1  0  0  3  0  0  0  0  0  0
  1 12  2  0  0  0  0
  1  8  1  0  0  0  0
  2  5  2  0  0  0  0
  3 10  2  0  0  0  0
  4  6  1  0  0  0  0
  6 13  1  0  0  0  0
  7 23  1  0  0  0  0
  7  2  1  0  0  0  0
  8  4  2  0  0  0  0
  9 10  1  0  0  0  0
  9  6  2  0  0  0  0
 10  7  1  0  0  0  0
 12  9  1  0  0  0  0
 13  2  1  0  0  0  0
 13 11  1  1  0  0  0
 14  1  1  0  0  0  0
 15 14  2  0  0  0  0
 16 14  1  0  0  0  0
 17 16  1  0  0  0  0
 18 17  1  0  0  0  0
 19 18  1  0  0  0  0
 21 20  2  0  0  0  0
 21 19  1  0  0  0  0
 22 21  2  0  0  0  0
 23 36  1  6  0  0  0
 23 26  1  0  0  0  0
 25 24  1  0  0  0  0
 26 25  1  0  0  0  0
 26 28  1  0  0  0  0
 26 24  1  0  0  0  0
 28 29  1  0  0  0  0
 29 27  2  0  0  0  0
 29 30  1  0  0  0  0
 30 32  1  0  0  0  0
 32 31  2  0  0  0  0
 34 35  2  0  0  0  0
 35 33  1  0  0  0  0
 35 32  1  0  0  0  0
 37 36  1  0  0  0  0
 38 42  1  0  0  0  0
 38 41  1  0  0  0  0
 39 38  1  0  0  0  0
 40 41  1  0  0  0  0
 40 37  1  0  0  0  0
 42 40  1  0  0  0  0
 42 41  1  0  0  0  0
M  END
>  <MODEL>
4

>  <REMARK>
 VINA RESULT:      -5.3      2.708      4.089
  Name = 
  14 active torsions:
  status: ('A' for Active; 'I' for Inactive)
    1  A    between atoms: C_1  and  C_8
    2  A    between atoms: C_5  and  C_7
    3  A    between atoms: C_5  and  N_20
    4  A    between atoms: C_7  and  C_11
    5  A    between atoms: C_11  and  N_40
    6  A    between atoms: C_13  and  C_36
    7  A    between atoms: N_16  and  C_24
    8  A    between atoms: C_23  and  C_28
    9  A    between atoms: C_23  and  C_35
   10  A    between atoms: C_24  and  C_28
   11  A    between atoms: C_24  and  C_41
   12  A    between atoms: C_25  and  C_36
   13  A    between atoms: C_25  and  C_39
   14  A    between atoms: N_32  and  C_41
                            x       y       z     vdW  Elec       q    Type
                         _______ _______ _______ _____ _____    ______ ____

>  <TORSDO>
F 14

$$$$
=
 OpenBabel11042420053D

 42 46  0  0  1  0  0  0  0  0999 V2000
  160.6300  208.9010  155.1170 C   0  0  0  0  0  0  0  0  0  0  0  0
  161.0580  206.2340  150.7720 C   0  0  0  0  0  0  0  0  0  0  0  0
  161.4620  209.8360  151.0840 O   0  0  0  0  0  0  0  0  0  0  0  0
  160.7770  206.5550  154.5120 C   0  0  0  0  0  3  0  0  0  0  0  0
  160.7600  205.3540  149.9200 O   0  0  0  0  0  0  0  0  0  0  0  0
  161.0230  206.8990  153.1790 C   0  0  0  0  0  0  0  0  0  0  0  0
  161.2260  207.6140  150.3790 N   0  0  0  0  0  0  0  0  0  0  0  0
  160.5760  207.5480  155.4740 C   0  0  0  0  0  3  0  0  0  0  0  0
  161.0690  208.2570  152.8100 C   0  0  0  0  0  0  0  0  0  0  0  0
  161.2750  208.6270  151.3990 C   0  0  0  0  0  0  0  0  0  0  0  0
  162.7570  205.3580  152.3230 C   0  0  0  0  0  1  0  0  0  0  0  0
  160.8720  209.2480  153.7810 C   0  0  0  0  0  3  0  0  0  0  0  0
  161.3130  205.8080  152.1880 C   0  0  2  0  0  3  0  0  0  0  0  0
  160.4340  209.9510  156.1340 C   0  0  0  0  0  0  0  0  0  0  0  0
  159.9490  209.6560  157.2610 O   0  0  0  0  0  0  0  0  0  0  0  0
  160.8040  211.3040  155.8470 N   0  0  0  0  0  2  0  0  0  0  0  0
  160.5950  212.3890  156.7910 C   0  0  0  0  0  2  0  0  0  0  0  0
  159.7920  213.4990  156.1370 C   0  0  0  0  0  2  0  0  0  0  0  0
  159.1100  212.9810  154.8810 C   0  0  0  0  0  2  0  0  0  0  0  0
  156.8970  213.7530  155.5810 O   0  0  0  0  0  0  0  0  0  0  0  0
  157.7020  212.7300  155.1380 N   0  0  0  0  0  0  0  0  0  0  0  0
  157.1970  211.6300  154.8310 O   0  0  0  0  0  0  0  0  0  0  0  0
  161.2900  208.0310  148.9680 C   0  0  2  0  0  3  0  0  0  0  0  0
  160.1080  205.9540  147.8010 C   0  0  0  0  0  2  0  0  0  0  0  0
  160.4300  207.0030  146.7410 C   0  0  0  0  0  2  0  0  0  0  0  0
  161.3070  206.8600  147.9660 C   0  0  0  0  0  0  0  0  0  0  0  0
  163.9420  204.6200  146.7140 O   0  0  0  0  0  0  0  0  0  0  0  0
  162.5990  206.2730  147.6360 N   0  0  0  0  0  2  0  0  0  0  0  0
  162.7850  205.1020  146.8330 C   0  0  0  0  0  0  0  0  0  0  0  0
  161.6300  204.4250  146.1580 C   0  0  0  0  0  2  0  0  0  0  0  0
  161.5530  202.9270  148.0120 O   0  0  0  0  0  0  0  0  0  0  0  0
  161.3410  203.0950  146.7810 C   0  0  0  0  0  0  0  0  0  0  0  0
  160.0380  202.2440  144.8570 O   0  0  0  0  0  0  0  0  0  0  0  0
  161.0750  200.7910  146.2880 O   0  0  0  0  0  1  0  0  0  0  0  0
  160.8170  201.9830  145.9760 C   0  0  0  0  0  0  0  0  0  0  0  0
  162.4080  209.0340  148.7100 C   0  0  0  0  0  2  0  0  0  0  0  0
  161.9460  210.0970  147.7320 C   0  0  0  0  0  2  0  0  0  0  0  0
  162.3850  213.7370  147.5830 C   0  0  2  0  0  3  0  0  0  0  0  0
  162.1610  214.3320  148.8250 O   0  0  0  0  0  1  0  0  0  0  0  0
  161.9390  211.4430  148.4210 C   0  0  2  0  0  3  0  0  0  0  0  0
  161.5050  212.5100  147.4360 C   0  0  2  0  0  3  0  0  0  0  0  0
  162.9690  212.3490  147.7750 C   0  0  1  0  0  3  0  0  0  0  0  0
  1  8  1  0  0  0  0
  1 14  1  0  0  0  0
  2 13  1  0  0  0  0
  3 10  2  0  0  0  0
  4  8  2  0  0  0  0
  5  2  2  0  0  0  0
  6  4  1  0  0  0  0
  7  2  1  0  0  0  0
  7 10  1  0  0  0  0
  9  6  2  0  0  0  0
  9 12  1  0  0  0  0
 10  9  1  0  0  0  0
 12  1  2  0  0  0  0
 13 11  1  6  0  0  0
 13  6  1  0  0  0  0
 14 15  2  0  0  0  0
 16 14  1  0  0  0  0
 16 17  1  0  0  0  0
 18 17  1  0  0  0  0
 19 21  1  0  0  0  0
 19 18  1  0  0  0  0
 21 20  2  0  0  0  0
 22 21  2  0  0  0  0
 23 36  1  1  0  0  0
 23  7  1  0  0  0  0
 24 26  1  0  0  0  0
 25 24  1  0  0  0  0
 25 26  1  0  0  0  0
 26 23  1  0  0  0  0
 27 29  2  0  0  0  0
 28 26  1  0  0  0  0
 29 28  1  0  0  0  0
 30 32  1  0  0  0  0
 30 29  1  0  0  0  0
 32 31  2  0  0  0  0
 33 35  2  0  0  0  0
 35 34  1  0  0  0  0
 35 32  1  0  0  0  0
 37 40  1  0  0  0  0
 37 36  1  0  0  0  0
 38 42  1  0  0  0  0
 38 39  1  0  0  0  0
 41 38  1  0  0  0  0
 41 42  1  0  0  0  0
 41 40  1  0  0  0  0
 42 40  1  0  0  0  0
M  END
>  <MODEL>
5

>  <REMARK>
 VINA RESULT:      -4.7      2.103      8.708
  Name = 
  14 active torsions:
  status: ('A' for Active; 'I' for Inactive)
    1  A    between atoms: C_1  and  C_8
    2  A    between atoms: C_5  and  C_7
    3  A    between atoms: C_5  and  N_20
    4  A    between atoms: C_7  and  C_11
    5  A    between atoms: C_11  and  N_40
    6  A    between atoms: C_13  and  C_36
    7  A    between atoms: N_16  and  C_24
    8  A    between atoms: C_23  and  C_28
    9  A    between atoms: C_23  and  C_35
   10  A    between atoms: C_24  and  C_28
   11  A    between atoms: C_24  and  C_41
   12  A    between atoms: C_25  and  C_36
   13  A    between atoms: C_25  and  C_39
   14  A    between atoms: N_32  and  C_41
                            x       y       z     vdW  Elec       q    Type
                         _______ _______ _______ _____ _____    ______ ____

>  <TORSDO>
F 14

$$$$
=
 OpenBabel11042420053D

 42 46  0  0  1  0  0  0  0  0999 V2000
  161.2910  213.1990  146.8240 C   0  0  0  0  0  0  0  0  0  0  0  0
  159.9260  211.5200  151.4600 C   0  0  0  0  0  0  0  0  0  0  0  0
  162.9370  210.5460  149.6660 O   0  0  0  0  0  0  0  0  0  0  0  0
  159.6260  213.8050  148.4830 C   0  0  0  0  0  3  0  0  0  0  0  0
  159.1430  211.1020  152.3550 O   0  0  0  0  0  0  0  0  0  0  0  0
  160.1800  212.8960  149.3910 C   0  0  0  0  0  0  0  0  0  0  0  0
  161.1390  210.8020  151.1470 N   0  0  0  0  0  0  0  0  0  0  0  0
  160.1740  213.9520  147.2070 C   0  0  0  0  0  3  0  0  0  0  0  0
  161.2970  212.1280  149.0110 C   0  0  0  0  0  0  0  0  0  0  0  0
  161.8530  211.1310  149.9430 C   0  0  0  0  0  0  0  0  0  0  0  0
  160.1540  213.9660  151.6200 C   0  0  0  0  0  1  0  0  0  0  0  0
  161.8450  212.2850  147.7310 C   0  0  0  0  0  3  0  0  0  0  0  0
  159.6140  212.8220  150.7820 C   0  0  2  0  0  3  0  0  0  0  0  0
  161.8810  213.3650  145.4820 C   0  0  0  0  0  0  0  0  0  0  0  0
  163.1140  213.5980  145.3600 O   0  0  0  0  0  0  0  0  0  0  0  0
  161.0550  213.2520  144.3180 N   0  0  0  0  0  2  0  0  0  0  0  0
  161.5690  213.4490  142.9730 C   0  0  0  0  0  2  0  0  0  0  0  0
  162.0480  212.1270  142.4000 C   0  0  0  0  0  2  0  0  0  0  0  0
  160.9240  211.4540  141.6290 C   0  0  0  0  0  2  0  0  0  0  0  0
  160.6200  210.2810  139.5040 O   0  0  0  0  0  0  0  0  0  0  0  0
  161.4610  210.7030  140.5060 N   0  0  0  0  0  0  0  0  0  0  0  0
  162.6940  210.5580  140.3840 O   0  0  0  0  0  0  0  0  0  0  0  0
  161.6430  209.6990  151.9850 C   0  0  2  0  0  3  0  0  0  0  0  0
  162.4620  207.1800  151.7550 C   0  0  0  0  0  2  0  0  0  0  0  0
  160.9870  207.1890  152.1470 C   0  0  0  0  0  2  0  0  0  0  0  0
  161.5640  208.3140  151.3140 C   0  0  0  0  0  0  0  0  0  0  0  0
  160.9790  207.2840  147.8320 O   0  0  0  0  0  0  0  0  0  0  0  0
  161.0950  208.2560  149.9360 N   0  0  0  0  0  2  0  0  0  0  0  0
  161.3330  207.1690  149.0350 C   0  0  0  0  0  0  0  0  0  0  0  0
  162.0190  205.9150  149.4860 C   0  0  0  0  0  2  0  0  0  0  0  0
  160.2800  204.3560  149.9680 O   0  0  0  0  0  0  0  0  0  0  0  0
  161.1960  204.7040  149.1760 C   0  0  0  0  0  0  0  0  0  0  0  0
  162.3980  204.3350  147.0440 O   0  0  0  0  0  0  0  0  0  0  0  0
  160.8120  202.8460  147.7530 O   0  0  0  0  0  1  0  0  0  0  0  0
  161.4470  203.9120  147.9640 C   0  0  0  0  0  0  0  0  0  0  0  0
  161.0310  209.7060  153.3800 C   0  0  0  0  0  2  0  0  0  0  0  0
  161.7990  210.6470  154.2870 C   0  0  0  0  0  2  0  0  0  0  0  0
  159.5960  211.0800  157.1900 C   0  0  2  0  0  3  0  0  0  0  0  0
  158.9660  212.3250  157.1750 O   0  0  0  0  0  1  0  0  0  0  0  0
  160.8220  211.4950  155.0720 C   0  0  2  0  0  3  0  0  0  0  0  0
  160.9670  211.1910  156.5500 C   0  0  2  0  0  3  0  0  0  0  0  0
  159.8170  210.5980  155.7680 C   0  0  1  0  0  3  0  0  0  0  0  0
  1  8  2  0  0  0  0
  1 12  1  0  0  0  0
  2  5  2  0  0  0  0
  3 10  2  0  0  0  0
  4  6  2  0  0  0  0
  6 13  1  0  0  0  0
  7  2  1  0  0  0  0
  7 23  1  0  0  0  0
  8  4  1  0  0  0  0
  9  6  1  0  0  0  0
  9 10  1  0  0  0  0
 10  7  1  0  0  0  0
 12  9  2  0  0  0  0
 13  2  1  0  0  0  0
 13 11  1  1  0  0  0
 14  1  1  0  0  0  0
 15 14  2  0  0  0  0
 16 14  1  0  0  0  0
 17 16  1  0  0  0  0
 18 17  1  0  0  0  0
 19 18  1  0  0  0  0
 20 21  2  0  0  0  0
 21 19  1  0  0  0  0
 22 21  2  0  0  0  0
 23 36  1  1  0  0  0
 24 25  1  0  0  0  0
 26 24  1  0  0  0  0
 26 23  1  0  0  0  0
 26 25  1  0  0  0  0
 27 29  2  0  0  0  0
 28 26  1  0  0  0  0
 29 30  1  0  0  0  0
 29 28  1  0  0  0  0
 32 30  1  0  0  0  0
 32 31  2  0  0  0  0
 33 35  2  0  0  0  0
 34 35  1  0  0  0  0
 35 32  1  0  0  0  0
 36 37  1  0  0  0  0
 37 40  1  0  0  0  0
 39 38  1  0  0  0  0
 40 42  1  0  0  0  0
 40 41  1  0  0  0  0
 41 38  1  0  0  0  0
 42 41  1  0  0  0  0
 42 38  1  0  0  0  0
M  END
>  <MODEL>
6

>  <REMARK>
 VINA RESULT:      -4.4      3.042      8.462
  Name = 
  14 active torsions:
  status: ('A' for Active; 'I' for Inactive)
    1  A    between atoms: C_1  and  C_8
    2  A    between atoms: C_5  and  C_7
    3  A    between atoms: C_5  and  N_20
    4  A    between atoms: C_7  and  C_11
    5  A    between atoms: C_11  and  N_40
    6  A    between atoms: C_13  and  C_36
    7  A    between atoms: N_16  and  C_24
    8  A    between atoms: C_23  and  C_28
    9  A    between atoms: C_23  and  C_35
   10  A    between atoms: C_24  and  C_28
   11  A    between atoms: C_24  and  C_41
   12  A    between atoms: C_25  and  C_36
   13  A    between atoms: C_25  and  C_39
   14  A    between atoms: N_32  and  C_41
                            x       y       z     vdW  Elec       q    Type
                         _______ _______ _______ _____ _____    ______ ____

>  <TORSDO>
F 14

$$$$
=
 OpenBabel11042420053D

 42 46  0  0  1  0  0  0  0  0999 V2000
  160.6990  209.7140  154.2560 C   0  0  0  0  0  0  0  0  0  0  0  0
  162.6370  208.0670  149.8160 C   0  0  0  0  0  0  0  0  0  0  0  0
  159.9560  206.4560  151.6730 O   0  0  0  0  0  0  0  0  0  0  0  0
  162.1860  210.6070  152.5580 C   0  0  0  0  0  3  0  0  0  0  0  0
  163.5360  207.8060  148.9720 O   0  0  0  0  0  0  0  0  0  0  0  0
  161.9390  209.5000  151.7390 C   0  0  0  0  0  0  0  0  0  0  0  0
  161.6620  207.0690  150.1890 N   0  0  0  0  0  0  0  0  0  0  0  0
  161.5750  210.7110  153.8100 C   0  0  0  0  0  3  0  0  0  0  0  0
  161.0670  208.4880  152.1840 C   0  0  0  0  0  0  0  0  0  0  0  0
  160.8440  207.2940  151.3490 C   0  0  0  0  0  0  0  0  0  0  0  0
  161.7430  210.3260  149.4160 C   0  0  0  0  0  1  0  0  0  0  0  0
  160.4530  208.6020  153.4380 C   0  0  0  0  0  3  0  0  0  0  0  0
  162.5510  209.4600  150.3670 C   0  0  2  0  0  3  0  0  0  0  0  0
  160.0410  209.8290  155.5700 C   0  0  0  0  0  0  0  0  0  0  0  0
  159.9520  208.8210  156.3230 O   0  0  0  0  0  0  0  0  0  0  0  0
  159.5100  211.0890  155.9970 N   0  0  0  0  0  2  0  0  0  0  0  0
  158.8110  211.2560  157.2610 C   0  0  0  0  0  2  0  0  0  0  0  0
  157.8410  212.4200  157.1690 C   0  0  0  0  0  2  0  0  0  0  0  0
  157.6230  212.8040  155.7140 C   0  0  0  0  0  2  0  0  0  0  0  0
  155.2820  213.5150  155.6740 O   0  0  0  0  0  0  0  0  0  0  0  0
  156.2370  212.5840  155.3370 N   0  0  0  0  0  0  0  0  0  0  0  0
  155.9350  211.6250  154.5970 O   0  0  0  0  0  0  0  0  0  0  0  0
  161.5140  205.7980  149.4590 C   0  0  2  0  0  3  0  0  0  0  0  0
  160.0780  205.7850  147.2210 C   0  0  0  0  0  2  0  0  0  0  0  0
  160.6570  207.1810  147.4310 C   0  0  0  0  0  2  0  0  0  0  0  0
  161.4020  205.9600  147.9310 C   0  0  0  0  0  0  0  0  0  0  0  0
  163.9020  204.3620  145.7580 O   0  0  0  0  0  0  0  0  0  0  0  0
  162.5920  205.6940  147.1330 N   0  0  0  0  0  2  0  0  0  0  0  0
  162.7840  204.5410  146.3080 C   0  0  0  0  0  0  0  0  0  0  0  0
  161.6950  203.5300  146.1110 C   0  0  0  0  0  2  0  0  0  0  0  0
  161.2490  204.7670  144.1220 O   0  0  0  0  0  0  0  0  0  0  0  0
  160.8980  203.8220  144.8790 C   0  0  0  0  0  0  0  0  0  0  0  0
  159.6870  201.6650  144.8120 O   0  0  0  0  0  1  0  0  0  0  0  0
  158.7020  203.5720  144.0200 O   0  0  0  0  0  0  0  0  0  0  0  0
  159.7080  203.0270  144.5440 C   0  0  0  0  0  0  0  0  0  0  0  0
  160.4060  204.9250  150.0340 C   0  0  0  0  0  2  0  0  0  0  0  0
  160.9310  203.5340  150.3290 C   0  0  0  0  0  2  0  0  0  0  0  0
  161.5500  200.3590  148.5960 C   0  0  2  0  0  3  0  0  0  0  0  0
  161.0970  200.3980  147.2770 O   0  0  0  0  0  1  0  0  0  0  0  0
  160.8380  202.6880  149.0790 C   0  0  2  0  0  3  0  0  0  0  0  0
  160.6680  201.2330  149.4680 C   0  0  2  0  0  3  0  0  0  0  0  0
  162.0190  201.7390  149.0190 C   0  0  1  0  0  3  0  0  0  0  0  0
  1 14  1  0  0  0  0
  2  7  1  0  0  0  0
  2 13  1  0  0  0  0
  4  8  2  0  0  0  0
  5  2  2  0  0  0  0
  6  9  2  0  0  0  0
  6  4  1  0  0  0  0
  7 10  1  0  0  0  0
  8  1  1  0  0  0  0
  9 12  1  0  0  0  0
 10  3  2  0  0  0  0
 10  9  1  0  0  0  0
 12  1  2  0  0  0  0
 13 11  1  6  0  0  0
 13  6  1  0  0  0  0
 14 16  1  0  0  0  0
 14 15  2  0  0  0  0
 16 17  1  0  0  0  0
 18 17  1  0  0  0  0
 19 18  1  0  0  0  0
 21 20  2  0  0  0  0
 21 19  1  0  0  0  0
 22 21  2  0  0  0  0
 23 36  1  1  0  0  0
 23  7  1  0  0  0  0
 24 25  1  0  0  0  0
 24 26  1  0  0  0  0
 25 26  1  0  0  0  0
 26 23  1  0  0  0  0
 27 29  2  0  0  0  0
 28 26  1  0  0  0  0
 29 28  1  0  0  0  0
 30 29  1  0  0  0  0
 31 32  2  0  0  0  0
 32 30  1  0  0  0  0
 34 35  2  0  0  0  0
 35 33  1  0  0  0  0
 35 32  1  0  0  0  0
 36 37  1  0  0  0  0
 38 42  1  0  0  0  0
 38 41  1  0  0  0  0
 39 38  1  0  0  0  0
 40 41  1  0  0  0  0
 40 37  1  0  0  0  0
 42 40  1  0  0  0  0
 42 41  1  0  0  0  0
M  END
>  <MODEL>
7

>  <REMARK>
 VINA RESULT:      -4.0      2.353     10.031
  Name = 
  14 active torsions:
  status: ('A' for Active; 'I' for Inactive)
    1  A    between atoms: C_1  and  C_8
    2  A    between atoms: C_5  and  C_7
    3  A    between atoms: C_5  and  N_20
    4  A    between atoms: C_7  and  C_11
    5  A    between atoms: C_11  and  N_40
    6  A    between atoms: C_13  and  C_36
    7  A    between atoms: N_16  and  C_24
    8  A    between atoms: C_23  and  C_28
    9  A    between atoms: C_23  and  C_35
   10  A    between atoms: C_24  and  C_28
   11  A    between atoms: C_24  and  C_41
   12  A    between atoms: C_25  and  C_36
   13  A    between atoms: C_25  and  C_39
   14  A    between atoms: N_32  and  C_41
                            x       y       z     vdW  Elec       q    Type
                         _______ _______ _______ _____ _____    ______ ____

>  <TORSDO>
F 14

$$$$
=
 OpenBabel11042420053D

 42 46  0  0  1  0  0  0  0  0999 V2000
  160.9360  204.3590  146.2450 C   0  0  0  0  0  0  0  0  0  0  0  0
  161.8160  204.9260  151.2520 C   0  0  0  0  0  0  0  0  0  0  0  0
  160.0840  207.3200  149.1320 O   0  0  0  0  0  0  0  0  0  0  0  0
  161.7110  202.9410  148.0550 C   0  0  0  0  0  3  0  0  0  0  0  0
  162.4760  204.8680  152.3250 O   0  0  0  0  0  0  0  0  0  0  0  0
  161.4430  203.9540  148.9830 C   0  0  0  0  0  0  0  0  0  0  0  0
  161.1740  206.1540  150.8470 N   0  0  0  0  0  0  0  0  0  0  0  0
  161.4650  203.1430  146.6950 C   0  0  0  0  0  3  0  0  0  0  0  0
  160.9210  205.1830  148.5370 C   0  0  0  0  0  0  0  0  0  0  0  0
  160.6850  206.2720  149.5000 C   0  0  0  0  0  0  0  0  0  0  0  0
  160.4660  202.8840  150.9870 C   0  0  0  0  0  1  0  0  0  0  0  0
  160.6700  205.3770  147.1710 C   0  0  0  0  0  3  0  0  0  0  0  0
  161.6450  203.6730  150.4450 C   0  0  2  0  0  3  0  0  0  0  0  0
  160.6600  204.5690  144.8110 C   0  0  0  0  0  0  0  0  0  0  0  0
  159.7550  203.9020  144.2380 O   0  0  0  0  0  0  0  0  0  0  0  0
  161.4120  205.5370  144.0710 N   0  0  0  0  0  2  0  0  0  0  0  0
  161.2170  205.7580  142.6480 C   0  0  0  0  0  2  0  0  0  0  0  0
  162.2770  206.7070  142.1190 C   0  0  0  0  0  2  0  0  0  0  0  0
  162.3540  206.6120  140.6030 C   0  0  0  0  0  2  0  0  0  0  0  0
  160.8960  207.8850  139.1060 O   0  0  0  0  0  0  0  0  0  0  0  0
  161.9430  207.8680  139.9970 N   0  0  0  0  0  0  0  0  0  0  0  0
  162.4490  208.9420  140.3830 O   0  0  0  0  0  0  0  0  0  0  0  0
  161.0530  207.3160  151.7450 C   0  0  2  0  0  3  0  0  0  0  0  0
  161.1230  209.9660  151.5400 C   0  0  0  0  0  2  0  0  0  0  0  0
  162.4200  209.4830  152.1820 C   0  0  0  0  0  2  0  0  0  0  0  0
  161.6850  208.6070  151.1900 C   0  0  0  0  0  0  0  0  0  0  0  0
  162.9030  209.2590  147.7810 O   0  0  0  0  0  0  0  0  0  0  0  0
  162.3980  208.5200  149.9210 N   0  0  0  0  0  2  0  0  0  0  0  0
  162.3380  209.5000  148.8800 C   0  0  0  0  0  0  0  0  0  0  0  0
  161.5950  210.7890  149.0610 C   0  0  0  0  0  2  0  0  0  0  0  0
  163.2970  212.2530  148.2580 O   0  0  0  0  0  0  0  0  0  0  0  0
  162.1100  211.8480  148.1370 C   0  0  0  0  0  0  0  0  0  0  0  0
  159.8780  212.2060  147.1300 O   0  0  0  0  0  1  0  0  0  0  0  0
  161.7410  213.1240  146.1730 O   0  0  0  0  0  0  0  0  0  0  0  0
  161.2490  212.4250  147.0960 C   0  0  0  0  0  0  0  0  0  0  0  0
  161.5180  207.0030  153.1620 C   0  0  0  0  0  2  0  0  0  0  0  0
  160.4080  207.2890  154.1550 C   0  0  0  0  0  2  0  0  0  0  0  0
  159.7550  209.9640  156.5810 C   0  0  2  0  0  3  0  0  0  0  0  0
  160.9190  210.3460  157.2490 O   0  0  0  0  0  1  0  0  0  0  0  0
  160.9130  208.2500  155.2090 C   0  0  2  0  0  3  0  0  0  0  0  0
  159.8240  208.4880  156.2350 C   0  0  2  0  0  3  0  0  0  0  0  0
  160.0940  209.5240  155.1680 C   0  0  1  0  0  3  0  0  0  0  0  0
  1  8  2  0  0  0  0
  1 12  1  0  0  0  0
  2  5  2  0  0  0  0
  3 10  2  0  0  0  0
  4  6  2  0  0  0  0
  6 13  1  0  0  0  0
  7  2  1  0  0  0  0
  7 23  1  0  0  0  0
  8  4  1  0  0  0  0
  9  6  1  0  0  0  0
  9 10  1  0  0  0  0
 10  7  1  0  0  0  0
 12  9  2  0  0  0  0
 13 11  1  1  0  0  0
 13  2  1  0  0  0  0
 14  1  1  0  0  0  0
 15 14  2  0  0  0  0
 16 14  1  0  0  0  0
 17 16  1  0  0  0  0
 18 17  1  0  0  0  0
 19 18  1  0  0  0  0
 20 21  2  0  0  0  0
 21 22  2  0  0  0  0
 21 19  1  0  0  0  0
 23 36  1  1  0  0  0
 24 25  1  0  0  0  0
 26 24  1  0  0  0  0
 26 23  1  0  0  0  0
 26 25  1  0  0  0  0
 27 29  2  0  0  0  0
 28 26  1  0  0  0  0
 29 30  1  0  0  0  0
 29 28  1  0  0  0  0
 32 31  2  0  0  0  0
 32 30  1  0  0  0  0
 34 35  2  0  0  0  0
 35 33  1  0  0  0  0
 35 32  1  0  0  0  0
 36 37  1  0  0  0  0
 37 40  1  0  0  0  0
 38 39  1  0  0  0  0
 40 41  1  0  0  0  0
 41 38  1  0  0  0  0
 42 40  1  0  0  0  0
 42 41  1  0  0  0  0
 42 38  1  0  0  0  0
M  END
>  <MODEL>
8

>  <REMARK>
 VINA RESULT:      -4.0      2.669      6.422
  Name = 
  14 active torsions:
  status: ('A' for Active; 'I' for Inactive)
    1  A    between atoms: C_1  and  C_8
    2  A    between atoms: C_5  and  C_7
    3  A    between atoms: C_5  and  N_20
    4  A    between atoms: C_7  and  C_11
    5  A    between atoms: C_11  and  N_40
    6  A    between atoms: C_13  and  C_36
    7  A    between atoms: N_16  and  C_24
    8  A    between atoms: C_23  and  C_28
    9  A    between atoms: C_23  and  C_35
   10  A    between atoms: C_24  and  C_28
   11  A    between atoms: C_24  and  C_41
   12  A    between atoms: C_25  and  C_36
   13  A    between atoms: C_25  and  C_39
   14  A    between atoms: N_32  and  C_41
                            x       y       z     vdW  Elec       q    Type
                         _______ _______ _______ _____ _____    ______ ____

>  <TORSDO>
F 14

$$$$
