=
 OpenBabel11052409423D

 49 53  0  0  1  0  0  0  0  0999 V2000
  161.1690  206.8830  151.2830 C   0  0  0  0  0  0  0  0  0  0  0  0
  160.6530  205.7620  151.0250 O   0  0  0  0  0  0  0  0  0  0  0  0
  161.9870  207.0730  152.5210 C   0  0  2  0  0  3  0  0  0  0  0  0
  162.1110  205.8590  153.2030 O   0  0  0  0  0  1  0  0  0  0  0  0
  160.1180  208.4990  152.9390 F   0  0  0  0  0  0  0  0  0  0  0  0
  161.3580  208.1260  153.4310 C   0  0  1  0  0  3  0  0  0  0  0  0
  160.5190  208.7820  156.7830 N   0  0  0  0  0  0  0  0  0  0  0  0
  161.6180  208.6680  155.8480 C   0  0  0  0  0  2  0  0  0  0  0  0
  159.8900  207.2480  155.1280 O   0  0  0  0  0  0  0  0  0  0  0  0
  159.6550  207.6620  156.4470 C   0  0  0  0  0  2  0  0  0  0  0  0
  161.2190  207.6040  154.8610 C   0  0  1  0  0  3  0  0  0  0  0  0
  159.7880  209.9960  156.4450 C   0  0  0  0  0  2  0  0  0  0  0  0
  160.7560  211.1110  156.0660 C   0  0  2  0  0  3  0  0  0  0  0  0
  161.5150  211.6170  157.2590 C   0  0  0  0  0  3  0  0  0  0  0  0
  162.7340  211.6380  157.2580 O   0  0  0  0  0  0  0  0  0  0  0  0
  160.0380  212.2270  155.2920 C   0  0  1  0  0  3  0  0  0  0  0  0
  159.1080  211.4720  153.0500 C   0  0  0  0  0  2  0  0  0  0  0  0
  160.0620  213.6650  151.7860 O   0  0  0  0  0  0  0  0  0  0  0  0
  157.9200  212.7300  150.9720 O   0  0  0  0  0  0  0  0  0  0  0  0
  158.7820  211.7730  154.5130 C   0  0  2  0  0  3  0  0  0  0  0  0
  157.9300  213.8600  153.4280 C   0  0  0  0  0  2  0  0  0  0  0  0
  156.4370  212.2580  154.3700 O   0  0  0  0  0  1  0  0  0  0  0  0
  158.7880  212.9690  152.1740 S   0  0  0  0  0  0  0  0  0  0  0  0
  157.6860  212.8550  154.5460 C   0  0  1  0  0  3  0  0  0  0  0  0
  159.7230  213.3230  156.2210 C   0  0  0  0  0  0  0  0  0  0  0  0
  159.4780  214.1860  156.9510 N   0  0  0  0  0  0  0  0  0  0  0  0
  160.9300  207.9830  150.4570 O   0  0  0  0  0  0  0  0  0  0  0  0
  161.8990  208.4560  149.5320 C   0  0  2  0  0  3  0  0  0  0  0  0
  162.0660  209.9340  149.6800 C   0  0  0  0  0  0  0  0  0  0  0  0
  162.2060  210.4310  150.7890 O   0  0  0  0  0  0  0  0  0  0  0  0
  162.0610  210.8020  148.4590 C   0  0  2  0  0  3  0  0  0  0  0  0
  163.3490  210.9050  147.9620 F   0  0  0  0  0  0  0  0  0  0  0  0
  162.4680  213.1570  148.5050 O   0  0  0  0  0  1  0  0  0  0  0  0
  160.3700  212.4330  148.0090 O   0  0  0  0  0  1  0  0  0  0  0  0
  161.5070  212.1840  148.7800 C   0  0  0  0  0  3  0  0  0  0  0  0
  161.4630  208.1180  148.1160 C   0  0  0  0  0  2  0  0  0  0  0  0
  162.3450  207.0210  147.5530 C   0  0  0  0  0  2  0  0  0  0  0  0
  161.9750  205.6870  148.1780 C   0  0  0  0  0  2  0  0  0  0  0  0
  161.1460  205.5290  144.5260 C   0  0  0  0  0  2  0  0  0  0  0  0
  160.7320  202.8310  144.8620 O   0  0  0  0  0  0  0  0  0  0  0  0
  161.3600  205.0350  145.8100 C   0  0  0  0  0  0  0  0  0  0  0  0
  160.9590  204.1740  144.7830 C   0  0  0  0  0  0  0  0  0  0  0  0
  160.9700  200.5140  147.7740 C   0  0  0  0  0  3  0  0  0  0  0  0
  160.9580  202.3760  146.2160 C   0  0  0  0  0  0  0  0  0  0  0  0
  161.5530  202.7170  148.6050 C   0  0  0  0  0  3  0  0  0  0  0  0
  161.3760  203.2760  147.3340 C   0  0  0  0  0  0  0  0  0  0  0  0
  161.3520  201.3530  148.8210 C   0  0  0  0  0  3  0  0  0  0  0  0
  161.6180  204.7240  147.1450 N   0  0  0  0  0  0  0  0  0  0  0  0
  160.7740  201.0180  146.4870 C   0  0  0  0  0  3  0  0  0  0  0  0
  1  3  1  0  0  0  0
  2  1  2  0  0  0  0
  3  4  1  1  0  0  0
  3  6  1  0  0  0  0
  6  5  1  6  0  0  0
  8  7  1  0  0  0  0
  9 10  1  0  0  0  0
 10  7  1  0  0  0  0
 11  6  1  6  0  0  0
 11  9  1  0  0  0  0
 11  8  1  0  0  0  0
 12  7  1  0  0  0  0
 13 12  1  1  0  0  0
 13 14  1  0  0  0  0
 15 14  2  0  0  0  0
 16 13  1  0  0  0  0
 16 25  1  1  0  0  0
 17 20  1  0  0  0  0
 18 23  2  0  0  0  0
 19 23  2  0  0  0  0
 20 24  1  0  0  0  0
 20 16  1  1  0  0  0
 21 24  1  0  0  0  0
 23 17  1  0  0  0  0
 23 21  1  0  0  0  0
 24 22  1  6  0  0  0
 25 26  3  0  0  0  0
 27  1  1  0  0  0  0
 28 36  1  6  0  0  0
 28 29  1  0  0  0  0
 28 27  1  0  0  0  0
 29 30  2  0  0  0  0
 31 32  1  1  0  0  0
 31 35  1  0  0  0  0
 31 29  1  0  0  0  0
 33 35  1  0  0  0  0
 34 35  1  0  0  0  0
 37 36  1  0  0  0  0
 37 38  1  0  0  0  0
 39 42  1  0  0  0  0
 39 41  1  0  0  0  0
 40 44  1  0  0  0  0
 41 48  1  0  0  0  0
 42 40  1  0  0  0  0
 42 41  2  0  0  0  0
 43 47  1  0  0  0  0
 44 49  1  0  0  0  0
 44 46  2  0  0  0  0
 45 47  2  0  0  0  0
 46 45  1  0  0  0  0
 48 46  1  0  0  0  0
 48 38  1  0  0  0  0
 49 43  2  0  0  0  0
M  END
>  <MODEL>
1

>  <REMARK>
 VINA RESULT:      -6.8      0.000      0.000
  Name = 
  18 active torsions:
  status: ('A' for Active; 'I' for Inactive)
    1  A    between atoms: C_1  and  C_17
    2  A    between atoms: C_1  and  C_37
    3  A    between atoms: C_6  and  C_41
    4  A    between atoms: N_7  and  C_42
    5  A    between atoms: C_9  and  C_41
    6  A    between atoms: C_10  and  C_13
    7  A    between atoms: C_10  and  O_39
    8  A    between atoms: C_13  and  C_22
    9  A    between atoms: C_17  and  C_38
   10  A    between atoms: C_22  and  C_47
   11  A    between atoms: C_26  and  C_43
   12  A    between atoms: C_26  and  C_44
   13  A    between atoms: N_31  and  C_44
   14  A    between atoms: C_33  and  C_34
   15  A    between atoms: C_33  and  C_41
   16  A    between atoms: C_33  and  C_42
   17  A    between atoms: C_38  and  O_39
   18  A    between atoms: C_38  and  C_43
                            x       y       z     vdW  Elec       q    Type
                         _______ _______ _______ _____ _____    ______ ____

>  <TORSDO>
F 18

$$$$
=
 OpenBabel11052409423D

 49 53  0  0  1  0  0  0  0  0999 V2000
  161.6700  209.9960  152.1750 C   0  0  0  0  0  0  0  0  0  0  0  0
  162.4710  210.1820  153.1310 O   0  0  0  0  0  0  0  0  0  0  0  0
  162.1600  209.4430  150.8740 C   0  0  2  0  0  3  0  0  0  0  0  0
  162.0740  210.4190  149.8770 O   0  0  0  0  0  1  0  0  0  0  0  0
  161.9000  207.6390  149.3310 F   0  0  0  0  0  0  0  0  0  0  0  0
  161.3570  208.2080  150.4720 C   0  0  1  0  0  3  0  0  0  0  0  0
  161.3010  204.8270  151.4420 N   0  0  0  0  0  0  0  0  0  0  0  0
  160.4800  205.9980  151.2160 C   0  0  0  0  0  2  0  0  0  0  0  0
  162.6150  206.7160  151.8840 O   0  0  0  0  0  0  0  0  0  0  0  0
  162.4660  205.3460  152.1440 C   0  0  0  0  0  2  0  0  0  0  0  0
  161.3240  207.1830  151.6050 C   0  0  1  0  0  3  0  0  0  0  0  0
  161.7630  204.3650  150.1400 C   0  0  0  0  0  2  0  0  0  0  0  0
  160.7680  203.3740  149.5460 C   0  0  2  0  0  3  0  0  0  0  0  0
  161.0280  201.9740  150.0230 C   0  0  0  0  0  3  0  0  0  0  0  0
  160.1050  201.2470  150.3510 O   0  0  0  0  0  0  0  0  0  0  0  0
  160.7220  203.4890  148.0150 C   0  0  1  0  0  3  0  0  0  0  0  0
  160.8830  205.6120  146.6260 C   0  0  0  0  0  2  0  0  0  0  0  0
  159.5500  204.4930  144.5540 O   0  0  0  0  0  0  0  0  0  0  0  0
  161.3210  206.1350  144.0090 O   0  0  0  0  0  0  0  0  0  0  0  0
  161.6620  204.5610  147.4160 C   0  0  2  0  0  3  0  0  0  0  0  0
  162.0980  203.7760  145.0800 C   0  0  0  0  0  2  0  0  0  0  0  0
  163.8290  204.7410  146.4030 O   0  0  0  0  0  1  0  0  0  0  0  0
  160.8870  205.0510  144.9530 S   0  0  0  0  0  0  0  0  0  0  0  0
  162.7000  203.9250  146.4710 C   0  0  1  0  0  3  0  0  0  0  0  0
  160.9820  202.1650  147.4300 C   0  0  0  0  0  0  0  0  0  0  0  0
  161.1820  201.1230  146.9700 N   0  0  0  0  0  0  0  0  0  0  0  0
  160.3290  210.3660  152.2880 O   0  0  0  0  0  0  0  0  0  0  0  0
  159.9300  211.5720  152.9250 C   0  0  2  0  0  3  0  0  0  0  0  0
  158.9550  211.2730  154.0180 C   0  0  0  0  0  0  0  0  0  0  0  0
  157.7540  211.2780  153.7910 O   0  0  0  0  0  0  0  0  0  0  0  0
  159.4630  210.9650  155.3930 C   0  0  2  0  0  3  0  0  0  0  0  0
  158.4220  211.0650  156.3010 F   0  0  0  0  0  0  0  0  0  0  0  0
  160.1670  212.7690  156.7940 O   0  0  0  0  0  1  0  0  0  0  0  0
  161.6940  211.1850  156.2250 O   0  0  0  0  0  1  0  0  0  0  0  0
  160.5910  211.9130  155.7780 C   0  0  0  0  0  3  0  0  0  0  0  0
  159.3020  212.5060  151.9040 C   0  0  0  0  0  2  0  0  0  0  0  0
  160.3840  213.2870  151.1860 C   0  0  0  0  0  2  0  0  0  0  0  0
  159.7660  214.1530  150.1030 C   0  0  0  0  0  2  0  0  0  0  0  0
  162.8770  213.7220  148.0570 C   0  0  0  0  0  2  0  0  0  0  0  0
  161.2580  212.8960  145.9930 O   0  0  0  0  0  0  0  0  0  0  0  0
  161.5130  213.6800  148.3320 C   0  0  0  0  0  0  0  0  0  0  0  0
  161.9870  213.3150  147.0680 C   0  0  0  0  0  0  0  0  0  0  0  0
  157.5770  212.4440  145.6050 C   0  0  0  0  0  3  0  0  0  0  0  0
  159.8520  212.8820  146.3310 C   0  0  0  0  0  0  0  0  0  0  0  0
  157.9330  213.2310  147.8720 C   0  0  0  0  0  3  0  0  0  0  0  0
  159.3180  213.2780  147.6700 C   0  0  0  0  0  0  0  0  0  0  0  0
  157.0750  212.8200  146.8510 C   0  0  0  0  0  3  0  0  0  0  0  0
  160.1930  213.7020  148.7850 N   0  0  0  0  0  0  0  0  0  0  0  0
  158.9480  212.4750  145.3470 C   0  0  0  0  0  3  0  0  0  0  0  0
  1 27  1  0  0  0  0
  1  2  2  0  0  0  0
  3  4  1  6  0  0  0
  3  1  1  0  0  0  0
  6  5  1  6  0  0  0
  6  3  1  0  0  0  0
  7 10  1  0  0  0  0
  8  7  1  0  0  0  0
  8 11  1  0  0  0  0
  9 10  1  0  0  0  0
 11  6  1  6  0  0  0
 11  9  1  0  0  0  0
 12  7  1  0  0  0  0
 13 14  1  6  0  0  0
 13 12  1  0  0  0  0
 14 15  2  0  0  0  0
 16 25  1  6  0  0  0
 16 13  1  0  0  0  0
 17 20  1  0  0  0  0
 18 23  2  0  0  0  0
 19 23  2  0  0  0  0
 20 16  1  6  0  0  0
 21 24  1  0  0  0  0
 23 21  1  0  0  0  0
 23 17  1  0  0  0  0
 24 22  1  6  0  0  0
 24 20  1  0  0  0  0
 26 25  3  0  0  0  0
 27 28  1  0  0  0  0
 28 36  1  6  0  0  0
 28 29  1  0  0  0  0
 29 31  1  0  0  0  0
 30 29  2  0  0  0  0
 31 35  1  0  0  0  0
 31 32  1  1  0  0  0
 35 34  1  0  0  0  0
 35 33  1  0  0  0  0
 37 36  1  0  0  0  0
 38 37  1  0  0  0  0
 39 41  1  0  0  0  0
 40 44  1  0  0  0  0
 40 42  1  0  0  0  0
 41 48  1  0  0  0  0
 42 39  1  0  0  0  0
 42 41  2  0  0  0  0
 43 47  1  0  0  0  0
 44 46  2  0  0  0  0
 46 45  1  0  0  0  0
 46 48  1  0  0  0  0
 47 45  2  0  0  0  0
 48 38  1  0  0  0  0
 49 43  2  0  0  0  0
 49 44  1  0  0  0  0
M  END
>  <MODEL>
2

>  <REMARK>
 VINA RESULT:      -6.1      3.213      9.321
  Name = 
  18 active torsions:
  status: ('A' for Active; 'I' for Inactive)
    1  A    between atoms: C_1  and  C_17
    2  A    between atoms: C_1  and  C_37
    3  A    between atoms: C_6  and  C_41
    4  A    between atoms: N_7  and  C_42
    5  A    between atoms: C_9  and  C_41
    6  A    between atoms: C_10  and  C_13
    7  A    between atoms: C_10  and  O_39
    8  A    between atoms: C_13  and  C_22
    9  A    between atoms: C_17  and  C_38
   10  A    between atoms: C_22  and  C_47
   11  A    between atoms: C_26  and  C_43
   12  A    between atoms: C_26  and  C_44
   13  A    between atoms: N_31  and  C_44
   14  A    between atoms: C_33  and  C_34
   15  A    between atoms: C_33  and  C_41
   16  A    between atoms: C_33  and  C_42
   17  A    between atoms: C_38  and  O_39
   18  A    between atoms: C_38  and  C_43
                            x       y       z     vdW  Elec       q    Type
                         _______ _______ _______ _____ _____    ______ ____

>  <TORSDO>
F 18

$$$$
=
 OpenBabel11052409423D

 49 53  0  0  1  0  0  0  0  0999 V2000
  161.7510  209.7400  151.6130 C   0  0  0  0  0  0  0  0  0  0  0  0
  162.5900  210.6810  151.6020 O   0  0  0  0  0  0  0  0  0  0  0  0
  162.0030  208.4930  150.8270 C   0  0  2  0  0  3  0  0  0  0  0  0
  162.2540  208.8130  149.4890 O   0  0  0  0  0  1  0  0  0  0  0  0
  160.5370  206.9940  149.6830 F   0  0  0  0  0  0  0  0  0  0  0  0
  160.8140  207.5390  150.9260 C   0  0  1  0  0  3  0  0  0  0  0  0
  161.3720  204.1190  151.5290 N   0  0  0  0  0  0  0  0  0  0  0  0
  160.3710  205.1650  151.5340 C   0  0  0  0  0  2  0  0  0  0  0  0
  162.4560  206.1420  152.0000 O   0  0  0  0  0  0  0  0  0  0  0  0
  162.5390  204.7480  152.1290 C   0  0  0  0  0  2  0  0  0  0  0  0
  161.0850  206.4270  151.9380 C   0  0  1  0  0  3  0  0  0  0  0  0
  161.7060  203.8480  150.1370 C   0  0  0  0  0  2  0  0  0  0  0  0
  160.5490  203.1390  149.4420 C   0  0  2  0  0  3  0  0  0  0  0  0
  160.3940  201.7260  149.9240 C   0  0  0  0  0  3  0  0  0  0  0  0
  159.3500  201.1200  149.7500 O   0  0  0  0  0  0  0  0  0  0  0  0
  160.6760  203.2430  147.9140 C   0  0  1  0  0  3  0  0  0  0  0  0
  160.7850  205.4820  146.7160 C   0  0  0  0  0  2  0  0  0  0  0  0
  159.4860  204.5150  144.5480 O   0  0  0  0  0  0  0  0  0  0  0  0
  161.2160  206.2420  144.1560 O   0  0  0  0  0  0  0  0  0  0  0  0
  161.5890  204.3860  147.4150 C   0  0  2  0  0  3  0  0  0  0  0  0
  162.0500  203.8200  145.0220 C   0  0  0  0  0  2  0  0  0  0  0  0
  163.7530  204.7090  146.4320 O   0  0  0  0  0  1  0  0  0  0  0  0
  160.8080  205.0690  145.0010 S   0  0  0  0  0  0  0  0  0  0  0  0
  162.6460  203.8620  146.4230 C   0  0  1  0  0  3  0  0  0  0  0  0
  161.1110  201.9420  147.3830 C   0  0  0  0  0  0  0  0  0  0  0  0
  161.4550  200.9210  146.9620 N   0  0  0  0  0  0  0  0  0  0  0  0
  160.5440  209.8710  152.3010 O   0  0  0  0  0  0  0  0  0  0  0  0
  160.1560  211.0920  152.9170 C   0  0  2  0  0  3  0  0  0  0  0  0
  160.3060  210.9830  154.4010 C   0  0  0  0  0  0  0  0  0  0  0  0
  160.5200  211.9820  155.0740 O   0  0  0  0  0  0  0  0  0  0  0  0
  160.1910  209.6420  155.0570 C   0  0  2  0  0  3  0  0  0  0  0  0
  159.2530  209.7040  156.0720 F   0  0  0  0  0  0  0  0  0  0  0  0
  161.7560  209.7740  156.8590 O   0  0  0  0  0  1  0  0  0  0  0  0
  161.5600  207.8040  155.7420 O   0  0  0  0  0  1  0  0  0  0  0  0
  161.5380  209.1930  155.6100 C   0  0  0  0  0  3  0  0  0  0  0  0
  158.7140  211.4110  152.5590 C   0  0  0  0  0  2  0  0  0  0  0  0
  158.5810  212.8820  152.2210 C   0  0  0  0  0  2  0  0  0  0  0  0
  159.7090  213.3050  151.2970 C   0  0  0  0  0  2  0  0  0  0  0  0
  156.5300  213.6170  149.3360 C   0  0  0  0  0  2  0  0  0  0  0  0
  158.0600  213.4250  147.0590 O   0  0  0  0  0  0  0  0  0  0  0  0
  157.9030  213.4950  149.5330 C   0  0  0  0  0  0  0  0  0  0  0  0
  157.3780  213.5140  148.2370 C   0  0  0  0  0  0  0  0  0  0  0  0
  161.7130  213.0460  146.4130 C   0  0  0  0  0  3  0  0  0  0  0  0
  159.4760  213.2890  147.3230 C   0  0  0  0  0  0  0  0  0  0  0  0
  161.4490  213.1090  148.8230 C   0  0  0  0  0  3  0  0  0  0  0  0
  160.0620  213.2540  148.6970 C   0  0  0  0  0  0  0  0  0  0  0  0
  162.2630  213.0050  147.6950 C   0  0  0  0  0  3  0  0  0  0  0  0
  159.2380  213.3790  149.9200 N   0  0  0  0  0  0  0  0  0  0  0  0
  160.3370  213.1850  146.2280 C   0  0  0  0  0  3  0  0  0  0  0  0
  1 27  1  0  0  0  0
  2  1  2  0  0  0  0
  3  4  1  6  0  0  0
  3  6  1  0  0  0  0
  3  1  1  0  0  0  0
  6  5  1  6  0  0  0
  7  8  1  0  0  0  0
  7 10  1  0  0  0  0
  8 11  1  0  0  0  0
  9 10  1  0  0  0  0
 11  6  1  6  0  0  0
 11  9  1  0  0  0  0
 12  7  1  0  0  0  0
 13 14  1  6  0  0  0
 13 12  1  0  0  0  0
 15 14  2  0  0  0  0
 16 25  1  1  0  0  0
 16 13  1  0  0  0  0
 17 20  1  0  0  0  0
 18 23  2  0  0  0  0
 19 23  2  0  0  0  0
 20 16  1  6  0  0  0
 21 24  1  0  0  0  0
 23 21  1  0  0  0  0
 23 17  1  0  0  0  0
 24 22  1  6  0  0  0
 24 20  1  0  0  0  0
 26 25  3  0  0  0  0
 27 28  1  0  0  0  0
 28 36  1  1  0  0  0
 28 29  1  0  0  0  0
 29 31  1  0  0  0  0
 29 30  2  0  0  0  0
 31 35  1  0  0  0  0
 31 32  1  1  0  0  0
 35 34  1  0  0  0  0
 35 33  1  0  0  0  0
 37 36  1  0  0  0  0
 38 37  1  0  0  0  0
 39 41  1  0  0  0  0
 40 44  1  0  0  0  0
 40 42  1  0  0  0  0
 41 48  1  0  0  0  0
 42 39  1  0  0  0  0
 42 41  2  0  0  0  0
 43 47  1  0  0  0  0
 44 46  2  0  0  0  0
 46 45  1  0  0  0  0
 46 48  1  0  0  0  0
 47 45  2  0  0  0  0
 48 38  1  0  0  0  0
 49 43  2  0  0  0  0
 49 44  1  0  0  0  0
M  END
>  <MODEL>
3

>  <REMARK>
 VINA RESULT:      -5.9      3.072      9.451
  Name = 
  18 active torsions:
  status: ('A' for Active; 'I' for Inactive)
    1  A    between atoms: C_1  and  C_17
    2  A    between atoms: C_1  and  C_37
    3  A    between atoms: C_6  and  C_41
    4  A    between atoms: N_7  and  C_42
    5  A    between atoms: C_9  and  C_41
    6  A    between atoms: C_10  and  C_13
    7  A    between atoms: C_10  and  O_39
    8  A    between atoms: C_13  and  C_22
    9  A    between atoms: C_17  and  C_38
   10  A    between atoms: C_22  and  C_47
   11  A    between atoms: C_26  and  C_43
   12  A    between atoms: C_26  and  C_44
   13  A    between atoms: N_31  and  C_44
   14  A    between atoms: C_33  and  C_34
   15  A    between atoms: C_33  and  C_41
   16  A    between atoms: C_33  and  C_42
   17  A    between atoms: C_38  and  O_39
   18  A    between atoms: C_38  and  C_43
                            x       y       z     vdW  Elec       q    Type
                         _______ _______ _______ _____ _____    ______ ____

>  <TORSDO>
F 18

$$$$
=
 OpenBabel11052409423D

 49 53  0  0  1  0  0  0  0  0999 V2000
  161.0990  210.6950  153.3660 C   0  0  0  0  0  0  0  0  0  0  0  0
  161.7550  210.8590  154.4300 O   0  0  0  0  0  0  0  0  0  0  0  0
  161.7270  210.0240  152.1850 C   0  0  2  0  0  3  0  0  0  0  0  0
  161.7920  210.9150  151.1090 O   0  0  0  0  0  1  0  0  0  0  0  0
  160.8880  208.6670  150.4080 F   0  0  0  0  0  0  0  0  0  0  0  0
  160.9420  208.7760  151.7880 C   0  0  1  0  0  3  0  0  0  0  0  0
  161.5420  205.3200  151.5320 N   0  0  0  0  0  0  0  0  0  0  0  0
  160.6910  206.3220  152.1370 C   0  0  0  0  0  2  0  0  0  0  0  0
  162.8180  207.2650  151.8080 O   0  0  0  0  0  0  0  0  0  0  0  0
  162.8810  205.8720  151.6620 C   0  0  0  0  0  2  0  0  0  0  0  0
  161.5690  207.5190  152.3900 C   0  0  1  0  0  3  0  0  0  0  0  0
  161.2320  205.2920  150.1090 C   0  0  0  0  0  2  0  0  0  0  0  0
  160.6830  203.9260  149.7120 C   0  0  2  0  0  3  0  0  0  0  0  0
  161.3160  202.8210  150.5080 C   0  0  0  0  0  3  0  0  0  0  0  0
  160.8200  202.4490  151.5580 O   0  0  0  0  0  0  0  0  0  0  0  0
  160.7860  203.7090  148.1940 C   0  0  1  0  0  3  0  0  0  0  0  0
  161.0460  205.7620  146.7160 C   0  0  0  0  0  2  0  0  0  0  0  0
  159.4040  204.7450  144.8220 O   0  0  0  0  0  0  0  0  0  0  0  0
  161.2840  206.1590  144.0520 O   0  0  0  0  0  0  0  0  0  0  0  0
  161.7770  204.6500  147.4700 C   0  0  2  0  0  3  0  0  0  0  0  0
  161.8950  203.7580  145.1360 C   0  0  0  0  0  2  0  0  0  0  0  0
  163.8430  204.5560  146.2550 O   0  0  0  0  0  1  0  0  0  0  0  0
  160.8270  205.1570  145.0730 S   0  0  0  0  0  0  0  0  0  0  0  0
  162.6420  203.8760  146.4580 C   0  0  1  0  0  3  0  0  0  0  0  0
  161.1070  202.2970  147.9360 C   0  0  0  0  0  0  0  0  0  0  0  0
  161.3600  201.1870  147.7360 N   0  0  0  0  0  0  0  0  0  0  0  0
  159.8010  211.1940  153.2470 O   0  0  0  0  0  0  0  0  0  0  0  0
  159.3730  212.3550  153.9470 C   0  0  2  0  0  3  0  0  0  0  0  0
  158.3980  211.9740  155.0150 C   0  0  0  0  0  0  0  0  0  0  0  0
  158.7970  211.5780  156.1010 O   0  0  0  0  0  0  0  0  0  0  0  0
  156.9290  212.0820  154.7430 C   0  0  2  0  0  3  0  0  0  0  0  0
  156.4760  213.3250  155.1510 F   0  0  0  0  0  0  0  0  0  0  0  0
  155.4910  211.5080  156.5650 O   0  0  0  0  0  1  0  0  0  0  0  0
  155.2350  210.3990  154.5970 O   0  0  0  0  0  1  0  0  0  0  0  0
  156.1630  210.9790  155.4640 C   0  0  0  0  0  3  0  0  0  0  0  0
  158.7300  213.3300  152.9760 C   0  0  0  0  0  2  0  0  0  0  0  0
  158.9690  212.8710  151.5510 C   0  0  0  0  0  2  0  0  0  0  0  0
  159.5230  214.0180  150.7230 C   0  0  0  0  0  2  0  0  0  0  0  0
  156.7880  213.5410  148.2050 C   0  0  0  0  0  2  0  0  0  0  0  0
  158.7540  213.0880  146.3370 O   0  0  0  0  0  0  0  0  0  0  0  0
  158.0980  213.6290  148.6670 C   0  0  0  0  0  0  0  0  0  0  0  0
  157.8440  213.3260  147.3250 C   0  0  0  0  0  0  0  0  0  0  0  0
  162.4810  213.0380  146.4550 C   0  0  0  0  0  3  0  0  0  0  0  0
  160.0940  213.1810  146.8740 C   0  0  0  0  0  0  0  0  0  0  0  0
  161.7340  213.5470  148.7050 C   0  0  0  0  0  3  0  0  0  0  0  0
  160.3930  213.4930  148.3050 C   0  0  0  0  0  0  0  0  0  0  0  0
  162.7630  213.3210  147.7910 C   0  0  0  0  0  3  0  0  0  0  0  0
  159.3330  213.7570  149.3030 N   0  0  0  0  0  0  0  0  0  0  0  0
  161.1630  212.9680  146.0010 C   0  0  0  0  0  3  0  0  0  0  0  0
  1  2  2  0  0  0  0
  3  4  1  6  0  0  0
  3  1  1  0  0  0  0
  6  5  1  6  0  0  0
  6  3  1  0  0  0  0
  7 10  1  0  0  0  0
  7  8  1  0  0  0  0
  8 11  1  0  0  0  0
  9 11  1  0  0  0  0
 10  9  1  0  0  0  0
 11  6  1  6  0  0  0
 12  7  1  0  0  0  0
 13 12  1  6  0  0  0
 13 14  1  0  0  0  0
 14 15  2  0  0  0  0
 16 25  1  1  0  0  0
 16 13  1  0  0  0  0
 17 20  1  0  0  0  0
 18 23  2  0  0  0  0
 19 23  2  0  0  0  0
 20 16  1  6  0  0  0
 21 24  1  0  0  0  0
 23 21  1  0  0  0  0
 23 17  1  0  0  0  0
 24 22  1  6  0  0  0
 24 20  1  0  0  0  0
 26 25  3  0  0  0  0
 27  1  1  0  0  0  0
 27 28  1  0  0  0  0
 28 36  1  6  0  0  0
 28 29  1  0  0  0  0
 29 30  2  0  0  0  0
 31 29  1  0  0  0  0
 31 32  1  1  0  0  0
 31 35  1  0  0  0  0
 34 35  1  0  0  0  0
 35 33  1  0  0  0  0
 37 36  1  0  0  0  0
 38 37  1  0  0  0  0
 39 41  1  0  0  0  0
 40 44  1  0  0  0  0
 40 42  1  0  0  0  0
 41 48  1  0  0  0  0
 42 39  1  0  0  0  0
 42 41  2  0  0  0  0
 43 47  1  0  0  0  0
 44 46  2  0  0  0  0
 46 45  1  0  0  0  0
 46 48  1  0  0  0  0
 47 45  2  0  0  0  0
 48 38  1  0  0  0  0
 49 43  2  0  0  0  0
 49 44  1  0  0  0  0
M  END
>  <MODEL>
4

>  <REMARK>
 VINA RESULT:      -5.9      3.182      9.415
  Name = 
  18 active torsions:
  status: ('A' for Active; 'I' for Inactive)
    1  A    between atoms: C_1  and  C_17
    2  A    between atoms: C_1  and  C_37
    3  A    between atoms: C_6  and  C_41
    4  A    between atoms: N_7  and  C_42
    5  A    between atoms: C_9  and  C_41
    6  A    between atoms: C_10  and  C_13
    7  A    between atoms: C_10  and  O_39
    8  A    between atoms: C_13  and  C_22
    9  A    between atoms: C_17  and  C_38
   10  A    between atoms: C_22  and  C_47
   11  A    between atoms: C_26  and  C_43
   12  A    between atoms: C_26  and  C_44
   13  A    between atoms: N_31  and  C_44
   14  A    between atoms: C_33  and  C_34
   15  A    between atoms: C_33  and  C_41
   16  A    between atoms: C_33  and  C_42
   17  A    between atoms: C_38  and  O_39
   18  A    between atoms: C_38  and  C_43
                            x       y       z     vdW  Elec       q    Type
                         _______ _______ _______ _____ _____    ______ ____

>  <TORSDO>
F 18

$$$$
=
 OpenBabel11052409423D

 49 53  0  0  1  0  0  0  0  0999 V2000
  161.7830  210.3980  148.6970 C   0  0  0  0  0  0  0  0  0  0  0  0
  161.2910  210.4510  147.5370 O   0  0  0  0  0  0  0  0  0  0  0  0
  162.1940  209.0850  149.2850 C   0  0  2  0  0  3  0  0  0  0  0  0
  162.8280  208.3040  148.3140 O   0  0  0  0  0  1  0  0  0  0  0  0
  160.5060  207.4360  148.9190 F   0  0  0  0  0  0  0  0  0  0  0  0
  160.9860  208.3420  149.8510 C   0  0  1  0  0  3  0  0  0  0  0  0
  161.7270  205.3130  151.4780 N   0  0  0  0  0  0  0  0  0  0  0  0
  160.6780  206.2710  151.2000 C   0  0  0  0  0  2  0  0  0  0  0  0
  162.7280  207.4180  151.2330 O   0  0  0  0  0  0  0  0  0  0  0  0
  162.8820  206.1400  151.7920 C   0  0  0  0  0  2  0  0  0  0  0  0
  161.3440  207.6200  151.1490 C   0  0  1  0  0  3  0  0  0  0  0  0
  162.0270  204.6250  150.2300 C   0  0  0  0  0  2  0  0  0  0  0  0
  160.8160  203.8280  149.7590 C   0  0  2  0  0  3  0  0  0  0  0  0
  160.7300  202.4940  150.4430 C   0  0  0  0  0  3  0  0  0  0  0  0
  160.7550  202.4150  151.6600 O   0  0  0  0  0  0  0  0  0  0  0  0
  160.7860  203.7210  148.2270 C   0  0  1  0  0  3  0  0  0  0  0  0
  160.9760  205.6950  146.6360 C   0  0  0  0  0  2  0  0  0  0  0  0
  159.5040  204.4510  144.7370 O   0  0  0  0  0  0  0  0  0  0  0  0
  161.3180  205.9490  143.9650 O   0  0  0  0  0  0  0  0  0  0  0  0
  161.7430  204.6860  147.4910 C   0  0  2  0  0  3  0  0  0  0  0  0
  162.0390  203.6660  145.2250 C   0  0  0  0  0  2  0  0  0  0  0  0
  163.8690  204.6680  146.3780 O   0  0  0  0  0  1  0  0  0  0  0  0
  160.8810  204.9790  145.0260 S   0  0  0  0  0  0  0  0  0  0  0  0
  162.7090  203.9160  146.5700 C   0  0  1  0  0  3  0  0  0  0  0  0
  161.0360  202.3240  147.8420 C   0  0  0  0  0  0  0  0  0  0  0  0
  161.2300  201.2250  147.5370 N   0  0  0  0  0  0  0  0  0  0  0  0
  161.8890  211.5490  149.4780 O   0  0  0  0  0  0  0  0  0  0  0  0
  160.8480  212.5140  149.5460 C   0  0  2  0  0  3  0  0  0  0  0  0
  161.1190  213.6250  148.5830 C   0  0  0  0  0  0  0  0  0  0  0  0
  162.0660  214.3780  148.7620 O   0  0  0  0  0  0  0  0  0  0  0  0
  160.2220  213.8080  147.3980 C   0  0  2  0  0  3  0  0  0  0  0  0
  159.3120  212.7670  147.3440 F   0  0  0  0  0  0  0  0  0  0  0  0
  162.1890  213.0970  146.2410 O   0  0  0  0  0  1  0  0  0  0  0  0
  160.2750  213.3750  145.0460 O   0  0  0  0  0  1  0  0  0  0  0  0
  161.0340  213.8670  146.1100 C   0  0  0  0  0  3  0  0  0  0  0  0
  160.7460  213.0590  150.9600 C   0  0  0  0  0  2  0  0  0  0  0  0
  159.7430  212.2460  151.7550 C   0  0  0  0  0  2  0  0  0  0  0  0
  160.4400  211.0740  152.4230 C   0  0  0  0  0  2  0  0  0  0  0  0
  159.1890  213.2930  155.1730 C   0  0  0  0  0  2  0  0  0  0  0  0
  159.5110  211.1570  156.8750 O   0  0  0  0  0  0  0  0  0  0  0  0
  159.6520  212.1150  154.5920 C   0  0  0  0  0  0  0  0  0  0  0  0
  159.3800  212.1630  155.9630 C   0  0  0  0  0  0  0  0  0  0  0  0
  160.6800  207.6440  156.4370 C   0  0  0  0  0  3  0  0  0  0  0  0
  160.0050  209.9660  156.2220 C   0  0  0  0  0  0  0  0  0  0  0  0
  160.7970  208.6810  154.2470 C   0  0  0  0  0  3  0  0  0  0  0  0
  160.3140  209.8900  154.7610 C   0  0  0  0  0  0  0  0  0  0  0  0
  160.9770  207.5730  155.0760 C   0  0  0  0  0  3  0  0  0  0  0  0
  160.1200  211.0350  153.8440 N   0  0  0  0  0  0  0  0  0  0  0  0
  160.2000  208.8250  157.0040 C   0  0  0  0  0  3  0  0  0  0  0  0
  1  3  1  0  0  0  0
  1 27  1  0  0  0  0
  2  1  2  0  0  0  0
  3  4  1  6  0  0  0
  3  6  1  0  0  0  0
  6  5  1  6  0  0  0
  7 10  1  0  0  0  0
  8  7  1  0  0  0  0
  9 10  1  0  0  0  0
 11  6  1  6  0  0  0
 11  8  1  0  0  0  0
 11  9  1  0  0  0  0
 12  7  1  0  0  0  0
 13 12  1  6  0  0  0
 13 14  1  0  0  0  0
 14 15  2  0  0  0  0
 16 25  1  1  0  0  0
 16 13  1  0  0  0  0
 17 20  1  0  0  0  0
 18 23  2  0  0  0  0
 19 23  2  0  0  0  0
 20 16  1  6  0  0  0
 21 24  1  0  0  0  0
 23 21  1  0  0  0  0
 23 17  1  0  0  0  0
 24 22  1  6  0  0  0
 24 20  1  0  0  0  0
 26 25  3  0  0  0  0
 27 28  1  0  0  0  0
 28 36  1  1  0  0  0
 29 30  2  0  0  0  0
 29 28  1  0  0  0  0
 31 32  1  6  0  0  0
 31 29  1  0  0  0  0
 34 35  1  0  0  0  0
 35 33  1  0  0  0  0
 35 31  1  0  0  0  0
 36 37  1  0  0  0  0
 37 38  1  0  0  0  0
 38 48  1  0  0  0  0
 39 42  1  0  0  0  0
 41 39  1  0  0  0  0
 41 42  2  0  0  0  0
 42 40  1  0  0  0  0
 43 49  1  0  0  0  0
 44 40  1  0  0  0  0
 44 49  2  0  0  0  0
 45 46  2  0  0  0  0
 45 47  1  0  0  0  0
 46 44  1  0  0  0  0
 47 43  2  0  0  0  0
 48 41  1  0  0  0  0
 48 46  1  0  0  0  0
M  END
>  <MODEL>
5

>  <REMARK>
 VINA RESULT:      -5.2      2.768      9.155
  Name = 
  18 active torsions:
  status: ('A' for Active; 'I' for Inactive)
    1  A    between atoms: C_1  and  C_17
    2  A    between atoms: C_1  and  C_37
    3  A    between atoms: C_6  and  C_41
    4  A    between atoms: N_7  and  C_42
    5  A    between atoms: C_9  and  C_41
    6  A    between atoms: C_10  and  C_13
    7  A    between atoms: C_10  and  O_39
    8  A    between atoms: C_13  and  C_22
    9  A    between atoms: C_17  and  C_38
   10  A    between atoms: C_22  and  C_47
   11  A    between atoms: C_26  and  C_43
   12  A    between atoms: C_26  and  C_44
   13  A    between atoms: N_31  and  C_44
   14  A    between atoms: C_33  and  C_34
   15  A    between atoms: C_33  and  C_41
   16  A    between atoms: C_33  and  C_42
   17  A    between atoms: C_38  and  O_39
   18  A    between atoms: C_38  and  C_43
                            x       y       z     vdW  Elec       q    Type
                         _______ _______ _______ _____ _____    ______ ____

>  <TORSDO>
F 18

$$$$
=
 OpenBabel11052409423D

 49 53  0  0  1  0  0  0  0  0999 V2000
  160.9350  205.9510  150.2950 C   0  0  0  0  0  0  0  0  0  0  0  0
  160.1760  205.3690  149.4720 O   0  0  0  0  0  0  0  0  0  0  0  0
  161.5900  205.1800  151.3970 C   0  0  2  0  0  3  0  0  0  0  0  0
  161.8670  203.8780  150.9700 O   0  0  0  0  0  1  0  0  0  0  0  0
  160.3940  203.8410  152.9710 F   0  0  0  0  0  0  0  0  0  0  0  0
  160.7020  205.1500  152.6390 C   0  0  1  0  0  3  0  0  0  0  0  0
  161.4060  208.1450  154.3440 N   0  0  0  0  0  0  0  0  0  0  0  0
  161.9270  207.1830  153.3960 C   0  0  0  0  0  2  0  0  0  0  0  0
  160.4680  206.0600  154.8570 O   0  0  0  0  0  0  0  0  0  0  0  0
  160.7880  207.3250  155.3740 C   0  0  0  0  0  2  0  0  0  0  0  0
  161.3840  205.8440  153.8180 C   0  0  1  0  0  3  0  0  0  0  0  0
  160.3320  208.8690  153.6780 C   0  0  0  0  0  2  0  0  0  0  0  0
  160.5780  210.3710  153.7500 C   0  0  2  0  0  3  0  0  0  0  0  0
  161.4570  210.7340  154.9120 C   0  0  0  0  0  3  0  0  0  0  0  0
  162.6640  210.8350  154.7700 O   0  0  0  0  0  0  0  0  0  0  0  0
  159.2540  211.1500  153.7320 C   0  0  1  0  0  3  0  0  0  0  0  0
  157.9870  211.0700  155.9360 C   0  0  0  0  0  2  0  0  0  0  0  0
  155.6340  210.5770  154.6960 O   0  0  0  0  0  0  0  0  0  0  0  0
  155.5640  211.9420  156.7600 O   0  0  0  0  0  0  0  0  0  0  0  0
  158.9200  211.8930  155.0470 C   0  0  2  0  0  3  0  0  0  0  0  0
  156.7420  213.0350  154.5850 C   0  0  0  0  0  2  0  0  0  0  0  0
  158.4620  214.1120  155.8340 O   0  0  0  0  0  1  0  0  0  0  0  0
  156.3540  211.5990  155.5290 S   0  0  0  0  0  0  0  0  0  0  0  0
  158.2400  213.2460  154.7640 C   0  0  1  0  0  3  0  0  0  0  0  0
  159.2580  212.0700  152.5850 C   0  0  0  0  0  0  0  0  0  0  0  0
  159.2620  212.7910  151.6810 N   0  0  0  0  0  0  0  0  0  0  0  0
  161.1230  207.3330  150.2340 O   0  0  0  0  0  0  0  0  0  0  0  0
  161.3520  208.0090  149.0050 C   0  0  2  0  0  3  0  0  0  0  0  0
  162.3520  207.2560  148.1880 C   0  0  0  0  0  0  0  0  0  0  0  0
  163.5210  207.1990  148.5430 O   0  0  0  0  0  0  0  0  0  0  0  0
  161.9100  206.5710  146.9320 C   0  0  2  0  0  3  0  0  0  0  0  0
  160.5300  206.6200  146.8420 F   0  0  0  0  0  0  0  0  0  0  0  0
  161.3180  204.2740  146.6340 O   0  0  0  0  0  1  0  0  0  0  0  0
  163.3650  204.9630  145.9220 O   0  0  0  0  0  1  0  0  0  0  0  0
  162.3890  205.1250  146.9070 C   0  0  0  0  0  3  0  0  0  0  0  0
  161.8550  209.4160  149.2820 C   0  0  0  0  0  2  0  0  0  0  0  0
  161.7350  210.2610  148.0280 C   0  0  0  0  0  2  0  0  0  0  0  0
  161.8760  211.7310  148.3800 C   0  0  0  0  0  2  0  0  0  0  0  0
  158.3690  213.0160  148.0700 C   0  0  0  0  0  2  0  0  0  0  0  0
  159.1260  214.1480  145.6810 O   0  0  0  0  0  0  0  0  0  0  0  0
  159.6990  212.8320  147.7030 C   0  0  0  0  0  0  0  0  0  0  0  0
  158.8350  213.5560  146.8750 C   0  0  0  0  0  0  0  0  0  0  0  0
  162.3200  214.2620  143.7610 C   0  0  0  0  0  3  0  0  0  0  0  0
  160.5130  213.9160  145.3440 C   0  0  0  0  0  0  0  0  0  0  0  0
  162.7730  212.9730  145.7650 C   0  0  0  0  0  3  0  0  0  0  0  0
  161.4540  213.1360  146.2050 C   0  0  0  0  0  0  0  0  0  0  0  0
  163.1990  213.5280  144.5590 C   0  0  0  0  0  3  0  0  0  0  0  0
  161.0490  212.5470  147.5000 N   0  0  0  0  0  0  0  0  0  0  0  0
  160.9930  214.4530  144.1480 C   0  0  0  0  0  3  0  0  0  0  0  0
  1  3  1  0  0  0  0
  2  1  2  0  0  0  0
  3  4  1  6  0  0  0
  3  6  1  0  0  0  0
  6  5  1  1  0  0  0
  7 10  1  0  0  0  0
  8 11  1  0  0  0  0
  8  7  1  0  0  0  0
  9 10  1  0  0  0  0
 11  6  1  6  0  0  0
 11  9  1  0  0  0  0
 12  7  1  0  0  0  0
 13 12  1  1  0  0  0
 13 14  1  0  0  0  0
 15 14  2  0  0  0  0
 16 25  1  6  0  0  0
 16 13  1  0  0  0  0
 18 23  2  0  0  0  0
 20 16  1  6  0  0  0
 20 17  1  0  0  0  0
 21 24  1  0  0  0  0
 21 23  1  0  0  0  0
 23 17  1  0  0  0  0
 23 19  2  0  0  0  0
 24 20  1  0  0  0  0
 24 22  1  1  0  0  0
 26 25  3  0  0  0  0
 27  1  1  0  0  0  0
 28 36  1  1  0  0  0
 28 27  1  0  0  0  0
 29 30  2  0  0  0  0
 29 28  1  0  0  0  0
 31 32  1  1  0  0  0
 31 29  1  0  0  0  0
 33 35  1  0  0  0  0
 34 35  1  0  0  0  0
 35 31  1  0  0  0  0
 37 38  1  0  0  0  0
 37 36  1  0  0  0  0
 40 42  1  0  0  0  0
 41 39  1  0  0  0  0
 42 41  2  0  0  0  0
 42 39  1  0  0  0  0
 43 49  2  0  0  0  0
 43 47  1  0  0  0  0
 44 40  1  0  0  0  0
 44 46  2  0  0  0  0
 45 46  1  0  0  0  0
 46 48  1  0  0  0  0
 47 45  2  0  0  0  0
 48 41  1  0  0  0  0
 48 38  1  0  0  0  0
 49 44  1  0  0  0  0
M  END
>  <MODEL>
6

>  <REMARK>
 VINA RESULT:      -5.1      2.927      6.306
  Name = 
  18 active torsions:
  status: ('A' for Active; 'I' for Inactive)
    1  A    between atoms: C_1  and  C_17
    2  A    between atoms: C_1  and  C_37
    3  A    between atoms: C_6  and  C_41
    4  A    between atoms: N_7  and  C_42
    5  A    between atoms: C_9  and  C_41
    6  A    between atoms: C_10  and  C_13
    7  A    between atoms: C_10  and  O_39
    8  A    between atoms: C_13  and  C_22
    9  A    between atoms: C_17  and  C_38
   10  A    between atoms: C_22  and  C_47
   11  A    between atoms: C_26  and  C_43
   12  A    between atoms: C_26  and  C_44
   13  A    between atoms: N_31  and  C_44
   14  A    between atoms: C_33  and  C_34
   15  A    between atoms: C_33  and  C_41
   16  A    between atoms: C_33  and  C_42
   17  A    between atoms: C_38  and  O_39
   18  A    between atoms: C_38  and  C_43
                            x       y       z     vdW  Elec       q    Type
                         _______ _______ _______ _____ _____    ______ ____

>  <TORSDO>
F 18

$$$$
=
 OpenBabel11052409423D

 49 53  0  0  1  0  0  0  0  0999 V2000
  160.8980  206.0270  150.2120 C   0  0  0  0  0  0  0  0  0  0  0  0
  160.0210  205.5230  149.4580 O   0  0  0  0  0  0  0  0  0  0  0  0
  161.6090  205.1790  151.2190 C   0  0  2  0  0  3  0  0  0  0  0  0
  161.9050  203.9290  150.6670 O   0  0  0  0  0  1  0  0  0  0  0  0
  160.6370  203.6670  152.7910 F   0  0  0  0  0  0  0  0  0  0  0  0
  160.7640  205.0110  152.4800 C   0  0  1  0  0  3  0  0  0  0  0  0
  161.4080  208.0960  154.0420 N   0  0  0  0  0  0  0  0  0  0  0  0
  161.9730  207.0690  153.1920 C   0  0  0  0  0  2  0  0  0  0  0  0
  160.4010  206.0600  154.6170 O   0  0  0  0  0  0  0  0  0  0  0  0
  160.7090  207.3490  155.0770 C   0  0  0  0  0  2  0  0  0  0  0  0
  161.3790  205.7660  153.6580 C   0  0  1  0  0  3  0  0  0  0  0  0
  160.3930  208.7910  153.2630 C   0  0  0  0  0  2  0  0  0  0  0  0
  160.8500  210.2100  152.9410 C   0  0  2  0  0  3  0  0  0  0  0  0
  162.3470  210.3190  152.9220 C   0  0  0  0  0  3  0  0  0  0  0  0
  162.9550  210.3500  151.8650 O   0  0  0  0  0  0  0  0  0  0  0  0
  160.1850  211.2300  153.8770 C   0  0  1  0  0  3  0  0  0  0  0  0
  157.8760  212.2670  153.6290 C   0  0  0  0  0  2  0  0  0  0  0  0
  158.5780  214.4500  155.0650 O   0  0  0  0  0  0  0  0  0  0  0  0
  156.2400  213.6610  155.2700 O   0  0  0  0  0  0  0  0  0  0  0  0
  158.6640  211.0340  154.0750 C   0  0  2  0  0  3  0  0  0  0  0  0
  158.1810  212.0820  156.2950 C   0  0  0  0  0  2  0  0  0  0  0  0
  157.1280  210.0490  155.6320 O   0  0  0  0  0  1  0  0  0  0  0  0
  157.6720  213.2510  155.0790 S   0  0  0  0  0  0  0  0  0  0  0  0
  158.3250  210.7600  155.5530 C   0  0  1  0  0  3  0  0  0  0  0  0
  160.8950  211.2290  155.1650 C   0  0  0  0  0  0  0  0  0  0  0  0
  161.4540  211.2310  156.1770 N   0  0  0  0  0  0  0  0  0  0  0  0
  161.1710  207.3950  150.1690 O   0  0  0  0  0  0  0  0  0  0  0  0
  161.3770  208.0850  148.9440 C   0  0  2  0  0  3  0  0  0  0  0  0
  162.2330  207.2630  148.0340 C   0  0  0  0  0  0  0  0  0  0  0  0
  163.3920  207.0130  148.3370 O   0  0  0  0  0  0  0  0  0  0  0  0
  161.6600  206.7470  146.7500 C   0  0  2  0  0  3  0  0  0  0  0  0
  160.2980  206.5500  146.9010 F   0  0  0  0  0  0  0  0  0  0  0  0
  161.9610  204.4190  147.2020 O   0  0  0  0  0  1  0  0  0  0  0  0
  161.9710  205.1090  145.0360 O   0  0  0  0  0  1  0  0  0  0  0  0
  162.3390  205.4470  146.3390 C   0  0  0  0  0  3  0  0  0  0  0  0
  162.0380  209.4250  149.2160 C   0  0  0  0  0  2  0  0  0  0  0  0
  161.8520  210.3430  148.0230 C   0  0  0  0  0  2  0  0  0  0  0  0
  161.2260  211.6520  148.4710 C   0  0  0  0  0  2  0  0  0  0  0  0
  162.8890  213.3340  145.5630 C   0  0  0  0  0  2  0  0  0  0  0  0
  160.4220  214.3490  144.8970 O   0  0  0  0  0  0  0  0  0  0  0  0
  161.8330  212.9590  146.3890 C   0  0  0  0  0  0  0  0  0  0  0  0
  161.6060  213.8030  145.2970 C   0  0  0  0  0  0  0  0  0  0  0  0
  157.0090  214.0450  146.3680 C   0  0  0  0  0  3  0  0  0  0  0  0
  159.3650  213.9370  145.7940 C   0  0  0  0  0  0  0  0  0  0  0  0
  158.4790  212.7250  147.7740 C   0  0  0  0  0  3  0  0  0  0  0  0
  159.5820  213.0450  146.9740 C   0  0  0  0  0  0  0  0  0  0  0  0
  157.2090  213.2190  147.4740 C   0  0  0  0  0  3  0  0  0  0  0  0
  160.9070  212.4830  147.3180 N   0  0  0  0  0  0  0  0  0  0  0  0
  158.0730  214.4000  145.5380 C   0  0  0  0  0  3  0  0  0  0  0  0
  1  3  1  0  0  0  0
  2  1  2  0  0  0  0
  3  4  1  6  0  0  0
  3  6  1  0  0  0  0
  6  5  1  1  0  0  0
  7 10  1  0  0  0  0
  8 11  1  0  0  0  0
  8  7  1  0  0  0  0
  9 10  1  0  0  0  0
 11  6  1  6  0  0  0
 11  9  1  0  0  0  0
 12  7  1  0  0  0  0
 13 14  1  1  0  0  0
 13 12  1  0  0  0  0
 13 16  1  0  0  0  0
 15 14  2  0  0  0  0
 16 25  1  1  0  0  0
 17 20  1  0  0  0  0
 17 23  1  0  0  0  0
 18 23  2  0  0  0  0
 20 16  1  1  0  0  0
 20 24  1  0  0  0  0
 23 19  2  0  0  0  0
 23 21  1  0  0  0  0
 24 22  1  6  0  0  0
 24 21  1  0  0  0  0
 25 26  3  0  0  0  0
 27  1  1  0  0  0  0
 28 36  1  1  0  0  0
 28 27  1  0  0  0  0
 29 30  2  0  0  0  0
 29 28  1  0  0  0  0
 31 32  1  1  0  0  0
 31 29  1  0  0  0  0
 34 35  1  0  0  0  0
 35 31  1  0  0  0  0
 35 33  1  0  0  0  0
 37 38  1  0  0  0  0
 37 36  1  0  0  0  0
 39 41  1  0  0  0  0
 40 42  1  0  0  0  0
 40 44  1  0  0  0  0
 41 48  1  0  0  0  0
 42 39  1  0  0  0  0
 42 41  2  0  0  0  0
 43 47  1  0  0  0  0
 44 46  2  0  0  0  0
 46 48  1  0  0  0  0
 46 45  1  0  0  0  0
 47 45  2  0  0  0  0
 48 38  1  0  0  0  0
 49 44  1  0  0  0  0
 49 43  2  0  0  0  0
M  END
>  <MODEL>
7

>  <REMARK>
 VINA RESULT:      -4.4      2.894      6.207
  Name = 
  18 active torsions:
  status: ('A' for Active; 'I' for Inactive)
    1  A    between atoms: C_1  and  C_17
    2  A    between atoms: C_1  and  C_37
    3  A    between atoms: C_6  and  C_41
    4  A    between atoms: N_7  and  C_42
    5  A    between atoms: C_9  and  C_41
    6  A    between atoms: C_10  and  C_13
    7  A    between atoms: C_10  and  O_39
    8  A    between atoms: C_13  and  C_22
    9  A    between atoms: C_17  and  C_38
   10  A    between atoms: C_22  and  C_47
   11  A    between atoms: C_26  and  C_43
   12  A    between atoms: C_26  and  C_44
   13  A    between atoms: N_31  and  C_44
   14  A    between atoms: C_33  and  C_34
   15  A    between atoms: C_33  and  C_41
   16  A    between atoms: C_33  and  C_42
   17  A    between atoms: C_38  and  O_39
   18  A    between atoms: C_38  and  C_43
                            x       y       z     vdW  Elec       q    Type
                         _______ _______ _______ _____ _____    ______ ____

>  <TORSDO>
F 18

$$$$
=
 OpenBabel11052409423D

 49 53  0  0  1  0  0  0  0  0999 V2000
  161.2390  210.3370  154.1490 C   0  0  0  0  0  0  0  0  0  0  0  0
  162.2510  210.2920  153.3980 O   0  0  0  0  0  0  0  0  0  0  0  0
  160.5010  209.0830  154.4980 C   0  0  2  0  0  3  0  0  0  0  0  0
  160.0560  209.1440  155.8220 O   0  0  0  0  0  1  0  0  0  0  0  0
  161.8740  207.4160  155.5170 F   0  0  0  0  0  0  0  0  0  0  0  0
  161.3880  207.8570  154.2970 C   0  0  1  0  0  3  0  0  0  0  0  0
  160.9570  205.8600  151.4330 N   0  0  0  0  0  0  0  0  0  0  0  0
  160.4710  207.0300  152.1330 C   0  0  0  0  0  2  0  0  0  0  0  0
  161.3100  205.5190  153.7240 O   0  0  0  0  0  0  0  0  0  0  0  0
  161.1510  204.8770  152.4870 C   0  0  0  0  0  2  0  0  0  0  0  0
  160.6210  206.7330  153.6010 C   0  0  1  0  0  3  0  0  0  0  0  0
  162.2770  206.1870  150.9110 C   0  0  0  0  0  2  0  0  0  0  0  0
  162.1570  206.8880  149.5630 C   0  0  2  0  0  3  0  0  0  0  0  0
  161.3640  208.1600  149.6680 C   0  0  0  0  0  3  0  0  0  0  0  0
  161.9120  209.2120  149.9480 O   0  0  0  0  0  0  0  0  0  0  0  0
  161.6180  205.9320  148.4880 C   0  0  1  0  0  3  0  0  0  0  0  0
  161.9100  206.6670  146.0720 C   0  0  0  0  0  2  0  0  0  0  0  0
  159.4300  205.8200  145.3960 O   0  0  0  0  0  0  0  0  0  0  0  0
  161.2020  205.6280  143.6770 O   0  0  0  0  0  0  0  0  0  0  0  0
  162.4880  205.8310  147.2140 C   0  0  2  0  0  3  0  0  0  0  0  0
  161.4010  204.0350  145.8530 C   0  0  0  0  0  2  0  0  0  0  0  0
  163.7740  204.2160  145.9920 O   0  0  0  0  0  1  0  0  0  0  0  0
  160.8900  205.5650  145.1450 S   0  0  0  0  0  0  0  0  0  0  0  0
  162.6000  204.3730  146.7290 C   0  0  1  0  0  3  0  0  0  0  0  0
  161.4040  204.6080  149.0930 C   0  0  0  0  0  0  0  0  0  0  0  0
  161.2390  203.5670  149.5680 N   0  0  0  0  0  0  0  0  0  0  0  0
  160.7500  211.5590  154.6120 O   0  0  0  0  0  0  0  0  0  0  0  0
  160.0400  212.4550  153.7670 C   0  0  2  0  0  3  0  0  0  0  0  0
  158.9010  213.0680  154.5190 C   0  0  0  0  0  0  0  0  0  0  0  0
  159.1150  213.7710  155.4970 O   0  0  0  0  0  0  0  0  0  0  0  0
  157.4970  212.8150  154.0630 C   0  0  2  0  0  3  0  0  0  0  0  0
  156.9180  214.0100  153.6720 F   0  0  0  0  0  0  0  0  0  0  0  0
  157.3540  211.0610  155.6810 O   0  0  0  0  0  1  0  0  0  0  0  0
  156.4620  213.0870  156.2020 O   0  0  0  0  0  1  0  0  0  0  0  0
  156.6770  212.1690  155.1720 C   0  0  0  0  0  3  0  0  0  0  0  0
  159.5220  211.7090  152.5500 C   0  0  0  0  0  2  0  0  0  0  0  0
  160.2590  212.1740  151.3090 C   0  0  0  0  0  2  0  0  0  0  0  0
  159.7790  213.5580  150.9100 C   0  0  0  0  0  2  0  0  0  0  0  0
  156.6100  213.7220  148.9150 C   0  0  0  0  0  2  0  0  0  0  0  0
  158.1600  213.4460  146.6600 O   0  0  0  0  0  0  0  0  0  0  0  0
  157.9830  213.6320  149.1270 C   0  0  0  0  0  0  0  0  0  0  0  0
  157.4670  213.5800  147.8280 C   0  0  0  0  0  0  0  0  0  0  0  0
  161.8240  213.0970  146.0580 C   0  0  0  0  0  3  0  0  0  0  0  0
  159.5760  213.3460  146.9400 C   0  0  0  0  0  0  0  0  0  0  0  0
  161.5400  213.2720  148.4600 C   0  0  0  0  0  3  0  0  0  0  0  0
  160.1520  213.3880  148.3180 C   0  0  0  0  0  0  0  0  0  0  0  0
  162.3640  213.1280  147.3430 C   0  0  0  0  0  3  0  0  0  0  0  0
  159.3170  213.5580  149.5280 N   0  0  0  0  0  0  0  0  0  0  0  0
  160.4460  213.2050  145.8570 C   0  0  0  0  0  3  0  0  0  0  0  0
  1  3  1  0  0  0  0
  1 27  1  0  0  0  0
  2  1  2  0  0  0  0
  3  4  1  1  0  0  0
  6  3  1  0  0  0  0
  6  5  1  1  0  0  0
  7  8  1  0  0  0  0
  7 10  1  0  0  0  0
  8 11  1  0  0  0  0
 10  9  1  0  0  0  0
 11  9  1  0  0  0  0
 11  6  1  1  0  0  0
 12  7  1  0  0  0  0
 13 14  1  1  0  0  0
 13 12  1  0  0  0  0
 14 15  2  0  0  0  0
 16 25  1  1  0  0  0
 16 13  1  0  0  0  0
 17 20  1  0  0  0  0
 19 23  2  0  0  0  0
 20 16  1  1  0  0  0
 21 24  1  0  0  0  0
 23 18  2  0  0  0  0
 23 21  1  0  0  0  0
 23 17  1  0  0  0  0
 24 22  1  6  0  0  0
 24 20  1  0  0  0  0
 25 26  3  0  0  0  0
 28 36  1  6  0  0  0
 28 29  1  0  0  0  0
 28 27  1  0  0  0  0
 29 30  2  0  0  0  0
 31 32  1  1  0  0  0
 31 29  1  0  0  0  0
 31 35  1  0  0  0  0
 35 33  1  0  0  0  0
 35 34  1  0  0  0  0
 37 36  1  0  0  0  0
 38 37  1  0  0  0  0
 39 41  1  0  0  0  0
 40 44  1  0  0  0  0
 40 42  1  0  0  0  0
 41 48  1  0  0  0  0
 42 39  1  0  0  0  0
 42 41  2  0  0  0  0
 43 47  1  0  0  0  0
 44 46  2  0  0  0  0
 46 45  1  0  0  0  0
 46 48  1  0  0  0  0
 47 45  2  0  0  0  0
 48 38  1  0  0  0  0
 49 43  2  0  0  0  0
 49 44  1  0  0  0  0
M  END
>  <MODEL>
8

>  <REMARK>
 VINA RESULT:      -4.3      3.213      8.840
  Name = 
  18 active torsions:
  status: ('A' for Active; 'I' for Inactive)
    1  A    between atoms: C_1  and  C_17
    2  A    between atoms: C_1  and  C_37
    3  A    between atoms: C_6  and  C_41
    4  A    between atoms: N_7  and  C_42
    5  A    between atoms: C_9  and  C_41
    6  A    between atoms: C_10  and  C_13
    7  A    between atoms: C_10  and  O_39
    8  A    between atoms: C_13  and  C_22
    9  A    between atoms: C_17  and  C_38
   10  A    between atoms: C_22  and  C_47
   11  A    between atoms: C_26  and  C_43
   12  A    between atoms: C_26  and  C_44
   13  A    between atoms: N_31  and  C_44
   14  A    between atoms: C_33  and  C_34
   15  A    between atoms: C_33  and  C_41
   16  A    between atoms: C_33  and  C_42
   17  A    between atoms: C_38  and  O_39
   18  A    between atoms: C_38  and  C_43
                            x       y       z     vdW  Elec       q    Type
                         _______ _______ _______ _____ _____    ______ ____

>  <TORSDO>
F 18

$$$$
=
 OpenBabel11052409423D

 49 53  0  0  1  0  0  0  0  0999 V2000
  161.8710  209.0640  151.4120 C   0  0  0  0  0  0  0  0  0  0  0  0
  161.5440  209.9920  150.6220 O   0  0  0  0  0  0  0  0  0  0  0  0
  162.1150  207.6820  150.8960 C   0  0  2  0  0  3  0  0  0  0  0  0
  162.6070  207.7390  149.5890 O   0  0  0  0  0  1  0  0  0  0  0  0
  160.5120  206.4060  149.6690 F   0  0  0  0  0  0  0  0  0  0  0  0
  160.8340  206.8520  150.9410 C   0  0  1  0  0  3  0  0  0  0  0  0
  161.1760  203.3740  151.3480 N   0  0  0  0  0  0  0  0  0  0  0  0
  160.2320  204.4710  151.3610 C   0  0  0  0  0  2  0  0  0  0  0  0
  162.3300  205.3010  152.0180 O   0  0  0  0  0  0  0  0  0  0  0  0
  162.3330  203.8980  152.0580 C   0  0  0  0  0  2  0  0  0  0  0  0
  160.9820  205.6640  151.8910 C   0  0  1  0  0  3  0  0  0  0  0  0
  161.5850  203.1740  149.9640 C   0  0  0  0  0  2  0  0  0  0  0  0
  160.4060  202.6930  149.1260 C   0  0  2  0  0  3  0  0  0  0  0  0
  160.0610  201.2620  149.4230 C   0  0  0  0  0  3  0  0  0  0  0  0
  158.9330  200.9530  149.7710 O   0  0  0  0  0  0  0  0  0  0  0  0
  160.6460  202.9560  147.6320 C   0  0  1  0  0  3  0  0  0  0  0  0
  160.7570  205.3510  146.7860 C   0  0  0  0  0  2  0  0  0  0  0  0
  159.4950  204.7160  144.4790 O   0  0  0  0  0  0  0  0  0  0  0  0
  161.2190  206.4890  144.3770 O   0  0  0  0  0  0  0  0  0  0  0  0
  161.5590  204.1650  147.3240 C   0  0  2  0  0  3  0  0  0  0  0  0
  162.0570  203.9680  144.8800 C   0  0  0  0  0  2  0  0  0  0  0  0
  163.7340  204.6420  146.4330 O   0  0  0  0  0  1  0  0  0  0  0  0
  160.8070  205.2010  145.0290 S   0  0  0  0  0  0  0  0  0  0  0  0
  162.6320  203.8010  146.2810 C   0  0  1  0  0  3  0  0  0  0  0  0
  161.1600  201.7270  147.0090 C   0  0  0  0  0  0  0  0  0  0  0  0
  161.5680  200.7620  146.5190 N   0  0  0  0  0  0  0  0  0  0  0  0
  161.9430  209.2940  152.7870 O   0  0  0  0  0  0  0  0  0  0  0  0
  161.4480  210.4870  153.3790 C   0  0  2  0  0  3  0  0  0  0  0  0
  161.9540  210.6080  154.7810 C   0  0  0  0  0  0  0  0  0  0  0  0
  163.1520  210.7280  154.9950 O   0  0  0  0  0  0  0  0  0  0  0  0
  160.9830  210.5810  155.9200 C   0  0  2  0  0  3  0  0  0  0  0  0
  161.1460  211.7190  156.6910 F   0  0  0  0  0  0  0  0  0  0  0  0
  159.9470  208.7610  157.0720 O   0  0  0  0  0  1  0  0  0  0  0  0
  161.9610  208.4050  156.0810 O   0  0  0  0  0  1  0  0  0  0  0  0
  161.1820  209.3340  156.7720 C   0  0  0  0  0  3  0  0  0  0  0  0
  159.9290  210.4690  153.3720 C   0  0  0  0  0  2  0  0  0  0  0  0
  159.4030  211.6920  152.6450 C   0  0  0  0  0  2  0  0  0  0  0  0
  158.9300  212.7270  153.6500 C   0  0  0  0  0  2  0  0  0  0  0  0
  155.6070  213.6850  155.0960 C   0  0  0  0  0  2  0  0  0  0  0  0
  154.8150  214.3170  152.5390 O   0  0  0  0  0  0  0  0  0  0  0  0
  156.5650  213.5110  154.1000 C   0  0  0  0  0  0  0  0  0  0  0  0
  155.2890  213.9810  153.7740 C   0  0  0  0  0  0  0  0  0  0  0  0
  156.4850  214.2170  149.2070 C   0  0  0  0  0  3  0  0  0  0  0  0
  155.8450  214.1070  151.5460 C   0  0  0  0  0  0  0  0  0  0  0  0
  158.1200  213.4260  150.8140 C   0  0  0  0  0  3  0  0  0  0  0  0
  157.2130  213.5960  151.8660 C   0  0  0  0  0  0  0  0  0  0  0  0
  157.7600  213.7320  149.5020 C   0  0  0  0  0  3  0  0  0  0  0  0
  157.6420  213.2770  153.2460 N   0  0  0  0  0  0  0  0  0  0  0  0
  155.5390  214.4020  150.2150 C   0  0  0  0  0  3  0  0  0  0  0  0
  1 27  1  0  0  0  0
  2  1  2  0  0  0  0
  3  4  1  6  0  0  0
  3  6  1  0  0  0  0
  3  1  1  0  0  0  0
  6  5  1  6  0  0  0
  7  8  1  0  0  0  0
  7 10  1  0  0  0  0
  8 11  1  0  0  0  0
  9 10  1  0  0  0  0
 11  6  1  6  0  0  0
 11  9  1  0  0  0  0
 12  7  1  0  0  0  0
 13 14  1  6  0  0  0
 13 12  1  0  0  0  0
 14 15  2  0  0  0  0
 16 25  1  1  0  0  0
 16 13  1  0  0  0  0
 17 20  1  0  0  0  0
 18 23  2  0  0  0  0
 19 23  2  0  0  0  0
 20 16  1  6  0  0  0
 21 23  1  0  0  0  0
 21 24  1  0  0  0  0
 23 17  1  0  0  0  0
 24 22  1  6  0  0  0
 24 20  1  0  0  0  0
 26 25  3  0  0  0  0
 27 28  1  0  0  0  0
 28 36  1  1  0  0  0
 28 29  1  0  0  0  0
 29 30  2  0  0  0  0
 29 31  1  0  0  0  0
 31 32  1  1  0  0  0
 31 35  1  0  0  0  0
 34 35  1  0  0  0  0
 35 33  1  0  0  0  0
 37 36  1  0  0  0  0
 37 38  1  0  0  0  0
 40 42  1  0  0  0  0
 41 39  1  0  0  0  0
 42 41  2  0  0  0  0
 42 39  1  0  0  0  0
 43 47  2  0  0  0  0
 43 49  1  0  0  0  0
 44 46  1  0  0  0  0
 44 40  1  0  0  0  0
 45 46  2  0  0  0  0
 46 48  1  0  0  0  0
 47 45  1  0  0  0  0
 48 38  1  0  0  0  0
 48 41  1  0  0  0  0
 49 44  2  0  0  0  0
M  END
>  <MODEL>
9

>  <REMARK>
 VINA RESULT:      -4.3      3.027     10.288
  Name = 
  18 active torsions:
  status: ('A' for Active; 'I' for Inactive)
    1  A    between atoms: C_1  and  C_17
    2  A    between atoms: C_1  and  C_37
    3  A    between atoms: C_6  and  C_41
    4  A    between atoms: N_7  and  C_42
    5  A    between atoms: C_9  and  C_41
    6  A    between atoms: C_10  and  C_13
    7  A    between atoms: C_10  and  O_39
    8  A    between atoms: C_13  and  C_22
    9  A    between atoms: C_17  and  C_38
   10  A    between atoms: C_22  and  C_47
   11  A    between atoms: C_26  and  C_43
   12  A    between atoms: C_26  and  C_44
   13  A    between atoms: N_31  and  C_44
   14  A    between atoms: C_33  and  C_34
   15  A    between atoms: C_33  and  C_41
   16  A    between atoms: C_33  and  C_42
   17  A    between atoms: C_38  and  O_39
   18  A    between atoms: C_38  and  C_43
                            x       y       z     vdW  Elec       q    Type
                         _______ _______ _______ _____ _____    ______ ____

>  <TORSDO>
F 18

$$$$
