=
 OpenBabel11042421083D

 28 31  0  0  1  0  0  0  0  0999 V2000
  161.3760  206.6740  151.7880 C   0  0  1  0  0  0  0  0  0  0  0  0
  162.7410  206.3730  151.8580 O   0  0  0  0  0  1  0  0  0  0  0  0
  160.9520  208.8350  152.9670 N   0  0  0  0  0  0  0  0  0  0  0  0
  160.9910  207.4740  153.0300 C   0  0  0  0  0  0  0  0  0  0  0  0
  160.6280  210.9880  153.9410 C   0  0  0  0  0  3  0  0  0  0  0  0
  160.3990  208.9880  155.2970 C   0  0  0  0  0  0  0  0  0  0  0  0
  160.0780  211.1550  156.2610 N   0  0  0  0  0  0  0  0  0  0  0  0
  160.3290  211.7570  155.0670 C   0  0  0  0  0  3  0  0  0  0  0  0
  160.7490  206.8350  154.2570 C   0  0  0  0  0  3  0  0  0  0  0  0
  160.6620  209.5980  154.0530 C   0  0  0  0  0  0  0  0  0  0  0  0
  160.1870  206.8760  156.6770 C   0  0  0  0  0  1  0  0  0  0  0  0
  160.4460  207.5880  155.3920 C   0  0  0  0  0  0  0  0  0  0  0  0
  160.1060  209.8010  156.3990 C   0  0  0  0  0  3  0  0  0  0  0  0
  160.8960  206.6030  147.0690 C   0  0  0  0  0  1  0  0  0  0  0  0
  161.5720  206.7560  148.4210 C   0  0  2  0  0  3  0  0  0  0  0  0
  162.3850  208.2300  150.0290 C   0  0  0  0  0  2  0  0  0  0  0  0
  160.6280  206.7000  149.4600 O   0  0  0  0  0  0  0  0  0  0  0  0
  162.3660  208.0400  148.5490 C   0  0  2  0  0  3  0  0  0  0  0  0
  161.1340  207.5020  150.5060 C   0  0  1  0  0  3  0  0  0  0  0  0
  161.6820  209.1130  147.9670 O   0  0  0  0  0  1  0  0  0  0  0  0
  160.6200  205.3240  151.6460 C   0  0  2  0  0  3  0  0  0  0  0  0
  160.3580  203.2090  152.7100 O   0  0  0  0  0  1  0  0  0  0  0  0
  161.3140  204.1450  152.3080 C   0  0  1  0  0  3  0  0  0  0  0  0
  161.3450  204.3020  150.7840 C   0  0  1  0  0  3  0  0  0  0  0  0
  160.4030  203.4670  150.1530 O   0  0  0  0  0  0  0  0  0  0  0  0
  160.4850  201.2870  149.3330 O   0  0  0  0  0  1  0  0  0  0  0  0
  161.0920  202.5480  149.3300 C   0  0  1  0  0  3  0  0  0  0  0  0
  161.2830  203.0630  147.9090 C   0  0  0  0  0  1  0  0  0  0  0  0
  1  2  1  1  0  0  0
  1  4  1  0  0  0  0
  3  4  2  0  0  0  0
  3 10  1  0  0  0  0
  4  9  1  0  0  0  0
  5 10  2  0  0  0  0
  5  8  1  0  0  0  0
  6 12  1  0  0  0  0
  6 13  2  0  0  0  0
  7 13  1  0  0  0  0
  8  7  2  0  0  0  0
  9 12  2  0  0  0  0
 10  6  1  0  0  0  0
 12 11  1  0  0  0  0
 15 14  1  6  0  0  0
 15 18  1  0  0  0  0
 15 17  1  0  0  0  0
 16 19  1  0  0  0  0
 17 19  1  0  0  0  0
 18 20  1  6  0  0  0
 18 16  1  0  0  0  0
 19  1  1  1  0  0  0
 21  1  1  1  0  0  0
 21 23  1  0  0  0  0
 23 22  1  6  0  0  0
 24 25  1  6  0  0  0
 24 21  1  0  0  0  0
 24 23  1  0  0  0  0
 27 28  1  6  0  0  0
 27 26  1  0  0  0  0
 27 25  1  0  0  0  0
M  END
>  <MODEL>
1

>  <REMARK>
 VINA RESULT:      -8.2      0.000      0.000
  Name = 
  5 active torsions:
  status: ('A' for Active; 'I' for Inactive)
    1  A    between atoms: C_2  and  C_8
    2  A    between atoms: C_5  and  O_12
    3  A    between atoms: C_6  and  C_8
    4  A    between atoms: C_8  and  C_22
    5  A    between atoms: O_12  and  C_18
                            x       y       z     vdW  Elec       q    Type
                         _______ _______ _______ _____ _____    ______ ____

>  <TORSDO>
F 5

$$$$
=
 OpenBabel11042421083D

 28 31  0  0  1  0  0  0  0  0999 V2000
  161.4480  206.3980  151.3660 C   0  0  1  0  0  0  0  0  0  0  0  0
  162.8040  206.0560  151.3380 O   0  0  0  0  0  1  0  0  0  0  0  0
  160.9680  206.6980  153.8000 N   0  0  0  0  0  0  0  0  0  0  0  0
  161.1940  207.2790  152.5870 C   0  0  0  0  0  0  0  0  0  0  0  0
  160.4710  206.7930  156.1300 C   0  0  0  0  0  3  0  0  0  0  0  0
  160.6180  208.8370  154.8290 C   0  0  0  0  0  0  0  0  0  0  0  0
  160.1190  208.9180  157.1680 N   0  0  0  0  0  0  0  0  0  0  0  0
  160.1850  207.5620  157.2600 C   0  0  0  0  0  3  0  0  0  0  0  0
  161.1150  208.6760  152.4690 C   0  0  0  0  0  3  0  0  0  0  0  0
  160.6900  207.4310  154.9090 C   0  0  0  0  0  0  0  0  0  0  0  0
  160.7650  210.9420  153.4280 C   0  0  0  0  0  1  0  0  0  0  0  0
  160.8340  209.4600  153.5890 C   0  0  0  0  0  0  0  0  0  0  0  0
  160.3270  209.5660  155.9890 C   0  0  0  0  0  3  0  0  0  0  0  0
  160.8830  206.1290  146.6630 C   0  0  0  0  0  1  0  0  0  0  0  0
  161.5720  206.3780  147.9940 C   0  0  2  0  0  3  0  0  0  0  0  0
  162.3040  207.9630  149.5350 C   0  0  0  0  0  2  0  0  0  0  0  0
  160.6550  206.2880  149.0550 O   0  0  0  0  0  0  0  0  0  0  0  0
  162.2710  207.7210  148.0630 C   0  0  2  0  0  3  0  0  0  0  0  0
  161.1200  207.1620  150.0630 C   0  0  1  0  0  3  0  0  0  0  0  0
  161.4980  208.7190  147.4610 O   0  0  0  0  0  1  0  0  0  0  0  0
  160.6430  205.0690  151.3680 C   0  0  2  0  0  3  0  0  0  0  0  0
  160.4830  202.9840  152.5080 O   0  0  0  0  0  1  0  0  0  0  0  0
  161.3950  203.8840  151.9490 C   0  0  1  0  0  3  0  0  0  0  0  0
  161.2070  204.0090  150.4340 C   0  0  1  0  0  3  0  0  0  0  0  0
  160.1620  203.1910  149.9660 O   0  0  0  0  0  0  0  0  0  0  0  0
  161.6020  203.0280  148.1410 O   0  0  0  0  0  1  0  0  0  0  0  0
  160.6610  202.3640  148.9350 C   0  0  1  0  0  3  0  0  0  0  0  0
  161.2160  201.0450  149.4590 C   0  0  0  0  0  1  0  0  0  0  0  0
  1  2  1  6  0  0  0
  1  4  1  0  0  0  0
  3 10  1  0  0  0  0
  4  3  2  0  0  0  0
  5  8  1  0  0  0  0
  6 10  1  0  0  0  0
  6 13  2  0  0  0  0
  7  8  2  0  0  0  0
  9  4  1  0  0  0  0
  9 12  2  0  0  0  0
 10  5  2  0  0  0  0
 11 12  1  0  0  0  0
 12  6  1  0  0  0  0
 13  7  1  0  0  0  0
 15 14  1  6  0  0  0
 15 18  1  0  0  0  0
 15 17  1  0  0  0  0
 16 19  1  0  0  0  0
 17 19  1  0  0  0  0
 18 20  1  6  0  0  0
 18 16  1  0  0  0  0
 19  1  1  1  0  0  0
 21  1  1  6  0  0  0
 21 23  1  0  0  0  0
 23 22  1  1  0  0  0
 24 25  1  1  0  0  0
 24 21  1  0  0  0  0
 24 23  1  0  0  0  0
 26 27  1  0  0  0  0
 27 28  1  1  0  0  0
 27 25  1  0  0  0  0
M  END
>  <MODEL>
2

>  <REMARK>
 VINA RESULT:      -7.6      1.001      2.068
  Name = 
  5 active torsions:
  status: ('A' for Active; 'I' for Inactive)
    1  A    between atoms: C_2  and  C_8
    2  A    between atoms: C_5  and  O_12
    3  A    between atoms: C_6  and  C_8
    4  A    between atoms: C_8  and  C_22
    5  A    between atoms: O_12  and  C_18
                            x       y       z     vdW  Elec       q    Type
                         _______ _______ _______ _____ _____    ______ ____

>  <TORSDO>
F 5

$$$$
=
 OpenBabel11042421083D

 28 31  0  0  1  0  0  0  0  0999 V2000
  161.0440  205.9860  149.9430 C   0  0  1  0  0  0  0  0  0  0  0  0
  159.7650  205.9750  149.3770 O   0  0  0  0  0  1  0  0  0  0  0  0
  160.9440  208.1720  151.1500 N   0  0  0  0  0  0  0  0  0  0  0  0
  161.0010  206.8110  151.2260 C   0  0  0  0  0  0  0  0  0  0  0  0
  160.8860  210.3440  152.1310 C   0  0  0  0  0  3  0  0  0  0  0  0
  161.0290  208.3720  153.5390 C   0  0  0  0  0  0  0  0  0  0  0  0
  160.9710  210.5590  154.5110 N   0  0  0  0  0  0  0  0  0  0  0  0
  160.8960  211.1360  153.2810 C   0  0  0  0  0  3  0  0  0  0  0  0
  161.0940  206.1970  152.4860 C   0  0  0  0  0  3  0  0  0  0  0  0
  160.9520  208.9570  152.2580 C   0  0  0  0  0  0  0  0  0  0  0  0
  161.1940  206.2880  154.9680 C   0  0  0  0  0  1  0  0  0  0  0  0
  161.1010  206.9740  153.6460 C   0  0  0  0  0  0  0  0  0  0  0  0
  161.0370  209.2080  154.6630 C   0  0  0  0  0  3  0  0  0  0  0  0
  161.2590  201.5310  148.3260 C   0  0  0  0  0  1  0  0  0  0  0  0
  160.7180  202.7460  149.0620 C   0  0  2  0  0  3  0  0  0  0  0  0
  160.4260  203.8010  151.1160 C   0  0  0  0  0  2  0  0  0  0  0  0
  161.6580  203.7900  149.0570 O   0  0  0  0  0  0  0  0  0  0  0  0
  160.3210  202.4480  150.4930 C   0  0  2  0  0  3  0  0  0  0  0  0
  161.4460  204.5240  150.2450 C   0  0  1  0  0  3  0  0  0  0  0  0
  161.2480  201.5980  151.1050 O   0  0  0  0  0  1  0  0  0  0  0  0
  162.0140  206.5450  148.8650 C   0  0  2  0  0  3  0  0  0  0  0  0
  162.8020  208.5960  147.9460 O   0  0  0  0  0  1  0  0  0  0  0  0
  161.6440  207.9250  148.3470 C   0  0  1  0  0  3  0  0  0  0  0  0
  161.3840  206.6840  147.4880 C   0  0  1  0  0  3  0  0  0  0  0  0
  162.3740  206.5140  146.5000 O   0  0  0  0  0  0  0  0  0  0  0  0
  162.0190  204.3170  145.8100 O   0  0  0  0  0  1  0  0  0  0  0  0
  161.8640  205.6700  145.4880 C   0  0  1  0  0  3  0  0  0  0  0  0
  160.4170  205.9890  145.1340 C   0  0  0  0  0  1  0  0  0  0  0  0
  1  2  1  6  0  0  0
  1  4  1  0  0  0  0
  3  4  2  0  0  0  0
  3 10  1  0  0  0  0
  4  9  1  0  0  0  0
  5 10  2  0  0  0  0
  5  8  1  0  0  0  0
  6 12  1  0  0  0  0
  6 13  2  0  0  0  0
  7 13  1  0  0  0  0
  8  7  2  0  0  0  0
  9 12  2  0  0  0  0
 10  6  1  0  0  0  0
 12 11  1  0  0  0  0
 15 14  1  1  0  0  0
 15 18  1  0  0  0  0
 17 15  1  0  0  0  0
 17 19  1  0  0  0  0
 18 20  1  1  0  0  0
 18 16  1  0  0  0  0
 19  1  1  6  0  0  0
 19 16  1  0  0  0  0
 21  1  1  1  0  0  0
 23 22  1  6  0  0  0
 23 21  1  0  0  0  0
 24 25  1  6  0  0  0
 24 23  1  0  0  0  0
 24 21  1  0  0  0  0
 27 28  1  1  0  0  0
 27 26  1  0  0  0  0
 27 25  1  0  0  0  0
M  END
>  <MODEL>
3

>  <REMARK>
 VINA RESULT:      -7.5      1.668      4.070
  Name = 
  5 active torsions:
  status: ('A' for Active; 'I' for Inactive)
    1  A    between atoms: C_2  and  C_8
    2  A    between atoms: C_5  and  O_12
    3  A    between atoms: C_6  and  C_8
    4  A    between atoms: C_8  and  C_22
    5  A    between atoms: O_12  and  C_18
                            x       y       z     vdW  Elec       q    Type
                         _______ _______ _______ _____ _____    ______ ____

>  <TORSDO>
F 5

$$$$
=
 OpenBabel11042421083D

 28 31  0  0  1  0  0  0  0  0999 V2000
  161.1070  206.1820  150.2960 C   0  0  1  0  0  0  0  0  0  0  0  0
  159.8100  206.0580  149.7860 O   0  0  0  0  0  1  0  0  0  0  0  0
  160.9090  206.5200  152.7640 N   0  0  0  0  0  0  0  0  0  0  0  0
  161.0610  207.0800  151.5300 C   0  0  0  0  0  0  0  0  0  0  0  0
  160.6670  206.6560  155.1320 C   0  0  0  0  0  3  0  0  0  0  0  0
  160.8600  208.6800  153.8070 C   0  0  0  0  0  0  0  0  0  0  0  0
  160.6150  208.8030  156.1840 N   0  0  0  0  0  0  0  0  0  0  0  0
  160.5690  207.4460  156.2800 C   0  0  0  0  0  3  0  0  0  0  0  0
  161.0950  208.4790  151.4090 C   0  0  0  0  0  3  0  0  0  0  0  0
  160.8140  207.2730  153.8900 C   0  0  0  0  0  0  0  0  0  0  0  0
  161.0490  210.7650  152.3820 C   0  0  0  0  0  1  0  0  0  0  0  0
  161.0020  209.2830  152.5460 C   0  0  0  0  0  0  0  0  0  0  0  0
  160.7570  209.4300  154.9850 C   0  0  0  0  0  3  0  0  0  0  0  0
  161.0590  201.5610  149.2220 C   0  0  0  0  0  1  0  0  0  0  0  0
  160.6740  202.8580  149.9150 C   0  0  2  0  0  3  0  0  0  0  0  0
  160.8520  204.1590  151.8370 C   0  0  0  0  0  2  0  0  0  0  0  0
  161.5550  203.8930  149.5590 O   0  0  0  0  0  0  0  0  0  0  0  0
  160.6400  202.7400  151.4250 C   0  0  2  0  0  3  0  0  0  0  0  0
  161.6120  204.7690  150.6660 C   0  0  1  0  0  3  0  0  0  0  0  0
  161.7120  201.9720  151.8930 O   0  0  0  0  0  1  0  0  0  0  0  0
  161.9970  206.7320  149.1470 C   0  0  2  0  0  3  0  0  0  0  0  0
  162.6170  208.7680  148.0770 O   0  0  0  0  0  1  0  0  0  0  0  0
  161.5200  208.0530  148.5650 C   0  0  1  0  0  3  0  0  0  0  0  0
  161.3080  206.7480  147.7920 C   0  0  1  0  0  3  0  0  0  0  0  0
  162.2670  206.5790  146.7750 O   0  0  0  0  0  0  0  0  0  0  0  0
  161.7280  204.3670  146.2770 O   0  0  0  0  0  1  0  0  0  0  0  0
  161.7520  205.6860  145.8090 C   0  0  1  0  0  3  0  0  0  0  0  0
  160.3840  206.1100  145.2900 C   0  0  0  0  0  1  0  0  0  0  0  0
  1  2  1  6  0  0  0
  1  4  1  0  0  0  0
  3 10  1  0  0  0  0
  4  3  2  0  0  0  0
  5  8  1  0  0  0  0
  6 10  1  0  0  0  0
  6 13  2  0  0  0  0
  7  8  2  0  0  0  0
  9  4  1  0  0  0  0
  9 12  2  0  0  0  0
 10  5  2  0  0  0  0
 11 12  1  0  0  0  0
 12  6  1  0  0  0  0
 13  7  1  0  0  0  0
 15 14  1  6  0  0  0
 15 18  1  0  0  0  0
 17 15  1  0  0  0  0
 17 19  1  0  0  0  0
 18 16  1  0  0  0  0
 18 20  1  1  0  0  0
 19  1  1  6  0  0  0
 19 16  1  0  0  0  0
 21  1  1  1  0  0  0
 23 22  1  6  0  0  0
 23 21  1  0  0  0  0
 24 25  1  6  0  0  0
 24 23  1  0  0  0  0
 24 21  1  0  0  0  0
 27 28  1  1  0  0  0
 27 26  1  0  0  0  0
 27 25  1  0  0  0  0
M  END
>  <MODEL>
4

>  <REMARK>
 VINA RESULT:      -7.4      1.589      4.333
  Name = 
  5 active torsions:
  status: ('A' for Active; 'I' for Inactive)
    1  A    between atoms: C_2  and  C_8
    2  A    between atoms: C_5  and  O_12
    3  A    between atoms: C_6  and  C_8
    4  A    between atoms: C_8  and  C_22
    5  A    between atoms: O_12  and  C_18
                            x       y       z     vdW  Elec       q    Type
                         _______ _______ _______ _____ _____    ______ ____

>  <TORSDO>
F 5

$$$$
=
 OpenBabel11042421083D

 28 31  0  0  1  0  0  0  0  0999 V2000
  161.6800  206.7120  151.0410 C   0  0  1  0  0  0  0  0  0  0  0  0
  163.0270  206.8070  151.4080 O   0  0  0  0  0  1  0  0  0  0  0  0
  161.6330  205.5770  148.8160 N   0  0  0  0  0  0  0  0  0  0  0  0
  161.5010  205.4720  150.1690 C   0  0  0  0  0  0  0  0  0  0  0  0
  161.5900  204.6700  146.6100 C   0  0  0  0  0  3  0  0  0  0  0  0
  161.0770  203.2620  148.5200 C   0  0  0  0  0  0  0  0  0  0  0  0
  161.0370  202.3650  146.3010 N   0  0  0  0  0  0  0  0  0  0  0  0
  161.3840  203.5710  145.7740 C   0  0  0  0  0  3  0  0  0  0  0  0
  161.1280  204.2390  150.7290 C   0  0  0  0  0  3  0  0  0  0  0  0
  161.4380  204.5170  147.9880 C   0  0  0  0  0  0  0  0  0  0  0  0
  160.5330  201.8340  150.5390 C   0  0  0  0  0  1  0  0  0  0  0  0
  160.9220  203.1290  149.9090 C   0  0  0  0  0  0  0  0  0  0  0  0
  160.8810  202.1880  147.6410 C   0  0  0  0  0  3  0  0  0  0  0  0
  160.0930  208.9190  154.9290 C   0  0  0  0  0  1  0  0  0  0  0  0
  160.9820  208.0440  154.0610 C   0  0  2  0  0  3  0  0  0  0  0  0
  161.5750  205.8760  153.4540 C   0  0  0  0  0  2  0  0  0  0  0  0
  160.4170  207.8680  152.7870 O   0  0  0  0  0  0  0  0  0  0  0  0
  161.2560  206.6830  154.6680 C   0  0  2  0  0  3  0  0  0  0  0  0
  160.8390  206.5990  152.3330 C   0  0  1  0  0  3  0  0  0  0  0  0
  160.1050  206.1600  155.2660 O   0  0  0  0  0  1  0  0  0  0  0  0
  161.3080  208.0430  150.3310 C   0  0  2  0  0  3  0  0  0  0  0  0
  161.6090  209.2120  148.2780 O   0  0  0  0  0  1  0  0  0  0  0  0
  162.2860  208.4700  149.2490 C   0  0  1  0  0  3  0  0  0  0  0  0
  162.2800  209.1780  150.6070 C   0  0  1  0  0  3  0  0  0  0  0  0
  161.5950  210.4070  150.5540 O   0  0  0  0  0  0  0  0  0  0  0  0
  162.1050  210.7050  152.8090 O   0  0  0  0  0  1  0  0  0  0  0  0
  161.0940  210.7030  151.8410 C   0  0  1  0  0  3  0  0  0  0  0  0
  160.2990  212.0020  151.8750 C   0  0  0  0  0  1  0  0  0  0  0  0
  1  2  1  1  0  0  0
  3  4  1  0  0  0  0
  4  9  2  0  0  0  0
  4  1  1  0  0  0  0
  5 10  1  0  0  0  0
  6 12  2  0  0  0  0
  7 13  2  0  0  0  0
  8  7  1  0  0  0  0
  8  5  2  0  0  0  0
 10  6  1  0  0  0  0
 10  3  2  0  0  0  0
 12 11  1  0  0  0  0
 12  9  1  0  0  0  0
 13  6  1  0  0  0  0
 15 18  1  0  0  0  0
 15 14  1  1  0  0  0
 16 18  1  0  0  0  0
 17 15  1  0  0  0  0
 18 20  1  6  0  0  0
 19  1  1  6  0  0  0
 19 17  1  0  0  0  0
 19 16  1  0  0  0  0
 21 24  1  0  0  0  0
 21  1  1  1  0  0  0
 23 22  1  6  0  0  0
 23 21  1  0  0  0  0
 23 24  1  0  0  0  0
 24 25  1  6  0  0  0
 25 27  1  0  0  0  0
 27 28  1  6  0  0  0
 27 26  1  0  0  0  0
M  END
>  <MODEL>
5

>  <REMARK>
 VINA RESULT:      -7.3      2.964      7.472
  Name = 
  5 active torsions:
  status: ('A' for Active; 'I' for Inactive)
    1  A    between atoms: C_2  and  C_8
    2  A    between atoms: C_5  and  O_12
    3  A    between atoms: C_6  and  C_8
    4  A    between atoms: C_8  and  C_22
    5  A    between atoms: O_12  and  C_18
                            x       y       z     vdW  Elec       q    Type
                         _______ _______ _______ _____ _____    ______ ____

>  <TORSDO>
F 5

$$$$
=
 OpenBabel11042421083D

 28 31  0  0  1  0  0  0  0  0999 V2000
  161.6750  206.8880  151.1030 C   0  0  1  0  0  0  0  0  0  0  0  0
  163.0230  206.9440  151.4740 O   0  0  0  0  0  1  0  0  0  0  0  0
  161.2500  204.4530  150.7370 N   0  0  0  0  0  0  0  0  0  0  0  0
  161.4730  205.6820  150.1890 C   0  0  0  0  0  0  0  0  0  0  0  0
  160.8780  202.1030  150.5770 C   0  0  0  0  0  3  0  0  0  0  0  0
  161.2060  203.4260  148.5690 C   0  0  0  0  0  0  0  0  0  0  0  0
  160.8320  201.0660  148.4230 N   0  0  0  0  0  0  0  0  0  0  0  0
  160.7380  200.9670  149.7770 C   0  0  0  0  0  3  0  0  0  0  0  0
  161.5880  205.8020  148.7940 C   0  0  0  0  0  3  0  0  0  0  0  0
  161.1110  203.3380  149.9730 C   0  0  0  0  0  0  0  0  0  0  0  0
  161.5690  204.8420  146.5020 C   0  0  0  0  0  1  0  0  0  0  0  0
  161.4480  204.6770  147.9790 C   0  0  0  0  0  0  0  0  0  0  0  0
  161.0600  202.2580  147.8080 C   0  0  0  0  0  3  0  0  0  0  0  0
  160.1730  208.9730  155.0900 C   0  0  0  0  0  1  0  0  0  0  0  0
  161.0280  208.1060  154.1820 C   0  0  2  0  0  3  0  0  0  0  0  0
  161.5380  205.9470  153.4750 C   0  0  0  0  0  2  0  0  0  0  0  0
  160.4570  208.0100  152.9010 O   0  0  0  0  0  0  0  0  0  0  0  0
  161.2500  206.7090  154.7260 C   0  0  2  0  0  3  0  0  0  0  0  0
  160.8300  206.7480  152.3890 C   0  0  1  0  0  3  0  0  0  0  0  0
  160.0800  206.2030  155.3010 O   0  0  0  0  0  1  0  0  0  0  0  0
  161.3300  208.2490  150.4380 C   0  0  2  0  0  3  0  0  0  0  0  0
  161.6800  209.4920  148.4360 O   0  0  0  0  0  1  0  0  0  0  0  0
  162.3310  208.7050  149.3900 C   0  0  1  0  0  3  0  0  0  0  0  0
  162.3090  209.3620  150.7740 C   0  0  1  0  0  3  0  0  0  0  0  0
  161.6390  210.6000  150.7560 O   0  0  0  0  0  0  0  0  0  0  0  0
  161.9590  210.8920  153.0460 O   0  0  0  0  0  1  0  0  0  0  0  0
  161.0220  210.8000  152.0110 C   0  0  1  0  0  3  0  0  0  0  0  0
  160.0790  211.9960  152.0160 C   0  0  0  0  0  1  0  0  0  0  0  0
  1  2  1  1  0  0  0
  4  3  1  0  0  0  0
  4  1  1  0  0  0  0
  6 10  1  0  0  0  0
  7  8  1  0  0  0  0
  8  5  2  0  0  0  0
  9  4  2  0  0  0  0
 10  5  1  0  0  0  0
 10  3  2  0  0  0  0
 11 12  1  0  0  0  0
 12  6  2  0  0  0  0
 12  9  1  0  0  0  0
 13  7  2  0  0  0  0
 13  6  1  0  0  0  0
 15 18  1  0  0  0  0
 15 14  1  1  0  0  0
 16 18  1  0  0  0  0
 17 15  1  0  0  0  0
 18 20  1  6  0  0  0
 19  1  1  6  0  0  0
 19 17  1  0  0  0  0
 19 16  1  0  0  0  0
 21 24  1  0  0  0  0
 21  1  1  1  0  0  0
 23 22  1  6  0  0  0
 23 21  1  0  0  0  0
 23 24  1  0  0  0  0
 24 25  1  6  0  0  0
 25 27  1  0  0  0  0
 27 28  1  6  0  0  0
 27 26  1  0  0  0  0
M  END
>  <MODEL>
6

>  <REMARK>
 VINA RESULT:      -7.3      2.891      7.593
  Name = 
  5 active torsions:
  status: ('A' for Active; 'I' for Inactive)
    1  A    between atoms: C_2  and  C_8
    2  A    between atoms: C_5  and  O_12
    3  A    between atoms: C_6  and  C_8
    4  A    between atoms: C_8  and  C_22
    5  A    between atoms: O_12  and  C_18
                            x       y       z     vdW  Elec       q    Type
                         _______ _______ _______ _____ _____    ______ ____

>  <TORSDO>
F 5

$$$$
=
 OpenBabel11042421083D

 28 31  0  0  1  0  0  0  0  0999 V2000
  161.6420  207.0740  150.7130 C   0  0  1  0  0  0  0  0  0  0  0  0
  163.0000  207.2890  150.9720 O   0  0  0  0  0  1  0  0  0  0  0  0
  161.4220  204.9960  149.3430 N   0  0  0  0  0  0  0  0  0  0  0  0
  161.4040  205.5720  150.5790 C   0  0  0  0  0  0  0  0  0  0  0  0
  161.2060  203.1270  147.8770 C   0  0  0  0  0  3  0  0  0  0  0  0
  160.8690  202.8520  150.2650 C   0  0  0  0  0  0  0  0  0  0  0  0
  160.6540  200.9850  148.7830 N   0  0  0  0  0  0  0  0  0  0  0  0
  160.9440  201.7660  147.7080 C   0  0  0  0  0  3  0  0  0  0  0  0
  161.0920  204.7850  151.6990 C   0  0  0  0  0  3  0  0  0  0  0  0
  161.1700  203.6740  149.1600 C   0  0  0  0  0  0  0  0  0  0  0  0
  160.5100  202.6140  152.7610 C   0  0  0  0  0  1  0  0  0  0  0  0
  160.8310  203.4220  151.5480 C   0  0  0  0  0  0  0  0  0  0  0  0
  160.6120  201.4920  150.0450 C   0  0  0  0  0  3  0  0  0  0  0  0
  160.2170  210.9860  152.9880 C   0  0  0  0  0  1  0  0  0  0  0  0
  161.0590  209.7620  152.6670 C   0  0  2  0  0  3  0  0  0  0  0  0
  161.5760  207.5610  153.2210 C   0  0  0  0  0  2  0  0  0  0  0  0
  160.4560  208.9940  151.6570 O   0  0  0  0  0  0  0  0  0  0  0  0
  161.3110  208.8780  153.8720 C   0  0  2  0  0  3  0  0  0  0  0  0
  160.8310  207.6530  151.8950 C   0  0  1  0  0  3  0  0  0  0  0  0
  160.1620  208.7660  154.6610 O   0  0  0  0  0  1  0  0  0  0  0  0
  161.2890  207.8860  149.4360 C   0  0  2  0  0  3  0  0  0  0  0  0
  161.5140  207.8300  147.0660 O   0  0  0  0  0  1  0  0  0  0  0  0
  162.2150  207.6330  148.2580 C   0  0  1  0  0  3  0  0  0  0  0  0
  162.3310  208.9290  149.0660 C   0  0  1  0  0  3  0  0  0  0  0  0
  161.7040  210.0090  148.4150 O   0  0  0  0  0  0  0  0  0  0  0  0
  163.0590  211.8300  147.8860 O   0  0  0  0  0  1  0  0  0  0  0  0
  162.2840  211.2130  148.8740 C   0  0  1  0  0  3  0  0  0  0  0  0
  161.2530  212.1780  149.4450 C   0  0  0  0  0  1  0  0  0  0  0  0
  1  2  1  1  0  0  0
  3  4  1  0  0  0  0
  4  1  1  0  0  0  0
  4  9  2  0  0  0  0
  5 10  1  0  0  0  0
  6 12  2  0  0  0  0
  7 13  2  0  0  0  0
  8  5  2  0  0  0  0
  8  7  1  0  0  0  0
 10  3  2  0  0  0  0
 10  6  1  0  0  0  0
 12  9  1  0  0  0  0
 12 11  1  0  0  0  0
 13  6  1  0  0  0  0
 15 14  1  1  0  0  0
 15 18  1  0  0  0  0
 16 18  1  0  0  0  0
 17 19  1  0  0  0  0
 17 15  1  0  0  0  0
 18 20  1  1  0  0  0
 19  1  1  6  0  0  0
 19 16  1  0  0  0  0
 21  1  1  1  0  0  0
 23 22  1  6  0  0  0
 23 24  1  0  0  0  0
 23 21  1  0  0  0  0
 24 25  1  6  0  0  0
 24 21  1  0  0  0  0
 25 27  1  0  0  0  0
 26 27  1  0  0  0  0
 27 28  1  6  0  0  0
M  END
>  <MODEL>
7

>  <REMARK>
 VINA RESULT:      -7.0      3.113      7.062
  Name = 
  5 active torsions:
  status: ('A' for Active; 'I' for Inactive)
    1  A    between atoms: C_2  and  C_8
    2  A    between atoms: C_5  and  O_12
    3  A    between atoms: C_6  and  C_8
    4  A    between atoms: C_8  and  C_22
    5  A    between atoms: O_12  and  C_18
                            x       y       z     vdW  Elec       q    Type
                         _______ _______ _______ _____ _____    ______ ____

>  <TORSDO>
F 5

$$$$
=
 OpenBabel11042421083D

 28 31  0  0  1  0  0  0  0  0999 V2000
  161.3500  207.9200  151.9420 C   0  0  1  0  0  0  0  0  0  0  0  0
  162.6850  207.9920  152.3540 O   0  0  0  0  0  1  0  0  0  0  0  0
  161.2000  205.4430  151.6500 N   0  0  0  0  0  0  0  0  0  0  0  0
  161.1770  206.6770  151.0720 C   0  0  0  0  0  0  0  0  0  0  0  0
  161.1210  203.0610  151.5550 C   0  0  0  0  0  3  0  0  0  0  0  0
  160.9750  204.3700  149.5150 C   0  0  0  0  0  0  0  0  0  0  0  0
  160.8970  201.9790  149.4340 N   0  0  0  0  0  0  0  0  0  0  0  0
  161.0170  201.8990  150.7870 C   0  0  0  0  0  3  0  0  0  0  0  0
  161.0690  206.7800  149.6750 C   0  0  0  0  0  3  0  0  0  0  0  0
  161.0990  204.3020  150.9190 C   0  0  0  0  0  0  0  0  0  0  0  0
  160.8420  205.7750  147.4130 C   0  0  0  0  0  1  0  0  0  0  0  0
  160.9610  205.6290  148.8930 C   0  0  0  0  0  0  0  0  0  0  0  0
  160.8740  203.1770  148.7880 C   0  0  0  0  0  3  0  0  0  0  0  0
  160.4610  209.6370  156.2740 C   0  0  0  0  0  1  0  0  0  0  0  0
  161.0250  208.7170  155.2040 C   0  0  2  0  0  3  0  0  0  0  0  0
  160.8430  206.6680  154.1120 C   0  0  0  0  0  2  0  0  0  0  0  0
  160.4940  209.0360  153.9420 O   0  0  0  0  0  0  0  0  0  0  0  0
  160.7730  207.2490  155.4850 C   0  0  2  0  0  3  0  0  0  0  0  0
  160.4630  207.8320  153.2040 C   0  0  1  0  0  3  0  0  0  0  0  0
  159.4840  207.0500  155.9920 O   0  0  0  0  0  1  0  0  0  0  0  0
  161.0270  209.2520  151.2110 C   0  0  2  0  0  3  0  0  0  0  0  0
  162.0060  210.8770  149.7710 O   0  0  0  0  0  1  0  0  0  0  0  0
  162.2430  210.1160  150.9180 C   0  0  1  0  0  3  0  0  0  0  0  0
  161.2860  210.4920  152.0530 C   0  0  1  0  0  3  0  0  0  0  0  0
  160.3960  211.5140  151.6710 O   0  0  0  0  0  0  0  0  0  0  0  0
  159.6880  213.4580  152.7430 O   0  0  0  0  0  1  0  0  0  0  0  0
  159.8150  212.0680  152.8330 C   0  0  1  0  0  3  0  0  0  0  0  0
  158.4840  211.4170  153.1900 C   0  0  0  0  0  1  0  0  0  0  0  0
  1  2  1  1  0  0  0
  4  3  1  0  0  0  0
  4  1  1  0  0  0  0
  6 10  1  0  0  0  0
  7  8  1  0  0  0  0
  8  5  2  0  0  0  0
  9  4  2  0  0  0  0
 10  5  1  0  0  0  0
 10  3  2  0  0  0  0
 11 12  1  0  0  0  0
 12  6  2  0  0  0  0
 12  9  1  0  0  0  0
 13  7  2  0  0  0  0
 13  6  1  0  0  0  0
 15 18  1  0  0  0  0
 15 14  1  1  0  0  0
 16 18  1  0  0  0  0
 17 15  1  0  0  0  0
 18 20  1  6  0  0  0
 19  1  1  6  0  0  0
 19 17  1  0  0  0  0
 19 16  1  0  0  0  0
 21  1  1  1  0  0  0
 21 24  1  0  0  0  0
 23 22  1  6  0  0  0
 23 21  1  0  0  0  0
 23 24  1  0  0  0  0
 24 25  1  6  0  0  0
 25 27  1  0  0  0  0
 26 27  1  0  0  0  0
 27 28  1  6  0  0  0
M  END
>  <MODEL>
8

>  <REMARK>
 VINA RESULT:      -6.7      2.926      7.594
  Name = 
  5 active torsions:
  status: ('A' for Active; 'I' for Inactive)
    1  A    between atoms: C_2  and  C_8
    2  A    between atoms: C_5  and  O_12
    3  A    between atoms: C_6  and  C_8
    4  A    between atoms: C_8  and  C_22
    5  A    between atoms: O_12  and  C_18
                            x       y       z     vdW  Elec       q    Type
                         _______ _______ _______ _____ _____    ______ ____

>  <TORSDO>
F 5

$$$$
=
 OpenBabel11042421083D

 28 31  0  0  1  0  0  0  0  0999 V2000
  161.3840  207.8050  152.1540 C   0  0  1  0  0  0  0  0  0  0  0  0
  162.6720  207.9590  152.6790 O   0  0  0  0  0  1  0  0  0  0  0  0
  161.4110  206.6740  149.9250 N   0  0  0  0  0  0  0  0  0  0  0  0
  161.3620  206.5510  151.2820 C   0  0  0  0  0  0  0  0  0  0  0  0
  161.4060  205.7700  147.7180 C   0  0  0  0  0  3  0  0  0  0  0  0
  161.2140  204.3000  149.6400 C   0  0  0  0  0  0  0  0  0  0  0  0
  161.2090  203.4060  147.4200 N   0  0  0  0  0  0  0  0  0  0  0  0
  161.3370  204.6510  146.8860 C   0  0  0  0  0  3  0  0  0  0  0  0
  161.2150  205.2750  151.8520 C   0  0  0  0  0  3  0  0  0  0  0  0
  161.3460  205.5960  149.1010 C   0  0  0  0  0  0  0  0  0  0  0  0
  160.9990  202.8060  151.6740 C   0  0  0  0  0  1  0  0  0  0  0  0
  161.1480  204.1460  151.0350 C   0  0  0  0  0  0  0  0  0  0  0  0
  161.1470  203.2080  148.7650 C   0  0  0  0  0  3  0  0  0  0  0  0
  159.8330  209.6500  156.2390 C   0  0  0  0  0  1  0  0  0  0  0  0
  160.6260  208.7560  155.3000 C   0  0  2  0  0  3  0  0  0  0  0  0
  160.8510  206.6370  154.3630 C   0  0  0  0  0  2  0  0  0  0  0  0
  160.1830  208.9080  153.9760 O   0  0  0  0  0  0  0  0  0  0  0  0
  160.5620  207.2900  155.6740 C   0  0  2  0  0  3  0  0  0  0  0  0
  160.3990  207.6670  153.3360 C   0  0  1  0  0  3  0  0  0  0  0  0
  159.2720  206.9320  156.0800 O   0  0  0  0  0  1  0  0  0  0  0  0
  161.0470  209.1130  151.3860 C   0  0  2  0  0  3  0  0  0  0  0  0
  161.9340  210.6020  149.7530 O   0  0  0  0  0  1  0  0  0  0  0  0
  162.2620  209.8900  150.9100 C   0  0  1  0  0  3  0  0  0  0  0  0
  161.4610  210.3780  152.1200 C   0  0  1  0  0  3  0  0  0  0  0  0
  160.5850  211.4270  151.7810 O   0  0  0  0  0  0  0  0  0  0  0  0
  160.3110  212.2040  153.9610 O   0  0  0  0  0  1  0  0  0  0  0  0
  159.6840  211.6290  152.8490 C   0  0  1  0  0  3  0  0  0  0  0  0
  158.4560  212.4320  152.4360 C   0  0  0  0  0  1  0  0  0  0  0  0
  1  2  1  1  0  0  0
  3  4  1  0  0  0  0
  4  9  2  0  0  0  0
  4  1  1  0  0  0  0
  5 10  1  0  0  0  0
  6 12  2  0  0  0  0
  7 13  2  0  0  0  0
  8  7  1  0  0  0  0
  8  5  2  0  0  0  0
 10  6  1  0  0  0  0
 10  3  2  0  0  0  0
 12 11  1  0  0  0  0
 12  9  1  0  0  0  0
 13  6  1  0  0  0  0
 15 18  1  0  0  0  0
 15 14  1  1  0  0  0
 16 18  1  0  0  0  0
 17 15  1  0  0  0  0
 18 20  1  6  0  0  0
 19  1  1  6  0  0  0
 19 17  1  0  0  0  0
 19 16  1  0  0  0  0
 21 24  1  0  0  0  0
 21  1  1  1  0  0  0
 23 22  1  6  0  0  0
 23 21  1  0  0  0  0
 23 24  1  0  0  0  0
 24 25  1  6  0  0  0
 25 27  1  0  0  0  0
 27 28  1  6  0  0  0
 27 26  1  0  0  0  0
M  END
>  <MODEL>
9

>  <REMARK>
 VINA RESULT:      -6.6      2.991      7.411
  Name = 
  5 active torsions:
  status: ('A' for Active; 'I' for Inactive)
    1  A    between atoms: C_2  and  C_8
    2  A    between atoms: C_5  and  O_12
    3  A    between atoms: C_6  and  C_8
    4  A    between atoms: C_8  and  C_22
    5  A    between atoms: O_12  and  C_18
                            x       y       z     vdW  Elec       q    Type
                         _______ _______ _______ _____ _____    ______ ____

>  <TORSDO>
F 5

$$$$
