=
 OpenBabel11042421573D

 39 46  0  0  1  0  0  0  0  0999 V2000
  160.3120  207.3240  150.8440 C   0  0  1  0  0  3  0  0  0  0  0  0
  162.5570  209.7360  155.9990 C   0  0  1  0  0  3  0  0  0  0  0  0
  160.5880  207.9810  155.9780 C   0  0  0  0  0  2  0  0  0  0  0  0
  160.8130  207.3820  154.5810 C   0  0  0  0  0  2  0  0  0  0  0  0
  161.2220  210.5870  154.0670 C   0  0  1  0  0  0  0  0  0  0  0  0
  161.1110  209.4190  156.2710 C   0  0  2  0  0  3  0  0  0  0  0  0
  160.3650  208.3930  153.5600 C   0  0  2  0  0  3  0  0  0  0  0  0
  160.4880  208.0460  152.1130 C   0  0  0  0  0  0  0  0  0  0  0  0
  161.2970  209.0680  151.9160 C   0  0  0  0  0  0  0  0  0  0  0  0
  161.2110  208.0820  149.8910 N   0  0  0  0  0  2  0  0  0  0  0  0
  160.5900  210.5000  155.4170 N   0  0  1  0  0  0  0  0  0  0  0  0
  162.0010  210.9440  155.2500 C   0  0  1  0  0  3  0  0  0  0  0  0
  161.4870  209.2420  153.3810 C   0  0  1  0  0  3  0  0  0  0  0  0
  161.8180  209.1470  150.6280 N   0  0  0  0  0  0  0  0  0  0  0  0
  163.1890  209.5510  150.3830 C   0  0  0  0  0  1  0  0  0  0  0  0
  161.8830  201.9330  151.2170 F   0  0  0  0  0  0  0  0  0  0  0  0
  161.0960  205.3500  152.2200 C   0  0  0  0  0  3  0  0  0  0  0  0
  161.5140  203.2350  151.1490 C   0  0  0  0  0  0  0  0  0  0  0  0
  161.1750  203.7820  149.9510 N   0  0  0  0  0  0  0  0  0  0  0  0
  161.4790  204.0100  152.3090 C   0  0  0  0  0  3  0  0  0  0  0  0
  160.7590  205.9000  150.9770 C   0  0  0  0  0  0  0  0  0  0  0  0
  160.8000  205.0860  149.8430 C   0  0  0  0  0  3  0  0  0  0  0  0
  163.2220  210.1770  157.2600 C   0  0  0  0  0  3  0  0  0  0  0  0
  164.1350  211.0750  157.2300 N   0  0  0  0  0  2  0  0  0  0  0  0
  160.6580  211.6390  153.3230 O   0  0  0  0  0  0  0  0  0  0  0  0
  158.2430  214.1350  152.8420 C   0  0  1  0  0  3  0  0  0  0  0  0
  159.2810  211.3850  153.2060 C   0  0  1  0  0  3  0  0  0  0  0  0
  158.6690  213.6160  154.2200 C   0  0  0  0  0  2  0  0  0  0  0  0
  158.5170  212.0970  154.3240 C   0  0  0  0  0  2  0  0  0  0  0  0
  158.7700  211.8620  151.8460 C   0  0  0  0  0  2  0  0  0  0  0  0
  158.8210  213.3180  151.7760 N   0  0  0  0  0  0  0  0  0  0  0  0
  154.0210  214.4530  152.5100 N   0  0  0  0  0  0  0  0  0  0  0  0
  154.5820  214.3700  153.7450 C   0  0  0  0  0  3  0  0  0  0  0  0
  156.7530  214.2660  152.7140 C   0  0  0  0  0  0  0  0  0  0  0  0
  154.7680  214.4420  151.4040 N   0  0  0  0  0  0  0  0  0  0  0  0
  155.9670  214.2720  153.8640 C   0  0  0  0  0  3  0  0  0  0  0  0
  156.1220  214.3470  151.4680 C   0  0  0  0  0  3  0  0  0  0  0  0
  160.1290  214.4440  149.8880 N   0  0  0  0  0  0  0  0  0  0  0  0
  159.5370  213.9350  150.7420 C   0  0  0  0  0  0  0  0  0  0  0  0
  1 21  1  1  0  0  0
  1  8  1  0  0  0  0
  2  6  1  0  0  0  0
  2 23  1  1  0  0  0
  4  3  1  0  0  0  0
  5 25  1  6  0  0  0
  5 12  1  0  0  0  0
  5 11  1  0  0  0  0
  6  3  1  6  0  0  0
  7  4  1  1  0  0  0
  8  7  1  0  0  0  0
  9  8  2  0  0  0  0
  9 13  1  0  0  0  0
 10 14  1  0  0  0  0
 10  1  1  0  0  0  0
 11  6  1  0  0  0  0
 12 11  1  0  0  0  0
 12  2  1  0  0  0  0
 13  7  1  0  0  0  0
 13  5  1  0  0  0  0
 14  9  1  0  0  0  0
 15 14  1  0  0  0  0
 17 20  1  0  0  0  0
 18 16  1  0  0  0  0
 18 20  2  0  0  0  0
 19 18  1  0  0  0  0
 21 17  2  0  0  0  0
 22 19  2  0  0  0  0
 22 21  1  0  0  0  0
 24 23  2  0  0  0  0
 26 28  1  0  0  0  0
 27 25  1  0  0  0  0
 27 29  1  0  0  0  0
 28 29  1  0  0  0  0
 30 27  1  0  0  0  0
 31 30  1  0  0  0  0
 31 26  1  0  0  0  0
 32 33  1  0  0  0  0
 33 36  2  0  0  0  0
 34 26  1  0  0  0  0
 34 36  1  0  0  0  0
 35 37  1  0  0  0  0
 35 32  2  0  0  0  0
 37 34  2  0  0  0  0
 38 39  3  0  0  0  0
 39 31  1  0  0  0  0
M  END
>  <MODEL>
1

>  <REMARK>
 VINA RESULT:      -4.8      0.000      0.000
  Name = 
  6 active torsions:
  status: ('A' for Active; 'I' for Inactive)
    1  A    between atoms: C_4  and  C_6
    2  A    between atoms: C_5  and  C_35
    3  A    between atoms: C_7  and  C_11
    4  A    between atoms: C_14  and  O_36
    5  A    between atoms: C_19  and  O_36
    6  A    between atoms: C_26  and  N_34
                            x       y       z     vdW  Elec       q    Type
                         _______ _______ _______ _____ _____    ______ ____

>  <TORSDO>
F 6

$$$$
=
 OpenBabel11042421573D

 39 46  0  0  1  0  0  0  0  0999 V2000
  158.4230  210.5490  155.2910 C   0  0  1  0  0  3  0  0  0  0  0  0
  160.8710  213.5610  150.5600 C   0  0  1  0  0  3  0  0  0  0  0  0
  158.3390  212.8230  150.6330 C   0  0  0  0  0  2  0  0  0  0  0  0
  158.1900  212.6220  152.1490 C   0  0  0  0  0  2  0  0  0  0  0  0
  161.1020  211.2690  151.5260 C   0  0  1  0  0  0  0  0  0  0  0  0
  159.7580  212.7170  149.9980 C   0  0  2  0  0  3  0  0  0  0  0  0
  158.9130  211.3580  152.5280 C   0  0  2  0  0  3  0  0  0  0  0  0
  158.9180  210.9450  153.9630 C   0  0  0  0  0  0  0  0  0  0  0  0
  160.2340  211.0180  154.0010 C   0  0  0  0  0  0  0  0  0  0  0  0
  159.6890  210.4640  156.1160 N   0  0  0  0  0  2  0  0  0  0  0  0
  160.4720  211.4420  150.1830 N   0  0  1  0  0  0  0  0  0  0  0  0
  161.6520  212.2500  150.5950 C   0  0  1  0  0  3  0  0  0  0  0  0
  160.2620  211.7590  152.7100 C   0  0  1  0  0  3  0  0  0  0  0  0
  160.7850  210.7920  155.2580 N   0  0  0  0  0  0  0  0  0  0  0  0
  161.9220  211.5530  155.7410 C   0  0  0  0  0  1  0  0  0  0  0  0
  154.8220  214.3990  157.2610 F   0  0  0  0  0  0  0  0  0  0  0  0
  157.9600  212.8570  156.2220 C   0  0  0  0  0  3  0  0  0  0  0  0
  155.7070  213.4850  156.7950 C   0  0  0  0  0  0  0  0  0  0  0  0
  155.2740  212.2530  156.4150 N   0  0  0  0  0  0  0  0  0  0  0  0
  157.0620  213.8110  156.7040 C   0  0  0  0  0  3  0  0  0  0  0  0
  157.4980  211.5890  155.8430 C   0  0  0  0  0  0  0  0  0  0  0  0
  156.1330  211.3090  155.9440 C   0  0  0  0  0  3  0  0  0  0  0  0
  161.4130  214.4530  149.4940 C   0  0  0  0  0  3  0  0  0  0  0  0
  162.0130  213.9550  148.4780 N   0  0  0  0  0  2  0  0  0  0  0  0
  161.7520  210.0240  151.6120 O   0  0  0  0  0  0  0  0  0  0  0  0
  162.1830  206.5520  151.8380 C   0  0  1  0  0  3  0  0  0  0  0  0
  160.9740  209.0910  150.9070 C   0  0  1  0  0  3  0  0  0  0  0  0
  162.8730  207.4290  150.7880 C   0  0  0  0  0  2  0  0  0  0  0  0
  161.8620  208.2520  149.9860 C   0  0  0  0  0  2  0  0  0  0  0  0
  160.2340  208.1760  151.8830 C   0  0  0  0  0  2  0  0  0  0  0  0
  161.1850  207.3190  152.5830 N   0  0  0  0  0  0  0  0  0  0  0  0
  160.6140  202.9630  150.1960 N   0  0  0  0  0  0  0  0  0  0  0  0
  160.8910  203.0160  151.5260 C   0  0  0  0  0  3  0  0  0  0  0  0
  161.6120  205.2950  151.2500 C   0  0  0  0  0  0  0  0  0  0  0  0
  160.8210  204.0150  149.4010 N   0  0  0  0  0  0  0  0  0  0  0  0
  161.4000  204.1920  152.0750 C   0  0  0  0  0  3  0  0  0  0  0  0
  161.3160  205.1830  149.8880 C   0  0  0  0  0  3  0  0  0  0  0  0
  161.2490  207.3330  155.1400 N   0  0  0  0  0  0  0  0  0  0  0  0
  161.2200  207.3270  153.9830 C   0  0  0  0  0  0  0  0  0  0  0  0
  1 21  1  1  0  0  0
  1 10  1  0  0  0  0
  2 23  1  6  0  0  0
  2 12  1  0  0  0  0
  3  4  1  0  0  0  0
  5 25  1  1  0  0  0
  5 13  1  0  0  0  0
  6 11  1  0  0  0  0
  6  2  1  0  0  0  0
  6  3  1  1  0  0  0
  7  4  1  1  0  0  0
  7 13  1  0  0  0  0
  7  8  1  0  0  0  0
  8  9  2  0  0  0  0
  8  1  1  0  0  0  0
  9 14  1  0  0  0  0
 11 12  1  0  0  0  0
 11  5  1  0  0  0  0
 12  5  1  0  0  0  0
 13  9  1  0  0  0  0
 14 15  1  0  0  0  0
 14 10  1  0  0  0  0
 17 20  1  0  0  0  0
 18 16  1  0  0  0  0
 19 18  1  0  0  0  0
 20 18  2  0  0  0  0
 21 22  1  0  0  0  0
 21 17  2  0  0  0  0
 22 19  2  0  0  0  0
 24 23  2  0  0  0  0
 26 31  1  0  0  0  0
 27 25  1  0  0  0  0
 27 30  1  0  0  0  0
 28 26  1  0  0  0  0
 29 28  1  0  0  0  0
 29 27  1  0  0  0  0
 30 31  1  0  0  0  0
 31 39  1  0  0  0  0
 32 33  1  0  0  0  0
 33 36  2  0  0  0  0
 34 26  1  0  0  0  0
 34 36  1  0  0  0  0
 35 37  1  0  0  0  0
 35 32  2  0  0  0  0
 37 34  2  0  0  0  0
 39 38  3  0  0  0  0
M  END
>  <MODEL>
2

>  <REMARK>
 VINA RESULT:      -3.3      3.322      8.491
  Name = 
  6 active torsions:
  status: ('A' for Active; 'I' for Inactive)
    1  A    between atoms: C_4  and  C_6
    2  A    between atoms: C_5  and  C_35
    3  A    between atoms: C_7  and  C_11
    4  A    between atoms: C_14  and  O_36
    5  A    between atoms: C_19  and  O_36
    6  A    between atoms: C_26  and  N_34
                            x       y       z     vdW  Elec       q    Type
                         _______ _______ _______ _____ _____    ______ ____

>  <TORSDO>
F 6

$$$$
=
 OpenBabel11042421573D

 39 46  0  0  1  0  0  0  0  0999 V2000
  159.5420  212.9940  153.5730 C   0  0  1  0  0  3  0  0  0  0  0  0
  160.7710  207.6400  150.8790 C   0  0  1  0  0  3  0  0  0  0  0  0
  161.4490  208.1780  153.3710 C   0  0  0  0  0  2  0  0  0  0  0  0
  160.4820  209.3420  153.6380 C   0  0  0  0  0  2  0  0  0  0  0  0
  161.5780  209.9900  150.6250 C   0  0  1  0  0  0  0  0  0  0  0  0
  161.8540  207.8620  151.9010 C   0  0  2  0  0  3  0  0  0  0  0  0
  160.9840  210.5490  152.8910 C   0  0  2  0  0  3  0  0  0  0  0  0
  160.2070  211.8200  152.9880 C   0  0  0  0  0  0  0  0  0  0  0  0
  160.0070  211.8200  151.6840 C   0  0  0  0  0  0  0  0  0  0  0  0
  158.8750  213.6410  152.3780 N   0  0  0  0  0  2  0  0  0  0  0  0
  162.5080  208.9450  151.1470 N   0  0  1  0  0  0  0  0  0  0  0  0
  161.5530  208.6500  150.0440 C   0  0  1  0  0  3  0  0  0  0  0  0
  160.4560  210.4050  151.5830 C   0  0  1  0  0  3  0  0  0  0  0  0
  159.1830  212.8450  151.2310 N   0  0  0  0  0  0  0  0  0  0  0  0
  158.2120  212.6330  150.1740 C   0  0  0  0  0  1  0  0  0  0  0  0
  155.6030  211.3930  157.2610 F   0  0  0  0  0  0  0  0  0  0  0  0
  158.4610  213.1710  155.8560 C   0  0  0  0  0  3  0  0  0  0  0  0
  156.5640  211.7890  156.3910 C   0  0  0  0  0  0  0  0  0  0  0  0
  156.6320  211.2270  155.1540 N   0  0  0  0  0  0  0  0  0  0  0  0
  157.4780  212.7750  156.7640 C   0  0  0  0  0  3  0  0  0  0  0  0
  158.5230  212.5750  154.5890 C   0  0  0  0  0  0  0  0  0  0  0  0
  157.5830  211.5980  154.2540 C   0  0  0  0  0  3  0  0  0  0  0  0
  160.9060  206.2750  150.2910 C   0  0  0  0  0  3  0  0  0  0  0  0
  160.7440  206.0950  149.0330 N   0  0  0  0  0  2  0  0  0  0  0  0
  162.2900  210.9830  149.9270 O   0  0  0  0  0  0  0  0  0  0  0  0
  161.7380  213.3580  147.4080 C   0  0  1  0  0  3  0  0  0  0  0  0
  162.2200  210.6710  148.5590 C   0  0  1  0  0  3  0  0  0  0  0  0
  160.6180  212.5690  148.0950 C   0  0  0  0  0  2  0  0  0  0  0  0
  160.8500  211.0590  148.0000 C   0  0  0  0  0  2  0  0  0  0  0  0
  163.3170  211.4100  147.7920 C   0  0  0  0  0  2  0  0  0  0  0  0
  163.0510  212.8440  147.7960 N   0  0  0  0  0  0  0  0  0  0  0  0
  161.2200  213.4740  143.1940 N   0  0  0  0  0  0  0  0  0  0  0  0
  160.1250  213.5430  143.9960 C   0  0  0  0  0  3  0  0  0  0  0  0
  161.5680  213.4160  145.9170 C   0  0  0  0  0  0  0  0  0  0  0  0
  162.4500  213.3760  143.7030 N   0  0  0  0  0  0  0  0  0  0  0  0
  160.2860  213.5120  145.3800 C   0  0  0  0  0  3  0  0  0  0  0  0
  162.6590  213.3420  145.0450 C   0  0  0  0  0  3  0  0  0  0  0  0
  164.8210  214.4530  148.7020 N   0  0  0  0  0  0  0  0  0  0  0  0
  164.0210  213.7250  148.2920 C   0  0  0  0  0  0  0  0  0  0  0  0
  1 21  1  1  0  0  0
  2 23  1  6  0  0  0
  2  6  1  0  0  0  0
  3  4  1  0  0  0  0
  5 25  1  6  0  0  0
  5 11  1  0  0  0  0
  5 13  1  0  0  0  0
  6  3  1  1  0  0  0
  7  8  1  0  0  0  0
  7  4  1  1  0  0  0
  8  1  1  0  0  0  0
  9  8  2  0  0  0  0
 10  1  1  0  0  0  0
 11  6  1  0  0  0  0
 12  5  1  0  0  0  0
 12  2  1  0  0  0  0
 12 11  1  0  0  0  0
 13  9  1  0  0  0  0
 13  7  1  0  0  0  0
 14  9  1  0  0  0  0
 14 10  1  0  0  0  0
 15 14  1  0  0  0  0
 17 20  1  0  0  0  0
 18 20  2  0  0  0  0
 18 16  1  0  0  0  0
 19 18  1  0  0  0  0
 21 17  2  0  0  0  0
 22 21  1  0  0  0  0
 22 19  2  0  0  0  0
 24 23  2  0  0  0  0
 26 31  1  0  0  0  0
 26 28  1  0  0  0  0
 27 25  1  0  0  0  0
 29 28  1  0  0  0  0
 29 27  1  0  0  0  0
 30 31  1  0  0  0  0
 30 27  1  0  0  0  0
 31 39  1  0  0  0  0
 32 35  2  0  0  0  0
 32 33  1  0  0  0  0
 33 36  2  0  0  0  0
 34 26  1  0  0  0  0
 35 37  1  0  0  0  0
 36 34  1  0  0  0  0
 37 34  2  0  0  0  0
 39 38  3  0  0  0  0
M  END
>  <MODEL>
3

>  <REMARK>
 VINA RESULT:      -2.7      3.924      7.400
  Name = 
  6 active torsions:
  status: ('A' for Active; 'I' for Inactive)
    1  A    between atoms: C_4  and  C_6
    2  A    between atoms: C_5  and  C_35
    3  A    between atoms: C_7  and  C_11
    4  A    between atoms: C_14  and  O_36
    5  A    between atoms: C_19  and  O_36
    6  A    between atoms: C_26  and  N_34
                            x       y       z     vdW  Elec       q    Type
                         _______ _______ _______ _____ _____    ______ ____

>  <TORSDO>
F 6

$$$$
