=
 OpenBabel11052412163D

 41 45  0  0  1  0  0  0  0  0999 V2000
  160.6730  213.0350  146.6300 C   0  0  2  0  0  3  0  0  0  0  0  0
  164.2160  214.4020  143.5380 O   0  0  0  0  0  1  0  0  0  0  0  0
  160.9190  212.8870  142.8830 C   0  0  0  0  0  3  0  0  0  0  0  0
  161.1960  213.1560  145.2270 C   0  0  0  0  0  0  0  0  0  0  0  0
  162.4610  213.7120  145.0270 C   0  0  0  0  0  3  0  0  0  0  0  0
  162.9560  213.8510  143.7330 C   0  0  0  0  0  0  0  0  0  0  0  0
  160.4500  212.7740  144.1520 N   0  0  0  0  0  0  0  0  0  0  0  0
  162.1870  213.4340  142.6390 C   0  0  0  0  0  0  0  0  0  0  0  0
  162.7420  213.5270  141.3160 N   0  0  0  0  0  2  0  0  0  0  0  0
  162.4630  210.8020  138.0680 C   0  0  0  0  0  0  0  0  0  0  0  0
  162.4560  212.1890  137.8530 C   0  0  0  0  0  3  0  0  0  0  0  0
  162.5470  210.3140  139.3770 C   0  0  0  0  0  3  0  0  0  0  0  0
  162.6370  211.1980  140.4570 C   0  0  0  0  0  3  0  0  0  0  0  0
  162.6360  212.5840  140.2390 C   0  0  0  0  0  0  0  0  0  0  0  0
  162.5380  213.0710  138.9330 C   0  0  0  0  0  3  0  0  0  0  0  0
  161.8040  208.6110  137.1310 C   0  0  0  0  0  1  0  0  0  0  0  0
  162.4130  209.8910  137.0110 O   0  0  0  0  0  0  0  0  0  0  0  0
  162.2430  210.9200  149.1580 C   0  0  0  0  0  3  0  0  0  0  0  0
  160.7040  211.6290  147.1720 C   0  0  0  0  0  3  0  0  0  0  0  0
  161.4660  211.2800  148.1760 C   0  0  0  0  0  0  0  0  0  0  0  0
  162.2250  209.5420  149.6290 C   0  0  0  0  0  3  0  0  0  0  0  0
  162.0090  208.5490  148.7790 C   0  0  0  0  0  3  0  0  0  0  0  0
  161.8510  207.0870  150.6270 O   0  0  0  0  0  1  0  0  0  0  0  0
  162.0010  207.1260  149.2380 C   0  0  1  0  0  3  0  0  0  0  0  0
  160.9510  204.8570  148.8720 C   0  0  0  0  0  0  0  0  0  0  0  0
  160.6950  206.6900  147.0680 C   0  0  0  0  0  2  0  0  0  0  0  0
  161.2010  204.5800  145.9100 C   0  0  0  0  0  2  0  0  0  0  0  0
  160.8650  206.3430  148.5680 C   0  0  2  0  0  3  0  0  0  0  0  0
  160.2920  204.4110  149.8450 O   0  0  0  0  0  0  0  0  0  0  0  0
  162.3240  204.2490  146.8550 C   0  0  1  0  0  3  0  0  0  0  0  0
  162.8120  205.5640  146.8440 O   0  0  0  0  0  0  0  0  0  0  0  0
  161.7630  203.9640  148.1410 O   0  0  0  0  0  0  0  0  0  0  0  0
  161.6820  205.9890  146.1220 C   0  0  2  0  0  3  0  0  0  0  0  0
  159.3040  213.7060  146.7730 C   0  0  0  0  0  2  0  0  0  0  0  0
  157.6270  213.6620  151.1020 C   0  0  0  0  0  3  0  0  0  0  0  0
  160.0470  213.6290  150.4140 C   0  0  0  0  0  2  0  0  0  0  0  0
  159.9140  214.4490  149.1510 C   0  0  0  0  0  2  0  0  0  0  0  0
  157.6950  213.4420  148.5630 C   0  0  0  0  0  3  0  0  0  0  0  0
  159.0160  214.1440  151.3930 C   0  0  0  0  0  2  0  0  0  0  0  0
  157.0800  213.3960  149.9080 C   0  0  0  0  0  3  0  0  0  0  0  0
  158.9180  213.8470  148.2090 C   0  0  0  0  0  0  0  0  0  0  0  0
  1 34  1  6  0  0  0
  1 19  1  0  0  0  0
  2  6  1  0  0  0  0
  3  7  1  0  0  0  0
  4  1  1  0  0  0  0
  5  4  1  0  0  0  0
  6  5  2  0  0  0  0
  7  4  2  0  0  0  0
  8  3  2  0  0  0  0
  8  6  1  0  0  0  0
  9  8  1  0  0  0  0
 10 12  1  0  0  0  0
 11 10  2  0  0  0  0
 11 15  1  0  0  0  0
 12 13  2  0  0  0  0
 14 13  1  0  0  0  0
 14  9  1  0  0  0  0
 15 14  2  0  0  0  0
 17 16  1  0  0  0  0
 17 10  1  0  0  0  0
 18 21  1  0  0  0  0
 19 20  2  0  0  0  0
 20 18  2  0  0  0  0
 22 24  1  0  0  0  0
 22 21  2  0  0  0  0
 24 23  1  1  0  0  0
 25 29  2  0  0  0  0
 26 28  1  0  0  0  0
 28 25  1  0  0  0  0
 28 24  1  6  0  0  0
 30 27  1  6  0  0  0
 30 32  1  0  0  0  0
 31 30  1  0  0  0  0
 32 25  1  0  0  0  0
 33 27  1  1  0  0  0
 33 31  1  0  0  0  0
 33 26  1  0  0  0  0
 34 41  1  0  0  0  0
 35 39  1  0  0  0  0
 36 39  1  0  0  0  0
 37 36  1  0  0  0  0
 38 40  1  0  0  0  0
 40 35  2  0  0  0  0
 41 38  2  0  0  0  0
 41 37  1  0  0  0  0
M  END
>  <MODEL>
1

>  <REMARK>
 VINA RESULT:      -7.4      0.000      0.000
  Name = 
  10 active torsions:
  status: ('A' for Active; 'I' for Inactive)
    1  A    between atoms: C_2  and  O_26
    2  A    between atoms: C_3  and  C_4
    3  A    between atoms: C_8  and  C_38
    4  A    between atoms: C_10  and  C_34
    5  A    between atoms: C_10  and  C_41
    6  A    between atoms: C_15  and  C_34
    7  A    between atoms: C_18  and  N_28
    8  A    between atoms: C_21  and  C_34
    9  A    between atoms: C_22  and  C_38
   10  A    between atoms: N_28  and  C_37
                            x       y       z     vdW  Elec       q    Type
                         _______ _______ _______ _____ _____    ______ ____

>  <TORSDO>
F 10

$$$$
=
 OpenBabel11052412163D

 41 45  0  0  1  0  0  0  0  0999 V2000
  160.9890  210.3950  152.1130 C   0  0  2  0  0  3  0  0  0  0  0  0
  162.9270  211.7930  147.8390 O   0  0  0  0  0  1  0  0  0  0  0  0
  160.3060  213.3590  149.9060 C   0  0  0  0  0  3  0  0  0  0  0  0
  161.0410  211.3650  150.9670 C   0  0  0  0  0  0  0  0  0  0  0  0
  161.9480  211.1320  149.9310 C   0  0  0  0  0  3  0  0  0  0  0  0
  162.0260  212.0290  148.8690 C   0  0  0  0  0  0  0  0  0  0  0  0
  160.2560  212.4780  150.9390 N   0  0  0  0  0  0  0  0  0  0  0  0
  161.1980  213.1590  148.8420 C   0  0  0  0  0  0  0  0  0  0  0  0
  161.2480  214.0380  147.7060 N   0  0  0  0  0  2  0  0  0  0  0  0
  161.3190  213.0290  143.5790 C   0  0  0  0  0  0  0  0  0  0  0  0
  162.3240  213.8280  144.1470 C   0  0  0  0  0  3  0  0  0  0  0  0
  160.2700  212.5750  144.3860 C   0  0  0  0  0  3  0  0  0  0  0  0
  160.2310  212.9000  145.7460 C   0  0  0  0  0  3  0  0  0  0  0  0
  161.2400  213.6930  146.3130 C   0  0  0  0  0  0  0  0  0  0  0  0
  162.2790  214.1590  145.5040 C   0  0  0  0  0  3  0  0  0  0  0  0
  160.7270  211.4660  141.7580 C   0  0  0  0  0  1  0  0  0  0  0  0
  161.3470  212.6540  142.2350 O   0  0  0  0  0  0  0  0  0  0  0  0
  161.5870  206.9720  153.2320 C   0  0  0  0  0  3  0  0  0  0  0  0
  160.8820  208.9540  151.6870 C   0  0  0  0  0  3  0  0  0  0  0  0
  161.2230  207.9620  152.4680 C   0  0  0  0  0  0  0  0  0  0  0  0
  161.4600  205.6020  152.7540 C   0  0  0  0  0  3  0  0  0  0  0  0
  161.6330  205.3260  151.4700 C   0  0  0  0  0  3  0  0  0  0  0  0
  161.1590  203.0750  152.0090 O   0  0  0  0  0  1  0  0  0  0  0  0
  161.5230  203.9240  150.9600 C   0  0  1  0  0  3  0  0  0  0  0  0
  160.8440  202.7580  148.8230 C   0  0  0  0  0  0  0  0  0  0  0  0
  160.1440  205.2140  149.2150 C   0  0  0  0  0  2  0  0  0  0  0  0
  160.9070  205.0280  146.8850 C   0  0  0  0  0  2  0  0  0  0  0  0
  160.4860  203.8340  149.8320 C   0  0  2  0  0  3  0  0  0  0  0  0
  160.3470  201.6130  148.9750 O   0  0  0  0  0  0  0  0  0  0  0  0
  162.1390  204.2580  147.2760 C   0  0  1  0  0  3  0  0  0  0  0  0
  162.3960  205.0950  148.3720 O   0  0  0  0  0  0  0  0  0  0  0  0
  161.7360  202.9690  147.7500 O   0  0  0  0  0  0  0  0  0  0  0  0
  161.1590  205.7370  148.1860 C   0  0  2  0  0  3  0  0  0  0  0  0
  159.9260  210.8020  153.1370 C   0  0  0  0  0  2  0  0  0  0  0  0
  160.7380  208.8300  157.2610 C   0  0  0  0  0  3  0  0  0  0  0  0
  162.4030  210.0150  155.7940 C   0  0  0  0  0  2  0  0  0  0  0  0
  161.4570  211.0240  155.1820 C   0  0  0  0  0  2  0  0  0  0  0  0
  159.5610  209.3880  155.0700 C   0  0  0  0  0  3  0  0  0  0  0  0
  161.9210  209.7480  157.2020 C   0  0  0  0  0  2  0  0  0  0  0  0
  159.7430  208.7090  156.3710 C   0  0  0  0  0  3  0  0  0  0  0  0
  160.2990  210.3530  154.5120 C   0  0  0  0  0  0  0  0  0  0  0  0
  1 19  1  6  0  0  0
  1 34  1  0  0  0  0
  2  6  1  0  0  0  0
  3  7  1  0  0  0  0
  4  1  1  0  0  0  0
  5  4  1  0  0  0  0
  6  5  2  0  0  0  0
  7  4  2  0  0  0  0
  8  6  1  0  0  0  0
  8  3  2  0  0  0  0
  9  8  1  0  0  0  0
 10 11  2  0  0  0  0
 10 12  1  0  0  0  0
 11 15  1  0  0  0  0
 12 13  2  0  0  0  0
 13 14  1  0  0  0  0
 14  9  1  0  0  0  0
 15 14  2  0  0  0  0
 16 17  1  0  0  0  0
 17 10  1  0  0  0  0
 19 20  2  0  0  0  0
 20 18  2  0  0  0  0
 21 18  1  0  0  0  0
 22 21  2  0  0  0  0
 24 22  1  0  0  0  0
 24 23  1  1  0  0  0
 25 29  2  0  0  0  0
 25 28  1  0  0  0  0
 26 28  1  0  0  0  0
 28 24  1  1  0  0  0
 30 27  1  6  0  0  0
 30 32  1  0  0  0  0
 30 31  1  0  0  0  0
 32 25  1  0  0  0  0
 33 27  1  6  0  0  0
 33 31  1  0  0  0  0
 33 26  1  0  0  0  0
 34 41  1  0  0  0  0
 36 39  1  0  0  0  0
 37 36  1  0  0  0  0
 38 40  1  0  0  0  0
 39 35  1  0  0  0  0
 40 35  2  0  0  0  0
 41 38  2  0  0  0  0
 41 37  1  0  0  0  0
M  END
>  <MODEL>
2

>  <REMARK>
 VINA RESULT:      -7.1      3.613      5.659
  Name = 
  10 active torsions:
  status: ('A' for Active; 'I' for Inactive)
    1  A    between atoms: C_2  and  O_26
    2  A    between atoms: C_3  and  C_4
    3  A    between atoms: C_8  and  C_38
    4  A    between atoms: C_10  and  C_34
    5  A    between atoms: C_10  and  C_41
    6  A    between atoms: C_15  and  C_34
    7  A    between atoms: C_18  and  N_28
    8  A    between atoms: C_21  and  C_34
    9  A    between atoms: C_22  and  C_38
   10  A    between atoms: N_28  and  C_37
                            x       y       z     vdW  Elec       q    Type
                         _______ _______ _______ _____ _____    ______ ____

>  <TORSDO>
F 10

$$$$
=
 OpenBabel11052412163D

 41 45  0  0  1  0  0  0  0  0999 V2000
  160.1100  211.9800  152.0230 C   0  0  2  0  0  3  0  0  0  0  0  0
  162.8000  212.2300  147.9390 O   0  0  0  0  0  1  0  0  0  0  0  0
  159.8900  214.2220  149.0140 C   0  0  0  0  0  3  0  0  0  0  0  0
  160.3840  212.6070  150.6860 C   0  0  0  0  0  0  0  0  0  0  0  0
  161.4540  212.1300  149.9260 C   0  0  0  0  0  3  0  0  0  0  0  0
  161.7370  212.7100  148.6930 C   0  0  0  0  0  0  0  0  0  0  0  0
  159.6400  213.6510  150.2210 N   0  0  0  0  0  0  0  0  0  0  0  0
  160.9510  213.7680  148.2180 C   0  0  0  0  0  0  0  0  0  0  0  0
  161.2200  214.3110  146.9130 N   0  0  0  0  0  2  0  0  0  0  0  0
  160.7620  212.4140  143.1400 C   0  0  0  0  0  0  0  0  0  0  0  0
  159.6810  212.5320  144.0270 C   0  0  0  0  0  3  0  0  0  0  0  0
  162.0130  212.9150  143.5160 C   0  0  0  0  0  3  0  0  0  0  0  0
  162.1800  213.5410  144.7560 C   0  0  0  0  0  3  0  0  0  0  0  0
  161.0970  213.6640  145.6390 C   0  0  0  0  0  0  0  0  0  0  0  0
  159.8520  213.1500  145.2690 C   0  0  0  0  0  3  0  0  0  0  0  0
  161.7150  211.2580  141.1740 C   0  0  0  0  0  1  0  0  0  0  0  0
  160.6210  211.8300  141.8790 O   0  0  0  0  0  0  0  0  0  0  0  0
  162.0920  208.9180  151.8960 C   0  0  0  0  0  3  0  0  0  0  0  0
  160.0020  210.4780  151.9800 C   0  0  0  0  0  3  0  0  0  0  0  0
  161.0510  209.6990  151.9520 C   0  0  0  0  0  0  0  0  0  0  0  0
  161.9150  207.4730  151.8520 C   0  0  0  0  0  3  0  0  0  0  0  0
  161.8750  206.8410  150.6880 C   0  0  0  0  0  3  0  0  0  0  0  0
  161.3450  204.8720  151.8800 O   0  0  0  0  0  1  0  0  0  0  0  0
  161.7090  205.3570  150.6200 C   0  0  1  0  0  3  0  0  0  0  0  0
  160.9780  203.6700  148.8860 C   0  0  0  0  0  0  0  0  0  0  0  0
  160.2710  206.1430  148.6400 C   0  0  0  0  0  2  0  0  0  0  0  0
  160.9700  205.3510  146.4190 C   0  0  0  0  0  2  0  0  0  0  0  0
  160.6410  204.9740  149.5870 C   0  0  2  0  0  3  0  0  0  0  0  0
  160.4950  202.6050  149.3480 O   0  0  0  0  0  0  0  0  0  0  0  0
  162.2180  204.7110  146.9620 C   0  0  1  0  0  3  0  0  0  0  0  0
  162.5000  205.8060  147.7920 O   0  0  0  0  0  0  0  0  0  0  0  0
  161.8380  203.5910  147.7700 O   0  0  0  0  0  0  0  0  0  0  0  0
  161.2530  206.3770  147.4800 C   0  0  2  0  0  3  0  0  0  0  0  0
  158.9220  212.6510  152.7180 C   0  0  0  0  0  2  0  0  0  0  0  0
  159.3940  211.8210  157.2610 C   0  0  0  0  0  3  0  0  0  0  0  0
  157.3820  212.7860  156.0980 C   0  0  0  0  0  2  0  0  0  0  0  0
  157.5300  212.0490  154.7850 C   0  0  0  0  0  2  0  0  0  0  0  0
  160.0320  212.1980  154.8220 C   0  0  0  0  0  3  0  0  0  0  0  0
  157.8970  211.8700  157.1850 C   0  0  0  0  0  2  0  0  0  0  0  0
  160.2750  211.9350  156.2570 C   0  0  0  0  0  3  0  0  0  0  0  0
  158.8700  212.2950  154.1670 C   0  0  0  0  0  0  0  0  0  0  0  0
  1 19  1  6  0  0  0
  1 34  1  0  0  0  0
  2  6  1  0  0  0  0
  3  7  1  0  0  0  0
  4  1  1  0  0  0  0
  5  4  1  0  0  0  0
  6  5  2  0  0  0  0
  7  4  2  0  0  0  0
  8  6  1  0  0  0  0
  8  3  2  0  0  0  0
  9  8  1  0  0  0  0
 10 12  2  0  0  0  0
 10 11  1  0  0  0  0
 11 15  2  0  0  0  0
 12 13  1  0  0  0  0
 13 14  2  0  0  0  0
 14  9  1  0  0  0  0
 15 14  1  0  0  0  0
 16 17  1  0  0  0  0
 17 10  1  0  0  0  0
 18 20  2  0  0  0  0
 20 19  2  0  0  0  0
 21 18  1  0  0  0  0
 22 21  2  0  0  0  0
 24 22  1  0  0  0  0
 24 23  1  1  0  0  0
 25 29  2  0  0  0  0
 25 28  1  0  0  0  0
 26 28  1  0  0  0  0
 28 24  1  6  0  0  0
 30 27  1  6  0  0  0
 30 32  1  0  0  0  0
 30 31  1  0  0  0  0
 32 25  1  0  0  0  0
 33 27  1  6  0  0  0
 33 31  1  0  0  0  0
 33 26  1  0  0  0  0
 34 41  1  0  0  0  0
 36 39  1  0  0  0  0
 37 36  1  0  0  0  0
 38 40  1  0  0  0  0
 39 35  1  0  0  0  0
 40 35  2  0  0  0  0
 41 37  1  0  0  0  0
 41 38  2  0  0  0  0
M  END
>  <MODEL>
3

>  <REMARK>
 VINA RESULT:      -6.7      2.940      4.902
  Name = 
  10 active torsions:
  status: ('A' for Active; 'I' for Inactive)
    1  A    between atoms: C_2  and  O_26
    2  A    between atoms: C_3  and  C_4
    3  A    between atoms: C_8  and  C_38
    4  A    between atoms: C_10  and  C_34
    5  A    between atoms: C_10  and  C_41
    6  A    between atoms: C_15  and  C_34
    7  A    between atoms: C_18  and  N_28
    8  A    between atoms: C_21  and  C_34
    9  A    between atoms: C_22  and  C_38
   10  A    between atoms: N_28  and  C_37
                            x       y       z     vdW  Elec       q    Type
                         _______ _______ _______ _____ _____    ______ ____

>  <TORSDO>
F 10

$$$$
=
 OpenBabel11052412163D

 41 45  0  0  1  0  0  0  0  0999 V2000
  161.0330  213.1990  146.4060 C   0  0  2  0  0  3  0  0  0  0  0  0
  162.6990  212.4700  141.8590 O   0  0  0  0  0  1  0  0  0  0  0  0
  159.3070  213.2620  143.0680 C   0  0  0  0  0  3  0  0  0  0  0  0
  160.7770  213.1100  144.9290 C   0  0  0  0  0  0  0  0  0  0  0  0
  161.8460  212.8250  144.0770 C   0  0  0  0  0  3  0  0  0  0  0  0
  161.6330  212.7570  142.7030 C   0  0  0  0  0  0  0  0  0  0  0  0
  159.5400  213.3380  144.4040 N   0  0  0  0  0  0  0  0  0  0  0  0
  160.3520  212.9730  142.1790 C   0  0  0  0  0  0  0  0  0  0  0  0
  160.1410  212.8340  140.7630 N   0  0  0  0  0  2  0  0  0  0  0  0
  157.5450  210.1670  138.7130 C   0  0  0  0  0  0  0  0  0  0  0  0
  157.0770  211.3920  139.2150 C   0  0  0  0  0  3  0  0  0  0  0  0
  158.8850  209.8170  138.9090 C   0  0  0  0  0  3  0  0  0  0  0  0
  159.7520  210.6830  139.5830 C   0  0  0  0  0  3  0  0  0  0  0  0
  159.2840  211.9090  140.0790 C   0  0  0  0  0  0  0  0  0  0  0  0
  157.9420  212.2530  139.8960 C   0  0  0  0  0  3  0  0  0  0  0  0
  155.3930  208.9890  138.4180 C   0  0  0  0  0  1  0  0  0  0  0  0
  156.7170  209.2970  138.0020 O   0  0  0  0  0  0  0  0  0  0  0  0
  162.4440  210.6490  148.6050 C   0  0  0  0  0  3  0  0  0  0  0  0
  160.6940  211.9400  147.1600 C   0  0  0  0  0  3  0  0  0  0  0  0
  161.5690  211.3030  147.8940 C   0  0  0  0  0  0  0  0  0  0  0  0
  162.0480  209.4350  149.3050 C   0  0  0  0  0  3  0  0  0  0  0  0
  162.3190  208.2470  148.7830 C   0  0  0  0  0  3  0  0  0  0  0  0
  161.5190  207.2930  150.7910 O   0  0  0  0  0  1  0  0  0  0  0  0
  161.9350  206.9870  149.4920 C   0  0  1  0  0  3  0  0  0  0  0  0
  160.8130  204.7700  149.0340 C   0  0  0  0  0  0  0  0  0  0  0  0
  160.7520  206.6270  147.2390 C   0  0  0  0  0  2  0  0  0  0  0  0
  161.2410  204.5080  146.0910 C   0  0  0  0  0  2  0  0  0  0  0  0
  160.8110  206.2600  148.7430 C   0  0  2  0  0  3  0  0  0  0  0  0
  160.0750  204.3440  149.9580 O   0  0  0  0  0  0  0  0  0  0  0  0
  162.2850  204.1200  147.1020 C   0  0  1  0  0  3  0  0  0  0  0  0
  162.8290  205.4120  147.1360 O   0  0  0  0  0  0  0  0  0  0  0  0
  161.6310  203.8480  148.3460 O   0  0  0  0  0  0  0  0  0  0  0  0
  161.7670  205.8920  146.3490 C   0  0  2  0  0  3  0  0  0  0  0  0
  160.3910  214.4530  147.0060 C   0  0  0  0  0  2  0  0  0  0  0  0
  157.4800  213.0020  150.3190 C   0  0  0  0  0  3  0  0  0  0  0  0
  159.9840  213.1890  150.4780 C   0  0  0  0  0  2  0  0  0  0  0  0
  160.1610  214.3770  149.5590 C   0  0  0  0  0  2  0  0  0  0  0  0
  158.3460  213.6230  148.0030 C   0  0  0  0  0  3  0  0  0  0  0  0
  158.6560  213.3600  151.1780 C   0  0  0  0  0  2  0  0  0  0  0  0
  157.3570  213.1420  148.9920 C   0  0  0  0  0  3  0  0  0  0  0  0
  159.5710  214.1190  148.2080 C   0  0  0  0  0  0  0  0  0  0  0  0
  1 34  1  1  0  0  0
  1 19  1  0  0  0  0
  2  6  1  0  0  0  0
  3  7  1  0  0  0  0
  4  1  1  0  0  0  0
  5  4  1  0  0  0  0
  6  5  2  0  0  0  0
  7  4  2  0  0  0  0
  8  6  1  0  0  0  0
  8  3  2  0  0  0  0
  9  8  1  0  0  0  0
 10 12  2  0  0  0  0
 10 11  1  0  0  0  0
 11 15  2  0  0  0  0
 12 13  1  0  0  0  0
 13 14  2  0  0  0  0
 14  9  1  0  0  0  0
 15 14  1  0  0  0  0
 17 16  1  0  0  0  0
 17 10  1  0  0  0  0
 18 21  1  0  0  0  0
 19 20  2  0  0  0  0
 20 18  2  0  0  0  0
 22 21  2  0  0  0  0
 22 24  1  0  0  0  0
 24 23  1  1  0  0  0
 25 29  2  0  0  0  0
 26 28  1  0  0  0  0
 28 25  1  0  0  0  0
 28 24  1  6  0  0  0
 30 27  1  6  0  0  0
 30 31  1  0  0  0  0
 30 32  1  0  0  0  0
 32 25  1  0  0  0  0
 33 27  1  1  0  0  0
 33 31  1  0  0  0  0
 33 26  1  0  0  0  0
 34 41  1  0  0  0  0
 35 39  1  0  0  0  0
 36 39  1  0  0  0  0
 37 36  1  0  0  0  0
 38 41  2  0  0  0  0
 38 40  1  0  0  0  0
 40 35  2  0  0  0  0
 41 37  1  0  0  0  0
M  END
>  <MODEL>
4

>  <REMARK>
 VINA RESULT:      -6.6      2.272      2.366
  Name = 
  10 active torsions:
  status: ('A' for Active; 'I' for Inactive)
    1  A    between atoms: C_2  and  O_26
    2  A    between atoms: C_3  and  C_4
    3  A    between atoms: C_8  and  C_38
    4  A    between atoms: C_10  and  C_34
    5  A    between atoms: C_10  and  C_41
    6  A    between atoms: C_15  and  C_34
    7  A    between atoms: C_18  and  N_28
    8  A    between atoms: C_21  and  C_34
    9  A    between atoms: C_22  and  C_38
   10  A    between atoms: N_28  and  C_37
                            x       y       z     vdW  Elec       q    Type
                         _______ _______ _______ _____ _____    ______ ____

>  <TORSDO>
F 10

$$$$
=
 OpenBabel11052412163D

 41 45  0  0  1  0  0  0  0  0999 V2000
  162.0050  205.1720  147.0420 C   0  0  2  0  0  3  0  0  0  0  0  0
  162.3160  209.7920  148.6360 O   0  0  0  0  0  1  0  0  0  0  0  0
  161.2640  206.7220  150.3850 C   0  0  0  0  0  3  0  0  0  0  0  0
  161.8310  206.1800  148.1430 C   0  0  0  0  0  0  0  0  0  0  0  0
  162.1430  207.5160  147.8850 C   0  0  0  0  0  3  0  0  0  0  0  0
  162.0080  208.4630  148.8970 C   0  0  0  0  0  0  0  0  0  0  0  0
  161.4170  205.8120  149.3880 N   0  0  0  0  0  0  0  0  0  0  0  0
  161.5600  208.0750  150.1660 C   0  0  0  0  0  0  0  0  0  0  0  0
  161.3660  209.0770  151.1780 N   0  0  0  0  0  2  0  0  0  0  0  0
  160.5660  208.4360  155.3010 C   0  0  0  0  0  0  0  0  0  0  0  0
  160.7460  207.3570  154.4220 C   0  0  0  0  0  3  0  0  0  0  0  0
  160.6370  209.7420  154.8040 C   0  0  0  0  0  3  0  0  0  0  0  0
  160.8970  209.9700  153.4490 C   0  0  0  0  0  3  0  0  0  0  0  0
  161.0820  208.8900  152.5720 C   0  0  0  0  0  0  0  0  0  0  0  0
  160.9970  207.5860  153.0660 C   0  0  0  0  0  3  0  0  0  0  0  0
  160.2880  206.9550  157.2600 C   0  0  0  0  0  1  0  0  0  0  0  0
  160.3430  208.2460  156.6660 O   0  0  0  0  0  0  0  0  0  0  0  0
  161.5720  205.4480  143.4280 C   0  0  0  0  0  3  0  0  0  0  0  0
  162.6350  205.7340  145.7950 C   0  0  0  0  0  3  0  0  0  0  0  0
  162.0930  205.6010  144.6120 C   0  0  0  0  0  0  0  0  0  0  0  0
  162.2380  206.0150  142.2630 C   0  0  0  0  0  3  0  0  0  0  0  0
  161.5850  206.8420  141.4600 C   0  0  0  0  0  3  0  0  0  0  0  0
  163.0260  206.4760  139.6240 O   0  0  0  0  0  1  0  0  0  0  0  0
  162.2530  207.4470  140.2670 C   0  0  1  0  0  3  0  0  0  0  0  0
  161.8260  208.3230  137.9350 C   0  0  0  0  0  0  0  0  0  0  0  0
  160.3820  209.1710  139.9020 C   0  0  0  0  0  2  0  0  0  0  0  0
  160.9650  211.1210  138.5210 C   0  0  0  0  0  2  0  0  0  0  0  0
  161.2150  208.0170  139.2910 C   0  0  2  0  0  3  0  0  0  0  0  0
  161.7540  207.4430  137.0400 O   0  0  0  0  0  0  0  0  0  0  0  0
  162.4110  210.7160  138.4360 C   0  0  1  0  0  3  0  0  0  0  0  0
  162.4650  210.3730  139.7950 O   0  0  0  0  0  0  0  0  0  0  0  0
  162.5030  209.5270  137.6440 O   0  0  0  0  0  0  0  0  0  0  0  0
  161.0740  210.5440  139.9050 C   0  0  2  0  0  3  0  0  0  0  0  0
  160.7010  204.4150  146.7720 C   0  0  0  0  0  2  0  0  0  0  0  0
  161.2630  199.8250  147.1870 C   0  0  0  0  0  3  0  0  0  0  0  0
  160.0670  201.0440  145.3400 C   0  0  0  0  0  2  0  0  0  0  0  0
  160.9120  202.2990  145.3400 C   0  0  0  0  0  2  0  0  0  0  0  0
  161.1770  202.2900  147.8320 C   0  0  0  0  0  3  0  0  0  0  0  0
  160.9730  199.8950  145.7180 C   0  0  0  0  0  2  0  0  0  0  0  0
  161.3700  200.8410  148.0560 C   0  0  0  0  0  3  0  0  0  0  0  0
  160.9380  202.9430  146.6900 C   0  0  0  0  0  0  0  0  0  0  0  0
  1 19  1  6  0  0  0
  1  4  1  0  0  0  0
  2  6  1  0  0  0  0
  4  7  1  0  0  0  0
  5  4  2  0  0  0  0
  5  6  1  0  0  0  0
  6  8  2  0  0  0  0
  7  3  2  0  0  0  0
  8  3  1  0  0  0  0
  8  9  1  0  0  0  0
  9 14  1  0  0  0  0
 10 17  1  0  0  0  0
 11 10  2  0  0  0  0
 12 10  1  0  0  0  0
 13 12  2  0  0  0  0
 14 15  2  0  0  0  0
 14 13  1  0  0  0  0
 15 11  1  0  0  0  0
 17 16  1  0  0  0  0
 18 20  2  0  0  0  0
 20 19  2  0  0  0  0
 21 18  1  0  0  0  0
 22 21  2  0  0  0  0
 24 23  1  6  0  0  0
 24 22  1  0  0  0  0
 25 28  1  0  0  0  0
 26 33  1  0  0  0  0
 28 26  1  0  0  0  0
 28 24  1  1  0  0  0
 29 25  2  0  0  0  0
 30 27  1  1  0  0  0
 30 31  1  0  0  0  0
 31 33  1  0  0  0  0
 32 25  1  0  0  0  0
 32 30  1  0  0  0  0
 33 27  1  6  0  0  0
 34  1  1  0  0  0  0
 35 40  2  0  0  0  0
 36 37  1  0  0  0  0
 36 39  1  0  0  0  0
 37 41  1  0  0  0  0
 38 40  1  0  0  0  0
 39 35  1  0  0  0  0
 41 34  1  0  0  0  0
 41 38  2  0  0  0  0
M  END
>  <MODEL>
5

>  <REMARK>
 VINA RESULT:      -6.2      4.478     11.717
  Name = 
  10 active torsions:
  status: ('A' for Active; 'I' for Inactive)
    1  A    between atoms: C_2  and  O_26
    2  A    between atoms: C_3  and  C_4
    3  A    between atoms: C_8  and  C_38
    4  A    between atoms: C_10  and  C_34
    5  A    between atoms: C_10  and  C_41
    6  A    between atoms: C_15  and  C_34
    7  A    between atoms: C_18  and  N_28
    8  A    between atoms: C_21  and  C_34
    9  A    between atoms: C_22  and  C_38
   10  A    between atoms: N_28  and  C_37
                            x       y       z     vdW  Elec       q    Type
                         _______ _______ _______ _____ _____    ______ ____

>  <TORSDO>
F 10

$$$$
=
 OpenBabel11052412163D

 41 45  0  0  1  0  0  0  0  0999 V2000
  161.8910  212.8510  147.9570 C   0  0  2  0  0  3  0  0  0  0  0  0
  163.6640  214.0100  143.5420 O   0  0  0  0  0  1  0  0  0  0  0  0
  160.3530  212.7250  144.5300 C   0  0  0  0  0  3  0  0  0  0  0  0
  161.7060  212.9520  146.4700 C   0  0  0  0  0  0  0  0  0  0  0  0
  162.7650  213.4240  145.6910 C   0  0  0  0  0  3  0  0  0  0  0  0
  162.6070  213.5430  144.3130 C   0  0  0  0  0  0  0  0  0  0  0  0
  160.5230  212.6310  145.8750 N   0  0  0  0  0  0  0  0  0  0  0  0
  161.3930  213.1890  143.7120 C   0  0  0  0  0  0  0  0  0  0  0  0
  161.2720  213.2580  142.2810 N   0  0  0  0  0  2  0  0  0  0  0  0
  161.0270  210.0080  139.5550 C   0  0  0  0  0  0  0  0  0  0  0  0
  162.2040  210.2610  140.2770 C   0  0  0  0  0  3  0  0  0  0  0  0
  159.9250  210.8520  139.7270 C   0  0  0  0  0  3  0  0  0  0  0  0
  159.9900  211.9280  140.6200 C   0  0  0  0  0  3  0  0  0  0  0  0
  161.1650  212.1760  141.3450 C   0  0  0  0  0  0  0  0  0  0  0  0
  162.2710  211.3410  141.1610 C   0  0  0  0  0  3  0  0  0  0  0  0
  161.5900  207.6900  138.9090 C   0  0  0  0  0  1  0  0  0  0  0  0
  160.9140  208.9210  138.6860 O   0  0  0  0  0  0  0  0  0  0  0  0
  162.1930  209.2530  148.4920 C   0  0  0  0  0  3  0  0  0  0  0  0
  161.2000  211.6660  148.5780 C   0  0  0  0  0  3  0  0  0  0  0  0
  161.7070  210.4610  148.5460 C   0  0  0  0  0  0  0  0  0  0  0  0
  161.4690  208.1510  149.1110 C   0  0  0  0  0  3  0  0  0  0  0  0
  161.9500  206.9180  149.0440 C   0  0  0  0  0  3  0  0  0  0  0  0
  160.9950  204.7800  148.7300 O   0  0  0  0  0  1  0  0  0  0  0  0
  161.2310  205.7740  149.6850 C   0  0  1  0  0  3  0  0  0  0  0  0
  161.2230  204.2580  151.7070 C   0  0  0  0  0  0  0  0  0  0  0  0
  162.8310  206.2790  151.6320 C   0  0  0  0  0  2  0  0  0  0  0  0
  161.8480  206.2040  153.8840 C   0  0  0  0  0  2  0  0  0  0  0  0
  162.0510  205.1960  150.8460 C   0  0  2  0  0  3  0  0  0  0  0  0
  161.2630  203.0280  151.4520 O   0  0  0  0  0  0  0  0  0  0  0  0
  160.4570  206.0040  153.3470 C   0  0  1  0  0  3  0  0  0  0  0  0
  160.6350  206.9650  152.3410 O   0  0  0  0  0  0  0  0  0  0  0  0
  160.3840  204.7040  152.7510 O   0  0  0  0  0  0  0  0  0  0  0  0
  162.0010  207.0630  152.6610 C   0  0  2  0  0  3  0  0  0  0  0  0
  161.5560  214.1760  148.6490 C   0  0  0  0  0  2  0  0  0  0  0  0
  157.1460  213.7760  150.0420 C   0  0  0  0  0  3  0  0  0  0  0  0
  159.2020  213.0380  151.2900 C   0  0  0  0  0  2  0  0  0  0  0  0
  160.1430  214.1100  150.7880 C   0  0  0  0  0  2  0  0  0  0  0  0
  159.1400  214.1120  148.4910 C   0  0  0  0  0  3  0  0  0  0  0  0
  157.8250  213.6570  151.3730 C   0  0  0  0  0  2  0  0  0  0  0  0
  157.7090  213.9920  148.8460 C   0  0  0  0  0  3  0  0  0  0  0  0
  160.2100  214.1240  149.2930 C   0  0  0  0  0  0  0  0  0  0  0  0
  1 19  1  1  0  0  0
  1 34  1  0  0  0  0
  2  6  1  0  0  0  0
  3  7  1  0  0  0  0
  4  1  1  0  0  0  0
  5  4  1  0  0  0  0
  6  5  2  0  0  0  0
  7  4  2  0  0  0  0
  8  6  1  0  0  0  0
  8  3  2  0  0  0  0
  9  8  1  0  0  0  0
 10 12  2  0  0  0  0
 10 11  1  0  0  0  0
 11 15  2  0  0  0  0
 12 13  1  0  0  0  0
 13 14  2  0  0  0  0
 14  9  1  0  0  0  0
 15 14  1  0  0  0  0
 17 16  1  0  0  0  0
 17 10  1  0  0  0  0
 18 20  2  0  0  0  0
 18 21  1  0  0  0  0
 20 19  2  0  0  0  0
 22 21  2  0  0  0  0
 22 24  1  0  0  0  0
 24 23  1  6  0  0  0
 25 32  1  0  0  0  0
 28 24  1  6  0  0  0
 28 26  1  0  0  0  0
 28 25  1  0  0  0  0
 29 25  2  0  0  0  0
 30 27  1  1  0  0  0
 31 33  1  0  0  0  0
 31 30  1  0  0  0  0
 32 30  1  0  0  0  0
 33 26  1  6  0  0  0
 33 27  1  0  0  0  0
 34 41  1  0  0  0  0
 35 39  1  0  0  0  0
 36 39  1  0  0  0  0
 37 36  1  0  0  0  0
 38 40  1  0  0  0  0
 38 41  2  0  0  0  0
 40 35  2  0  0  0  0
 41 37  1  0  0  0  0
M  END
>  <MODEL>
6

>  <REMARK>
 VINA RESULT:      -5.9      1.916      3.061
  Name = 
  10 active torsions:
  status: ('A' for Active; 'I' for Inactive)
    1  A    between atoms: C_2  and  O_26
    2  A    between atoms: C_3  and  C_4
    3  A    between atoms: C_8  and  C_38
    4  A    between atoms: C_10  and  C_34
    5  A    between atoms: C_10  and  C_41
    6  A    between atoms: C_15  and  C_34
    7  A    between atoms: C_18  and  N_28
    8  A    between atoms: C_21  and  C_34
    9  A    between atoms: C_22  and  C_38
   10  A    between atoms: N_28  and  C_37
                            x       y       z     vdW  Elec       q    Type
                         _______ _______ _______ _____ _____    ______ ____

>  <TORSDO>
F 10

$$$$
=
 OpenBabel11052412163D

 41 45  0  0  1  0  0  0  0  0999 V2000
  162.1870  205.5940  147.3520 C   0  0  2  0  0  3  0  0  0  0  0  0
  161.7680  210.3910  148.2470 O   0  0  0  0  0  1  0  0  0  0  0  0
  162.3190  207.5650  150.5500 C   0  0  0  0  0  3  0  0  0  0  0  0
  162.1550  206.7340  148.3300 C   0  0  0  0  0  0  0  0  0  0  0  0
  161.9690  208.0300  147.8450 C   0  0  0  0  0  3  0  0  0  0  0  0
  161.9560  209.1030  148.7330 C   0  0  0  0  0  0  0  0  0  0  0  0
  162.3420  206.5340  149.6650 N   0  0  0  0  0  0  0  0  0  0  0  0
  162.1280  208.8810  150.1050 C   0  0  0  0  0  0  0  0  0  0  0  0
  162.0470  209.9940  151.0110 N   0  0  0  0  0  2  0  0  0  0  0  0
  159.7130  210.3750  154.5410 C   0  0  0  0  0  0  0  0  0  0  0  0
  159.6720  211.3540  153.5360 C   0  0  0  0  0  3  0  0  0  0  0  0
  160.5500  209.2660  154.3800 C   0  0  0  0  0  3  0  0  0  0  0  0
  161.3270  209.1270  153.2250 C   0  0  0  0  0  3  0  0  0  0  0  0
  161.2800  210.1030  152.2190 C   0  0  0  0  0  0  0  0  0  0  0  0
  160.4550  211.2180  152.3860 C   0  0  0  0  0  3  0  0  0  0  0  0
  157.6770  211.1480  155.7090 C   0  0  0  0  0  1  0  0  0  0  0  0
  158.9230  210.4630  155.6880 O   0  0  0  0  0  0  0  0  0  0  0  0
  161.4340  205.4370  143.7830 C   0  0  0  0  0  3  0  0  0  0  0  0
  162.7160  205.9720  145.9930 C   0  0  0  0  0  3  0  0  0  0  0  0
  162.0650  205.7150  144.8890 C   0  0  0  0  0  0  0  0  0  0  0  0
  162.0060  205.8280  142.5020 C   0  0  0  0  0  3  0  0  0  0  0  0
  161.5810  206.9240  141.8900 C   0  0  0  0  0  3  0  0  0  0  0  0
  162.6020  206.2270  139.8770 O   0  0  0  0  0  1  0  0  0  0  0  0
  162.1650  207.3530  140.5820 C   0  0  1  0  0  3  0  0  0  0  0  0
  161.5860  208.2980  138.3110 C   0  0  0  0  0  0  0  0  0  0  0  0
  160.6410  209.4170  140.4390 C   0  0  0  0  0  2  0  0  0  0  0  0
  161.3930  211.2120  138.9350 C   0  0  0  0  0  2  0  0  0  0  0  0
  161.1310  208.1200  139.7490 C   0  0  2  0  0  3  0  0  0  0  0  0
  161.2120  207.4520  137.4600 O   0  0  0  0  0  0  0  0  0  0  0  0
  162.7020  210.5250  138.6560 C   0  0  1  0  0  3  0  0  0  0  0  0
  162.8840  210.1770  140.0030 O   0  0  0  0  0  0  0  0  0  0  0  0
  162.4400  209.3420  137.8930 O   0  0  0  0  0  0  0  0  0  0  0  0
  161.5850  210.6230  140.3050 C   0  0  2  0  0  3  0  0  0  0  0  0
  160.8370  204.8740  147.2950 C   0  0  0  0  0  2  0  0  0  0  0  0
  161.1350  200.9530  149.7630 C   0  0  0  0  0  3  0  0  0  0  0  0
  161.3850  203.3040  150.6200 C   0  0  0  0  0  2  0  0  0  0  0  0
  160.4260  203.9760  149.6620 C   0  0  0  0  0  2  0  0  0  0  0  0
  161.0940  202.5070  147.7430 C   0  0  0  0  0  3  0  0  0  0  0  0
  160.8560  201.9130  150.8800 C   0  0  0  0  0  2  0  0  0  0  0  0
  161.2060  201.2130  148.4500 C   0  0  0  0  0  3  0  0  0  0  0  0
  160.8030  203.7150  148.2370 C   0  0  0  0  0  0  0  0  0  0  0  0
  1 19  1  6  0  0  0
  1  4  1  0  0  0  0
  2  6  1  0  0  0  0
  4  7  1  0  0  0  0
  5  4  2  0  0  0  0
  5  6  1  0  0  0  0
  6  8  2  0  0  0  0
  7  3  2  0  0  0  0
  8  3  1  0  0  0  0
  8  9  1  0  0  0  0
  9 14  1  0  0  0  0
 10 17  1  0  0  0  0
 11 10  2  0  0  0  0
 12 10  1  0  0  0  0
 13 12  2  0  0  0  0
 14 15  2  0  0  0  0
 14 13  1  0  0  0  0
 15 11  1  0  0  0  0
 17 16  1  0  0  0  0
 18 20  2  0  0  0  0
 20 19  2  0  0  0  0
 21 18  1  0  0  0  0
 22 21  2  0  0  0  0
 24 23  1  6  0  0  0
 24 22  1  0  0  0  0
 25 28  1  0  0  0  0
 28 26  1  0  0  0  0
 28 24  1  1  0  0  0
 29 25  2  0  0  0  0
 30 27  1  1  0  0  0
 30 31  1  0  0  0  0
 31 33  1  0  0  0  0
 32 25  1  0  0  0  0
 32 30  1  0  0  0  0
 33 27  1  6  0  0  0
 33 26  1  0  0  0  0
 34  1  1  0  0  0  0
 34 41  1  0  0  0  0
 35 39  1  0  0  0  0
 36 39  1  0  0  0  0
 37 36  1  0  0  0  0
 38 41  2  0  0  0  0
 38 40  1  0  0  0  0
 40 35  2  0  0  0  0
 41 37  1  0  0  0  0
M  END
>  <MODEL>
7

>  <REMARK>
 VINA RESULT:      -5.7      4.050     10.986
  Name = 
  10 active torsions:
  status: ('A' for Active; 'I' for Inactive)
    1  A    between atoms: C_2  and  O_26
    2  A    between atoms: C_3  and  C_4
    3  A    between atoms: C_8  and  C_38
    4  A    between atoms: C_10  and  C_34
    5  A    between atoms: C_10  and  C_41
    6  A    between atoms: C_15  and  C_34
    7  A    between atoms: C_18  and  N_28
    8  A    between atoms: C_21  and  C_34
    9  A    between atoms: C_22  and  C_38
   10  A    between atoms: N_28  and  C_37
                            x       y       z     vdW  Elec       q    Type
                         _______ _______ _______ _____ _____    ______ ____

>  <TORSDO>
F 10

$$$$
=
 OpenBabel11052412163D

 41 45  0  0  1  0  0  0  0  0999 V2000
  160.0680  211.8000  152.0130 C   0  0  2  0  0  3  0  0  0  0  0  0
  162.6800  212.0760  147.8800 O   0  0  0  0  0  1  0  0  0  0  0  0
  159.8520  214.1220  149.0650 C   0  0  0  0  0  3  0  0  0  0  0  0
  160.3330  212.4530  150.6860 C   0  0  0  0  0  0  0  0  0  0  0  0
  161.3730  211.9640  149.8920 C   0  0  0  0  0  3  0  0  0  0  0  0
  161.6470  212.5680  148.6670 C   0  0  0  0  0  0  0  0  0  0  0  0
  159.6100  213.5280  150.2630 N   0  0  0  0  0  0  0  0  0  0  0  0
  160.8820  213.6580  148.2350 C   0  0  0  0  0  0  0  0  0  0  0  0
  161.1400  214.2260  146.9400 N   0  0  0  0  0  2  0  0  0  0  0  0
  160.9360  212.3540  143.1310 C   0  0  0  0  0  0  0  0  0  0  0  0
  162.0480  213.1280  143.5000 C   0  0  0  0  0  3  0  0  0  0  0  0
  159.8730  212.2140  144.0300 C   0  0  0  0  0  3  0  0  0  0  0  0
  159.9240  212.8260  145.2870 C   0  0  0  0  0  3  0  0  0  0  0  0
  161.0390  213.5940  145.6560 C   0  0  0  0  0  0  0  0  0  0  0  0
  162.0940  213.7460  144.7530 C   0  0  0  0  0  3  0  0  0  0  0  0
  162.0200  211.4550  141.1000 C   0  0  0  0  0  1  0  0  0  0  0  0
  160.8700  211.6980  141.9010 O   0  0  0  0  0  0  0  0  0  0  0  0
  160.3930  208.9610  154.2850 C   0  0  0  0  0  3  0  0  0  0  0  0
  160.5420  210.3720  152.0940 C   0  0  0  0  0  3  0  0  0  0  0  0
  160.4530  209.6630  153.1890 C   0  0  0  0  0  0  0  0  0  0  0  0
  160.8740  207.5860  154.2940 C   0  0  0  0  0  3  0  0  0  0  0  0
  161.0080  206.9210  153.1560 C   0  0  0  0  0  3  0  0  0  0  0  0
  160.4320  204.6300  153.1680 O   0  0  0  0  0  1  0  0  0  0  0  0
  161.5140  205.5130  153.1410 C   0  0  1  0  0  3  0  0  0  0  0  0
  162.2370  206.3770  150.8780 C   0  0  0  0  0  0  0  0  0  0  0  0
  162.1720  203.8310  151.3130 C   0  0  0  0  0  2  0  0  0  0  0  0
  161.2040  204.2240  149.0860 C   0  0  0  0  0  2  0  0  0  0  0  0
  162.3670  205.2540  151.8920 C   0  0  2  0  0  3  0  0  0  0  0  0
  163.0850  207.3040  150.9070 O   0  0  0  0  0  0  0  0  0  0  0  0
  160.3410  205.3520  149.5830 C   0  0  1  0  0  3  0  0  0  0  0  0
  159.9810  204.6540  150.7450 O   0  0  0  0  0  0  0  0  0  0  0  0
  161.1900  206.4500  149.9350 O   0  0  0  0  0  0  0  0  0  0  0  0
  160.9160  203.6480  150.4440 C   0  0  2  0  0  3  0  0  0  0  0  0
  158.6080  211.9760  152.4360 C   0  0  0  0  0  2  0  0  0  0  0  0
  157.8270  211.9780  157.0130 C   0  0  0  0  0  3  0  0  0  0  0  0
  160.0460  212.2280  155.8550 C   0  0  0  0  0  2  0  0  0  0  0  0
  159.5520  212.9430  154.6160 C   0  0  0  0  0  2  0  0  0  0  0  0
  157.4310  211.6100  154.5210 C   0  0  0  0  0  3  0  0  0  0  0  0
  159.1610  212.6610  157.0020 C   0  0  0  0  0  2  0  0  0  0  0  0
  157.1020  211.5660  155.9630 C   0  0  0  0  0  3  0  0  0  0  0  0
  158.4910  212.1540  153.9150 C   0  0  0  0  0  0  0  0  0  0  0  0
  1 19  1  6  0  0  0
  1 34  1  0  0  0  0
  2  6  1  0  0  0  0
  3  7  1  0  0  0  0
  4  1  1  0  0  0  0
  5  4  1  0  0  0  0
  6  5  2  0  0  0  0
  7  4  2  0  0  0  0
  8  6  1  0  0  0  0
  8  3  2  0  0  0  0
  9  8  1  0  0  0  0
 10 11  2  0  0  0  0
 10 12  1  0  0  0  0
 11 15  1  0  0  0  0
 12 13  2  0  0  0  0
 13 14  1  0  0  0  0
 14  9  1  0  0  0  0
 15 14  2  0  0  0  0
 16 17  1  0  0  0  0
 17 10  1  0  0  0  0
 18 21  1  0  0  0  0
 19 20  2  0  0  0  0
 20 18  2  0  0  0  0
 22 21  2  0  0  0  0
 24 22  1  0  0  0  0
 24 23  1  6  0  0  0
 25 29  2  0  0  0  0
 25 28  1  0  0  0  0
 26 28  1  0  0  0  0
 28 24  1  1  0  0  0
 30 27  1  6  0  0  0
 30 32  1  0  0  0  0
 30 31  1  0  0  0  0
 32 25  1  0  0  0  0
 33 27  1  6  0  0  0
 33 31  1  0  0  0  0
 33 26  1  0  0  0  0
 34 41  1  0  0  0  0
 36 39  1  0  0  0  0
 37 36  1  0  0  0  0
 38 40  1  0  0  0  0
 39 35  1  0  0  0  0
 40 35  2  0  0  0  0
 41 38  2  0  0  0  0
 41 37  1  0  0  0  0
M  END
>  <MODEL>
8

>  <REMARK>
 VINA RESULT:      -5.7      3.284      5.290
  Name = 
  10 active torsions:
  status: ('A' for Active; 'I' for Inactive)
    1  A    between atoms: C_2  and  O_26
    2  A    between atoms: C_3  and  C_4
    3  A    between atoms: C_8  and  C_38
    4  A    between atoms: C_10  and  C_34
    5  A    between atoms: C_10  and  C_41
    6  A    between atoms: C_15  and  C_34
    7  A    between atoms: C_18  and  N_28
    8  A    between atoms: C_21  and  C_34
    9  A    between atoms: C_22  and  C_38
   10  A    between atoms: N_28  and  C_37
                            x       y       z     vdW  Elec       q    Type
                         _______ _______ _______ _____ _____    ______ ____

>  <TORSDO>
F 10

$$$$
=
 OpenBabel11052412163D

 41 45  0  0  1  0  0  0  0  0999 V2000
  162.2490  205.8330  147.3420 C   0  0  2  0  0  3  0  0  0  0  0  0
  162.2680  207.5410  151.9320 O   0  0  0  0  0  1  0  0  0  0  0  0
  161.9500  209.3190  148.7180 C   0  0  0  0  0  3  0  0  0  0  0  0
  162.1850  206.9920  148.2960 C   0  0  0  0  0  0  0  0  0  0  0  0
  162.2630  206.7390  149.6670 C   0  0  0  0  0  3  0  0  0  0  0  0
  162.1860  207.7970  150.5690 C   0  0  0  0  0  0  0  0  0  0  0  0
  162.0130  208.2700  147.8560 N   0  0  0  0  0  0  0  0  0  0  0  0
  162.0310  209.1080  150.1020 C   0  0  0  0  0  0  0  0  0  0  0  0
  162.0190  210.1930  151.0460 N   0  0  0  0  0  2  0  0  0  0  0  0
  158.6730  211.9240  153.0100 C   0  0  0  0  0  0  0  0  0  0  0  0
  159.3470  212.6090  151.9870 C   0  0  0  0  0  3  0  0  0  0  0  0
  159.1250  210.6580  153.3970 C   0  0  0  0  0  3  0  0  0  0  0  0
  160.2260  210.0750  152.7610 C   0  0  0  0  0  3  0  0  0  0  0  0
  160.8950  210.7590  151.7350 C   0  0  0  0  0  0  0  0  0  0  0  0
  160.4530  212.0290  151.3590 C   0  0  0  0  0  3  0  0  0  0  0  0
  156.8890  211.8060  154.7170 C   0  0  0  0  0  1  0  0  0  0  0  0
  157.5480  212.4600  153.6390 O   0  0  0  0  0  0  0  0  0  0  0  0
  161.5690  205.4660  143.7750 C   0  0  0  0  0  3  0  0  0  0  0  0
  162.7660  206.1980  145.9750 C   0  0  0  0  0  3  0  0  0  0  0  0
  162.1570  205.8420  144.8750 C   0  0  0  0  0  0  0  0  0  0  0  0
  162.1260  205.8510  142.4850 C   0  0  0  0  0  3  0  0  0  0  0  0
  161.5810  206.8410  141.7930 C   0  0  0  0  0  3  0  0  0  0  0  0
  162.5270  206.1300  139.7480 O   0  0  0  0  0  1  0  0  0  0  0  0
  162.1470  207.2630  140.4740 C   0  0  1  0  0  3  0  0  0  0  0  0
  161.5770  208.3110  138.2460 C   0  0  0  0  0  0  0  0  0  0  0  0
  160.6370  209.3420  140.4210 C   0  0  0  0  0  2  0  0  0  0  0  0
  161.4030  211.1950  138.9970 C   0  0  0  0  0  2  0  0  0  0  0  0
  161.1190  208.0730  139.6740 C   0  0  2  0  0  3  0  0  0  0  0  0
  161.1980  207.5060  137.3590 O   0  0  0  0  0  0  0  0  0  0  0  0
  162.7080  210.5120  138.6900 C   0  0  1  0  0  3  0  0  0  0  0  0
  162.8860  210.1050  140.0200 O   0  0  0  0  0  0  0  0  0  0  0  0
  162.4380  209.3660  137.8760 O   0  0  0  0  0  0  0  0  0  0  0  0
  161.5900  210.5460  140.3400 C   0  0  2  0  0  3  0  0  0  0  0  0
  160.9210  205.0730  147.3020 C   0  0  0  0  0  2  0  0  0  0  0  0
  160.9980  200.9550  149.4450 C   0  0  0  0  0  3  0  0  0  0  0  0
  160.6550  201.3790  146.9890 C   0  0  0  0  0  2  0  0  0  0  0  0
  161.5170  202.6160  146.8710 C   0  0  0  0  0  2  0  0  0  0  0  0
  160.8320  203.4790  149.1230 C   0  0  0  0  0  3  0  0  0  0  0  0
  161.2810  200.4980  148.0460 C   0  0  0  0  0  2  0  0  0  0  0  0
  160.8370  202.2110  149.8860 C   0  0  0  0  0  3  0  0  0  0  0  0
  161.0770  203.6830  147.8250 C   0  0  0  0  0  0  0  0  0  0  0  0
  1 19  1  6  0  0  0
  1  4  1  0  0  0  0
  3  8  1  0  0  0  0
  4  5  2  0  0  0  0
  5  6  1  0  0  0  0
  6  2  1  0  0  0  0
  7  4  1  0  0  0  0
  7  3  2  0  0  0  0
  8  6  2  0  0  0  0
  8  9  1  0  0  0  0
  9 14  1  0  0  0  0
 10 12  1  0  0  0  0
 10 17  1  0  0  0  0
 11 10  2  0  0  0  0
 13 12  2  0  0  0  0
 14 13  1  0  0  0  0
 15 14  2  0  0  0  0
 15 11  1  0  0  0  0
 17 16  1  0  0  0  0
 18 20  2  0  0  0  0
 20 19  2  0  0  0  0
 21 18  1  0  0  0  0
 22 21  2  0  0  0  0
 24 23  1  6  0  0  0
 24 22  1  0  0  0  0
 25 28  1  0  0  0  0
 28 26  1  0  0  0  0
 28 24  1  1  0  0  0
 29 25  2  0  0  0  0
 30 27  1  1  0  0  0
 30 31  1  0  0  0  0
 31 33  1  0  0  0  0
 32 25  1  0  0  0  0
 32 30  1  0  0  0  0
 33 27  1  6  0  0  0
 33 26  1  0  0  0  0
 34  1  1  0  0  0  0
 34 41  1  0  0  0  0
 35 40  2  0  0  0  0
 36 39  1  0  0  0  0
 37 36  1  0  0  0  0
 37 41  1  0  0  0  0
 38 40  1  0  0  0  0
 39 35  1  0  0  0  0
 41 38  2  0  0  0  0
M  END
>  <MODEL>
9

>  <REMARK>
 VINA RESULT:      -5.6      3.443     10.885
  Name = 
  10 active torsions:
  status: ('A' for Active; 'I' for Inactive)
    1  A    between atoms: C_2  and  O_26
    2  A    between atoms: C_3  and  C_4
    3  A    between atoms: C_8  and  C_38
    4  A    between atoms: C_10  and  C_34
    5  A    between atoms: C_10  and  C_41
    6  A    between atoms: C_15  and  C_34
    7  A    between atoms: C_18  and  N_28
    8  A    between atoms: C_21  and  C_34
    9  A    between atoms: C_22  and  C_38
   10  A    between atoms: N_28  and  C_37
                            x       y       z     vdW  Elec       q    Type
                         _______ _______ _______ _____ _____    ______ ____

>  <TORSDO>
F 10

$$$$
