=
 OpenBabel11042422263D

 34 36  0  0  1  0  0  0  0  0999 V2000
  161.2520  207.1500  153.3910 C   0  0  2  0  0  3  0  0  0  0  0  0
  159.9870  206.7050  155.2520 O   0  0  0  0  0  0  0  0  0  0  0  0
  161.1790  207.9250  156.8520 C   0  0  0  0  0  2  0  0  0  0  0  0
  161.4810  209.7330  155.3680 O   0  0  0  0  0  1  0  0  0  0  0  0
  159.9480  207.1090  156.5940 C   0  0  0  0  0  2  0  0  0  0  0  0
  160.5950  207.7240  154.5760 N   0  0  0  0  0  0  0  0  0  0  0  0
  161.5680  208.3450  155.4740 C   0  0  2  0  0  3  0  0  0  0  0  0
  160.7010  207.6960  152.0710 C   0  0  0  0  0  2  0  0  0  0  0  0
  161.2680  209.0780  151.8130 C   0  0  0  0  0  2  0  0  0  0  0  0
  161.6620  209.1930  150.4150 N   0  0  0  0  0  0  0  0  0  0  0  0
  162.5350  208.0710  150.1000 C   0  0  0  0  0  2  0  0  0  0  0  0
  161.2170  207.6160  148.0940 C   0  0  0  0  0  2  0  0  0  0  0  0
  162.4170  207.7310  148.6530 C   0  0  0  0  0  3  0  0  0  0  0  0
  162.3600  210.4670  150.1880 C   0  0  0  0  0  2  0  0  0  0  0  0
  161.4910  211.5520  149.5440 C   0  0  0  0  0  2  0  0  0  0  0  0
  162.6450  213.0930  146.2570 N   0  0  0  0  0  1  0  0  0  0  0  0
  162.3830  213.9880  148.3820 O   0  0  0  0  0  0  0  0  0  0  0  0
  161.8570  211.7250  148.1470 N   0  0  0  0  0  2  0  0  0  0  0  0
  162.2980  212.9810  147.6320 C   0  0  0  0  0  0  0  0  0  0  0  0
  161.2140  205.6240  153.4300 C   0  0  0  0  0  2  0  0  0  0  0  0
  161.5720  205.0410  152.0730 C   0  0  0  0  0  2  0  0  0  0  0  0
  160.8460  203.7230  151.8580 C   0  0  0  0  0  2  0  0  0  0  0  0
  160.5830  201.1960  148.9090 C   0  0  0  0  0  3  0  0  0  0  0  0
  160.8760  201.7650  147.7640 C   0  0  0  0  0  0  0  0  0  0  0  0
  161.2720  203.1480  147.4450 C   0  0  0  0  0  0  0  0  0  0  0  0
  160.9340  203.3170  150.4300 C   0  0  0  0  0  0  0  0  0  0  0  0
  160.9420  201.3650  146.3600 N   0  0  0  0  0  2  0  0  0  0  0  0
  161.2900  204.2890  149.5590 C   0  0  0  0  0  3  0  0  0  0  0  0
  161.3460  202.7040  146.0850 C   0  0  1  0  0  3  0  0  0  0  0  0
  160.6170  201.9360  150.1360 N   0  0  0  0  0  2  0  0  0  0  0  0
  161.4580  204.2170  148.1340 N   0  0  0  0  0  0  0  0  0  0  0  0
  160.2960  203.4110  145.2380 C   0  0  0  0  0  2  0  0  0  0  0  0
  160.7730  205.7850  144.9210 C   0  0  0  0  0  2  0  0  0  0  0  0
  160.9170  204.5390  144.4860 C   0  0  0  0  0  3  0  0  0  0  0  0
  1  8  1  6  0  0  0
  1 20  1  0  0  0  0
  1  6  1  0  0  0  0
  2  5  1  0  0  0  0
  5  3  1  0  0  0  0
  6  2  1  0  0  0  0
  6  7  1  0  0  0  0
  7  4  1  1  0  0  0
  7  3  1  0  0  0  0
  9  8  1  0  0  0  0
 10  9  1  0  0  0  0
 11 10  1  0  0  0  0
 12 13  2  0  0  0  0
 13 11  1  0  0  0  0
 14 10  1  0  0  0  0
 15 14  1  0  0  0  0
 16 19  1  0  0  0  0
 18 15  1  0  0  0  0
 19 18  1  0  0  0  0
 19 17  2  0  0  0  0
 21 20  1  0  0  0  0
 22 21  1  0  0  0  0
 23 30  1  0  0  0  0
 24 23  2  0  0  0  0
 25 24  1  0  0  0  0
 25 31  2  0  0  0  0
 26 22  1  0  0  0  0
 27 24  1  0  0  0  0
 28 26  2  0  0  0  0
 29 32  1  6  0  0  0
 29 27  1  0  0  0  0
 29 25  1  0  0  0  0
 30 26  1  0  0  0  0
 31 28  1  0  0  0  0
 34 33  2  0  0  0  0
 34 32  1  0  0  0  0
M  END
>  <MODEL>
1

>  <REMARK>
 VINA RESULT:      -7.0      0.000      0.000
  Name = 
  15 active torsions:
  status: ('A' for Active; 'I' for Inactive)
    1  A    between atoms: C_7  and  C_13
    2  A    between atoms: C_7  and  N_33
    3  A    between atoms: C_9  and  C_20
    4  A    between atoms: C_9  and  C_22
    5  A    between atoms: C_10  and  C_24
    6  A    between atoms: C_15  and  C_28
    7  A    between atoms: C_15  and  N_30
    8  A    between atoms: C_16  and  C_18
    9  A    between atoms: C_16  and  C_24
   10  A    between atoms: N_17  and  C_20
   11  A    between atoms: C_18  and  C_20
   12  A    between atoms: C_21  and  C_25
   13  A    between atoms: C_21  and  C_27
   14  A    between atoms: C_22  and  N_33
   15  A    between atoms: C_28  and  N_33
                            x       y       z     vdW  Elec       q    Type
                         _______ _______ _______ _____ _____    ______ ____

>  <TORSDO>
F 15

$$$$
=
 OpenBabel11042422263D

 34 36  0  0  1  0  0  0  0  0999 V2000
  160.7710  204.5350  150.4510 C   0  0  2  0  0  3  0  0  0  0  0  0
  161.0780  202.3000  150.8640 O   0  0  0  0  0  0  0  0  0  0  0  0
  160.4200  201.4130  148.8020 C   0  0  0  0  0  2  0  0  0  0  0  0
  161.5460  203.1160  147.6190 O   0  0  0  0  0  1  0  0  0  0  0  0
  161.0080  201.0980  150.1450 C   0  0  0  0  0  2  0  0  0  0  0  0
  161.3250  203.2730  149.9380 N   0  0  0  0  0  0  0  0  0  0  0  0
  160.6790  202.8790  148.6860 C   0  0  2  0  0  3  0  0  0  0  0  0
  161.4340  205.7750  149.8470 C   0  0  0  0  0  2  0  0  0  0  0  0
  160.4740  206.4550  148.8910 C   0  0  0  0  0  2  0  0  0  0  0  0
  161.2150  207.3190  147.9830 N   0  0  0  0  0  0  0  0  0  0  0  0
  161.7080  206.4990  146.8840 C   0  0  0  0  0  2  0  0  0  0  0  0
  160.8200  205.4570  144.8620 C   0  0  0  0  0  2  0  0  0  0  0  0
  160.5930  206.1980  145.9410 C   0  0  0  0  0  3  0  0  0  0  0  0
  162.3350  207.9570  148.6910 C   0  0  0  0  0  2  0  0  0  0  0  0
  162.0010  209.3290  149.2850 C   0  0  0  0  0  2  0  0  0  0  0  0
  162.1370  212.7170  147.5500 N   0  0  0  0  0  1  0  0  0  0  0  0
  161.3810  212.0790  149.6480 O   0  0  0  0  0  0  0  0  0  0  0  0
  162.2290  210.3720  148.2980 N   0  0  0  0  0  2  0  0  0  0  0  0
  161.8910  211.7360  148.5500 C   0  0  0  0  0  0  0  0  0  0  0  0
  160.8020  204.5650  151.9780 C   0  0  0  0  0  2  0  0  0  0  0  0
  161.6420  205.7300  152.4770 C   0  0  0  0  0  2  0  0  0  0  0  0
  161.2410  206.0980  153.8960 C   0  0  0  0  0  2  0  0  0  0  0  0
  160.6060  209.6340  152.3960 C   0  0  0  0  0  3  0  0  0  0  0  0
  160.2510  210.4900  153.3240 C   0  0  2  0  0  3  0  0  0  0  0  0
  160.0670  210.3210  154.7770 C   0  0  0  0  0  0  0  0  0  0  0  0
  160.8820  207.5390  153.9690 C   0  0  0  0  0  0  0  0  0  0  0  0
  159.8810  211.9020  153.3880 N   0  0  0  0  0  2  0  0  0  0  0  0
  160.5690  208.0090  155.1980 C   0  0  0  0  0  3  0  0  0  0  0  0
  159.7340  211.7140  154.7920 C   0  0  1  0  0  3  0  0  0  0  0  0
  160.8960  208.2680  152.7180 N   0  0  0  0  0  0  0  0  0  0  0  0
  160.1840  209.3360  155.5940 N   0  0  0  0  0  0  0  0  0  0  0  0
  158.2810  211.9080  155.2040 C   0  0  0  0  0  2  0  0  0  0  0  0
  157.4080  214.0100  156.0920 C   0  0  0  0  0  2  0  0  0  0  0  0
  158.1820  212.9450  156.2710 C   0  0  0  0  0  3  0  0  0  0  0  0
  1  8  1  6  0  0  0
  1 20  1  0  0  0  0
  3  5  1  0  0  0  0
  5  2  1  0  0  0  0
  6  1  1  0  0  0  0
  6  2  1  0  0  0  0
  7  4  1  6  0  0  0
  7  3  1  0  0  0  0
  7  6  1  0  0  0  0
  9  8  1  0  0  0  0
 10 14  1  0  0  0  0
 10  9  1  0  0  0  0
 11 10  1  0  0  0  0
 12 13  2  0  0  0  0
 13 11  1  0  0  0  0
 14 15  1  0  0  0  0
 16 19  1  0  0  0  0
 18 19  1  0  0  0  0
 18 15  1  0  0  0  0
 19 17  2  0  0  0  0
 20 21  1  0  0  0  0
 21 22  1  0  0  0  0
 22 26  1  0  0  0  0
 23 30  2  0  0  0  0
 24 23  1  6  0  0  0
 24 27  1  0  0  0  0
 24 25  1  0  0  0  0
 25 29  1  0  0  0  0
 25 31  2  0  0  0  0
 26 28  2  0  0  0  0
 27 29  1  0  0  0  0
 28 31  1  0  0  0  0
 29 32  1  6  0  0  0
 30 26  1  0  0  0  0
 32 34  1  0  0  0  0
 33 34  2  0  0  0  0
M  END
>  <MODEL>
2

>  <REMARK>
 VINA RESULT:      -7.0      3.058      7.677
  Name = 
  15 active torsions:
  status: ('A' for Active; 'I' for Inactive)
    1  A    between atoms: C_7  and  C_13
    2  A    between atoms: C_7  and  N_33
    3  A    between atoms: C_9  and  C_20
    4  A    between atoms: C_9  and  C_22
    5  A    between atoms: C_10  and  C_24
    6  A    between atoms: C_15  and  C_28
    7  A    between atoms: C_15  and  N_30
    8  A    between atoms: C_16  and  C_18
    9  A    between atoms: C_16  and  C_24
   10  A    between atoms: N_17  and  C_20
   11  A    between atoms: C_18  and  C_20
   12  A    between atoms: C_21  and  C_25
   13  A    between atoms: C_21  and  C_27
   14  A    between atoms: C_22  and  N_33
   15  A    between atoms: C_28  and  N_33
                            x       y       z     vdW  Elec       q    Type
                         _______ _______ _______ _____ _____    ______ ____

>  <TORSDO>
F 15

$$$$
=
 OpenBabel11042422263D

 34 36  0  0  1  0  0  0  0  0999 V2000
  160.8780  204.6410  150.5280 C   0  0  2  0  0  3  0  0  0  0  0  0
  161.1050  202.4110  151.0150 O   0  0  0  0  0  0  0  0  0  0  0  0
  160.3250  201.4800  149.0160 C   0  0  0  0  0  2  0  0  0  0  0  0
  161.4730  203.0850  147.7240 O   0  0  0  0  0  1  0  0  0  0  0  0
  160.9530  201.1880  150.3460 C   0  0  0  0  0  2  0  0  0  0  0  0
  161.3550  203.3370  150.0430 N   0  0  0  0  0  0  0  0  0  0  0  0
  160.6420  202.9270  148.8330 C   0  0  2  0  0  3  0  0  0  0  0  0
  161.5410  205.8270  149.8240 C   0  0  0  0  0  2  0  0  0  0  0  0
  160.5120  206.5700  148.9940 C   0  0  0  0  0  2  0  0  0  0  0  0
  161.1850  207.3610  147.9720 N   0  0  0  0  0  0  0  0  0  0  0  0
  161.6420  206.4540  146.9290 C   0  0  0  0  0  2  0  0  0  0  0  0
  160.7660  205.4770  144.8690 C   0  0  0  0  0  2  0  0  0  0  0  0
  160.5460  206.2260  145.9440 C   0  0  0  0  0  3  0  0  0  0  0  0
  162.3230  208.0850  148.5590 C   0  0  0  0  0  2  0  0  0  0  0  0
  161.9590  209.4490  149.1540 C   0  0  0  0  0  2  0  0  0  0  0  0
  162.7540  212.8880  147.7220 N   0  0  0  0  0  1  0  0  0  0  0  0
  161.3260  212.2070  149.4200 O   0  0  0  0  0  0  0  0  0  0  0  0
  162.5300  210.5160  148.3480 N   0  0  0  0  0  2  0  0  0  0  0  0
  162.1640  211.8830  148.5380 C   0  0  0  0  0  0  0  0  0  0  0  0
  161.0100  204.7410  152.0460 C   0  0  0  0  0  2  0  0  0  0  0  0
  161.9420  205.8780  152.4330 C   0  0  0  0  0  2  0  0  0  0  0  0
  161.6530  206.3350  153.8530 C   0  0  0  0  0  2  0  0  0  0  0  0
  159.9900  209.4440  155.5030 C   0  0  0  0  0  3  0  0  0  0  0  0
  159.6160  210.3220  154.6020 C   0  0  0  0  0  0  0  0  0  0  0  0
  159.7250  210.3050  153.1320 C   0  0  0  0  0  0  0  0  0  0  0  0
  160.9850  207.6640  153.8360 C   0  0  0  0  0  0  0  0  0  0  0  0
  158.9780  211.6360  154.5930 N   0  0  0  0  0  2  0  0  0  0  0  0
  160.7990  208.2190  152.6170 C   0  0  0  0  0  3  0  0  0  0  0  0
  159.0750  211.5810  153.1730 C   0  0  1  0  0  3  0  0  0  0  0  0
  160.6230  208.2160  155.1250 N   0  0  0  0  0  2  0  0  0  0  0  0
  160.1950  209.4760  152.2700 N   0  0  0  0  0  0  0  0  0  0  0  0
  160.0100  212.6690  152.6630 C   0  0  0  0  0  2  0  0  0  0  0  0
  158.3160  213.2890  151.0170 C   0  0  0  0  0  2  0  0  0  0  0  0
  159.2430  213.6820  151.8820 C   0  0  0  0  0  3  0  0  0  0  0  0
  1  8  1  6  0  0  0
  1 20  1  0  0  0  0
  3  5  1  0  0  0  0
  5  2  1  0  0  0  0
  6  1  1  0  0  0  0
  6  2  1  0  0  0  0
  7  4  1  6  0  0  0
  7  3  1  0  0  0  0
  7  6  1  0  0  0  0
  9  8  1  0  0  0  0
 10 14  1  0  0  0  0
 10  9  1  0  0  0  0
 11 10  1  0  0  0  0
 12 13  2  0  0  0  0
 13 11  1  0  0  0  0
 14 15  1  0  0  0  0
 16 19  1  0  0  0  0
 18 19  1  0  0  0  0
 18 15  1  0  0  0  0
 19 17  2  0  0  0  0
 20 21  1  0  0  0  0
 21 22  1  0  0  0  0
 24 23  2  0  0  0  0
 25 29  1  0  0  0  0
 25 24  1  0  0  0  0
 26 22  1  0  0  0  0
 26 30  1  0  0  0  0
 27 24  1  0  0  0  0
 28 26  2  0  0  0  0
 29 32  1  1  0  0  0
 29 27  1  0  0  0  0
 30 23  1  0  0  0  0
 31 28  1  0  0  0  0
 31 25  2  0  0  0  0
 33 34  2  0  0  0  0
 34 32  1  0  0  0  0
M  END
>  <MODEL>
3

>  <REMARK>
 VINA RESULT:      -6.9      2.723      7.158
  Name = 
  15 active torsions:
  status: ('A' for Active; 'I' for Inactive)
    1  A    between atoms: C_7  and  C_13
    2  A    between atoms: C_7  and  N_33
    3  A    between atoms: C_9  and  C_20
    4  A    between atoms: C_9  and  C_22
    5  A    between atoms: C_10  and  C_24
    6  A    between atoms: C_15  and  C_28
    7  A    between atoms: C_15  and  N_30
    8  A    between atoms: C_16  and  C_18
    9  A    between atoms: C_16  and  C_24
   10  A    between atoms: N_17  and  C_20
   11  A    between atoms: C_18  and  C_20
   12  A    between atoms: C_21  and  C_25
   13  A    between atoms: C_21  and  C_27
   14  A    between atoms: C_22  and  N_33
   15  A    between atoms: C_28  and  N_33
                            x       y       z     vdW  Elec       q    Type
                         _______ _______ _______ _____ _____    ______ ____

>  <TORSDO>
F 15

$$$$
=
 OpenBabel11042422263D

 34 36  0  0  1  0  0  0  0  0999 V2000
  161.8410  206.0640  148.2880 C   0  0  2  0  0  3  0  0  0  0  0  0
  163.1070  205.1020  146.6350 O   0  0  0  0  0  0  0  0  0  0  0  0
  161.4210  204.5050  145.1290 C   0  0  0  0  0  2  0  0  0  0  0  0
  160.2870  206.5470  145.4610 O   0  0  0  0  0  1  0  0  0  0  0  0
  162.9020  204.5730  145.3530 C   0  0  0  0  0  2  0  0  0  0  0  0
  162.0860  205.9860  146.8400 N   0  0  0  0  0  0  0  0  0  0  0  0
  160.9100  205.4900  146.1270 C   0  0  2  0  0  3  0  0  0  0  0  0
  160.7710  205.0820  148.7730 C   0  0  0  0  0  2  0  0  0  0  0  0
  161.4350  203.8470  149.3500 C   0  0  0  0  0  2  0  0  0  0  0  0
  160.4650  203.0870  150.1270 N   0  0  0  0  0  0  0  0  0  0  0  0
  160.9660  202.9810  151.4910 C   0  0  0  0  0  2  0  0  0  0  0  0
  161.1900  204.9640  152.8980 C   0  0  0  0  0  2  0  0  0  0  0  0
  161.6490  204.2480  151.8780 C   0  0  0  0  0  3  0  0  0  0  0  0
  160.2810  201.7510  149.5410 C   0  0  0  0  0  2  0  0  0  0  0  0
  161.2410  201.4330  148.3910 C   0  0  0  0  0  2  0  0  0  0  0  0
  160.0200  201.0550  144.8020 N   0  0  0  0  0  1  0  0  0  0  0  0
  161.3150  199.6830  146.1520 O   0  0  0  0  0  0  0  0  0  0  0  0
  160.5930  201.6850  147.1130 N   0  0  0  0  0  2  0  0  0  0  0  0
  160.6740  200.7590  146.0300 C   0  0  0  0  0  0  0  0  0  0  0  0
  161.5260  207.4970  148.7130 C   0  0  0  0  0  2  0  0  0  0  0  0
  161.1220  207.5480  150.1770 C   0  0  0  0  0  2  0  0  0  0  0  0
  162.1090  208.3920  150.9660 C   0  0  0  0  0  2  0  0  0  0  0  0
  160.7190  208.5160  154.6000 C   0  0  0  0  0  3  0  0  0  0  0  0
  160.1700  209.6780  154.8620 C   0  0  2  0  0  3  0  0  0  0  0  0
  160.0090  210.8820  154.0280 C   0  0  0  0  0  0  0  0  0  0  0  0
  161.4250  209.0390  152.1170 C   0  0  0  0  0  0  0  0  0  0  0  0
  159.5160  210.3160  156.0030 N   0  0  0  0  0  2  0  0  0  0  0  0
  161.0090  210.3110  151.9200 C   0  0  0  0  0  3  0  0  0  0  0  0
  159.3530  211.4560  155.1650 C   0  0  1  0  0  3  0  0  0  0  0  0
  161.2950  208.2400  153.3170 N   0  0  0  0  0  0  0  0  0  0  0  0
  160.3290  211.1970  152.8230 N   0  0  0  0  0  0  0  0  0  0  0  0
  160.1590  212.6300  155.7050 C   0  0  0  0  0  2  0  0  0  0  0  0
  158.5020  214.2550  154.9420 C   0  0  0  0  0  2  0  0  0  0  0  0
  159.2680  213.8050  155.9290 C   0  0  0  0  0  3  0  0  0  0  0  0
  1 20  1  6  0  0  0
  1  8  1  0  0  0  0
  2  6  1  0  0  0  0
  3  5  1  0  0  0  0
  3  7  1  0  0  0  0
  5  2  1  0  0  0  0
  6  1  1  0  0  0  0
  7  4  1  6  0  0  0
  7  6  1  0  0  0  0
  8  9  1  0  0  0  0
  9 10  1  0  0  0  0
 10 11  1  0  0  0  0
 11 13  1  0  0  0  0
 13 12  2  0  0  0  0
 14 10  1  0  0  0  0
 15 14  1  0  0  0  0
 16 19  1  0  0  0  0
 18 15  1  0  0  0  0
 19 17  2  0  0  0  0
 19 18  1  0  0  0  0
 20 21  1  0  0  0  0
 21 22  1  0  0  0  0
 22 26  1  0  0  0  0
 24 23  1  1  0  0  0
 24 27  1  0  0  0  0
 25 24  1  0  0  0  0
 25 29  1  0  0  0  0
 26 30  1  0  0  0  0
 28 26  2  0  0  0  0
 28 31  1  0  0  0  0
 29 32  1  1  0  0  0
 29 27  1  0  0  0  0
 30 23  2  0  0  0  0
 31 25  2  0  0  0  0
 32 34  1  0  0  0  0
 33 34  2  0  0  0  0
M  END
>  <MODEL>
4

>  <REMARK>
 VINA RESULT:      -6.8      3.733      9.626
  Name = 
  15 active torsions:
  status: ('A' for Active; 'I' for Inactive)
    1  A    between atoms: C_7  and  C_13
    2  A    between atoms: C_7  and  N_33
    3  A    between atoms: C_9  and  C_20
    4  A    between atoms: C_9  and  C_22
    5  A    between atoms: C_10  and  C_24
    6  A    between atoms: C_15  and  C_28
    7  A    between atoms: C_15  and  N_30
    8  A    between atoms: C_16  and  C_18
    9  A    between atoms: C_16  and  C_24
   10  A    between atoms: N_17  and  C_20
   11  A    between atoms: C_18  and  C_20
   12  A    between atoms: C_21  and  C_25
   13  A    between atoms: C_21  and  C_27
   14  A    between atoms: C_22  and  N_33
   15  A    between atoms: C_28  and  N_33
                            x       y       z     vdW  Elec       q    Type
                         _______ _______ _______ _____ _____    ______ ____

>  <TORSDO>
F 15

$$$$
=
 OpenBabel11042422263D

 34 36  0  0  1  0  0  0  0  0999 V2000
  161.9150  206.4040  148.0680 C   0  0  2  0  0  3  0  0  0  0  0  0
  163.0840  205.1910  146.5110 O   0  0  0  0  0  0  0  0  0  0  0  0
  161.3240  204.4910  145.1390 C   0  0  0  0  0  2  0  0  0  0  0  0
  160.2870  206.6070  145.2490 O   0  0  0  0  0  1  0  0  0  0  0  0
  162.8130  204.5190  145.3100 C   0  0  0  0  0  2  0  0  0  0  0  0
  162.1080  206.1390  146.6340 N   0  0  0  0  0  0  0  0  0  0  0  0
  160.8880  205.6130  146.0220 C   0  0  2  0  0  3  0  0  0  0  0  0
  160.8260  205.5350  148.7020 C   0  0  0  0  0  2  0  0  0  0  0  0
  161.4370  204.2490  149.2240 C   0  0  0  0  0  2  0  0  0  0  0  0
  160.9170  203.9640  150.5540 N   0  0  0  0  0  0  0  0  0  0  0  0
  161.8660  204.4850  151.5290 C   0  0  0  0  0  2  0  0  0  0  0  0
  161.2140  205.7250  153.5300 C   0  0  0  0  0  2  0  0  0  0  0  0
  161.2890  205.6820  152.2040 C   0  0  0  0  0  3  0  0  0  0  0  0
  160.7430  202.5140  150.7300 C   0  0  0  0  0  2  0  0  0  0  0  0
  159.9550  201.8360  149.6040 C   0  0  0  0  0  2  0  0  0  0  0  0
  161.8040  199.7640  146.9980 N   0  0  0  0  0  1  0  0  0  0  0  0
  160.5030  201.6770  146.8200 O   0  0  0  0  0  0  0  0  0  0  0  0
  160.7670  200.8090  148.9720 N   0  0  0  0  0  2  0  0  0  0  0  0
  161.0000  200.7910  147.5640 C   0  0  0  0  0  0  0  0  0  0  0  0
  161.6700  207.8900  148.3200 C   0  0  0  0  0  2  0  0  0  0  0  0
  161.6590  208.1880  149.8110 C   0  0  0  0  0  2  0  0  0  0  0  0
  162.0290  209.6410  150.0590 C   0  0  0  0  0  2  0  0  0  0  0  0
  160.1780  211.9270  152.6090 C   0  0  0  0  0  3  0  0  0  0  0  0
  160.3300  211.4940  153.8380 C   0  0  2  0  0  3  0  0  0  0  0  0
  161.0610  210.3300  154.3690 C   0  0  0  0  0  0  0  0  0  0  0  0
  161.5980  210.0540  151.4210 C   0  0  0  0  0  0  0  0  0  0  0  0
  159.8870  211.8930  155.1720 N   0  0  0  0  0  2  0  0  0  0  0  0
  162.0110  209.2630  152.4380 C   0  0  0  0  0  3  0  0  0  0  0  0
  160.6230  210.7740  155.6590 C   0  0  1  0  0  3  0  0  0  0  0  0
  160.7770  211.2430  151.5010 N   0  0  0  0  0  0  0  0  0  0  0  0
  161.7640  209.3890  153.8480 N   0  0  0  0  0  0  0  0  0  0  0  0
  159.6810  209.7500  156.2800 C   0  0  0  0  0  2  0  0  0  0  0  0
  160.2290  207.4990  157.0530 C   0  0  0  0  0  2  0  0  0  0  0  0
  160.4460  208.8060  157.1440 C   0  0  0  0  0  3  0  0  0  0  0  0
  1 20  1  6  0  0  0
  1  8  1  0  0  0  0
  2  6  1  0  0  0  0
  3  5  1  0  0  0  0
  3  7  1  0  0  0  0
  5  2  1  0  0  0  0
  6  1  1  0  0  0  0
  7  4  1  6  0  0  0
  7  6  1  0  0  0  0
  8  9  1  0  0  0  0
  9 10  1  0  0  0  0
 10 14  1  0  0  0  0
 10 11  1  0  0  0  0
 11 13  1  0  0  0  0
 13 12  2  0  0  0  0
 15 14  1  0  0  0  0
 16 19  1  0  0  0  0
 17 19  2  0  0  0  0
 18 15  1  0  0  0  0
 19 18  1  0  0  0  0
 20 21  1  0  0  0  0
 21 22  1  0  0  0  0
 22 26  1  0  0  0  0
 24 23  1  6  0  0  0
 24 25  1  0  0  0  0
 24 27  1  0  0  0  0
 25 29  1  0  0  0  0
 26 30  1  0  0  0  0
 26 28  2  0  0  0  0
 27 29  1  0  0  0  0
 28 31  1  0  0  0  0
 29 32  1  6  0  0  0
 30 23  2  0  0  0  0
 31 25  2  0  0  0  0
 32 34  1  0  0  0  0
 33 34  2  0  0  0  0
M  END
>  <MODEL>
5

>  <REMARK>
 VINA RESULT:      -6.5      3.362      9.568
  Name = 
  15 active torsions:
  status: ('A' for Active; 'I' for Inactive)
    1  A    between atoms: C_7  and  C_13
    2  A    between atoms: C_7  and  N_33
    3  A    between atoms: C_9  and  C_20
    4  A    between atoms: C_9  and  C_22
    5  A    between atoms: C_10  and  C_24
    6  A    between atoms: C_15  and  C_28
    7  A    between atoms: C_15  and  N_30
    8  A    between atoms: C_16  and  C_18
    9  A    between atoms: C_16  and  C_24
   10  A    between atoms: N_17  and  C_20
   11  A    between atoms: C_18  and  C_20
   12  A    between atoms: C_21  and  C_25
   13  A    between atoms: C_21  and  C_27
   14  A    between atoms: C_22  and  N_33
   15  A    between atoms: C_28  and  N_33
                            x       y       z     vdW  Elec       q    Type
                         _______ _______ _______ _____ _____    ______ ____

>  <TORSDO>
F 15

$$$$
=
 OpenBabel11042422263D

 34 36  0  0  1  0  0  0  0  0999 V2000
  160.8460  207.6360  152.0260 C   0  0  2  0  0  3  0  0  0  0  0  0
  161.4440  207.7350  149.8140 O   0  0  0  0  0  0  0  0  0  0  0  0
  161.9970  210.0020  149.6460 C   0  0  0  0  0  2  0  0  0  0  0  0
  163.1040  209.9700  151.7290 O   0  0  0  0  0  1  0  0  0  0  0  0
  161.9810  208.6830  148.9320 C   0  0  0  0  0  2  0  0  0  0  0  0
  161.8450  208.1210  151.0620 N   0  0  0  0  0  0  0  0  0  0  0  0
  161.9340  209.5800  151.0770 C   0  0  2  0  0  3  0  0  0  0  0  0
  160.3740  208.7170  153.0020 C   0  0  0  0  0  2  0  0  0  0  0  0
  160.8290  208.3720  154.4070 C   0  0  0  0  0  2  0  0  0  0  0  0
  161.1310  209.5950  155.1380 N   0  0  0  0  0  0  0  0  0  0  0  0
  161.1270  209.2810  156.5600 C   0  0  0  0  0  2  0  0  0  0  0  0
  163.1560  210.6130  156.8270 C   0  0  0  0  0  2  0  0  0  0  0  0
  162.4860  209.5080  157.1310 C   0  0  0  0  0  3  0  0  0  0  0  0
  160.1280  210.6280  154.8360 C   0  0  0  0  0  2  0  0  0  0  0  0
  158.9950  210.7200  155.8630 C   0  0  0  0  0  2  0  0  0  0  0  0
  156.0210  212.9630  155.0670 N   0  0  0  0  0  1  0  0  0  0  0  0
  156.2120  210.6610  155.2880 O   0  0  0  0  0  0  0  0  0  0  0  0
  158.1730  211.8900  155.5990 N   0  0  0  0  0  2  0  0  0  0  0  0
  156.7780  211.7850  155.3170 C   0  0  0  0  0  0  0  0  0  0  0  0
  161.3510  206.3950  152.7600 C   0  0  0  0  0  2  0  0  0  0  0  0
  161.9460  205.3960  151.7820 C   0  0  0  0  0  2  0  0  0  0  0  0
  161.0260  204.1960  151.6310 C   0  0  0  0  0  2  0  0  0  0  0  0
  160.5160  201.5250  148.8460 C   0  0  0  0  0  3  0  0  0  0  0  0
  160.8340  201.9990  147.6640 C   0  0  0  0  0  0  0  0  0  0  0  0
  161.3300  203.3250  147.2560 C   0  0  0  0  0  0  0  0  0  0  0  0
  161.0580  203.6990  150.2300 C   0  0  0  0  0  0  0  0  0  0  0  0
  160.8440  201.5120  146.2870 N   0  0  0  0  0  2  0  0  0  0  0  0
  161.4730  204.5860  149.2970 C   0  0  0  0  0  3  0  0  0  0  0  0
  161.3460  202.7960  145.9260 C   0  0  1  0  0  3  0  0  0  0  0  0
  160.6290  202.3320  150.0240 N   0  0  0  0  0  2  0  0  0  0  0  0
  161.6100  204.4160  147.8760 N   0  0  0  0  0  0  0  0  0  0  0  0
  160.3390  203.5310  145.0500 C   0  0  0  0  0  2  0  0  0  0  0  0
  160.6340  205.9480  144.8620 C   0  0  0  0  0  2  0  0  0  0  0  0
  160.9720  204.7350  144.4400 C   0  0  0  0  0  3  0  0  0  0  0  0
  1 20  1  1  0  0  0
  1  8  1  0  0  0  0
  2  6  1  0  0  0  0
  3  7  1  0  0  0  0
  5  3  1  0  0  0  0
  5  2  1  0  0  0  0
  6  7  1  0  0  0  0
  6  1  1  0  0  0  0
  7  4  1  1  0  0  0
  8  9  1  0  0  0  0
  9 10  1  0  0  0  0
 10 11  1  0  0  0  0
 11 13  1  0  0  0  0
 12 13  2  0  0  0  0
 14 10  1  0  0  0  0
 14 15  1  0  0  0  0
 16 19  1  0  0  0  0
 17 19  2  0  0  0  0
 18 15  1  0  0  0  0
 19 18  1  0  0  0  0
 21 20  1  0  0  0  0
 22 21  1  0  0  0  0
 23 30  1  0  0  0  0
 24 23  2  0  0  0  0
 25 24  1  0  0  0  0
 25 31  2  0  0  0  0
 26 22  1  0  0  0  0
 27 24  1  0  0  0  0
 28 26  2  0  0  0  0
 29 32  1  6  0  0  0
 29 27  1  0  0  0  0
 29 25  1  0  0  0  0
 30 26  1  0  0  0  0
 31 28  1  0  0  0  0
 34 33  2  0  0  0  0
 34 32  1  0  0  0  0
M  END
>  <MODEL>
6

>  <REMARK>
 VINA RESULT:      -6.3      2.628      5.158
  Name = 
  15 active torsions:
  status: ('A' for Active; 'I' for Inactive)
    1  A    between atoms: C_7  and  C_13
    2  A    between atoms: C_7  and  N_33
    3  A    between atoms: C_9  and  C_20
    4  A    between atoms: C_9  and  C_22
    5  A    between atoms: C_10  and  C_24
    6  A    between atoms: C_15  and  C_28
    7  A    between atoms: C_15  and  N_30
    8  A    between atoms: C_16  and  C_18
    9  A    between atoms: C_16  and  C_24
   10  A    between atoms: N_17  and  C_20
   11  A    between atoms: C_18  and  C_20
   12  A    between atoms: C_21  and  C_25
   13  A    between atoms: C_21  and  C_27
   14  A    between atoms: C_22  and  N_33
   15  A    between atoms: C_28  and  N_33
                            x       y       z     vdW  Elec       q    Type
                         _______ _______ _______ _____ _____    ______ ____

>  <TORSDO>
F 15

$$$$
=
 OpenBabel11042422263D

 34 36  0  0  1  0  0  0  0  0999 V2000
  161.0330  206.6760  153.4020 C   0  0  2  0  0  3  0  0  0  0  0  0
  162.5470  206.7910  151.6830 O   0  0  0  0  0  0  0  0  0  0  0  0
  161.4370  208.2840  150.2650 C   0  0  0  0  0  2  0  0  0  0  0  0
  160.7830  209.6460  152.0770 O   0  0  0  0  0  1  0  0  0  0  0  0
  162.7040  207.5150  150.4920 C   0  0  0  0  0  2  0  0  0  0  0  0
  161.7650  207.5680  152.4890 N   0  0  0  0  0  0  0  0  0  0  0  0
  160.8480  208.3240  151.6360 C   0  0  2  0  0  3  0  0  0  0  0  0
  161.2210  207.0370  154.8780 C   0  0  0  0  0  2  0  0  0  0  0  0
  160.1350  208.0020  155.3110 C   0  0  0  0  0  2  0  0  0  0  0  0
  160.7400  209.1780  155.9220 N   0  0  0  0  0  0  0  0  0  0  0  0
  161.7880  208.7270  156.8270 C   0  0  0  0  0  2  0  0  0  0  0  0
  163.0700  210.7060  156.1920 C   0  0  0  0  0  2  0  0  0  0  0  0
  162.6990  209.8620  157.1480 C   0  0  0  0  0  3  0  0  0  0  0  0
  159.7230  209.9470  156.6560 C   0  0  0  0  0  2  0  0  0  0  0  0
  158.6390  210.5630  155.7650 C   0  0  0  0  0  2  0  0  0  0  0  0
  159.3420  213.2620  153.1710 N   0  0  0  0  0  1  0  0  0  0  0  0
  158.0740  211.3200  153.0850 O   0  0  0  0  0  0  0  0  0  0  0  0
  159.1460  211.7600  155.1130 N   0  0  0  0  0  2  0  0  0  0  0  0
  158.8200  212.0770  153.7600 C   0  0  0  0  0  0  0  0  0  0  0  0
  161.3770  205.2140  153.1300 C   0  0  0  0  0  2  0  0  0  0  0  0
  160.4540  204.6310  152.0720 C   0  0  0  0  0  2  0  0  0  0  0  0
  160.8120  203.1780  151.8050 C   0  0  0  0  0  2  0  0  0  0  0  0
  160.5620  200.9810  148.6010 C   0  0  0  0  0  3  0  0  0  0  0  0
  160.8320  201.6770  147.5220 C   0  0  0  0  0  0  0  0  0  0  0  0
  161.1980  203.0940  147.3510 C   0  0  0  0  0  0  0  0  0  0  0  0
  160.8910  202.9310  150.3410 C   0  0  0  0  0  0  0  0  0  0  0  0
  160.8890  201.4340  146.0830 N   0  0  0  0  0  2  0  0  0  0  0  0
  161.2180  203.9990  149.5770 C   0  0  0  0  0  3  0  0  0  0  0  0
  161.2650  202.8010  145.9510 C   0  0  1  0  0  3  0  0  0  0  0  0
  160.5960  201.5840  149.9010 N   0  0  0  0  0  2  0  0  0  0  0  0
  161.3720  204.0860  148.1510 N   0  0  0  0  0  0  0  0  0  0  0  0
  160.1920  203.5750  145.1950 C   0  0  0  0  0  2  0  0  0  0  0  0
  160.8160  205.9340  145.0820 C   0  0  0  0  0  2  0  0  0  0  0  0
  160.7990  204.7430  144.4950 C   0  0  0  0  0  3  0  0  0  0  0  0
  1 20  1  1  0  0  0
  1  8  1  0  0  0  0
  2  6  1  0  0  0  0
  3  5  1  0  0  0  0
  3  7  1  0  0  0  0
  5  2  1  0  0  0  0
  6  1  1  0  0  0  0
  7  4  1  1  0  0  0
  7  6  1  0  0  0  0
  8  9  1  0  0  0  0
  9 10  1  0  0  0  0
 10 14  1  0  0  0  0
 10 11  1  0  0  0  0
 11 13  1  0  0  0  0
 12 13  2  0  0  0  0
 15 14  1  0  0  0  0
 16 19  1  0  0  0  0
 17 19  2  0  0  0  0
 18 15  1  0  0  0  0
 19 18  1  0  0  0  0
 21 20  1  0  0  0  0
 22 21  1  0  0  0  0
 23 30  1  0  0  0  0
 24 23  2  0  0  0  0
 25 24  1  0  0  0  0
 25 31  2  0  0  0  0
 26 22  1  0  0  0  0
 27 24  1  0  0  0  0
 28 26  2  0  0  0  0
 29 32  1  6  0  0  0
 29 27  1  0  0  0  0
 29 25  1  0  0  0  0
 30 26  1  0  0  0  0
 31 28  1  0  0  0  0
 34 33  2  0  0  0  0
 34 32  1  0  0  0  0
M  END
>  <MODEL>
7

>  <REMARK>
 VINA RESULT:      -6.2      2.629      4.567
  Name = 
  15 active torsions:
  status: ('A' for Active; 'I' for Inactive)
    1  A    between atoms: C_7  and  C_13
    2  A    between atoms: C_7  and  N_33
    3  A    between atoms: C_9  and  C_20
    4  A    between atoms: C_9  and  C_22
    5  A    between atoms: C_10  and  C_24
    6  A    between atoms: C_15  and  C_28
    7  A    between atoms: C_15  and  N_30
    8  A    between atoms: C_16  and  C_18
    9  A    between atoms: C_16  and  C_24
   10  A    between atoms: N_17  and  C_20
   11  A    between atoms: C_18  and  C_20
   12  A    between atoms: C_21  and  C_25
   13  A    between atoms: C_21  and  C_27
   14  A    between atoms: C_22  and  N_33
   15  A    between atoms: C_28  and  N_33
                            x       y       z     vdW  Elec       q    Type
                         _______ _______ _______ _____ _____    ______ ____

>  <TORSDO>
F 15

$$$$
=
 OpenBabel11042422263D

 34 36  0  0  1  0  0  0  0  0999 V2000
  161.6770  208.7980  150.4610 C   0  0  2  0  0  3  0  0  0  0  0  0
  161.4130  209.1570  152.7110 O   0  0  0  0  0  0  0  0  0  0  0  0
  160.9300  206.9790  153.4150 C   0  0  0  0  0  2  0  0  0  0  0  0
  162.5820  206.0670  151.9990 O   0  0  0  0  0  1  0  0  0  0  0  0
  161.2020  208.3840  153.8620 C   0  0  0  0  0  2  0  0  0  0  0  0
  162.0180  208.3250  151.8120 N   0  0  0  0  0  0  0  0  0  0  0  0
  161.5190  206.9700  152.0430 C   0  0  2  0  0  3  0  0  0  0  0  0
  162.2560  207.9190  149.3500 C   0  0  0  0  0  2  0  0  0  0  0  0
  161.1330  207.1990  148.6300 C   0  0  0  0  0  2  0  0  0  0  0  0
  161.6900  206.2920  147.6350 N   0  0  0  0  0  0  0  0  0  0  0  0
  160.8690  206.3800  146.4360 C   0  0  0  0  0  2  0  0  0  0  0  0
  161.1870  205.3930  144.2250 C   0  0  0  0  0  2  0  0  0  0  0  0
  161.1560  205.2220  145.5420 C   0  0  0  0  0  3  0  0  0  0  0  0
  161.6980  204.9150  148.1520 C   0  0  0  0  0  2  0  0  0  0  0  0
  160.6920  204.6620  149.2790 C   0  0  0  0  0  2  0  0  0  0  0  0
  161.1060  201.0550  150.4300 N   0  0  0  0  0  1  0  0  0  0  0  0
  160.0090  201.9860  148.6090 O   0  0  0  0  0  0  0  0  0  0  0  0
  161.0790  203.4870  150.0430 N   0  0  0  0  0  2  0  0  0  0  0  0
  160.6990  202.1700  149.6460 C   0  0  0  0  0  0  0  0  0  0  0  0
  162.0640  210.2640  150.2810 C   0  0  0  0  0  2  0  0  0  0  0  0
  162.0610  210.6450  148.8090 C   0  0  0  0  0  2  0  0  0  0  0  0
  161.7400  212.1210  148.6490 C   0  0  0  0  0  2  0  0  0  0  0  0
  162.8390  213.4950  145.1770 C   0  0  0  0  0  3  0  0  0  0  0  0
  161.8790  213.3770  144.2900 C   0  0  0  0  0  0  0  0  0  0  0  0
  160.5160  212.8300  144.4080 C   0  0  0  0  0  0  0  0  0  0  0  0
  161.5370  212.4480  147.2130 C   0  0  0  0  0  0  0  0  0  0  0  0
  161.6920  213.6820  142.8730 N   0  0  0  0  0  2  0  0  0  0  0  0
  160.3280  212.1270  146.6980 C   0  0  0  0  0  3  0  0  0  0  0  0
  160.3710  213.1690  143.0240 C   0  0  1  0  0  3  0  0  0  0  0  0
  162.6580  213.0580  146.5290 N   0  0  0  0  0  2  0  0  0  0  0  0
  159.8300  212.3090  145.3620 N   0  0  0  0  0  0  0  0  0  0  0  0
  160.1930  211.9100  142.1850 C   0  0  0  0  0  2  0  0  0  0  0  0
  158.4840  212.9710  140.7990 C   0  0  0  0  0  2  0  0  0  0  0  0
  159.6000  212.2550  140.8600 C   0  0  0  0  0  3  0  0  0  0  0  0
  1  8  1  6  0  0  0
  1  6  1  0  0  0  0
  2  5  1  0  0  0  0
  3  5  1  0  0  0  0
  6  7  1  0  0  0  0
  6  2  1  0  0  0  0
  7  4  1  1  0  0  0
  7  3  1  0  0  0  0
  9  8  1  0  0  0  0
 10 14  1  0  0  0  0
 10  9  1  0  0  0  0
 11 10  1  0  0  0  0
 12 13  2  0  0  0  0
 13 11  1  0  0  0  0
 14 15  1  0  0  0  0
 15 18  1  0  0  0  0
 17 19  2  0  0  0  0
 19 18  1  0  0  0  0
 19 16  1  0  0  0  0
 20  1  1  0  0  0  0
 21 20  1  0  0  0  0
 22 21  1  0  0  0  0
 23 30  1  0  0  0  0
 24 25  1  0  0  0  0
 24 23  2  0  0  0  0
 25 31  2  0  0  0  0
 26 22  1  0  0  0  0
 27 29  1  0  0  0  0
 27 24  1  0  0  0  0
 28 26  2  0  0  0  0
 29 32  1  6  0  0  0
 29 25  1  0  0  0  0
 30 26  1  0  0  0  0
 31 28  1  0  0  0  0
 33 34  2  0  0  0  0
 34 32  1  0  0  0  0
M  END
>  <MODEL>
8

>  <REMARK>
 VINA RESULT:      -6.1      3.234      8.157
  Name = 
  15 active torsions:
  status: ('A' for Active; 'I' for Inactive)
    1  A    between atoms: C_7  and  C_13
    2  A    between atoms: C_7  and  N_33
    3  A    between atoms: C_9  and  C_20
    4  A    between atoms: C_9  and  C_22
    5  A    between atoms: C_10  and  C_24
    6  A    between atoms: C_15  and  C_28
    7  A    between atoms: C_15  and  N_30
    8  A    between atoms: C_16  and  C_18
    9  A    between atoms: C_16  and  C_24
   10  A    between atoms: N_17  and  C_20
   11  A    between atoms: C_18  and  C_20
   12  A    between atoms: C_21  and  C_25
   13  A    between atoms: C_21  and  C_27
   14  A    between atoms: C_22  and  N_33
   15  A    between atoms: C_28  and  N_33
                            x       y       z     vdW  Elec       q    Type
                         _______ _______ _______ _____ _____    ______ ____

>  <TORSDO>
F 15

$$$$
=
 OpenBabel11042422263D

 34 36  0  0  1  0  0  0  0  0999 V2000
  161.7570  205.8720  151.1040 C   0  0  2  0  0  3  0  0  0  0  0  0
  161.9670  208.1330  150.7790 O   0  0  0  0  0  0  0  0  0  0  0  0
  162.0550  208.2000  148.4430 C   0  0  0  0  0  2  0  0  0  0  0  0
  160.3470  206.5840  148.2510 O   0  0  0  0  0  1  0  0  0  0  0  0
  161.9940  209.0220  149.6950 C   0  0  0  0  0  2  0  0  0  0  0  0
  161.2790  207.0370  150.3430 N   0  0  0  0  0  0  0  0  0  0  0  0
  161.5390  206.8800  148.9120 C   0  0  2  0  0  3  0  0  0  0  0  0
  160.7810  204.6940  151.0810 C   0  0  0  0  0  2  0  0  0  0  0  0
  161.3980  203.5320  150.3270 C   0  0  0  0  0  2  0  0  0  0  0  0
  160.7190  203.3600  149.0500 N   0  0  0  0  0  0  0  0  0  0  0  0
  160.1400  202.0240  149.0250 C   0  0  0  0  0  2  0  0  0  0  0  0
  161.5810  200.2060  148.2620 C   0  0  0  0  0  2  0  0  0  0  0  0
  161.2060  201.0080  149.2530 C   0  0  0  0  0  3  0  0  0  0  0  0
  161.6720  203.5280  147.9420 C   0  0  0  0  0  2  0  0  0  0  0  0
  161.0860  203.2230  146.5590 C   0  0  0  0  0  2  0  0  0  0  0  0
  161.5950  205.7760  143.7790 N   0  0  0  0  0  1  0  0  0  0  0  0
  159.6900  205.0460  144.8840 O   0  0  0  0  0  0  0  0  0  0  0  0
  161.7050  204.0720  145.5540 N   0  0  0  0  0  2  0  0  0  0  0  0
  160.9390  204.9660  144.7470 C   0  0  0  0  0  0  0  0  0  0  0  0
  162.1310  206.2680  152.5310 C   0  0  0  0  0  2  0  0  0  0  0  0
  160.8850  206.4830  153.3740 C   0  0  0  0  0  2  0  0  0  0  0  0
  161.2100  207.3440  154.5830 C   0  0  0  0  0  2  0  0  0  0  0  0
  159.9340  210.5500  152.7820 C   0  0  0  0  0  3  0  0  0  0  0  0
  159.2050  211.2910  153.5830 C   0  0  2  0  0  3  0  0  0  0  0  0
  158.8190  211.1000  154.9920 C   0  0  0  0  0  0  0  0  0  0  0  0
  160.4740  208.6340  154.5060 C   0  0  0  0  0  0  0  0  0  0  0  0
  158.4670  212.5490  153.4960 N   0  0  0  0  0  2  0  0  0  0  0  0
  159.8350  209.0190  155.6340 C   0  0  0  0  0  3  0  0  0  0  0  0
  158.1300  212.3490  154.8660 C   0  0  1  0  0  3  0  0  0  0  0  0
  160.5150  209.3200  153.2320 N   0  0  0  0  0  0  0  0  0  0  0  0
  159.0460  210.1960  155.8780 N   0  0  0  0  0  0  0  0  0  0  0  0
  156.6280  212.1450  155.0170 C   0  0  0  0  0  2  0  0  0  0  0  0
  156.4850  213.3190  157.1540 C   0  0  0  0  0  2  0  0  0  0  0  0
  156.0530  213.1960  155.9040 C   0  0  0  0  0  3  0  0  0  0  0  0
  1  8  1  1  0  0  0
  1 20  1  0  0  0  0
  3  7  1  0  0  0  0
  3  5  1  0  0  0  0
  5  2  1  0  0  0  0
  6  2  1  0  0  0  0
  6  1  1  0  0  0  0
  7  4  1  6  0  0  0
  7  6  1  0  0  0  0
  9  8  1  0  0  0  0
 10  9  1  0  0  0  0
 11 10  1  0  0  0  0
 11 13  1  0  0  0  0
 12 13  2  0  0  0  0
 14 10  1  0  0  0  0
 15 14  1  0  0  0  0
 16 19  1  0  0  0  0
 18 15  1  0  0  0  0
 19 17  2  0  0  0  0
 19 18  1  0  0  0  0
 20 21  1  0  0  0  0
 21 22  1  0  0  0  0
 23 30  2  0  0  0  0
 24 23  1  6  0  0  0
 24 25  1  0  0  0  0
 25 31  2  0  0  0  0
 26 22  1  0  0  0  0
 26 28  2  0  0  0  0
 27 24  1  0  0  0  0
 27 29  1  0  0  0  0
 28 31  1  0  0  0  0
 29 25  1  0  0  0  0
 29 32  1  6  0  0  0
 30 26  1  0  0  0  0
 32 34  1  0  0  0  0
 34 33  2  0  0  0  0
M  END
>  <MODEL>
9

>  <REMARK>
 VINA RESULT:      -6.1      3.741      8.746
  Name = 
  15 active torsions:
  status: ('A' for Active; 'I' for Inactive)
    1  A    between atoms: C_7  and  C_13
    2  A    between atoms: C_7  and  N_33
    3  A    between atoms: C_9  and  C_20
    4  A    between atoms: C_9  and  C_22
    5  A    between atoms: C_10  and  C_24
    6  A    between atoms: C_15  and  C_28
    7  A    between atoms: C_15  and  N_30
    8  A    between atoms: C_16  and  C_18
    9  A    between atoms: C_16  and  C_24
   10  A    between atoms: N_17  and  C_20
   11  A    between atoms: C_18  and  C_20
   12  A    between atoms: C_21  and  C_25
   13  A    between atoms: C_21  and  C_27
   14  A    between atoms: C_22  and  N_33
   15  A    between atoms: C_28  and  N_33
                            x       y       z     vdW  Elec       q    Type
                         _______ _______ _______ _____ _____    ______ ____

>  <TORSDO>
F 15

$$$$
