=
 OpenBabel11042420113D

 30 33  0  0  1  0  0  0  0  0999 V2000
  161.2530  207.1100  155.0870 N   0  0  0  0  0  2  0  0  0  0  0  0
  160.9510  209.3510  151.6240 N   0  0  0  0  0  2  0  0  0  0  0  0
  161.0260  207.7210  153.9690 C   0  0  0  0  0  0  0  0  0  0  0  0
  159.0300  211.9300  155.1270 C   0  0  0  0  0  3  0  0  0  0  0  0
  159.3640  213.2210  152.9410 C   0  0  0  0  0  0  0  0  0  0  0  0
  161.9210  207.4740  152.7570 C   0  0  1  0  0  3  0  0  0  0  0  0
  159.4300  214.4530  152.2340 N   0  0  0  0  0  1  0  0  0  0  0  0
  159.7340  212.1210  152.3430 N   0  0  0  0  0  0  0  0  0  0  0  0
  160.1870  209.7270  152.7590 C   0  0  0  0  0  0  0  0  0  0  0  0
  159.6550  210.8900  153.0530 C   0  0  0  0  0  0  0  0  0  0  0  0
  159.3510  210.8320  154.4550 C   0  0  0  0  0  0  0  0  0  0  0  0
  159.7670  209.5780  155.0010 N   0  0  0  0  0  0  0  0  0  0  0  0
  162.1940  205.9790  152.6210 C   0  0  0  0  0  1  0  0  0  0  0  0
  161.3460  207.9990  151.4880 N   0  0  0  0  0  0  0  0  0  0  0  0
  158.7830  213.2140  154.3570 C   0  0  0  0  0  3  0  0  0  0  0  0
  160.2310  208.9450  153.9630 C   0  0  2  0  0  3  0  0  0  0  0  0
  162.3940  207.9860  150.4740 C   0  0  0  0  0  2  0  0  0  0  0  0
  162.1330  209.6340  148.7660 O   0  0  0  0  0  1  0  0  0  0  0  0
  161.8080  208.3210  149.1130 C   0  0  1  0  0  3  0  0  0  0  0  0
  162.3510  207.4100  148.1190 N   0  0  0  0  0  2  0  0  0  0  0  0
  161.2300  206.7410  147.4750 C   0  0  0  0  0  2  0  0  0  0  0  0
  161.1510  202.5610  148.4680 C   0  0  0  0  0  0  0  0  0  0  0  0
  161.2200  205.2920  147.8280 C   0  0  0  0  0  0  0  0  0  0  0  0
  161.5690  204.3380  146.8660 C   0  0  0  0  0  3  0  0  0  0  0  0
  161.5360  202.9780  147.1860 C   0  0  0  0  0  3  0  0  0  0  0  0
  160.8320  204.8820  149.1080 C   0  0  0  0  0  3  0  0  0  0  0  0
  160.7990  203.5220  149.4270 C   0  0  0  0  0  3  0  0  0  0  0  0
  160.6860  200.7060  150.0500 O   0  0  0  0  0  1  0  0  0  0  0  0
  161.4710  200.2670  147.9470 O   0  0  0  0  0  0  0  0  0  0  0  0
  161.1150  201.1260  148.7970 C   0  0  0  0  0  0  0  0  0  0  0  0
  2  9  1  0  0  0  0
  3  1  2  0  0  0  0
  5 15  1  0  0  0  0
  6 13  1  6  0  0  0
  6  3  1  0  0  0  0
  7  5  1  0  0  0  0
  8  5  2  0  0  0  0
  8 10  1  0  0  0  0
  9 10  2  0  0  0  0
 10 11  1  0  0  0  0
 11 12  2  0  0  0  0
 11  4  1  0  0  0  0
 14  2  1  0  0  0  0
 14  6  1  0  0  0  0
 15  4  2  0  0  0  0
 16  9  1  1  0  0  0
 16  3  1  0  0  0  0
 16 12  1  0  0  0  0
 17 14  1  0  0  0  0
 19 18  1  6  0  0  0
 19 17  1  0  0  0  0
 20 19  1  0  0  0  0
 21 23  1  0  0  0  0
 21 20  1  0  0  0  0
 22 30  1  0  0  0  0
 22 27  1  0  0  0  0
 23 26  1  0  0  0  0
 24 25  1  0  0  0  0
 24 23  2  0  0  0  0
 25 22  2  0  0  0  0
 26 27  2  0  0  0  0
 29 30  2  0  0  0  0
 30 28  1  0  0  0  0
M  END
>  <MODEL>
1

>  <REMARK>
 VINA RESULT:      -8.3      0.000      0.000
  Name = 
  6 active torsions:
  status: ('A' for Active; 'I' for Inactive)
    1  A    between atoms: C_1  and  C_28
    2  A    between atoms: C_2  and  C_4
    3  A    between atoms: C_2  and  N_11
    4  A    between atoms: N_11  and  C_21
    5  A    between atoms: C_17  and  C_21
    6  A    between atoms: C_17  and  N_24
                            x       y       z     vdW  Elec       q    Type
                         _______ _______ _______ _____ _____    ______ ____

>  <TORSDO>
F 6

$$$$
=
 OpenBabel11042420113D

 30 33  0  0  1  0  0  0  0  0999 V2000
  160.6350  203.1920  152.0940 N   0  0  0  0  0  2  0  0  0  0  0  0
  161.4470  206.1560  149.3270 N   0  0  0  0  0  2  0  0  0  0  0  0
  161.0460  204.0990  151.2690 C   0  0  0  0  0  0  0  0  0  0  0  0
  160.9310  202.0930  146.9100 C   0  0  0  0  0  3  0  0  0  0  0  0
  161.0310  204.1830  145.4330 C   0  0  0  0  0  0  0  0  0  0  0  0
  160.8100  205.5790  151.5640 C   0  0  1  0  0  3  0  0  0  0  0  0
  160.8280  204.8150  144.1750 N   0  0  0  0  0  1  0  0  0  0  0  0
  161.3030  204.9150  146.4790 N   0  0  0  0  0  0  0  0  0  0  0  0
  161.5560  204.7970  148.9350 C   0  0  0  0  0  0  0  0  0  0  0  0
  161.5170  204.2740  147.7320 C   0  0  0  0  0  0  0  0  0  0  0  0
  161.2720  202.8730  147.9280 C   0  0  0  0  0  0  0  0  0  0  0  0
  161.1270  202.5850  149.3210 N   0  0  0  0  0  0  0  0  0  0  0  0
  161.1240  205.8620  153.0310 C   0  0  0  0  0  1  0  0  0  0  0  0
  161.6080  206.4850  150.6930 N   0  0  0  0  0  0  0  0  0  0  0  0
  161.0040  202.6540  145.5010 C   0  0  0  0  0  3  0  0  0  0  0  0
  161.3270  203.7410  149.8820 C   0  0  2  0  0  3  0  0  0  0  0  0
  161.0880  207.8380  150.8460 C   0  0  0  0  0  2  0  0  0  0  0  0
  162.1310  209.2410  149.2200 O   0  0  0  0  0  1  0  0  0  0  0  0
  162.1800  208.8540  150.5610 C   0  0  1  0  0  3  0  0  0  0  0  0
  161.9860  210.0190  151.4070 N   0  0  0  0  0  2  0  0  0  0  0  0
  161.8360  209.5490  152.7770 C   0  0  0  0  0  2  0  0  0  0  0  0
  158.3090  211.2320  154.5650 C   0  0  0  0  0  0  0  0  0  0  0  0
  160.6210  210.1500  153.4010 C   0  0  0  0  0  0  0  0  0  0  0  0
  160.3170  209.8780  154.7380 C   0  0  0  0  0  3  0  0  0  0  0  0
  159.1660  210.4180  155.3180 C   0  0  0  0  0  3  0  0  0  0  0  0
  159.7680  210.9590  152.6420 C   0  0  0  0  0  3  0  0  0  0  0  0
  158.6170  211.4980  153.2230 C   0  0  0  0  0  3  0  0  0  0  0  0
  156.2110  212.5510  154.4210 O   0  0  0  0  0  0  0  0  0  0  0  0
  156.8470  211.5950  156.4000 O   0  0  0  0  0  1  0  0  0  0  0  0
  157.0960  211.7950  155.1800 C   0  0  0  0  0  0  0  0  0  0  0  0
  2 14  1  0  0  0  0
  3  6  1  0  0  0  0
  3  1  2  0  0  0  0
  4 11  1  0  0  0  0
  5 15  1  0  0  0  0
  5  8  2  0  0  0  0
  6 13  1  1  0  0  0
  7  5  1  0  0  0  0
  8 10  1  0  0  0  0
  9  2  1  0  0  0  0
 10 11  1  0  0  0  0
 10  9  2  0  0  0  0
 11 12  2  0  0  0  0
 12 16  1  0  0  0  0
 14 17  1  0  0  0  0
 14  6  1  0  0  0  0
 15  4  2  0  0  0  0
 16  9  1  6  0  0  0
 16  3  1  0  0  0  0
 19 18  1  6  0  0  0
 19 17  1  0  0  0  0
 19 20  1  0  0  0  0
 20 21  1  0  0  0  0
 21 23  1  0  0  0  0
 22 30  1  0  0  0  0
 22 25  1  0  0  0  0
 23 24  1  0  0  0  0
 24 25  2  0  0  0  0
 26 27  1  0  0  0  0
 26 23  2  0  0  0  0
 27 22  2  0  0  0  0
 28 30  2  0  0  0  0
 30 29  1  0  0  0  0
M  END
>  <MODEL>
2

>  <REMARK>
 VINA RESULT:      -8.2      3.119      8.828
  Name = 
  6 active torsions:
  status: ('A' for Active; 'I' for Inactive)
    1  A    between atoms: C_1  and  C_28
    2  A    between atoms: C_2  and  C_4
    3  A    between atoms: C_2  and  N_11
    4  A    between atoms: N_11  and  C_21
    5  A    between atoms: C_17  and  C_21
    6  A    between atoms: C_17  and  N_24
                            x       y       z     vdW  Elec       q    Type
                         _______ _______ _______ _____ _____    ______ ____

>  <TORSDO>
F 6

$$$$
=
 OpenBabel11042420113D

 30 33  0  0  1  0  0  0  0  0999 V2000
  162.3700  209.1730  148.2610 N   0  0  0  0  0  2  0  0  0  0  0  0
  161.2220  206.2510  150.9530 N   0  0  0  0  0  2  0  0  0  0  0  0
  161.8600  208.3200  149.0890 C   0  0  0  0  0  0  0  0  0  0  0  0
  161.4220  204.2000  146.6680 C   0  0  0  0  0  3  0  0  0  0  0  0
  161.1410  202.5480  148.6050 C   0  0  0  0  0  0  0  0  0  0  0  0
  162.1340  208.4380  150.5870 C   0  0  1  0  0  3  0  0  0  0  0  0
  161.1860  201.2190  149.1090 N   0  0  0  0  0  1  0  0  0  0  0  0
  161.0040  203.5440  149.4390 N   0  0  0  0  0  0  0  0  0  0  0  0
  161.0620  206.0110  149.5640 C   0  0  0  0  0  0  0  0  0  0  0  0
  160.9480  204.8700  148.9260 C   0  0  1  0  0  3  0  0  0  0  0  0
  161.2130  205.1710  147.5470 C   0  0  0  0  0  0  0  0  0  0  0  0
  161.5320  206.5560  147.3940 N   0  0  0  0  0  0  0  0  0  0  0  0
  162.0070  209.8960  151.0160 C   0  0  0  0  0  1  0  0  0  0  0  0
  161.2350  207.5880  151.4160 N   0  0  0  0  0  0  0  0  0  0  0  0
  161.1730  202.7630  147.0900 C   0  0  0  0  0  3  0  0  0  0  0  0
  161.4060  207.0220  148.6020 C   0  0  0  0  0  0  0  0  0  0  0  0
  161.7730  207.5410  152.7700 C   0  0  0  0  0  2  0  0  0  0  0  0
  161.1300  205.6560  154.0860 O   0  0  0  0  0  1  0  0  0  0  0  0
  160.7480  206.9490  153.7200 C   0  0  1  0  0  3  0  0  0  0  0  0
  160.6560  207.7800  154.9080 N   0  0  0  0  0  2  0  0  0  0  0  0
  161.0640  209.1280  154.5360 C   0  0  0  0  0  2  0  0  0  0  0  0
  157.7000  211.8030  154.5150 C   0  0  0  0  0  0  0  0  0  0  0  0
  159.8850  210.0410  154.5270 C   0  0  0  0  0  0  0  0  0  0  0  0
  159.5310  210.7120  153.3510 C   0  0  0  0  0  3  0  0  0  0  0  0
  158.4430  211.5880  153.3460 C   0  0  0  0  0  3  0  0  0  0  0  0
  159.1500  210.2540  155.6980 C   0  0  0  0  0  3  0  0  0  0  0  0
  158.0620  211.1300  155.6920 C   0  0  0  0  0  3  0  0  0  0  0  0
  155.6620  212.7520  155.5660 O   0  0  0  0  0  1  0  0  0  0  0  0
  156.3800  213.5130  153.5320 O   0  0  0  0  0  0  0  0  0  0  0  0
  156.5570  212.7300  154.5030 C   0  0  0  0  0  0  0  0  0  0  0  0
  1  3  2  0  0  0  0
  2 14  1  0  0  0  0
  3  6  1  0  0  0  0
  4 15  2  0  0  0  0
  4 11  1  0  0  0  0
  5  7  1  0  0  0  0
  5  8  2  0  0  0  0
  6 13  1  1  0  0  0
  6 14  1  0  0  0  0
  9  2  1  0  0  0  0
 10 11  1  6  0  0  0
 10  8  1  0  0  0  0
 10  9  1  0  0  0  0
 12 11  2  0  0  0  0
 12 16  1  0  0  0  0
 14 17  1  0  0  0  0
 15  5  1  0  0  0  0
 16  3  1  0  0  0  0
 16  9  2  0  0  0  0
 17 19  1  0  0  0  0
 19 18  1  1  0  0  0
 19 20  1  0  0  0  0
 21 20  1  0  0  0  0
 22 27  1  0  0  0  0
 23 21  1  0  0  0  0
 23 26  1  0  0  0  0
 24 23  2  0  0  0  0
 25 24  1  0  0  0  0
 25 22  2  0  0  0  0
 27 26  2  0  0  0  0
 29 30  2  0  0  0  0
 30 22  1  0  0  0  0
 30 28  1  0  0  0  0
M  END
>  <MODEL>
3

>  <REMARK>
 VINA RESULT:      -8.0      3.173      9.097
  Name = 
  6 active torsions:
  status: ('A' for Active; 'I' for Inactive)
    1  A    between atoms: C_1  and  C_28
    2  A    between atoms: C_2  and  C_4
    3  A    between atoms: C_2  and  N_11
    4  A    between atoms: N_11  and  C_21
    5  A    between atoms: C_17  and  C_21
    6  A    between atoms: C_17  and  N_24
                            x       y       z     vdW  Elec       q    Type
                         _______ _______ _______ _____ _____    ______ ____

>  <TORSDO>
F 6

$$$$
=
 OpenBabel11042420113D

 30 33  0  0  1  0  0  0  0  0999 V2000
  161.9620  210.8540  149.5000 N   0  0  0  0  0  2  0  0  0  0  0  0
  160.4720  208.7970  152.7640 N   0  0  0  0  0  2  0  0  0  0  0  0
  161.6440  210.2300  150.5870 C   0  0  0  0  0  0  0  0  0  0  0  0
  159.0480  213.3130  153.1930 C   0  0  0  0  0  3  0  0  0  0  0  0
  157.9360  211.7050  154.8470 C   0  0  0  0  0  0  0  0  0  0  0  0
  161.4690  208.7130  150.5850 C   0  0  1  0  0  3  0  0  0  0  0  0
  156.9090  211.4190  155.7880 N   0  0  0  0  0  1  0  0  0  0  0  0
  158.7150  210.7400  154.4390 N   0  0  0  0  0  0  0  0  0  0  0  0
  160.4740  210.2150  152.7840 C   0  0  0  0  0  0  0  0  0  0  0  0
  159.7490  211.0360  153.5060 C   0  0  0  0  0  0  0  0  0  0  0  0
  159.8570  212.3150  152.8620 C   0  0  0  0  0  0  0  0  0  0  0  0
  160.6600  212.2110  151.6840 N   0  0  0  0  0  0  0  0  0  0  0  0
  162.6010  208.0700  149.7890 C   0  0  0  0  0  1  0  0  0  0  0  0
  161.4180  208.1270  151.9530 N   0  0  0  0  0  0  0  0  0  0  0  0
  158.1460  213.1550  154.4030 C   0  0  0  0  0  2  0  0  0  0  0  0
  161.0270  210.9620  151.6880 C   0  0  0  0  0  0  0  0  0  0  0  0
  160.9510  206.7500  151.8420 C   0  0  0  0  0  2  0  0  0  0  0  0
  161.2400  205.4390  153.8160 O   0  0  0  0  0  1  0  0  0  0  0  0
  161.8620  205.8230  152.6260 C   0  0  1  0  0  3  0  0  0  0  0  0
  162.1500  204.6430  151.8290 N   0  0  0  0  0  2  0  0  0  0  0  0
  160.8980  203.9260  151.6330 C   0  0  0  0  0  2  0  0  0  0  0  0
  160.8910  202.0260  147.7790 C   0  0  0  0  0  0  0  0  0  0  0  0
  160.8790  203.2740  150.2920 C   0  0  0  0  0  0  0  0  0  0  0  0
  160.5170  201.9280  150.1760 C   0  0  0  0  0  3  0  0  0  0  0  0
  160.5230  201.3070  148.9240 C   0  0  0  0  0  3  0  0  0  0  0  0
  161.2500  203.9970  149.1530 C   0  0  0  0  0  3  0  0  0  0  0  0
  161.2560  203.3750  147.9020 C   0  0  0  0  0  3  0  0  0  0  0  0
  160.4990  202.0600  145.3280 O   0  0  0  0  0  0  0  0  0  0  0  0
  161.2670  200.1650  146.3540 O   0  0  0  0  0  1  0  0  0  0  0  0
  160.8980  201.3650  146.4630 C   0  0  0  0  0  0  0  0  0  0  0  0
  1  3  2  0  0  0  0
  2  9  1  0  0  0  0
  3 16  1  0  0  0  0
  4 15  1  0  0  0  0
  5  7  1  0  0  0  0
  6 13  1  6  0  0  0
  6  3  1  0  0  0  0
  6 14  1  0  0  0  0
  8  5  2  0  0  0  0
  9 10  2  0  0  0  0
 10  8  1  0  0  0  0
 11  4  2  0  0  0  0
 11 10  1  0  0  0  0
 12 16  2  0  0  0  0
 12 11  1  0  0  0  0
 14  2  1  0  0  0  0
 15  5  1  0  0  0  0
 16  9  1  0  0  0  0
 17 14  1  0  0  0  0
 17 19  1  0  0  0  0
 19 18  1  1  0  0  0
 20 19  1  0  0  0  0
 21 20  1  0  0  0  0
 22 27  2  0  0  0  0
 22 25  1  0  0  0  0
 23 21  1  0  0  0  0
 24 23  1  0  0  0  0
 25 24  2  0  0  0  0
 26 23  2  0  0  0  0
 27 26  1  0  0  0  0
 28 30  2  0  0  0  0
 29 30  1  0  0  0  0
 30 22  1  0  0  0  0
M  END
>  <MODEL>
4

>  <REMARK>
 VINA RESULT:      -7.8      2.087      3.440
  Name = 
  6 active torsions:
  status: ('A' for Active; 'I' for Inactive)
    1  A    between atoms: C_1  and  C_28
    2  A    between atoms: C_2  and  C_4
    3  A    between atoms: C_2  and  N_11
    4  A    between atoms: N_11  and  C_21
    5  A    between atoms: C_17  and  C_21
    6  A    between atoms: C_17  and  N_24
                            x       y       z     vdW  Elec       q    Type
                         _______ _______ _______ _____ _____    ______ ____

>  <TORSDO>
F 6

$$$$
=
 OpenBabel11042420113D

 30 33  0  0  1  0  0  0  0  0999 V2000
  161.3510  207.0350  155.2470 N   0  0  0  0  0  2  0  0  0  0  0  0
  160.8980  208.8960  151.5820 N   0  0  0  0  0  2  0  0  0  0  0  0
  161.0700  207.5320  154.0860 C   0  0  0  0  0  0  0  0  0  0  0  0
  159.3950  211.9560  154.8970 C   0  0  0  0  0  3  0  0  0  0  0  0
  159.6240  212.9770  152.5590 C   0  0  0  0  0  0  0  0  0  0  0  0
  161.8530  207.1000  152.8490 C   0  0  1  0  0  3  0  0  0  0  0  0
  159.6990  214.1180  151.7130 N   0  0  0  0  0  1  0  0  0  0  0  0
  159.8880  211.7970  152.0650 N   0  0  0  0  0  0  0  0  0  0  0  0
  160.2460  209.4410  152.7180 C   0  0  0  0  0  0  0  0  0  0  0  0
  159.8000  210.6590  152.9150 C   0  0  0  0  0  0  0  0  0  0  0  0
  159.6040  210.7740  154.3330 C   0  0  0  0  0  0  0  0  0  0  0  0
  159.9950  209.5640  154.9870 N   0  0  0  0  0  0  0  0  0  0  0  0
  162.0370  205.5850  152.8650 C   0  0  0  0  0  1  0  0  0  0  0  0
  161.2100  207.5160  151.5730 N   0  0  0  0  0  0  0  0  0  0  0  0
  159.1560  213.1610  154.0040 C   0  0  0  0  0  3  0  0  0  0  0  0
  160.3420  208.7940  153.9970 C   0  0  2  0  0  3  0  0  0  0  0  0
  162.1730  207.3280  150.4940 C   0  0  0  0  0  2  0  0  0  0  0  0
  162.5360  208.1270  148.2740 O   0  0  0  0  0  1  0  0  0  0  0  0
  161.5460  207.7020  149.1620 C   0  0  1  0  0  3  0  0  0  0  0  0
  160.8660  206.5430  148.6090 N   0  0  0  0  0  2  0  0  0  0  0  0
  161.3540  205.3660  149.3130 C   0  0  0  0  0  2  0  0  0  0  0  0
  160.9540  201.8500  146.8760 C   0  0  0  0  0  0  0  0  0  0  0  0
  161.1980  204.1510  148.4630 C   0  0  0  0  0  0  0  0  0  0  0  0
  160.8670  202.9260  149.0510 C   0  0  0  0  0  3  0  0  0  0  0  0
  160.7450  201.7810  148.2600 C   0  0  0  0  0  3  0  0  0  0  0  0
  161.4110  204.2270  147.0820 C   0  0  0  0  0  3  0  0  0  0  0  0
  161.2890  203.0800  146.2920 C   0  0  0  0  0  3  0  0  0  0  0  0
  160.0780  200.6650  144.8780 O   0  0  0  0  0  0  0  0  0  0  0  0
  161.3970  199.5680  146.3920 O   0  0  0  0  0  1  0  0  0  0  0  0
  160.8270  200.6380  146.0490 C   0  0  0  0  0  0  0  0  0  0  0  0
  2  9  1  0  0  0  0
  3  1  2  0  0  0  0
  5 15  1  0  0  0  0
  6 13  1  6  0  0  0
  6  3  1  0  0  0  0
  7  5  1  0  0  0  0
  8  5  2  0  0  0  0
  8 10  1  0  0  0  0
  9 10  2  0  0  0  0
 10 11  1  0  0  0  0
 11  4  1  0  0  0  0
 11 12  2  0  0  0  0
 14  2  1  0  0  0  0
 14  6  1  0  0  0  0
 15  4  2  0  0  0  0
 16  9  1  6  0  0  0
 16  3  1  0  0  0  0
 16 12  1  0  0  0  0
 17 14  1  0  0  0  0
 19 18  1  6  0  0  0
 19 17  1  0  0  0  0
 20 19  1  0  0  0  0
 20 21  1  0  0  0  0
 22 25  1  0  0  0  0
 23 24  1  0  0  0  0
 23 21  1  0  0  0  0
 25 24  2  0  0  0  0
 26 23  2  0  0  0  0
 27 22  2  0  0  0  0
 27 26  1  0  0  0  0
 28 30  2  0  0  0  0
 30 29  1  0  0  0  0
 30 22  1  0  0  0  0
M  END
>  <MODEL>
5

>  <REMARK>
 VINA RESULT:      -7.8      1.108      1.664
  Name = 
  6 active torsions:
  status: ('A' for Active; 'I' for Inactive)
    1  A    between atoms: C_1  and  C_28
    2  A    between atoms: C_2  and  C_4
    3  A    between atoms: C_2  and  N_11
    4  A    between atoms: N_11  and  C_21
    5  A    between atoms: C_17  and  C_21
    6  A    between atoms: C_17  and  N_24
                            x       y       z     vdW  Elec       q    Type
                         _______ _______ _______ _____ _____    ______ ____

>  <TORSDO>
F 6

$$$$
=
 OpenBabel11042420113D

 30 33  0  0  1  0  0  0  0  0999 V2000
  161.5470  206.0750  154.3640 N   0  0  0  0  0  2  0  0  0  0  0  0
  161.0020  209.6620  152.3790 N   0  0  0  0  0  2  0  0  0  0  0  0
  161.2390  207.1310  153.6840 C   0  0  0  0  0  0  0  0  0  0  0  0
  159.4750  210.2880  156.8380 C   0  0  0  0  0  3  0  0  0  0  0  0
  159.6490  212.4520  155.4790 C   0  0  0  0  0  0  0  0  0  0  0  0
  162.0150  207.4900  152.4190 C   0  0  1  0  0  3  0  0  0  0  0  0
  159.6860  213.8730  155.4210 N   0  0  0  0  0  1  0  0  0  0  0  0
  159.9330  211.7620  154.4080 N   0  0  0  0  0  0  0  0  0  0  0  0
  160.3530  209.4560  153.6240 C   0  0  0  0  0  0  0  0  0  0  0  0
  159.8820  210.3400  154.4710 C   0  0  0  0  0  0  0  0  0  0  0  0
  159.7030  209.6330  155.7080 C   0  0  0  0  0  0  0  0  0  0  0  0
  160.1310  208.2760  155.5700 N   0  0  0  0  0  0  0  0  0  0  0  0
  162.2330  206.2330  151.5800 C   0  0  0  0  0  1  0  0  0  0  0  0
  161.3450  208.5340  151.5960 N   0  0  0  0  0  0  0  0  0  0  0  0
  159.1960  211.7800  156.7780 C   0  0  0  0  0  2  0  0  0  0  0  0
  160.4820  208.2050  154.3180 C   0  0  0  0  0  0  0  0  0  0  0  0
  162.2970  209.0100  150.6000 C   0  0  0  0  0  2  0  0  0  0  0  0
  161.9650  209.8770  148.4000 O   0  0  0  0  0  1  0  0  0  0  0  0
  161.7640  208.7510  149.2020 C   0  0  1  0  0  3  0  0  0  0  0  0
  162.4630  207.6160  148.6230 N   0  0  0  0  0  2  0  0  0  0  0  0
  161.5950  207.0340  147.6090 C   0  0  0  0  0  2  0  0  0  0  0  0
  161.0030  202.8580  148.4330 C   0  0  0  0  0  0  0  0  0  0  0  0
  161.3720  205.5860  147.8860 C   0  0  0  0  0  0  0  0  0  0  0  0
  160.9050  205.1800  149.1400 C   0  0  0  0  0  3  0  0  0  0  0  0
  160.7200  203.8220  149.4120 C   0  0  0  0  0  3  0  0  0  0  0  0
  161.6590  204.6300  146.9060 C   0  0  0  0  0  3  0  0  0  0  0  0
  161.4740  203.2720  147.1780 C   0  0  0  0  0  3  0  0  0  0  0  0
  159.9440  201.0330  149.7400 O   0  0  0  0  0  1  0  0  0  0  0  0
  161.4220  200.5520  148.0620 O   0  0  0  0  0  0  0  0  0  0  0  0
  160.8090  201.4290  148.7270 C   0  0  0  0  0  0  0  0  0  0  0  0
  2  9  1  0  0  0  0
  3 16  1  0  0  0  0
  3  1  2  0  0  0  0
  5 15  1  0  0  0  0
  6 13  1  6  0  0  0
  6  3  1  0  0  0  0
  7  5  1  0  0  0  0
  8 10  1  0  0  0  0
  8  5  2  0  0  0  0
  9 16  1  0  0  0  0
  9 10  2  0  0  0  0
 10 11  1  0  0  0  0
 11  4  2  0  0  0  0
 12 11  1  0  0  0  0
 14  2  1  0  0  0  0
 14  6  1  0  0  0  0
 15  4  1  0  0  0  0
 16 12  2  0  0  0  0
 17 14  1  0  0  0  0
 19 18  1  6  0  0  0
 19 17  1  0  0  0  0
 20 19  1  0  0  0  0
 21 23  1  0  0  0  0
 21 20  1  0  0  0  0
 22 30  1  0  0  0  0
 22 25  1  0  0  0  0
 23 24  1  0  0  0  0
 24 25  2  0  0  0  0
 26 27  1  0  0  0  0
 26 23  2  0  0  0  0
 27 22  2  0  0  0  0
 29 30  2  0  0  0  0
 30 28  1  0  0  0  0
M  END
>  <MODEL>
6

>  <REMARK>
 VINA RESULT:      -7.7      1.152      1.600
  Name = 
  6 active torsions:
  status: ('A' for Active; 'I' for Inactive)
    1  A    between atoms: C_1  and  C_28
    2  A    between atoms: C_2  and  C_4
    3  A    between atoms: C_2  and  N_11
    4  A    between atoms: N_11  and  C_21
    5  A    between atoms: C_17  and  C_21
    6  A    between atoms: C_17  and  N_24
                            x       y       z     vdW  Elec       q    Type
                         _______ _______ _______ _____ _____    ______ ____

>  <TORSDO>
F 6

$$$$
=
 OpenBabel11042420113D

 30 33  0  0  1  0  0  0  0  0999 V2000
  159.4750  210.7020  157.0330 N   0  0  0  0  0  2  0  0  0  0  0  0
  159.9340  210.4140  152.9330 N   0  0  0  0  0  2  0  0  0  0  0  0
  159.5110  210.4890  155.7580 C   0  0  0  0  0  0  0  0  0  0  0  0
  156.8580  213.9470  153.7470 C   0  0  0  0  0  3  0  0  0  0  0  0
  157.6600  213.7980  151.3200 C   0  0  0  0  0  0  0  0  0  0  0  0
  160.7300  209.8300  155.1180 C   0  0  1  0  0  3  0  0  0  0  0  0
  157.7980  214.3780  150.0290 N   0  0  0  0  0  1  0  0  0  0  0  0
  158.2930  212.6890  151.5920 N   0  0  0  0  0  0  0  0  0  0  0  0
  158.8490  211.1630  153.4550 C   0  0  0  0  0  0  0  0  0  0  0  0
  158.1410  212.1080  152.8830 C   0  0  0  0  0  0  0  0  0  0  0  0
  157.4630  212.7840  153.9530 C   0  0  0  0  0  0  0  0  0  0  0  0
  157.8330  212.2160  155.2120 N   0  0  0  0  0  0  0  0  0  0  0  0
  161.1800  208.6490  155.9730 C   0  0  0  0  0  1  0  0  0  0  0  0
  160.4860  209.3760  153.7210 N   0  0  0  0  0  0  0  0  0  0  0  0
  156.7090  214.4530  152.3240 C   0  0  0  0  0  3  0  0  0  0  0  0
  158.6310  211.2450  154.8730 C   0  0  2  0  0  3  0  0  0  0  0  0
  161.7720  209.0500  153.1160 C   0  0  0  0  0  2  0  0  0  0  0  0
  162.5700  209.7870  150.9900 O   0  0  0  0  0  1  0  0  0  0  0  0
  161.6310  208.9580  151.6070 C   0  0  1  0  0  3  0  0  0  0  0  0
  161.8500  207.5840  151.1870 N   0  0  0  0  0  2  0  0  0  0  0  0
  161.2110  207.4120  149.8890 C   0  0  0  0  0  2  0  0  0  0  0  0
  161.0540  203.2580  148.7980 C   0  0  0  0  0  0  0  0  0  0  0  0
  161.1740  205.9680  149.5170 C   0  0  0  0  0  0  0  0  0  0  0  0
  161.4210  205.5820  148.1960 C   0  0  0  0  0  3  0  0  0  0  0  0
  161.3630  204.2330  147.8380 C   0  0  0  0  0  3  0  0  0  0  0  0
  160.8630  205.0020  150.4790 C   0  0  0  0  0  3  0  0  0  0  0  0
  160.8040  203.6520  150.1210 C   0  0  0  0  0  3  0  0  0  0  0  0
  161.1700  200.8460  149.3700 O   0  0  0  0  0  1  0  0  0  0  0  0
  160.7680  201.5100  147.2180 O   0  0  0  0  0  0  0  0  0  0  0  0
  160.9900  201.8390  148.4140 C   0  0  0  0  0  0  0  0  0  0  0  0
  2  9  1  0  0  0  0
  2 14  1  0  0  0  0
  3  1  2  0  0  0  0
  4 11  1  0  0  0  0
  5  8  2  0  0  0  0
  5 15  1  0  0  0  0
  6  3  1  0  0  0  0
  6 13  1  1  0  0  0
  7  5  1  0  0  0  0
  8 10  1  0  0  0  0
 10  9  2  0  0  0  0
 10 11  1  0  0  0  0
 11 12  2  0  0  0  0
 14  6  1  0  0  0  0
 15  4  2  0  0  0  0
 16  9  1  6  0  0  0
 16 12  1  0  0  0  0
 16  3  1  0  0  0  0
 17 14  1  0  0  0  0
 19 18  1  6  0  0  0
 19 17  1  0  0  0  0
 20 19  1  0  0  0  0
 21 20  1  0  0  0  0
 22 27  1  0  0  0  0
 23 21  1  0  0  0  0
 23 26  1  0  0  0  0
 24 23  2  0  0  0  0
 25 24  1  0  0  0  0
 25 22  2  0  0  0  0
 27 26  2  0  0  0  0
 29 30  2  0  0  0  0
 30 22  1  0  0  0  0
 30 28  1  0  0  0  0
M  END
>  <MODEL>
7

>  <REMARK>
 VINA RESULT:      -7.7      1.728      2.586
  Name = 
  6 active torsions:
  status: ('A' for Active; 'I' for Inactive)
    1  A    between atoms: C_1  and  C_28
    2  A    between atoms: C_2  and  C_4
    3  A    between atoms: C_2  and  N_11
    4  A    between atoms: N_11  and  C_21
    5  A    between atoms: C_17  and  C_21
    6  A    between atoms: C_17  and  N_24
                            x       y       z     vdW  Elec       q    Type
                         _______ _______ _______ _____ _____    ______ ____

>  <TORSDO>
F 6

$$$$
=
 OpenBabel11042420113D

 30 33  0  0  1  0  0  0  0  0999 V2000
  161.2820  211.4870  150.3640 N   0  0  0  0  0  2  0  0  0  0  0  0
  161.7660  207.7110  151.9790 N   0  0  0  0  0  2  0  0  0  0  0  0
  161.5920  210.3440  150.8840 C   0  0  0  0  0  0  0  0  0  0  0  0
  160.1470  210.5190  155.4580 C   0  0  0  0  0  3  0  0  0  0  0  0
  160.1520  208.0260  156.0440 C   0  0  0  0  0  0  0  0  0  0  0  0
  161.6300  209.0860  150.0200 C   0  0  1  0  0  3  0  0  0  0  0  0
  159.7300  206.9540  156.8780 N   0  0  0  0  0  1  0  0  0  0  0  0
  160.7660  207.7590  154.9230 N   0  0  0  0  0  0  0  0  0  0  0  0
  161.5980  208.8170  152.8500 C   0  0  0  0  0  0  0  0  0  0  0  0
  161.1970  208.8370  154.0990 C   0  0  0  0  0  0  0  0  0  0  0  0
  160.8270  210.1990  154.3640 C   0  0  0  0  0  0  0  0  0  0  0  0
  160.9930  210.9960  153.1890 N   0  0  0  0  0  0  0  0  0  0  0  0
  162.3300  209.3950  148.6990 C   0  0  0  0  0  1  0  0  0  0  0  0
  162.3000  207.9360  150.6880 N   0  0  0  0  0  0  0  0  0  0  0  0
  159.9440  209.4620  156.5290 C   0  0  0  0  0  2  0  0  0  0  0  0
  161.4740  210.1490  152.3260 C   0  0  0  0  0  0  0  0  0  0  0  0
  162.0140  206.7320  149.9180 C   0  0  0  0  0  2  0  0  0  0  0  0
  160.0780  206.5700  148.5300 O   0  0  0  0  0  1  0  0  0  0  0  0
  160.5160  206.4950  149.8540 C   0  0  1  0  0  3  0  0  0  0  0  0
  160.2140  205.1780  150.3890 N   0  0  0  0  0  2  0  0  0  0  0  0
  161.4120  204.3610  150.2530 C   0  0  0  0  0  2  0  0  0  0  0  0
  160.8890  201.5610  147.0350 C   0  0  0  0  0  0  0  0  0  0  0  0
  161.2480  203.3830  149.1390 C   0  0  0  0  0  0  0  0  0  0  0  0
  161.4180  203.8000  147.8150 C   0  0  0  0  0  3  0  0  0  0  0  0
  161.2410  202.8920  146.7680 C   0  0  0  0  0  3  0  0  0  0  0  0
  160.8950  202.0570  149.4130 C   0  0  0  0  0  3  0  0  0  0  0  0
  160.7170  201.1500  148.3650 C   0  0  0  0  0  3  0  0  0  0  0  0
  161.2050  199.3190  146.0180 O   0  0  0  0  0  1  0  0  0  0  0  0
  160.0780  200.9570  144.8880 O   0  0  0  0  0  0  0  0  0  0  0  0
  160.7010  200.6110  145.9270 C   0  0  0  0  0  0  0  0  0  0  0  0
  1  3  2  0  0  0  0
  2  9  1  0  0  0  0
  3 16  1  0  0  0  0
  4 15  1  0  0  0  0
  5 15  1  0  0  0  0
  5  7  1  0  0  0  0
  6 13  1  6  0  0  0
  6 14  1  0  0  0  0
  6  3  1  0  0  0  0
  8  5  2  0  0  0  0
  9 10  2  0  0  0  0
 10 11  1  0  0  0  0
 10  8  1  0  0  0  0
 11  4  2  0  0  0  0
 12 11  1  0  0  0  0
 14  2  1  0  0  0  0
 16  9  1  0  0  0  0
 16 12  2  0  0  0  0
 17 14  1  0  0  0  0
 19 18  1  6  0  0  0
 19 17  1  0  0  0  0
 19 20  1  0  0  0  0
 21 20  1  0  0  0  0
 22 27  1  0  0  0  0
 23 26  1  0  0  0  0
 23 21  1  0  0  0  0
 24 23  2  0  0  0  0
 25 22  2  0  0  0  0
 25 24  1  0  0  0  0
 27 26  2  0  0  0  0
 29 30  2  0  0  0  0
 30 28  1  0  0  0  0
 30 22  1  0  0  0  0
M  END
>  <MODEL>
8

>  <REMARK>
 VINA RESULT:      -7.3      2.122      3.672
  Name = 
  6 active torsions:
  status: ('A' for Active; 'I' for Inactive)
    1  A    between atoms: C_1  and  C_28
    2  A    between atoms: C_2  and  C_4
    3  A    between atoms: C_2  and  N_11
    4  A    between atoms: N_11  and  C_21
    5  A    between atoms: C_17  and  C_21
    6  A    between atoms: C_17  and  N_24
                            x       y       z     vdW  Elec       q    Type
                         _______ _______ _______ _____ _____    ______ ____

>  <TORSDO>
F 6

$$$$
=
 OpenBabel11042420113D

 30 33  0  0  1  0  0  0  0  0999 V2000
  161.0200  204.0390  153.1630 N   0  0  0  0  0  2  0  0  0  0  0  0
  161.5620  208.0030  152.1150 N   0  0  0  0  0  2  0  0  0  0  0  0
  161.0320  205.2780  152.7920 C   0  0  0  0  0  0  0  0  0  0  0  0
  160.8880  207.8830  156.8210 C   0  0  0  0  0  3  0  0  0  0  0  0
  161.6630  210.1570  155.9340 C   0  0  0  0  0  0  0  0  0  0  0  0
  161.7320  205.6920  151.5000 C   0  0  1  0  0  3  0  0  0  0  0  0
  162.1980  211.4540  156.1650 N   0  0  0  0  0  1  0  0  0  0  0  0
  161.5560  209.7200  154.7080 N   0  0  0  0  0  0  0  0  0  0  0  0
  161.0320  207.6930  153.3940 C   0  0  0  0  0  0  0  0  0  0  0  0
  161.0090  208.4250  154.4830 C   0  0  0  0  0  0  0  0  0  0  0  0
  160.7350  207.5110  155.5560 C   0  0  0  0  0  0  0  0  0  0  0  0
  160.6310  206.1760  155.0570 N   0  0  0  0  0  0  0  0  0  0  0  0
  161.3880  204.7000  150.3930 C   0  0  0  0  0  1  0  0  0  0  0  0
  161.3870  207.0730  151.0630 N   0  0  0  0  0  0  0  0  0  0  0  0
  161.1550  209.3450  157.1280 C   0  0  0  0  0  2  0  0  0  0  0  0
  160.7860  206.3300  153.7740 C   0  0  0  0  0  0  0  0  0  0  0  0
  162.3230  207.4680  150.0170 C   0  0  0  0  0  2  0  0  0  0  0  0
  162.4760  209.0770  148.2610 O   0  0  0  0  0  1  0  0  0  0  0  0
  161.5930  208.2170  148.9170 C   0  0  1  0  0  3  0  0  0  0  0  0
  161.0510  207.2630  147.9640 N   0  0  0  0  0  2  0  0  0  0  0  0
  162.1740  206.5780  147.3380 C   0  0  0  0  0  2  0  0  0  0  0  0
  160.9050  202.7220  145.9270 C   0  0  0  0  0  0  0  0  0  0  0  0
  161.7520  205.2340  146.8460 C   0  0  0  0  0  0  0  0  0  0  0  0
  161.3680  205.0690  145.5110 C   0  0  0  0  0  3  0  0  0  0  0  0
  160.9480  203.8180  145.0540 C   0  0  0  0  0  3  0  0  0  0  0  0
  161.7080  204.1460  147.7240 C   0  0  0  0  0  3  0  0  0  0  0  0
  161.2870  202.8950  147.2660 C   0  0  0  0  0  3  0  0  0  0  0  0
  160.9660  200.2420  146.0010 O   0  0  0  0  0  1  0  0  0  0  0  0
  159.6090  201.3250  144.5120 O   0  0  0  0  0  0  0  0  0  0  0  0
  160.4580  201.4070  145.4400 C   0  0  0  0  0  0  0  0  0  0  0  0
  2  9  1  0  0  0  0
  3  1  2  0  0  0  0
  3 16  1  0  0  0  0
  4 15  1  0  0  0  0
  5  7  1  0  0  0  0
  5 15  1  0  0  0  0
  6 13  1  6  0  0  0
  6  3  1  0  0  0  0
  8  5  2  0  0  0  0
  9 16  1  0  0  0  0
  9 10  2  0  0  0  0
 10  8  1  0  0  0  0
 10 11  1  0  0  0  0
 11  4  2  0  0  0  0
 12 11  1  0  0  0  0
 14  6  1  0  0  0  0
 14  2  1  0  0  0  0
 16 12  2  0  0  0  0
 17 14  1  0  0  0  0
 19 18  1  6  0  0  0
 19 17  1  0  0  0  0
 20 19  1  0  0  0  0
 21 20  1  0  0  0  0
 22 27  1  0  0  0  0
 23 21  1  0  0  0  0
 23 26  1  0  0  0  0
 24 23  2  0  0  0  0
 25 24  1  0  0  0  0
 25 22  2  0  0  0  0
 27 26  2  0  0  0  0
 29 30  2  0  0  0  0
 30 22  1  0  0  0  0
 30 28  1  0  0  0  0
M  END
>  <MODEL>
9

>  <REMARK>
 VINA RESULT:      -7.2      2.413      3.052
  Name = 
  6 active torsions:
  status: ('A' for Active; 'I' for Inactive)
    1  A    between atoms: C_1  and  C_28
    2  A    between atoms: C_2  and  C_4
    3  A    between atoms: C_2  and  N_11
    4  A    between atoms: N_11  and  C_21
    5  A    between atoms: C_17  and  C_21
    6  A    between atoms: C_17  and  N_24
                            x       y       z     vdW  Elec       q    Type
                         _______ _______ _______ _____ _____    ______ ____

>  <TORSDO>
F 6

$$$$
