=
 OpenBabel11052409313D

 38 41  0  0  1  0  0  0  0  0999 V2000
  160.1670  208.8340  155.5360 C   0  0  0  0  0  0  0  0  0  0  0  0
  160.1110  209.7830  156.4810 C   0  0  0  0  0  3  0  0  0  0  0  0
  162.2740  206.5240  151.4620 C   0  0  0  0  0  3  0  0  0  0  0  0
  160.1520  210.6510  153.7640 C   0  0  0  0  0  0  0  0  0  0  0  0
  161.2180  208.6600  151.8690 C   0  0  0  0  0  3  0  0  0  0  0  0
  161.9330  206.1130  152.7530 C   0  0  0  0  0  3  0  0  0  0  0  0
  160.0260  209.1650  154.0560 C   0  0  1  0  0  3  0  0  0  0  0  0
  160.4190  207.4360  155.9130 C   0  0  0  0  0  0  0  0  0  0  0  0
  161.2440  206.9740  153.6100 C   0  0  0  0  0  0  0  0  0  0  0  0
  160.9280  206.5320  154.9330 N   0  0  0  0  0  2  0  0  0  0  0  0
  160.8880  208.2720  153.1770 C   0  0  0  0  0  0  0  0  0  0  0  0
  159.8920  211.2250  156.1370 C   0  0  0  0  0  2  0  0  0  0  0  0
  161.9250  207.8020  151.0190 C   0  0  0  0  0  0  0  0  0  0  0  0
  159.7590  211.1090  152.6220 N   0  0  0  0  0  0  0  0  0  0  0  0
  160.2270  207.0350  157.0930 O   0  0  0  0  0  0  0  0  0  0  0  0
  160.6370  211.5690  154.8550 C   0  0  0  0  0  2  0  0  0  0  0  0
  159.8230  212.5040  152.2570 C   0  0  0  0  0  2  0  0  0  0  0  0
  158.5100  212.9330  151.6220 C   0  0  0  0  0  2  0  0  0  0  0  0
  157.7740  213.8960  152.5390 C   0  0  0  0  0  2  0  0  0  0  0  0
  158.0410  214.4390  154.7320 O   0  0  0  0  0  1  0  0  0  0  0  0
  157.7780  213.3910  153.9110 N   0  0  0  0  0  0  0  0  0  0  0  0
  156.5100  211.4120  154.7680 C   0  0  0  0  0  1  0  0  0  0  0  0
  156.4590  212.8550  154.2700 C   0  0  1  0  0  3  0  0  0  0  0  0
  155.8450  213.6700  155.2220 O   0  0  0  0  0  1  0  0  0  0  0  0
  162.2780  208.2200  149.6250 C   0  0  1  0  0  3  0  0  0  0  0  0
  161.1120  206.1060  148.9000 N   0  0  0  0  0  2  0  0  0  0  0  0
  162.8670  207.0040  147.6500 O   0  0  0  0  0  0  0  0  0  0  0  0
  162.1250  207.0820  148.6670 C   0  0  0  0  0  0  0  0  0  0  0  0
  160.9000  204.9850  147.9970 C   0  0  0  0  0  2  0  0  0  0  0  0
  161.2970  203.6880  148.6770 C   0  0  2  0  0  3  0  0  0  0  0  0
  160.9320  202.5050  147.8220 C   0  0  0  0  0  3  0  0  0  0  0  0
  161.3390  201.1280  149.8030 C   0  0  0  0  0  2  0  0  0  0  0  0
  160.9550  201.2820  148.3600 C   0  0  0  0  0  3  0  0  0  0  0  0
  160.6240  203.5940  150.0550 C   0  0  0  0  0  2  0  0  0  0  0  0
  160.6140  202.1730  150.6590 C   0  0  0  0  0  2  0  0  0  0  0  0
  161.4980  209.3100  149.2200 O   0  0  0  0  0  0  0  0  0  0  0  0
  161.9420  211.4060  149.0270 C   0  0  0  0  0  1  0  0  0  0  0  0
  162.3400  210.1290  148.6240 O   0  0  0  0  0  0  0  0  0  0  0  0
  1  8  1  0  0  0  0
  1  2  2  0  0  0  0
  3  6  1  0  0  0  0
  4  7  1  0  0  0  0
  4 16  1  0  0  0  0
  5 11  2  0  0  0  0
  6  9  2  0  0  0  0
  7 11  1  6  0  0  0
  7  1  1  0  0  0  0
  8 15  2  0  0  0  0
  9 10  1  0  0  0  0
 10  8  1  0  0  0  0
 11  9  1  0  0  0  0
 12  2  1  0  0  0  0
 13  3  2  0  0  0  0
 13  5  1  0  0  0  0
 14  4  2  0  0  0  0
 16 12  1  0  0  0  0
 17 14  1  0  0  0  0
 18 17  1  0  0  0  0
 18 19  1  0  0  0  0
 19 21  1  0  0  0  0
 21 23  1  0  0  0  0
 21 20  1  0  0  0  0
 23 22  1  1  0  0  0
 23 24  1  0  0  0  0
 25 28  1  6  0  0  0
 25 13  1  0  0  0  0
 27 28  2  0  0  0  0
 28 26  1  0  0  0  0
 29 26  1  0  0  0  0
 30 29  1  6  0  0  0
 30 34  1  0  0  0  0
 31 33  2  0  0  0  0
 31 30  1  0  0  0  0
 32 35  1  0  0  0  0
 33 32  1  0  0  0  0
 34 35  1  0  0  0  0
 36 25  1  0  0  0  0
 38 37  1  0  0  0  0
 38 36  1  0  0  0  0
M  END
>  <MODEL>
1

>  <REMARK>
 VINA RESULT:      -8.3      0.000      0.000
  Name = 
  11 active torsions:
  status: ('A' for Active; 'I' for Inactive)
    1  A    between atoms: C_1  and  C_38
    2  A    between atoms: C_5  and  C_16
    3  A    between atoms: C_5  and  N_33
    4  A    between atoms: C_8  and  C_16
    5  A    between atoms: C_8  and  N_31
    6  A    between atoms: N_12  and  C_38
    7  A    between atoms: C_20  and  C_32
    8  A    between atoms: C_22  and  N_33
    9  A    between atoms: O_25  and  O_28
   10  A    between atoms: O_25  and  C_32
   11  A    between atoms: C_30  and  C_32
                            x       y       z     vdW  Elec       q    Type
                         _______ _______ _______ _____ _____    ______ ____

>  <TORSDO>
F 11

$$$$
=
 OpenBabel11052409313D

 38 41  0  0  1  0  0  0  0  0999 V2000
  161.2620  205.1740  150.9870 C   0  0  0  0  0  0  0  0  0  0  0  0
  160.9000  204.6740  149.7970 C   0  0  0  0  0  3  0  0  0  0  0  0
  160.8210  208.4410  154.9250 C   0  0  0  0  0  3  0  0  0  0  0  0
  161.5680  207.4460  149.8970 C   0  0  0  0  0  0  0  0  0  0  0  0
  161.4070  208.6380  152.5880 C   0  0  0  0  0  3  0  0  0  0  0  0
  160.8070  207.0500  154.8010 C   0  0  0  0  0  3  0  0  0  0  0  0
  161.8000  206.5920  151.1320 C   0  0  1  0  0  3  0  0  0  0  0  0
  161.0980  204.3660  152.2040 C   0  0  0  0  0  0  0  0  0  0  0  0
  161.0820  206.4470  153.5710 C   0  0  0  0  0  0  0  0  0  0  0  0
  161.0380  205.0210  153.4710 N   0  0  0  0  0  2  0  0  0  0  0  0
  161.3730  207.2430  152.4390 C   0  0  0  0  0  0  0  0  0  0  0  0
  161.0170  205.4770  148.5370 C   0  0  0  0  0  2  0  0  0  0  0  0
  161.1130  209.2400  153.8180 C   0  0  0  0  0  0  0  0  0  0  0  0
  162.2240  208.5500  149.7570 N   0  0  0  0  0  0  0  0  0  0  0  0
  160.9750  203.1130  152.1410 O   0  0  0  0  0  0  0  0  0  0  0  0
  160.6560  206.9300  148.8150 C   0  0  0  0  0  2  0  0  0  0  0  0
  162.0870  209.4210  148.6140 C   0  0  0  0  0  2  0  0  0  0  0  0
  162.0390  210.8700  149.0690 C   0  0  0  0  0  2  0  0  0  0  0  0
  161.5270  211.7560  147.9460 C   0  0  0  0  0  2  0  0  0  0  0  0
  163.6400  212.5820  147.7810 O   0  0  0  0  0  1  0  0  0  0  0  0
  162.3410  212.9660  147.8420 N   0  0  0  0  0  0  0  0  0  0  0  0
  162.8320  213.2220  145.4030 C   0  0  0  0  0  1  0  0  0  0  0  0
  162.0270  213.6990  146.6100 C   0  0  1  0  0  3  0  0  0  0  0  0
  160.6600  213.6240  146.3340 O   0  0  0  0  0  1  0  0  0  0  0  0
  161.1460  210.7290  153.9720 C   0  0  1  0  0  3  0  0  0  0  0  0
  159.7040  212.6090  153.1110 N   0  0  0  0  0  2  0  0  0  0  0  0
  158.7550  210.6860  154.0340 O   0  0  0  0  0  0  0  0  0  0  0  0
  159.7970  211.3260  153.7260 C   0  0  0  0  0  0  0  0  0  0  0  0
  158.4220  213.2370  152.8290 C   0  0  0  0  0  2  0  0  0  0  0  0
  158.1120  213.1430  151.3470 C   0  0  2  0  0  3  0  0  0  0  0  0
  159.2300  213.7320  150.5300 C   0  0  0  0  0  3  0  0  0  0  0  0
  157.6840  213.6770  148.6350 C   0  0  0  0  0  2  0  0  0  0  0  0
  159.0250  213.9850  149.2340 C   0  0  0  0  0  3  0  0  0  0  0  0
  156.7830  213.8530  151.0470 C   0  0  0  0  0  2  0  0  0  0  0  0
  156.5650  214.1820  149.5540 C   0  0  0  0  0  2  0  0  0  0  0  0
  161.6160  211.0870  155.2420 O   0  0  0  0  0  0  0  0  0  0  0  0
  163.2820  210.7550  156.5630 C   0  0  0  0  0  1  0  0  0  0  0  0
  162.9040  210.8090  155.2190 O   0  0  0  0  0  0  0  0  0  0  0  0
  1  7  1  0  0  0  0
  1  8  1  0  0  0  0
  2  1  2  0  0  0  0
  5 13  1  0  0  0  0
  6  3  1  0  0  0  0
  7  4  1  6  0  0  0
  7 11  1  0  0  0  0
  8 10  1  0  0  0  0
  9  6  2  0  0  0  0
 10  9  1  0  0  0  0
 11  5  2  0  0  0  0
 11  9  1  0  0  0  0
 12 16  1  0  0  0  0
 12  2  1  0  0  0  0
 13 25  1  0  0  0  0
 13  3  2  0  0  0  0
 14  4  2  0  0  0  0
 15  8  2  0  0  0  0
 16  4  1  0  0  0  0
 17 18  1  0  0  0  0
 17 14  1  0  0  0  0
 19 18  1  0  0  0  0
 20 21  1  0  0  0  0
 21 19  1  0  0  0  0
 23 22  1  6  0  0  0
 23 21  1  0  0  0  0
 24 23  1  0  0  0  0
 25 28  1  1  0  0  0
 25 36  1  0  0  0  0
 26 28  1  0  0  0  0
 28 27  2  0  0  0  0
 29 26  1  0  0  0  0
 30 29  1  1  0  0  0
 31 30  1  0  0  0  0
 32 33  1  0  0  0  0
 32 35  1  0  0  0  0
 33 31  2  0  0  0  0
 34 30  1  0  0  0  0
 35 34  1  0  0  0  0
 38 36  1  0  0  0  0
 38 37  1  0  0  0  0
M  END
>  <MODEL>
2

>  <REMARK>
 VINA RESULT:      -8.2      2.687      7.775
  Name = 
  11 active torsions:
  status: ('A' for Active; 'I' for Inactive)
    1  A    between atoms: C_1  and  C_38
    2  A    between atoms: C_5  and  C_16
    3  A    between atoms: C_5  and  N_33
    4  A    between atoms: C_8  and  C_16
    5  A    between atoms: C_8  and  N_31
    6  A    between atoms: N_12  and  C_38
    7  A    between atoms: C_20  and  C_32
    8  A    between atoms: C_22  and  N_33
    9  A    between atoms: O_25  and  O_28
   10  A    between atoms: O_25  and  C_32
   11  A    between atoms: C_30  and  C_32
                            x       y       z     vdW  Elec       q    Type
                         _______ _______ _______ _____ _____    ______ ____

>  <TORSDO>
F 11

$$$$
=
 OpenBabel11052409313D

 38 41  0  0  1  0  0  0  0  0999 V2000
  161.3700  205.1140  150.7520 C   0  0  0  0  0  0  0  0  0  0  0  0
  161.0220  204.6550  149.5420 C   0  0  0  0  0  3  0  0  0  0  0  0
  160.8600  208.2210  154.8090 C   0  0  0  0  0  3  0  0  0  0  0  0
  161.6460  207.4310  149.7510 C   0  0  0  0  0  0  0  0  0  0  0  0
  161.4530  208.5160  152.4850 C   0  0  0  0  0  3  0  0  0  0  0  0
  160.8680  206.8350  154.6320 C   0  0  0  0  0  3  0  0  0  0  0  0
  161.8850  206.5340  150.9540 C   0  0  1  0  0  3  0  0  0  0  0  0
  161.2130  204.2580  151.9360 C   0  0  0  0  0  0  0  0  0  0  0  0
  161.1570  206.2840  153.3820 C   0  0  0  0  0  0  0  0  0  0  0  0
  161.1360  204.8620  153.2260 N   0  0  0  0  0  2  0  0  0  0  0  0
  161.4420  207.1270  152.2820 C   0  0  0  0  0  0  0  0  0  0  0  0
  161.1320  205.5070  148.3140 C   0  0  0  0  0  2  0  0  0  0  0  0
  161.1440  209.0650  153.7350 C   0  0  0  0  0  0  0  0  0  0  0  0
  162.2850  208.5490  149.6570 N   0  0  0  0  0  0  0  0  0  0  0  0
  161.1100  203.0060  151.8240 O   0  0  0  0  0  0  0  0  0  0  0  0
  160.7470  206.9420  148.6450 C   0  0  0  0  0  2  0  0  0  0  0  0
  162.1400  209.4600  148.5470 C   0  0  0  0  0  2  0  0  0  0  0  0
  162.0230  210.8870  149.0600 C   0  0  0  0  0  2  0  0  0  0  0  0
  162.2890  211.8720  147.9340 C   0  0  0  0  0  2  0  0  0  0  0  0
  161.6540  213.9980  148.4350 O   0  0  0  0  0  1  0  0  0  0  0  0
  161.2100  212.8560  147.8550 N   0  0  0  0  0  0  0  0  0  0  0  0
  162.1160  213.3370  145.5740 C   0  0  0  0  0  1  0  0  0  0  0  0
  160.8830  213.1560  146.4560 C   0  0  1  0  0  3  0  0  0  0  0  0
  160.0550  212.1640  145.9270 O   0  0  0  0  0  1  0  0  0  0  0  0
  161.1530  210.5480  153.9460 C   0  0  1  0  0  3  0  0  0  0  0  0
  159.3890  212.3300  154.2050 N   0  0  0  0  0  2  0  0  0  0  0  0
  159.1850  210.6560  152.5900 O   0  0  0  0  0  0  0  0  0  0  0  0
  159.8510  211.1580  153.5360 C   0  0  0  0  0  0  0  0  0  0  0  0
  158.1400  212.9810  153.8430 C   0  0  0  0  0  2  0  0  0  0  0  0
  157.0810  212.6960  154.8910 C   0  0  2  0  0  3  0  0  0  0  0  0
  157.7010  212.5820  156.2580 C   0  0  0  0  0  3  0  0  0  0  0  0
  155.5720  211.6250  156.9890 C   0  0  0  0  0  2  0  0  0  0  0  0
  156.9790  212.0730  157.2600 C   0  0  0  0  0  3  0  0  0  0  0  0
  156.3210  211.4110  154.5290 C   0  0  0  0  0  2  0  0  0  0  0  0
  155.5190  210.7990  155.6980 C   0  0  0  0  0  2  0  0  0  0  0  0
  161.4420  210.8580  155.2810 O   0  0  0  0  0  0  0  0  0  0  0  0
  163.0080  210.7840  156.7540 C   0  0  0  0  0  1  0  0  0  0  0  0
  162.7510  210.7480  155.3820 O   0  0  0  0  0  0  0  0  0  0  0  0
  1  7  1  0  0  0  0
  1  8  1  0  0  0  0
  2  1  2  0  0  0  0
  5 13  1  0  0  0  0
  6  3  1  0  0  0  0
  7  4  1  6  0  0  0
  7 11  1  0  0  0  0
  8 10  1  0  0  0  0
  9  6  2  0  0  0  0
 10  9  1  0  0  0  0
 11  5  2  0  0  0  0
 11  9  1  0  0  0  0
 12 16  1  0  0  0  0
 12  2  1  0  0  0  0
 13 25  1  0  0  0  0
 13  3  2  0  0  0  0
 14  4  2  0  0  0  0
 15  8  2  0  0  0  0
 16  4  1  0  0  0  0
 17 18  1  0  0  0  0
 17 14  1  0  0  0  0
 19 18  1  0  0  0  0
 21 19  1  0  0  0  0
 21 20  1  0  0  0  0
 23 22  1  6  0  0  0
 23 21  1  0  0  0  0
 24 23  1  0  0  0  0
 25 28  1  1  0  0  0
 25 36  1  0  0  0  0
 27 28  2  0  0  0  0
 28 26  1  0  0  0  0
 29 26  1  0  0  0  0
 30 29  1  6  0  0  0
 30 31  1  0  0  0  0
 31 33  2  0  0  0  0
 32 33  1  0  0  0  0
 34 30  1  0  0  0  0
 34 35  1  0  0  0  0
 35 32  1  0  0  0  0
 36 38  1  0  0  0  0
 38 37  1  0  0  0  0
M  END
>  <MODEL>
3

>  <REMARK>
 VINA RESULT:      -8.0      2.613      7.869
  Name = 
  11 active torsions:
  status: ('A' for Active; 'I' for Inactive)
    1  A    between atoms: C_1  and  C_38
    2  A    between atoms: C_5  and  C_16
    3  A    between atoms: C_5  and  N_33
    4  A    between atoms: C_8  and  C_16
    5  A    between atoms: C_8  and  N_31
    6  A    between atoms: N_12  and  C_38
    7  A    between atoms: C_20  and  C_32
    8  A    between atoms: C_22  and  N_33
    9  A    between atoms: O_25  and  O_28
   10  A    between atoms: O_25  and  C_32
   11  A    between atoms: C_30  and  C_32
                            x       y       z     vdW  Elec       q    Type
                         _______ _______ _______ _____ _____    ______ ____

>  <TORSDO>
F 11

$$$$
=
 OpenBabel11052409313D

 38 41  0  0  1  0  0  0  0  0999 V2000
  160.0700  208.8330  155.7740 C   0  0  0  0  0  0  0  0  0  0  0  0
  159.9840  209.7430  156.7550 C   0  0  0  0  0  3  0  0  0  0  0  0
  162.2740  206.7260  151.6420 C   0  0  0  0  0  3  0  0  0  0  0  0
  160.0420  210.7180  154.0750 C   0  0  0  0  0  0  0  0  0  0  0  0
  161.1700  208.8230  152.1180 C   0  0  0  0  0  3  0  0  0  0  0  0
  161.9240  206.2580  152.9110 C   0  0  0  0  0  3  0  0  0  0  0  0
  159.9410  209.2200  154.3070 C   0  0  1  0  0  3  0  0  0  0  0  0
  160.3450  207.4260  156.1000 C   0  0  0  0  0  0  0  0  0  0  0  0
  161.2070  207.0710  153.7920 C   0  0  0  0  0  0  0  0  0  0  0  0
  160.8840  206.5710  155.0920 N   0  0  0  0  0  2  0  0  0  0  0  0
  160.8320  208.3790  153.4060 C   0  0  0  0  0  0  0  0  0  0  0  0
  159.7400  211.1920  156.4650 C   0  0  0  0  0  2  0  0  0  0  0  0
  161.9050  208.0130  151.2450 C   0  0  0  0  0  0  0  0  0  0  0  0
  159.6550  211.2120  152.9470 N   0  0  0  0  0  0  0  0  0  0  0  0
  160.1460  206.9760  157.2610 O   0  0  0  0  0  0  0  0  0  0  0  0
  160.4950  211.6020  155.2080 C   0  0  0  0  0  2  0  0  0  0  0  0
  159.6950  212.6220  152.6360 C   0  0  0  0  0  2  0  0  0  0  0  0
  159.6770  212.8220  151.1300 C   0  0  0  0  0  2  0  0  0  0  0  0
  158.3300  213.3710  150.6900 C   0  0  0  0  0  2  0  0  0  0  0  0
  159.5010  213.4870  148.7430 O   0  0  0  0  0  1  0  0  0  0  0  0
  158.4550  214.0470  149.3990 N   0  0  0  0  0  0  0  0  0  0  0  0
  157.4160  212.7570  147.5240 C   0  0  0  0  0  1  0  0  0  0  0  0
  157.2490  213.8400  148.5880 C   0  0  1  0  0  3  0  0  0  0  0  0
  156.1570  213.5460  149.4050 O   0  0  0  0  0  1  0  0  0  0  0  0
  162.2680  208.4920  149.8730 C   0  0  1  0  0  3  0  0  0  0  0  0
  161.0570  206.4590  149.0040 N   0  0  0  0  0  2  0  0  0  0  0  0
  162.9150  207.3250  147.8870 O   0  0  0  0  0  0  0  0  0  0  0  0
  162.1210  207.3970  148.8650 C   0  0  0  0  0  0  0  0  0  0  0  0
  160.8500  205.3820  148.0480 C   0  0  0  0  0  2  0  0  0  0  0  0
  161.2810  204.0600  148.6540 C   0  0  2  0  0  3  0  0  0  0  0  0
  160.8840  202.9110  147.7660 C   0  0  0  0  0  3  0  0  0  0  0  0
  161.3830  201.4540  149.6660 C   0  0  0  0  0  2  0  0  0  0  0  0
  160.9350  201.6670  148.2500 C   0  0  0  0  0  3  0  0  0  0  0  0
  160.6700  203.9040  150.0550 C   0  0  0  0  0  2  0  0  0  0  0  0
  160.6930  202.4580  150.5980 C   0  0  0  0  0  2  0  0  0  0  0  0
  161.4890  209.5990  149.5110 O   0  0  0  0  0  0  0  0  0  0  0  0
  162.1710  211.3040  148.3900 C   0  0  0  0  0  1  0  0  0  0  0  0
  162.3010  210.6330  149.6080 O   0  0  0  0  0  0  0  0  0  0  0  0
  1  8  1  0  0  0  0
  1  2  2  0  0  0  0
  3  6  1  0  0  0  0
  4  7  1  0  0  0  0
  4 16  1  0  0  0  0
  5 11  2  0  0  0  0
  6  9  2  0  0  0  0
  7 11  1  6  0  0  0
  7  1  1  0  0  0  0
  8 15  2  0  0  0  0
  9 10  1  0  0  0  0
 10  8  1  0  0  0  0
 11  9  1  0  0  0  0
 12  2  1  0  0  0  0
 13  3  2  0  0  0  0
 13  5  1  0  0  0  0
 14  4  2  0  0  0  0
 16 12  1  0  0  0  0
 17 14  1  0  0  0  0
 18 17  1  0  0  0  0
 19 18  1  0  0  0  0
 20 21  1  0  0  0  0
 21 19  1  0  0  0  0
 23 22  1  6  0  0  0
 23 21  1  0  0  0  0
 23 24  1  0  0  0  0
 25 28  1  6  0  0  0
 25 13  1  0  0  0  0
 27 28  2  0  0  0  0
 28 26  1  0  0  0  0
 29 26  1  0  0  0  0
 30 29  1  6  0  0  0
 30 34  1  0  0  0  0
 31 33  2  0  0  0  0
 31 30  1  0  0  0  0
 32 35  1  0  0  0  0
 33 32  1  0  0  0  0
 34 35  1  0  0  0  0
 36 38  1  0  0  0  0
 36 25  1  0  0  0  0
 37 38  1  0  0  0  0
M  END
>  <MODEL>
4

>  <REMARK>
 VINA RESULT:      -8.0      1.719      2.257
  Name = 
  11 active torsions:
  status: ('A' for Active; 'I' for Inactive)
    1  A    between atoms: C_1  and  C_38
    2  A    between atoms: C_5  and  C_16
    3  A    between atoms: C_5  and  N_33
    4  A    between atoms: C_8  and  C_16
    5  A    between atoms: C_8  and  N_31
    6  A    between atoms: N_12  and  C_38
    7  A    between atoms: C_20  and  C_32
    8  A    between atoms: C_22  and  N_33
    9  A    between atoms: O_25  and  O_28
   10  A    between atoms: O_25  and  C_32
   11  A    between atoms: C_30  and  C_32
                            x       y       z     vdW  Elec       q    Type
                         _______ _______ _______ _____ _____    ______ ____

>  <TORSDO>
F 11

$$$$
=
 OpenBabel11052409313D

 38 41  0  0  1  0  0  0  0  0999 V2000
  161.3660  206.0770  151.4920 C   0  0  0  0  0  0  0  0  0  0  0  0
  160.8030  204.8690  151.3460 C   0  0  0  0  0  3  0  0  0  0  0  0
  161.7060  211.1260  150.6180 C   0  0  0  0  0  3  0  0  0  0  0  0
  161.6370  206.2140  148.9720 C   0  0  0  0  0  0  0  0  0  0  0  0
  161.9470  209.1300  149.2750 C   0  0  0  0  0  3  0  0  0  0  0  0
  161.5930  210.3360  151.7650 C   0  0  0  0  0  3  0  0  0  0  0  0
  162.0000  206.8140  150.3200 C   0  0  1  0  0  3  0  0  0  0  0  0
  161.3390  206.7460  152.8010 C   0  0  0  0  0  0  0  0  0  0  0  0
  161.6460  208.9430  151.6730 C   0  0  0  0  0  0  0  0  0  0  0  0
  161.5050  208.1620  152.8620 N   0  0  0  0  0  2  0  0  0  0  0  0
  161.8110  208.3210  150.4130 C   0  0  0  0  0  0  0  0  0  0  0  0
  160.7770  204.1680  150.0220 C   0  0  0  0  0  2  0  0  0  0  0  0
  161.8750  210.5250  149.3690 C   0  0  0  0  0  0  0  0  0  0  0  0
  162.3270  206.5350  147.9290 N   0  0  0  0  0  0  0  0  0  0  0  0
  161.1360  206.0940  153.8610 O   0  0  0  0  0  0  0  0  0  0  0  0
  160.5460  205.1780  148.9060 C   0  0  0  0  0  2  0  0  0  0  0  0
  162.0720  206.0070  146.6100 C   0  0  0  0  0  2  0  0  0  0  0  0
  163.0300  204.8640  146.3140 C   0  0  0  0  0  2  0  0  0  0  0  0
  162.4600  203.9710  145.2260 C   0  0  0  0  0  2  0  0  0  0  0  0
  160.3040  203.8800  144.5060 O   0  0  0  0  0  1  0  0  0  0  0  0
  161.0950  203.5680  145.5630 N   0  0  0  0  0  0  0  0  0  0  0  0
  160.8310  201.7290  147.2380 C   0  0  0  0  0  1  0  0  0  0  0  0
  161.0190  202.1170  145.7730 C   0  0  1  0  0  3  0  0  0  0  0  0
  160.0000  201.5650  144.9950 O   0  0  0  0  0  1  0  0  0  0  0  0
  162.0170  211.3860  148.1510 C   0  0  1  0  0  3  0  0  0  0  0  0
  160.1400  212.9520  148.7670 N   0  0  0  0  0  2  0  0  0  0  0  0
  160.1790  211.8720  146.6980 O   0  0  0  0  0  0  0  0  0  0  0  0
  160.7260  212.0640  147.8180 C   0  0  0  0  0  0  0  0  0  0  0  0
  158.8960  213.6550  148.4970 C   0  0  0  0  0  2  0  0  0  0  0  0
  158.2750  214.1310  149.7970 C   0  0  2  0  0  3  0  0  0  0  0  0
  158.7760  213.3150  150.9580 C   0  0  0  0  0  3  0  0  0  0  0  0
  156.9600  214.3100  152.2600 C   0  0  0  0  0  2  0  0  0  0  0  0
  158.1490  213.4030  152.1340 C   0  0  0  0  0  3  0  0  0  0  0  0
  156.7430  214.0590  149.7010 C   0  0  0  0  0  2  0  0  0  0  0  0
  156.0190  214.1200  151.0630 C   0  0  0  0  0  2  0  0  0  0  0  0
  163.0360  212.3310  148.3260 O   0  0  0  0  0  0  0  0  0  0  0  0
  163.1560  214.4220  147.8380 C   0  0  0  0  0  1  0  0  0  0  0  0
  162.9170  213.1540  147.3050 O   0  0  0  0  0  0  0  0  0  0  0  0
  1  8  1  0  0  0  0
  2  1  2  0  0  0  0
  3  6  1  0  0  0  0
  5 13  1  0  0  0  0
  5 11  2  0  0  0  0
  7  4  1  6  0  0  0
  7 11  1  0  0  0  0
  7  1  1  0  0  0  0
  8 10  1  0  0  0  0
  8 15  2  0  0  0  0
  9  6  2  0  0  0  0
  9 10  1  0  0  0  0
 11  9  1  0  0  0  0
 12  2  1  0  0  0  0
 13  3  2  0  0  0  0
 14  4  2  0  0  0  0
 16  4  1  0  0  0  0
 16 12  1  0  0  0  0
 17 14  1  0  0  0  0
 18 17  1  0  0  0  0
 19 21  1  0  0  0  0
 19 18  1  0  0  0  0
 20 21  1  0  0  0  0
 21 23  1  0  0  0  0
 23 22  1  1  0  0  0
 24 23  1  0  0  0  0
 25 28  1  1  0  0  0
 25 36  1  0  0  0  0
 25 13  1  0  0  0  0
 27 28  2  0  0  0  0
 28 26  1  0  0  0  0
 29 26  1  0  0  0  0
 30 29  1  6  0  0  0
 30 31  1  0  0  0  0
 31 33  2  0  0  0  0
 33 32  1  0  0  0  0
 34 30  1  0  0  0  0
 34 35  1  0  0  0  0
 35 32  1  0  0  0  0
 38 37  1  0  0  0  0
 38 36  1  0  0  0  0
M  END
>  <MODEL>
5

>  <REMARK>
 VINA RESULT:      -7.7      3.311      8.910
  Name = 
  11 active torsions:
  status: ('A' for Active; 'I' for Inactive)
    1  A    between atoms: C_1  and  C_38
    2  A    between atoms: C_5  and  C_16
    3  A    between atoms: C_5  and  N_33
    4  A    between atoms: C_8  and  C_16
    5  A    between atoms: C_8  and  N_31
    6  A    between atoms: N_12  and  C_38
    7  A    between atoms: C_20  and  C_32
    8  A    between atoms: C_22  and  N_33
    9  A    between atoms: O_25  and  O_28
   10  A    between atoms: O_25  and  C_32
   11  A    between atoms: C_30  and  C_32
                            x       y       z     vdW  Elec       q    Type
                         _______ _______ _______ _____ _____    ______ ____

>  <TORSDO>
F 11

$$$$
=
 OpenBabel11052409313D

 38 41  0  0  1  0  0  0  0  0999 V2000
  161.3790  203.9210  147.8490 C   0  0  0  0  0  0  0  0  0  0  0  0
  161.0490  204.1860  146.5770 C   0  0  0  0  0  3  0  0  0  0  0  0
  160.8720  204.4470  152.9330 C   0  0  0  0  0  3  0  0  0  0  0  0
  161.7840  206.3990  148.2220 C   0  0  0  0  0  0  0  0  0  0  0  0
  161.5510  205.8900  151.1160 C   0  0  0  0  0  3  0  0  0  0  0  0
  160.8270  203.3640  152.0510 C   0  0  0  0  0  3  0  0  0  0  0  0
  161.9460  204.9920  148.7720 C   0  0  1  0  0  3  0  0  0  0  0  0
  161.1480  202.5780  148.4030 C   0  0  0  0  0  0  0  0  0  0  0  0
  161.1330  203.5390  150.6990 C   0  0  0  0  0  0  0  0  0  0  0  0
  161.0560  202.4160  149.8180 N   0  0  0  0  0  2  0  0  0  0  0  0
  161.4870  204.8190  150.2120 C   0  0  0  0  0  0  0  0  0  0  0  0
  161.2340  205.5500  145.9840 C   0  0  0  0  0  2  0  0  0  0  0  0
  161.2260  205.7140  152.4670 C   0  0  0  0  0  0  0  0  0  0  0  0
  162.4720  207.3630  148.7350 N   0  0  0  0  0  0  0  0  0  0  0  0
  160.9960  201.5810  147.6470 O   0  0  0  0  0  0  0  0  0  0  0  0
  160.9000  206.6140  147.0210 C   0  0  0  0  0  2  0  0  0  0  0  0
  162.4010  208.7290  148.2720 C   0  0  0  0  0  2  0  0  0  0  0  0
  161.8010  209.6120  149.3540 C   0  0  0  0  0  2  0  0  0  0  0  0
  162.3280  211.0310  149.2250 C   0  0  0  0  0  2  0  0  0  0  0  0
  160.5650  212.3160  148.5800 O   0  0  0  0  0  1  0  0  0  0  0  0
  161.6820  211.7130  148.1040 N   0  0  0  0  0  0  0  0  0  0  0  0
  162.1680  214.1640  147.9910 C   0  0  0  0  0  1  0  0  0  0  0  0
  162.5590  212.7540  147.5550 C   0  0  1  0  0  3  0  0  0  0  0  0
  163.8890  212.4980  147.8940 O   0  0  0  0  0  1  0  0  0  0  0  0
  161.2910  206.8610  153.4280 C   0  0  1  0  0  3  0  0  0  0  0  0
  161.1380  209.3770  153.4470 N   0  0  0  0  0  2  0  0  0  0  0  0
  160.4630  208.1410  151.5850 O   0  0  0  0  0  0  0  0  0  0  0  0
  160.9260  208.1470  152.7580 C   0  0  0  0  0  0  0  0  0  0  0  0
  160.8190  210.6620  152.8450 C   0  0  0  0  0  2  0  0  0  0  0  0
  159.4150  211.0850  153.2340 C   0  0  2  0  0  3  0  0  0  0  0  0
  159.0830  212.4320  152.6510 C   0  0  0  0  0  3  0  0  0  0  0  0
  157.1680  212.4620  154.1730 C   0  0  0  0  0  2  0  0  0  0  0  0
  158.0080  213.0880  153.0980 C   0  0  0  0  0  3  0  0  0  0  0  0
  159.2820  211.1060  154.7650 C   0  0  0  0  0  2  0  0  0  0  0  0
  158.0630  211.8980  155.2840 C   0  0  0  0  0  2  0  0  0  0  0  0
  160.4620  206.6300  154.5330 O   0  0  0  0  0  0  0  0  0  0  0  0
  160.1590  207.1300  156.6040 C   0  0  0  0  0  1  0  0  0  0  0  0
  161.0540  207.2440  155.5380 O   0  0  0  0  0  0  0  0  0  0  0  0
  1  8  1  0  0  0  0
  2  1  2  0  0  0  0
  4 14  2  0  0  0  0
  4  7  1  0  0  0  0
  5 13  2  0  0  0  0
  6  3  2  0  0  0  0
  7  1  1  6  0  0  0
  7 11  1  0  0  0  0
  8 10  1  0  0  0  0
  9  6  1  0  0  0  0
 10  9  1  0  0  0  0
 11  9  2  0  0  0  0
 11  5  1  0  0  0  0
 12  2  1  0  0  0  0
 12 16  1  0  0  0  0
 13  3  1  0  0  0  0
 13 25  1  0  0  0  0
 15  8  2  0  0  0  0
 16  4  1  0  0  0  0
 17 14  1  0  0  0  0
 17 18  1  0  0  0  0
 19 18  1  0  0  0  0
 21 20  1  0  0  0  0
 21 19  1  0  0  0  0
 23 24  1  0  0  0  0
 23 22  1  1  0  0  0
 23 21  1  0  0  0  0
 25 28  1  6  0  0  0
 25 36  1  0  0  0  0
 27 28  2  0  0  0  0
 28 26  1  0  0  0  0
 29 26  1  0  0  0  0
 30 29  1  1  0  0  0
 30 34  1  0  0  0  0
 31 33  2  0  0  0  0
 31 30  1  0  0  0  0
 32 35  1  0  0  0  0
 33 32  1  0  0  0  0
 34 35  1  0  0  0  0
 36 38  1  0  0  0  0
 38 37  1  0  0  0  0
M  END
>  <MODEL>
6

>  <REMARK>
 VINA RESULT:      -7.3      2.558      8.024
  Name = 
  11 active torsions:
  status: ('A' for Active; 'I' for Inactive)
    1  A    between atoms: C_1  and  C_38
    2  A    between atoms: C_5  and  C_16
    3  A    between atoms: C_5  and  N_33
    4  A    between atoms: C_8  and  C_16
    5  A    between atoms: C_8  and  N_31
    6  A    between atoms: N_12  and  C_38
    7  A    between atoms: C_20  and  C_32
    8  A    between atoms: C_22  and  N_33
    9  A    between atoms: O_25  and  O_28
   10  A    between atoms: O_25  and  C_32
   11  A    between atoms: C_30  and  C_32
                            x       y       z     vdW  Elec       q    Type
                         _______ _______ _______ _____ _____    ______ ____

>  <TORSDO>
F 11

$$$$
=
 OpenBabel11052409313D

 38 41  0  0  1  0  0  0  0  0999 V2000
  160.0590  209.5840  155.4210 C   0  0  0  0  0  0  0  0  0  0  0  0
  159.5000  208.6600  156.2160 C   0  0  0  0  0  3  0  0  0  0  0  0
  160.9750  211.7840  150.8720 C   0  0  0  0  0  3  0  0  0  0  0  0
  161.1410  207.7200  154.0790 C   0  0  0  0  0  0  0  0  0  0  0  0
  161.5150  209.6600  151.8920 C   0  0  0  0  0  3  0  0  0  0  0  0
  160.4470  212.2300  152.0870 C   0  0  0  0  0  3  0  0  0  0  0  0
  161.0830  209.2130  154.3560 C   0  0  1  0  0  3  0  0  0  0  0  0
  159.6500  210.9910  155.5310 C   0  0  0  0  0  0  0  0  0  0  0  0
  160.4410  211.3920  153.2050 C   0  0  0  0  0  0  0  0  0  0  0  0
  159.8750  211.8690  154.4280 N   0  0  0  0  0  2  0  0  0  0  0  0
  160.9670  210.0820  153.1130 C   0  0  0  0  0  0  0  0  0  0  0  0
  159.8620  207.2090  156.1120 C   0  0  0  0  0  2  0  0  0  0  0  0
  161.5020  210.4960  150.7680 C   0  0  0  0  0  0  0  0  0  0  0  0
  162.1500  207.2320  153.4380 N   0  0  0  0  0  0  0  0  0  0  0  0
  159.0750  211.4220  156.5660 O   0  0  0  0  0  0  0  0  0  0  0  0
  160.0680  206.8310  154.6520 C   0  0  0  0  0  2  0  0  0  0  0  0
  162.3050  205.8280  153.1410 C   0  0  0  0  0  2  0  0  0  0  0  0
  162.1650  205.5960  151.6450 C   0  0  0  0  0  2  0  0  0  0  0  0
  160.9280  204.7640  151.3570 C   0  0  0  0  0  2  0  0  0  0  0  0
  160.9120  202.7310  152.3790 O   0  0  0  0  0  1  0  0  0  0  0  0
  161.2840  203.3510  151.2320 N   0  0  0  0  0  0  0  0  0  0  0  0
  161.0590  203.1600  148.7480 C   0  0  0  0  0  1  0  0  0  0  0  0
  160.5530  202.7280  150.1220 C   0  0  1  0  0  3  0  0  0  0  0  0
  160.5930  201.3370  150.2330 O   0  0  0  0  0  1  0  0  0  0  0  0
  162.0840  210.0410  149.4660 C   0  0  1  0  0  3  0  0  0  0  0  0
  162.6590  207.8620  148.3370 N   0  0  0  0  0  2  0  0  0  0  0  0
  160.9000  208.0010  149.8660 O   0  0  0  0  0  0  0  0  0  0  0  0
  161.8260  208.5850  149.2400 C   0  0  0  0  0  0  0  0  0  0  0  0
  162.4710  206.4410  148.0870 C   0  0  0  0  0  2  0  0  0  0  0  0
  162.1850  206.2050  146.6160 C   0  0  2  0  0  3  0  0  0  0  0  0
  160.7130  206.3420  146.3300 C   0  0  0  0  0  3  0  0  0  0  0  0
  161.1800  205.2980  144.1680 C   0  0  0  0  0  2  0  0  0  0  0  0
  160.2350  205.9100  145.1600 C   0  0  0  0  0  3  0  0  0  0  0  0
  162.6950  204.8170  146.2010 C   0  0  0  0  0  2  0  0  0  0  0  0
  162.1110  204.3000  144.8690 C   0  0  0  0  0  2  0  0  0  0  0  0
  161.5770  210.8000  148.4030 O   0  0  0  0  0  0  0  0  0  0  0  0
  162.0230  212.6600  147.4190 C   0  0  0  0  0  1  0  0  0  0  0  0
  162.5970  211.5150  147.9770 O   0  0  0  0  0  0  0  0  0  0  0  0
  1  8  1  0  0  0  0
  1  2  2  0  0  0  0
  3  6  1  0  0  0  0
  4  7  1  0  0  0  0
  4 16  1  0  0  0  0
  5 11  2  0  0  0  0
  6  9  2  0  0  0  0
  7 11  1  6  0  0  0
  7  1  1  0  0  0  0
  8 15  2  0  0  0  0
  9 10  1  0  0  0  0
 10  8  1  0  0  0  0
 11  9  1  0  0  0  0
 12  2  1  0  0  0  0
 13  3  2  0  0  0  0
 13  5  1  0  0  0  0
 14  4  2  0  0  0  0
 16 12  1  0  0  0  0
 17 14  1  0  0  0  0
 18 17  1  0  0  0  0
 19 18  1  0  0  0  0
 21 19  1  0  0  0  0
 21 20  1  0  0  0  0
 23 22  1  6  0  0  0
 23 24  1  0  0  0  0
 23 21  1  0  0  0  0
 25 36  1  6  0  0  0
 25 13  1  0  0  0  0
 26 28  1  0  0  0  0
 28 25  1  0  0  0  0
 28 27  2  0  0  0  0
 29 26  1  0  0  0  0
 30 29  1  1  0  0  0
 31 30  1  0  0  0  0
 32 35  1  0  0  0  0
 32 33  1  0  0  0  0
 33 31  2  0  0  0  0
 34 30  1  0  0  0  0
 35 34  1  0  0  0  0
 37 38  1  0  0  0  0
 38 36  1  0  0  0  0
M  END
>  <MODEL>
7

>  <REMARK>
 VINA RESULT:      -6.9      2.378      6.051
  Name = 
  11 active torsions:
  status: ('A' for Active; 'I' for Inactive)
    1  A    between atoms: C_1  and  C_38
    2  A    between atoms: C_5  and  C_16
    3  A    between atoms: C_5  and  N_33
    4  A    between atoms: C_8  and  C_16
    5  A    between atoms: C_8  and  N_31
    6  A    between atoms: N_12  and  C_38
    7  A    between atoms: C_20  and  C_32
    8  A    between atoms: C_22  and  N_33
    9  A    between atoms: O_25  and  O_28
   10  A    between atoms: O_25  and  C_32
   11  A    between atoms: C_30  and  C_32
                            x       y       z     vdW  Elec       q    Type
                         _______ _______ _______ _____ _____    ______ ____

>  <TORSDO>
F 11

$$$$
=
 OpenBabel11052409313D

 38 41  0  0  1  0  0  0  0  0999 V2000
  158.4460  211.8030  154.9960 C   0  0  0  0  0  0  0  0  0  0  0  0
  157.9740  212.9520  155.5000 C   0  0  0  0  0  3  0  0  0  0  0  0
  161.9370  208.9580  152.5280 C   0  0  0  0  0  3  0  0  0  0  0  0
  158.5890  212.9060  152.7140 C   0  0  0  0  0  0  0  0  0  0  0  0
  160.4530  210.7670  151.9180 C   0  0  0  0  0  3  0  0  0  0  0  0
  161.3400  208.8980  153.7890 C   0  0  0  0  0  3  0  0  0  0  0  0
  158.6500  211.6070  153.4990 C   0  0  1  0  0  3  0  0  0  0  0  0
  158.8280  210.7070  155.8980 C   0  0  0  0  0  0  0  0  0  0  0  0
  160.3070  209.7760  154.1250 C   0  0  0  0  0  0  0  0  0  0  0  0
  159.7310  209.7050  155.4320 N   0  0  0  0  0  2  0  0  0  0  0  0
  159.8590  210.7370  153.1890 C   0  0  0  0  0  0  0  0  0  0  0  0
  157.6060  214.1060  154.6180 C   0  0  0  0  0  2  0  0  0  0  0  0
  161.5020  209.8980  151.5910 C   0  0  0  0  0  0  0  0  0  0  0  0
  158.4420  212.8660  151.4320 N   0  0  0  0  0  0  0  0  0  0  0  0
  158.4000  210.6610  157.0830 O   0  0  0  0  0  0  0  0  0  0  0  0
  158.5960  214.2120  153.4660 C   0  0  0  0  0  2  0  0  0  0  0  0
  158.3560  214.0440  150.6010 C   0  0  0  0  0  2  0  0  0  0  0  0
  159.3850  213.9670  149.4850 C   0  0  0  0  0  2  0  0  0  0  0  0
  158.7500  214.3490  148.1590 C   0  0  0  0  0  2  0  0  0  0  0  0
  157.4810  212.5990  147.4510 O   0  0  0  0  0  1  0  0  0  0  0  0
  158.6890  213.1880  147.2720 N   0  0  0  0  0  0  0  0  0  0  0  0
  160.1330  214.2350  145.5180 C   0  0  0  0  0  1  0  0  0  0  0  0
  158.7880  213.6020  145.8680 C   0  0  1  0  0  3  0  0  0  0  0  0
  158.5310  212.5220  145.0220 O   0  0  0  0  0  1  0  0  0  0  0  0
  162.1360  209.9350  150.2350 C   0  0  1  0  0  3  0  0  0  0  0  0
  160.8730  207.7790  149.8990 N   0  0  0  0  0  2  0  0  0  0  0  0
  162.7100  208.3200  148.5650 O   0  0  0  0  0  0  0  0  0  0  0  0
  161.9460  208.6370  149.5170 C   0  0  0  0  0  0  0  0  0  0  0  0
  160.6240  206.5120  149.2300 C   0  0  0  0  0  2  0  0  0  0  0  0
  161.2090  205.3710  150.0410 C   0  0  2  0  0  3  0  0  0  0  0  0
  160.6590  204.0500  149.5770 C   0  0  0  0  0  3  0  0  0  0  0  0
  161.5930  203.1010  151.6300 C   0  0  0  0  0  2  0  0  0  0  0  0
  160.8450  202.9650  150.3350 C   0  0  0  0  0  3  0  0  0  0  0  0
  160.9180  205.5900  151.5340 C   0  0  0  0  0  2  0  0  0  0  0  0
  161.0930  204.3270  152.4040 C   0  0  0  0  0  2  0  0  0  0  0  0
  161.6250  210.9950  149.4760 O   0  0  0  0  0  0  0  0  0  0  0  0
  162.2980  212.2210  147.8410 C   0  0  0  0  0  1  0  0  0  0  0  0
  162.6850  211.6580  149.0590 O   0  0  0  0  0  0  0  0  0  0  0  0
  1  2  2  0  0  0  0
  1  8  1  0  0  0  0
  3  6  1  0  0  0  0
  4 16  1  0  0  0  0
  5 11  2  0  0  0  0
  6  9  2  0  0  0  0
  7  4  1  6  0  0  0
  7  1  1  0  0  0  0
  8 15  2  0  0  0  0
  9 10  1  0  0  0  0
 10  8  1  0  0  0  0
 11  7  1  0  0  0  0
 11  9  1  0  0  0  0
 12  2  1  0  0  0  0
 13  5  1  0  0  0  0
 13  3  2  0  0  0  0
 14  4  2  0  0  0  0
 16 12  1  0  0  0  0
 17 14  1  0  0  0  0
 18 17  1  0  0  0  0
 19 18  1  0  0  0  0
 21 20  1  0  0  0  0
 21 19  1  0  0  0  0
 23 22  1  1  0  0  0
 23 21  1  0  0  0  0
 24 23  1  0  0  0  0
 25 36  1  6  0  0  0
 25 13  1  0  0  0  0
 27 28  2  0  0  0  0
 28 26  1  0  0  0  0
 28 25  1  0  0  0  0
 29 26  1  0  0  0  0
 30 29  1  6  0  0  0
 30 34  1  0  0  0  0
 31 30  1  0  0  0  0
 31 33  2  0  0  0  0
 32 35  1  0  0  0  0
 33 32  1  0  0  0  0
 34 35  1  0  0  0  0
 37 38  1  0  0  0  0
 38 36  1  0  0  0  0
M  END
>  <MODEL>
8

>  <REMARK>
 VINA RESULT:      -6.8      2.621      4.161
  Name = 
  11 active torsions:
  status: ('A' for Active; 'I' for Inactive)
    1  A    between atoms: C_1  and  C_38
    2  A    between atoms: C_5  and  C_16
    3  A    between atoms: C_5  and  N_33
    4  A    between atoms: C_8  and  C_16
    5  A    between atoms: C_8  and  N_31
    6  A    between atoms: N_12  and  C_38
    7  A    between atoms: C_20  and  C_32
    8  A    between atoms: C_22  and  N_33
    9  A    between atoms: O_25  and  O_28
   10  A    between atoms: O_25  and  C_32
   11  A    between atoms: C_30  and  C_32
                            x       y       z     vdW  Elec       q    Type
                         _______ _______ _______ _____ _____    ______ ____

>  <TORSDO>
F 11

$$$$
=
 OpenBabel11052409313D

 38 41  0  0  1  0  0  0  0  0999 V2000
  158.2730  212.1780  154.9940 C   0  0  0  0  0  0  0  0  0  0  0  0
  157.9230  213.4470  155.2480 C   0  0  0  0  0  3  0  0  0  0  0  0
  161.5090  208.5450  153.3510 C   0  0  0  0  0  3  0  0  0  0  0  0
  158.6850  212.8170  152.5720 C   0  0  0  0  0  0  0  0  0  0  0  0
  160.3050  210.3680  152.3160 C   0  0  0  0  0  3  0  0  0  0  0  0
  160.8390  208.7880  154.5520 C   0  0  0  0  0  3  0  0  0  0  0  0
  158.5360  211.6870  153.5760 C   0  0  1  0  0  3  0  0  0  0  0  0
  158.4610  211.2320  156.1030 C   0  0  0  0  0  0  0  0  0  0  0  0
  159.9080  209.8260  154.6450 C   0  0  0  0  0  0  0  0  0  0  0  0
  159.2530  210.0640  155.8940 N   0  0  0  0  0  2  0  0  0  0  0  0
  159.6400  210.6420  153.5210 C   0  0  0  0  0  0  0  0  0  0  0  0
  157.7570  214.4530  154.1500 C   0  0  0  0  0  2  0  0  0  0  0  0
  161.2510  209.3390  152.2320 C   0  0  0  0  0  0  0  0  0  0  0  0
  158.6080  212.5580  151.3090 N   0  0  0  0  0  0  0  0  0  0  0  0
  157.9640  211.4550  157.2390 O   0  0  0  0  0  0  0  0  0  0  0  0
  158.8160  214.2300  153.0790 C   0  0  0  0  0  2  0  0  0  0  0  0
  158.7210  213.5630  150.2790 C   0  0  0  0  0  2  0  0  0  0  0  0
  159.8790  213.2290  149.3530 C   0  0  0  0  0  2  0  0  0  0  0  0
  159.4340  213.3200  147.9030 C   0  0  0  0  0  2  0  0  0  0  0  0
  161.5170  214.2310  147.8550 O   0  0  0  0  0  1  0  0  0  0  0  0
  160.3740  214.1330  147.1330 N   0  0  0  0  0  0  0  0  0  0  0  0
  162.1990  213.3980  145.5880 C   0  0  0  0  0  1  0  0  0  0  0  0
  160.6980  213.4830  145.8580 C   0  0  1  0  0  3  0  0  0  0  0  0
  160.1270  212.2110  145.8010 O   0  0  0  0  0  1  0  0  0  0  0  0
  161.9620  209.0510  150.9450 C   0  0  1  0  0  3  0  0  0  0  0  0
  161.1290  206.8960  149.9380 N   0  0  0  0  0  2  0  0  0  0  0  0
  163.0860  206.9550  151.2090 O   0  0  0  0  0  0  0  0  0  0  0  0
  162.1020  207.5780  150.7260 C   0  0  0  0  0  0  0  0  0  0  0  0
  161.2170  205.4680  149.6730 C   0  0  0  0  0  2  0  0  0  0  0  0
  161.0770  205.2060  148.1850 C   0  0  2  0  0  3  0  0  0  0  0  0
  161.5830  203.8320  147.8360 C   0  0  0  0  0  3  0  0  0  0  0  0
  161.5200  204.5570  145.5000 C   0  0  0  0  0  2  0  0  0  0  0  0
  161.7920  203.5220  146.5530 C   0  0  0  0  0  3  0  0  0  0  0  0
  161.8320  206.2840  147.3920 C   0  0  0  0  0  2  0  0  0  0  0  0
  162.1100  205.9090  145.9200 C   0  0  0  0  0  2  0  0  0  0  0  0
  161.2970  209.6470  149.8660 O   0  0  0  0  0  0  0  0  0  0  0  0
  162.4470  210.9660  148.6150 C   0  0  0  0  0  1  0  0  0  0  0  0
  162.1650  209.6230  148.8760 O   0  0  0  0  0  0  0  0  0  0  0  0
  1  2  2  0  0  0  0
  1  8  1  0  0  0  0
  3  6  1  0  0  0  0
  4 16  1  0  0  0  0
  5 11  2  0  0  0  0
  6  9  2  0  0  0  0
  7  4  1  6  0  0  0
  7  1  1  0  0  0  0
  8 15  2  0  0  0  0
  9 10  1  0  0  0  0
 10  8  1  0  0  0  0
 11  7  1  0  0  0  0
 11  9  1  0  0  0  0
 12  2  1  0  0  0  0
 13  5  1  0  0  0  0
 13  3  2  0  0  0  0
 14  4  2  0  0  0  0
 16 12  1  0  0  0  0
 17 14  1  0  0  0  0
 18 17  1  0  0  0  0
 19 18  1  0  0  0  0
 21 20  1  0  0  0  0
 21 19  1  0  0  0  0
 23 22  1  1  0  0  0
 23 21  1  0  0  0  0
 24 23  1  0  0  0  0
 25 36  1  6  0  0  0
 25 13  1  0  0  0  0
 26 28  1  0  0  0  0
 28 25  1  0  0  0  0
 28 27  2  0  0  0  0
 29 26  1  0  0  0  0
 30 29  1  1  0  0  0
 31 30  1  0  0  0  0
 32 35  1  0  0  0  0
 32 33  1  0  0  0  0
 33 31  2  0  0  0  0
 34 30  1  0  0  0  0
 35 34  1  0  0  0  0
 37 38  1  0  0  0  0
 38 36  1  0  0  0  0
M  END
>  <MODEL>
9

>  <REMARK>
 VINA RESULT:      -6.5      2.417      4.557
  Name = 
  11 active torsions:
  status: ('A' for Active; 'I' for Inactive)
    1  A    between atoms: C_1  and  C_38
    2  A    between atoms: C_5  and  C_16
    3  A    between atoms: C_5  and  N_33
    4  A    between atoms: C_8  and  C_16
    5  A    between atoms: C_8  and  N_31
    6  A    between atoms: N_12  and  C_38
    7  A    between atoms: C_20  and  C_32
    8  A    between atoms: C_22  and  N_33
    9  A    between atoms: O_25  and  O_28
   10  A    between atoms: O_25  and  C_32
   11  A    between atoms: C_30  and  C_32
                            x       y       z     vdW  Elec       q    Type
                         _______ _______ _______ _____ _____    ______ ____

>  <TORSDO>
F 11

$$$$
