=
 OpenBabel11042420443D

 27 29  0  0  1  0  0  0  0  0999 V2000
  161.1640  208.4800  152.9280 C   0  0  0  0  0  0  0  0  0  0  0  0
  161.0790  207.1440  153.2900 C   0  0  0  0  0  0  0  0  0  0  0  0
  160.9410  206.7850  154.5920 N   0  0  0  0  0  0  0  0  0  0  0  0
  161.4090  208.5830  151.2670 S   0  0  0  0  0  0  0  0  0  0  0  0
  160.8940  207.7400  155.5660 C   0  0  0  0  0  3  0  0  0  0  0  0
  160.9810  209.1040  155.2340 C   0  0  0  0  0  3  0  0  0  0  0  0
  161.3730  206.9130  151.0210 C   0  0  0  0  0  0  0  0  0  0  0  0
  161.1880  206.2410  152.2300 C   0  0  0  0  0  3  0  0  0  0  0  0
  161.0990  209.4920  153.8920 C   0  0  0  0  0  0  0  0  0  0  0  0
  161.5280  206.3030  149.7340 N   0  0  0  0  0  2  0  0  0  0  0  0
  162.3970  206.3530  147.1490 O   0  0  0  0  0  0  0  0  0  0  0  0
  160.4660  204.2710  150.2010 O   0  0  0  0  0  0  0  0  0  0  0  0
  161.9370  205.1930  146.9770 C   0  0  0  0  0  0  0  0  0  0  0  0
  161.2760  204.4950  148.0410 N   0  0  0  0  0  2  0  0  0  0  0  0
  161.0660  204.9970  149.3650 C   0  0  0  0  0  0  0  0  0  0  0  0
  162.0770  204.5470  145.6380 C   0  0  1  0  0  3  0  0  0  0  0  0
  161.4730  203.2910  145.6540 O   0  0  0  0  0  1  0  0  0  0  0  0
  161.4410  205.4040  144.5560 C   0  0  0  0  0  2  0  0  0  0  0  0
  160.1720  205.8190  144.9580 O   0  0  0  0  0  1  0  0  0  0  0  0
  161.2150  210.8800  153.5630 N   0  0  0  0  0  2  0  0  0  0  0  0
  158.8820  213.1100  151.8540 N   0  0  0  0  0  0  0  0  0  0  0  0
  160.1100  211.7230  153.2270 C   0  0  1  0  0  3  0  0  0  0  0  0
  158.9320  212.3390  154.4420 S   0  0  0  0  0  0  0  0  0  0  0  0
  157.0120  213.7560  153.1610 C   0  0  0  0  0  0  0  0  0  0  0  0
  155.8630  214.2100  153.2190 O   0  0  0  0  0  0  0  0  0  0  0  0
  159.9780  212.2220  152.0060 C   0  0  0  0  0  3  0  0  0  0  0  0
  158.2220  213.2770  153.0980 C   0  0  0  0  0  0  0  0  0  0  0  0
  1  2  2  0  0  0  0
  1  9  1  0  0  0  0
  2  3  1  0  0  0  0
  3  5  2  0  0  0  0
  4  1  1  0  0  0  0
  6  5  1  0  0  0  0
  7  4  1  0  0  0  0
  7  8  2  0  0  0  0
  8  2  1  0  0  0  0
  9  6  2  0  0  0  0
 10  7  1  0  0  0  0
 13 11  2  0  0  0  0
 13 14  1  0  0  0  0
 14 15  1  0  0  0  0
 15 10  1  0  0  0  0
 15 12  2  0  0  0  0
 16 17  1  1  0  0  0
 16 13  1  0  0  0  0
 18 19  1  0  0  0  0
 18 16  1  0  0  0  0
 20  9  1  0  0  0  0
 21 26  2  0  0  0  0
 21 27  1  0  0  0  0
 22 20  1  1  0  0  0
 22 23  1  0  0  0  0
 24 25  2  0  0  0  0
 26 22  1  0  0  0  0
 27 24  2  0  0  0  0
 27 23  1  0  0  0  0
M  END
>  <MODEL>
1

>  <REMARK>
 VINA RESULT:      -7.7      0.000      0.000
  Name = 
  5 active torsions:
  status: ('A' for Active; 'I' for Inactive)
    1  A    between atoms: C_5  and  C_11
    2  A    between atoms: C_5  and  C_18
    3  A    between atoms: N_7  and  C_13
    4  A    between atoms: C_9  and  N_24
    5  A    between atoms: C_23  and  N_24
                            x       y       z     vdW  Elec       q    Type
                         _______ _______ _______ _____ _____    ______ ____

>  <TORSDO>
F 5

$$$$
=
 OpenBabel11042420443D

 27 29  0  0  1  0  0  0  0  0999 V2000
  161.1330  208.5120  152.8600 C   0  0  0  0  0  0  0  0  0  0  0  0
  161.0600  207.1640  153.1790 C   0  0  0  0  0  0  0  0  0  0  0  0
  160.9130  206.7620  154.4670 N   0  0  0  0  0  0  0  0  0  0  0  0
  161.3940  208.6710  151.2070 S   0  0  0  0  0  0  0  0  0  0  0  0
  160.8460  207.6840  155.4710 C   0  0  0  0  0  3  0  0  0  0  0  0
  160.9210  209.0590  155.1840 C   0  0  0  0  0  3  0  0  0  0  0  0
  161.3790  207.0100  150.9060 C   0  0  0  0  0  0  0  0  0  0  0  0
  161.1890  206.2970  152.0910 C   0  0  0  0  0  3  0  0  0  0  0  0
  161.0480  209.4910  153.8560 C   0  0  0  0  0  0  0  0  0  0  0  0
  161.5520  206.4440  149.6020 N   0  0  0  0  0  2  0  0  0  0  0  0
  161.3530  204.3650  147.8470 O   0  0  0  0  0  0  0  0  0  0  0  0
  162.4760  208.3180  148.5480 O   0  0  0  0  0  0  0  0  0  0  0  0
  161.8480  205.0880  146.9420 C   0  0  0  0  0  0  0  0  0  0  0  0
  162.2280  206.4460  147.2050 N   0  0  0  0  0  2  0  0  0  0  0  0
  162.0990  207.1200  148.4610 C   0  0  0  0  0  0  0  0  0  0  0  0
  162.0490  204.5110  145.5800 C   0  0  1  0  0  3  0  0  0  0  0  0
  161.4790  203.2400  145.5170 O   0  0  0  0  0  1  0  0  0  0  0  0
  161.4270  205.4010  144.5170 C   0  0  0  0  0  2  0  0  0  0  0  0
  160.1390  205.7750  144.9000 O   0  0  0  0  0  1  0  0  0  0  0  0
  161.1510  210.8900  153.5740 N   0  0  0  0  0  2  0  0  0  0  0  0
  158.8190  213.1310  151.8780 N   0  0  0  0  0  0  0  0  0  0  0  0
  160.0430  211.7300  153.2390 C   0  0  1  0  0  3  0  0  0  0  0  0
  158.8420  212.3070  154.4500 S   0  0  0  0  0  0  0  0  0  0  0  0
  156.9250  213.7310  153.1720 C   0  0  0  0  0  0  0  0  0  0  0  0
  155.7700  214.1720  153.2230 O   0  0  0  0  0  0  0  0  0  0  0  0
  159.9220  212.2520  152.0270 C   0  0  0  0  0  3  0  0  0  0  0  0
  158.1410  213.2660  153.1160 C   0  0  0  0  0  0  0  0  0  0  0  0
  1  2  2  0  0  0  0
  1  9  1  0  0  0  0
  2  3  1  0  0  0  0
  3  5  2  0  0  0  0
  4  1  1  0  0  0  0
  6  5  1  0  0  0  0
  7  4  1  0  0  0  0
  7  8  2  0  0  0  0
  8  2  1  0  0  0  0
  9  6  2  0  0  0  0
 10  7  1  0  0  0  0
 13 14  1  0  0  0  0
 13 11  2  0  0  0  0
 14 15  1  0  0  0  0
 15 12  2  0  0  0  0
 15 10  1  0  0  0  0
 16 17  1  1  0  0  0
 16 13  1  0  0  0  0
 18 19  1  0  0  0  0
 18 16  1  0  0  0  0
 20  9  1  0  0  0  0
 21 26  2  0  0  0  0
 21 27  1  0  0  0  0
 22 20  1  1  0  0  0
 22 23  1  0  0  0  0
 24 25  2  0  0  0  0
 26 22  1  0  0  0  0
 27 24  2  0  0  0  0
 27 23  1  0  0  0  0
M  END
>  <MODEL>
2

>  <REMARK>
 VINA RESULT:      -7.6      0.942      1.229
  Name = 
  5 active torsions:
  status: ('A' for Active; 'I' for Inactive)
    1  A    between atoms: C_5  and  C_11
    2  A    between atoms: C_5  and  C_18
    3  A    between atoms: N_7  and  C_13
    4  A    between atoms: C_9  and  N_24
    5  A    between atoms: C_23  and  N_24
                            x       y       z     vdW  Elec       q    Type
                         _______ _______ _______ _____ _____    ______ ____

>  <TORSDO>
F 5

$$$$
=
 OpenBabel11042420443D

 27 29  0  0  1  0  0  0  0  0999 V2000
  161.0250  208.5120  153.3890 C   0  0  0  0  0  0  0  0  0  0  0  0
  160.9640  207.1660  153.7180 C   0  0  0  0  0  0  0  0  0  0  0  0
  160.8260  206.7710  155.0090 N   0  0  0  0  0  0  0  0  0  0  0  0
  161.2760  208.6620  151.7330 S   0  0  0  0  0  0  0  0  0  0  0  0
  160.7580  207.7000  156.0070 C   0  0  0  0  0  3  0  0  0  0  0  0
  160.8210  209.0740  155.7100 C   0  0  0  0  0  3  0  0  0  0  0  0
  161.2720  206.9980  151.4440 C   0  0  0  0  0  0  0  0  0  0  0  0
  161.0940  206.2920  152.6350 C   0  0  0  0  0  3  0  0  0  0  0  0
  160.9380  209.4970  154.3790 C   0  0  0  0  0  0  0  0  0  0  0  0
  161.4430  206.4240  150.1430 N   0  0  0  0  0  2  0  0  0  0  0  0
  162.3230  206.5560  147.5650 O   0  0  0  0  0  0  0  0  0  0  0  0
  160.4160  204.3620  150.5530 O   0  0  0  0  0  0  0  0  0  0  0  0
  161.8850  205.3930  147.3610 C   0  0  0  0  0  0  0  0  0  0  0  0
  161.2320  204.6560  148.4040 N   0  0  0  0  0  2  0  0  0  0  0  0
  161.0060  205.1200  149.7380 C   0  0  0  0  0  0  0  0  0  0  0  0
  162.0420  204.7850  146.0070 C   0  0  1  0  0  3  0  0  0  0  0  0
  161.4830  203.5080  145.9950 O   0  0  0  0  0  1  0  0  0  0  0  0
  161.3730  205.6440  144.9460 C   0  0  0  0  0  2  0  0  0  0  0  0
  160.0980  206.0180  145.3680 O   0  0  0  0  0  1  0  0  0  0  0  0
  161.0290  210.8950  154.0860 N   0  0  0  0  0  2  0  0  0  0  0  0
  158.4320  213.3520  154.8320 N   0  0  0  0  0  2  0  0  0  0  0  0
  159.9080  211.7790  154.0160 C   0  0  0  0  0  0  0  0  0  0  0  0
  158.6890  211.7240  152.6920 S   0  0  0  0  0  0  0  0  0  0  0  0
  156.9090  213.7330  153.0550 C   0  0  0  0  0  0  0  0  0  0  0  0
  156.0540  214.4530  152.5250 O   0  0  0  0  0  0  0  0  0  0  0  0
  159.6230  212.6030  155.0140 C   0  0  0  0  0  3  0  0  0  0  0  0
  157.8100  212.9750  153.6140 C   0  0  0  0  0  0  0  0  0  0  0  0
  1  2  2  0  0  0  0
  1  9  1  0  0  0  0
  2  3  1  0  0  0  0
  3  5  2  0  0  0  0
  4  1  1  0  0  0  0
  6  5  1  0  0  0  0
  7  4  1  0  0  0  0
  7  8  2  0  0  0  0
  8  2  1  0  0  0  0
  9  6  2  0  0  0  0
 10  7  1  0  0  0  0
 13 11  2  0  0  0  0
 13 14  1  0  0  0  0
 14 15  1  0  0  0  0
 15 10  1  0  0  0  0
 15 12  2  0  0  0  0
 16 17  1  1  0  0  0
 16 13  1  0  0  0  0
 18 19  1  0  0  0  0
 18 16  1  0  0  0  0
 20  9  1  0  0  0  0
 21 26  1  0  0  0  0
 22 20  1  0  0  0  0
 22 26  2  0  0  0  0
 23 27  1  0  0  0  0
 23 22  1  0  0  0  0
 24 27  2  0  0  0  0
 25 24  2  0  0  0  0
 27 21  1  0  0  0  0
M  END
>  <MODEL>
3

>  <REMARK>
 VINA RESULT:      -7.5      0.918      1.016
  Name = 
  5 active torsions:
  status: ('A' for Active; 'I' for Inactive)
    1  A    between atoms: C_5  and  C_11
    2  A    between atoms: C_5  and  C_18
    3  A    between atoms: N_7  and  C_13
    4  A    between atoms: C_9  and  N_24
    5  A    between atoms: C_23  and  N_24
                            x       y       z     vdW  Elec       q    Type
                         _______ _______ _______ _____ _____    ______ ____

>  <TORSDO>
F 5

$$$$
=
 OpenBabel11042420443D

 27 29  0  0  1  0  0  0  0  0999 V2000
  161.2540  205.7320  149.2870 C   0  0  0  0  0  0  0  0  0  0  0  0
  161.8430  206.9050  148.8400 C   0  0  0  0  0  0  0  0  0  0  0  0
  162.3310  207.0000  147.5760 N   0  0  0  0  0  0  0  0  0  0  0  0
  160.8310  205.9120  150.9040 S   0  0  0  0  0  0  0  0  0  0  0  0
  162.2570  205.9320  146.7300 C   0  0  0  0  0  3  0  0  0  0  0  0
  161.6700  204.7250  147.1520 C   0  0  0  0  0  3  0  0  0  0  0  0
  161.3780  207.5070  151.0110 C   0  0  0  0  0  0  0  0  0  0  0  0
  161.9180  207.9240  149.7930 C   0  0  0  0  0  3  0  0  0  0  0  0
  161.1390  204.6200  148.4450 C   0  0  0  0  0  0  0  0  0  0  0  0
  161.2940  208.2900  152.2070 N   0  0  0  0  0  2  0  0  0  0  0  0
  161.2080  210.6920  153.4960 O   0  0  0  0  0  0  0  0  0  0  0  0
  161.1950  206.5300  153.7470 O   0  0  0  0  0  0  0  0  0  0  0  0
  161.1340  210.0910  154.6000 C   0  0  0  0  0  0  0  0  0  0  0  0
  161.1320  208.6580  154.6640 N   0  0  0  0  0  2  0  0  0  0  0  0
  161.2060  207.7730  153.5420 C   0  0  0  0  0  0  0  0  0  0  0  0
  161.0600  210.8910  155.8590 C   0  0  1  0  0  3  0  0  0  0  0  0
  159.8100  210.7240  156.4520 O   0  0  0  0  0  1  0  0  0  0  0  0
  162.1470  210.4680  156.8330 C   0  0  0  0  0  2  0  0  0  0  0  0
  163.4050  210.7040  156.2790 O   0  0  0  0  0  1  0  0  0  0  0  0
  160.5670  203.3810  148.8770 N   0  0  0  0  0  2  0  0  0  0  0  0
  161.5810  199.9290  148.2520 N   0  0  0  0  0  0  0  0  0  0  0  0
  160.8420  202.1130  148.2770 C   0  0  1  0  0  3  0  0  0  0  0  0
  160.8310  201.8400  146.4970 S   0  0  0  0  0  0  0  0  0  0  0  0
  161.2870  199.2150  146.0100 C   0  0  0  0  0  0  0  0  0  0  0  0
  161.1810  198.2900  145.1950 O   0  0  0  0  0  0  0  0  0  0  0  0
  161.2690  201.0900  149.0040 C   0  0  0  0  0  3  0  0  0  0  0  0
  161.3980  200.1880  146.8700 C   0  0  0  0  0  0  0  0  0  0  0  0
  1  4  1  0  0  0  0
  2  1  1  0  0  0  0
  2  8  1  0  0  0  0
  3  2  2  0  0  0  0
  4  7  1  0  0  0  0
  5  6  2  0  0  0  0
  5  3  1  0  0  0  0
  6  9  1  0  0  0  0
  7 10  1  0  0  0  0
  8  7  2  0  0  0  0
  9 20  1  0  0  0  0
  9  1  2  0  0  0  0
 10 15  1  0  0  0  0
 11 13  2  0  0  0  0
 13 14  1  0  0  0  0
 13 16  1  0  0  0  0
 15 12  2  0  0  0  0
 15 14  1  0  0  0  0
 16 17  1  1  0  0  0
 16 18  1  0  0  0  0
 19 18  1  0  0  0  0
 21 26  2  0  0  0  0
 22 20  1  6  0  0  0
 22 26  1  0  0  0  0
 23 27  1  0  0  0  0
 23 22  1  0  0  0  0
 24 27  2  0  0  0  0
 25 24  2  0  0  0  0
 27 21  1  0  0  0  0
M  END
>  <MODEL>
4

>  <REMARK>
 VINA RESULT:      -6.9      3.918     10.179
  Name = 
  5 active torsions:
  status: ('A' for Active; 'I' for Inactive)
    1  A    between atoms: C_5  and  C_11
    2  A    between atoms: C_5  and  C_18
    3  A    between atoms: N_7  and  C_13
    4  A    between atoms: C_9  and  N_24
    5  A    between atoms: C_23  and  N_24
                            x       y       z     vdW  Elec       q    Type
                         _______ _______ _______ _____ _____    ______ ____

>  <TORSDO>
F 5

$$$$
=
 OpenBabel11042420443D

 27 29  0  0  1  0  0  0  0  0999 V2000
  161.0340  209.0970  153.6500 C   0  0  0  0  0  0  0  0  0  0  0  0
  161.2570  207.9630  154.4170 C   0  0  0  0  0  0  0  0  0  0  0  0
  161.4920  208.0610  155.7510 N   0  0  0  0  0  0  0  0  0  0  0  0
  160.8590  208.6440  152.0400 S   0  0  0  0  0  0  0  0  0  0  0  0
  161.5220  209.2850  156.3540 C   0  0  0  0  0  3  0  0  0  0  0  0
  161.3030  210.4560  155.6050 C   0  0  0  0  0  3  0  0  0  0  0  0
  161.0390  206.9920  152.3430 C   0  0  0  0  0  0  0  0  0  0  0  0
  161.2580  206.7630  153.7020 C   0  0  0  0  0  3  0  0  0  0  0  0
  161.0350  210.3690  154.2320 C   0  0  0  0  0  0  0  0  0  0  0  0
  160.9820  205.9930  151.3190 N   0  0  0  0  0  2  0  0  0  0  0  0
  160.4240  203.4620  150.4710 O   0  0  0  0  0  0  0  0  0  0  0  0
  161.8050  207.2850  149.5500 O   0  0  0  0  0  0  0  0  0  0  0  0
  160.7990  203.7730  149.3100 C   0  0  0  0  0  0  0  0  0  0  0  0
  161.2720  205.0950  149.0150 N   0  0  0  0  0  2  0  0  0  0  0  0
  161.3700  206.1730  149.9500 C   0  0  0  0  0  0  0  0  0  0  0  0
  160.7600  202.7400  148.2320 C   0  0  1  0  0  3  0  0  0  0  0  0
  161.9100  202.8290  147.4500 O   0  0  0  0  0  1  0  0  0  0  0  0
  160.6540  201.3440  148.8240 C   0  0  0  0  0  2  0  0  0  0  0  0
  161.7440  200.5710  148.4250 O   0  0  0  0  0  1  0  0  0  0  0  0
  160.8400  211.5660  153.4710 N   0  0  0  0  0  2  0  0  0  0  0  0
  157.9940  213.2940  151.9710 N   0  0  0  0  0  0  0  0  0  0  0  0
  159.5660  212.1670  153.2260 C   0  0  1  0  0  3  0  0  0  0  0  0
  158.3640  212.4980  154.5250 S   0  0  0  0  0  0  0  0  0  0  0  0
  156.1160  213.5090  153.4020 C   0  0  0  0  0  0  0  0  0  0  0  0
  154.9040  213.7120  153.5400 O   0  0  0  0  0  0  0  0  0  0  0  0
  159.2580  212.6520  152.0320 C   0  0  0  0  0  3  0  0  0  0  0  0
  157.3930  213.2940  153.2550 C   0  0  0  0  0  0  0  0  0  0  0  0
  1  9  2  0  0  0  0
  1  2  1  0  0  0  0
  2  3  2  0  0  0  0
  3  5  1  0  0  0  0
  4  7  1  0  0  0  0
  4  1  1  0  0  0  0
  6  5  2  0  0  0  0
  7  8  2  0  0  0  0
  8  2  1  0  0  0  0
  9  6  1  0  0  0  0
 10  7  1  0  0  0  0
 12 15  2  0  0  0  0
 13 11  2  0  0  0  0
 14 13  1  0  0  0  0
 14 15  1  0  0  0  0
 15 10  1  0  0  0  0
 16 17  1  1  0  0  0
 16 18  1  0  0  0  0
 16 13  1  0  0  0  0
 19 18  1  0  0  0  0
 20  9  1  0  0  0  0
 21 26  2  0  0  0  0
 21 27  1  0  0  0  0
 22 20  1  1  0  0  0
 22 23  1  0  0  0  0
 24 25  2  0  0  0  0
 26 22  1  0  0  0  0
 27 24  2  0  0  0  0
 27 23  1  0  0  0  0
M  END
>  <MODEL>
5

>  <REMARK>
 VINA RESULT:      -6.7      1.850      2.478
  Name = 
  5 active torsions:
  status: ('A' for Active; 'I' for Inactive)
    1  A    between atoms: C_5  and  C_11
    2  A    between atoms: C_5  and  C_18
    3  A    between atoms: N_7  and  C_13
    4  A    between atoms: C_9  and  N_24
    5  A    between atoms: C_23  and  N_24
                            x       y       z     vdW  Elec       q    Type
                         _______ _______ _______ _____ _____    ______ ____

>  <TORSDO>
F 5

$$$$
=
 OpenBabel11042420443D

 27 29  0  0  1  0  0  0  0  0999 V2000
  161.3270  205.7790  149.2470 C   0  0  0  0  0  0  0  0  0  0  0  0
  161.8900  206.9520  148.7650 C   0  0  0  0  0  0  0  0  0  0  0  0
  162.3190  207.0390  147.4800 N   0  0  0  0  0  0  0  0  0  0  0  0
  160.9790  205.9700  150.8810 S   0  0  0  0  0  0  0  0  0  0  0  0
  162.2100  205.9650  146.6460 C   0  0  0  0  0  3  0  0  0  0  0  0
  161.6470  204.7590  147.1030 C   0  0  0  0  0  3  0  0  0  0  0  0
  161.5240  207.5660  150.9510 C   0  0  0  0  0  0  0  0  0  0  0  0
  162.0060  207.9770  149.7080 C   0  0  0  0  0  3  0  0  0  0  0  0
  161.1770  204.6610  148.4190 C   0  0  0  0  0  0  0  0  0  0  0  0
  161.4930  208.3570  152.1450 N   0  0  0  0  0  2  0  0  0  0  0  0
  161.2890  208.5970  154.8540 O   0  0  0  0  0  0  0  0  0  0  0  0
  161.7410  210.4620  151.1540 O   0  0  0  0  0  0  0  0  0  0  0  0
  161.3990  209.8470  154.7470 C   0  0  0  0  0  0  0  0  0  0  0  0
  161.5530  210.4680  153.4640 N   0  0  0  0  0  2  0  0  0  0  0  0
  161.6020  209.7860  152.2070 C   0  0  0  0  0  0  0  0  0  0  0  0
  161.3550  210.6880  155.9800 C   0  0  1  0  0  3  0  0  0  0  0  0
  160.8760  211.9600  155.6670 O   0  0  0  0  0  1  0  0  0  0  0  0
  160.4650  210.0540  157.0360 C   0  0  0  0  0  2  0  0  0  0  0  0
  159.1230  210.2930  156.7380 O   0  0  0  0  0  1  0  0  0  0  0  0
  160.6300  203.4240  148.8860 N   0  0  0  0  0  2  0  0  0  0  0  0
  161.6530  199.9720  148.2730 N   0  0  0  0  0  0  0  0  0  0  0  0
  160.8970  202.1500  148.2930 C   0  0  1  0  0  3  0  0  0  0  0  0
  160.8320  201.8540  146.5180 S   0  0  0  0  0  0  0  0  0  0  0  0
  161.2950  199.2260  146.0510 C   0  0  0  0  0  0  0  0  0  0  0  0
  161.1710  198.2900  145.2520 O   0  0  0  0  0  0  0  0  0  0  0  0
  161.3550  201.1410  149.0200 C   0  0  0  0  0  3  0  0  0  0  0  0
  161.4250  200.2120  146.8940 C   0  0  0  0  0  0  0  0  0  0  0  0
  1  4  1  0  0  0  0
  2  1  1  0  0  0  0
  2  8  1  0  0  0  0
  3  2  2  0  0  0  0
  4  7  1  0  0  0  0
  5  6  2  0  0  0  0
  5  3  1  0  0  0  0
  6  9  1  0  0  0  0
  7 10  1  0  0  0  0
  8  7  2  0  0  0  0
  9 20  1  0  0  0  0
  9  1  2  0  0  0  0
 10 15  1  0  0  0  0
 12 15  2  0  0  0  0
 13 11  2  0  0  0  0
 13 16  1  0  0  0  0
 14 13  1  0  0  0  0
 15 14  1  0  0  0  0
 16 17  1  6  0  0  0
 16 18  1  0  0  0  0
 19 18  1  0  0  0  0
 21 26  2  0  0  0  0
 22 20  1  6  0  0  0
 22 26  1  0  0  0  0
 23 27  1  0  0  0  0
 23 22  1  0  0  0  0
 24 27  2  0  0  0  0
 25 24  2  0  0  0  0
 27 21  1  0  0  0  0
M  END
>  <MODEL>
6

>  <REMARK>
 VINA RESULT:      -6.6      3.833     10.241
  Name = 
  5 active torsions:
  status: ('A' for Active; 'I' for Inactive)
    1  A    between atoms: C_5  and  C_11
    2  A    between atoms: C_5  and  C_18
    3  A    between atoms: N_7  and  C_13
    4  A    between atoms: C_9  and  N_24
    5  A    between atoms: C_23  and  N_24
                            x       y       z     vdW  Elec       q    Type
                         _______ _______ _______ _____ _____    ______ ____

>  <TORSDO>
F 5

$$$$
=
 OpenBabel11042420443D

 27 29  0  0  1  0  0  0  0  0999 V2000
  161.6850  208.0570  150.3800 C   0  0  0  0  0  0  0  0  0  0  0  0
  161.9570  208.3300  149.0470 C   0  0  0  0  0  0  0  0  0  0  0  0
  162.2800  209.5860  148.6470 N   0  0  0  0  0  0  0  0  0  0  0  0
  161.2440  206.4410  150.5300 S   0  0  0  0  0  0  0  0  0  0  0  0
  162.3310  210.6040  149.5560 C   0  0  0  0  0  3  0  0  0  0  0  0
  162.0570  210.3630  150.9140 C   0  0  0  0  0  3  0  0  0  0  0  0
  161.4360  206.0950  148.8880 C   0  0  0  0  0  0  0  0  0  0  0  0
  161.8290  207.2360  148.1870 C   0  0  0  0  0  3  0  0  0  0  0  0
  161.7470  209.0660  151.3470 C   0  0  0  0  0  0  0  0  0  0  0  0
  161.2050  204.7990  148.3240 N   0  0  0  0  0  2  0  0  0  0  0  0
  161.0750  203.1030  146.1920 O   0  0  0  0  0  0  0  0  0  0  0  0
  160.6820  203.6660  150.3040 O   0  0  0  0  0  0  0  0  0  0  0  0
  160.7550  202.1620  146.9660 C   0  0  0  0  0  0  0  0  0  0  0  0
  160.6250  202.3780  148.3780 N   0  0  0  0  0  2  0  0  0  0  0  0
  160.8330  203.6220  149.0540 C   0  0  0  0  0  0  0  0  0  0  0  0
  160.4970  200.8070  146.3940 C   0  0  1  0  0  3  0  0  0  0  0  0
  160.4470  200.8830  145.0030 O   0  0  0  0  0  1  0  0  0  0  0  0
  161.5810  199.8280  146.8120 C   0  0  0  0  0  2  0  0  0  0  0  0
  161.5790  198.7210  145.9630 O   0  0  0  0  0  1  0  0  0  0  0  0
  161.4430  208.8330  152.7260 N   0  0  0  0  0  2  0  0  0  0  0  0
  161.4340  211.0460  155.6310 N   0  0  0  0  0  2  0  0  0  0  0  0
  161.1490  209.8640  153.6720 C   0  0  0  0  0  0  0  0  0  0  0  0
  159.6510  210.8620  153.6110 S   0  0  0  0  0  0  0  0  0  0  0  0
  159.7530  212.7180  155.5810 C   0  0  0  0  0  0  0  0  0  0  0  0
  159.3210  213.8020  155.9910 O   0  0  0  0  0  0  0  0  0  0  0  0
  161.9060  210.0440  154.7450 C   0  0  0  0  0  3  0  0  0  0  0  0
  160.2100  211.5760  155.1490 C   0  0  0  0  0  0  0  0  0  0  0  0
  1  4  1  0  0  0  0
  1  9  1  0  0  0  0
  2  1  2  0  0  0  0
  3  2  1  0  0  0  0
  3  5  2  0  0  0  0
  5  6  1  0  0  0  0
  6  9  2  0  0  0  0
  7  4  1  0  0  0  0
  8  7  2  0  0  0  0
  8  2  1  0  0  0  0
  9 20  1  0  0  0  0
 10  7  1  0  0  0  0
 10 15  1  0  0  0  0
 11 13  2  0  0  0  0
 13 14  1  0  0  0  0
 14 15  1  0  0  0  0
 15 12  2  0  0  0  0
 16 17  1  6  0  0  0
 16 18  1  0  0  0  0
 16 13  1  0  0  0  0
 19 18  1  0  0  0  0
 20 22  1  0  0  0  0
 22 26  2  0  0  0  0
 23 22  1  0  0  0  0
 23 27  1  0  0  0  0
 24 25  2  0  0  0  0
 26 21  1  0  0  0  0
 27 24  2  0  0  0  0
 27 21  1  0  0  0  0
M  END
>  <MODEL>
7

>  <REMARK>
 VINA RESULT:      -6.2      2.654      3.963
  Name = 
  5 active torsions:
  status: ('A' for Active; 'I' for Inactive)
    1  A    between atoms: C_5  and  C_11
    2  A    between atoms: C_5  and  C_18
    3  A    between atoms: N_7  and  C_13
    4  A    between atoms: C_9  and  N_24
    5  A    between atoms: C_23  and  N_24
                            x       y       z     vdW  Elec       q    Type
                         _______ _______ _______ _____ _____    ______ ____

>  <TORSDO>
F 5

$$$$
=
 OpenBabel11042420443D

 27 29  0  0  1  0  0  0  0  0999 V2000
  161.3170  207.2770  151.9210 C   0  0  0  0  0  0  0  0  0  0  0  0
  161.0800  206.6350  153.1280 C   0  0  0  0  0  0  0  0  0  0  0  0
  161.1530  205.2820  153.2210 N   0  0  0  0  0  0  0  0  0  0  0  0
  161.0710  208.9280  152.1210 S   0  0  0  0  0  0  0  0  0  0  0  0
  161.4500  204.5340  152.1190 C   0  0  0  0  0  3  0  0  0  0  0  0
  161.6920  205.1520  150.8790 C   0  0  0  0  0  3  0  0  0  0  0  0
  160.6940  208.8120  153.7630 C   0  0  0  0  0  0  0  0  0  0  0  0
  160.7340  207.4810  154.1840 C   0  0  0  0  0  3  0  0  0  0  0  0
  161.6450  206.5490  150.7730 C   0  0  0  0  0  0  0  0  0  0  0  0
  160.3700  209.9430  154.5800 N   0  0  0  0  0  2  0  0  0  0  0  0
  158.5570  211.5910  155.7780 O   0  0  0  0  0  0  0  0  0  0  0  0
  162.5520  210.6470  155.0500 O   0  0  0  0  0  0  0  0  0  0  0  0
  159.5010  212.2750  156.2540 C   0  0  0  0  0  0  0  0  0  0  0  0
  160.8690  211.9330  155.9910 N   0  0  0  0  0  2  0  0  0  0  0  0
  161.3140  210.8280  155.1970 C   0  0  0  0  0  0  0  0  0  0  0  0
  159.1820  213.4670  157.0960 C   0  0  1  0  0  3  0  0  0  0  0  0
  160.3050  214.2860  157.1990 O   0  0  0  0  0  1  0  0  0  0  0  0
  158.0280  214.2560  156.5000 C   0  0  0  0  0  2  0  0  0  0  0  0
  156.8750  214.0650  157.2610 O   0  0  0  0  0  1  0  0  0  0  0  0
  161.8650  207.1700  149.5020 N   0  0  0  0  0  2  0  0  0  0  0  0
  162.6740  205.4890  146.3620 N   0  0  0  0  0  0  0  0  0  0  0  0
  161.7990  206.4860  148.2480 C   0  0  1  0  0  3  0  0  0  0  0  0
  160.2770  206.3040  147.3030 S   0  0  0  0  0  0  0  0  0  0  0  0
  160.7830  204.8010  145.1070 C   0  0  0  0  0  0  0  0  0  0  0  0
  160.3000  204.0870  144.2210 O   0  0  0  0  0  0  0  0  0  0  0  0
  162.8980  206.0710  147.6360 C   0  0  0  0  0  3  0  0  0  0  0  0
  161.2930  205.5520  146.0420 C   0  0  0  0  0  0  0  0  0  0  0  0
  1  4  1  0  0  0  0
  1  2  1  0  0  0  0
  2  3  2  0  0  0  0
  2  8  1  0  0  0  0
  4  7  1  0  0  0  0
  5  3  1  0  0  0  0
  6  5  2  0  0  0  0
  7  8  2  0  0  0  0
  7 10  1  0  0  0  0
  9  6  1  0  0  0  0
  9  1  2  0  0  0  0
 10 15  1  0  0  0  0
 11 13  2  0  0  0  0
 12 15  2  0  0  0  0
 13 16  1  0  0  0  0
 14 13  1  0  0  0  0
 15 14  1  0  0  0  0
 16 17  1  6  0  0  0
 18 16  1  0  0  0  0
 18 19  1  0  0  0  0
 20  9  1  0  0  0  0
 21 26  2  0  0  0  0
 22 20  1  6  0  0  0
 23 22  1  0  0  0  0
 24 27  2  0  0  0  0
 25 24  2  0  0  0  0
 26 22  1  0  0  0  0
 27 21  1  0  0  0  0
 27 23  1  0  0  0  0
M  END
>  <MODEL>
8

>  <REMARK>
 VINA RESULT:      -6.0      2.987      9.458
  Name = 
  5 active torsions:
  status: ('A' for Active; 'I' for Inactive)
    1  A    between atoms: C_5  and  C_11
    2  A    between atoms: C_5  and  C_18
    3  A    between atoms: N_7  and  C_13
    4  A    between atoms: C_9  and  N_24
    5  A    between atoms: C_23  and  N_24
                            x       y       z     vdW  Elec       q    Type
                         _______ _______ _______ _____ _____    ______ ____

>  <TORSDO>
F 5

$$$$
=
 OpenBabel11042420443D

 27 29  0  0  1  0  0  0  0  0999 V2000
  161.6190  208.0270  152.4750 C   0  0  0  0  0  0  0  0  0  0  0  0
  160.9590  209.0510  153.1390 C   0  0  0  0  0  0  0  0  0  0  0  0
  160.4390  208.8540  154.3780 N   0  0  0  0  0  0  0  0  0  0  0  0
  162.0650  208.5650  150.9460 S   0  0  0  0  0  0  0  0  0  0  0  0
  160.5520  207.6360  154.9840 C   0  0  0  0  0  3  0  0  0  0  0  0
  161.2120  206.5750  154.3370 C   0  0  0  0  0  3  0  0  0  0  0  0
  161.4370  210.1180  151.1590 C   0  0  0  0  0  0  0  0  0  0  0  0
  160.8490  210.2420  152.4190 C   0  0  0  0  0  3  0  0  0  0  0  0
  161.7750  206.7700  153.0690 C   0  0  0  0  0  0  0  0  0  0  0  0
  161.5040  211.1380  150.1560 N   0  0  0  0  0  2  0  0  0  0  0  0
  161.1420  213.7130  149.3320 O   0  0  0  0  0  0  0  0  0  0  0  0
  162.3450  209.8300  148.4080 O   0  0  0  0  0  0  0  0  0  0  0  0
  161.5660  213.4010  148.1880 C   0  0  0  0  0  0  0  0  0  0  0  0
  161.9740  212.0580  147.8910 N   0  0  0  0  0  2  0  0  0  0  0  0
  161.9560  210.9590  148.8070 C   0  0  0  0  0  0  0  0  0  0  0  0
  161.6300  214.4490  147.1260 C   0  0  1  0  0  3  0  0  0  0  0  0
  162.7390  214.2290  146.3110 O   0  0  0  0  0  1  0  0  0  0  0  0
  160.3670  214.4400  146.2810 C   0  0  0  0  0  2  0  0  0  0  0  0
  160.5740  213.6990  145.1180 O   0  0  0  0  0  1  0  0  0  0  0  0
  162.4210  205.6790  152.4050 N   0  0  0  0  0  2  0  0  0  0  0  0
  160.8240  204.4620  149.3540 N   0  0  0  0  0  0  0  0  0  0  0  0
  161.8070  204.8680  151.4010 C   0  0  1  0  0  3  0  0  0  0  0  0
  161.2100  203.1970  151.7100 S   0  0  0  0  0  0  0  0  0  0  0  0
  160.2870  202.1530  149.3870 C   0  0  0  0  0  0  0  0  0  0  0  0
  160.0060  201.1190  148.7690 O   0  0  0  0  0  0  0  0  0  0  0  0
  161.5080  205.3640  150.2090 C   0  0  0  0  0  3  0  0  0  0  0  0
  160.5850  203.2420  150.0370 C   0  0  0  0  0  0  0  0  0  0  0  0
  1  9  2  0  0  0  0
  1  2  1  0  0  0  0
  2  3  2  0  0  0  0
  3  5  1  0  0  0  0
  4  7  1  0  0  0  0
  4  1  1  0  0  0  0
  6  5  2  0  0  0  0
  7  8  2  0  0  0  0
  8  2  1  0  0  0  0
  9  6  1  0  0  0  0
 10  7  1  0  0  0  0
 12 15  2  0  0  0  0
 13 11  2  0  0  0  0
 14 13  1  0  0  0  0
 14 15  1  0  0  0  0
 15 10  1  0  0  0  0
 16 17  1  6  0  0  0
 16 13  1  0  0  0  0
 18 16  1  0  0  0  0
 19 18  1  0  0  0  0
 20  9  1  0  0  0  0
 21 27  1  0  0  0  0
 21 26  2  0  0  0  0
 22 23  1  0  0  0  0
 22 20  1  1  0  0  0
 24 27  2  0  0  0  0
 25 24  2  0  0  0  0
 26 22  1  0  0  0  0
 27 23  1  0  0  0  0
M  END
>  <MODEL>
9

>  <REMARK>
 VINA RESULT:      -6.0      3.889      7.473
  Name = 
  5 active torsions:
  status: ('A' for Active; 'I' for Inactive)
    1  A    between atoms: C_5  and  C_11
    2  A    between atoms: C_5  and  C_18
    3  A    between atoms: N_7  and  C_13
    4  A    between atoms: C_9  and  N_24
    5  A    between atoms: C_23  and  N_24
                            x       y       z     vdW  Elec       q    Type
                         _______ _______ _______ _____ _____    ______ ____

>  <TORSDO>
F 5

$$$$
