=
 OpenBabel11052410413D

 53 58  0  0  1  0  0  0  0  0999 V2000
  161.8570  209.8370  150.1330 C   0  0  0  0  0  3  0  0  0  0  0  0
  160.0150  210.8890  152.0670 C   0  0  0  0  0  2  0  0  0  0  0  0
  160.9820  209.7860  152.4980 C   0  0  1  0  0  3  0  0  0  0  0  0
  161.3550  208.9680  151.2530 C   0  0  2  0  0  3  0  0  0  0  0  0
  160.6540  211.8280  151.0380 C   0  0  0  0  0  2  0  0  0  0  0  0
  161.4890  211.1160  149.9910 C   0  0  0  0  0  0  0  0  0  0  0  0
  161.3010  212.2320  147.8180 C   0  0  0  0  0  3  0  0  0  0  0  0
  162.0440  211.8650  148.8570 C   0  0  0  0  0  3  0  0  0  0  0  0
  161.8700  212.9900  146.7030 C   0  0  0  0  0  0  0  0  0  0  0  0
  161.5570  212.7610  145.4150 N   0  0  0  0  0  0  0  0  0  0  0  0
  162.7280  213.9730  146.8270 O   0  0  0  0  0  0  0  0  0  0  0  0
  162.3050  213.6980  144.7940 C   0  0  0  0  0  0  0  0  0  0  0  0
  163.0240  214.4440  145.6550 N   0  0  0  0  0  0  0  0  0  0  0  0
  162.3140  213.8960  143.3410 C   0  0  0  0  0  0  0  0  0  0  0  0
  163.4100  214.0390  142.7340 O   0  0  0  0  0  0  0  0  0  0  0  0
  161.0800  213.9200  142.6170 N   0  0  0  0  0  2  0  0  0  0  0  0
  161.0300  214.0070  141.1630 C   0  0  0  0  0  2  0  0  0  0  0  0
  159.6000  213.8270  140.6690 C   0  0  2  0  0  3  0  0  0  0  0  0
  158.7350  213.2710  141.7870 C   0  0  0  0  0  1  0  0  0  0  0  0
  159.6510  213.5650  138.3310 O   0  0  0  0  0  0  0  0  0  0  0  0
  159.5680  212.9940  139.4060 C   0  0  0  0  0  0  0  0  0  0  0  0
  159.0320  211.0270  138.1570 O   0  0  0  0  0  1  0  0  0  0  0  0
  159.4410  211.4950  139.4070 C   0  0  1  0  0  3  0  0  0  0  0  0
  160.7030  210.8560  139.8010 C   0  0  0  0  0  0  0  0  0  0  0  0
  161.6970  210.3540  140.1130 N   0  0  0  0  0  0  0  0  0  0  0  0
  162.2160  210.3600  153.2120 C   0  0  0  0  0  2  0  0  0  0  0  0
  162.2920  209.6870  155.5790 N   0  0  0  0  0  2  0  0  0  0  0  0
  162.1830  210.1850  156.9490 C   0  0  0  0  0  2  0  0  0  0  0  0
  161.9380  210.7690  154.6570 C   0  0  2  0  0  3  0  0  0  0  0  0
  160.2670  211.6400  156.2980 C   0  0  1  0  0  3  0  0  0  0  0  0
  160.7330  210.5510  157.2600 C   0  0  0  0  0  2  0  0  0  0  0  0
  160.4800  211.1900  154.8550 C   0  0  0  0  0  2  0  0  0  0  0  0
  158.8580  211.9220  156.5300 N   0  0  0  0  0  2  0  0  0  0  0  0
  158.2140  213.0990  156.0430 C   0  0  0  0  0  0  0  0  0  0  0  0
  158.8680  213.9670  155.3990 O   0  0  0  0  0  0  0  0  0  0  0  0
  156.0660  212.3480  156.7160 O   0  0  0  0  0  0  0  0  0  0  0  0
  156.7890  213.2970  156.3080 C   0  0  0  0  0  3  0  0  0  0  0  0
  162.3410  207.8430  151.5460 C   0  0  0  0  0  2  0  0  0  0  0  0
  161.0040  202.9150  151.1960 C   0  0  0  0  0  3  0  0  0  0  0  0
  162.2310  206.7680  150.5130 C   0  0  0  0  0  3  0  0  0  0  0  0
  161.6320  205.5870  150.7010 C   0  0  0  0  0  0  0  0  0  0  0  0
  161.5980  204.6160  149.5510 C   0  0  1  0  0  3  0  0  0  0  0  0
  160.6740  203.9280  152.1570 N   0  0  0  0  0  0  0  0  0  0  0  0
  161.4640  203.2320  150.0200 N   0  0  0  0  0  0  0  0  0  0  0  0
  160.9580  205.1840  151.9630 C   0  0  0  0  0  0  0  0  0  0  0  0
  160.7800  205.2760  147.2180 C   0  0  1  0  0  3  0  0  0  0  0  0
  160.4270  204.9540  148.6200 C   0  0  2  0  0  3  0  0  0  0  0  0
  160.5230  206.3580  148.1840 N   0  0  0  0  0  2  0  0  0  0  0  0
  162.2670  205.2490  146.8810 C   0  0  2  0  0  3  0  0  0  0  0  0
  162.4700  205.6340  145.4660 C   0  0  0  0  0  2  0  0  0  0  0  0
  162.4880  204.2870  145.8760 O   0  0  0  0  0  0  0  0  0  0  0  0
  160.6230  206.1360  152.9310 O   0  0  0  0  0  0  0  0  0  0  0  0
  161.3660  206.2940  154.1330 C   0  0  0  0  0  1  0  0  0  0  0  0
  1  4  1  0  0  0  0
  2  3  1  0  0  0  0
  3 26  1  6  0  0  0
  4 38  1  1  0  0  0
  4  3  1  0  0  0  0
  5  2  1  0  0  0  0
  6  1  2  0  0  0  0
  6  5  1  0  0  0  0
  7  8  2  0  0  0  0
  8  6  1  0  0  0  0
  9 11  1  0  0  0  0
  9  7  1  0  0  0  0
 10  9  2  0  0  0  0
 12 10  1  0  0  0  0
 12 13  2  0  0  0  0
 13 11  1  0  0  0  0
 14 12  1  0  0  0  0
 15 14  2  0  0  0  0
 16 14  1  0  0  0  0
 17 16  1  0  0  0  0
 18 17  1  0  0  0  0
 18 19  1  1  0  0  0
 20 21  2  0  0  0  0
 21 23  1  0  0  0  0
 21 18  1  0  0  0  0
 23 22  1  6  0  0  0
 23 24  1  0  0  0  0
 24 25  3  0  0  0  0
 27 28  1  0  0  0  0
 28 31  1  0  0  0  0
 29 26  1  6  0  0  0
 29 32  1  0  0  0  0
 29 27  1  0  0  0  0
 30 33  1  6  0  0  0
 30 31  1  0  0  0  0
 32 30  1  0  0  0  0
 34 37  1  0  0  0  0
 34 33  1  0  0  0  0
 35 34  2  0  0  0  0
 37 36  2  0  0  0  0
 39 43  1  0  0  0  0
 40 41  2  0  0  0  0
 40 38  1  0  0  0  0
 41 45  1  0  0  0  0
 42 44  1  1  0  0  0
 42 41  1  0  0  0  0
 44 39  2  0  0  0  0
 45 43  2  0  0  0  0
 45 52  1  0  0  0  0
 46 48  1  1  0  0  0
 46 47  1  0  0  0  0
 47 48  1  1  0  0  0
 47 42  1  0  0  0  0
 49 50  1  6  0  0  0
 49 46  1  0  0  0  0
 50 51  1  0  0  0  0
 51 49  1  0  0  0  0
 52 53  1  0  0  0  0
M  END
>  <MODEL>
1

>  <REMARK>
 VINA RESULT:      -5.6      0.000      0.000
  Name = 
  17 active torsions:
  status: ('A' for Active; 'I' for Inactive)
    1  A    between atoms: C_2  and  C_9
    2  A    between atoms: C_5  and  C_53
    3  A    between atoms: C_7  and  C_47
    4  A    between atoms: C_11  and  C_48
    5  A    between atoms: C_12  and  C_41
    6  A    between atoms: C_13  and  C_19
    7  A    between atoms: C_14  and  C_46
    8  A    between atoms: N_15  and  C_18
    9  A    between atoms: C_16  and  C_40
   10  A    between atoms: C_20  and  C_32
   11  A    between atoms: C_21  and  C_49
   12  A    between atoms: C_21  and  C_51
   13  A    between atoms: O_27  and  C_44
   14  A    between atoms: C_30  and  C_46
   15  A    between atoms: N_31  and  C_51
   16  A    between atoms: C_33  and  C_48
   17  A    between atoms: C_41  and  C_49
                            x       y       z     vdW  Elec       q    Type
                         _______ _______ _______ _____ _____    ______ ____

>  <TORSDO>
F 17

$$$$
=
 OpenBabel11052410413D

 53 58  0  0  1  0  0  0  0  0999 V2000
  160.9560  209.2540  153.2410 C   0  0  0  0  0  3  0  0  0  0  0  0
  161.3250  209.9580  155.9990 C   0  0  0  0  0  2  0  0  0  0  0  0
  160.4370  210.8460  155.1270 C   0  0  1  0  0  3  0  0  0  0  0  0
  160.8980  210.6930  153.6700 C   0  0  2  0  0  3  0  0  0  0  0  0
  161.2100  208.4820  155.6000 C   0  0  0  0  0  2  0  0  0  0  0  0
  161.1650  208.2510  154.1020 C   0  0  0  0  0  0  0  0  0  0  0  0
  160.7450  206.5870  152.3540 C   0  0  0  0  0  3  0  0  0  0  0  0
  161.2020  206.8850  153.5660 C   0  0  0  0  0  3  0  0  0  0  0  0
  160.8030  205.2210  151.8320 C   0  0  0  0  0  0  0  0  0  0  0  0
  160.5290  204.9040  150.5530 N   0  0  0  0  0  0  0  0  0  0  0  0
  161.1350  204.1650  152.5340 O   0  0  0  0  0  0  0  0  0  0  0  0
  160.7320  203.5680  150.5660 C   0  0  0  0  0  0  0  0  0  0  0  0
  161.1040  203.1110  151.7770 N   0  0  0  0  0  0  0  0  0  0  0  0
  160.5860  202.7160  149.3830 C   0  0  0  0  0  0  0  0  0  0  0  0
  159.5420  202.0220  149.2350 O   0  0  0  0  0  0  0  0  0  0  0  0
  161.6240  202.6760  148.3990 N   0  0  0  0  0  2  0  0  0  0  0  0
  161.4900  201.9310  147.1540 C   0  0  0  0  0  2  0  0  0  0  0  0
  160.5960  202.6840  146.1780 C   0  0  2  0  0  3  0  0  0  0  0  0
  160.1810  201.7620  145.0430 C   0  0  0  0  0  1  0  0  0  0  0  0
  162.4700  204.0710  145.8540 O   0  0  0  0  0  0  0  0  0  0  0  0
  161.2630  203.9590  145.7090 C   0  0  0  0  0  0  0  0  0  0  0  0
  160.4590  206.2010  145.9220 O   0  0  0  0  0  1  0  0  0  0  0  0
  160.5160  205.0970  145.0680 C   0  0  1  0  0  3  0  0  0  0  0  0
  161.1250  205.4770  143.7880 C   0  0  0  0  0  0  0  0  0  0  0  0
  161.6030  205.7780  142.7780 N   0  0  0  0  0  0  0  0  0  0  0  0
  158.9480  210.5110  155.3070 C   0  0  0  0  0  2  0  0  0  0  0  0
  157.0580  211.2620  156.6940 N   0  0  0  0  0  2  0  0  0  0  0  0
  156.4080  212.4440  157.2600 C   0  0  0  0  0  2  0  0  0  0  0  0
  158.1160  211.7010  155.7810 C   0  0  2  0  0  3  0  0  0  0  0  0
  156.7490  213.6880  155.1260 C   0  0  1  0  0  3  0  0  0  0  0  0
  155.7150  213.2400  156.1560 C   0  0  0  0  0  2  0  0  0  0  0  0
  157.5240  212.4800  154.6040 C   0  0  0  0  0  2  0  0  0  0  0  0
  156.0780  214.3630  154.0260 N   0  0  0  0  0  2  0  0  0  0  0  0
  155.1760  213.6950  153.1430 C   0  0  0  0  0  0  0  0  0  0  0  0
  154.9420  212.4610  153.2790 O   0  0  0  0  0  0  0  0  0  0  0  0
  154.7950  214.2180  150.8600 O   0  0  0  0  0  0  0  0  0  0  0  0
  154.5310  214.4530  152.0710 C   0  0  0  0  0  3  0  0  0  0  0  0
  160.0700  211.5160  152.6890 C   0  0  0  0  0  2  0  0  0  0  0  0
  159.9310  213.5010  147.9740 C   0  0  0  0  0  3  0  0  0  0  0  0
  160.3790  211.1180  151.2810 C   0  0  0  0  0  3  0  0  0  0  0  0
  160.4330  211.9620  150.2440 C   0  0  0  0  0  0  0  0  0  0  0  0
  160.7690  211.4010  148.8890 C   0  0  1  0  0  3  0  0  0  0  0  0
  159.9990  214.1170  149.2680 N   0  0  0  0  0  0  0  0  0  0  0  0
  160.2460  212.2480  147.8120 N   0  0  0  0  0  0  0  0  0  0  0  0
  160.2250  213.4290  150.3500 C   0  0  0  0  0  0  0  0  0  0  0  0
  162.8410  209.8990  148.8200 C   0  0  1  0  0  3  0  0  0  0  0  0
  162.2910  211.2720  148.7410 C   0  0  2  0  0  3  0  0  0  0  0  0
  162.8760  210.7790  150.0000 N   0  0  0  0  0  2  0  0  0  0  0  0
  161.8250  208.7860  149.0560 C   0  0  2  0  0  3  0  0  0  0  0  0
  162.4710  207.4680  148.8690 C   0  0  0  0  0  2  0  0  0  0  0  0
  161.6740  208.0490  147.8650 O   0  0  0  0  0  0  0  0  0  0  0  0
  160.2760  214.0720  151.5920 O   0  0  0  0  0  0  0  0  0  0  0  0
  159.1030  214.4470  152.3040 C   0  0  0  0  0  1  0  0  0  0  0  0
  1  4  1  0  0  0  0
  1  6  2  0  0  0  0
  3 26  1  6  0  0  0
  3  2  1  0  0  0  0
  4 38  1  6  0  0  0
  4  3  1  0  0  0  0
  5  2  1  0  0  0  0
  6  5  1  0  0  0  0
  7  8  2  0  0  0  0
  8  6  1  0  0  0  0
  9  7  1  0  0  0  0
  9 11  1  0  0  0  0
 10 12  1  0  0  0  0
 10  9  2  0  0  0  0
 12 13  2  0  0  0  0
 13 11  1  0  0  0  0
 14 12  1  0  0  0  0
 15 14  2  0  0  0  0
 16 14  1  0  0  0  0
 17 16  1  0  0  0  0
 18 19  1  6  0  0  0
 18 17  1  0  0  0  0
 21 20  2  0  0  0  0
 21 18  1  0  0  0  0
 23 21  1  0  0  0  0
 23 22  1  1  0  0  0
 24 23  1  0  0  0  0
 25 24  3  0  0  0  0
 27 28  1  0  0  0  0
 29 26  1  6  0  0  0
 29 27  1  0  0  0  0
 30 33  1  6  0  0  0
 30 31  1  0  0  0  0
 31 28  1  0  0  0  0
 32 30  1  0  0  0  0
 32 29  1  0  0  0  0
 34 35  2  0  0  0  0
 34 33  1  0  0  0  0
 36 37  2  0  0  0  0
 37 34  1  0  0  0  0
 39 43  1  0  0  0  0
 40 38  1  0  0  0  0
 41 45  1  0  0  0  0
 41 40  2  0  0  0  0
 42 44  1  6  0  0  0
 42 41  1  0  0  0  0
 43 45  2  0  0  0  0
 44 39  2  0  0  0  0
 45 52  1  0  0  0  0
 46 49  1  0  0  0  0
 46 48  1  1  0  0  0
 47 46  1  0  0  0  0
 47 42  1  0  0  0  0
 47 48  1  1  0  0  0
 49 50  1  1  0  0  0
 51 50  1  0  0  0  0
 51 49  1  0  0  0  0
 52 53  1  0  0  0  0
M  END
>  <MODEL>
2

>  <REMARK>
 VINA RESULT:      -4.3      4.080      8.064
  Name = 
  17 active torsions:
  status: ('A' for Active; 'I' for Inactive)
    1  A    between atoms: C_2  and  C_9
    2  A    between atoms: C_5  and  C_53
    3  A    between atoms: C_7  and  C_47
    4  A    between atoms: C_11  and  C_48
    5  A    between atoms: C_12  and  C_41
    6  A    between atoms: C_13  and  C_19
    7  A    between atoms: C_14  and  C_46
    8  A    between atoms: N_15  and  C_18
    9  A    between atoms: C_16  and  C_40
   10  A    between atoms: C_20  and  C_32
   11  A    between atoms: C_21  and  C_49
   12  A    between atoms: C_21  and  C_51
   13  A    between atoms: O_27  and  C_44
   14  A    between atoms: C_30  and  C_46
   15  A    between atoms: N_31  and  C_51
   16  A    between atoms: C_33  and  C_48
   17  A    between atoms: C_41  and  C_49
                            x       y       z     vdW  Elec       q    Type
                         _______ _______ _______ _____ _____    ______ ____

>  <TORSDO>
F 17

$$$$
