=
 OpenBabel11042420133D

 25 28  0  0  1  0  0  0  0  0999 V2000
  161.6900  207.0070  152.1370 C   0  0  1  0  0  0  0  0  0  0  0  0
  160.5620  207.7450  151.7190 O   0  0  0  0  0  0  0  0  0  0  0  0
  161.4180  209.8330  149.2420 N   0  0  0  0  0  1  0  0  0  0  0  0
  162.6970  207.8550  150.0930 C   0  0  1  0  0  3  0  0  0  0  0  0
  161.8140  206.7450  153.5010 O   0  0  0  0  0  1  0  0  0  0  0  0
  161.8770  205.7810  151.3180 N   0  0  0  0  0  0  0  0  0  0  0  0
  162.0080  209.2050  150.4150 C   0  0  2  0  0  3  0  0  0  0  0  0
  162.8310  206.9500  151.3440 C   0  0  2  0  0  3  0  0  0  0  0  0
  160.9760  209.0790  151.5440 C   0  0  0  0  0  2  0  0  0  0  0  0
  161.4590  204.5040  150.8470 C   0  0  0  0  0  0  0  0  0  0  0  0
  160.5230  203.1180  149.0980 C   0  0  0  0  0  3  0  0  0  0  0  0
  160.9080  204.3770  149.5690 C   0  0  0  0  0  3  0  0  0  0  0  0
  161.6270  203.3740  151.6530 C   0  0  0  0  0  3  0  0  0  0  0  0
  161.2430  202.1150  151.1810 C   0  0  0  0  0  3  0  0  0  0  0  0
  160.6900  201.9830  149.9030 C   0  0  0  0  0  0  0  0  0  0  0  0
  160.3040  200.6920  149.4340 N   0  0  0  0  0  2  0  0  0  0  0  0
  160.9310  200.1050  148.3860 O   0  0  0  0  0  1  0  0  0  0  0  0
  160.9180  207.3800  148.3920 C   0  0  0  0  0  3  0  0  0  0  0  0
  161.3110  205.9280  146.4940 C   0  0  0  0  0  3  0  0  0  0  0  0
  162.2190  207.1440  148.8500 C   0  0  0  0  0  0  0  0  0  0  0  0
  160.4630  206.7710  147.2180 C   0  0  0  0  0  3  0  0  0  0  0  0
  162.6170  205.6980  146.9390 C   0  0  0  0  0  0  0  0  0  0  0  0
  163.0670  206.2990  148.1170 C   0  0  0  0  0  3  0  0  0  0  0  0
  162.7680  204.0330  145.2930 F   0  0  0  0  0  0  0  0  0  0  0  0
  163.5140  204.7890  146.1780 C   0  0  0  0  0  2  0  0  0  0  0  0
  1  5  1  1  0  0  0
  2  1  1  0  0  0  0
  4 20  1  6  0  0  0
  4  7  1  0  0  0  0
  4  8  1  0  0  0  0
  6  1  1  0  0  0  0
  7  3  1  6  0  0  0
  7  9  1  0  0  0  0
  8  6  1  6  0  0  0
  8  1  1  0  0  0  0
  9  2  1  0  0  0  0
 10  6  1  0  0  0  0
 10 13  1  0  0  0  0
 11 12  1  0  0  0  0
 11 15  2  0  0  0  0
 12 10  2  0  0  0  0
 14 13  2  0  0  0  0
 15 14  1  0  0  0  0
 16 15  1  0  0  0  0
 17 16  1  0  0  0  0
 18 20  1  0  0  0  0
 19 22  2  0  0  0  0
 19 21  1  0  0  0  0
 21 18  2  0  0  0  0
 22 23  1  0  0  0  0
 23 20  2  0  0  0  0
 24 25  1  0  0  0  0
 25 22  1  0  0  0  0
M  END
>  <MODEL>
1

>  <REMARK>
 VINA RESULT:      -6.2      0.000      0.000
  Name = 
  4 active torsions:
  status: ('A' for Active; 'I' for Inactive)
    1  A    between atoms: C_2  and  N_18
    2  A    between atoms: N_3  and  C_21
    3  A    between atoms: C_8  and  C_10
    4  A    between atoms: C_16  and  C_24
                            x       y       z     vdW  Elec       q    Type
                         _______ _______ _______ _____ _____    ______ ____

>  <TORSDO>
F 4

$$$$
=
 OpenBabel11042420133D

 25 28  0  0  1  0  0  0  0  0999 V2000
  158.6450  212.5350  153.3400 C   0  0  1  0  0  0  0  0  0  0  0  0
  159.5920  213.4400  153.8670 O   0  0  0  0  0  0  0  0  0  0  0  0
  159.5860  213.2750  157.2140 N   0  0  0  0  0  1  0  0  0  0  0  0
  158.6230  211.6250  155.5950 C   0  0  1  0  0  3  0  0  0  0  0  0
  157.9260  212.9430  152.2180 O   0  0  0  0  0  1  0  0  0  0  0  0
  159.2240  211.1780  153.1630 N   0  0  0  0  0  0  0  0  0  0  0  0
  158.6740  213.0910  156.0950 C   0  0  2  0  0  3  0  0  0  0  0  0
  158.1200  211.5200  154.1330 C   0  0  2  0  0  3  0  0  0  0  0  0
  158.9890  214.0820  154.9660 C   0  0  0  0  0  2  0  0  0  0  0  0
  160.1400  210.2660  152.5640 C   0  0  0  0  0  0  0  0  0  0  0  0
  161.0090  208.0200  152.3280 C   0  0  0  0  0  3  0  0  0  0  0  0
  160.1290  208.9190  152.9370 C   0  0  0  0  0  3  0  0  0  0  0  0
  161.0290  210.7140  151.5830 C   0  0  0  0  0  3  0  0  0  0  0  0
  161.9090  209.8140  150.9740 C   0  0  0  0  0  3  0  0  0  0  0  0
  161.9020  208.4650  151.3440 C   0  0  0  0  0  0  0  0  0  0  0  0
  162.8050  207.5590  150.7120 N   0  0  0  0  0  2  0  0  0  0  0  0
  162.6880  207.2460  149.4000 O   0  0  0  0  0  1  0  0  0  0  0  0
  161.1060  211.3180  155.7470 C   0  0  0  0  0  3  0  0  0  0  0  0
  162.0980  209.2690  156.5700 C   0  0  0  0  0  3  0  0  0  0  0  0
  159.8280  210.7730  155.9090 C   0  0  0  0  0  0  0  0  0  0  0  0
  162.2390  210.5680  156.0730 C   0  0  0  0  0  3  0  0  0  0  0  0
  160.8230  208.7210  156.7460 C   0  0  0  0  0  0  0  0  0  0  0  0
  159.6920  209.4680  156.4110 C   0  0  0  0  0  3  0  0  0  0  0  0
  159.4970  206.7860  156.7850 F   0  0  0  0  0  0  0  0  0  0  0  0
  160.6740  207.3340  157.2600 C   0  0  0  0  0  2  0  0  0  0  0  0
  1  5  1  6  0  0  0
  1  2  1  0  0  0  0
  1  8  1  0  0  0  0
  2  9  1  0  0  0  0
  4 20  1  6  0  0  0
  4  7  1  0  0  0  0
  6  1  1  0  0  0  0
  7  3  1  1  0  0  0
  8  6  1  6  0  0  0
  8  4  1  0  0  0  0
  9  7  1  0  0  0  0
 10 12  1  0  0  0  0
 10  6  1  0  0  0  0
 11 12  2  0  0  0  0
 13 10  2  0  0  0  0
 14 15  2  0  0  0  0
 14 13  1  0  0  0  0
 15 11  1  0  0  0  0
 16 15  1  0  0  0  0
 17 16  1  0  0  0  0
 18 20  2  0  0  0  0
 18 21  1  0  0  0  0
 19 22  1  0  0  0  0
 20 23  1  0  0  0  0
 21 19  2  0  0  0  0
 22 25  1  0  0  0  0
 23 22  2  0  0  0  0
 24 25  1  0  0  0  0
M  END
>  <MODEL>
2

>  <REMARK>
 VINA RESULT:      -5.9      5.198      8.180
  Name = 
  4 active torsions:
  status: ('A' for Active; 'I' for Inactive)
    1  A    between atoms: C_2  and  N_18
    2  A    between atoms: N_3  and  C_21
    3  A    between atoms: C_8  and  C_10
    4  A    between atoms: C_16  and  C_24
                            x       y       z     vdW  Elec       q    Type
                         _______ _______ _______ _____ _____    ______ ____

>  <TORSDO>
F 4

$$$$
=
 OpenBabel11042420133D

 25 28  0  0  1  0  0  0  0  0999 V2000
  161.4240  205.1630  145.4470 C   0  0  1  0  0  0  0  0  0  0  0  0
  160.0970  204.7120  145.2790 O   0  0  0  0  0  0  0  0  0  0  0  0
  159.9510  201.3970  145.7420 N   0  0  0  0  0  1  0  0  0  0  0  0
  161.7910  202.9600  146.4070 C   0  0  1  0  0  3  0  0  0  0  0  0
  161.8670  206.1770  144.5990 O   0  0  0  0  0  1  0  0  0  0  0  0
  161.7260  205.4600  146.8720 N   0  0  0  0  0  0  0  0  0  0  0  0
  160.8860  202.4090  145.2760 C   0  0  2  0  0  3  0  0  0  0  0  0
  162.3710  204.3570  146.0700 C   0  0  2  0  0  3  0  0  0  0  0  0
  160.1510  203.5270  144.5230 C   0  0  0  0  0  2  0  0  0  0  0  0
  161.5300  206.1980  148.0740 C   0  0  0  0  0  0  0  0  0  0  0  0
  160.1330  206.8110  149.9530 C   0  0  0  0  0  3  0  0  0  0  0  0
  160.3140  206.1080  148.7580 C   0  0  0  0  0  3  0  0  0  0  0  0
  162.5640  206.9880  148.5850 C   0  0  0  0  0  3  0  0  0  0  0  0
  162.3820  207.6900  149.7800 C   0  0  0  0  0  3  0  0  0  0  0  0
  161.1680  207.6040  150.4680 C   0  0  0  0  0  0  0  0  0  0  0  0
  160.9970  208.3250  151.6870 N   0  0  0  0  0  2  0  0  0  0  0  0
  160.8200  207.6830  152.8670 O   0  0  0  0  0  1  0  0  0  0  0  0
  160.1890  201.9510  148.0500 C   0  0  0  0  0  3  0  0  0  0  0  0
  160.2910  202.4530  150.4170 C   0  0  0  0  0  3  0  0  0  0  0  0
  161.2580  202.8220  147.8120 C   0  0  0  0  0  0  0  0  0  0  0  0
  159.7030  201.7690  149.3480 C   0  0  0  0  0  3  0  0  0  0  0  0
  161.3680  203.3160  150.1880 C   0  0  0  0  0  0  0  0  0  0  0  0
  161.8460  203.5040  148.8900 C   0  0  0  0  0  3  0  0  0  0  0  0
  160.9940  204.4830  152.1890 F   0  0  0  0  0  0  0  0  0  0  0  0
  161.9820  204.0550  151.3220 C   0  0  0  0  0  2  0  0  0  0  0  0
  1  5  1  6  0  0  0
  1  8  1  0  0  0  0
  1  6  1  0  0  0  0
  2  1  1  0  0  0  0
  4 20  1  1  0  0  0
  6 10  1  0  0  0  0
  7  3  1  1  0  0  0
  7  4  1  0  0  0  0
  8  4  1  0  0  0  0
  8  6  1  1  0  0  0
  9  7  1  0  0  0  0
  9  2  1  0  0  0  0
 10 13  2  0  0  0  0
 10 12  1  0  0  0  0
 11 15  1  0  0  0  0
 12 11  2  0  0  0  0
 13 14  1  0  0  0  0
 14 15  2  0  0  0  0
 15 16  1  0  0  0  0
 16 17  1  0  0  0  0
 18 21  1  0  0  0  0
 20 18  2  0  0  0  0
 20 23  1  0  0  0  0
 21 19  2  0  0  0  0
 22 19  1  0  0  0  0
 22 25  1  0  0  0  0
 23 22  2  0  0  0  0
 25 24  1  0  0  0  0
M  END
>  <MODEL>
3

>  <REMARK>
 VINA RESULT:      -5.7      3.053      6.292
  Name = 
  4 active torsions:
  status: ('A' for Active; 'I' for Inactive)
    1  A    between atoms: C_2  and  N_18
    2  A    between atoms: N_3  and  C_21
    3  A    between atoms: C_8  and  C_10
    4  A    between atoms: C_16  and  C_24
                            x       y       z     vdW  Elec       q    Type
                         _______ _______ _______ _____ _____    ______ ____

>  <TORSDO>
F 4

$$$$
=
 OpenBabel11042420133D

 25 28  0  0  1  0  0  0  0  0999 V2000
  161.2010  204.3580  152.1780 C   0  0  1  0  0  0  0  0  0  0  0  0
  162.3440  203.7040  151.6710 O   0  0  0  0  0  0  0  0  0  0  0  0
  161.5210  201.9010  148.9690 N   0  0  0  0  0  1  0  0  0  0  0  0
  160.2000  203.7320  150.0530 C   0  0  1  0  0  3  0  0  0  0  0  0
  161.0810  204.4550  153.5640 O   0  0  0  0  0  1  0  0  0  0  0  0
  160.9770  205.6670  151.5100 N   0  0  0  0  0  0  0  0  0  0  0  0
  160.9240  202.3700  150.2100 C   0  0  2  0  0  3  0  0  0  0  0  0
  160.0530  204.4790  151.4020 C   0  0  2  0  0  3  0  0  0  0  0  0
  161.9610  202.3890  151.3420 C   0  0  0  0  0  2  0  0  0  0  0  0
  161.3600  207.0010  151.1920 C   0  0  0  0  0  0  0  0  0  0  0  0
  162.6810  208.5450  149.8770 C   0  0  0  0  0  3  0  0  0  0  0  0
  162.3260  207.2340  150.2090 C   0  0  0  0  0  3  0  0  0  0  0  0
  160.7500  208.0770  151.8420 C   0  0  0  0  0  3  0  0  0  0  0  0
  161.1040  209.3880  151.5100 C   0  0  0  0  0  3  0  0  0  0  0  0
  162.0700  209.6260  150.5270 C   0  0  0  0  0  0  0  0  0  0  0  0
  162.4210  210.9690  150.1980 N   0  0  0  0  0  2  0  0  0  0  0  0
  162.2570  211.4540  148.9440 O   0  0  0  0  0  1  0  0  0  0  0  0
  159.9870  205.8020  148.6560 C   0  0  0  0  0  3  0  0  0  0  0  0
  161.5090  206.2860  146.8360 C   0  0  0  0  0  3  0  0  0  0  0  0
  160.6510  204.5960  148.9010 C   0  0  0  0  0  0  0  0  0  0  0  0
  160.4110  206.6450  147.6240 C   0  0  0  0  0  3  0  0  0  0  0  0
  162.1860  205.0880  147.0830 C   0  0  0  0  0  0  0  0  0  0  0  0
  161.7550  204.2420  148.1080 C   0  0  0  0  0  3  0  0  0  0  0  0
  162.9010  203.9700  145.1480 F   0  0  0  0  0  0  0  0  0  0  0  0
  163.3440  204.6990  146.2350 C   0  0  0  0  0  2  0  0  0  0  0  0
  1  5  1  1  0  0  0
  2  1  1  0  0  0  0
  4 20  1  6  0  0  0
  4  7  1  0  0  0  0
  4  8  1  0  0  0  0
  6  1  1  0  0  0  0
  7  3  1  6  0  0  0
  7  9  1  0  0  0  0
  8  6  1  6  0  0  0
  8  1  1  0  0  0  0
  9  2  1  0  0  0  0
 10  6  1  0  0  0  0
 10 13  1  0  0  0  0
 11 12  1  0  0  0  0
 11 15  2  0  0  0  0
 12 10  2  0  0  0  0
 14 13  2  0  0  0  0
 15 14  1  0  0  0  0
 16 15  1  0  0  0  0
 17 16  1  0  0  0  0
 18 20  1  0  0  0  0
 19 22  2  0  0  0  0
 19 21  1  0  0  0  0
 21 18  2  0  0  0  0
 22 23  1  0  0  0  0
 23 20  2  0  0  0  0
 24 25  1  0  0  0  0
 25 22  1  0  0  0  0
M  END
>  <MODEL>
4

>  <REMARK>
 VINA RESULT:      -5.6      1.677      5.202
  Name = 
  4 active torsions:
  status: ('A' for Active; 'I' for Inactive)
    1  A    between atoms: C_2  and  N_18
    2  A    between atoms: N_3  and  C_21
    3  A    between atoms: C_8  and  C_10
    4  A    between atoms: C_16  and  C_24
                            x       y       z     vdW  Elec       q    Type
                         _______ _______ _______ _____ _____    ______ ____

>  <TORSDO>
F 4

$$$$
=
 OpenBabel11042420133D

 25 28  0  0  1  0  0  0  0  0999 V2000
  160.7870  203.3270  150.9360 C   0  0  1  0  0  0  0  0  0  0  0  0
  162.0320  202.6770  150.7910 O   0  0  0  0  0  0  0  0  0  0  0  0
  161.9560  200.6460  148.1270 N   0  0  0  0  0  1  0  0  0  0  0  0
  160.3740  202.5060  148.6850 C   0  0  1  0  0  3  0  0  0  0  0  0
  160.3150  203.5240  152.2320 O   0  0  0  0  0  1  0  0  0  0  0  0
  160.7230  204.5730  150.1270 N   0  0  0  0  0  0  0  0  0  0  0  0
  161.0540  201.1870  149.1330 C   0  0  2  0  0  3  0  0  0  0  0  0
  159.8750  203.3480  149.8860 C   0  0  2  0  0  3  0  0  0  0  0  0
  161.7660  201.3290  150.4850 C   0  0  0  0  0  2  0  0  0  0  0  0
  161.1550  205.8920  149.8070 C   0  0  0  0  0  0  0  0  0  0  0  0
  161.2060  207.7680  148.2790 C   0  0  0  0  0  3  0  0  0  0  0  0
  160.8050  206.4630  148.5800 C   0  0  0  0  0  3  0  0  0  0  0  0
  161.9030  206.6250  150.7330 C   0  0  0  0  0  3  0  0  0  0  0  0
  162.3030  207.9300  150.4310 C   0  0  0  0  0  3  0  0  0  0  0  0
  161.9560  208.5060  149.2050 C   0  0  0  0  0  0  0  0  0  0  0  0
  162.3700  209.8390  148.9120 N   0  0  0  0  0  2  0  0  0  0  0  0
  161.9670  210.8860  149.6710 O   0  0  0  0  0  1  0  0  0  0  0  0
  162.4340  203.6400  147.8160 C   0  0  0  0  0  3  0  0  0  0  0  0
  162.5040  204.6750  145.6280 C   0  0  0  0  0  3  0  0  0  0  0  0
  161.0930  203.2960  147.6180 C   0  0  0  0  0  0  0  0  0  0  0  0
  163.1380  204.3310  146.8260 C   0  0  0  0  0  3  0  0  0  0  0  0
  161.1670  204.3230  145.4180 C   0  0  0  0  0  0  0  0  0  0  0  0
  160.4620  203.6410  146.4120 C   0  0  0  0  0  3  0  0  0  0  0  0
  161.3150  205.5220  143.4060 F   0  0  0  0  0  0  0  0  0  0  0  0
  160.4880  204.7030  144.1510 C   0  0  0  0  0  2  0  0  0  0  0  0
  1  5  1  1  0  0  0
  2  1  1  0  0  0  0
  4 20  1  1  0  0  0
  4  7  1  0  0  0  0
  4  8  1  0  0  0  0
  6  1  1  0  0  0  0
  7  3  1  6  0  0  0
  7  9  1  0  0  0  0
  8  6  1  6  0  0  0
  8  1  1  0  0  0  0
  9  2  1  0  0  0  0
 10  6  1  0  0  0  0
 10 13  1  0  0  0  0
 11 12  1  0  0  0  0
 11 15  2  0  0  0  0
 12 10  2  0  0  0  0
 14 13  2  0  0  0  0
 15 14  1  0  0  0  0
 16 15  1  0  0  0  0
 16 17  1  0  0  0  0
 19 21  1  0  0  0  0
 20 18  1  0  0  0  0
 21 18  2  0  0  0  0
 22 19  2  0  0  0  0
 22 23  1  0  0  0  0
 23 20  2  0  0  0  0
 24 25  1  0  0  0  0
 25 22  1  0  0  0  0
M  END
>  <MODEL>
5

>  <REMARK>
 VINA RESULT:      -5.5      2.010      5.524
  Name = 
  4 active torsions:
  status: ('A' for Active; 'I' for Inactive)
    1  A    between atoms: C_2  and  N_18
    2  A    between atoms: N_3  and  C_21
    3  A    between atoms: C_8  and  C_10
    4  A    between atoms: C_16  and  C_24
                            x       y       z     vdW  Elec       q    Type
                         _______ _______ _______ _____ _____    ______ ____

>  <TORSDO>
F 4

$$$$
=
 OpenBabel11042420133D

 25 28  0  0  1  0  0  0  0  0999 V2000
  161.3100  209.5150  155.9320 C   0  0  1  0  0  0  0  0  0  0  0  0
  159.9540  209.2870  156.2510 O   0  0  0  0  0  0  0  0  0  0  0  0
  158.3430  212.2110  156.5410 N   0  0  0  0  0  1  0  0  0  0  0  0
  160.5660  211.7830  155.4690 C   0  0  1  0  0  3  0  0  0  0  0  0
  162.2550  208.6720  156.5140 O   0  0  0  0  0  1  0  0  0  0  0  0
  161.5130  209.6460  154.4650 N   0  0  0  0  0  0  0  0  0  0  0  0
  159.6760  211.6580  156.7310 C   0  0  2  0  0  3  0  0  0  0  0  0
  161.7270  210.7570  155.4630 C   0  0  2  0  0  3  0  0  0  0  0  0
  159.5990  210.2140  157.2490 C   0  0  0  0  0  2  0  0  0  0  0  0
  161.4890  209.1280  153.1380 C   0  0  0  0  0  0  0  0  0  0  0  0
  161.9520  209.3910  150.7770 C   0  0  0  0  0  3  0  0  0  0  0  0
  161.9500  209.9110  152.0760 C   0  0  0  0  0  3  0  0  0  0  0  0
  161.0330  207.8280  152.9040 C   0  0  0  0  0  3  0  0  0  0  0  0
  161.0360  207.3090  151.6060 C   0  0  0  0  0  3  0  0  0  0  0  0
  161.4960  208.0880  150.5390 C   0  0  0  0  0  0  0  0  0  0  0  0
  161.4940  207.5440  149.2210 N   0  0  0  0  0  2  0  0  0  0  0  0
  160.4660  206.7850  148.7710 O   0  0  0  0  0  1  0  0  0  0  0  0
  158.6650  211.1850  153.9480 C   0  0  0  0  0  3  0  0  0  0  0  0
  158.3950  212.2050  151.7680 C   0  0  0  0  0  3  0  0  0  0  0  0
  159.8390  211.9180  154.1530 C   0  0  0  0  0  0  0  0  0  0  0  0
  157.9460  211.3240  152.7570 C   0  0  0  0  0  3  0  0  0  0  0  0
  159.5600  212.9500  151.9720 C   0  0  0  0  0  0  0  0  0  0  0  0
  160.2830  212.8030  153.1580 C   0  0  0  0  0  3  0  0  0  0  0  0
  160.3780  213.1550  149.7820 F   0  0  0  0  0  0  0  0  0  0  0  0
  160.0460  213.8750  150.9140 C   0  0  0  0  0  2  0  0  0  0  0  0
  1  2  1  0  0  0  0
  1  5  1  1  0  0  0
  2  9  1  0  0  0  0
  4 20  1  6  0  0  0
  4  7  1  0  0  0  0
  6  1  1  0  0  0  0
  7  3  1  6  0  0  0
  7  9  1  0  0  0  0
  8  6  1  6  0  0  0
  8  4  1  0  0  0  0
  8  1  1  0  0  0  0
 10  6  1  0  0  0  0
 11 12  1  0  0  0  0
 12 10  2  0  0  0  0
 13 10  1  0  0  0  0
 14 13  2  0  0  0  0
 15 11  2  0  0  0  0
 15 14  1  0  0  0  0
 16 15  1  0  0  0  0
 17 16  1  0  0  0  0
 18 20  1  0  0  0  0
 19 22  2  0  0  0  0
 19 21  1  0  0  0  0
 21 18  2  0  0  0  0
 22 23  1  0  0  0  0
 23 20  2  0  0  0  0
 24 25  1  0  0  0  0
 25 22  1  0  0  0  0
M  END
>  <MODEL>
6

>  <REMARK>
 VINA RESULT:      -5.5      4.522      7.037
  Name = 
  4 active torsions:
  status: ('A' for Active; 'I' for Inactive)
    1  A    between atoms: C_2  and  N_18
    2  A    between atoms: N_3  and  C_21
    3  A    between atoms: C_8  and  C_10
    4  A    between atoms: C_16  and  C_24
                            x       y       z     vdW  Elec       q    Type
                         _______ _______ _______ _____ _____    ______ ____

>  <TORSDO>
F 4

$$$$
=
 OpenBabel11042420133D

 25 28  0  0  1  0  0  0  0  0999 V2000
  161.7510  207.5580  149.8020 C   0  0  1  0  0  0  0  0  0  0  0  0
  162.9220  206.9090  150.2490 O   0  0  0  0  0  0  0  0  0  0  0  0
  162.1170  204.3930  152.3100 N   0  0  0  0  0  1  0  0  0  0  0  0
  160.6180  205.6090  150.7140 C   0  0  1  0  0  3  0  0  0  0  0  0
  161.8000  208.9440  149.6600 O   0  0  0  0  0  1  0  0  0  0  0  0
  161.1860  206.8970  148.5950 N   0  0  0  0  0  0  0  0  0  0  0  0
  161.6110  205.6950  151.9010 C   0  0  2  0  0  3  0  0  0  0  0  0
  160.5090  206.9480  149.9420 C   0  0  2  0  0  3  0  0  0  0  0  0
  162.7650  206.6680  151.6270 C   0  0  0  0  0  2  0  0  0  0  0  0
  161.2530  206.4970  147.2300 C   0  0  0  0  0  0  0  0  0  0  0  0
  162.5450  205.7420  145.3280 C   0  0  0  0  0  3  0  0  0  0  0  0
  162.4840  206.1620  146.6600 C   0  0  0  0  0  3  0  0  0  0  0  0
  160.0830  206.4130  146.4690 C   0  0  0  0  0  3  0  0  0  0  0  0
  160.1440  205.9930  145.1370 C   0  0  0  0  0  3  0  0  0  0  0  0
  161.3740  205.6560  144.5620 C   0  0  0  0  0  0  0  0  0  0  0  0
  161.4200  205.2280  143.2020 N   0  0  0  0  0  2  0  0  0  0  0  0
  161.6430  206.1040  142.1940 O   0  0  0  0  0  1  0  0  0  0  0  0
  161.7090  204.3560  148.8370 C   0  0  0  0  0  3  0  0  0  0  0  0
  161.0540  202.1000  148.2490 C   0  0  0  0  0  3  0  0  0  0  0  0
  160.7320  204.3850  149.8390 C   0  0  0  0  0  0  0  0  0  0  0  0
  161.8680  203.2180  148.0410 C   0  0  0  0  0  3  0  0  0  0  0  0
  160.0840  202.1180  149.2560 C   0  0  0  0  0  0  0  0  0  0  0  0
  159.9190  203.2590  150.0450 C   0  0  0  0  0  3  0  0  0  0  0  0
  157.9140  201.2420  149.0900 F   0  0  0  0  0  0  0  0  0  0  0  0
  159.2070  200.9350  149.4670 C   0  0  0  0  0  2  0  0  0  0  0  0
  1  5  1  1  0  0  0
  1  8  1  0  0  0  0
  1  2  1  0  0  0  0
  2  9  1  0  0  0  0
  4 20  1  6  0  0  0
  4  7  1  0  0  0  0
  6  1  1  0  0  0  0
  7  3  1  6  0  0  0
  8  6  1  6  0  0  0
  8  4  1  0  0  0  0
  9  7  1  0  0  0  0
 10  6  1  0  0  0  0
 11 12  2  0  0  0  0
 12 10  1  0  0  0  0
 13 10  2  0  0  0  0
 14 13  1  0  0  0  0
 15 14  2  0  0  0  0
 15 11  1  0  0  0  0
 16 15  1  0  0  0  0
 17 16  1  0  0  0  0
 18 20  1  0  0  0  0
 19 22  2  0  0  0  0
 20 23  2  0  0  0  0
 21 19  1  0  0  0  0
 21 18  2  0  0  0  0
 22 25  1  0  0  0  0
 22 23  1  0  0  0  0
 24 25  1  0  0  0  0
M  END
>  <MODEL>
7

>  <REMARK>
 VINA RESULT:      -5.3      3.079      5.060
  Name = 
  4 active torsions:
  status: ('A' for Active; 'I' for Inactive)
    1  A    between atoms: C_2  and  N_18
    2  A    between atoms: N_3  and  C_21
    3  A    between atoms: C_8  and  C_10
    4  A    between atoms: C_16  and  C_24
                            x       y       z     vdW  Elec       q    Type
                         _______ _______ _______ _____ _____    ______ ____

>  <TORSDO>
F 4

$$$$
=
 OpenBabel11042420133D

 25 28  0  0  1  0  0  0  0  0999 V2000
  161.2060  205.7690  150.3410 C   0  0  1  0  0  0  0  0  0  0  0  0
  162.3790  205.1410  150.8150 O   0  0  0  0  0  0  0  0  0  0  0  0
  161.6420  202.0910  151.9920 N   0  0  0  0  0  1  0  0  0  0  0  0
  160.2400  203.5450  150.5110 C   0  0  1  0  0  3  0  0  0  0  0  0
  161.0790  207.1390  150.5660 O   0  0  0  0  0  1  0  0  0  0  0  0
  160.9280  205.4120  148.9250 N   0  0  0  0  0  0  0  0  0  0  0  0
  161.0220  203.3990  151.8410 C   0  0  2  0  0  3  0  0  0  0  0  0
  160.0570  205.0260  150.0950 C   0  0  2  0  0  3  0  0  0  0  0  0
  162.0540  204.5190  152.0350 C   0  0  0  0  0  2  0  0  0  0  0  0
  161.2530  205.4080  147.5390 C   0  0  0  0  0  0  0  0  0  0  0  0
  162.7650  204.8210  145.7420 C   0  0  0  0  0  3  0  0  0  0  0  0
  162.4590  204.8490  147.1060 C   0  0  0  0  0  3  0  0  0  0  0  0
  160.3530  205.9370  146.6090 C   0  0  0  0  0  3  0  0  0  0  0  0
  160.6590  205.9080  145.2450 C   0  0  0  0  0  3  0  0  0  0  0  0
  161.8640  205.3500  144.8070 C   0  0  0  0  0  0  0  0  0  0  0  0
  162.1620  205.3260  143.4120 N   0  0  0  0  0  2  0  0  0  0  0  0
  161.4790  206.0960  142.5320 O   0  0  0  0  0  1  0  0  0  0  0  0
  161.5880  201.6140  149.6530 C   0  0  0  0  0  3  0  0  0  0  0  0
  161.3900  200.8230  147.3720 C   0  0  0  0  0  3  0  0  0  0  0  0
  160.6550  202.6240  149.3900 C   0  0  0  0  0  0  0  0  0  0  0  0
  161.9580  200.7170  148.6460 C   0  0  0  0  0  3  0  0  0  0  0  0
  160.4480  201.8210  147.1070 C   0  0  0  0  0  0  0  0  0  0  0  0
  160.0860  202.7230  148.1110 C   0  0  0  0  0  3  0  0  0  0  0  0
  160.8140  202.3970  144.8620 F   0  0  0  0  0  0  0  0  0  0  0  0
  159.8560  201.9430  145.7480 C   0  0  0  0  0  2  0  0  0  0  0  0
  1  5  1  1  0  0  0
  1  2  1  0  0  0  0
  2  9  1  0  0  0  0
  4 20  1  6  0  0  0
  4  7  1  0  0  0  0
  6  1  1  0  0  0  0
  7  3  1  6  0  0  0
  7  9  1  0  0  0  0
  8  6  1  6  0  0  0
  8  1  1  0  0  0  0
  8  4  1  0  0  0  0
 10  6  1  0  0  0  0
 11 12  2  0  0  0  0
 12 10  1  0  0  0  0
 13 10  2  0  0  0  0
 14 13  1  0  0  0  0
 15 14  2  0  0  0  0
 15 11  1  0  0  0  0
 16 15  1  0  0  0  0
 17 16  1  0  0  0  0
 19 21  1  0  0  0  0
 20 18  1  0  0  0  0
 21 18  2  0  0  0  0
 22 19  2  0  0  0  0
 22 23  1  0  0  0  0
 23 20  2  0  0  0  0
 24 25  1  0  0  0  0
 25 22  1  0  0  0  0
M  END
>  <MODEL>
8

>  <REMARK>
 VINA RESULT:      -5.3      2.914      5.238
  Name = 
  4 active torsions:
  status: ('A' for Active; 'I' for Inactive)
    1  A    between atoms: C_2  and  N_18
    2  A    between atoms: N_3  and  C_21
    3  A    between atoms: C_8  and  C_10
    4  A    between atoms: C_16  and  C_24
                            x       y       z     vdW  Elec       q    Type
                         _______ _______ _______ _____ _____    ______ ____

>  <TORSDO>
F 4

$$$$
=
 OpenBabel11042420133D

 25 28  0  0  1  0  0  0  0  0999 V2000
  161.4310  209.3830  152.9380 C   0  0  1  0  0  0  0  0  0  0  0  0
  160.4520  208.4670  153.3780 O   0  0  0  0  0  0  0  0  0  0  0  0
  160.3010  208.4780  156.7250 N   0  0  0  0  0  1  0  0  0  0  0  0
  161.3560  210.1890  155.2310 C   0  0  1  0  0  3  0  0  0  0  0  0
  162.1990  209.0190  151.8330 O   0  0  0  0  0  1  0  0  0  0  0  0
  160.8740  210.7550  152.7970 N   0  0  0  0  0  0  0  0  0  0  0  0
  161.2670  208.7020  155.6600 C   0  0  2  0  0  3  0  0  0  0  0  0
  161.9280  210.3550  153.8000 C   0  0  2  0  0  3  0  0  0  0  0  0
  160.9960  207.7680  154.4720 C   0  0  0  0  0  2  0  0  0  0  0  0
  159.9960  211.7030  152.1990 C   0  0  0  0  0  0  0  0  0  0  0  0
  159.6260  213.5440  150.6720 C   0  0  0  0  0  3  0  0  0  0  0  0
  160.4930  212.6310  151.2800 C   0  0  0  0  0  3  0  0  0  0  0  0
  158.6330  211.6860  152.5100 C   0  0  0  0  0  3  0  0  0  0  0  0
  157.7660  212.5990  151.9010 C   0  0  0  0  0  3  0  0  0  0  0  0
  158.2590  213.5290  150.9810 C   0  0  0  0  0  0  0  0  0  0  0  0
  157.3620  214.4530  150.3670 N   0  0  0  0  0  2  0  0  0  0  0  0
  156.1570  214.0560  149.8920 O   0  0  0  0  0  1  0  0  0  0  0  0
  160.3210  212.4040  155.7870 C   0  0  0  0  0  3  0  0  0  0  0  0
  157.9250  212.6880  155.9870 C   0  0  0  0  0  3  0  0  0  0  0  0
  160.1450  211.0400  155.5270 C   0  0  0  0  0  0  0  0  0  0  0  0
  159.2150  213.2260  156.0200 C   0  0  0  0  0  3  0  0  0  0  0  0
  157.7400  211.3280  155.7150 C   0  0  0  0  0  0  0  0  0  0  0  0
  158.8470  210.5060  155.4920 C   0  0  0  0  0  3  0  0  0  0  0  0
  155.7870  210.9800  154.4620 F   0  0  0  0  0  0  0  0  0  0  0  0
  156.3690  210.7530  155.6950 C   0  0  0  0  0  2  0  0  0  0  0  0
  1  5  1  6  0  0  0
  1  2  1  0  0  0  0
  1  8  1  0  0  0  0
  2  9  1  0  0  0  0
  4 20  1  6  0  0  0
  4  7  1  0  0  0  0
  6  1  1  0  0  0  0
  7  3  1  1  0  0  0
  8  6  1  6  0  0  0
  8  4  1  0  0  0  0
  9  7  1  0  0  0  0
 10 13  1  0  0  0  0
 10  6  1  0  0  0  0
 11 15  2  0  0  0  0
 11 12  1  0  0  0  0
 12 10  2  0  0  0  0
 14 13  2  0  0  0  0
 15 14  1  0  0  0  0
 16 15  1  0  0  0  0
 17 16  1  0  0  0  0
 18 21  1  0  0  0  0
 19 21  2  0  0  0  0
 20 18  2  0  0  0  0
 22 19  1  0  0  0  0
 23 20  1  0  0  0  0
 23 22  2  0  0  0  0
 24 25  1  0  0  0  0
 25 22  1  0  0  0  0
M  END
>  <MODEL>
9

>  <REMARK>
 VINA RESULT:      -5.1      6.352      9.355
  Name = 
  4 active torsions:
  status: ('A' for Active; 'I' for Inactive)
    1  A    between atoms: C_2  and  N_18
    2  A    between atoms: N_3  and  C_21
    3  A    between atoms: C_8  and  C_10
    4  A    between atoms: C_16  and  C_24
                            x       y       z     vdW  Elec       q    Type
                         _______ _______ _______ _____ _____    ______ ____

>  <TORSDO>
F 4

$$$$
