=
 OpenBabel11042421543D

 47 49  0  0  1  0  0  0  0  0999 V2000
  160.5620  212.1870  150.6350 C   0  0  0  0  0  0  0  0  0  0  0  0
  160.7950  213.4660  148.5690 C   0  0  0  0  0  0  0  0  0  0  0  0
  159.4230  214.3170  150.3880 C   0  0  0  0  0  3  0  0  0  0  0  0
  159.9520  214.4530  149.1050 C   0  0  0  0  0  3  0  0  0  0  0  0
  161.1000  212.3230  149.3380 C   0  0  0  0  0  0  0  0  0  0  0  0
  159.7270  213.1900  151.1490 C   0  0  0  0  0  3  0  0  0  0  0  0
  160.2350  210.7540  152.4900 N   0  0  0  0  0  0  0  0  0  0  0  0
  160.8680  211.0270  151.4190 N   0  0  0  0  0  0  0  0  0  0  0  0
  160.4880  208.3640  155.3610 C   0  0  0  0  0  3  0  0  0  0  0  0
  160.1810  209.5090  154.6220 C   0  0  0  0  0  3  0  0  0  0  0  0
  160.5400  209.5930  153.2670 C   0  0  0  0  0  0  0  0  0  0  0  0
  161.5220  207.3730  153.4040 C   0  0  0  0  0  0  0  0  0  0  0  0
  161.1550  207.2960  154.7520 C   0  0  0  0  0  3  0  0  0  0  0  0
  161.2060  208.5200  152.6610 C   0  0  0  0  0  3  0  0  0  0  0  0
  162.2090  206.2080  152.7680 C   0  0  2  0  0  3  0  0  0  0  0  0
  162.7020  206.5640  151.5110 O   0  0  0  0  0  1  0  0  0  0  0  0
  161.2510  205.0290  152.6410 C   0  0  0  0  0  2  0  0  0  0  0  0
  160.7740  203.3280  150.9660 N   0  0  0  0  0  1  0  0  0  0  0  0
  160.9040  204.7580  151.1860 C   0  0  0  0  0  2  0  0  0  0  0  0
  161.3560  213.6350  147.1820 C   0  0  2  0  0  3  0  0  0  0  0  0
  160.4910  213.5970  144.8890 O   0  0  0  0  0  0  0  0  0  0  0  0
  159.1150  212.6180  146.5730 C   0  0  0  0  0  2  0  0  0  0  0  0
  158.3590  212.5940  145.2900 C   0  0  0  0  0  2  0  0  0  0  0  0
  159.1710  213.5110  144.4020 C   0  0  2  0  0  3  0  0  0  0  0  0
  160.5220  212.9040  146.1140 C   0  0  2  0  0  3  0  0  0  0  0  0
  159.1860  213.0010  143.0370 N   0  0  0  0  0  2  0  0  0  0  0  0
  160.1100  211.8770  142.9930 C   0  0  0  0  0  2  0  0  0  0  0  0
  161.4870  210.9640  141.2750 O   0  0  0  0  0  0  0  0  0  0  0  0
  161.0090  211.9990  141.8100 C   0  0  0  0  0  0  0  0  0  0  0  0
  161.3180  213.2560  141.2960 O   0  0  0  0  0  1  0  0  0  0  0  0
  163.4470  213.3930  145.7190 C   0  0  0  0  0  1  0  0  0  0  0  0
  162.8840  213.4510  147.1320 C   0  0  1  0  0  3  0  0  0  0  0  0
  163.5280  214.4530  147.8620 O   0  0  0  0  0  1  0  0  0  0  0  0
  162.0100  211.2560  148.8000 C   0  0  0  0  0  2  0  0  0  0  0  0
  161.7350  209.9250  149.4850 C   0  0  0  0  0  2  0  0  0  0  0  0
  160.5490  207.3410  149.2760 O   0  0  0  0  0  0  0  0  0  0  0  0
  161.5780  207.5660  148.5810 C   0  0  0  0  0  0  0  0  0  0  0  0
  162.0790  206.5670  147.6940 N   0  0  0  0  0  2  0  0  0  0  0  0
  162.2470  208.8300  148.6700 N   0  0  0  0  0  2  0  0  0  0  0  0
  161.4530  205.2540  147.5760 C   0  0  0  0  0  2  0  0  0  0  0  0
  161.9350  204.5250  146.3220 C   0  0  1  0  0  0  0  0  0  0  0  0
  163.2720  204.8390  146.0780 O   0  0  0  0  0  1  0  0  0  0  0  0
  161.7920  203.0210  146.4870 C   0  0  0  0  0  1  0  0  0  0  0  0
  160.0050  203.7720  144.3300 O   0  0  0  0  0  1  0  0  0  0  0  0
  159.9030  206.3250  145.3740 O   0  0  0  0  0  1  0  0  0  0  0  0
  160.9320  205.0680  144.9010 P   0  0  0  0  0  0  0  0  0  0  0  0
  161.8420  205.5530  143.7950 O   0  0  0  0  0  0  0  0  0  0  0  0
  1  6  1  0  0  0  0
  1  8  1  0  0  0  0
  2  4  2  0  0  0  0
  2  5  1  0  0  0  0
  3  6  2  0  0  0  0
  4  3  1  0  0  0  0
  5  1  2  0  0  0  0
  7 11  1  0  0  0  0
  8  7  2  0  0  0  0
 10  9  2  0  0  0  0
 11 10  1  0  0  0  0
 12 13  2  0  0  0  0
 13  9  1  0  0  0  0
 14 11  2  0  0  0  0
 14 12  1  0  0  0  0
 15 16  1  6  0  0  0
 15 12  1  0  0  0  0
 17 15  1  0  0  0  0
 18 19  1  0  0  0  0
 19 17  1  0  0  0  0
 20 32  1  1  0  0  0
 20  2  1  0  0  0  0
 21 25  1  0  0  0  0
 23 22  1  0  0  0  0
 24 26  1  6  0  0  0
 24 21  1  0  0  0  0
 24 23  1  0  0  0  0
 25 22  1  0  0  0  0
 25 20  1  1  0  0  0
 27 26  1  0  0  0  0
 28 29  2  0  0  0  0
 29 27  1  0  0  0  0
 30 29  1  0  0  0  0
 32 31  1  6  0  0  0
 32 33  1  0  0  0  0
 34  5  1  0  0  0  0
 34 35  1  0  0  0  0
 37 39  1  0  0  0  0
 37 36  2  0  0  0  0
 38 37  1  0  0  0  0
 39 35  1  0  0  0  0
 40 38  1  0  0  0  0
 41 43  1  1  0  0  0
 41 40  1  0  0  0  0
 42 41  1  0  0  0  0
 44 46  1  0  0  0  0
 46 45  1  0  0  0  0
 46 41  1  0  0  0  0
 47 46  2  0  0  0  0
M  END
>  <MODEL>
1

>  <REMARK>
 VINA RESULT:      -6.7      0.000      0.000
  Name = 
  17 active torsions:
  status: ('A' for Active; 'I' for Inactive)
    1  A    between atoms: C_1  and  P_25
    2  A    between atoms: C_1  and  C_39
    3  A    between atoms: N_4  and  C_34
    4  A    between atoms: C_7  and  N_35
    5  A    between atoms: C_10  and  C_24
    6  A    between atoms: C_15  and  C_29
    7  A    between atoms: C_17  and  C_29
    8  A    between atoms: C_17  and  N_42
    9  A    between atoms: C_19  and  C_37
   10  A    between atoms: C_19  and  C_41
   11  A    between atoms: C_21  and  N_33
   12  A    between atoms: C_22  and  C_46
   13  A    between atoms: C_24  and  C_28
   14  A    between atoms: C_24  and  C_32
   15  A    between atoms: C_26  and  C_37
   16  A    between atoms: N_33  and  C_46
   17  A    between atoms: N_36  and  C_39
                            x       y       z     vdW  Elec       q    Type
                         _______ _______ _______ _____ _____    ______ ____

>  <TORSDO>
F 17

$$$$
=
 OpenBabel11042421543D

 47 49  0  0  1  0  0  0  0  0999 V2000
  161.2000  206.7860  152.8450 C   0  0  0  0  0  0  0  0  0  0  0  0
  161.0410  205.4510  150.8090 C   0  0  0  0  0  0  0  0  0  0  0  0
  161.2060  204.3610  152.9770 C   0  0  0  0  0  3  0  0  0  0  0  0
  161.1020  204.2840  151.5880 C   0  0  0  0  0  3  0  0  0  0  0  0
  161.0930  206.7110  151.4410 C   0  0  0  0  0  0  0  0  0  0  0  0
  161.2540  205.6060  153.6020 C   0  0  0  0  0  3  0  0  0  0  0  0
  160.5360  208.3350  154.5070 N   0  0  0  0  0  0  0  0  0  0  0  0
  161.2560  208.0630  153.4920 N   0  0  0  0  0  0  0  0  0  0  0  0
  161.4010  211.0540  156.9310 C   0  0  0  0  0  3  0  0  0  0  0  0
  161.3540  209.7990  156.3200 C   0  0  0  0  0  3  0  0  0  0  0  0
  160.5980  209.6100  155.1510 C   0  0  0  0  0  0  0  0  0  0  0  0
  159.9330  211.9480  155.2200 C   0  0  0  0  0  0  0  0  0  0  0  0
  160.6930  212.1280  156.3800 C   0  0  0  0  0  3  0  0  0  0  0  0
  159.8930  210.6890  154.6030 C   0  0  0  0  0  3  0  0  0  0  0  0
  159.2080  213.1170  154.6330 C   0  0  2  0  0  3  0  0  0  0  0  0
  159.2460  214.2000  155.5130 O   0  0  0  0  0  1  0  0  0  0  0  0
  157.7640  212.7440  154.3200 C   0  0  0  0  0  2  0  0  0  0  0  0
  155.6590  213.5280  153.3790 N   0  0  0  0  0  1  0  0  0  0  0  0
  156.9930  213.9400  153.7840 C   0  0  0  0  0  2  0  0  0  0  0  0
  160.9280  205.3430  149.3110 C   0  0  2  0  0  3  0  0  0  0  0  0
  160.8080  203.6620  147.5310 O   0  0  0  0  0  0  0  0  0  0  0  0
  161.0960  202.8520  149.7560 C   0  0  0  0  0  2  0  0  0  0  0  0
  160.9320  201.6770  148.8560 C   0  0  0  0  0  2  0  0  0  0  0  0
  160.4410  202.3020  147.5690 C   0  0  2  0  0  3  0  0  0  0  0  0
  161.3770  203.9690  148.7820 C   0  0  2  0  0  3  0  0  0  0  0  0
  161.0150  201.6080  146.4240 N   0  0  0  0  0  2  0  0  0  0  0  0
  160.4150  202.1660  145.2200 C   0  0  0  0  0  2  0  0  0  0  0  0
  162.2390  203.6940  145.0910 O   0  0  0  0  0  1  0  0  0  0  0  0
  161.0070  203.5020  144.9240 C   0  0  0  0  0  0  0  0  0  0  0  0
  160.1960  204.5360  144.4620 O   0  0  0  0  0  0  0  0  0  0  0  0
  162.8950  206.4410  148.0890 C   0  0  0  0  0  1  0  0  0  0  0  0
  161.4630  206.5890  148.5820 C   0  0  1  0  0  3  0  0  0  0  0  0
  160.6260  206.9400  147.5210 O   0  0  0  0  0  1  0  0  0  0  0  0
  161.0160  207.9770  150.6370 C   0  0  0  0  0  2  0  0  0  0  0  0
  162.2650  208.8200  150.8480 C   0  0  0  0  0  2  0  0  0  0  0  0
  162.4840  209.9720  148.2500 O   0  0  0  0  0  0  0  0  0  0  0  0
  162.0800  210.7180  149.1830 C   0  0  0  0  0  0  0  0  0  0  0  0
  161.7060  212.0680  148.9140 N   0  0  0  0  0  2  0  0  0  0  0  0
  161.9870  210.2130  150.5220 N   0  0  0  0  0  2  0  0  0  0  0  0
  161.7980  212.6440  147.5760 C   0  0  0  0  0  2  0  0  0  0  0  0
  160.4270  213.1000  147.0770 C   0  0  1  0  0  0  0  0  0  0  0  0
  159.4730  212.1230  147.3610 O   0  0  0  0  0  1  0  0  0  0  0  0
  160.0240  214.4070  147.7390 C   0  0  0  0  0  1  0  0  0  0  0  0
  160.2410  211.8680  144.4880 O   0  0  0  0  0  0  0  0  0  0  0  0
  159.3240  214.4530  144.7930 O   0  0  0  0  0  1  0  0  0  0  0  0
  160.5070  213.3420  145.2740 P   0  0  0  0  0  0  0  0  0  0  0  0
  161.8730  213.8680  144.8940 O   0  0  0  0  0  1  0  0  0  0  0  0
  1  8  1  0  0  0  0
  1  6  1  0  0  0  0
  2  5  1  0  0  0  0
  2  4  2  0  0  0  0
  3  6  2  0  0  0  0
  4  3  1  0  0  0  0
  5  1  2  0  0  0  0
  7 11  1  0  0  0  0
  8  7  2  0  0  0  0
 10  9  2  0  0  0  0
 11 10  1  0  0  0  0
 12 13  2  0  0  0  0
 13  9  1  0  0  0  0
 14 11  2  0  0  0  0
 14 12  1  0  0  0  0
 15 12  1  0  0  0  0
 15 16  1  1  0  0  0
 17 15  1  0  0  0  0
 18 19  1  0  0  0  0
 19 17  1  0  0  0  0
 20 32  1  6  0  0  0
 20  2  1  0  0  0  0
 21 24  1  0  0  0  0
 21 25  1  0  0  0  0
 23 22  1  0  0  0  0
 24 26  1  6  0  0  0
 24 23  1  0  0  0  0
 25 20  1  1  0  0  0
 25 22  1  0  0  0  0
 27 26  1  0  0  0  0
 29 28  1  0  0  0  0
 29 27  1  0  0  0  0
 30 29  2  0  0  0  0
 32 31  1  6  0  0  0
 33 32  1  0  0  0  0
 34 35  1  0  0  0  0
 34  5  1  0  0  0  0
 36 37  2  0  0  0  0
 37 39  1  0  0  0  0
 38 37  1  0  0  0  0
 39 35  1  0  0  0  0
 40 38  1  0  0  0  0
 41 42  1  0  0  0  0
 41 40  1  0  0  0  0
 41 43  1  1  0  0  0
 44 46  2  0  0  0  0
 45 46  1  0  0  0  0
 46 41  1  0  0  0  0
 47 46  1  0  0  0  0
M  END
>  <MODEL>
2

>  <REMARK>
 VINA RESULT:      -6.0      2.924      7.965
  Name = 
  17 active torsions:
  status: ('A' for Active; 'I' for Inactive)
    1  A    between atoms: C_1  and  P_25
    2  A    between atoms: C_1  and  C_39
    3  A    between atoms: N_4  and  C_34
    4  A    between atoms: C_7  and  N_35
    5  A    between atoms: C_10  and  C_24
    6  A    between atoms: C_15  and  C_29
    7  A    between atoms: C_17  and  C_29
    8  A    between atoms: C_17  and  N_42
    9  A    between atoms: C_19  and  C_37
   10  A    between atoms: C_19  and  C_41
   11  A    between atoms: C_21  and  N_33
   12  A    between atoms: C_22  and  C_46
   13  A    between atoms: C_24  and  C_28
   14  A    between atoms: C_24  and  C_32
   15  A    between atoms: C_26  and  C_37
   16  A    between atoms: N_33  and  C_46
   17  A    between atoms: N_36  and  C_39
                            x       y       z     vdW  Elec       q    Type
                         _______ _______ _______ _____ _____    ______ ____

>  <TORSDO>
F 17

$$$$
=
 OpenBabel11042421543D

 47 49  0  0  1  0  0  0  0  0999 V2000
  160.7150  206.6940  154.2210 C   0  0  0  0  0  0  0  0  0  0  0  0
  160.5030  209.0980  154.5820 C   0  0  0  0  0  0  0  0  0  0  0  0
  159.4780  207.5330  156.1350 C   0  0  0  0  0  3  0  0  0  0  0  0
  159.7460  208.8420  155.7360 C   0  0  0  0  0  3  0  0  0  0  0  0
  160.9890  208.0170  153.8170 C   0  0  0  0  0  0  0  0  0  0  0  0
  159.9610  206.4640  155.3820 C   0  0  0  0  0  3  0  0  0  0  0  0
  160.4300  204.8830  152.7240 N   0  0  0  0  0  0  0  0  0  0  0  0
  161.2030  205.5920  153.4460 N   0  0  0  0  0  0  0  0  0  0  0  0
  162.5560  202.0360  151.5440 C   0  0  0  0  0  3  0  0  0  0  0  0
  162.0950  203.1060  152.3150 C   0  0  0  0  0  3  0  0  0  0  0  0
  160.9220  203.7870  151.9490 C   0  0  0  0  0  0  0  0  0  0  0  0
  160.6830  202.3160  150.0280 C   0  0  0  0  0  0  0  0  0  0  0  0
  161.8490  201.6400  150.4020 C   0  0  0  0  0  3  0  0  0  0  0  0
  160.2180  203.3850  150.8080 C   0  0  0  0  0  3  0  0  0  0  0  0
  159.9300  201.8570  148.8210 C   0  0  2  0  0  3  0  0  0  0  0  0
  158.7010  201.3130  149.1960 O   0  0  0  0  0  1  0  0  0  0  0  0
  160.7450  200.8290  148.0440 C   0  0  0  0  0  2  0  0  0  0  0  0
  160.9050  199.9000  145.7990 N   0  0  0  0  0  1  0  0  0  0  0  0
  160.7300  201.1300  146.5540 C   0  0  0  0  0  2  0  0  0  0  0  0
  160.7820  210.5200  154.1710 C   0  0  2  0  0  3  0  0  0  0  0  0
  160.8480  211.8770  152.1310 O   0  0  0  0  0  0  0  0  0  0  0  0
  158.6910  211.3080  152.9730 C   0  0  0  0  0  2  0  0  0  0  0  0
  158.5050  212.2210  151.8120 C   0  0  0  0  0  2  0  0  0  0  0  0
  159.8990  212.7610  151.5780 C   0  0  2  0  0  3  0  0  0  0  0  0
  160.1300  210.8850  152.8250 C   0  0  2  0  0  3  0  0  0  0  0  0
  160.1450  212.9130  150.1510 N   0  0  0  0  0  2  0  0  0  0  0  0
  161.2570  212.0430  149.7960 C   0  0  0  0  0  2  0  0  0  0  0  0
  160.8900  212.0400  147.4420 O   0  0  0  0  0  0  0  0  0  0  0  0
  161.6790  212.2960  148.3890 C   0  0  0  0  0  0  0  0  0  0  0  0
  162.9420  212.8190  148.1230 O   0  0  0  0  0  1  0  0  0  0  0  0
  162.7990  210.5770  155.7510 C   0  0  0  0  0  1  0  0  0  0  0  0
  162.2550  210.9200  154.3730 C   0  0  1  0  0  3  0  0  0  0  0  0
  163.0620  210.3520  153.3850 O   0  0  0  0  0  1  0  0  0  0  0  0
  161.8130  208.2570  152.5840 C   0  0  0  0  0  2  0  0  0  0  0  0
  160.9160  208.4110  151.3640 C   0  0  0  0  0  2  0  0  0  0  0  0
  161.6840  208.6770  148.6320 O   0  0  0  0  0  0  0  0  0  0  0  0
  161.5590  207.5080  149.0880 C   0  0  0  0  0  0  0  0  0  0  0  0
  161.8450  206.3800  148.2640 N   0  0  0  0  0  2  0  0  0  0  0  0
  161.1350  207.3030  150.4430 N   0  0  0  0  0  2  0  0  0  0  0  0
  162.2600  206.5250  146.8720 C   0  0  0  0  0  2  0  0  0  0  0  0
  162.2240  205.1810  146.1440 C   0  0  1  0  0  0  0  0  0  0  0  0
  163.4710  204.9170  145.5770 O   0  0  0  0  0  1  0  0  0  0  0  0
  161.8590  204.0610  147.1040 C   0  0  0  0  0  1  0  0  0  0  0  0
  161.6980  205.8040  143.3880 O   0  0  0  0  0  0  0  0  0  0  0  0
  160.3130  203.7250  144.5620 O   0  0  0  0  0  1  0  0  0  0  0  0
  160.9760  205.2610  144.8190 P   0  0  0  0  0  0  0  0  0  0  0  0
  159.8780  206.2220  145.2170 O   0  0  0  0  0  1  0  0  0  0  0  0
  1  6  1  0  0  0  0
  2  4  2  0  0  0  0
  4  3  1  0  0  0  0
  5  1  2  0  0  0  0
  5  2  1  0  0  0  0
  6  3  2  0  0  0  0
  7  8  2  0  0  0  0
  8  1  1  0  0  0  0
  9 10  1  0  0  0  0
 11 10  2  0  0  0  0
 11  7  1  0  0  0  0
 12 13  1  0  0  0  0
 12 14  2  0  0  0  0
 13  9  2  0  0  0  0
 14 11  1  0  0  0  0
 15 16  1  1  0  0  0
 15 12  1  0  0  0  0
 17 15  1  0  0  0  0
 18 19  1  0  0  0  0
 19 17  1  0  0  0  0
 20 32  1  6  0  0  0
 20  2  1  0  0  0  0
 21 25  1  0  0  0  0
 23 22  1  0  0  0  0
 24 26  1  6  0  0  0
 24 23  1  0  0  0  0
 24 21  1  0  0  0  0
 25 22  1  0  0  0  0
 25 20  1  1  0  0  0
 27 26  1  0  0  0  0
 28 29  2  0  0  0  0
 29 27  1  0  0  0  0
 30 29  1  0  0  0  0
 32 31  1  1  0  0  0
 33 32  1  0  0  0  0
 34  5  1  0  0  0  0
 35 34  1  0  0  0  0
 36 37  2  0  0  0  0
 37 39  1  0  0  0  0
 38 37  1  0  0  0  0
 39 35  1  0  0  0  0
 40 38  1  0  0  0  0
 41 40  1  0  0  0  0
 41 43  1  1  0  0  0
 42 41  1  0  0  0  0
 44 46  2  0  0  0  0
 45 46  1  0  0  0  0
 46 47  1  0  0  0  0
 46 41  1  0  0  0  0
M  END
>  <MODEL>
3

>  <REMARK>
 VINA RESULT:      -5.8      2.829      6.024
  Name = 
  17 active torsions:
  status: ('A' for Active; 'I' for Inactive)
    1  A    between atoms: C_1  and  P_25
    2  A    between atoms: C_1  and  C_39
    3  A    between atoms: N_4  and  C_34
    4  A    between atoms: C_7  and  N_35
    5  A    between atoms: C_10  and  C_24
    6  A    between atoms: C_15  and  C_29
    7  A    between atoms: C_17  and  C_29
    8  A    between atoms: C_17  and  N_42
    9  A    between atoms: C_19  and  C_37
   10  A    between atoms: C_19  and  C_41
   11  A    between atoms: C_21  and  N_33
   12  A    between atoms: C_22  and  C_46
   13  A    between atoms: C_24  and  C_28
   14  A    between atoms: C_24  and  C_32
   15  A    between atoms: C_26  and  C_37
   16  A    between atoms: N_33  and  C_46
   17  A    between atoms: N_36  and  C_39
                            x       y       z     vdW  Elec       q    Type
                         _______ _______ _______ _____ _____    ______ ____

>  <TORSDO>
F 17

$$$$
=
 OpenBabel11042421543D

 47 49  0  0  1  0  0  0  0  0999 V2000
  161.6010  208.3510  148.7560 C   0  0  0  0  0  0  0  0  0  0  0  0
  161.4510  206.5500  150.3960 C   0  0  0  0  0  0  0  0  0  0  0  0
  160.4810  206.2740  148.1830 C   0  0  0  0  0  3  0  0  0  0  0  0
  160.7510  205.7750  149.4570 C   0  0  0  0  0  3  0  0  0  0  0  0
  161.8770  207.8480  150.0450 C   0  0  0  0  0  0  0  0  0  0  0  0
  160.9050  207.5550  147.8340 C   0  0  0  0  0  3  0  0  0  0  0  0
  161.2110  210.5500  147.9740 N   0  0  0  0  0  0  0  0  0  0  0  0
  162.0290  209.6700  148.3950 N   0  0  0  0  0  0  0  0  0  0  0  0
  162.8040  213.9340  148.1380 C   0  0  0  0  0  3  0  0  0  0  0  0
  162.3930  212.6520  148.5080 C   0  0  0  0  0  3  0  0  0  0  0  0
  161.6420  211.8660  147.6180 C   0  0  0  0  0  0  0  0  0  0  0  0
  161.7160  213.6680  145.9870 C   0  0  0  0  0  0  0  0  0  0  0  0
  162.4680  214.4410  146.8780 C   0  0  0  0  0  3  0  0  0  0  0  0
  161.3100  212.3770  146.3570 C   0  0  0  0  0  3  0  0  0  0  0  0
  161.3930  214.2200  144.6350 C   0  0  2  0  0  3  0  0  0  0  0  0
  160.0110  214.3180  144.4710 O   0  0  0  0  0  1  0  0  0  0  0  0
  161.9910  213.3380  143.5450 C   0  0  0  0  0  2  0  0  0  0  0  0
  160.8580  212.6080  141.5160 N   0  0  0  0  0  1  0  0  0  0  0  0
  161.4830  213.7460  142.1700 C   0  0  0  0  0  2  0  0  0  0  0  0
  161.7330  205.9900  151.7650 C   0  0  2  0  0  3  0  0  0  0  0  0
  161.7350  203.9090  150.4690 O   0  0  0  0  0  0  0  0  0  0  0  0
  160.8830  203.7890  152.6930 C   0  0  0  0  0  2  0  0  0  0  0  0
  160.6870  202.4590  152.0520 C   0  0  0  0  0  2  0  0  0  0  0  0
  160.9500  202.7450  150.5900 C   0  0  2  0  0  3  0  0  0  0  0  0
  161.8620  204.4560  151.7610 C   0  0  2  0  0  3  0  0  0  0  0  0
  161.6440  201.6210  149.9770 N   0  0  0  0  0  2  0  0  0  0  0  0
  160.6990  200.9380  149.1050 C   0  0  0  0  0  2  0  0  0  0  0  0
  160.8720  202.3590  147.2000 O   0  0  0  0  0  1  0  0  0  0  0  0
  161.0340  201.2050  147.6760 C   0  0  0  0  0  0  0  0  0  0  0  0
  161.5270  200.1810  146.8720 O   0  0  0  0  0  0  0  0  0  0  0  0
  161.5730  206.8220  154.1840 C   0  0  0  0  0  1  0  0  0  0  0  0
  160.8530  206.6200  152.8600 C   0  0  1  0  0  3  0  0  0  0  0  0
  160.3100  207.8300  152.4220 O   0  0  0  0  0  1  0  0  0  0  0  0
  162.6400  208.6970  151.0210 C   0  0  0  0  0  2  0  0  0  0  0  0
  161.9390  210.0310  151.2300 C   0  0  0  0  0  2  0  0  0  0  0  0
  160.2970  212.0980  152.3070 O   0  0  0  0  0  0  0  0  0  0  0  0
  160.8000  211.2730  153.1190 C   0  0  0  0  0  0  0  0  0  0  0  0
  160.5030  211.3630  154.5110 N   0  0  0  0  0  2  0  0  0  0  0  0
  161.6680  210.2340  152.6480 N   0  0  0  0  0  2  0  0  0  0  0  0
  159.6420  212.4100  155.0530 C   0  0  0  0  0  2  0  0  0  0  0  0
  158.5970  211.8270  156.0040 C   0  0  1  0  0  0  0  0  0  0  0  0
  158.9590  210.5300  156.3650 O   0  0  0  0  0  1  0  0  0  0  0  0
  158.4730  212.6830  157.2530 C   0  0  0  0  0  1  0  0  0  0  0  0
  156.0110  213.0440  155.7030 O   0  0  0  0  0  1  0  0  0  0  0  0
  157.2180  211.9340  153.4830 O   0  0  0  0  0  0  0  0  0  0  0  0
  156.9880  211.7770  155.1520 P   0  0  0  0  0  0  0  0  0  0  0  0
  156.3030  210.4590  155.4430 O   0  0  0  0  0  1  0  0  0  0  0  0
  1  5  1  0  0  0  0
  2 20  1  0  0  0  0
  3  4  2  0  0  0  0
  4  2  1  0  0  0  0
  5  2  2  0  0  0  0
  5 34  1  0  0  0  0
  6  3  1  0  0  0  0
  6  1  2  0  0  0  0
  7  8  2  0  0  0  0
  8  1  1  0  0  0  0
  9 10  1  0  0  0  0
 11  7  1  0  0  0  0
 11 10  2  0  0  0  0
 12 14  2  0  0  0  0
 12 13  1  0  0  0  0
 13  9  2  0  0  0  0
 14 11  1  0  0  0  0
 15 16  1  6  0  0  0
 15 12  1  0  0  0  0
 17 15  1  0  0  0  0
 18 19  1  0  0  0  0
 19 17  1  0  0  0  0
 20 32  1  1  0  0  0
 21 24  1  0  0  0  0
 21 25  1  0  0  0  0
 23 22  1  0  0  0  0
 24 26  1  1  0  0  0
 24 23  1  0  0  0  0
 25 20  1  6  0  0  0
 25 22  1  0  0  0  0
 27 26  1  0  0  0  0
 28 29  1  0  0  0  0
 29 27  1  0  0  0  0
 30 29  2  0  0  0  0
 32 31  1  1  0  0  0
 33 32  1  0  0  0  0
 34 35  1  0  0  0  0
 35 39  1  0  0  0  0
 36 37  2  0  0  0  0
 37 38  1  0  0  0  0
 38 40  1  0  0  0  0
 39 37  1  0  0  0  0
 40 41  1  0  0  0  0
 41 42  1  0  0  0  0
 41 43  1  1  0  0  0
 45 46  2  0  0  0  0
 46 47  1  0  0  0  0
 46 44  1  0  0  0  0
 46 41  1  0  0  0  0
M  END
>  <MODEL>
4

>  <REMARK>
 VINA RESULT:      -5.3      3.733     10.136
  Name = 
  17 active torsions:
  status: ('A' for Active; 'I' for Inactive)
    1  A    between atoms: C_1  and  P_25
    2  A    between atoms: C_1  and  C_39
    3  A    between atoms: N_4  and  C_34
    4  A    between atoms: C_7  and  N_35
    5  A    between atoms: C_10  and  C_24
    6  A    between atoms: C_15  and  C_29
    7  A    between atoms: C_17  and  C_29
    8  A    between atoms: C_17  and  N_42
    9  A    between atoms: C_19  and  C_37
   10  A    between atoms: C_19  and  C_41
   11  A    between atoms: C_21  and  N_33
   12  A    between atoms: C_22  and  C_46
   13  A    between atoms: C_24  and  C_28
   14  A    between atoms: C_24  and  C_32
   15  A    between atoms: C_26  and  C_37
   16  A    between atoms: N_33  and  C_46
   17  A    between atoms: N_36  and  C_39
                            x       y       z     vdW  Elec       q    Type
                         _______ _______ _______ _____ _____    ______ ____

>  <TORSDO>
F 17

$$$$
=
 OpenBabel11042421543D

 47 49  0  0  1  0  0  0  0  0999 V2000
  161.0560  207.5040  153.3650 C   0  0  0  0  0  0  0  0  0  0  0  0
  160.4080  209.6220  154.3910 C   0  0  0  0  0  0  0  0  0  0  0  0
  160.9340  207.6980  155.7820 C   0  0  0  0  0  3  0  0  0  0  0  0
  160.5440  209.0310  155.6580 C   0  0  0  0  0  3  0  0  0  0  0  0
  160.6630  208.8530  153.2360 C   0  0  0  0  0  0  0  0  0  0  0  0
  161.1890  206.9380  154.6420 C   0  0  0  0  0  3  0  0  0  0  0  0
  160.3780  206.3490  151.4130 N   0  0  0  0  0  0  0  0  0  0  0  0
  161.3130  206.7180  152.1950 N   0  0  0  0  0  0  0  0  0  0  0  0
  161.3100  205.3850  147.9180 C   0  0  0  0  0  3  0  0  0  0  0  0
  161.0580  206.1690  149.0460 C   0  0  0  0  0  3  0  0  0  0  0  0
  160.6390  205.5680  150.2450 C   0  0  0  0  0  0  0  0  0  0  0  0
  160.7220  203.3910  149.1660 C   0  0  0  0  0  0  0  0  0  0  0  0
  161.1440  203.9970  147.9790 C   0  0  0  0  0  3  0  0  0  0  0  0
  160.4780  204.1780  150.3010 C   0  0  0  0  0  3  0  0  0  0  0  0
  160.5800  201.9030  149.2150 C   0  0  2  0  0  3  0  0  0  0  0  0
  161.0690  201.4100  150.4260 O   0  0  0  0  0  1  0  0  0  0  0  0
  161.3200  201.2590  148.0480 C   0  0  0  0  0  2  0  0  0  0  0  0
  160.0490  200.4910  146.1180 N   0  0  0  0  0  1  0  0  0  0  0  0
  160.6900  201.6480  146.7190 C   0  0  0  0  0  2  0  0  0  0  0  0
  159.9880  211.0630  154.2810 C   0  0  2  0  0  3  0  0  0  0  0  0
  157.8720  211.7100  155.3370 O   0  0  0  0  0  0  0  0  0  0  0  0
  159.8330  212.8520  156.0710 C   0  0  0  0  0  2  0  0  0  0  0  0
  158.6600  213.4710  156.7470 C   0  0  0  0  0  2  0  0  0  0  0  0
  157.4870  212.9060  155.9760 C   0  0  2  0  0  3  0  0  0  0  0  0
  159.2580  211.5630  155.5400 C   0  0  2  0  0  3  0  0  0  0  0  0
  156.3750  212.6420  156.8790 N   0  0  0  0  0  2  0  0  0  0  0  0
  155.7990  213.9240  157.2610 C   0  0  0  0  0  2  0  0  0  0  0  0
  153.4360  214.1510  157.0550 O   0  0  0  0  0  1  0  0  0  0  0  0
  154.5550  214.1800  156.4790 C   0  0  0  0  0  0  0  0  0  0  0  0
  154.6320  214.4530  155.1160 O   0  0  0  0  0  0  0  0  0  0  0  0
  157.8640  211.7010  152.9960 C   0  0  0  0  0  1  0  0  0  0  0  0
  159.3520  211.3960  152.9180 C   0  0  1  0  0  3  0  0  0  0  0  0
  160.0250  212.4530  152.3020 O   0  0  0  0  0  1  0  0  0  0  0  0
  160.5410  209.4590  151.8670 C   0  0  0  0  0  2  0  0  0  0  0  0
  161.8630  209.3610  151.1200 C   0  0  0  0  0  2  0  0  0  0  0  0
  162.2290  209.8610  148.3380 O   0  0  0  0  0  0  0  0  0  0  0  0
  162.3340  210.8430  149.1230 C   0  0  0  0  0  0  0  0  0  0  0  0
  162.5770  212.1520  148.6090 N   0  0  0  0  0  2  0  0  0  0  0  0
  162.2020  210.6530  150.5380 N   0  0  0  0  0  2  0  0  0  0  0  0
  162.7410  212.4040  147.1810 C   0  0  0  0  0  2  0  0  0  0  0  0
  161.9350  213.6270  146.7420 C   0  0  1  0  0  0  0  0  0  0  0  0
  161.6950  214.4530  147.8400 O   0  0  0  0  0  1  0  0  0  0  0  0
  162.6860  214.4090  145.6770 C   0  0  0  0  0  1  0  0  0  0  0  0
  160.1770  211.4000  146.2840 O   0  0  0  0  0  1  0  0  0  0  0  0
  159.0710  213.8650  146.8490 O   0  0  0  0  0  1  0  0  0  0  0  0
  160.3400  213.0690  146.0610 P   0  0  0  0  0  0  0  0  0  0  0  0
  160.2860  213.3800  144.5820 O   0  0  0  0  0  0  0  0  0  0  0  0
  1  6  1  0  0  0  0
  2  4  2  0  0  0  0
  4  3  1  0  0  0  0
  5  1  2  0  0  0  0
  5  2  1  0  0  0  0
  6  3  2  0  0  0  0
  7  8  2  0  0  0  0
  8  1  1  0  0  0  0
  9 13  2  0  0  0  0
  9 10  1  0  0  0  0
 10 11  2  0  0  0  0
 11 14  1  0  0  0  0
 11  7  1  0  0  0  0
 12 15  1  0  0  0  0
 12 14  2  0  0  0  0
 13 12  1  0  0  0  0
 15 16  1  1  0  0  0
 17 15  1  0  0  0  0
 18 19  1  0  0  0  0
 19 17  1  0  0  0  0
 20 32  1  6  0  0  0
 20  2  1  0  0  0  0
 21 25  1  0  0  0  0
 21 24  1  0  0  0  0
 22 23  1  0  0  0  0
 24 23  1  0  0  0  0
 24 26  1  1  0  0  0
 25 20  1  6  0  0  0
 25 22  1  0  0  0  0
 26 27  1  0  0  0  0
 29 28  1  0  0  0  0
 29 27  1  0  0  0  0
 30 29  2  0  0  0  0
 32 31  1  1  0  0  0
 33 32  1  0  0  0  0
 34  5  1  0  0  0  0
 35 34  1  0  0  0  0
 36 37  2  0  0  0  0
 37 39  1  0  0  0  0
 38 37  1  0  0  0  0
 39 35  1  0  0  0  0
 40 38  1  0  0  0  0
 41 43  1  6  0  0  0
 41 40  1  0  0  0  0
 41 42  1  0  0  0  0
 46 44  1  0  0  0  0
 46 41  1  0  0  0  0
 46 45  1  0  0  0  0
 47 46  2  0  0  0  0
M  END
>  <MODEL>
5

>  <REMARK>
 VINA RESULT:      -5.0      4.199      8.637
  Name = 
  17 active torsions:
  status: ('A' for Active; 'I' for Inactive)
    1  A    between atoms: C_1  and  P_25
    2  A    between atoms: C_1  and  C_39
    3  A    between atoms: N_4  and  C_34
    4  A    between atoms: C_7  and  N_35
    5  A    between atoms: C_10  and  C_24
    6  A    between atoms: C_15  and  C_29
    7  A    between atoms: C_17  and  C_29
    8  A    between atoms: C_17  and  N_42
    9  A    between atoms: C_19  and  C_37
   10  A    between atoms: C_19  and  C_41
   11  A    between atoms: C_21  and  N_33
   12  A    between atoms: C_22  and  C_46
   13  A    between atoms: C_24  and  C_28
   14  A    between atoms: C_24  and  C_32
   15  A    between atoms: C_26  and  C_37
   16  A    between atoms: N_33  and  C_46
   17  A    between atoms: N_36  and  C_39
                            x       y       z     vdW  Elec       q    Type
                         _______ _______ _______ _____ _____    ______ ____

>  <TORSDO>
F 17

$$$$
=
 OpenBabel11042421543D

 47 49  0  0  1  0  0  0  0  0999 V2000
  161.5390  206.8710  147.8020 C   0  0  0  0  0  0  0  0  0  0  0  0
  161.3060  204.7290  148.9470 C   0  0  0  0  0  0  0  0  0  0  0  0
  162.4630  204.8550  146.8120 C   0  0  0  0  0  3  0  0  0  0  0  0
  162.0000  204.1090  147.8950 C   0  0  0  0  0  3  0  0  0  0  0  0
  161.0710  206.1190  148.9000 C   0  0  0  0  0  0  0  0  0  0  0  0
  162.2340  206.2300  146.7660 C   0  0  0  0  0  3  0  0  0  0  0  0
  162.0860  209.1190  148.3010 N   0  0  0  0  0  0  0  0  0  0  0  0
  161.3010  208.2830  147.7480 N   0  0  0  0  0  0  0  0  0  0  0  0
  162.0610  212.7600  149.1710 C   0  0  0  0  0  3  0  0  0  0  0  0
  162.3050  211.3880  149.2530 C   0  0  0  0  0  3  0  0  0  0  0  0
  161.8460  210.5270  148.2410 C   0  0  0  0  0  0  0  0  0  0  0  0
  160.8920  212.4340  147.0710 C   0  0  0  0  0  0  0  0  0  0  0  0
  161.3570  213.2830  148.0810 C   0  0  0  0  0  3  0  0  0  0  0  0
  161.1450  211.0560  147.1500 C   0  0  0  0  0  3  0  0  0  0  0  0
  160.1670  213.0190  145.9020 C   0  0  2  0  0  3  0  0  0  0  0  0
  159.8100  212.0130  145.0020 O   0  0  0  0  0  1  0  0  0  0  0  0
  161.0350  214.0620  145.2070 C   0  0  0  0  0  2  0  0  0  0  0  0
  163.2200  213.4850  144.3010 N   0  0  0  0  0  1  0  0  0  0  0  0
  161.7920  213.4540  144.0360 C   0  0  0  0  0  2  0  0  0  0  0  0
  160.8160  203.9030  150.1080 C   0  0  2  0  0  3  0  0  0  0  0  0
  160.7500  204.9300  152.3330 O   0  0  0  0  0  0  0  0  0  0  0  0
  162.8400  204.9860  151.1860 C   0  0  0  0  0  2  0  0  0  0  0  0
  162.9890  205.7560  152.4510 C   0  0  0  0  0  2  0  0  0  0  0  0
  161.5590  205.9270  152.9140 C   0  0  2  0  0  3  0  0  0  0  0  0
  161.5580  204.2280  151.4170 C   0  0  2  0  0  3  0  0  0  0  0  0
  161.4880  205.8300  154.3660 N   0  0  0  0  0  2  0  0  0  0  0  0
  160.4590  206.7550  154.8230 C   0  0  0  0  0  2  0  0  0  0  0  0
  161.8680  208.3700  155.8650 O   0  0  0  0  0  0  0  0  0  0  0  0
  160.9480  207.5220  156.0040 C   0  0  0  0  0  0  0  0  0  0  0  0
  160.3860  207.3010  157.2590 O   0  0  0  0  0  1  0  0  0  0  0  0
  161.0860  201.4630  150.8450 C   0  0  0  0  0  1  0  0  0  0  0  0
  160.6380  202.4170  149.7480 C   0  0  1  0  0  3  0  0  0  0  0  0
  159.3140  202.1490  149.3930 O   0  0  0  0  0  1  0  0  0  0  0  0
  160.3450  206.8140  150.0150 C   0  0  0  0  0  2  0  0  0  0  0  0
  161.2260  207.8850  150.6410 C   0  0  0  0  0  2  0  0  0  0  0  0
  162.3280  209.8600  152.3760 O   0  0  0  0  0  0  0  0  0  0  0  0
  161.1020  209.5940  152.5040 C   0  0  0  0  0  0  0  0  0  0  0  0
  160.3080  210.3030  153.4540 N   0  0  0  0  0  2  0  0  0  0  0  0
  160.4950  208.5810  151.6920 N   0  0  0  0  0  2  0  0  0  0  0  0
  160.8750  211.3300  154.3230 C   0  0  0  0  0  2  0  0  0  0  0  0
  159.9680  211.5960  155.5240 C   0  0  1  0  0  0  0  0  0  0  0  0
  159.2580  210.4390  155.8450 O   0  0  0  0  0  1  0  0  0  0  0  0
  160.7860  212.0350  156.7270 C   0  0  0  0  0  1  0  0  0  0  0  0
  159.2150  213.5970  153.6040 O   0  0  0  0  0  0  0  0  0  0  0  0
  157.2250  212.2710  154.9830 O   0  0  0  0  0  1  0  0  0  0  0  0
  158.7870  212.9140  155.0920 P   0  0  0  0  0  0  0  0  0  0  0  0
  158.8150  213.9870  156.1570 O   0  0  0  0  0  1  0  0  0  0  0  0
  1  5  1  0  0  0  0
  2 20  1  0  0  0  0
  3  4  2  0  0  0  0
  4  2  1  0  0  0  0
  5  2  2  0  0  0  0
  5 34  1  0  0  0  0
  6  3  1  0  0  0  0
  6  1  2  0  0  0  0
  8  1  1  0  0  0  0
  8  7  2  0  0  0  0
  9 10  1  0  0  0  0
 11  7  1  0  0  0  0
 11 10  2  0  0  0  0
 12 14  2  0  0  0  0
 12 13  1  0  0  0  0
 13  9  2  0  0  0  0
 14 11  1  0  0  0  0
 15 16  1  6  0  0  0
 15 12  1  0  0  0  0
 17 15  1  0  0  0  0
 19 18  1  0  0  0  0
 19 17  1  0  0  0  0
 20 32  1  6  0  0  0
 21 24  1  0  0  0  0
 22 25  1  0  0  0  0
 22 23  1  0  0  0  0
 23 24  1  0  0  0  0
 24 26  1  1  0  0  0
 25 20  1  6  0  0  0
 25 21  1  0  0  0  0
 26 27  1  0  0  0  0
 27 29  1  0  0  0  0
 28 29  2  0  0  0  0
 29 30  1  0  0  0  0
 32 31  1  1  0  0  0
 33 32  1  0  0  0  0
 34 35  1  0  0  0  0
 35 39  1  0  0  0  0
 36 37  2  0  0  0  0
 37 38  1  0  0  0  0
 38 40  1  0  0  0  0
 39 37  1  0  0  0  0
 40 41  1  0  0  0  0
 41 42  1  0  0  0  0
 41 43  1  1  0  0  0
 44 46  2  0  0  0  0
 45 46  1  0  0  0  0
 46 41  1  0  0  0  0
 46 47  1  0  0  0  0
M  END
>  <MODEL>
6

>  <REMARK>
 VINA RESULT:      -4.9      3.774     10.370
  Name = 
  17 active torsions:
  status: ('A' for Active; 'I' for Inactive)
    1  A    between atoms: C_1  and  P_25
    2  A    between atoms: C_1  and  C_39
    3  A    between atoms: N_4  and  C_34
    4  A    between atoms: C_7  and  N_35
    5  A    between atoms: C_10  and  C_24
    6  A    between atoms: C_15  and  C_29
    7  A    between atoms: C_17  and  C_29
    8  A    between atoms: C_17  and  N_42
    9  A    between atoms: C_19  and  C_37
   10  A    between atoms: C_19  and  C_41
   11  A    between atoms: C_21  and  N_33
   12  A    between atoms: C_22  and  C_46
   13  A    between atoms: C_24  and  C_28
   14  A    between atoms: C_24  and  C_32
   15  A    between atoms: C_26  and  C_37
   16  A    between atoms: N_33  and  C_46
   17  A    between atoms: N_36  and  C_39
                            x       y       z     vdW  Elec       q    Type
                         _______ _______ _______ _____ _____    ______ ____

>  <TORSDO>
F 17

$$$$
=
 OpenBabel11042421543D

 47 49  0  0  1  0  0  0  0  0999 V2000
  161.7270  207.2380  148.0520 C   0  0  0  0  0  0  0  0  0  0  0  0
  161.3200  205.0540  149.0630 C   0  0  0  0  0  0  0  0  0  0  0  0
  162.6420  205.2340  147.0300 C   0  0  0  0  0  3  0  0  0  0  0  0
  162.0680  204.4570  148.0350 C   0  0  0  0  0  3  0  0  0  0  0  0
  161.1460  206.4540  149.0710 C   0  0  0  0  0  0  0  0  0  0  0  0
  162.4730  206.6180  147.0390 C   0  0  0  0  0  3  0  0  0  0  0  0
  162.3870  209.4400  148.6150 N   0  0  0  0  0  0  0  0  0  0  0  0
  161.5510  208.6600  148.0540 N   0  0  0  0  0  0  0  0  0  0  0  0
  162.8200  213.0750  147.8270 C   0  0  0  0  0  3  0  0  0  0  0  0
  163.0140  211.6920  147.8160 C   0  0  0  0  0  3  0  0  0  0  0  0
  162.2080  210.8590  148.6110 C   0  0  0  0  0  0  0  0  0  0  0  0
  161.0190  212.8150  149.4300 C   0  0  0  0  0  0  0  0  0  0  0  0
  161.8220  213.6350  148.6320 C   0  0  0  0  0  3  0  0  0  0  0  0
  161.2090  211.4250  149.4120 C   0  0  0  0  0  3  0  0  0  0  0  0
  159.9400  213.4340  150.2600 C   0  0  2  0  0  3  0  0  0  0  0  0
  159.5440  212.5570  151.2720 O   0  0  0  0  0  1  0  0  0  0  0  0
  158.7450  213.8040  149.3880 C   0  0  0  0  0  2  0  0  0  0  0  0
  156.4270  214.4130  149.8170 N   0  0  0  0  0  1  0  0  0  0  0  0
  157.4380  213.3950  150.0480 C   0  0  0  0  0  2  0  0  0  0  0  0
  160.7110  204.1950  150.1390 C   0  0  2  0  0  3  0  0  0  0  0  0
  160.5110  205.0490  152.4280 O   0  0  0  0  0  0  0  0  0  0  0  0
  162.6680  205.1730  151.4190 C   0  0  0  0  0  2  0  0  0  0  0  0
  162.7420  205.8430  152.7470 C   0  0  0  0  0  2  0  0  0  0  0  0
  161.2870  205.9910  153.1330 C   0  0  2  0  0  3  0  0  0  0  0  0
  161.3710  204.4110  151.5130 C   0  0  2  0  0  3  0  0  0  0  0  0
  161.1250  205.7840  154.5650 N   0  0  0  0  0  2  0  0  0  0  0  0
  161.3140  207.0700  155.2240 C   0  0  0  0  0  2  0  0  0  0  0  0
  160.3170  207.8010  157.2610 O   0  0  0  0  0  1  0  0  0  0  0  0
  160.1390  207.3810  156.0870 C   0  0  0  0  0  0  0  0  0  0  0  0
  158.8470  207.2090  155.5960 O   0  0  0  0  0  0  0  0  0  0  0  0
  161.2460  201.7170  150.5170 C   0  0  0  0  0  1  0  0  0  0  0  0
  160.4880  202.7410  149.6850 C   0  0  1  0  0  3  0  0  0  0  0  0
  159.1270  202.4300  149.6680 O   0  0  0  0  0  1  0  0  0  0  0  0
  160.3650  207.1240  150.1640 C   0  0  0  0  0  2  0  0  0  0  0  0
  161.2240  208.1580  150.8780 C   0  0  0  0  0  2  0  0  0  0  0  0
  162.2610  210.0470  152.7430 O   0  0  0  0  0  0  0  0  0  0  0  0
  161.0350  209.7630  152.8260 C   0  0  0  0  0  0  0  0  0  0  0  0
  160.2100  210.4130  153.7920 N   0  0  0  0  0  2  0  0  0  0  0  0
  160.4590  208.7900  151.9450 N   0  0  0  0  0  2  0  0  0  0  0  0
  160.7440  211.3960  154.7290 C   0  0  0  0  0  2  0  0  0  0  0  0
  159.7000  211.7820  155.7770 C   0  0  1  0  0  0  0  0  0  0  0  0
  159.1360  210.6310  156.3270 O   0  0  0  0  0  1  0  0  0  0  0  0
  160.3310  212.6130  156.8820 C   0  0  0  0  0  1  0  0  0  0  0  0
  157.3770  211.7290  154.0860 O   0  0  0  0  0  1  0  0  0  0  0  0
  157.4750  213.5660  156.1430 O   0  0  0  0  0  1  0  0  0  0  0  0
  158.3880  212.7560  154.9710 P   0  0  0  0  0  0  0  0  0  0  0  0
  159.0120  213.7670  154.0340 O   0  0  0  0  0  0  0  0  0  0  0  0
  1  8  1  0  0  0  0
  1  5  1  0  0  0  0
  2  5  2  0  0  0  0
  2 20  1  0  0  0  0
  3  6  1  0  0  0  0
  3  4  2  0  0  0  0
  4  2  1  0  0  0  0
  5 34  1  0  0  0  0
  6  1  2  0  0  0  0
  8  7  2  0  0  0  0
  9 13  1  0  0  0  0
 10  9  2  0  0  0  0
 10 11  1  0  0  0  0
 11  7  1  0  0  0  0
 11 14  2  0  0  0  0
 12 15  1  0  0  0  0
 13 12  2  0  0  0  0
 14 12  1  0  0  0  0
 15 16  1  1  0  0  0
 17 19  1  0  0  0  0
 17 15  1  0  0  0  0
 18 19  1  0  0  0  0
 20 32  1  6  0  0  0
 21 24  1  0  0  0  0
 22 25  1  0  0  0  0
 22 23  1  0  0  0  0
 23 24  1  0  0  0  0
 24 26  1  1  0  0  0
 25 20  1  6  0  0  0
 25 21  1  0  0  0  0
 26 27  1  0  0  0  0
 27 29  1  0  0  0  0
 29 28  1  0  0  0  0
 30 29  2  0  0  0  0
 32 31  1  1  0  0  0
 33 32  1  0  0  0  0
 34 35  1  0  0  0  0
 35 39  1  0  0  0  0
 36 37  2  0  0  0  0
 37 38  1  0  0  0  0
 38 40  1  0  0  0  0
 39 37  1  0  0  0  0
 40 41  1  0  0  0  0
 41 42  1  0  0  0  0
 41 43  1  1  0  0  0
 44 46  1  0  0  0  0
 46 41  1  0  0  0  0
 46 45  1  0  0  0  0
 47 46  2  0  0  0  0
M  END
>  <MODEL>
7

>  <REMARK>
 VINA RESULT:      -4.9      4.320     10.174
  Name = 
  17 active torsions:
  status: ('A' for Active; 'I' for Inactive)
    1  A    between atoms: C_1  and  P_25
    2  A    between atoms: C_1  and  C_39
    3  A    between atoms: N_4  and  C_34
    4  A    between atoms: C_7  and  N_35
    5  A    between atoms: C_10  and  C_24
    6  A    between atoms: C_15  and  C_29
    7  A    between atoms: C_17  and  C_29
    8  A    between atoms: C_17  and  N_42
    9  A    between atoms: C_19  and  C_37
   10  A    between atoms: C_19  and  C_41
   11  A    between atoms: C_21  and  N_33
   12  A    between atoms: C_22  and  C_46
   13  A    between atoms: C_24  and  C_28
   14  A    between atoms: C_24  and  C_32
   15  A    between atoms: C_26  and  C_37
   16  A    between atoms: N_33  and  C_46
   17  A    between atoms: N_36  and  C_39
                            x       y       z     vdW  Elec       q    Type
                         _______ _______ _______ _____ _____    ______ ____

>  <TORSDO>
F 17

$$$$
=
 OpenBabel11042421543D

 47 49  0  0  1  0  0  0  0  0999 V2000
  160.5110  209.3890  154.6130 C   0  0  0  0  0  0  0  0  0  0  0  0
  159.2300  211.4660  154.6010 C   0  0  0  0  0  0  0  0  0  0  0  0
  159.8570  210.4270  156.7080 C   0  0  0  0  0  3  0  0  0  0  0  0
  159.2250  211.4520  156.0050 C   0  0  0  0  0  3  0  0  0  0  0  0
  159.8750  210.4260  153.8990 C   0  0  0  0  0  0  0  0  0  0  0  0
  160.4970  209.4010  156.0150 C   0  0  0  0  0  3  0  0  0  0  0  0
  160.6120  207.1950  153.7310 N   0  0  0  0  0  0  0  0  0  0  0  0
  161.1660  208.3290  153.9050 N   0  0  0  0  0  0  0  0  0  0  0  0
  163.2820  205.0770  152.1810 C   0  0  0  0  0  3  0  0  0  0  0  0
  162.6640  206.1180  152.8770 C   0  0  0  0  0  3  0  0  0  0  0  0
  161.2670  206.1410  153.0200 C   0  0  0  0  0  0  0  0  0  0  0  0
  161.1170  204.0700  151.7540 C   0  0  0  0  0  0  0  0  0  0  0  0
  162.5090  204.0530  151.6220 C   0  0  0  0  0  3  0  0  0  0  0  0
  160.4980  205.1120  152.4610 C   0  0  0  0  0  3  0  0  0  0  0  0
  160.3140  202.9510  151.1730 C   0  0  2  0  0  3  0  0  0  0  0  0
  160.7540  201.7270  151.6800 O   0  0  0  0  0  1  0  0  0  0  0  0
  160.4160  202.9580  149.6520 C   0  0  0  0  0  2  0  0  0  0  0  0
  161.2390  201.1210  148.2820 N   0  0  0  0  0  1  0  0  0  0  0  0
  160.1140  201.5830  149.0770 C   0  0  0  0  0  2  0  0  0  0  0  0
  158.5420  212.5840  153.8620 C   0  0  2  0  0  3  0  0  0  0  0  0
  160.0220  213.4520  152.1110 O   0  0  0  0  0  0  0  0  0  0  0  0
  157.7570  213.0310  151.4940 C   0  0  0  0  0  2  0  0  0  0  0  0
  158.4430  213.6560  150.3290 C   0  0  0  0  0  2  0  0  0  0  0  0
  159.7350  214.1640  150.9290 C   0  0  2  0  0  3  0  0  0  0  0  0
  158.9140  212.6220  152.3690 C   0  0  2  0  0  3  0  0  0  0  0  0
  160.8270  214.0000  149.9800 N   0  0  0  0  0  2  0  0  0  0  0  0
  160.2450  213.8580  148.6530 C   0  0  0  0  0  2  0  0  0  0  0  0
  162.3360  212.9600  147.9470 O   0  0  0  0  0  1  0  0  0  0  0  0
  161.0840  212.9500  147.8190 C   0  0  0  0  0  0  0  0  0  0  0  0
  160.4830  212.0910  146.9030 O   0  0  0  0  0  0  0  0  0  0  0  0
  157.3160  214.1980  155.4310 C   0  0  0  0  0  1  0  0  0  0  0  0
  158.5800  213.9170  154.6320 C   0  0  1  0  0  3  0  0  0  0  0  0
  159.6970  213.9750  155.4680 O   0  0  0  0  0  1  0  0  0  0  0  0
  159.9090  210.4180  152.3970 C   0  0  0  0  0  2  0  0  0  0  0  0
  161.3420  210.3060  151.8970 C   0  0  0  0  0  2  0  0  0  0  0  0
  162.6740  208.1070  150.6650 O   0  0  0  0  0  0  0  0  0  0  0  0
  162.0090  208.8750  149.9180 C   0  0  0  0  0  0  0  0  0  0  0  0
  161.9020  208.6050  148.5210 N   0  0  0  0  0  2  0  0  0  0  0  0
  161.3490  210.0230  150.4670 N   0  0  0  0  0  2  0  0  0  0  0  0
  162.5680  207.4640  147.9010 C   0  0  0  0  0  2  0  0  0  0  0  0
  161.6760  206.2230  147.9310 C   0  0  1  0  0  0  0  0  0  0  0  0
  162.3300  205.1870  148.5960 O   0  0  0  0  0  1  0  0  0  0  0  0
  160.3620  206.5240  148.6330 C   0  0  0  0  0  1  0  0  0  0  0  0
  162.7300  205.8720  145.2800 O   0  0  0  0  0  0  0  0  0  0  0  0
  160.8380  204.0850  146.2000 O   0  0  0  0  0  1  0  0  0  0  0  0
  161.3320  205.7030  146.2190 P   0  0  0  0  0  0  0  0  0  0  0  0
  160.2370  206.5690  145.6380 O   0  0  0  0  0  1  0  0  0  0  0  0
  1  6  1  0  0  0  0
  2  4  2  0  0  0  0
  4  3  1  0  0  0  0
  5  2  1  0  0  0  0
  5  1  2  0  0  0  0
  6  3  2  0  0  0  0
  7  8  2  0  0  0  0
  8  1  1  0  0  0  0
  9 10  1  0  0  0  0
 10 11  2  0  0  0  0
 11  7  1  0  0  0  0
 12 14  2  0  0  0  0
 13 12  1  0  0  0  0
 13  9  2  0  0  0  0
 14 11  1  0  0  0  0
 15 16  1  1  0  0  0
 15 12  1  0  0  0  0
 17 15  1  0  0  0  0
 18 19  1  0  0  0  0
 19 17  1  0  0  0  0
 20  2  1  0  0  0  0
 20 32  1  1  0  0  0
 21 25  1  0  0  0  0
 22 25  1  0  0  0  0
 23 24  1  0  0  0  0
 23 22  1  0  0  0  0
 24 26  1  6  0  0  0
 24 21  1  0  0  0  0
 25 20  1  1  0  0  0
 27 26  1  0  0  0  0
 29 28  1  0  0  0  0
 29 27  1  0  0  0  0
 30 29  2  0  0  0  0
 32 31  1  1  0  0  0
 32 33  1  0  0  0  0
 34  5  1  0  0  0  0
 35 34  1  0  0  0  0
 37 39  1  0  0  0  0
 37 36  2  0  0  0  0
 38 37  1  0  0  0  0
 39 35  1  0  0  0  0
 40 41  1  0  0  0  0
 40 38  1  0  0  0  0
 41 42  1  0  0  0  0
 41 43  1  1  0  0  0
 44 46  2  0  0  0  0
 45 46  1  0  0  0  0
 46 41  1  0  0  0  0
 47 46  1  0  0  0  0
M  END
>  <MODEL>
8

>  <REMARK>
 VINA RESULT:      -4.5      2.701      5.280
  Name = 
  17 active torsions:
  status: ('A' for Active; 'I' for Inactive)
    1  A    between atoms: C_1  and  P_25
    2  A    between atoms: C_1  and  C_39
    3  A    between atoms: N_4  and  C_34
    4  A    between atoms: C_7  and  N_35
    5  A    between atoms: C_10  and  C_24
    6  A    between atoms: C_15  and  C_29
    7  A    between atoms: C_17  and  C_29
    8  A    between atoms: C_17  and  N_42
    9  A    between atoms: C_19  and  C_37
   10  A    between atoms: C_19  and  C_41
   11  A    between atoms: C_21  and  N_33
   12  A    between atoms: C_22  and  C_46
   13  A    between atoms: C_24  and  C_28
   14  A    between atoms: C_24  and  C_32
   15  A    between atoms: C_26  and  C_37
   16  A    between atoms: N_33  and  C_46
   17  A    between atoms: N_36  and  C_39
                            x       y       z     vdW  Elec       q    Type
                         _______ _______ _______ _____ _____    ______ ____

>  <TORSDO>
F 17

$$$$
=
 OpenBabel11042421543D

 47 49  0  0  1  0  0  0  0  0999 V2000
  161.1560  212.0740  149.5510 C   0  0  0  0  0  0  0  0  0  0  0  0
  160.7300  212.8510  147.2770 C   0  0  0  0  0  0  0  0  0  0  0  0
  161.0310  214.4530  149.0820 C   0  0  0  0  0  3  0  0  0  0  0  0
  160.7880  214.1770  147.7370 C   0  0  0  0  0  3  0  0  0  0  0  0
  160.9120  211.7920  148.1900 C   0  0  0  0  0  0  0  0  0  0  0  0
  161.2150  213.4060  149.9840 C   0  0  0  0  0  3  0  0  0  0  0  0
  160.7960  211.0110  151.6350 N   0  0  0  0  0  0  0  0  0  0  0  0
  161.3400  211.0010  150.4830 N   0  0  0  0  0  0  0  0  0  0  0  0
  161.2600  207.5730  153.0440 C   0  0  0  0  0  3  0  0  0  0  0  0
  161.0800  208.6060  152.1210 C   0  0  0  0  0  3  0  0  0  0  0  0
  160.9790  209.9370  152.5600 C   0  0  0  0  0  0  0  0  0  0  0  0
  161.2350  209.1820  154.8580 C   0  0  0  0  0  0  0  0  0  0  0  0
  161.3400  207.8620  154.4100 C   0  0  0  0  0  3  0  0  0  0  0  0
  161.0620  210.2200  153.9300 C   0  0  0  0  0  3  0  0  0  0  0  0
  161.3510  209.4690  156.3210 C   0  0  2  0  0  3  0  0  0  0  0  0
  162.0730  208.4570  156.9560 O   0  0  0  0  0  1  0  0  0  0  0  0
  159.9680  209.6020  156.9480 C   0  0  0  0  0  2  0  0  0  0  0  0
  159.0240  211.6110  155.9470 N   0  0  0  0  0  1  0  0  0  0  0  0
  159.6020  211.0630  157.1620 C   0  0  0  0  0  2  0  0  0  0  0  0
  160.4680  212.5770  145.8200 C   0  0  2  0  0  3  0  0  0  0  0  0
  161.3690  212.8800  143.5600 O   0  0  0  0  0  0  0  0  0  0  0  0
  162.8690  213.2590  145.3750 C   0  0  0  0  0  2  0  0  0  0  0  0
  163.6400  213.3820  144.1070 C   0  0  0  0  0  2  0  0  0  0  0  0
  162.6910  212.8120  143.0770 C   0  0  2  0  0  3  0  0  0  0  0  0
  161.4420  213.3270  144.8940 C   0  0  2  0  0  3  0  0  0  0  0  0
  162.7960  213.5590  141.8310 N   0  0  0  0  0  2  0  0  0  0  0  0
  161.4520  213.7150  141.2920 C   0  0  0  0  0  2  0  0  0  0  0  0
  162.2750  212.2450  139.6060 O   0  0  0  0  0  1  0  0  0  0  0  0
  161.3260  212.9680  140.0070 C   0  0  0  0  0  0  0  0  0  0  0  0
  160.1590  213.0700  139.2540 O   0  0  0  0  0  0  0  0  0  0  0  0
  158.0570  212.1610  146.5830 C   0  0  0  0  0  1  0  0  0  0  0  0
  158.9710  212.6330  145.4630 C   0  0  1  0  0  3  0  0  0  0  0  0
  158.6060  213.9180  145.0580 O   0  0  0  0  0  1  0  0  0  0  0  0
  160.8700  210.3630  147.7280 C   0  0  0  0  0  2  0  0  0  0  0  0
  162.0380  209.5790  148.3090 C   0  0  0  0  0  2  0  0  0  0  0  0
  162.2770  206.8780  147.4310 O   0  0  0  0  0  0  0  0  0  0  0  0
  161.7330  207.0780  148.5510 C   0  0  0  0  0  0  0  0  0  0  0  0
  161.3080  205.9760  149.3510 N   0  0  0  0  0  2  0  0  0  0  0  0
  161.5440  208.4150  149.0330 N   0  0  0  0  0  2  0  0  0  0  0  0
  161.4550  204.5940  148.9040 C   0  0  0  0  0  2  0  0  0  0  0  0
  160.9850  203.6150  149.9800 C   0  0  1  0  0  0  0  0  0  0  0  0
  161.9810  203.4600  150.9440 O   0  0  0  0  0  1  0  0  0  0  0  0
  159.7140  204.1170  150.6440 C   0  0  0  0  0  1  0  0  0  0  0  0
  161.3150  200.7650  150.1550 O   0  0  0  0  0  1  0  0  0  0  0  0
  158.9870  201.7630  149.0590 O   0  0  0  0  0  1  0  0  0  0  0  0
  160.6560  201.9990  149.2040 P   0  0  0  0  0  0  0  0  0  0  0  0
  161.2900  201.9600  147.8310 O   0  0  0  0  0  0  0  0  0  0  0  0
  1  6  1  0  0  0  0
  1  8  1  0  0  0  0
  2  4  2  0  0  0  0
  2  5  1  0  0  0  0
  3  6  2  0  0  0  0
  4  3  1  0  0  0  0
  5  1  2  0  0  0  0
  7 11  1  0  0  0  0
  8  7  2  0  0  0  0
  9 13  1  0  0  0  0
 10 11  1  0  0  0  0
 10  9  2  0  0  0  0
 11 14  2  0  0  0  0
 12 15  1  0  0  0  0
 13 12  2  0  0  0  0
 14 12  1  0  0  0  0
 15 17  1  0  0  0  0
 15 16  1  1  0  0  0
 17 19  1  0  0  0  0
 18 19  1  0  0  0  0
 20 32  1  6  0  0  0
 20  2  1  0  0  0  0
 21 25  1  0  0  0  0
 23 22  1  0  0  0  0
 24 26  1  6  0  0  0
 24 21  1  0  0  0  0
 24 23  1  0  0  0  0
 25 22  1  0  0  0  0
 25 20  1  1  0  0  0
 27 26  1  0  0  0  0
 28 29  1  0  0  0  0
 29 27  1  0  0  0  0
 30 29  2  0  0  0  0
 32 31  1  1  0  0  0
 33 32  1  0  0  0  0
 34  5  1  0  0  0  0
 34 35  1  0  0  0  0
 35 39  1  0  0  0  0
 36 37  2  0  0  0  0
 37 39  1  0  0  0  0
 37 38  1  0  0  0  0
 40 38  1  0  0  0  0
 40 41  1  0  0  0  0
 41 43  1  1  0  0  0
 41 42  1  0  0  0  0
 45 46  1  0  0  0  0
 46 41  1  0  0  0  0
 46 44  1  0  0  0  0
 47 46  2  0  0  0  0
M  END
>  <MODEL>
9

>  <REMARK>
 VINA RESULT:      -4.4      2.396      3.933
  Name = 
  17 active torsions:
  status: ('A' for Active; 'I' for Inactive)
    1  A    between atoms: C_1  and  P_25
    2  A    between atoms: C_1  and  C_39
    3  A    between atoms: N_4  and  C_34
    4  A    between atoms: C_7  and  N_35
    5  A    between atoms: C_10  and  C_24
    6  A    between atoms: C_15  and  C_29
    7  A    between atoms: C_17  and  C_29
    8  A    between atoms: C_17  and  N_42
    9  A    between atoms: C_19  and  C_37
   10  A    between atoms: C_19  and  C_41
   11  A    between atoms: C_21  and  N_33
   12  A    between atoms: C_22  and  C_46
   13  A    between atoms: C_24  and  C_28
   14  A    between atoms: C_24  and  C_32
   15  A    between atoms: C_26  and  C_37
   16  A    between atoms: N_33  and  C_46
   17  A    between atoms: N_36  and  C_39
                            x       y       z     vdW  Elec       q    Type
                         _______ _______ _______ _____ _____    ______ ____

>  <TORSDO>
F 17

$$$$
