=
 OpenBabel11042423023D

 65 74  0  0  1  0  0  0  0  0999 V2000
  162.4260  208.8290  149.9360 C   0  0  0  0  0  0  0  0  0  0  0  0
  161.1040  202.7890  147.2920 C   0  0  0  0  0  2  0  0  0  0  0  0
  160.4090  203.7510  152.2860 N   0  0  0  0  0  2  0  0  0  0  0  0
  161.8800  208.6700  147.5360 C   0  0  0  0  0  0  0  0  0  0  0  0
  160.9950  205.0310  152.7390 C   0  0  1  0  0  3  0  0  0  0  0  0
  162.1550  209.4210  152.2240 N   0  0  0  0  0  0  0  0  0  0  0  0
  161.8430  206.4850  149.4580 N   0  0  0  0  0  0  0  0  0  0  0  0
  159.9080  206.8470  155.6910 C   0  0  0  0  0  3  0  0  0  0  0  0
  163.3720  203.8140  147.7630 C   0  0  0  0  0  2  0  0  0  0  0  0
  161.1390  208.8430  156.2620 C   0  0  0  0  0  0  0  0  0  0  0  0
  162.7630  205.0450  147.4610 O   0  0  0  0  0  0  0  0  0  0  0  0
  161.3220  207.9170  154.0090 C   0  0  0  0  0  0  0  0  0  0  0  0
  160.2520  207.8290  156.6190 C   0  0  0  0  0  3  0  0  0  0  0  0
  160.6490  207.1530  144.5390 C   0  0  0  0  0  3  0  0  0  0  0  0
  160.4430  206.8580  154.3980 C   0  0  0  0  0  0  0  0  0  0  0  0
  161.1220  208.1300  146.7690 C   0  0  0  0  0  0  0  0  0  0  0  0
  162.5790  205.6440  145.1500 C   0  0  0  0  0  2  0  0  0  0  0  0
  162.1120  207.5190  150.2770 C   0  0  0  0  0  0  0  0  0  0  0  0
  161.6470  208.8950  154.9640 C   0  0  0  0  0  3  0  0  0  0  0  0
  161.5100  205.8590  151.6180 C   0  0  0  0  0  0  0  0  0  0  0  0
  162.3270  202.7900  148.2300 C   0  0  1  0  0  0  0  0  0  0  0  0
  161.4850  205.4770  150.2910 C   0  0  0  0  0  0  0  0  0  0  0  0
  162.7860  209.2520  148.5360 C   0  0  0  0  0  2  0  0  0  0  0  0
  161.8550  207.1780  151.6390 C   0  0  0  0  0  0  0  0  0  0  0  0
  160.8490  204.1960  149.8540 C   0  0  1  0  0  3  0  0  0  0  0  0
  161.3780  203.5550  145.9940 C   0  0  0  0  0  2  0  0  0  0  0  0
  162.4670  209.7380  150.9550 N   0  0  0  0  0  2  0  0  0  0  0  0
  161.9090  203.0950  149.6820 C   0  0  0  0  0  2  0  0  0  0  0  0
  161.6350  206.3060  144.1780 C   0  0  0  0  0  0  0  0  0  0  0  0
  159.8070  203.8310  150.9400 C   0  0  1  0  0  3  0  0  0  0  0  0
  160.1540  207.4160  145.9320 C   0  0  0  0  0  2  0  0  0  0  0  0
  160.0430  205.7910  153.5270 N   0  0  0  0  0  2  0  0  0  0  0  0
  161.9120  204.9560  146.3280 C   0  0  1  0  0  3  0  0  0  0  0  0
  161.8050  208.1550  152.6190 C   0  0  0  0  0  0  0  0  0  0  0  0
  160.8860  206.6690  141.8460 C   0  0  1  0  0  3  0  0  0  0  0  0
  161.1020  205.3010  142.0910 O   0  0  0  0  0  0  0  0  0  0  0  0
  161.9840  206.1970  142.7250 C   0  0  2  0  0  3  0  0  0  0  0  0
  161.4470  207.0320  140.4710 C   0  0  2  0  0  3  0  0  0  0  0  0
  162.7780  206.5880  140.3480 O   0  0  0  0  0  0  0  0  0  0  0  0
  163.0950  207.9500  138.4050 N   0  0  0  0  0  2  0  0  0  0  0  0
  161.3220  208.5240  140.0590 C   0  0  2  0  0  3  0  0  0  0  0  0
  163.0480  206.5850  138.9680 C   0  0  0  0  0  2  0  0  0  0  0  0
  162.6000  208.9690  139.3430 C   0  0  0  0  0  2  0  0  0  0  0  0
  161.0570  209.4890  141.2150 C   0  0  0  0  0  2  0  0  0  0  0  0
  160.9550  210.8920  140.7210 C   0  0  0  0  0  0  0  0  0  0  0  0
  161.6720  211.7870  141.2330 O   0  0  0  0  0  1  0  0  0  0  0  0
  160.0850  211.2100  139.6860 O   0  0  0  0  0  0  0  0  0  0  0  0
  160.5870  211.0320  157.0990 N   0  0  0  0  0  1  0  0  0  0  0  0
  161.4960  209.9070  157.2420 C   0  0  0  0  0  2  0  0  0  0  0  0
  159.1290  201.9340  149.4850 C   0  0  0  0  0  3  0  0  0  0  0  0
  158.9920  202.6080  150.6280 C   0  0  0  0  0  3  0  0  0  0  0  0
  158.3100  200.7130  149.2110 C   0  0  2  0  0  3  0  0  0  0  0  0
  156.9320  201.1180  148.7160 C   0  0  0  0  0  1  0  0  0  0  0  0
  158.1700  199.9440  150.4320 N   0  0  0  0  0  1  0  0  0  0  0  0
  162.9480  201.3890  148.2660 C   0  0  0  0  0  2  0  0  0  0  0  0
  161.5890  199.7050  149.2910 O   0  0  0  0  0  0  0  0  0  0  0  0
  161.9830  200.2330  148.2140 C   0  0  0  0  0  0  0  0  0  0  0  0
  161.5830  199.6560  146.9050 C   0  0  0  0  0  0  0  0  0  0  0  0
  160.1710  199.6200  144.9140 C   0  0  0  0  0  0  0  0  0  0  0  0
  161.8370  197.8960  145.2370 C   0  0  0  0  0  3  0  0  0  0  0  0
  160.8120  198.4600  144.4730 C   0  0  0  0  0  3  0  0  0  0  0  0
  160.5500  200.2230  146.1220 C   0  0  0  0  0  0  0  0  0  0  0  0
  159.1670  200.1520  144.1710 F   0  0  0  0  0  0  0  0  0  0  0  0
  159.8950  201.3410  146.5290 F   0  0  0  0  0  0  0  0  0  0  0  0
  162.2180  198.4900  146.4440 C   0  0  0  0  0  3  0  0  0  0  0  0
  1 18  2  0  0  0  0
  1 27  1  0  0  0  0
  2 21  1  0  0  0  0
  3  5  1  0  0  0  0
  4 23  1  0  0  0  0
  5 20  1  6  0  0  0
  5 32  1  0  0  0  0
  6 34  2  0  0  0  0
  7 18  1  0  0  0  0
  7 22  2  0  0  0  0
  8 13  1  0  0  0  0
  9 21  1  0  0  0  0
 10 13  2  0  0  0  0
 10 49  1  0  0  0  0
 11  9  1  0  0  0  0
 12 15  1  0  0  0  0
 12 19  2  0  0  0  0
 14 31  1  0  0  0  0
 15  8  2  0  0  0  0
 16  4  3  0  0  0  0
 18 24  1  0  0  0  0
 19 10  1  0  0  0  0
 20 24  2  0  0  0  0
 21 55  1  6  0  0  0
 21 28  1  0  0  0  0
 22 20  1  0  0  0  0
 23  1  1  0  0  0  0
 24 34  1  0  0  0  0
 25 28  1  1  0  0  0
 25 22  1  0  0  0  0
 25 30  1  0  0  0  0
 26 33  1  0  0  0  0
 26  2  1  0  0  0  0
 27  6  1  0  0  0  0
 29 14  2  0  0  0  0
 29 17  1  0  0  0  0
 30 51  1  6  0  0  0
 30  3  1  0  0  0  0
 31 16  1  0  0  0  0
 32 15  1  0  0  0  0
 33 17  1  6  0  0  0
 33 11  1  0  0  0  0
 34 12  1  0  0  0  0
 35 36  1  6  0  0  0
 35 37  1  0  0  0  0
 36 37  1  0  0  0  0
 37 29  1  1  0  0  0
 38 39  1  1  0  0  0
 38 35  1  0  0  0  0
 40 42  1  0  0  0  0
 40 43  1  0  0  0  0
 41 38  1  0  0  0  0
 41 44  1  1  0  0  0
 42 39  1  0  0  0  0
 43 41  1  0  0  0  0
 45 44  1  0  0  0  0
 45 46  1  0  0  0  0
 47 45  2  0  0  0  0
 48 49  1  0  0  0  0
 50 51  2  0  0  0  0
 52 53  1  1  0  0  0
 52 50  1  0  0  0  0
 52 54  1  0  0  0  0
 57 55  1  0  0  0  0
 57 56  2  0  0  0  0
 58 57  1  0  0  0  0
 59 62  1  0  0  0  0
 60 65  2  0  0  0  0
 61 59  2  0  0  0  0
 61 60  1  0  0  0  0
 62 64  1  0  0  0  0
 62 58  2  0  0  0  0
 63 59  1  0  0  0  0
 65 58  1  0  0  0  0
M  END
>  <MODEL>
1

>  <REMARK>
 VINA RESULT:      22.0      0.000      0.000
  Name = 
  10 active torsions:
  status: ('A' for Active; 'I' for Inactive)
    1  A    between atoms: C_2  and  C_18
    2  A    between atoms: C_2  and  C_35
    3  A    between atoms: C_4  and  C_25
    4  A    between atoms: C_7  and  C_12
    5  A    between atoms: C_15  and  C_25
    6  A    between atoms: C_15  and  C_41
    7  A    between atoms: C_19  and  C_52
    8  A    between atoms: C_39  and  C_45
    9  A    between atoms: C_50  and  C_60
   10  A    between atoms: C_56  and  C_61
                            x       y       z     vdW  Elec       q    Type
                         _______ _______ _______ _____ _____    ______ ____

>  <TORSDO>
F 10

$$$$
=
 OpenBabel11042423023D

 65 74  0  0  1  0  0  0  0  0999 V2000
  161.7160  203.4340  150.5710 C   0  0  0  0  0  0  0  0  0  0  0  0
  161.4610  209.8520  148.5790 C   0  0  0  0  0  2  0  0  0  0  0  0
  161.0260  205.9780  145.2390 N   0  0  0  0  0  2  0  0  0  0  0  0
  161.0040  205.1580  152.1850 C   0  0  0  0  0  0  0  0  0  0  0  0
  161.3680  204.6550  145.8050 C   0  0  1  0  0  3  0  0  0  0  0  0
  161.5300  201.5390  149.1440 N   0  0  0  0  0  0  0  0  0  0  0  0
  161.5980  205.5790  149.3670 N   0  0  0  0  0  0  0  0  0  0  0  0
  160.1910  201.4910  144.4650 C   0  0  0  0  0  3  0  0  0  0  0  0
  163.4960  208.5350  149.3140 C   0  0  0  0  0  2  0  0  0  0  0  0
  161.0200  199.4820  145.5140 C   0  0  0  0  0  0  0  0  0  0  0  0
  162.6180  207.8600  150.1810 O   0  0  0  0  0  0  0  0  0  0  0  0
  161.1930  201.6170  146.6900 C   0  0  0  0  0  0  0  0  0  0  0  0
  160.4010  200.1130  144.4370 C   0  0  0  0  0  3  0  0  0  0  0  0
  159.8590  208.3670  153.2750 C   0  0  0  0  0  3  0  0  0  0  0  0
  160.5940  202.2600  145.5630 C   0  0  0  0  0  0  0  0  0  0  0  0
  160.3110  206.1410  152.2810 C   0  0  0  0  0  0  0  0  0  0  0  0
  162.1080  208.9150  152.2690 C   0  0  0  0  0  2  0  0  0  0  0  0
  161.7150  204.2400  149.4390 C   0  0  0  0  0  0  0  0  0  0  0  0
  161.3900  200.2260  146.6360 C   0  0  0  0  0  3  0  0  0  0  0  0
  161.5960  204.6970  147.2730 C   0  0  0  0  0  0  0  0  0  0  0  0
  162.7350  209.1190  148.1140 C   0  0  1  0  0  0  0  0  0  0  0  0
  161.5340  205.8440  148.0390 C   0  0  0  0  0  0  0  0  0  0  0  0
  161.8530  203.9780  151.9690 C   0  0  0  0  0  2  0  0  0  0  0  0
  161.6570  203.6480  148.1410 C   0  0  0  0  0  0  0  0  0  0  0  0
  161.1460  207.1610  147.4510 C   0  0  1  0  0  3  0  0  0  0  0  0
  161.4530  210.0790  150.0930 C   0  0  0  0  0  2  0  0  0  0  0  0
  161.6550  202.0850  150.3670 N   0  0  0  0  0  2  0  0  0  0  0  0
  162.3930  207.9950  147.1150 C   0  0  0  0  0  2  0  0  0  0  0  0
  160.9650  209.1380  153.2250 C   0  0  0  0  0  0  0  0  0  0  0  0
  160.3030  206.8470  146.1900 C   0  0  1  0  0  3  0  0  0  0  0  0
  159.4450  207.3220  152.2800 C   0  0  0  0  0  2  0  0  0  0  0  0
  160.3510  203.6710  145.4830 N   0  0  0  0  0  2  0  0  0  0  0  0
  161.7080  208.7460  150.8140 C   0  0  1  0  0  3  0  0  0  0  0  0
  161.4910  202.2810  147.9910 C   0  0  0  0  0  0  0  0  0  0  0  0
  161.1810  211.5240  153.8530 C   0  0  1  0  0  3  0  0  0  0  0  0
  162.3860  210.8370  154.0900 O   0  0  0  0  0  0  0  0  0  0  0  0
  161.1980  210.1200  154.3330 C   0  0  2  0  0  3  0  0  0  0  0  0
  160.8970  212.4640  155.0250 C   0  0  2  0  0  3  0  0  0  0  0  0
  160.6000  211.7280  156.1880 O   0  0  0  0  0  0  0  0  0  0  0  0
  159.7450  213.6910  157.2600 N   0  0  0  0  0  2  0  0  0  0  0  0
  159.8230  213.5570  154.7720 C   0  0  2  0  0  3  0  0  0  0  0  0
  160.7700  212.6270  157.2560 C   0  0  0  0  0  2  0  0  0  0  0  0
  158.9520  213.7200  156.0220 C   0  0  0  0  0  2  0  0  0  0  0  0
  158.9060  213.2930  153.5780 C   0  0  0  0  0  2  0  0  0  0  0  0
  157.6970  212.5280  153.9980 C   0  0  0  0  0  0  0  0  0  0  0  0
  157.7230  211.2730  154.0000 O   0  0  0  0  0  0  0  0  0  0  0  0
  156.5490  213.1980  154.4030 O   0  0  0  0  0  1  0  0  0  0  0  0
  161.8750  197.6150  144.2570 N   0  0  0  0  0  1  0  0  0  0  0  0
  161.2310  198.0080  145.5000 C   0  0  0  0  0  2  0  0  0  0  0  0
  160.4900  208.8700  144.7580 C   0  0  0  0  0  3  0  0  0  0  0  0
  159.7390  208.0600  145.5060 C   0  0  0  0  0  3  0  0  0  0  0  0
  159.8950  210.0630  144.0820 C   0  0  2  0  0  3  0  0  0  0  0  0
  160.8380  210.5690  143.0040 C   0  0  0  0  0  1  0  0  0  0  0  0
  159.6830  211.1130  145.0590 N   0  0  0  0  0  1  0  0  0  0  0  0
  163.6380  210.0920  147.3470 C   0  0  0  0  0  2  0  0  0  0  0  0
  164.2320  211.9450  148.7430 O   0  0  0  0  0  0  0  0  0  0  0  0
  163.5530  211.5390  147.7600 C   0  0  0  0  0  0  0  0  0  0  0  0
  162.5980  212.4510  147.0790 C   0  0  0  0  0  0  0  0  0  0  0  0
  160.5940  213.8470  147.0720 C   0  0  0  0  0  0  0  0  0  0  0  0
  161.8560  213.5430  145.0290 C   0  0  0  0  0  3  0  0  0  0  0  0
  160.7710  214.1020  145.7090 C   0  0  0  0  0  3  0  0  0  0  0  0
  161.5010  213.0270  147.7610 C   0  0  0  0  0  0  0  0  0  0  0  0
  159.5290  214.3840  147.7190 F   0  0  0  0  0  0  0  0  0  0  0  0
  161.2900  212.7860  149.0810 F   0  0  0  0  0  0  0  0  0  0  0  0
  162.7610  212.7230  145.7100 C   0  0  0  0  0  3  0  0  0  0  0  0
  1 23  1  0  0  0  0
  2 26  1  0  0  0  0
  3 30  1  0  0  0  0
  4 16  3  0  0  0  0
  5  3  1  1  0  0  0
  5 20  1  0  0  0  0
  6 27  1  0  0  0  0
  7 18  1  0  0  0  0
  8 15  1  0  0  0  0
  9 11  1  0  0  0  0
 10 19  2  0  0  0  0
 11 33  1  0  0  0  0
 12 34  1  0  0  0  0
 13  8  2  0  0  0  0
 13 10  1  0  0  0  0
 15 12  2  0  0  0  0
 17 29  1  0  0  0  0
 18  1  2  0  0  0  0
 19 12  1  0  0  0  0
 20 22  1  0  0  0  0
 20 24  2  0  0  0  0
 21 55  1  6  0  0  0
 21  2  1  0  0  0  0
 21  9  1  0  0  0  0
 22  7  2  0  0  0  0
 23  4  1  0  0  0  0
 24 18  1  0  0  0  0
 25 28  1  6  0  0  0
 25 22  1  0  0  0  0
 27  1  1  0  0  0  0
 28 21  1  0  0  0  0
 29 14  2  0  0  0  0
 30 51  1  6  0  0  0
 30 25  1  0  0  0  0
 31 16  1  0  0  0  0
 31 14  1  0  0  0  0
 32 15  1  0  0  0  0
 32  5  1  0  0  0  0
 33 26  1  6  0  0  0
 33 17  1  0  0  0  0
 34 24  1  0  0  0  0
 34  6  2  0  0  0  0
 35 36  1  1  0  0  0
 35 37  1  0  0  0  0
 35 38  1  0  0  0  0
 36 37  1  0  0  0  0
 37 29  1  6  0  0  0
 38 39  1  1  0  0  0
 39 42  1  0  0  0  0
 41 44  1  6  0  0  0
 41 38  1  0  0  0  0
 41 43  1  0  0  0  0
 42 40  1  0  0  0  0
 43 40  1  0  0  0  0
 44 45  1  0  0  0  0
 45 46  2  0  0  0  0
 45 47  1  0  0  0  0
 48 49  1  0  0  0  0
 49 10  1  0  0  0  0
 50 51  2  0  0  0  0
 52 53  1  6  0  0  0
 52 50  1  0  0  0  0
 52 54  1  0  0  0  0
 55 57  1  0  0  0  0
 57 56  2  0  0  0  0
 58 57  1  0  0  0  0
 58 62  1  0  0  0  0
 59 63  1  0  0  0  0
 59 62  2  0  0  0  0
 60 61  2  0  0  0  0
 60 65  1  0  0  0  0
 61 59  1  0  0  0  0
 62 64  1  0  0  0  0
 65 58  2  0  0  0  0
M  END
>  <MODEL>
2

>  <REMARK>
 VINA RESULT:      24.4      4.581     11.289
  Name = 
  10 active torsions:
  status: ('A' for Active; 'I' for Inactive)
    1  A    between atoms: C_2  and  C_18
    2  A    between atoms: C_2  and  C_35
    3  A    between atoms: C_4  and  C_25
    4  A    between atoms: C_7  and  C_12
    5  A    between atoms: C_15  and  C_25
    6  A    between atoms: C_15  and  C_41
    7  A    between atoms: C_19  and  C_52
    8  A    between atoms: C_39  and  C_45
    9  A    between atoms: C_50  and  C_60
   10  A    between atoms: C_56  and  C_61
                            x       y       z     vdW  Elec       q    Type
                         _______ _______ _______ _____ _____    ______ ____

>  <TORSDO>
F 10

$$$$
