=
 OpenBabel11042422533D

 29 31  0  0  1  0  0  0  0  0999 V2000
  161.0870  208.6710  153.6070 C   0  0  0  0  0  0  0  0  0  0  0  0
  159.9170  206.9180  156.6260 N   0  0  0  0  0  1  0  0  0  0  0  0
  160.6900  206.0480  154.4840 C   0  0  0  0  0  3  0  0  0  0  0  0
  160.6200  208.4000  154.8630 N   0  0  0  0  0  0  0  0  0  0  0  0
  161.3870  207.5840  152.7470 C   0  0  0  0  0  0  0  0  0  0  0  0
  160.4100  207.1350  155.3090 C   0  0  0  0  0  0  0  0  0  0  0  0
  161.1840  206.2790  153.2010 C   0  0  0  0  0  3  0  0  0  0  0  0
  162.4400  210.1790  152.3490 O   0  0  0  0  0  1  0  0  0  0  0  0
  161.3270  210.1160  153.1970 C   0  0  2  0  0  0  0  0  0  0  0  0
  161.5890  210.9200  154.4400 C   0  0  0  0  0  3  0  0  0  0  0  0
  162.6080  210.7630  155.0960 O   0  0  0  0  0  0  0  0  0  0  0  0
  160.1050  210.6780  152.4520 C   0  0  0  0  0  2  0  0  0  0  0  0
  158.5120  212.4550  152.3390 C   0  0  0  0  0  2  0  0  0  0  0  0
  158.3200  211.8230  153.6750 N   0  0  0  0  0  0  0  0  0  0  0  0
  159.6390  212.0190  153.0040 C   0  0  1  0  0  3  0  0  0  0  0  0
  157.5080  211.3580  154.7470 C   0  0  0  0  0  0  0  0  0  0  0  0
  158.0360  210.7650  155.7230 O   0  0  0  0  0  0  0  0  0  0  0  0
  156.0390  211.5890  154.7220 C   0  0  0  0  0  2  0  0  0  0  0  0
  155.3730  210.3920  154.9880 O   0  0  0  0  0  1  0  0  0  0  0  0
  161.9800  207.7780  151.3880 C   0  0  0  0  0  2  0  0  0  0  0  0
  161.0160  207.3840  150.3700 N   0  0  0  0  0  2  0  0  0  0  0  0
  162.0180  205.4600  147.3340 C   0  0  0  0  0  3  0  0  0  0  0  0
  160.8510  204.9850  149.8290 C   0  0  0  0  0  3  0  0  0  0  0  0
  161.6380  204.1630  147.6920 C   0  0  0  0  0  3  0  0  0  0  0  0
  162.1910  207.8070  147.8480 O   0  0  0  0  0  1  0  0  0  0  0  0
  161.0550  203.9260  148.9400 C   0  0  0  0  0  0  0  0  0  0  0  0
  160.6370  202.5500  149.3150 C   0  0  0  0  0  1  0  0  0  0  0  0
  161.8170  206.5220  148.2220 C   0  0  0  0  0  0  0  0  0  0  0  0
  161.2290  206.2900  149.4750 C   0  0  0  0  0  0  0  0  0  0  0  0
  1  4  1  0  0  0  0
  3  6  1  0  0  0  0
  4  6  2  0  0  0  0
  5  7  1  0  0  0  0
  5  1  2  0  0  0  0
  6  2  1  0  0  0  0
  7  3  2  0  0  0  0
  9  8  1  6  0  0  0
  9  1  1  0  0  0  0
  9 10  1  0  0  0  0
 10 11  2  0  0  0  0
 12  9  1  0  0  0  0
 13 15  1  0  0  0  0
 13 14  1  0  0  0  0
 14 16  1  0  0  0  0
 15 12  1  6  0  0  0
 15 14  1  0  0  0  0
 16 17  2  0  0  0  0
 18 16  1  0  0  0  0
 18 19  1  0  0  0  0
 20  5  1  0  0  0  0
 21 20  1  0  0  0  0
 22 24  2  0  0  0  0
 22 28  1  0  0  0  0
 24 26  1  0  0  0  0
 25 28  1  0  0  0  0
 26 27  1  0  0  0  0
 26 23  2  0  0  0  0
 28 29  2  0  0  0  0
 29 23  1  0  0  0  0
 29 21  1  0  0  0  0
M  END
>  <MODEL>
1

>  <REMARK>
 VINA RESULT:      -7.8      0.000      0.000
  Name = 
  8 active torsions:
  status: ('A' for Active; 'I' for Inactive)
    1  A    between atoms: C_2  and  C_25
    2  A    between atoms: C_8  and  C_25
    3  A    between atoms: C_11  and  C_17
    4  A    between atoms: C_12  and  C_27
    5  A    between atoms: C_14  and  C_22
    6  A    between atoms: C_21  and  N_24
    7  A    between atoms: C_22  and  C_25
    8  A    between atoms: N_24  and  C_27
                            x       y       z     vdW  Elec       q    Type
                         _______ _______ _______ _____ _____    ______ ____

>  <TORSDO>
F 8

$$$$
=
 OpenBabel11042422533D

 29 31  0  0  1  0  0  0  0  0999 V2000
  161.3230  208.6680  152.9780 C   0  0  0  0  0  0  0  0  0  0  0  0
  160.0440  207.4550  156.2100 N   0  0  0  0  0  1  0  0  0  0  0  0
  160.7470  206.2330  154.2200 C   0  0  0  0  0  3  0  0  0  0  0  0
  160.8420  208.6140  154.2560 N   0  0  0  0  0  0  0  0  0  0  0  0
  161.5440  207.4500  152.2850 C   0  0  0  0  0  0  0  0  0  0  0  0
  160.5460  207.4450  154.8780 C   0  0  0  0  0  0  0  0  0  0  0  0
  161.2520  206.2410  152.9210 C   0  0  0  0  0  3  0  0  0  0  0  0
  163.0450  210.2240  152.4320 O   0  0  0  0  0  1  0  0  0  0  0  0
  161.6620  210.0180  152.3640 C   0  0  2  0  0  0  0  0  0  0  0  0
  160.9500  211.0840  153.1510 C   0  0  0  0  0  3  0  0  0  0  0  0
  160.2010  211.8810  152.6070 O   0  0  0  0  0  0  0  0  0  0  0  0
  161.2250  210.0700  150.8910 C   0  0  0  0  0  2  0  0  0  0  0  0
  162.0400  210.4140  148.6710 C   0  0  0  0  0  2  0  0  0  0  0  0
  161.5360  211.7400  149.1280 N   0  0  0  0  0  0  0  0  0  0  0  0
  162.2480  210.7520  149.9920 C   0  0  1  0  0  3  0  0  0  0  0  0
  160.8650  212.9770  148.9180 C   0  0  0  0  0  0  0  0  0  0  0  0
  160.6920  213.7690  149.8800 O   0  0  0  0  0  0  0  0  0  0  0  0
  160.3860  213.3410  147.5570 C   0  0  0  0  0  2  0  0  0  0  0  0
  161.4420  213.2500  146.6500 O   0  0  0  0  0  1  0  0  0  0  0  0
  162.1440  207.4040  150.9170 C   0  0  0  0  0  2  0  0  0  0  0  0
  161.1450  206.9580  149.9560 N   0  0  0  0  0  2  0  0  0  0  0  0
  161.7850  204.4970  147.2260 C   0  0  0  0  0  3  0  0  0  0  0  0
  160.8620  204.5110  149.8640 C   0  0  0  0  0  3  0  0  0  0  0  0
  161.4080  203.2990  147.8410 C   0  0  0  0  0  3  0  0  0  0  0  0
  162.0710  206.8880  147.2990 O   0  0  0  0  0  1  0  0  0  0  0  0
  160.9470  203.3070  149.1600 C   0  0  0  0  0  0  0  0  0  0  0  0
  160.5330  202.0360  149.8100 C   0  0  0  0  0  1  0  0  0  0  0  0
  161.7020  205.7040  147.9270 C   0  0  0  0  0  0  0  0  0  0  0  0
  161.2370  205.7170  149.2510 C   0  0  0  0  0  0  0  0  0  0  0  0
  1  4  1  0  0  0  0
  3  6  1  0  0  0  0
  4  6  2  0  0  0  0
  5  7  1  0  0  0  0
  5  1  2  0  0  0  0
  6  2  1  0  0  0  0
  7  3  2  0  0  0  0
  9  8  1  1  0  0  0
  9  1  1  0  0  0  0
  9 10  1  0  0  0  0
 11 10  2  0  0  0  0
 12  9  1  0  0  0  0
 13 14  1  0  0  0  0
 13 15  1  0  0  0  0
 14 15  1  0  0  0  0
 15 12  1  1  0  0  0
 16 14  1  0  0  0  0
 16 17  2  0  0  0  0
 18 16  1  0  0  0  0
 19 18  1  0  0  0  0
 20  5  1  0  0  0  0
 21 20  1  0  0  0  0
 22 24  2  0  0  0  0
 22 28  1  0  0  0  0
 24 26  1  0  0  0  0
 25 28  1  0  0  0  0
 26 27  1  0  0  0  0
 26 23  2  0  0  0  0
 28 29  2  0  0  0  0
 29 23  1  0  0  0  0
 29 21  1  0  0  0  0
M  END
>  <MODEL>
2

>  <REMARK>
 VINA RESULT:      -7.4      2.391      3.683
  Name = 
  8 active torsions:
  status: ('A' for Active; 'I' for Inactive)
    1  A    between atoms: C_2  and  C_25
    2  A    between atoms: C_8  and  C_25
    3  A    between atoms: C_11  and  C_17
    4  A    between atoms: C_12  and  C_27
    5  A    between atoms: C_14  and  C_22
    6  A    between atoms: C_21  and  N_24
    7  A    between atoms: C_22  and  C_25
    8  A    between atoms: N_24  and  C_27
                            x       y       z     vdW  Elec       q    Type
                         _______ _______ _______ _____ _____    ______ ____

>  <TORSDO>
F 8

$$$$
=
 OpenBabel11042422533D

 29 31  0  0  1  0  0  0  0  0999 V2000
  161.0280  208.9010  153.5460 C   0  0  0  0  0  0  0  0  0  0  0  0
  159.8330  209.2650  157.0090 N   0  0  0  0  0  1  0  0  0  0  0  0
  160.3510  207.2680  155.7080 C   0  0  0  0  0  3  0  0  0  0  0  0
  160.6090  209.4290  154.7360 N   0  0  0  0  0  0  0  0  0  0  0  0
  161.1310  207.4920  153.4280 C   0  0  0  0  0  0  0  0  0  0  0  0
  160.2660  208.6560  155.7980 C   0  0  0  0  0  0  0  0  0  0  0  0
  160.7900  206.6900  154.5180 C   0  0  0  0  0  3  0  0  0  0  0  0
  162.7810  210.1660  152.5400 O   0  0  0  0  0  1  0  0  0  0  0  0
  161.4260  209.8380  152.4150 C   0  0  2  0  0  0  0  0  0  0  0  0
  160.5890  211.0830  152.5180 C   0  0  0  0  0  3  0  0  0  0  0  0
  159.3700  211.0370  152.4450 O   0  0  0  0  0  0  0  0  0  0  0  0
  161.2050  209.1650  151.0500 C   0  0  0  0  0  2  0  0  0  0  0  0
  162.0030  208.9730  148.8060 C   0  0  0  0  0  2  0  0  0  0  0  0
  161.8400  210.4340  149.0550 N   0  0  0  0  0  0  0  0  0  0  0  0
  162.3290  209.4440  150.0610 C   0  0  1  0  0  3  0  0  0  0  0  0
  161.4720  211.7490  148.6570 C   0  0  0  0  0  0  0  0  0  0  0  0
  161.5210  212.6930  149.4870 O   0  0  0  0  0  0  0  0  0  0  0  0
  161.0460  212.0110  147.2560 C   0  0  0  0  0  2  0  0  0  0  0  0
  160.0020  212.9360  147.2500 O   0  0  0  0  0  1  0  0  0  0  0  0
  161.6570  206.8280  152.1960 C   0  0  0  0  0  2  0  0  0  0  0  0
  160.9580  205.5690  151.9790 N   0  0  0  0  0  2  0  0  0  0  0  0
  161.0560  202.7300  149.5590 C   0  0  0  0  0  3  0  0  0  0  0  0
  161.0930  205.5250  149.5180 C   0  0  0  0  0  3  0  0  0  0  0  0
  161.1380  203.4110  148.3400 C   0  0  0  0  0  3  0  0  0  0  0  0
  160.9200  202.7550  151.9640 O   0  0  0  0  0  1  0  0  0  0  0  0
  161.1560  204.8070  148.3200 C   0  0  0  0  0  0  0  0  0  0  0  0
  161.2580  205.5310  147.0260 C   0  0  0  0  0  1  0  0  0  0  0  0
  160.9910  203.4450  150.7600 C   0  0  0  0  0  0  0  0  0  0  0  0
  161.0120  204.8480  150.7450 C   0  0  0  0  0  0  0  0  0  0  0  0
  1  4  1  0  0  0  0
  3  6  1  0  0  0  0
  4  6  2  0  0  0  0
  5  1  2  0  0  0  0
  5  7  1  0  0  0  0
  6  2  1  0  0  0  0
  7  3  2  0  0  0  0
  9 10  1  0  0  0  0
  9  8  1  1  0  0  0
  9  1  1  0  0  0  0
 11 10  2  0  0  0  0
 12  9  1  0  0  0  0
 13 14  1  0  0  0  0
 13 15  1  0  0  0  0
 14 15  1  0  0  0  0
 15 12  1  1  0  0  0
 16 14  1  0  0  0  0
 16 17  2  0  0  0  0
 18 16  1  0  0  0  0
 19 18  1  0  0  0  0
 20  5  1  0  0  0  0
 21 20  1  0  0  0  0
 22 28  1  0  0  0  0
 23 29  1  0  0  0  0
 24 22  2  0  0  0  0
 26 24  1  0  0  0  0
 26 23  2  0  0  0  0
 27 26  1  0  0  0  0
 28 25  1  0  0  0  0
 29 28  2  0  0  0  0
 29 21  1  0  0  0  0
M  END
>  <MODEL>
3

>  <REMARK>
 VINA RESULT:      -7.3      2.620      4.226
  Name = 
  8 active torsions:
  status: ('A' for Active; 'I' for Inactive)
    1  A    between atoms: C_2  and  C_25
    2  A    between atoms: C_8  and  C_25
    3  A    between atoms: C_11  and  C_17
    4  A    between atoms: C_12  and  C_27
    5  A    between atoms: C_14  and  C_22
    6  A    between atoms: C_21  and  N_24
    7  A    between atoms: C_22  and  C_25
    8  A    between atoms: N_24  and  C_27
                            x       y       z     vdW  Elec       q    Type
                         _______ _______ _______ _____ _____    ______ ____

>  <TORSDO>
F 8

$$$$
=
 OpenBabel11042422533D

 29 31  0  0  1  0  0  0  0  0999 V2000
  161.3730  204.3190  148.0230 C   0  0  0  0  0  0  0  0  0  0  0  0
  160.7120  201.2190  149.8950 N   0  0  0  0  0  1  0  0  0  0  0  0
  160.5750  203.5530  150.5880 C   0  0  0  0  0  3  0  0  0  0  0  0
  161.2240  203.0020  148.3610 N   0  0  0  0  0  0  0  0  0  0  0  0
  161.0980  205.3060  149.0030 C   0  0  0  0  0  0  0  0  0  0  0  0
  160.8460  202.6050  149.6030 C   0  0  0  0  0  0  0  0  0  0  0  0
  160.6990  204.9070  150.2800 C   0  0  0  0  0  3  0  0  0  0  0  0
  163.1010  205.1080  146.5810 O   0  0  0  0  0  1  0  0  0  0  0  0
  161.7670  204.6820  146.5990 C   0  0  2  0  0  0  0  0  0  0  0  0
  160.8710  205.7960  146.1330 C   0  0  0  0  0  3  0  0  0  0  0  0
  160.4930  205.8640  144.9730 O   0  0  0  0  0  0  0  0  0  0  0  0
  161.6240  203.4650  145.6690 C   0  0  0  0  0  2  0  0  0  0  0  0
  159.8720  202.1940  144.6580 C   0  0  0  0  0  2  0  0  0  0  0  0
  160.5340  201.2730  145.6250 N   0  0  0  0  0  0  0  0  0  0  0  0
  160.3020  202.7310  145.8530 C   0  0  1  0  0  3  0  0  0  0  0  0
  161.0330  200.0000  146.0170 C   0  0  0  0  0  0  0  0  0  0  0  0
  161.6360  199.8740  147.1140 O   0  0  0  0  0  0  0  0  0  0  0  0
  160.8270  198.8180  145.1390 C   0  0  0  0  0  2  0  0  0  0  0  0
  161.9590  198.0030  145.1780 O   0  0  0  0  0  1  0  0  0  0  0  0
  161.1540  206.7700  148.7030 C   0  0  0  0  0  2  0  0  0  0  0  0
  162.1350  207.4120  149.5650 N   0  0  0  0  0  2  0  0  0  0  0  0
  161.4540  210.1470  152.0090 C   0  0  0  0  0  3  0  0  0  0  0  0
  161.4650  207.3540  151.9360 C   0  0  0  0  0  3  0  0  0  0  0  0
  161.1340  209.4170  153.1570 C   0  0  0  0  0  3  0  0  0  0  0  0
  162.1060  210.2240  149.6910 O   0  0  0  0  0  1  0  0  0  0  0  0
  161.1390  208.0200  153.1210 C   0  0  0  0  0  0  0  0  0  0  0  0
  160.8120  207.2430  154.3450 C   0  0  0  0  0  1  0  0  0  0  0  0
  161.7800  209.4840  150.8220 C   0  0  0  0  0  0  0  0  0  0  0  0
  161.7890  208.0810  150.7800 C   0  0  0  0  0  0  0  0  0  0  0  0
  1  4  2  0  0  0  0
  1  5  1  0  0  0  0
  4  6  1  0  0  0  0
  5  7  2  0  0  0  0
  6  2  1  0  0  0  0
  6  3  2  0  0  0  0
  7  3  1  0  0  0  0
  9  8  1  6  0  0  0
  9  1  1  0  0  0  0
 10  9  1  0  0  0  0
 11 10  2  0  0  0  0
 12  9  1  0  0  0  0
 13 14  1  0  0  0  0
 13 15  1  0  0  0  0
 14 15  1  0  0  0  0
 14 16  1  0  0  0  0
 15 12  1  6  0  0  0
 16 17  2  0  0  0  0
 18 19  1  0  0  0  0
 18 16  1  0  0  0  0
 20  5  1  0  0  0  0
 20 21  1  0  0  0  0
 21 29  1  0  0  0  0
 22 24  1  0  0  0  0
 23 26  1  0  0  0  0
 25 28  1  0  0  0  0
 26 24  2  0  0  0  0
 26 27  1  0  0  0  0
 28 22  2  0  0  0  0
 29 28  1  0  0  0  0
 29 23  2  0  0  0  0
M  END
>  <MODEL>
4

>  <REMARK>
 VINA RESULT:      -7.2      3.789      9.245
  Name = 
  8 active torsions:
  status: ('A' for Active; 'I' for Inactive)
    1  A    between atoms: C_2  and  C_25
    2  A    between atoms: C_8  and  C_25
    3  A    between atoms: C_11  and  C_17
    4  A    between atoms: C_12  and  C_27
    5  A    between atoms: C_14  and  C_22
    6  A    between atoms: C_21  and  N_24
    7  A    between atoms: C_22  and  C_25
    8  A    between atoms: N_24  and  C_27
                            x       y       z     vdW  Elec       q    Type
                         _______ _______ _______ _____ _____    ______ ____

>  <TORSDO>
F 8

$$$$
=
 OpenBabel11042422533D

 29 31  0  0  1  0  0  0  0  0999 V2000
  160.9840  205.0590  149.6910 C   0  0  0  0  0  0  0  0  0  0  0  0
  160.9030  206.2110  146.1960 N   0  0  0  0  0  1  0  0  0  0  0  0
  161.5380  207.3810  148.2400 C   0  0  0  0  0  3  0  0  0  0  0  0
  160.8310  205.1060  148.3330 N   0  0  0  0  0  0  0  0  0  0  0  0
  161.4490  206.2190  150.3610 C   0  0  0  0  0  0  0  0  0  0  0  0
  161.0850  206.2240  147.6070 C   0  0  0  0  0  0  0  0  0  0  0  0
  161.7220  207.3710  149.6210 C   0  0  0  0  0  3  0  0  0  0  0  0
  159.6760  203.9520  151.3500 O   0  0  0  0  0  1  0  0  0  0  0  0
  160.7100  203.7560  150.4270 C   0  0  2  0  0  0  0  0  0  0  0  0
  161.9660  203.3520  151.1500 C   0  0  0  0  0  3  0  0  0  0  0  0
  161.9530  202.4830  152.0090 O   0  0  0  0  0  0  0  0  0  0  0  0
  160.2910  202.6530  149.4410 C   0  0  0  0  0  2  0  0  0  0  0  0
  161.2050  200.5740  148.6990 C   0  0  0  0  0  2  0  0  0  0  0  0
  161.0860  201.4220  147.4790 N   0  0  0  0  0  0  0  0  0  0  0  0
  161.4790  201.9190  148.8310 C   0  0  1  0  0  3  0  0  0  0  0  0
  160.7920  201.6180  146.1010 C   0  0  0  0  0  0  0  0  0  0  0  0
  160.8320  202.7760  145.6090 O   0  0  0  0  0  0  0  0  0  0  0  0
  160.4560  200.4530  145.2390 C   0  0  0  0  0  2  0  0  0  0  0  0
  161.2070  199.3460  145.6360 O   0  0  0  0  0  1  0  0  0  0  0  0
  161.7250  206.2380  151.8310 C   0  0  0  0  0  2  0  0  0  0  0  0
  161.8980  207.6120  152.2810 N   0  0  0  0  0  2  0  0  0  0  0  0
  160.0840  210.0360  154.4620 C   0  0  0  0  0  3  0  0  0  0  0  0
  160.9750  207.3890  154.5560 C   0  0  0  0  0  3  0  0  0  0  0  0
  159.8610  209.2630  155.6050 C   0  0  0  0  0  3  0  0  0  0  0  0
  160.9770  210.2710  152.2370 O   0  0  0  0  0  1  0  0  0  0  0  0
  160.3060  207.9400  155.6520 C   0  0  0  0  0  0  0  0  0  0  0  0
  160.0810  207.1220  156.8720 C   0  0  0  0  0  1  0  0  0  0  0  0
  160.7530  209.4880  153.3620 C   0  0  0  0  0  0  0  0  0  0  0  0
  161.2050  208.1590  153.4050 C   0  0  0  0  0  0  0  0  0  0  0  0
  1  5  1  0  0  0  0
  1  9  1  0  0  0  0
  2  6  1  0  0  0  0
  3  7  1  0  0  0  0
  4  1  2  0  0  0  0
  5 20  1  0  0  0  0
  6  3  2  0  0  0  0
  6  4  1  0  0  0  0
  7  5  2  0  0  0  0
  9 10  1  0  0  0  0
  9  8  1  1  0  0  0
 10 11  2  0  0  0  0
 12  9  1  0  0  0  0
 13 15  1  0  0  0  0
 14 13  1  0  0  0  0
 14 15  1  0  0  0  0
 15 12  1  1  0  0  0
 16 14  1  0  0  0  0
 17 16  2  0  0  0  0
 18 19  1  0  0  0  0
 18 16  1  0  0  0  0
 20 21  1  0  0  0  0
 21 29  1  0  0  0  0
 22 24  1  0  0  0  0
 23 26  1  0  0  0  0
 24 26  2  0  0  0  0
 25 28  1  0  0  0  0
 26 27  1  0  0  0  0
 28 29  1  0  0  0  0
 28 22  2  0  0  0  0
 29 23  2  0  0  0  0
M  END
>  <MODEL>
5

>  <REMARK>
 VINA RESULT:      -7.0      3.381      8.958
  Name = 
  8 active torsions:
  status: ('A' for Active; 'I' for Inactive)
    1  A    between atoms: C_2  and  C_25
    2  A    between atoms: C_8  and  C_25
    3  A    between atoms: C_11  and  C_17
    4  A    between atoms: C_12  and  C_27
    5  A    between atoms: C_14  and  C_22
    6  A    between atoms: C_21  and  N_24
    7  A    between atoms: C_22  and  C_25
    8  A    between atoms: N_24  and  C_27
                            x       y       z     vdW  Elec       q    Type
                         _______ _______ _______ _____ _____    ______ ____

>  <TORSDO>
F 8

$$$$
=
 OpenBabel11042422533D

 29 31  0  0  1  0  0  0  0  0999 V2000
  161.3600  207.5950  152.2890 C   0  0  0  0  0  0  0  0  0  0  0  0
  160.3990  208.3250  155.7670 N   0  0  0  0  0  1  0  0  0  0  0  0
  160.8120  206.1990  154.6460 C   0  0  0  0  0  3  0  0  0  0  0  0
  161.0250  208.2460  153.4440 N   0  0  0  0  0  0  0  0  0  0  0  0
  161.4410  206.1790  152.3090 C   0  0  0  0  0  0  0  0  0  0  0  0
  160.7460  207.5900  154.5990 C   0  0  0  0  0  0  0  0  0  0  0  0
  161.1650  205.4960  153.4950 C   0  0  0  0  0  3  0  0  0  0  0  0
  163.0810  208.4920  150.9050 O   0  0  0  0  0  1  0  0  0  0  0  0
  161.6910  208.4060  151.0450 C   0  0  2  0  0  0  0  0  0  0  0  0
  161.1100  209.7830  151.2140 C   0  0  0  0  0  3  0  0  0  0  0  0
  161.6330  210.7600  150.6980 O   0  0  0  0  0  0  0  0  0  0  0  0
  161.1070  207.7370  149.7900 C   0  0  0  0  0  2  0  0  0  0  0  0
  162.9390  207.8080  148.2580 C   0  0  0  0  0  2  0  0  0  0  0  0
  161.8070  207.1950  147.5070 N   0  0  0  0  0  0  0  0  0  0  0  0
  161.6750  208.3060  148.4960 C   0  0  1  0  0  3  0  0  0  0  0  0
  161.2630  206.2560  146.5870 C   0  0  0  0  0  0  0  0  0  0  0  0
  160.0190  206.2030  146.4060 O   0  0  0  0  0  0  0  0  0  0  0  0
  162.1660  205.3500  145.8270 C   0  0  0  0  0  2  0  0  0  0  0  0
  161.5940  205.0490  144.5910 O   0  0  0  0  0  1  0  0  0  0  0  0
  161.8780  205.3860  151.1190 C   0  0  0  0  0  2  0  0  0  0  0  0
  160.7450  204.6530  150.5730 N   0  0  0  0  0  2  0  0  0  0  0  0
  161.2060  200.9910  150.0270 C   0  0  0  0  0  3  0  0  0  0  0  0
  160.8250  203.3070  148.5090 C   0  0  0  0  0  3  0  0  0  0  0  0
  161.1560  200.9120  148.6320 C   0  0  0  0  0  3  0  0  0  0  0  0
  161.1270  202.2900  152.0540 O   0  0  0  0  0  1  0  0  0  0  0  0
  160.9650  202.0700  147.8730 C   0  0  0  0  0  0  0  0  0  0  0  0
  160.9260  201.9890  146.3900 C   0  0  0  0  0  1  0  0  0  0  0  0
  161.0650  202.2260  150.6670 C   0  0  0  0  0  0  0  0  0  0  0  0
  160.8760  203.3930  149.9100 C   0  0  0  0  0  0  0  0  0  0  0  0
  1  5  2  0  0  0  0
  1  4  1  0  0  0  0
  4  6  2  0  0  0  0
  5  7  1  0  0  0  0
  6  3  1  0  0  0  0
  6  2  1  0  0  0  0
  7  3  2  0  0  0  0
  9  8  1  6  0  0  0
  9 10  1  0  0  0  0
  9  1  1  0  0  0  0
 11 10  2  0  0  0  0
 12  9  1  0  0  0  0
 13 15  1  0  0  0  0
 14 13  1  0  0  0  0
 14 15  1  0  0  0  0
 15 12  1  1  0  0  0
 16 14  1  0  0  0  0
 17 16  2  0  0  0  0
 18 16  1  0  0  0  0
 19 18  1  0  0  0  0
 20  5  1  0  0  0  0
 21 20  1  0  0  0  0
 22 28  1  0  0  0  0
 23 29  1  0  0  0  0
 24 22  2  0  0  0  0
 26 23  2  0  0  0  0
 26 24  1  0  0  0  0
 27 26  1  0  0  0  0
 28 25  1  0  0  0  0
 29 21  1  0  0  0  0
 29 28  2  0  0  0  0
M  END
>  <MODEL>
6

>  <REMARK>
 VINA RESULT:      -7.0      3.143      5.708
  Name = 
  8 active torsions:
  status: ('A' for Active; 'I' for Inactive)
    1  A    between atoms: C_2  and  C_25
    2  A    between atoms: C_8  and  C_25
    3  A    between atoms: C_11  and  C_17
    4  A    between atoms: C_12  and  C_27
    5  A    between atoms: C_14  and  C_22
    6  A    between atoms: C_21  and  N_24
    7  A    between atoms: C_22  and  C_25
    8  A    between atoms: N_24  and  C_27
                            x       y       z     vdW  Elec       q    Type
                         _______ _______ _______ _____ _____    ______ ____

>  <TORSDO>
F 8

$$$$
=
 OpenBabel11042422533D

 29 31  0  0  1  0  0  0  0  0999 V2000
  160.5820  209.2690  154.3880 C   0  0  0  0  0  0  0  0  0  0  0  0
  160.2490  206.9720  157.2460 N   0  0  0  0  0  1  0  0  0  0  0  0
  160.6120  206.5180  154.8780 C   0  0  0  0  0  3  0  0  0  0  0  0
  160.4220  208.7650  155.6490 N   0  0  0  0  0  0  0  0  0  0  0  0
  160.7810  208.3610  153.3170 C   0  0  0  0  0  0  0  0  0  0  0  0
  160.4240  207.4340  155.9120 C   0  0  0  0  0  0  0  0  0  0  0  0
  160.7950  206.9900  153.5780 C   0  0  0  0  0  3  0  0  0  0  0  0
  161.5870  211.1050  153.2460 O   0  0  0  0  0  1  0  0  0  0  0  0
  160.6010  210.7760  154.1840 C   0  0  2  0  0  0  0  0  0  0  0  0
  160.9180  211.4250  155.5030 C   0  0  0  0  0  3  0  0  0  0  0  0
  160.0670  212.0390  156.1290 O   0  0  0  0  0  0  0  0  0  0  0  0
  159.2400  211.2710  153.6650 C   0  0  0  0  0  2  0  0  0  0  0  0
  158.6550  212.5270  151.7200 C   0  0  0  0  0  2  0  0  0  0  0  0
  157.9750  213.2060  152.8590 N   0  0  0  0  0  0  0  0  0  0  0  0
  159.3360  212.5940  152.9170 C   0  0  1  0  0  3  0  0  0  0  0  0
  156.8720  213.8820  153.4500 C   0  0  0  0  0  0  0  0  0  0  0  0
  156.9040  214.1900  154.6700 O   0  0  0  0  0  0  0  0  0  0  0  0
  155.6890  214.2400  152.6220 C   0  0  0  0  0  2  0  0  0  0  0  0
  154.5380  213.6890  153.1880 O   0  0  0  0  0  1  0  0  0  0  0  0
  161.0460  208.8190  151.9180 C   0  0  0  0  0  2  0  0  0  0  0  0
  162.0170  207.9370  151.2870 N   0  0  0  0  0  2  0  0  0  0  0  0
  161.3800  206.9030  147.7590 C   0  0  0  0  0  3  0  0  0  0  0  0
  161.4220  205.7550  150.3070 C   0  0  0  0  0  3  0  0  0  0  0  0
  161.0910  205.5440  147.9190 C   0  0  0  0  0  3  0  0  0  0  0  0
  161.9650  209.0420  148.6990 O   0  0  0  0  0  1  0  0  0  0  0  0
  161.1130  204.9700  149.1920 C   0  0  0  0  0  0  0  0  0  0  0  0
  160.7930  203.5290  149.3640 C   0  0  0  0  0  1  0  0  0  0  0  0
  161.6910  207.6910  148.8720 C   0  0  0  0  0  0  0  0  0  0  0  0
  161.7110  207.1200  150.1540 C   0  0  0  0  0  0  0  0  0  0  0  0
  1  4  1  0  0  0  0
  3  6  1  0  0  0  0
  4  6  2  0  0  0  0
  5  7  1  0  0  0  0
  5  1  2  0  0  0  0
  6  2  1  0  0  0  0
  7  3  2  0  0  0  0
  9  8  1  6  0  0  0
  9  1  1  0  0  0  0
  9 10  1  0  0  0  0
 10 11  2  0  0  0  0
 12  9  1  0  0  0  0
 13 14  1  0  0  0  0
 13 15  1  0  0  0  0
 14 15  1  0  0  0  0
 14 16  1  0  0  0  0
 15 12  1  1  0  0  0
 16 17  2  0  0  0  0
 18 19  1  0  0  0  0
 18 16  1  0  0  0  0
 20  5  1  0  0  0  0
 21 20  1  0  0  0  0
 22 24  2  0  0  0  0
 22 28  1  0  0  0  0
 24 26  1  0  0  0  0
 25 28  1  0  0  0  0
 26 27  1  0  0  0  0
 26 23  2  0  0  0  0
 28 29  2  0  0  0  0
 29 23  1  0  0  0  0
 29 21  1  0  0  0  0
M  END
>  <MODEL>
7

>  <REMARK>
 VINA RESULT:      -6.9      1.660      1.799
  Name = 
  8 active torsions:
  status: ('A' for Active; 'I' for Inactive)
    1  A    between atoms: C_2  and  C_25
    2  A    between atoms: C_8  and  C_25
    3  A    between atoms: C_11  and  C_17
    4  A    between atoms: C_12  and  C_27
    5  A    between atoms: C_14  and  C_22
    6  A    between atoms: C_21  and  N_24
    7  A    between atoms: C_22  and  C_25
    8  A    between atoms: N_24  and  C_27
                            x       y       z     vdW  Elec       q    Type
                         _______ _______ _______ _____ _____    ______ ____

>  <TORSDO>
F 8

$$$$
=
 OpenBabel11042422533D

 29 31  0  0  1  0  0  0  0  0999 V2000
  161.3530  205.6350  150.7990 C   0  0  0  0  0  0  0  0  0  0  0  0
  160.2590  202.2540  149.8370 N   0  0  0  0  0  1  0  0  0  0  0  0
  160.7730  203.1950  152.0280 C   0  0  0  0  0  3  0  0  0  0  0  0
  160.9500  204.5480  150.0740 N   0  0  0  0  0  0  0  0  0  0  0  0
  161.4600  205.5090  152.2070 C   0  0  0  0  0  0  0  0  0  0  0  0
  160.6710  203.3500  150.6470 C   0  0  0  0  0  0  0  0  0  0  0  0
  161.1660  204.2820  152.8060 C   0  0  0  0  0  3  0  0  0  0  0  0
  162.9940  207.1770  150.0110 O   0  0  0  0  0  1  0  0  0  0  0  0
  161.6140  206.9530  150.0840 C   0  0  2  0  0  0  0  0  0  0  0  0
  160.9610  208.0530  150.8740 C   0  0  0  0  0  3  0  0  0  0  0  0
  161.4190  209.1860  150.8840 O   0  0  0  0  0  0  0  0  0  0  0  0
  161.0420  206.9180  148.6570 C   0  0  0  0  0  2  0  0  0  0  0  0
  162.7490  205.6910  147.5210 C   0  0  0  0  0  2  0  0  0  0  0  0
  161.7110  205.9860  146.4930 N   0  0  0  0  0  0  0  0  0  0  0  0
  162.1240  206.9190  147.5840 C   0  0  1  0  0  3  0  0  0  0  0  0
  160.9150  205.6400  145.3660 C   0  0  0  0  0  0  0  0  0  0  0  0
  160.0360  206.4390  144.9490 O   0  0  0  0  0  0  0  0  0  0  0  0
  161.1330  204.3430  144.6720 C   0  0  0  0  0  2  0  0  0  0  0  0
  161.1330  203.3070  145.6060 O   0  0  0  0  0  1  0  0  0  0  0  0
  161.8140  206.6620  153.0900 C   0  0  0  0  0  2  0  0  0  0  0  0
  160.8640  206.7500  154.1890 N   0  0  0  0  0  2  0  0  0  0  0  0
  160.0970  209.0740  157.0060 C   0  0  0  0  0  3  0  0  0  0  0  0
  160.6260  209.2030  154.2650 C   0  0  0  0  0  3  0  0  0  0  0  0
  160.1060  210.3100  156.3530 C   0  0  0  0  0  3  0  0  0  0  0  0
  160.3290  206.6770  156.9520 O   0  0  0  0  0  1  0  0  0  0  0  0
  160.3710  210.3740  154.9830 C   0  0  0  0  0  0  0  0  0  0  0  0
  160.3680  211.6860  154.2850 C   0  0  0  0  0  1  0  0  0  0  0  0
  160.3520  207.8990  156.2910 C   0  0  0  0  0  0  0  0  0  0  0  0
  160.6160  207.9580  154.9140 C   0  0  0  0  0  0  0  0  0  0  0  0
  1  5  1  0  0  0  0
  2  6  1  0  0  0  0
  3  7  1  0  0  0  0
  4  6  1  0  0  0  0
  4  1  2  0  0  0  0
  5  7  2  0  0  0  0
  5 20  1  0  0  0  0
  6  3  2  0  0  0  0
  9  8  1  6  0  0  0
  9  1  1  0  0  0  0
  9 10  1  0  0  0  0
 10 11  2  0  0  0  0
 12  9  1  0  0  0  0
 13 15  1  0  0  0  0
 14 13  1  0  0  0  0
 14 15  1  0  0  0  0
 15 12  1  1  0  0  0
 16 14  1  0  0  0  0
 17 16  2  0  0  0  0
 18 16  1  0  0  0  0
 18 19  1  0  0  0  0
 20 21  1  0  0  0  0
 21 29  1  0  0  0  0
 23 29  2  0  0  0  0
 23 26  1  0  0  0  0
 24 22  1  0  0  0  0
 26 24  2  0  0  0  0
 27 26  1  0  0  0  0
 28 25  1  0  0  0  0
 28 22  2  0  0  0  0
 29 28  1  0  0  0  0
M  END
>  <MODEL>
8

>  <REMARK>
 VINA RESULT:      -6.8      2.730      7.911
  Name = 
  8 active torsions:
  status: ('A' for Active; 'I' for Inactive)
    1  A    between atoms: C_2  and  C_25
    2  A    between atoms: C_8  and  C_25
    3  A    between atoms: C_11  and  C_17
    4  A    between atoms: C_12  and  C_27
    5  A    between atoms: C_14  and  C_22
    6  A    between atoms: C_21  and  N_24
    7  A    between atoms: C_22  and  C_25
    8  A    between atoms: N_24  and  C_27
                            x       y       z     vdW  Elec       q    Type
                         _______ _______ _______ _____ _____    ______ ____

>  <TORSDO>
F 8

$$$$
=
 OpenBabel11042422533D

 29 31  0  0  1  0  0  0  0  0999 V2000
  161.4210  204.9600  149.5820 C   0  0  0  0  0  0  0  0  0  0  0  0
  160.9930  201.4480  150.6010 N   0  0  0  0  0  1  0  0  0  0  0  0
  160.7780  203.5110  151.8830 C   0  0  0  0  0  3  0  0  0  0  0  0
  161.3490  203.5950  149.5700 N   0  0  0  0  0  0  0  0  0  0  0  0
  161.1450  205.6420  150.7940 C   0  0  0  0  0  0  0  0  0  0  0  0
  161.0480  202.8680  150.6760 C   0  0  0  0  0  0  0  0  0  0  0  0
  160.8250  204.9040  151.9350 C   0  0  0  0  0  3  0  0  0  0  0  0
  162.6610  206.7160  148.5500 O   0  0  0  0  0  1  0  0  0  0  0  0
  161.7310  205.7020  148.2910 C   0  0  2  0  0  0  0  0  0  0  0  0
  160.4530  206.3020  147.7750 C   0  0  0  0  0  3  0  0  0  0  0  0
  160.4560  207.3280  147.1090 O   0  0  0  0  0  0  0  0  0  0  0  0
  162.3240  204.7430  147.2440 C   0  0  0  0  0  2  0  0  0  0  0  0
  162.0090  203.7890  145.0760 C   0  0  0  0  0  2  0  0  0  0  0  0
  161.1940  202.9580  146.0070 N   0  0  0  0  0  0  0  0  0  0  0  0
  161.3590  204.4390  146.1050 C   0  0  1  0  0  3  0  0  0  0  0  0
  160.6810  201.7140  146.4700 C   0  0  0  0  0  0  0  0  0  0  0  0
  159.9810  201.6730  147.5140 O   0  0  0  0  0  0  0  0  0  0  0  0
  160.9570  200.4660  145.7090 C   0  0  0  0  0  2  0  0  0  0  0  0
  161.5220  199.5150  146.5590 O   0  0  0  0  0  1  0  0  0  0  0  0
  161.1190  207.1340  150.8850 C   0  0  0  0  0  2  0  0  0  0  0  0
  161.8500  207.5690  152.0670 N   0  0  0  0  0  2  0  0  0  0  0  0
  160.2760  210.0890  154.3240 C   0  0  0  0  0  3  0  0  0  0  0  0
  160.9210  207.3700  154.3420 C   0  0  0  0  0  3  0  0  0  0  0  0
  159.9880  209.3100  155.4480 C   0  0  0  0  0  3  0  0  0  0  0  0
  161.1750  210.3020  152.0990 O   0  0  0  0  0  1  0  0  0  0  0  0
  160.3110  207.9500  155.4570 C   0  0  0  0  0  0  0  0  0  0  0  0
  160.0180  207.1240  156.6570 C   0  0  0  0  0  1  0  0  0  0  0  0
  160.8860  209.5120  153.2050 C   0  0  0  0  0  0  0  0  0  0  0  0
  161.2150  208.1470  153.2100 C   0  0  0  0  0  0  0  0  0  0  0  0
  1  5  1  0  0  0  0
  2  6  1  0  0  0  0
  3  7  1  0  0  0  0
  4  1  2  0  0  0  0
  4  6  1  0  0  0  0
  5 20  1  0  0  0  0
  5  7  2  0  0  0  0
  6  3  2  0  0  0  0
  9  8  1  1  0  0  0
  9  1  1  0  0  0  0
 10  9  1  0  0  0  0
 11 10  2  0  0  0  0
 12  9  1  0  0  0  0
 13 14  1  0  0  0  0
 13 15  1  0  0  0  0
 14 15  1  0  0  0  0
 14 16  1  0  0  0  0
 15 12  1  1  0  0  0
 16 17  2  0  0  0  0
 18 16  1  0  0  0  0
 18 19  1  0  0  0  0
 20 21  1  0  0  0  0
 21 29  1  0  0  0  0
 22 24  1  0  0  0  0
 23 26  1  0  0  0  0
 24 26  2  0  0  0  0
 25 28  1  0  0  0  0
 26 27  1  0  0  0  0
 28 29  1  0  0  0  0
 28 22  2  0  0  0  0
 29 23  2  0  0  0  0
M  END
>  <MODEL>
9

>  <REMARK>
 VINA RESULT:      -6.8      3.108      8.468
  Name = 
  8 active torsions:
  status: ('A' for Active; 'I' for Inactive)
    1  A    between atoms: C_2  and  C_25
    2  A    between atoms: C_8  and  C_25
    3  A    between atoms: C_11  and  C_17
    4  A    between atoms: C_12  and  C_27
    5  A    between atoms: C_14  and  C_22
    6  A    between atoms: C_21  and  N_24
    7  A    between atoms: C_22  and  C_25
    8  A    between atoms: N_24  and  C_27
                            x       y       z     vdW  Elec       q    Type
                         _______ _______ _______ _____ _____    ______ ____

>  <TORSDO>
F 8

$$$$
