=
 OpenBabel11042422313D

 34 38  0  0  1  0  0  0  0  0999 V2000
  160.7870  204.9960  149.2510 O   0  0  0  0  0  0  0  0  0  0  0  0
  161.5400  208.4440  151.3560 C   0  0  2  0  0  3  0  0  0  0  0  0
  161.5900  206.0020  149.8180 C   0  0  2  0  0  3  0  0  0  0  0  0
  160.7560  203.7460  151.3170 C   0  0  0  0  0  2  0  0  0  0  0  0
  162.0370  207.2160  151.8290 O   0  0  0  0  0  0  0  0  0  0  0  0
  162.3880  207.2710  147.9010 N   0  0  0  0  0  1  0  0  0  0  0  0
  161.6690  208.5340  149.8520 C   0  0  0  0  0  0  0  0  0  0  0  0
  161.1850  203.7820  149.8420 C   0  0  1  0  0  3  0  0  0  0  0  0
  161.4080  204.9090  152.0600 C   0  0  2  0  0  3  0  0  0  0  0  0
  161.8180  209.6200  149.3130 O   0  0  0  0  0  0  0  0  0  0  0  0
  160.8090  205.0190  153.4480 C   0  0  0  0  0  1  0  0  0  0  0  0
  161.2100  206.2170  151.2940 C   0  0  2  0  0  3  0  0  0  0  0  0
  161.4490  207.2980  149.0110 C   0  0  2  0  0  3  0  0  0  0  0  0
  160.4020  201.3770  149.9150 C   0  0  0  0  0  1  0  0  0  0  0  0
  160.6330  202.6020  149.0400 C   0  0  2  0  0  3  0  0  0  0  0  0
  161.5470  202.2700  147.8710 C   0  0  0  0  0  2  0  0  0  0  0  0
  160.7810  202.3370  146.5620 C   0  0  0  0  0  2  0  0  0  0  0  0
  162.3860  205.2810  145.4340 C   0  0  0  0  0  2  0  0  0  0  0  0
  161.5020  203.2420  145.5790 C   0  0  1  0  0  3  0  0  0  0  0  0
  161.0880  205.3900  144.6690 C   0  0  2  0  0  3  0  0  0  0  0  0
  160.4910  204.0190  144.7700 C   0  0  0  0  0  2  0  0  0  0  0  0
  161.3760  205.7250  143.2200 C   0  0  0  0  0  1  0  0  0  0  0  0
  162.3150  204.1550  146.2670 O   0  0  0  0  0  0  0  0  0  0  0  0
  162.2410  209.5150  151.9790 O   0  0  0  0  0  0  0  0  0  0  0  0
  160.1800  212.4590  156.0670 N   0  0  0  0  0  0  0  0  0  0  0  0
  161.5290  211.0010  155.2130 C   0  0  0  0  0  0  0  0  0  0  0  0
  161.6670  210.2990  152.9830 C   0  0  0  0  0  0  0  0  0  0  0  0
  162.1170  210.2200  154.2760 N   0  0  0  0  0  0  0  0  0  0  0  0
  160.9730  211.9770  157.0190 N   0  0  0  0  0  0  0  0  0  0  0  0
  159.1460  213.4590  156.2730 C   0  0  0  0  0  1  0  0  0  0  0  0
  161.8200  211.0730  156.5250 N   0  0  0  0  0  0  0  0  0  0  0  0
  160.5180  211.8530  154.9240 C   0  0  0  0  0  0  0  0  0  0  0  0
  160.0110  211.9840  153.6360 C   0  0  0  0  0  3  0  0  0  0  0  0
  160.6090  211.1810  152.6460 C   0  0  0  0  0  3  0  0  0  0  0  0
  1  8  1  0  0  0  0
  2  5  1  0  0  0  0
  2 24  1  1  0  0  0
  3  1  1  6  0  0  0
  3 12  1  0  0  0  0
  4  9  1  0  0  0  0
  7  2  1  0  0  0  0
  8 15  1  6  0  0  0
  8  4  1  0  0  0  0
  9 11  1  1  0  0  0
 10  7  2  0  0  0  0
 12  5  1  1  0  0  0
 12  9  1  0  0  0  0
 13  6  1  6  0  0  0
 13  3  1  0  0  0  0
 13  7  1  0  0  0  0
 15 14  1  1  0  0  0
 16 15  1  0  0  0  0
 17 16  1  0  0  0  0
 18 23  1  0  0  0  0
 19 23  1  0  0  0  0
 19 17  1  1  0  0  0
 20 22  1  6  0  0  0
 20 21  1  0  0  0  0
 20 18  1  0  0  0  0
 21 19  1  0  0  0  0
 24 27  1  0  0  0  0
 25 30  1  0  0  0  0
 25 29  1  0  0  0  0
 26 31  1  0  0  0  0
 27 28  2  0  0  0  0
 28 26  1  0  0  0  0
 31 29  2  0  0  0  0
 32 26  2  0  0  0  0
 32 25  1  0  0  0  0
 33 32  1  0  0  0  0
 34 27  1  0  0  0  0
 34 33  2  0  0  0  0
M  END
>  <MODEL>
1

>  <REMARK>
 VINA RESULT:      -9.4      0.000      0.000
  Name = 
  6 active torsions:
  status: ('A' for Active; 'I' for Inactive)
    1  A    between atoms: C_3  and  C_13
    2  A    between atoms: C_3  and  C_14
    3  A    between atoms: C_6  and  O_21
    4  A    between atoms: C_7  and  O_21
    5  A    between atoms: C_8  and  C_13
    6  A    between atoms: C_8  and  C_27
                            x       y       z     vdW  Elec       q    Type
                         _______ _______ _______ _____ _____    ______ ____

>  <TORSDO>
F 6

$$$$
=
 OpenBabel11042422313D

 34 38  0  0  1  0  0  0  0  0999 V2000
  161.9580  209.6460  153.4150 O   0  0  0  0  0  0  0  0  0  0  0  0
  161.7860  207.4370  149.9540 C   0  0  2  0  0  3  0  0  0  0  0  0
  161.3620  209.1410  152.2450 C   0  0  2  0  0  3  0  0  0  0  0  0
  161.3020  207.7000  154.6850 C   0  0  0  0  0  2  0  0  0  0  0  0
  160.9100  207.1410  151.0140 O   0  0  0  0  0  0  0  0  0  0  0  0
  161.2690  211.0600  150.7520 N   0  0  0  0  0  1  0  0  0  0  0  0
  161.9470  208.9320  149.7890 C   0  0  0  0  0  0  0  0  0  0  0  0
  161.1590  209.2180  154.4910 C   0  0  1  0  0  3  0  0  0  0  0  0
  160.8600  206.9850  153.4110 C   0  0  2  0  0  3  0  0  0  0  0  0
  162.1830  209.4050  148.6890 O   0  0  0  0  0  0  0  0  0  0  0  0
  161.2190  205.5150  153.5080 C   0  0  0  0  0  1  0  0  0  0  0  0
  161.5250  207.6110  152.1840 C   0  0  2  0  0  3  0  0  0  0  0  0
  161.9760  209.8170  151.0130 C   0  0  2  0  0  3  0  0  0  0  0  0
  162.1800  209.1310  156.8050 C   0  0  0  0  0  1  0  0  0  0  0  0
  161.5110  210.0070  155.7530 C   0  0  2  0  0  3  0  0  0  0  0  0
  160.2790  210.6940  156.3220 C   0  0  0  0  0  2  0  0  0  0  0  0
  160.3650  212.1960  156.1160 C   0  0  0  0  0  2  0  0  0  0  0  0
  157.5070  211.8840  154.0540 C   0  0  0  0  0  2  0  0  0  0  0  0
  159.2810  212.6560  155.1600 C   0  0  1  0  0  3  0  0  0  0  0  0
  158.5750  212.0080  152.9920 C   0  0  2  0  0  3  0  0  0  0  0  0
  159.7690  212.5240  153.7370 C   0  0  0  0  0  2  0  0  0  0  0  0
  158.1410  213.0150  151.9470 C   0  0  0  0  0  1  0  0  0  0  0  0
  158.1320  211.8630  155.3090 O   0  0  0  0  0  0  0  0  0  0  0  0
  161.2950  206.8550  148.7510 O   0  0  0  0  0  0  0  0  0  0  0  0
  161.0930  201.4410  148.2270 N   0  0  0  0  0  0  0  0  0  0  0  0
  160.9200  203.2910  149.3310 C   0  0  0  0  0  0  0  0  0  0  0  0
  161.2620  205.4730  148.5500 C   0  0  0  0  0  0  0  0  0  0  0  0
  160.9390  204.6230  149.5770 N   0  0  0  0  0  0  0  0  0  0  0  0
  160.7460  201.1770  149.4830 N   0  0  0  0  0  0  0  0  0  0  0  0
  161.3020  200.4410  147.1940 C   0  0  0  0  0  1  0  0  0  0  0  0
  160.6310  202.3000  150.1940 N   0  0  0  0  0  0  0  0  0  0  0  0
  161.2070  202.7690  148.1160 C   0  0  0  0  0  0  0  0  0  0  0  0
  161.5430  203.5690  147.0310 C   0  0  0  0  0  3  0  0  0  0  0  0
  161.5680  204.9580  147.2650 C   0  0  0  0  0  3  0  0  0  0  0  0
  1  8  1  0  0  0  0
  2 24  1  6  0  0  0
  2  5  1  0  0  0  0
  3  1  1  1  0  0  0
  7  2  1  0  0  0  0
  7 13  1  0  0  0  0
  8  4  1  0  0  0  0
  8 15  1  1  0  0  0
  9 11  1  1  0  0  0
  9  4  1  0  0  0  0
 10  7  2  0  0  0  0
 12  5  1  6  0  0  0
 12  3  1  0  0  0  0
 12  9  1  0  0  0  0
 13  6  1  6  0  0  0
 13  3  1  0  0  0  0
 15 16  1  0  0  0  0
 15 14  1  1  0  0  0
 17 16  1  0  0  0  0
 18 23  1  0  0  0  0
 19 23  1  0  0  0  0
 19 17  1  1  0  0  0
 20 22  1  6  0  0  0
 20 21  1  0  0  0  0
 20 18  1  0  0  0  0
 21 19  1  0  0  0  0
 25 29  1  0  0  0  0
 26 28  1  0  0  0  0
 26 31  1  0  0  0  0
 27 24  1  0  0  0  0
 27 28  2  0  0  0  0
 29 31  2  0  0  0  0
 30 25  1  0  0  0  0
 32 25  1  0  0  0  0
 32 26  2  0  0  0  0
 33 34  2  0  0  0  0
 33 32  1  0  0  0  0
 34 27  1  0  0  0  0
M  END
>  <MODEL>
2

>  <REMARK>
 VINA RESULT:      -9.1      2.691      9.210
  Name = 
  6 active torsions:
  status: ('A' for Active; 'I' for Inactive)
    1  A    between atoms: C_3  and  C_13
    2  A    between atoms: C_3  and  C_14
    3  A    between atoms: C_6  and  O_21
    4  A    between atoms: C_7  and  O_21
    5  A    between atoms: C_8  and  C_13
    6  A    between atoms: C_8  and  C_27
                            x       y       z     vdW  Elec       q    Type
                         _______ _______ _______ _____ _____    ______ ____

>  <TORSDO>
F 6

$$$$
=
 OpenBabel11042422313D

 34 38  0  0  1  0  0  0  0  0999 V2000
  161.5490  205.5330  148.5880 O   0  0  0  0  0  0  0  0  0  0  0  0
  161.4990  205.8900  152.6820 C   0  0  2  0  0  3  0  0  0  0  0  0
  160.9540  205.6370  149.8590 C   0  0  2  0  0  3  0  0  0  0  0  0
  161.7210  207.9330  148.3850 C   0  0  0  0  0  2  0  0  0  0  0  0
  160.9340  206.9040  151.8870 O   0  0  0  0  0  0  0  0  0  0  0  0
  160.0490  203.4160  150.2710 N   0  0  0  0  0  1  0  0  0  0  0  0
  161.1740  204.5220  152.1230 C   0  0  0  0  0  0  0  0  0  0  0  0
  161.0980  206.6380  147.8410 C   0  0  1  0  0  3  0  0  0  0  0  0
  161.3170  208.1110  149.8460 C   0  0  2  0  0  3  0  0  0  0  0  0
  161.0770  203.5610  152.8700 O   0  0  0  0  0  0  0  0  0  0  0  0
  162.1130  209.2510  150.4530 C   0  0  0  0  0  1  0  0  0  0  0  0
  161.5580  206.8220  150.6330 C   0  0  2  0  0  3  0  0  0  0  0  0
  161.1300  204.3220  150.6260 C   0  0  2  0  0  3  0  0  0  0  0  0
  160.1170  206.2890  145.5340 C   0  0  0  0  0  1  0  0  0  0  0  0
  161.3930  206.4230  146.3560 C   0  0  2  0  0  3  0  0  0  0  0  0
  162.2970  205.2160  146.1550 C   0  0  0  0  0  2  0  0  0  0  0  0
  161.7350  204.3050  145.0790 C   0  0  0  0  0  2  0  0  0  0  0  0
  160.2370  201.2470  146.0420 C   0  0  0  0  0  2  0  0  0  0  0  0
  161.6890  202.8720  145.5770 C   0  0  1  0  0  3  0  0  0  0  0  0
  160.6520  201.7660  147.3990 C   0  0  2  0  0  3  0  0  0  0  0  0
  161.6260  202.8610  147.0860 C   0  0  0  0  0  2  0  0  0  0  0  0
  161.3420  200.6640  148.1770 C   0  0  0  0  0  1  0  0  0  0  0  0
  160.5480  202.2210  145.0820 O   0  0  0  0  0  0  0  0  0  0  0  0
  161.0210  206.0070  154.0180 O   0  0  0  0  0  0  0  0  0  0  0  0
  160.1630  210.9440  156.1400 N   0  0  0  0  0  0  0  0  0  0  0  0
  161.0020  209.5720  154.6950 C   0  0  0  0  0  0  0  0  0  0  0  0
  160.7620  207.2440  154.6120 C   0  0  0  0  0  0  0  0  0  0  0  0
  161.2820  208.3970  154.0820 N   0  0  0  0  0  0  0  0  0  0  0  0
  160.8770  211.6230  155.2460 N   0  0  0  0  0  0  0  0  0  0  0  0
  159.4540  211.5380  157.2600 C   0  0  0  0  0  1  0  0  0  0  0  0
  161.4100  210.8040  154.3370 N   0  0  0  0  0  0  0  0  0  0  0  0
  160.2330  209.6510  155.8060 C   0  0  0  0  0  0  0  0  0  0  0  0
  159.6750  208.5240  156.3980 C   0  0  0  0  0  3  0  0  0  0  0  0
  159.9540  207.2920  155.7760 C   0  0  0  0  0  3  0  0  0  0  0  0
  2 24  1  1  0  0  0
  3  1  1  6  0  0  0
  3 13  1  0  0  0  0
  3 12  1  0  0  0  0
  4  9  1  0  0  0  0
  5  2  1  0  0  0  0
  7  2  1  0  0  0  0
  7 10  2  0  0  0  0
  8 15  1  6  0  0  0
  8  4  1  0  0  0  0
  8  1  1  0  0  0  0
  9 11  1  1  0  0  0
  9 12  1  0  0  0  0
 12  5  1  1  0  0  0
 13  6  1  1  0  0  0
 13  7  1  0  0  0  0
 15 14  1  6  0  0  0
 16 15  1  0  0  0  0
 17 16  1  0  0  0  0
 18 20  1  0  0  0  0
 19 17  1  6  0  0  0
 19 21  1  0  0  0  0
 20 22  1  1  0  0  0
 21 20  1  0  0  0  0
 23 19  1  0  0  0  0
 23 18  1  0  0  0  0
 24 27  1  0  0  0  0
 25 30  1  0  0  0  0
 26 32  2  0  0  0  0
 27 34  1  0  0  0  0
 28 27  2  0  0  0  0
 28 26  1  0  0  0  0
 29 25  1  0  0  0  0
 31 26  1  0  0  0  0
 31 29  2  0  0  0  0
 32 25  1  0  0  0  0
 32 33  1  0  0  0  0
 34 33  2  0  0  0  0
M  END
>  <MODEL>
3

>  <REMARK>
 VINA RESULT:      -9.0      1.960      3.840
  Name = 
  6 active torsions:
  status: ('A' for Active; 'I' for Inactive)
    1  A    between atoms: C_3  and  C_13
    2  A    between atoms: C_3  and  C_14
    3  A    between atoms: C_6  and  O_21
    4  A    between atoms: C_7  and  O_21
    5  A    between atoms: C_8  and  C_13
    6  A    between atoms: C_8  and  C_27
                            x       y       z     vdW  Elec       q    Type
                         _______ _______ _______ _____ _____    ______ ____

>  <TORSDO>
F 6

$$$$
=
 OpenBabel11042422313D

 34 38  0  0  1  0  0  0  0  0999 V2000
  161.4100  205.9790  151.4000 O   0  0  0  0  0  0  0  0  0  0  0  0
  162.1200  209.9280  150.5110 C   0  0  2  0  0  3  0  0  0  0  0  0
  161.0720  207.3320  151.2150 C   0  0  2  0  0  3  0  0  0  0  0  0
  161.1250  205.5050  149.0490 C   0  0  0  0  0  2  0  0  0  0  0  0
  161.2420  209.1790  149.7060 O   0  0  0  0  0  0  0  0  0  0  0  0
  160.6620  208.1520  153.4700 N   0  0  0  0  0  1  0  0  0  0  0  0
  161.9280  209.5930  151.9730 C   0  0  0  0  0  0  0  0  0  0  0  0
  160.6370  205.2420  150.4820 C   0  0  1  0  0  3  0  0  0  0  0  0
  160.9980  206.9940  148.7380 C   0  0  2  0  0  3  0  0  0  0  0  0
  162.1490  210.4350  152.8300 O   0  0  0  0  0  0  0  0  0  0  0  0
  161.6920  207.2940  147.4240 C   0  0  0  0  0  1  0  0  0  0  0  0
  161.6070  207.8330  149.8620 C   0  0  2  0  0  3  0  0  0  0  0  0
  161.6210  208.1690  152.3760 C   0  0  2  0  0  3  0  0  0  0  0  0
  161.3420  203.5120  152.1890 C   0  0  0  0  0  1  0  0  0  0  0  0
  160.6620  203.7570  150.8490 C   0  0  2  0  0  3  0  0  0  0  0  0
  161.3220  202.9410  149.7470 C   0  0  0  0  0  2  0  0  0  0  0  0
  160.9470  201.4750  149.8760 C   0  0  0  0  0  2  0  0  0  0  0  0
  161.4160  200.0610  146.6660 C   0  0  0  0  0  2  0  0  0  0  0  0
  160.5360  200.9200  148.5240 C   0  0  1  0  0  3  0  0  0  0  0  0
  161.0270  201.4660  146.2710 C   0  0  2  0  0  3  0  0  0  0  0  0
  160.4390  202.0460  147.5210 C   0  0  0  0  0  2  0  0  0  0  0  0
  159.9800  201.4170  145.1780 C   0  0  0  0  0  1  0  0  0  0  0  0
  161.4920  200.0000  148.0660 O   0  0  0  0  0  0  0  0  0  0  0  0
  161.9050  211.3170  150.2880 O   0  0  0  0  0  0  0  0  0  0  0  0
  161.8500  213.5790  145.3380 N   0  0  0  0  0  0  0  0  0  0  0  0
  160.9310  212.9160  147.1780 C   0  0  0  0  0  0  0  0  0  0  0  0
  161.9600  211.8860  149.0130 C   0  0  0  0  0  0  0  0  0  0  0  0
  160.8250  212.3730  148.4150 N   0  0  0  0  0  0  0  0  0  0  0  0
  160.5470  213.8420  145.3030 N   0  0  0  0  0  0  0  0  0  0  0  0
  162.7890  213.8850  144.2720 C   0  0  0  0  0  1  0  0  0  0  0  0
  159.9480  213.4450  146.4270 N   0  0  0  0  0  0  0  0  0  0  0  0
  162.1060  212.9950  146.5130 C   0  0  0  0  0  0  0  0  0  0  0  0
  163.2940  212.5210  147.0570 C   0  0  0  0  0  3  0  0  0  0  0  0
  163.2070  211.9530  148.3430 C   0  0  0  0  0  3  0  0  0  0  0  0
  2 24  1  1  0  0  0
  2  7  1  0  0  0  0
  3  1  1  1  0  0  0
  3 13  1  0  0  0  0
  4  8  1  0  0  0  0
  5  2  1  0  0  0  0
  7 13  1  0  0  0  0
  7 10  2  0  0  0  0
  8 15  1  1  0  0  0
  8  1  1  0  0  0  0
  9 11  1  6  0  0  0
  9  4  1  0  0  0  0
  9 12  1  0  0  0  0
 12  5  1  6  0  0  0
 12  3  1  0  0  0  0
 13  6  1  1  0  0  0
 15 14  1  1  0  0  0
 16 17  1  0  0  0  0
 16 15  1  0  0  0  0
 18 23  1  0  0  0  0
 19 17  1  1  0  0  0
 20 22  1  6  0  0  0
 20 18  1  0  0  0  0
 20 21  1  0  0  0  0
 21 19  1  0  0  0  0
 23 19  1  0  0  0  0
 25 32  1  0  0  0  0
 26 28  1  0  0  0  0
 27 24  1  0  0  0  0
 28 27  2  0  0  0  0
 29 25  1  0  0  0  0
 29 31  2  0  0  0  0
 30 25  1  0  0  0  0
 31 26  1  0  0  0  0
 32 33  1  0  0  0  0
 32 26  2  0  0  0  0
 33 34  2  0  0  0  0
 34 27  1  0  0  0  0
M  END
>  <MODEL>
4

>  <REMARK>
 VINA RESULT:      -8.5      3.489      5.764
  Name = 
  6 active torsions:
  status: ('A' for Active; 'I' for Inactive)
    1  A    between atoms: C_3  and  C_13
    2  A    between atoms: C_3  and  C_14
    3  A    between atoms: C_6  and  O_21
    4  A    between atoms: C_7  and  O_21
    5  A    between atoms: C_8  and  C_13
    6  A    between atoms: C_8  and  C_27
                            x       y       z     vdW  Elec       q    Type
                         _______ _______ _______ _____ _____    ______ ____

>  <TORSDO>
F 6

$$$$
=
 OpenBabel11042422313D

 34 38  0  0  1  0  0  0  0  0999 V2000
  161.2240  205.7760  152.6800 O   0  0  0  0  0  0  0  0  0  0  0  0
  161.8040  209.7290  153.6400 C   0  0  2  0  0  3  0  0  0  0  0  0
  160.8320  207.0810  153.0300 C   0  0  2  0  0  3  0  0  0  0  0  0
  161.2890  206.3400  150.3330 C   0  0  0  0  0  2  0  0  0  0  0  0
  161.0910  209.3920  152.4750 O   0  0  0  0  0  0  0  0  0  0  0  0
  160.0710  206.8720  155.3320 N   0  0  0  0  0  1  0  0  0  0  0  0
  161.4370  208.8080  154.7810 C   0  0  0  0  0  0  0  0  0  0  0  0
  160.6290  205.4970  151.4350 C   0  0  1  0  0  3  0  0  0  0  0  0
  161.1140  207.8210  150.6580 C   0  0  2  0  0  3  0  0  0  0  0  0
  161.4880  209.2090  155.9340 O   0  0  0  0  0  0  0  0  0  0  0  0
  161.9600  208.6480  149.7080 C   0  0  0  0  0  1  0  0  0  0  0  0
  161.5130  208.1060  152.1060 C   0  0  2  0  0  3  0  0  0  0  0  0
  161.1660  207.3480  154.5020 C   0  0  2  0  0  3  0  0  0  0  0  0
  161.2010  203.2070  152.3460 C   0  0  0  0  0  1  0  0  0  0  0  0
  160.6950  203.9960  151.1460 C   0  0  2  0  0  3  0  0  0  0  0  0
  161.5460  203.7210  149.9160 C   0  0  0  0  0  2  0  0  0  0  0  0
  160.9270  202.6160  149.0790 C   0  0  0  0  0  2  0  0  0  0  0  0
  161.2010  202.7420  145.5530 C   0  0  0  0  0  2  0  0  0  0  0  0
  160.6400  203.1200  147.6760 C   0  0  1  0  0  3  0  0  0  0  0  0
  161.9560  204.0000  145.9120 C   0  0  2  0  0  3  0  0  0  0  0  0
  161.5820  204.2530  147.3410 C   0  0  0  0  0  2  0  0  0  0  0  0
  161.4820  205.1460  145.0420 C   0  0  0  0  0  1  0  0  0  0  0  0
  160.8350  202.0920  146.7410 O   0  0  0  0  0  0  0  0  0  0  0  0
  161.5370  211.0830  153.9890 O   0  0  0  0  0  0  0  0  0  0  0  0
  156.8390  213.5260  152.7290 N   0  0  0  0  0  0  0  0  0  0  0  0
  158.8660  212.8930  152.3250 C   0  0  0  0  0  0  0  0  0  0  0  0
  160.3070  211.6920  153.7280 C   0  0  0  0  0  0  0  0  0  0  0  0
  160.0760  212.3170  152.5290 N   0  0  0  0  0  0  0  0  0  0  0  0
  157.1940  213.9230  151.5100 N   0  0  0  0  0  0  0  0  0  0  0  0
  155.5450  213.7740  153.3400 C   0  0  0  0  0  1  0  0  0  0  0  0
  158.4430  213.5480  151.2290 N   0  0  0  0  0  0  0  0  0  0  0  0
  157.8830  212.8750  153.2540 C   0  0  0  0  0  0  0  0  0  0  0  0
  158.0480  212.2620  154.4900 C   0  0  0  0  0  3  0  0  0  0  0  0
  159.2980  211.6570  154.7240 C   0  0  0  0  0  3  0  0  0  0  0  0
  2 24  1  1  0  0  0
  2  7  1  0  0  0  0
  3  1  1  6  0  0  0
  3 13  1  0  0  0  0
  4  9  1  0  0  0  0
  4  8  1  0  0  0  0
  5  2  1  0  0  0  0
  7 10  2  0  0  0  0
  8 15  1  6  0  0  0
  8  1  1  0  0  0  0
  9 11  1  6  0  0  0
  9 12  1  0  0  0  0
 12  5  1  1  0  0  0
 12  3  1  0  0  0  0
 13  7  1  0  0  0  0
 13  6  1  1  0  0  0
 15 14  1  1  0  0  0
 16 15  1  0  0  0  0
 17 16  1  0  0  0  0
 18 20  1  0  0  0  0
 18 23  1  0  0  0  0
 19 17  1  1  0  0  0
 20 22  1  6  0  0  0
 20 21  1  0  0  0  0
 21 19  1  0  0  0  0
 23 19  1  0  0  0  0
 25 32  1  0  0  0  0
 25 30  1  0  0  0  0
 26 28  1  0  0  0  0
 26 32  2  0  0  0  0
 27 24  1  0  0  0  0
 27 34  1  0  0  0  0
 28 27  2  0  0  0  0
 29 25  1  0  0  0  0
 31 29  2  0  0  0  0
 31 26  1  0  0  0  0
 32 33  1  0  0  0  0
 33 34  2  0  0  0  0
M  END
>  <MODEL>
5

>  <REMARK>
 VINA RESULT:      -8.4      2.498      3.916
  Name = 
  6 active torsions:
  status: ('A' for Active; 'I' for Inactive)
    1  A    between atoms: C_3  and  C_13
    2  A    between atoms: C_3  and  C_14
    3  A    between atoms: C_6  and  O_21
    4  A    between atoms: C_7  and  O_21
    5  A    between atoms: C_8  and  C_13
    6  A    between atoms: C_8  and  C_27
                            x       y       z     vdW  Elec       q    Type
                         _______ _______ _______ _____ _____    ______ ____

>  <TORSDO>
F 6

$$$$
=
 OpenBabel11042422313D

 34 38  0  0  1  0  0  0  0  0999 V2000
  160.8320  208.7860  153.0500 O   0  0  0  0  0  0  0  0  0  0  0  0
  161.2050  205.2120  151.0580 C   0  0  2  0  0  3  0  0  0  0  0  0
  161.4720  207.5940  152.6670 C   0  0  2  0  0  3  0  0  0  0  0  0
  161.6680  209.9520  151.1070 C   0  0  0  0  0  2  0  0  0  0  0  0
  162.1070  206.2570  150.7870 O   0  0  0  0  0  0  0  0  0  0  0  0
  161.3850  206.2070  154.6650 N   0  0  0  0  0  1  0  0  0  0  0  0
  160.9060  205.1270  152.5380 C   0  0  0  0  0  0  0  0  0  0  0  0
  161.6690  209.8420  152.6400 C   0  0  1  0  0  3  0  0  0  0  0  0
  162.1720  208.6430  150.5070 C   0  0  2  0  0  3  0  0  0  0  0  0
  160.6260  204.0530  153.0470 O   0  0  0  0  0  0  0  0  0  0  0  0
  161.9520  208.6590  149.0070 C   0  0  0  0  0  1  0  0  0  0  0  0
  161.4510  207.4490  151.1340 C   0  0  2  0  0  3  0  0  0  0  0  0
  160.7970  206.3980  153.3490 C   0  0  2  0  0  3  0  0  0  0  0  0
  161.1770  210.9950  154.8380 C   0  0  0  0  0  1  0  0  0  0  0  0
  161.2460  211.1430  153.3230 C   0  0  2  0  0  3  0  0  0  0  0  0
  159.9210  211.6390  152.7650 C   0  0  0  0  0  2  0  0  0  0  0  0
  159.1840  212.4670  153.8030 C   0  0  0  0  0  2  0  0  0  0  0  0
  155.8060  212.6170  154.8450 C   0  0  0  0  0  2  0  0  0  0  0  0
  157.7230  212.0590  153.8570 C   0  0  1  0  0  3  0  0  0  0  0  0
  156.2410  211.3660  155.5710 C   0  0  2  0  0  3  0  0  0  0  0  0
  157.5330  210.9920  154.9090 C   0  0  0  0  0  2  0  0  0  0  0  0
  155.2150  210.2710  155.3620 C   0  0  0  0  0  1  0  0  0  0  0  0
  156.9230  213.1610  154.1940 O   0  0  0  0  0  0  0  0  0  0  0  0
  161.7470  203.9810  150.5900 O   0  0  0  0  0  0  0  0  0  0  0  0
  160.6100  202.1650  145.5870 N   0  0  0  0  0  0  0  0  0  0  0  0
  161.3270  203.6340  147.0020 C   0  0  0  0  0  0  0  0  0  0  0  0
  161.4320  203.4560  149.3350 C   0  0  0  0  0  0  0  0  0  0  0  0
  161.6480  204.1880  148.1950 N   0  0  0  0  0  0  0  0  0  0  0  0
  161.0100  203.2520  144.9340 N   0  0  0  0  0  0  0  0  0  0  0  0
  160.0670  200.9720  144.9620 C   0  0  0  0  0  1  0  0  0  0  0  0
  161.4600  204.1800  145.7800 N   0  0  0  0  0  0  0  0  0  0  0  0
  160.8030  202.3910  146.8910 C   0  0  0  0  0  0  0  0  0  0  0  0
  160.5570  201.5940  148.0020 C   0  0  0  0  0  3  0  0  0  0  0  0
  160.8840  202.1510  149.2540 C   0  0  0  0  0  3  0  0  0  0  0  0
  2 24  1  1  0  0  0
  2  7  1  0  0  0  0
  3  1  1  6  0  0  0
  3 13  1  0  0  0  0
  4  8  1  0  0  0  0
  5  2  1  0  0  0  0
  7 10  2  0  0  0  0
  7 13  1  0  0  0  0
  8  1  1  0  0  0  0
  8 15  1  1  0  0  0
  9 11  1  6  0  0  0
  9  4  1  0  0  0  0
  9 12  1  0  0  0  0
 12  5  1  1  0  0  0
 12  3  1  0  0  0  0
 13  6  1  1  0  0  0
 15 14  1  1  0  0  0
 16 15  1  0  0  0  0
 16 17  1  0  0  0  0
 18 20  1  0  0  0  0
 19 17  1  1  0  0  0
 19 23  1  0  0  0  0
 19 21  1  0  0  0  0
 20 22  1  6  0  0  0
 21 20  1  0  0  0  0
 23 18  1  0  0  0  0
 25 32  1  0  0  0  0
 26 28  1  0  0  0  0
 27 24  1  0  0  0  0
 28 27  2  0  0  0  0
 29 25  1  0  0  0  0
 29 31  2  0  0  0  0
 30 25  1  0  0  0  0
 31 26  1  0  0  0  0
 32 26  2  0  0  0  0
 32 33  1  0  0  0  0
 33 34  2  0  0  0  0
 34 27  1  0  0  0  0
M  END
>  <MODEL>
6

>  <REMARK>
 VINA RESULT:      -8.1      2.785     10.042
  Name = 
  6 active torsions:
  status: ('A' for Active; 'I' for Inactive)
    1  A    between atoms: C_3  and  C_13
    2  A    between atoms: C_3  and  C_14
    3  A    between atoms: C_6  and  O_21
    4  A    between atoms: C_7  and  O_21
    5  A    between atoms: C_8  and  C_13
    6  A    between atoms: C_8  and  C_27
                            x       y       z     vdW  Elec       q    Type
                         _______ _______ _______ _____ _____    ______ ____

>  <TORSDO>
F 6

$$$$
=
 OpenBabel11042422313D

 34 38  0  0  1  0  0  0  0  0999 V2000
  161.0270  205.1460  150.7970 O   0  0  0  0  0  0  0  0  0  0  0  0
  161.1020  209.1200  151.8400 C   0  0  2  0  0  3  0  0  0  0  0  0
  161.6300  206.3720  151.1330 C   0  0  2  0  0  3  0  0  0  0  0  0
  160.7670  204.5450  153.1210 C   0  0  0  0  0  2  0  0  0  0  0  0
  161.6240  208.1580  152.7240 O   0  0  0  0  0  0  0  0  0  0  0  0
  162.6170  207.1380  149.0450 N   0  0  0  0  0  1  0  0  0  0  0  0
  161.4710  208.7940  150.4100 C   0  0  0  0  0  0  0  0  0  0  0  0
  161.4310  204.2170  151.7740 C   0  0  1  0  0  3  0  0  0  0  0  0
  161.1780  205.9490  153.5560 C   0  0  2  0  0  3  0  0  0  0  0  0
  161.6080  209.6910  149.5920 O   0  0  0  0  0  0  0  0  0  0  0  0
  160.3480  206.3670  154.7550 C   0  0  0  0  0  1  0  0  0  0  0  0
  160.9910  206.9440  152.4110 C   0  0  2  0  0  3  0  0  0  0  0  0
  161.5080  207.3520  149.9610 C   0  0  2  0  0  3  0  0  0  0  0  0
  162.3710  201.9100  151.3250 C   0  0  0  0  0  1  0  0  0  0  0  0
  161.1290  202.7940  151.3010 C   0  0  2  0  0  3  0  0  0  0  0  0
  160.4990  202.8080  149.9170 C   0  0  0  0  0  2  0  0  0  0  0  0
  161.5730  202.7760  148.8440 C   0  0  0  0  0  2  0  0  0  0  0  0
  161.0660  202.9770  145.3480 C   0  0  0  0  0  2  0  0  0  0  0  0
  161.0310  203.3440  147.5450 C   0  0  1  0  0  3  0  0  0  0  0  0
  162.0000  204.1500  145.5380 C   0  0  2  0  0  3  0  0  0  0  0  0
  161.9790  204.3950  147.0160 C   0  0  0  0  0  2  0  0  0  0  0  0
  161.4570  205.3580  144.8040 C   0  0  0  0  0  1  0  0  0  0  0  0
  160.9130  202.3300  146.5830 O   0  0  0  0  0  0  0  0  0  0  0  0
  161.5890  210.4090  152.1960 O   0  0  0  0  0  0  0  0  0  0  0  0
  158.7540  213.8290  155.3420 N   0  0  0  0  0  0  0  0  0  0  0  0
  159.3630  212.9910  153.4450 C   0  0  0  0  0  0  0  0  0  0  0  0
  160.8920  211.2580  153.0590 C   0  0  0  0  0  0  0  0  0  0  0  0
  160.0150  212.1920  152.5670 N   0  0  0  0  0  0  0  0  0  0  0  0
  158.1160  214.4530  154.3550 N   0  0  0  0  0  0  0  0  0  0  0  0
  158.5940  214.1270  156.7550 C   0  0  0  0  0  1  0  0  0  0  0  0
  158.4700  213.9580  153.1680 N   0  0  0  0  0  0  0  0  0  0  0  0
  159.5430  212.9050  154.7830 C   0  0  0  0  0  0  0  0  0  0  0  0
  160.4150  211.9850  155.3520 C   0  0  0  0  0  3  0  0  0  0  0  0
  161.1040  211.1430  154.4570 C   0  0  0  0  0  3  0  0  0  0  0  0
  1  8  1  0  0  0  0
  2 24  1  1  0  0  0
  2  5  1  0  0  0  0
  3  1  1  6  0  0  0
  3 12  1  0  0  0  0
  4  9  1  0  0  0  0
  7  2  1  0  0  0  0
  8 15  1  6  0  0  0
  8  4  1  0  0  0  0
  9 11  1  1  0  0  0
 10  7  2  0  0  0  0
 12  5  1  1  0  0  0
 12  9  1  0  0  0  0
 13  6  1  6  0  0  0
 13  7  1  0  0  0  0
 13  3  1  0  0  0  0
 15 14  1  6  0  0  0
 16 15  1  0  0  0  0
 17 16  1  0  0  0  0
 18 20  1  0  0  0  0
 18 23  1  0  0  0  0
 19 17  1  1  0  0  0
 20 22  1  6  0  0  0
 20 21  1  0  0  0  0
 21 19  1  0  0  0  0
 23 19  1  0  0  0  0
 24 27  1  0  0  0  0
 25 30  1  0  0  0  0
 26 32  2  0  0  0  0
 27 34  1  0  0  0  0
 28 27  2  0  0  0  0
 28 26  1  0  0  0  0
 29 25  1  0  0  0  0
 31 26  1  0  0  0  0
 31 29  2  0  0  0  0
 32 25  1  0  0  0  0
 32 33  1  0  0  0  0
 34 33  2  0  0  0  0
M  END
>  <MODEL>
7

>  <REMARK>
 VINA RESULT:      -7.6      1.571      2.247
  Name = 
  6 active torsions:
  status: ('A' for Active; 'I' for Inactive)
    1  A    between atoms: C_3  and  C_13
    2  A    between atoms: C_3  and  C_14
    3  A    between atoms: C_6  and  O_21
    4  A    between atoms: C_7  and  O_21
    5  A    between atoms: C_8  and  C_13
    6  A    between atoms: C_8  and  C_27
                            x       y       z     vdW  Elec       q    Type
                         _______ _______ _______ _____ _____    ______ ____

>  <TORSDO>
F 6

$$$$
=
 OpenBabel11042422313D

 34 38  0  0  1  0  0  0  0  0999 V2000
  161.4200  206.7390  153.5680 O   0  0  0  0  0  0  0  0  0  0  0  0
  161.4310  210.5620  155.0760 C   0  0  2  0  0  3  0  0  0  0  0  0
  160.8440  207.9250  154.0580 C   0  0  2  0  0  3  0  0  0  0  0  0
  161.5380  207.6270  151.3260 C   0  0  0  0  0  2  0  0  0  0  0  0
  160.8310  210.3060  153.8300 O   0  0  0  0  0  0  0  0  0  0  0  0
  159.9950  207.3080  156.2530 N   0  0  0  0  0  1  0  0  0  0  0  0
  161.1260  209.4530  156.0590 C   0  0  0  0  0  0  0  0  0  0  0  0
  160.9340  206.5660  152.2590 C   0  0  1  0  0  3  0  0  0  0  0  0
  161.1540  209.0160  151.8290 C   0  0  2  0  0  3  0  0  0  0  0  0
  161.0620  209.6940  157.2540 O   0  0  0  0  0  0  0  0  0  0  0  0
  161.9350  210.0630  151.0580 C   0  0  0  0  0  1  0  0  0  0  0  0
  161.4350  209.1440  153.3260 C   0  0  2  0  0  3  0  0  0  0  0  0
  161.0610  208.0240  155.5720 C   0  0  2  0  0  3  0  0  0  0  0  0
  162.6690  204.7470  151.9680 C   0  0  0  0  0  1  0  0  0  0  0  0
  161.2090  205.1390  151.7810 C   0  0  2  0  0  3  0  0  0  0  0  0
  160.7810  204.9630  150.3320 C   0  0  0  0  0  2  0  0  0  0  0  0
  160.2460  203.5610  150.1030 C   0  0  0  0  0  2  0  0  0  0  0  0
  161.3550  202.6820  146.8600 C   0  0  0  0  0  2  0  0  0  0  0  0
  161.0900  202.8420  149.0660 C   0  0  1  0  0  3  0  0  0  0  0  0
  160.6300  201.4100  147.2340 C   0  0  2  0  0  3  0  0  0  0  0  0
  160.4490  201.5190  148.7180 C   0  0  0  0  0  2  0  0  0  0  0  0
  161.4980  200.2130  146.9040 C   0  0  0  0  0  1  0  0  0  0  0  0
  161.1810  203.6120  147.8960 O   0  0  0  0  0  0  0  0  0  0  0  0
  160.9720  211.8120  155.5800 O   0  0  0  0  0  0  0  0  0  0  0  0
  155.8230  213.4890  155.0340 N   0  0  0  0  0  0  0  0  0  0  0  0
  157.4600  212.5660  156.1020 C   0  0  0  0  0  0  0  0  0  0  0  0
  159.6670  212.2650  155.3750 C   0  0  0  0  0  0  0  0  0  0  0  0
  158.7120  212.1090  156.3480 N   0  0  0  0  0  0  0  0  0  0  0  0
  155.4020  213.0870  156.2300 N   0  0  0  0  0  0  0  0  0  0  0  0
  154.9950  214.1510  154.0410 C   0  0  0  0  0  1  0  0  0  0  0  0
  156.3910  212.5120  156.9170 N   0  0  0  0  0  0  0  0  0  0  0  0
  157.1180  213.1670  154.9390 C   0  0  0  0  0  0  0  0  0  0  0  0
  158.0320  213.3560  153.9100 C   0  0  0  0  0  3  0  0  0  0  0  0
  159.3400  212.8890  154.1450 C   0  0  0  0  0  3  0  0  0  0  0  0
  2 24  1  1  0  0  0
  2  7  1  0  0  0  0
  3  1  1  6  0  0  0
  3 13  1  0  0  0  0
  4  9  1  0  0  0  0
  4  8  1  0  0  0  0
  5  2  1  0  0  0  0
  7 10  2  0  0  0  0
  8 15  1  6  0  0  0
  8  1  1  0  0  0  0
  9 11  1  6  0  0  0
  9 12  1  0  0  0  0
 12  5  1  1  0  0  0
 12  3  1  0  0  0  0
 13  7  1  0  0  0  0
 13  6  1  1  0  0  0
 15 14  1  6  0  0  0
 16 15  1  0  0  0  0
 17 16  1  0  0  0  0
 18 20  1  0  0  0  0
 18 23  1  0  0  0  0
 19 17  1  1  0  0  0
 20 22  1  1  0  0  0
 20 21  1  0  0  0  0
 21 19  1  0  0  0  0
 23 19  1  0  0  0  0
 25 29  1  0  0  0  0
 26 28  1  0  0  0  0
 26 31  1  0  0  0  0
 27 24  1  0  0  0  0
 27 28  2  0  0  0  0
 29 31  2  0  0  0  0
 30 25  1  0  0  0  0
 32 25  1  0  0  0  0
 32 26  2  0  0  0  0
 33 34  2  0  0  0  0
 33 32  1  0  0  0  0
 34 27  1  0  0  0  0
M  END
>  <MODEL>
8

>  <REMARK>
 VINA RESULT:      -7.5      2.646      4.780
  Name = 
  6 active torsions:
  status: ('A' for Active; 'I' for Inactive)
    1  A    between atoms: C_3  and  C_13
    2  A    between atoms: C_3  and  C_14
    3  A    between atoms: C_6  and  O_21
    4  A    between atoms: C_7  and  O_21
    5  A    between atoms: C_8  and  C_13
    6  A    between atoms: C_8  and  C_27
                            x       y       z     vdW  Elec       q    Type
                         _______ _______ _______ _____ _____    ______ ____

>  <TORSDO>
F 6

$$$$
=
 OpenBabel11042422313D

 34 38  0  0  1  0  0  0  0  0999 V2000
  161.4810  207.9180  147.9130 O   0  0  0  0  0  0  0  0  0  0  0  0
  161.2260  209.2990  151.7750 C   0  0  2  0  0  3  0  0  0  0  0  0
  161.9790  208.3930  149.1390 C   0  0  2  0  0  3  0  0  0  0  0  0
  161.4250  205.6450  148.7260 C   0  0  0  0  0  2  0  0  0  0  0  0
  161.8940  208.0890  151.5100 O   0  0  0  0  0  0  0  0  0  0  0  0
  162.7560  210.6430  148.6300 N   0  0  0  0  0  1  0  0  0  0  0  0
  161.5380  210.3300  150.7130 C   0  0  0  0  0  0  0  0  0  0  0  0
  162.0340  206.6370  147.7230 C   0  0  1  0  0  3  0  0  0  0  0  0
  161.7200  206.1190  150.1460 C   0  0  2  0  0  3  0  0  0  0  0  0
  161.5360  211.5180  150.9920 O   0  0  0  0  0  0  0  0  0  0  0  0
  160.9280  205.2810  151.1310 C   0  0  0  0  0  1  0  0  0  0  0  0
  161.3660  207.5980  150.3060 C   0  0  2  0  0  3  0  0  0  0  0  0
  161.6890  209.8930  149.2740 C   0  0  2  0  0  3  0  0  0  0  0  0
  160.3760  206.1500  145.8740 C   0  0  0  0  0  1  0  0  0  0  0  0
  161.8460  206.1950  146.2710 C   0  0  2  0  0  3  0  0  0  0  0  0
  162.5160  204.8520  146.0250 C   0  0  0  0  0  2  0  0  0  0  0  0
  161.4880  203.8110  145.6200 C   0  0  0  0  0  2  0  0  0  0  0  0
  160.4580  200.7970  147.1620 C   0  0  0  0  0  2  0  0  0  0  0  0
  161.6200  202.5770  146.4940 C   0  0  1  0  0  3  0  0  0  0  0  0
  160.4430  201.7150  148.3620 C   0  0  2  0  0  3  0  0  0  0  0  0
  161.2210  202.9140  147.9120 C   0  0  0  0  0  2  0  0  0  0  0  0
  161.1460  201.0460  149.5240 C   0  0  0  0  0  1  0  0  0  0  0  0
  160.7750  201.5580  146.0270 O   0  0  0  0  0  0  0  0  0  0  0  0
  161.6040  209.7810  153.0600 O   0  0  0  0  0  0  0  0  0  0  0  0
  158.0250  212.6310  156.0080 N   0  0  0  0  0  0  0  0  0  0  0  0
  158.6300  211.4520  154.3000 C   0  0  0  0  0  0  0  0  0  0  0  0
  160.7360  210.5240  153.8640 C   0  0  0  0  0  0  0  0  0  0  0  0
  159.4330  210.7250  153.4860 N   0  0  0  0  0  0  0  0  0  0  0  0
  156.9930  212.4850  155.1820 N   0  0  0  0  0  0  0  0  0  0  0  0
  157.9900  213.3660  157.2610 C   0  0  0  0  0  1  0  0  0  0  0  0
  157.3340  211.7600  154.1150 N   0  0  0  0  0  0  0  0  0  0  0  0
  159.0640  211.9860  155.4660 C   0  0  0  0  0  0  0  0  0  0  0  0
  160.3710  211.8240  155.9100 C   0  0  0  0  0  3  0  0  0  0  0  0
  161.2220  211.0710  155.0780 C   0  0  0  0  0  3  0  0  0  0  0  0
  2 24  1  1  0  0  0
  3  1  1  6  0  0  0
  3 13  1  0  0  0  0
  3 12  1  0  0  0  0
  4  9  1  0  0  0  0
  5  2  1  0  0  0  0
  7 10  2  0  0  0  0
  7  2  1  0  0  0  0
  8 15  1  6  0  0  0
  8  1  1  0  0  0  0
  8  4  1  0  0  0  0
  9 12  1  0  0  0  0
  9 11  1  1  0  0  0
 12  5  1  1  0  0  0
 13  6  1  1  0  0  0
 13  7  1  0  0  0  0
 15 14  1  1  0  0  0
 16 15  1  0  0  0  0
 17 16  1  0  0  0  0
 18 20  1  0  0  0  0
 19 17  1  6  0  0  0
 19 21  1  0  0  0  0
 20 22  1  1  0  0  0
 21 20  1  0  0  0  0
 23 19  1  0  0  0  0
 23 18  1  0  0  0  0
 24 27  1  0  0  0  0
 25 30  1  0  0  0  0
 26 32  2  0  0  0  0
 27 34  1  0  0  0  0
 28 27  2  0  0  0  0
 28 26  1  0  0  0  0
 29 25  1  0  0  0  0
 31 26  1  0  0  0  0
 31 29  2  0  0  0  0
 32 33  1  0  0  0  0
 32 25  1  0  0  0  0
 34 33  2  0  0  0  0
M  END
>  <MODEL>
9

>  <REMARK>
 VINA RESULT:      -7.3      1.889      3.377
  Name = 
  6 active torsions:
  status: ('A' for Active; 'I' for Inactive)
    1  A    between atoms: C_3  and  C_13
    2  A    between atoms: C_3  and  C_14
    3  A    between atoms: C_6  and  O_21
    4  A    between atoms: C_7  and  O_21
    5  A    between atoms: C_8  and  C_13
    6  A    between atoms: C_8  and  C_27
                            x       y       z     vdW  Elec       q    Type
                         _______ _______ _______ _____ _____    ______ ____

>  <TORSDO>
F 6

$$$$
