=
 OpenBabel11052411353D

 46 50  0  0  1  0  0  0  0  0999 V2000
  163.2800  211.0640  155.3530 O   0  0  0  0  0  0  0  0  0  0  0  0
  159.8480  211.7160  152.4750 C   0  0  0  0  0  0  0  0  0  0  0  0
  159.5870  212.8660  151.7270 C   0  0  0  0  0  3  0  0  0  0  0  0
  160.1670  213.0570  150.4780 C   0  0  0  0  0  0  0  0  0  0  0  0
  162.2120  210.6100  154.8620 C   0  0  0  0  0  0  0  0  0  0  0  0
  159.8580  214.2220  149.7740 C   0  0  0  0  0  3  0  0  0  0  0  0
  157.0190  213.6480  155.9280 C   0  0  0  0  0  0  0  0  0  0  0  0
  161.3620  210.9420  150.7170 C   0  0  0  0  0  0  0  0  0  0  0  0
  160.7450  210.7550  151.9730 C   0  0  0  0  0  0  0  0  0  0  0  0
  157.2200  214.2870  157.2590 C   0  0  0  0  0  1  0  0  0  0  0  0
  161.1020  210.9680  157.0710 C   0  0  0  0  0  1  0  0  0  0  0  0
  160.8990  210.8480  155.5630 C   0  0  1  0  0  3  0  0  0  0  0  0
  159.3260  212.7510  155.9230 N   0  0  0  0  0  2  0  0  0  0  0  0
  162.2770  209.8820  153.6310 N   0  0  0  0  0  2  0  0  0  0  0  0
  159.2350  211.5330  153.8370 C   0  0  2  0  0  3  0  0  0  0  0  0
  158.0740  212.9040  155.3120 N   0  0  0  0  0  0  0  0  0  0  0  0
  160.4030  214.4490  148.5150 C   0  0  0  0  0  3  0  0  0  0  0  0
  161.1140  209.5660  152.8150 C   0  0  0  0  0  2  0  0  0  0  0  0
  161.0540  212.0900  149.9330 C   0  0  0  0  0  0  0  0  0  0  0  0
  161.2560  213.5060  147.9480 C   0  0  0  0  0  3  0  0  0  0  0  0
  155.9060  213.7710  155.3520 O   0  0  0  0  0  0  0  0  0  0  0  0
  161.5910  212.3330  148.6340 C   0  0  0  0  0  0  0  0  0  0  0  0
  157.9250  212.2600  154.0280 C   0  0  0  0  0  2  0  0  0  0  0  0
  160.1550  212.0420  154.9440 C   0  0  2  0  0  3  0  0  0  0  0  0
  162.4560  211.3650  147.8960 C   0  0  0  0  0  2  0  0  0  0  0  0
  163.6010  212.0120  147.4330 O   0  0  0  0  0  1  0  0  0  0  0  0
  162.3490  209.9900  150.2950 N   0  0  0  0  0  2  0  0  0  0  0  0
  162.0070  208.7000  149.7790 C   0  0  0  0  0  0  0  0  0  0  0  0
  161.5330  207.2740  147.8790 C   0  0  0  0  0  3  0  0  0  0  0  0
  161.4840  206.3420  150.1250 C   0  0  0  0  0  0  0  0  0  0  0  0
  161.3440  206.1870  148.7360 C   0  0  0  0  0  3  0  0  0  0  0  0
  161.8180  207.6050  150.6350 C   0  0  0  0  0  3  0  0  0  0  0  0
  161.8640  208.5280  148.4000 C   0  0  0  0  0  3  0  0  0  0  0  0
  161.3010  205.2250  151.0200 N   0  0  0  0  0  0  0  0  0  0  0  0
  160.3270  204.1790  150.7310 C   0  0  0  0  0  2  0  0  0  0  0  0
  161.0340  202.8470  150.5460 C   0  0  0  0  0  2  0  0  0  0  0  0
  160.2230  201.9480  149.6300 C   0  0  2  0  0  3  0  0  0  0  0  0
  160.0110  200.7210  150.2330 F   0  0  0  0  0  0  0  0  0  0  0  0
  160.9360  201.7630  148.3340 C   0  0  0  0  0  0  0  0  0  0  0  0
  161.2120  200.6070  147.9180 O   0  0  0  0  0  0  0  0  0  0  0  0
  161.3300  202.9000  147.5770 N   0  0  0  0  0  1  0  0  0  0  0  0
  162.1910  205.0190  152.0870 N   0  0  0  0  0  2  0  0  0  0  0  0
  161.4070  204.9980  153.3140 C   0  0  0  0  0  2  0  0  0  0  0  0
  162.0330  207.1000  154.2340 F   0  0  0  0  0  0  0  0  0  0  0  0
  159.9270  206.3560  154.5930 F   0  0  0  0  0  0  0  0  0  0  0  0
  160.9710  206.4040  153.6880 C   0  0  0  0  0  3  0  0  0  0  0  0
  2 15  1  0  0  0  0
  3  2  2  0  0  0  0
  4  3  1  0  0  0  0
  5  1  2  0  0  0  0
  5 12  1  0  0  0  0
  6  4  2  0  0  0  0
  7 10  1  0  0  0  0
  8  9  2  0  0  0  0
  9  2  1  0  0  0  0
  9 18  1  0  0  0  0
 12 11  1  1  0  0  0
 14  5  1  0  0  0  0
 15 23  1  6  0  0  0
 15 24  1  0  0  0  0
 16 13  1  0  0  0  0
 16  7  1  0  0  0  0
 17  6  1  0  0  0  0
 18 14  1  0  0  0  0
 19  4  1  0  0  0  0
 19  8  1  0  0  0  0
 20 17  2  0  0  0  0
 20 22  1  0  0  0  0
 21  7  2  0  0  0  0
 22 19  2  0  0  0  0
 23 16  1  0  0  0  0
 24 12  1  0  0  0  0
 24 13  1  1  0  0  0
 25 22  1  0  0  0  0
 26 25  1  0  0  0  0
 27  8  1  0  0  0  0
 28 27  1  0  0  0  0
 28 32  1  0  0  0  0
 29 33  1  0  0  0  0
 29 31  2  0  0  0  0
 30 32  2  0  0  0  0
 30 34  1  0  0  0  0
 31 30  1  0  0  0  0
 33 28  2  0  0  0  0
 34 42  1  0  0  0  0
 35 34  1  0  0  0  0
 36 35  1  0  0  0  0
 37 38  1  1  0  0  0
 37 36  1  0  0  0  0
 39 37  1  0  0  0  0
 40 39  2  0  0  0  0
 41 39  1  0  0  0  0
 42 43  1  0  0  0  0
 43 46  1  0  0  0  0
 46 44  1  0  0  0  0
 46 45  1  0  0  0  0
M  END
>  <MODEL>
1

>  <REMARK>
 VINA RESULT:      -7.2      0.000      0.000
  Name = 
  11 active torsions:
  status: ('A' for Active; 'I' for Inactive)
    1  A    between atoms: C_1  and  C_9
    2  A    between atoms: C_1  and  C_34
    3  A    between atoms: N_2  and  C_18
    4  A    between atoms: N_2  and  N_19
    5  A    between atoms: N_2  and  C_28
    6  A    between atoms: C_4  and  N_40
    7  A    between atoms: C_6  and  C_43
    8  A    between atoms: C_12  and  N_19
    9  A    between atoms: C_12  and  C_33
   10  A    between atoms: C_18  and  C_34
   11  A    between atoms: C_20  and  N_40
                            x       y       z     vdW  Elec       q    Type
                         _______ _______ _______ _____ _____    ______ ____

>  <TORSDO>
F 11

$$$$
=
 OpenBabel11052411353D

 46 50  0  0  1  0  0  0  0  0999 V2000
  162.0370  211.1980  156.0360 O   0  0  0  0  0  0  0  0  0  0  0  0
  159.2830  211.7200  152.4830 C   0  0  0  0  0  0  0  0  0  0  0  0
  159.1740  212.8460  151.6640 C   0  0  0  0  0  3  0  0  0  0  0  0
  160.0020  213.0120  150.5590 C   0  0  0  0  0  0  0  0  0  0  0  0
  161.1000  210.7140  155.3460 C   0  0  0  0  0  0  0  0  0  0  0  0
  159.8370  214.1530  149.7730 C   0  0  0  0  0  3  0  0  0  0  0  0
  155.7720  213.7020  155.2070 C   0  0  0  0  0  0  0  0  0  0  0  0
  161.1400  210.9230  151.1070 C   0  0  0  0  0  0  0  0  0  0  0  0
  160.2740  210.7600  152.2090 C   0  0  0  0  0  0  0  0  0  0  0  0
  155.6830  214.3800  156.5310 C   0  0  0  0  0  1  0  0  0  0  0  0
  159.5470  211.1150  157.2610 C   0  0  0  0  0  1  0  0  0  0  0  0
  159.6680  210.9520  155.7480 C   0  0  1  0  0  3  0  0  0  0  0  0
  158.0370  212.8400  155.7130 N   0  0  0  0  0  2  0  0  0  0  0  0
  161.4300  209.9550  154.1780 N   0  0  0  0  0  2  0  0  0  0  0  0
  158.3980  211.5650  153.6910 C   0  0  2  0  0  3  0  0  0  0  0  0
  156.9400  212.9580  154.8480 N   0  0  0  0  0  0  0  0  0  0  0  0
  160.6330  214.3540  148.6500 C   0  0  0  0  0  3  0  0  0  0  0  0
  160.4670  209.6000  153.1450 C   0  0  0  0  0  2  0  0  0  0  0  0
  160.9930  212.0450  150.2410 C   0  0  0  0  0  0  0  0  0  0  0  0
  161.5950  213.4100  148.3030 C   0  0  0  0  0  3  0  0  0  0  0  0
  154.8050  213.7930  154.4060 O   0  0  0  0  0  0  0  0  0  0  0  0
  161.7890  212.2610  149.0780 C   0  0  0  0  0  0  0  0  0  0  0  0
  157.0710  212.2770  153.5810 C   0  0  0  0  0  2  0  0  0  0  0  0
  159.0600  212.1170  154.9510 C   0  0  2  0  0  3  0  0  0  0  0  0
  162.7980  211.2860  148.5670 C   0  0  0  0  0  2  0  0  0  0  0  0
  163.5520  211.8750  147.5520 O   0  0  0  0  0  1  0  0  0  0  0  0
  162.2010  209.9740  150.9290 N   0  0  0  0  0  2  0  0  0  0  0  0
  161.9680  208.5700  150.7870 C   0  0  0  0  0  0  0  0  0  0  0  0
  161.5510  206.4130  151.8090 C   0  0  0  0  0  3  0  0  0  0  0  0
  161.6860  206.5920  149.3870 C   0  0  0  0  0  0  0  0  0  0  0  0
  161.5030  205.8190  150.5450 C   0  0  0  0  0  3  0  0  0  0  0  0
  161.9160  207.9690  149.5210 C   0  0  0  0  0  3  0  0  0  0  0  0
  161.7820  207.7860  151.9290 C   0  0  0  0  0  3  0  0  0  0  0  0
  161.6290  205.9920  148.0760 N   0  0  0  0  0  0  0  0  0  0  0  0
  161.8710  204.5660  147.8880 C   0  0  0  0  0  2  0  0  0  0  0  0
  160.6930  203.7640  148.4140 C   0  0  0  0  0  2  0  0  0  0  0  0
  161.1200  202.3370  148.7020 C   0  0  2  0  0  3  0  0  0  0  0  0
  160.5290  201.4710  147.7990 F   0  0  0  0  0  0  0  0  0  0  0  0
  160.7380  201.9610  150.0930 C   0  0  0  0  0  0  0  0  0  0  0  0
  160.6810  200.7490  150.4330 O   0  0  0  0  0  0  0  0  0  0  0  0
  160.4120  202.9760  151.0350 N   0  0  0  0  0  1  0  0  0  0  0  0
  161.1470  206.7270  146.9800 N   0  0  0  0  0  2  0  0  0  0  0  0
  161.7280  206.1500  145.7750 C   0  0  0  0  0  2  0  0  0  0  0  0
  159.4160  206.2280  145.2180 F   0  0  0  0  0  0  0  0  0  0  0  0
  160.5610  204.3270  144.7830 F   0  0  0  0  0  0  0  0  0  0  0  0
  160.6330  205.7070  144.8210 C   0  0  0  0  0  3  0  0  0  0  0  0
  2 15  1  0  0  0  0
  3  2  2  0  0  0  0
  4  3  1  0  0  0  0
  5 12  1  0  0  0  0
  5  1  2  0  0  0  0
  6  4  2  0  0  0  0
  7 10  1  0  0  0  0
  8  9  2  0  0  0  0
  9  2  1  0  0  0  0
  9 18  1  0  0  0  0
 12 11  1  1  0  0  0
 14  5  1  0  0  0  0
 15 23  1  6  0  0  0
 15 24  1  0  0  0  0
 16  7  1  0  0  0  0
 16 13  1  0  0  0  0
 17  6  1  0  0  0  0
 18 14  1  0  0  0  0
 19  4  1  0  0  0  0
 19  8  1  0  0  0  0
 20 17  2  0  0  0  0
 20 22  1  0  0  0  0
 21  7  2  0  0  0  0
 22 19  2  0  0  0  0
 23 16  1  0  0  0  0
 24 13  1  1  0  0  0
 24 12  1  0  0  0  0
 25 22  1  0  0  0  0
 26 25  1  0  0  0  0
 27  8  1  0  0  0  0
 28 27  1  0  0  0  0
 28 33  1  0  0  0  0
 29 33  2  0  0  0  0
 30 32  1  0  0  0  0
 30 31  2  0  0  0  0
 31 29  1  0  0  0  0
 32 28  2  0  0  0  0
 34 30  1  0  0  0  0
 35 34  1  0  0  0  0
 35 36  1  0  0  0  0
 36 37  1  0  0  0  0
 37 38  1  6  0  0  0
 37 39  1  0  0  0  0
 39 40  2  0  0  0  0
 39 41  1  0  0  0  0
 42 34  1  0  0  0  0
 43 42  1  0  0  0  0
 45 46  1  0  0  0  0
 46 44  1  0  0  0  0
 46 43  1  0  0  0  0
M  END
>  <MODEL>
2

>  <REMARK>
 VINA RESULT:      -6.9      2.220      3.212
  Name = 
  11 active torsions:
  status: ('A' for Active; 'I' for Inactive)
    1  A    between atoms: C_1  and  C_9
    2  A    between atoms: C_1  and  C_34
    3  A    between atoms: N_2  and  C_18
    4  A    between atoms: N_2  and  N_19
    5  A    between atoms: N_2  and  C_28
    6  A    between atoms: C_4  and  N_40
    7  A    between atoms: C_6  and  C_43
    8  A    between atoms: C_12  and  N_19
    9  A    between atoms: C_12  and  C_33
   10  A    between atoms: C_18  and  C_34
   11  A    between atoms: C_20  and  N_40
                            x       y       z     vdW  Elec       q    Type
                         _______ _______ _______ _____ _____    ______ ____

>  <TORSDO>
F 11

$$$$
=
 OpenBabel11052411353D

 46 50  0  0  1  0  0  0  0  0999 V2000
  162.2910  210.3860  155.8510 O   0  0  0  0  0  0  0  0  0  0  0  0
  159.3640  211.5390  152.5970 C   0  0  0  0  0  0  0  0  0  0  0  0
  159.3120  212.7510  151.9060 C   0  0  0  0  0  3  0  0  0  0  0  0
  160.0750  212.9570  150.7610 C   0  0  0  0  0  0  0  0  0  0  0  0
  161.2660  210.0680  155.1920 C   0  0  0  0  0  0  0  0  0  0  0  0
  159.9710  214.1860  150.1080 C   0  0  0  0  0  3  0  0  0  0  0  0
  156.2660  213.5330  155.7740 C   0  0  0  0  0  0  0  0  0  0  0  0
  161.0320  210.7250  151.0050 C   0  0  0  0  0  0  0  0  0  0  0  0
  160.2330  210.5260  152.1510 C   0  0  0  0  0  0  0  0  0  0  0  0
  156.3370  214.0700  157.1630 C   0  0  0  0  0  1  0  0  0  0  0  0
  159.8960  210.4040  157.2540 C   0  0  0  0  0  1  0  0  0  0  0  0
  159.8950  210.3920  155.7280 C   0  0  1  0  0  3  0  0  0  0  0  0
  158.4630  212.4160  156.0110 N   0  0  0  0  0  2  0  0  0  0  0  0
  161.4360  209.4110  153.9320 N   0  0  0  0  0  2  0  0  0  0  0  0
  158.5540  211.3370  153.8500 C   0  0  2  0  0  3  0  0  0  0  0  0
  157.3270  212.7270  155.2520 N   0  0  0  0  0  0  0  0  0  0  0  0
  160.7040  214.4320  148.9510 C   0  0  0  0  0  3  0  0  0  0  0  0
  160.3740  209.2590  152.9480 C   0  0  0  0  0  2  0  0  0  0  0  0
  160.9390  211.9420  150.2710 C   0  0  0  0  0  0  0  0  0  0  0  0
  161.5400  213.4450  148.4370 C   0  0  0  0  0  3  0  0  0  0  0  0
  155.2600  213.7980  155.0660 O   0  0  0  0  0  0  0  0  0  0  0  0
  161.6710  212.2070  149.0750 C   0  0  0  0  0  0  0  0  0  0  0  0
  157.3010  212.1760  153.9170 C   0  0  0  0  0  2  0  0  0  0  0  0
  159.3530  211.6870  155.1020 C   0  0  2  0  0  3  0  0  0  0  0  0
  162.5390  211.2040  148.3910 C   0  0  0  0  0  2  0  0  0  0  0  0
  163.5210  211.8580  147.6470 O   0  0  0  0  0  1  0  0  0  0  0  0
  161.9790  209.7070  150.6500 N   0  0  0  0  0  2  0  0  0  0  0  0
  161.6230  208.3260  150.5360 C   0  0  0  0  0  0  0  0  0  0  0  0
  160.7630  206.3050  151.5580 C   0  0  0  0  0  3  0  0  0  0  0  0
  161.4160  206.2850  149.2140 C   0  0  0  0  0  0  0  0  0  0  0  0
  160.9110  205.6240  150.3460 C   0  0  0  0  0  3  0  0  0  0  0  0
  161.7670  207.6390  149.3220 C   0  0  0  0  0  3  0  0  0  0  0  0
  161.1180  207.6530  151.6520 C   0  0  0  0  0  3  0  0  0  0  0  0
  161.5640  205.5970  147.9550 N   0  0  0  0  0  0  0  0  0  0  0  0
  161.7540  206.3340  146.7110 C   0  0  0  0  0  2  0  0  0  0  0  0
  162.0760  205.3720  145.5810 C   0  0  0  0  0  2  0  0  0  0  0  0
  160.8930  205.2640  144.6350 C   0  0  2  0  0  3  0  0  0  0  0  0
  159.8800  206.1150  145.0410 F   0  0  0  0  0  0  0  0  0  0  0  0
  160.3950  203.8590  144.6010 C   0  0  0  0  0  0  0  0  0  0  0  0
  161.0480  202.9370  145.1590 O   0  0  0  0  0  0  0  0  0  0  0  0
  159.1890  203.5540  143.9110 N   0  0  0  0  0  1  0  0  0  0  0  0
  161.7230  204.2020  147.9240 N   0  0  0  0  0  2  0  0  0  0  0  0
  161.0170  203.6540  149.0740 C   0  0  0  0  0  2  0  0  0  0  0  0
  160.7840  201.4680  149.9840 F   0  0  0  0  0  0  0  0  0  0  0  0
  161.4360  201.6690  147.8280 F   0  0  0  0  0  0  0  0  0  0  0  0
  160.6410  202.2040  148.8230 C   0  0  0  0  0  3  0  0  0  0  0  0
  2 15  1  0  0  0  0
  3  2  2  0  0  0  0
  4  3  1  0  0  0  0
  5 12  1  0  0  0  0
  5  1  2  0  0  0  0
  6  4  2  0  0  0  0
  7 10  1  0  0  0  0
  8  9  2  0  0  0  0
  9  2  1  0  0  0  0
  9 18  1  0  0  0  0
 12 11  1  1  0  0  0
 14  5  1  0  0  0  0
 15 23  1  6  0  0  0
 15 24  1  0  0  0  0
 16  7  1  0  0  0  0
 16 13  1  0  0  0  0
 17  6  1  0  0  0  0
 18 14  1  0  0  0  0
 19  4  1  0  0  0  0
 19  8  1  0  0  0  0
 20 17  2  0  0  0  0
 20 22  1  0  0  0  0
 21  7  2  0  0  0  0
 22 19  2  0  0  0  0
 23 16  1  0  0  0  0
 24 12  1  0  0  0  0
 24 13  1  1  0  0  0
 25 22  1  0  0  0  0
 26 25  1  0  0  0  0
 27  8  1  0  0  0  0
 28 27  1  0  0  0  0
 28 33  1  0  0  0  0
 29 33  2  0  0  0  0
 30 32  1  0  0  0  0
 30 31  2  0  0  0  0
 31 29  1  0  0  0  0
 32 28  2  0  0  0  0
 34 30  1  0  0  0  0
 35 34  1  0  0  0  0
 36 35  1  0  0  0  0
 37 38  1  1  0  0  0
 37 36  1  0  0  0  0
 39 37  1  0  0  0  0
 39 40  2  0  0  0  0
 41 39  1  0  0  0  0
 42 34  1  0  0  0  0
 42 43  1  0  0  0  0
 45 46  1  0  0  0  0
 46 43  1  0  0  0  0
 46 44  1  0  0  0  0
M  END
>  <MODEL>
3

>  <REMARK>
 VINA RESULT:      -5.7      1.974      3.153
  Name = 
  11 active torsions:
  status: ('A' for Active; 'I' for Inactive)
    1  A    between atoms: C_1  and  C_9
    2  A    between atoms: C_1  and  C_34
    3  A    between atoms: N_2  and  C_18
    4  A    between atoms: N_2  and  N_19
    5  A    between atoms: N_2  and  C_28
    6  A    between atoms: C_4  and  N_40
    7  A    between atoms: C_6  and  C_43
    8  A    between atoms: C_12  and  N_19
    9  A    between atoms: C_12  and  C_33
   10  A    between atoms: C_18  and  C_34
   11  A    between atoms: C_20  and  N_40
                            x       y       z     vdW  Elec       q    Type
                         _______ _______ _______ _____ _____    ______ ____

>  <TORSDO>
F 11

$$$$
=
 OpenBabel11052411353D

 46 50  0  0  1  0  0  0  0  0999 V2000
  162.5450  211.3660  155.7750 O   0  0  0  0  0  0  0  0  0  0  0  0
  159.4170  211.8170  152.5360 C   0  0  0  0  0  0  0  0  0  0  0  0
  159.2000  212.9360  151.7290 C   0  0  0  0  0  3  0  0  0  0  0  0
  159.9020  213.1100  150.5410 C   0  0  0  0  0  0  0  0  0  0  0  0
  161.5490  210.8620  155.1910 C   0  0  0  0  0  0  0  0  0  0  0  0
  159.6320  214.2430  149.7730 C   0  0  0  0  0  3  0  0  0  0  0  0
  156.1820  213.7510  155.6130 C   0  0  0  0  0  0  0  0  0  0  0  0
  161.1300  211.0450  150.9720 C   0  0  0  0  0  0  0  0  0  0  0  0
  160.3900  210.8740  152.1620 C   0  0  0  0  0  0  0  0  0  0  0  0
  156.2230  214.4350  156.9360 C   0  0  0  0  0  1  0  0  0  0  0  0
  160.2030  211.2460  157.2600 C   0  0  0  0  0  1  0  0  0  0  0  0
  160.1640  211.0750  155.7440 C   0  0  1  0  0  3  0  0  0  0  0  0
  158.5030  212.9330  155.8770 N   0  0  0  0  0  2  0  0  0  0  0  0
  161.7660  210.1020  153.9980 N   0  0  0  0  0  2  0  0  0  0  0  0
  158.6700  211.6530  153.8330 C   0  0  2  0  0  3  0  0  0  0  0  0
  157.3190  213.0260  155.1340 N   0  0  0  0  0  0  0  0  0  0  0  0
  160.2990  214.4520  148.5700 C   0  0  0  0  0  3  0  0  0  0  0  0
  160.7050  209.7220  153.0760 C   0  0  0  0  0  2  0  0  0  0  0  0
  160.8700  212.1590  150.1230 C   0  0  0  0  0  0  0  0  0  0  0  0
  161.2360  213.5230  148.1260 C   0  0  0  0  0  3  0  0  0  0  0  0
  155.1330  213.8190  154.9210 O   0  0  0  0  0  0  0  0  0  0  0  0
  161.5330  212.3830  148.8800 C   0  0  0  0  0  0  0  0  0  0  0  0
  157.3250  212.3400  153.8630 C   0  0  0  0  0  2  0  0  0  0  0  0
  159.4520  212.2240  155.0130 C   0  0  2  0  0  3  0  0  0  0  0  0
  162.4990  211.4240  148.2670 C   0  0  0  0  0  2  0  0  0  0  0  0
  163.6750  212.0910  147.9260 O   0  0  0  0  0  1  0  0  0  0  0  0
  162.1840  210.1150  150.6850 N   0  0  0  0  0  2  0  0  0  0  0  0
  161.9390  208.8070  150.1590 C   0  0  0  0  0  0  0  0  0  0  0  0
  161.6620  207.3500  148.2440 C   0  0  0  0  0  3  0  0  0  0  0  0
  161.5070  206.4290  150.4900 C   0  0  0  0  0  0  0  0  0  0  0  0
  161.4680  206.2600  149.0970 C   0  0  0  0  0  3  0  0  0  0  0  0
  161.7470  207.7090  151.0100 C   0  0  0  0  0  3  0  0  0  0  0  0
  161.8970  208.6210  148.7750 C   0  0  0  0  0  3  0  0  0  0  0  0
  161.3190  205.3090  151.3810 N   0  0  0  0  0  0  0  0  0  0  0  0
  161.8930  205.3080  152.7210 C   0  0  0  0  0  2  0  0  0  0  0  0
  160.8100  205.0340  153.7510 C   0  0  0  0  0  2  0  0  0  0  0  0
  160.1690  206.3360  154.1940 C   0  0  2  0  0  3  0  0  0  0  0  0
  160.2560  207.2780  153.1830 F   0  0  0  0  0  0  0  0  0  0  0  0
  160.8440  206.8440  155.4230 C   0  0  0  0  0  0  0  0  0  0  0  0
  160.2790  206.7510  156.5440 O   0  0  0  0  0  0  0  0  0  0  0  0
  162.1210  207.4610  155.3230 N   0  0  0  0  0  1  0  0  0  0  0  0
  160.4180  204.2840  151.0500 N   0  0  0  0  0  2  0  0  0  0  0  0
  161.2010  203.0910  150.7560 C   0  0  0  0  0  2  0  0  0  0  0  0
  161.8820  203.1370  148.4780 F   0  0  0  0  0  0  0  0  0  0  0  0
  159.6710  203.0080  148.9330 F   0  0  0  0  0  0  0  0  0  0  0  0
  160.9330  202.6180  149.3380 C   0  0  0  0  0  3  0  0  0  0  0  0
  2 15  1  0  0  0  0
  3  2  2  0  0  0  0
  4  3  1  0  0  0  0
  5 12  1  0  0  0  0
  5  1  2  0  0  0  0
  6  4  2  0  0  0  0
  7 10  1  0  0  0  0
  8  9  2  0  0  0  0
  9  2  1  0  0  0  0
  9 18  1  0  0  0  0
 12 11  1  1  0  0  0
 14  5  1  0  0  0  0
 15 23  1  6  0  0  0
 15 24  1  0  0  0  0
 16  7  1  0  0  0  0
 16 13  1  0  0  0  0
 17  6  1  0  0  0  0
 18 14  1  0  0  0  0
 19  4  1  0  0  0  0
 19  8  1  0  0  0  0
 20 17  2  0  0  0  0
 20 22  1  0  0  0  0
 21  7  2  0  0  0  0
 22 19  2  0  0  0  0
 23 16  1  0  0  0  0
 24 12  1  0  0  0  0
 24 13  1  1  0  0  0
 25 22  1  0  0  0  0
 26 25  1  0  0  0  0
 27  8  1  0  0  0  0
 28 27  1  0  0  0  0
 28 32  1  0  0  0  0
 29 33  1  0  0  0  0
 29 31  2  0  0  0  0
 30 32  2  0  0  0  0
 30 34  1  0  0  0  0
 31 30  1  0  0  0  0
 33 28  2  0  0  0  0
 34 35  1  0  0  0  0
 35 36  1  0  0  0  0
 36 37  1  0  0  0  0
 37 38  1  6  0  0  0
 37 39  1  0  0  0  0
 39 40  2  0  0  0  0
 41 39  1  0  0  0  0
 42 34  1  0  0  0  0
 43 42  1  0  0  0  0
 44 46  1  0  0  0  0
 45 46  1  0  0  0  0
 46 43  1  0  0  0  0
M  END
>  <MODEL>
4

>  <REMARK>
 VINA RESULT:      -5.1      1.872      3.417
  Name = 
  11 active torsions:
  status: ('A' for Active; 'I' for Inactive)
    1  A    between atoms: C_1  and  C_9
    2  A    between atoms: C_1  and  C_34
    3  A    between atoms: N_2  and  C_18
    4  A    between atoms: N_2  and  N_19
    5  A    between atoms: N_2  and  C_28
    6  A    between atoms: C_4  and  N_40
    7  A    between atoms: C_6  and  C_43
    8  A    between atoms: C_12  and  N_19
    9  A    between atoms: C_12  and  C_33
   10  A    between atoms: C_18  and  C_34
   11  A    between atoms: C_20  and  N_40
                            x       y       z     vdW  Elec       q    Type
                         _______ _______ _______ _____ _____    ______ ____

>  <TORSDO>
F 11

$$$$
=
 OpenBabel11052411353D

 46 50  0  0  1  0  0  0  0  0999 V2000
  164.0580  207.7600  148.3140 O   0  0  0  0  0  0  0  0  0  0  0  0
  160.7700  206.6010  151.2000 C   0  0  0  0  0  0  0  0  0  0  0  0
  160.9230  205.9700  152.4370 C   0  0  0  0  0  3  0  0  0  0  0  0
  161.1520  206.7080  153.5940 C   0  0  0  0  0  0  0  0  0  0  0  0
  162.8180  207.6840  148.5280 C   0  0  0  0  0  0  0  0  0  0  0  0
  161.2840  206.0210  154.8010 C   0  0  0  0  0  3  0  0  0  0  0  0
  160.3520  202.1460  149.2900 C   0  0  0  0  0  0  0  0  0  0  0  0
  161.1470  208.7630  152.2770 C   0  0  0  0  0  0  0  0  0  0  0  0
  160.8910  208.0000  151.1180 C   0  0  0  0  0  0  0  0  0  0  0  0
  161.2010  201.2360  148.4700 C   0  0  0  0  0  1  0  0  0  0  0  0
  162.6900  205.8460  146.8400 C   0  0  0  0  0  1  0  0  0  0  0  0
  162.0500  206.4680  148.0790 C   0  0  1  0  0  3  0  0  0  0  0  0
  161.8020  204.0860  148.7810 N   0  0  0  0  0  2  0  0  0  0  0  0
  162.1720  208.7630  149.2110 N   0  0  0  0  0  2  0  0  0  0  0  0
  160.5480  205.7900  149.9510 C   0  0  2  0  0  3  0  0  0  0  0  0
  160.6810  203.5320  149.4140 N   0  0  0  0  0  0  0  0  0  0  0  0
  161.5000  206.7170  155.9860 C   0  0  0  0  0  3  0  0  0  0  0  0
  160.8330  208.6770  149.7770 C   0  0  0  0  0  2  0  0  0  0  0  0
  161.2500  208.1240  153.5460 C   0  0  0  0  0  0  0  0  0  0  0  0
  161.5770  208.1070  155.9700 C   0  0  0  0  0  3  0  0  0  0  0  0
  159.3400  201.6770  149.8740 O   0  0  0  0  0  0  0  0  0  0  0  0
  161.4570  208.8210  154.7730 C   0  0  0  0  0  0  0  0  0  0  0  0
  159.8850  204.4550  150.1900 C   0  0  0  0  0  2  0  0  0  0  0  0
  161.8620  205.4780  149.2390 C   0  0  2  0  0  3  0  0  0  0  0  0
  161.4830  210.3090  154.8900 C   0  0  0  0  0  2  0  0  0  0  0  0
  162.5540  210.7010  155.6940 O   0  0  0  0  0  1  0  0  0  0  0  0
  161.3690  210.1730  152.1290 N   0  0  0  0  0  2  0  0  0  0  0  0
  160.2980  211.1150  152.0060 C   0  0  0  0  0  0  0  0  0  0  0  0
  158.2130  212.0190  152.8430 C   0  0  0  0  0  3  0  0  0  0  0  0
  159.2230  212.9720  150.8460 C   0  0  0  0  0  0  0  0  0  0  0  0
  158.1920  212.9480  151.7990 C   0  0  0  0  0  3  0  0  0  0  0  0
  160.2740  212.0510  150.9620 C   0  0  0  0  0  3  0  0  0  0  0  0
  159.2650  211.1050  152.9460 C   0  0  0  0  0  3  0  0  0  0  0  0
  159.2180  213.9330  149.7700 N   0  0  0  0  0  0  0  0  0  0  0  0
  160.4350  214.2380  149.0270 C   0  0  0  0  0  2  0  0  0  0  0  0
  160.2320  213.9430  147.5510 C   0  0  0  0  0  2  0  0  0  0  0  0
  160.9680  212.6720  147.1670 C   0  0  2  0  0  3  0  0  0  0  0  0
  160.8940  211.7490  148.1950 F   0  0  0  0  0  0  0  0  0  0  0  0
  162.3950  212.9820  146.8620 C   0  0  0  0  0  0  0  0  0  0  0  0
  162.7060  213.5600  145.7880 O   0  0  0  0  0  0  0  0  0  0  0  0
  163.4120  212.5980  147.7800 N   0  0  0  0  0  1  0  0  0  0  0  0
  158.0050  214.4490  149.2860 N   0  0  0  0  0  2  0  0  0  0  0  0
  157.2260  213.3310  148.7720 C   0  0  0  0  0  2  0  0  0  0  0  0
  155.9000  214.0950  146.9500 F   0  0  0  0  0  0  0  0  0  0  0  0
  157.0780  212.1810  146.6920 F   0  0  0  0  0  0  0  0  0  0  0  0
  157.0760  213.4390  147.2640 C   0  0  0  0  0  3  0  0  0  0  0  0
  1  5  2  0  0  0  0
  2  3  1  0  0  0  0
  3  4  2  0  0  0  0
  4  6  1  0  0  0  0
  5 14  1  0  0  0  0
  6 17  2  0  0  0  0
  7 16  1  0  0  0  0
  7 21  2  0  0  0  0
  8 19  2  0  0  0  0
  9  2  2  0  0  0  0
  9  8  1  0  0  0  0
 10  7  1  0  0  0  0
 12 11  1  6  0  0  0
 12  5  1  0  0  0  0
 12 24  1  0  0  0  0
 13 16  1  0  0  0  0
 14 18  1  0  0  0  0
 15 23  1  1  0  0  0
 15  2  1  0  0  0  0
 16 23  1  0  0  0  0
 18  9  1  0  0  0  0
 19  4  1  0  0  0  0
 19 22  1  0  0  0  0
 20 17  1  0  0  0  0
 22 25  1  0  0  0  0
 22 20  2  0  0  0  0
 24 13  1  6  0  0  0
 24 15  1  0  0  0  0
 25 26  1  0  0  0  0
 27  8  1  0  0  0  0
 28 27  1  0  0  0  0
 28 33  1  0  0  0  0
 29 33  2  0  0  0  0
 30 32  1  0  0  0  0
 30 31  2  0  0  0  0
 31 29  1  0  0  0  0
 32 28  2  0  0  0  0
 34 30  1  0  0  0  0
 35 34  1  0  0  0  0
 36 35  1  0  0  0  0
 37 36  1  0  0  0  0
 37 38  1  1  0  0  0
 39 37  1  0  0  0  0
 39 41  1  0  0  0  0
 40 39  2  0  0  0  0
 42 34  1  0  0  0  0
 43 42  1  0  0  0  0
 44 46  1  0  0  0  0
 45 46  1  0  0  0  0
 46 43  1  0  0  0  0
M  END
>  <MODEL>
5

>  <REMARK>
 VINA RESULT:      -4.4      3.293      9.207
  Name = 
  11 active torsions:
  status: ('A' for Active; 'I' for Inactive)
    1  A    between atoms: C_1  and  C_9
    2  A    between atoms: C_1  and  C_34
    3  A    between atoms: N_2  and  C_18
    4  A    between atoms: N_2  and  N_19
    5  A    between atoms: N_2  and  C_28
    6  A    between atoms: C_4  and  N_40
    7  A    between atoms: C_6  and  C_43
    8  A    between atoms: C_12  and  N_19
    9  A    between atoms: C_12  and  C_33
   10  A    between atoms: C_18  and  C_34
   11  A    between atoms: C_20  and  N_40
                            x       y       z     vdW  Elec       q    Type
                         _______ _______ _______ _____ _____    ______ ____

>  <TORSDO>
F 11

$$$$
