=
 OpenBabel11052409463D

 31 35  0  0  1  0  0  0  0  0999 V2000
  161.1680  208.3490  151.4450 N   0  0  1  0  0  0  0  0  0  0  0  0
  161.9560  208.7480  152.6270 C   0  0  1  0  0  3  0  0  0  0  0  0
  161.9000  209.2820  148.6360 C   0  0  0  0  0  3  0  0  0  0  0  0
  161.3050  206.6890  148.0630 S   0  0  0  0  0  0  0  0  0  0  0  0
  161.7970  208.0410  149.1170 C   0  0  0  0  0  0  0  0  0  0  0  0
  162.6680  210.3280  150.8850 C   0  0  0  0  0  2  0  0  0  0  0  0
  161.4910  209.7800  151.6990 C   0  0  1  0  0  3  0  0  0  0  0  0
  161.8720  206.2030  150.6100 C   0  0  0  0  0  3  0  0  0  0  0  0
  162.0940  207.6710  150.5360 C   0  0  2  0  0  3  0  0  0  0  0  0
  161.4830  205.6100  149.4860 C   0  0  0  0  0  0  0  0  0  0  0  0
  162.2960  210.4530  149.4400 C   0  0  0  0  0  0  0  0  0  0  0  0
  162.3310  211.5860  148.8950 O   0  0  0  0  0  0  0  0  0  0  0  0
  160.6780  202.0650  150.5340 C   0  0  0  0  0  3  0  0  0  0  0  0
  160.9390  203.4370  150.5900 C   0  0  0  0  0  3  0  0  0  0  0  0
  161.2050  204.1600  149.4170 C   0  0  0  0  0  0  0  0  0  0  0  0
  160.6810  201.4020  149.3030 C   0  0  0  0  0  3  0  0  0  0  0  0
  161.2060  203.4830  148.1860 C   0  0  0  0  0  3  0  0  0  0  0  0
  160.9450  202.1120  148.1300 C   0  0  0  0  0  3  0  0  0  0  0  0
  160.0160  207.3820  155.4190 O   0  0  0  0  0  1  0  0  0  0  0  0
  161.3110  206.2630  153.9040 O   0  0  0  0  0  0  0  0  0  0  0  0
  161.1110  208.7070  153.8230 N   0  0  0  0  0  0  0  0  0  0  0  0
  160.7870  207.4410  154.4250 C   0  0  0  0  0  0  0  0  0  0  0  0
  159.2700  210.3290  153.8480 C   0  0  0  0  0  3  0  0  0  0  0  0
  161.1570  210.7070  155.3080 C   0  0  0  0  0  0  0  0  0  0  0  0
  159.3270  212.2260  155.3290 C   0  0  0  0  0  0  0  0  0  0  0  0
  160.5220  209.9230  154.3240 C   0  0  0  0  0  0  0  0  0  0  0  0
  158.6680  211.4830  154.3480 C   0  0  0  0  0  0  0  0  0  0  0  0
  160.5470  211.8280  155.7790 N   0  0  0  0  0  0  0  0  0  0  0  0
  158.7590  213.3510  155.8290 F   0  0  0  0  0  0  0  0  0  0  0  0
  157.4550  211.8720  153.8860 F   0  0  0  0  0  0  0  0  0  0  0  0
  162.5120  210.3620  155.8230 C   0  0  0  0  0  1  0  0  0  0  0  0
  1  7  1  0  0  0  0
  1  2  1  0  0  0  0
  2 21  1  0  0  0  0
  3  5  2  0  0  0  0
  3 11  1  0  0  0  0
  4  5  1  0  0  0  0
  4 10  1  0  0  0  0
  5  9  1  0  0  0  0
  6  7  1  0  0  0  0
  7  2  1  0  0  0  0
  9  8  1  0  0  0  0
  9  1  1  0  0  0  0
 10  8  2  0  0  0  0
 11  6  1  0  0  0  0
 12 11  2  0  0  0  0
 13 14  1  0  0  0  0
 15 10  1  0  0  0  0
 15 14  2  0  0  0  0
 16 13  2  0  0  0  0
 17 15  1  0  0  0  0
 18 17  2  0  0  0  0
 18 16  1  0  0  0  0
 20 22  2  0  0  0  0
 21 26  1  0  0  0  0
 21 22  1  0  0  0  0
 22 19  1  0  0  0  0
 23 26  2  0  0  0  0
 23 27  1  0  0  0  0
 24 28  2  0  0  0  0
 24 31  1  0  0  0  0
 25 28  1  0  0  0  0
 25 29  1  0  0  0  0
 26 24  1  0  0  0  0
 27 25  2  0  0  0  0
 30 27  1  0  0  0  0
M  END
>  <MODEL>
1

>  <REMARK>
 VINA RESULT:      -9.4      0.000      0.000
  Name = 
  3 active torsions:
  status: ('A' for Active; 'I' for Inactive)
    1  A    between atoms: C_2  and  N_16
    2  A    between atoms: C_11  and  N_16
    3  A    between atoms: C_21  and  C_26
                            x       y       z     vdW  Elec       q    Type
                         _______ _______ _______ _____ _____    ______ ____

>  <TORSDO>
F 3

$$$$
=
 OpenBabel11052409463D

 31 35  0  0  1  0  0  0  0  0999 V2000
  161.1050  207.4800  150.0950 N   0  0  1  0  0  0  0  0  0  0  0  0
  161.9900  206.3980  149.6190 C   0  0  1  0  0  3  0  0  0  0  0  0
  161.0480  208.3360  153.0220 C   0  0  0  0  0  3  0  0  0  0  0  0
  160.9760  210.8020  151.8720 S   0  0  0  0  0  0  0  0  0  0  0  0
  161.3310  209.0550  151.9320 C   0  0  0  0  0  0  0  0  0  0  0  0
  161.9670  206.1060  152.0580 C   0  0  0  0  0  2  0  0  0  0  0  0
  161.1280  206.1560  150.7760 C   0  0  1  0  0  3  0  0  0  0  0  0
  162.1170  209.6410  149.7760 C   0  0  0  0  0  3  0  0  0  0  0  0
  161.9720  208.4890  150.7050 C   0  0  2  0  0  3  0  0  0  0  0  0
  161.6690  210.8110  150.2170 C   0  0  0  0  0  0  0  0  0  0  0  0
  161.3070  206.8900  153.1500 C   0  0  0  0  0  0  0  0  0  0  0  0
  160.9710  206.3000  154.2090 O   0  0  0  0  0  0  0  0  0  0  0  0
  160.8660  214.2450  148.8450 C   0  0  0  0  0  3  0  0  0  0  0  0
  160.8200  213.0830  149.6210 C   0  0  0  0  0  3  0  0  0  0  0  0
  161.7280  212.0380  149.3940 C   0  0  0  0  0  0  0  0  0  0  0  0
  161.8220  214.3730  147.8330 C   0  0  0  0  0  3  0  0  0  0  0  0
  162.6840  212.1760  148.3730 C   0  0  0  0  0  3  0  0  0  0  0  0
  162.7300  213.3380  147.5970 C   0  0  0  0  0  3  0  0  0  0  0  0
  160.3010  206.1170  146.3800 O   0  0  0  0  0  0  0  0  0  0  0  0
  160.8640  208.0100  147.5310 O   0  0  0  0  0  1  0  0  0  0  0  0
  161.4230  205.7890  148.4130 N   0  0  0  0  0  0  0  0  0  0  0  0
  160.8440  206.6260  147.3960 C   0  0  0  0  0  0  0  0  0  0  0  0
  160.6270  203.6270  149.2570 C   0  0  0  0  0  3  0  0  0  0  0  0
  161.9610  203.6570  147.2430 C   0  0  0  0  0  0  0  0  0  0  0  0
  161.1290  201.5900  148.0750 C   0  0  0  0  0  0  0  0  0  0  0  0
  161.3490  204.3540  148.3040 C   0  0  0  0  0  0  0  0  0  0  0  0
  160.5150  202.2410  149.1470 C   0  0  0  0  0  0  0  0  0  0  0  0
  161.8350  202.3050  147.1600 N   0  0  0  0  0  0  0  0  0  0  0  0
  161.0310  200.2440  147.9490 F   0  0  0  0  0  0  0  0  0  0  0  0
  159.8140  201.5400  150.0700 F   0  0  0  0  0  0  0  0  0  0  0  0
  162.7870  204.3620  146.2210 C   0  0  0  0  0  1  0  0  0  0  0  0
  1  9  1  0  0  0  0
  1  7  1  0  0  0  0
  2  1  1  0  0  0  0
  2  7  1  0  0  0  0
  3 11  1  0  0  0  0
  4  5  1  0  0  0  0
  5  3  2  0  0  0  0
  6 11  1  0  0  0  0
  7  6  1  0  0  0  0
  8 10  2  0  0  0  0
  8  9  1  0  0  0  0
  9  5  1  0  0  0  0
 10  4  1  0  0  0  0
 11 12  2  0  0  0  0
 13 14  1  0  0  0  0
 15 14  2  0  0  0  0
 15 10  1  0  0  0  0
 16 13  2  0  0  0  0
 17 15  1  0  0  0  0
 18 16  1  0  0  0  0
 18 17  2  0  0  0  0
 19 22  2  0  0  0  0
 21  2  1  0  0  0  0
 22 20  1  0  0  0  0
 22 21  1  0  0  0  0
 24 26  1  0  0  0  0
 25 27  2  0  0  0  0
 26 21  1  0  0  0  0
 26 23  2  0  0  0  0
 27 23  1  0  0  0  0
 27 30  1  0  0  0  0
 28 24  2  0  0  0  0
 28 25  1  0  0  0  0
 29 25  1  0  0  0  0
 31 24  1  0  0  0  0
M  END
>  <MODEL>
2

>  <REMARK>
 VINA RESULT:      -7.3      4.261      8.684
  Name = 
  3 active torsions:
  status: ('A' for Active; 'I' for Inactive)
    1  A    between atoms: C_2  and  N_16
    2  A    between atoms: C_11  and  N_16
    3  A    between atoms: C_21  and  C_26
                            x       y       z     vdW  Elec       q    Type
                         _______ _______ _______ _____ _____    ______ ____

>  <TORSDO>
F 3

$$$$
=
 OpenBabel11052409463D

 31 35  0  0  1  0  0  0  0  0999 V2000
  159.4190  211.7310  153.7470 N   0  0  1  0  0  0  0  0  0  0  0  0
  160.3030  211.9620  154.9070 C   0  0  1  0  0  3  0  0  0  0  0  0
  156.7420  213.1610  153.4570 C   0  0  0  0  0  3  0  0  0  0  0  0
  157.5980  213.3690  150.8820 S   0  0  0  0  0  0  0  0  0  0  0  0
  157.8000  213.1690  152.6420 C   0  0  0  0  0  0  0  0  0  0  0  0
  158.1360  212.8700  155.6280 C   0  0  0  0  0  2  0  0  0  0  0  0
  158.8950  211.6330  155.1370 C   0  0  1  0  0  3  0  0  0  0  0  0
  160.0440  213.1210  151.8830 C   0  0  0  0  0  3  0  0  0  0  0  0
  159.2140  213.0340  153.1130 C   0  0  2  0  0  3  0  0  0  0  0  0
  159.3850  213.2770  150.7400 C   0  0  0  0  0  0  0  0  0  0  0  0
  156.8230  212.9980  154.9200 C   0  0  0  0  0  0  0  0  0  0  0  0
  155.7610  212.9720  155.5920 O   0  0  0  0  0  0  0  0  0  0  0  0
  160.2090  214.2460  147.1760 C   0  0  0  0  0  3  0  0  0  0  0  0
  159.5630  214.1680  148.4130 C   0  0  0  0  0  3  0  0  0  0  0  0
  160.0780  213.3570  149.4360 C   0  0  0  0  0  0  0  0  0  0  0  0
  161.3780  213.5140  146.9500 C   0  0  0  0  0  3  0  0  0  0  0  0
  161.2520  212.6230  149.1970 C   0  0  0  0  0  3  0  0  0  0  0  0
  161.8980  212.7020  147.9610 C   0  0  0  0  0  3  0  0  0  0  0  0
  162.7510  209.7370  156.4810 O   0  0  0  0  0  0  0  0  0  0  0  0
  161.9220  211.7190  157.2600 O   0  0  0  0  0  1  0  0  0  0  0  0
  161.1520  210.7890  155.1240 N   0  0  0  0  0  0  0  0  0  0  0  0
  161.9710  210.7100  156.3050 C   0  0  0  0  0  0  0  0  0  0  0  0
  161.8700  210.0760  152.8890 C   0  0  0  0  0  3  0  0  0  0  0  0
  160.7530  208.4700  154.3060 C   0  0  0  0  0  0  0  0  0  0  0  0
  161.5070  207.8140  152.1480 C   0  0  0  0  0  0  0  0  0  0  0  0
  161.2460  209.7750  154.1050 C   0  0  0  0  0  0  0  0  0  0  0  0
  162.0010  209.0970  151.9040 C   0  0  0  0  0  0  0  0  0  0  0  0
  160.8960  207.5340  153.3290 N   0  0  0  0  0  0  0  0  0  0  0  0
  161.6270  206.8480  151.2050 F   0  0  0  0  0  0  0  0  0  0  0  0
  162.6080  209.3920  150.7290 F   0  0  0  0  0  0  0  0  0  0  0  0
  160.0340  208.0940  155.5560 C   0  0  0  0  0  1  0  0  0  0  0  0
  1  2  1  0  0  0  0
  1  7  1  0  0  0  0
  2 21  1  0  0  0  0
  2  7  1  0  0  0  0
  3 11  1  0  0  0  0
  4  5  1  0  0  0  0
  5  9  1  0  0  0  0
  5  3  2  0  0  0  0
  7  6  1  0  0  0  0
  8  9  1  0  0  0  0
  9  1  1  0  0  0  0
 10  4  1  0  0  0  0
 10  8  2  0  0  0  0
 11 12  2  0  0  0  0
 11  6  1  0  0  0  0
 13 14  1  0  0  0  0
 14 15  2  0  0  0  0
 15 10  1  0  0  0  0
 16 13  2  0  0  0  0
 16 18  1  0  0  0  0
 17 15  1  0  0  0  0
 18 17  2  0  0  0  0
 21 22  1  0  0  0  0
 22 19  2  0  0  0  0
 22 20  1  0  0  0  0
 23 26  1  0  0  0  0
 24 31  1  0  0  0  0
 25 28  2  0  0  0  0
 26 24  2  0  0  0  0
 26 21  1  0  0  0  0
 27 25  1  0  0  0  0
 27 23  2  0  0  0  0
 28 24  1  0  0  0  0
 29 25  1  0  0  0  0
 30 27  1  0  0  0  0
M  END
>  <MODEL>
3

>  <REMARK>
 VINA RESULT:      -6.4      4.176      7.252
  Name = 
  3 active torsions:
  status: ('A' for Active; 'I' for Inactive)
    1  A    between atoms: C_2  and  N_16
    2  A    between atoms: C_11  and  N_16
    3  A    between atoms: C_21  and  C_26
                            x       y       z     vdW  Elec       q    Type
                         _______ _______ _______ _____ _____    ______ ____

>  <TORSDO>
F 3

$$$$
