=
 OpenBabel11052409403D

 38 43  0  0  1  0  0  0  0  0999 V2000
  161.4260  209.0100  152.5600 C   0  0  0  0  0  0  0  0  0  0  0  0
  161.7450  208.9080  149.7030 C   0  0  0  0  0  3  0  0  0  0  0  0
  161.2100  208.9520  156.7960 N   0  0  0  0  0  0  0  0  0  0  0  0
  161.8960  210.0560  151.8650 C   0  0  0  0  0  3  0  0  0  0  0  0
  160.9800  205.2480  151.8840 C   0  0  0  0  0  3  0  0  0  0  0  0
  161.4250  210.1450  156.1720 C   0  0  0  0  0  0  0  0  0  0  0  0
  161.5040  210.1970  154.7780 C   0  0  0  0  0  3  0  0  0  0  0  0
  160.9910  206.5220  152.6200 C   0  0  0  0  0  0  0  0  0  0  0  0
  161.9940  210.0320  150.3820 C   0  0  0  0  0  0  0  0  0  0  0  0
  161.1460  205.2290  150.5510 C   0  0  0  0  0  0  0  0  0  0  0  0
  161.3550  207.6850  150.4200 C   0  0  0  0  0  0  0  0  0  0  0  0
  160.8560  207.8090  151.8370 C   0  0  2  0  0  3  0  0  0  0  0  0
  161.3530  209.0170  154.0360 C   0  0  0  0  0  0  0  0  0  0  0  0
  161.1300  207.8000  154.7090 C   0  0  0  0  0  0  0  0  0  0  0  0
  161.0710  207.7920  156.1030 C   0  0  0  0  0  3  0  0  0  0  0  0
  161.0400  206.5310  153.9550 C   0  0  0  0  0  3  0  0  0  0  0  0
  161.4150  206.4950  149.8150 C   0  0  0  0  0  3  0  0  0  0  0  0
  160.9590  202.6850  150.4930 C   0  0  0  0  0  2  0  0  0  0  0  0
  161.1800  203.8670  148.3840 C   0  0  0  0  0  2  0  0  0  0  0  0
  160.8740  201.7700  149.3410 C   0  0  0  0  0  0  0  0  0  0  0  0
  160.7520  200.5200  149.4310 O   0  0  0  0  0  0  0  0  0  0  0  0
  160.9560  202.4620  148.1100 N   0  0  0  0  0  0  0  0  0  0  0  0
  161.1630  203.9780  149.8460 N   0  0  0  0  0  0  0  0  0  0  0  0
  161.1680  202.9390  145.7350 C   0  0  0  0  0  1  0  0  0  0  0  0
  161.0370  201.8550  146.7910 C   0  0  0  0  0  2  0  0  0  0  0  0
  161.6030  211.3900  156.9710 C   0  0  0  0  0  2  0  0  0  0  0  0
  160.4140  212.3120  156.7660 C   0  0  0  0  0  1  0  0  0  0  0  0
  162.3880  211.1680  149.6710 O   0  0  0  0  0  0  0  0  0  0  0  0
  162.0290  211.3700  148.3090 C   0  0  0  0  0  2  0  0  0  0  0  0
  162.0160  212.8480  147.9640 C   0  0  0  0  0  2  0  0  0  0  0  0
  162.8970  213.2770  144.2430 C   0  0  0  0  0  3  0  0  0  0  0  0
  162.0670  213.2000  145.4650 C   0  0  0  0  0  0  0  0  0  0  0  0
  161.3130  212.0940  142.7020 C   0  0  0  0  0  3  0  0  0  0  0  0
  160.7640  213.2500  145.4360 N   0  0  0  0  0  0  0  0  0  0  0  0
  162.5690  212.7940  143.0360 C   0  0  0  0  0  3  0  0  0  0  0  0
  159.9540  213.4660  144.2450 C   0  0  0  0  0  2  0  0  0  0  0  0
  162.7390  213.0910  146.7210 N   0  0  0  0  0  2  0  0  0  0  0  0
  160.1360  212.3550  143.2680 C   0  0  0  0  0  3  0  0  0  0  0  0
  1 13  1  0  0  0  0
  2  9  2  0  0  0  0
  2 11  1  0  0  0  0
  4  1  2  0  0  0  0
  5  8  1  0  0  0  0
  6  3  1  0  0  0  0
  6 26  1  0  0  0  0
  7  6  2  0  0  0  0
  8 16  2  0  0  0  0
  9  4  1  0  0  0  0
 10  5  2  0  0  0  0
 12 11  1  6  0  0  0
 12  1  1  0  0  0  0
 12  8  1  0  0  0  0
 13 14  2  0  0  0  0
 13  7  1  0  0  0  0
 14 15  1  0  0  0  0
 15  3  2  0  0  0  0
 16 14  1  0  0  0  0
 17 11  2  0  0  0  0
 17 10  1  0  0  0  0
 19 23  1  0  0  0  0
 20 21  2  0  0  0  0
 20 18  1  0  0  0  0
 22 19  1  0  0  0  0
 22 20  1  0  0  0  0
 23 18  1  0  0  0  0
 23 10  1  0  0  0  0
 24 25  1  0  0  0  0
 25 22  1  0  0  0  0
 27 26  1  0  0  0  0
 28  9  1  0  0  0  0
 29 28  1  0  0  0  0
 30 29  1  0  0  0  0
 31 32  1  0  0  0  0
 32 37  1  0  0  0  0
 33 35  1  0  0  0  0
 33 38  2  0  0  0  0
 34 32  2  0  0  0  0
 35 31  2  0  0  0  0
 36 34  1  0  0  0  0
 37 30  1  0  0  0  0
 38 36  1  0  0  0  0
M  END
>  <MODEL>
1

>  <REMARK>
 VINA RESULT:     -10.1      0.000      0.000
  Name = 
  7 active torsions:
  status: ('A' for Active; 'I' for Inactive)
    1  A    between atoms: C_6  and  C_11
    2  A    between atoms: C_9  and  N_21
    3  A    between atoms: C_9  and  C_24
    4  A    between atoms: O_14  and  C_24
    5  A    between atoms: O_14  and  C_25
    6  A    between atoms: N_19  and  C_38
    7  A    between atoms: C_26  and  N_29
                            x       y       z     vdW  Elec       q    Type
                         _______ _______ _______ _____ _____    ______ ____

>  <TORSDO>
F 7

$$$$
=
 OpenBabel11052409403D

 38 43  0  0  1  0  0  0  0  0999 V2000
  161.3370  208.5240  151.7980 C   0  0  0  0  0  0  0  0  0  0  0  0
  161.7600  208.5930  148.9540 C   0  0  0  0  0  3  0  0  0  0  0  0
  160.9680  208.2160  156.0130 N   0  0  0  0  0  0  0  0  0  0  0  0
  161.8160  209.6140  151.1820 C   0  0  0  0  0  3  0  0  0  0  0  0
  160.9700  204.8020  150.8890 C   0  0  0  0  0  3  0  0  0  0  0  0
  161.1880  209.4460  155.4670 C   0  0  0  0  0  0  0  0  0  0  0  0
  161.3170  209.5800  154.0820 C   0  0  0  0  0  3  0  0  0  0  0  0
  160.9360  206.0320  151.6970 C   0  0  0  0  0  0  0  0  0  0  0  0
  161.9680  209.6780  149.7060 C   0  0  0  0  0  0  0  0  0  0  0  0
  161.1840  204.8640  149.5650 C   0  0  0  0  0  0  0  0  0  0  0  0
  161.3620  207.3250  149.5840 C   0  0  0  0  0  0  0  0  0  0  0  0
  160.8110  207.3600  150.9860 C   0  0  2  0  0  3  0  0  0  0  0  0
  161.2100  208.4440  153.2680 C   0  0  0  0  0  0  0  0  0  0  0  0
  160.9810  207.1870  153.8610 C   0  0  0  0  0  0  0  0  0  0  0  0
  160.8710  207.0970  155.2490 C   0  0  0  0  0  3  0  0  0  0  0  0
  160.9360  205.9630  153.0320 C   0  0  0  0  0  3  0  0  0  0  0  0
  161.4620  206.1730  148.9140 C   0  0  0  0  0  3  0  0  0  0  0  0
  161.2620  202.3200  149.3780 C   0  0  0  0  0  2  0  0  0  0  0  0
  161.0890  203.6150  147.3320 C   0  0  0  0  0  2  0  0  0  0  0  0
  161.1310  201.4550  148.1920 C   0  0  0  0  0  0  0  0  0  0  0  0
  161.1540  200.1960  148.2220 O   0  0  0  0  0  0  0  0  0  0  0  0
  160.9830  202.2080  147.0040 N   0  0  0  0  0  0  0  0  0  0  0  0
  161.2450  203.6560  148.7890 N   0  0  0  0  0  0  0  0  0  0  0  0
  159.7210  202.1690  144.9260 C   0  0  0  0  0  1  0  0  0  0  0  0
  160.9610  201.6750  145.6510 C   0  0  0  0  0  2  0  0  0  0  0  0
  161.3190  210.6440  156.3430 C   0  0  0  0  0  2  0  0  0  0  0  0
  160.6240  211.8330  155.7030 C   0  0  0  0  0  1  0  0  0  0  0  0
  162.3710  210.8580  149.0760 O   0  0  0  0  0  0  0  0  0  0  0  0
  161.6380  211.4310  148.0000 C   0  0  0  0  0  2  0  0  0  0  0  0
  161.8240  212.9370  147.9550 C   0  0  0  0  0  2  0  0  0  0  0  0
  158.3180  214.4120  147.3730 C   0  0  0  0  0  3  0  0  0  0  0  0
  159.5040  213.9210  148.1080 C   0  0  0  0  0  0  0  0  0  0  0  0
  156.5750  213.4730  148.9110 C   0  0  0  0  0  3  0  0  0  0  0  0
  159.5330  213.8110  149.4060 N   0  0  0  0  0  0  0  0  0  0  0  0
  157.0390  214.2170  147.7220 C   0  0  0  0  0  3  0  0  0  0  0  0
  158.4690  214.2220  150.3120 C   0  0  0  0  0  2  0  0  0  0  0  0
  160.6650  213.5790  147.3460 N   0  0  0  0  0  2  0  0  0  0  0  0
  157.2290  213.4300  150.0700 C   0  0  0  0  0  3  0  0  0  0  0  0
  1 13  1  0  0  0  0
  2 11  1  0  0  0  0
  2  9  2  0  0  0  0
  4  1  2  0  0  0  0
  5  8  1  0  0  0  0
  6  3  1  0  0  0  0
  6 26  1  0  0  0  0
  7  6  2  0  0  0  0
  8 16  2  0  0  0  0
  9  4  1  0  0  0  0
 10  5  2  0  0  0  0
 12 11  1  6  0  0  0
 12  8  1  0  0  0  0
 12  1  1  0  0  0  0
 13 14  2  0  0  0  0
 13  7  1  0  0  0  0
 14 15  1  0  0  0  0
 15  3  2  0  0  0  0
 16 14  1  0  0  0  0
 17 10  1  0  0  0  0
 17 11  2  0  0  0  0
 19 23  1  0  0  0  0
 20 21  2  0  0  0  0
 20 18  1  0  0  0  0
 22 19  1  0  0  0  0
 22 20  1  0  0  0  0
 23 18  1  0  0  0  0
 23 10  1  0  0  0  0
 24 25  1  0  0  0  0
 25 22  1  0  0  0  0
 27 26  1  0  0  0  0
 28  9  1  0  0  0  0
 29 28  1  0  0  0  0
 30 29  1  0  0  0  0
 31 35  2  0  0  0  0
 31 32  1  0  0  0  0
 32 34  2  0  0  0  0
 33 38  2  0  0  0  0
 34 36  1  0  0  0  0
 35 33  1  0  0  0  0
 37 30  1  0  0  0  0
 37 32  1  0  0  0  0
 38 36  1  0  0  0  0
M  END
>  <MODEL>
2

>  <REMARK>
 VINA RESULT:      -9.4      2.107      2.876
  Name = 
  7 active torsions:
  status: ('A' for Active; 'I' for Inactive)
    1  A    between atoms: C_6  and  C_11
    2  A    between atoms: C_9  and  N_21
    3  A    between atoms: C_9  and  C_24
    4  A    between atoms: O_14  and  C_24
    5  A    between atoms: O_14  and  C_25
    6  A    between atoms: N_19  and  C_38
    7  A    between atoms: C_26  and  N_29
                            x       y       z     vdW  Elec       q    Type
                         _______ _______ _______ _____ _____    ______ ____

>  <TORSDO>
F 7

$$$$
=
 OpenBabel11052409403D

 38 43  0  0  1  0  0  0  0  0999 V2000
  161.2360  205.8740  150.2790 C   0  0  0  0  0  0  0  0  0  0  0  0
  161.4120  208.0250  152.1810 C   0  0  0  0  0  3  0  0  0  0  0  0
  161.2700  202.7970  147.3590 N   0  0  0  0  0  0  0  0  0  0  0  0
  161.4270  205.6450  151.5860 C   0  0  0  0  0  3  0  0  0  0  0  0
  161.5870  208.9170  147.9490 C   0  0  0  0  0  3  0  0  0  0  0  0
  161.1830  202.4450  148.6740 C   0  0  0  0  0  0  0  0  0  0  0  0
  161.1730  203.4350  149.6600 C   0  0  0  0  0  3  0  0  0  0  0  0
  161.3590  207.5250  148.3710 C   0  0  0  0  0  0  0  0  0  0  0  0
  161.4470  206.7490  152.5810 C   0  0  0  0  0  0  0  0  0  0  0  0
  161.6800  209.8990  148.8600 C   0  0  0  0  0  0  0  0  0  0  0  0
  161.3390  208.3460  150.7480 C   0  0  0  0  0  0  0  0  0  0  0  0
  160.9030  207.2670  149.7900 C   0  0  2  0  0  3  0  0  0  0  0  0
  161.2440  204.7840  149.2820 C   0  0  0  0  0  0  0  0  0  0  0  0
  161.3300  205.1150  147.9160 C   0  0  0  0  0  0  0  0  0  0  0  0
  161.3500  204.0940  146.9650 C   0  0  0  0  0  3  0  0  0  0  0  0
  161.4780  206.5250  147.4930 C   0  0  0  0  0  3  0  0  0  0  0  0
  161.6260  209.5760  150.3130 C   0  0  0  0  0  3  0  0  0  0  0  0
  163.2090  211.9290  148.6380 C   0  0  0  0  0  2  0  0  0  0  0  0
  161.0210  212.0220  147.5910 C   0  0  0  0  0  2  0  0  0  0  0  0
  163.0180  213.1770  147.8780 C   0  0  0  0  0  0  0  0  0  0  0  0
  163.8630  214.1090  147.8140 O   0  0  0  0  0  0  0  0  0  0  0  0
  161.7620  213.2130  147.2290 N   0  0  0  0  0  0  0  0  0  0  0  0
  161.9320  211.2490  148.4400 N   0  0  0  0  0  0  0  0  0  0  0  0
  161.3280  214.1140  145.0130 C   0  0  0  0  0  1  0  0  0  0  0  0
  161.2030  214.3460  146.5090 C   0  0  0  0  0  2  0  0  0  0  0  0
  161.1280  201.0080  149.0660 C   0  0  0  0  0  2  0  0  0  0  0  0
  161.5110  200.1340  147.8850 C   0  0  0  0  0  1  0  0  0  0  0  0
  161.5430  206.4810  153.9490 O   0  0  0  0  0  0  0  0  0  0  0  0
  160.5370  206.8800  154.8710 C   0  0  0  0  0  2  0  0  0  0  0  0
  161.0890  207.8600  155.8900 C   0  0  0  0  0  2  0  0  0  0  0  0
  160.8360  211.3320  154.2490 C   0  0  0  0  0  3  0  0  0  0  0  0
  160.4450  210.1530  155.0530 C   0  0  0  0  0  0  0  0  0  0  0  0
  158.5880  211.7960  153.2420 C   0  0  0  0  0  3  0  0  0  0  0  0
  159.2650  210.0300  155.5940 N   0  0  0  0  0  0  0  0  0  0  0  0
  160.0260  212.0490  153.4580 C   0  0  0  0  0  3  0  0  0  0  0  0
  158.2130  211.0360  155.5640 C   0  0  0  0  0  2  0  0  0  0  0  0
  161.4220  209.1290  155.2530 N   0  0  0  0  0  2  0  0  0  0  0  0
  157.7670  211.2990  154.1660 C   0  0  0  0  0  3  0  0  0  0  0  0
  1  4  2  0  0  0  0
  2  9  2  0  0  0  0
  3  6  1  0  0  0  0
  4  9  1  0  0  0  0
  5  8  1  0  0  0  0
  5 10  2  0  0  0  0
  6 26  1  0  0  0  0
  6  7  2  0  0  0  0
  9 28  1  0  0  0  0
 10 17  1  0  0  0  0
 11  2  1  0  0  0  0
 12  8  1  6  0  0  0
 12  1  1  0  0  0  0
 12 11  1  0  0  0  0
 13  7  1  0  0  0  0
 13  1  1  0  0  0  0
 14 13  2  0  0  0  0
 15  3  2  0  0  0  0
 15 14  1  0  0  0  0
 16 14  1  0  0  0  0
 16  8  2  0  0  0  0
 17 11  2  0  0  0  0
 19 23  1  0  0  0  0
 20 18  1  0  0  0  0
 21 20  2  0  0  0  0
 22 19  1  0  0  0  0
 22 20  1  0  0  0  0
 23 18  1  0  0  0  0
 23 10  1  0  0  0  0
 24 25  1  0  0  0  0
 25 22  1  0  0  0  0
 27 26  1  0  0  0  0
 28 29  1  0  0  0  0
 29 30  1  0  0  0  0
 31 32  1  0  0  0  0
 32 37  1  0  0  0  0
 32 34  2  0  0  0  0
 33 35  1  0  0  0  0
 33 38  2  0  0  0  0
 35 31  2  0  0  0  0
 36 34  1  0  0  0  0
 37 30  1  0  0  0  0
 38 36  1  0  0  0  0
M  END
>  <MODEL>
3

>  <REMARK>
 VINA RESULT:      -9.2      2.077      9.106
  Name = 
  7 active torsions:
  status: ('A' for Active; 'I' for Inactive)
    1  A    between atoms: C_6  and  C_11
    2  A    between atoms: C_9  and  N_21
    3  A    between atoms: C_9  and  C_24
    4  A    between atoms: O_14  and  C_24
    5  A    between atoms: O_14  and  C_25
    6  A    between atoms: N_19  and  C_38
    7  A    between atoms: C_26  and  N_29
                            x       y       z     vdW  Elec       q    Type
                         _______ _______ _______ _____ _____    ______ ____

>  <TORSDO>
F 7

$$$$
=
 OpenBabel11052409403D

 38 43  0  0  1  0  0  0  0  0999 V2000
  161.3730  208.7450  152.4550 C   0  0  0  0  0  0  0  0  0  0  0  0
  162.1730  207.6270  149.9270 C   0  0  0  0  0  3  0  0  0  0  0  0
  159.9150  210.4890  156.0360 N   0  0  0  0  0  0  0  0  0  0  0  0
  161.4370  207.4200  152.2580 C   0  0  0  0  0  3  0  0  0  0  0  0
  161.2590  211.8510  150.1850 C   0  0  0  0  0  3  0  0  0  0  0  0
  160.2110  209.1580  156.0340 C   0  0  0  0  0  0  0  0  0  0  0  0
  160.6900  208.5520  154.8690 C   0  0  0  0  0  3  0  0  0  0  0  0
  161.2270  211.0420  151.4140 C   0  0  0  0  0  0  0  0  0  0  0  0
  161.9190  206.8400  150.9770 C   0  0  0  0  0  0  0  0  0  0  0  0
  161.6220  211.2980  149.0150 C   0  0  0  0  0  0  0  0  0  0  0  0
  161.9930  209.0830  150.0370 C   0  0  0  0  0  0  0  0  0  0  0  0
  161.9180  209.6970  151.4120 C   0  0  2  0  0  3  0  0  0  0  0  0
  160.8690  209.3280  153.7150 C   0  0  0  0  0  0  0  0  0  0  0  0
  160.5570  210.7010  153.7490 C   0  0  0  0  0  0  0  0  0  0  0  0
  160.0690  211.2610  154.9300 C   0  0  0  0  0  3  0  0  0  0  0  0
  160.6670  211.5270  152.5270 C   0  0  0  0  0  3  0  0  0  0  0  0
  161.9260  209.8430  148.9400 C   0  0  0  0  0  3  0  0  0  0  0  0
  162.8140  212.7320  147.2750 C   0  0  0  0  0  2  0  0  0  0  0  0
  160.4850  212.1660  146.8920 C   0  0  0  0  0  2  0  0  0  0  0  0
  162.3360  213.2330  145.9730 C   0  0  0  0  0  0  0  0  0  0  0  0
  163.0300  213.9140  145.1730 O   0  0  0  0  0  0  0  0  0  0  0  0
  160.9930  212.8630  145.7280 N   0  0  0  0  0  0  0  0  0  0  0  0
  161.6210  212.0880  147.8150 N   0  0  0  0  0  0  0  0  0  0  0  0
  158.7980  212.6720  144.7000 C   0  0  0  0  0  1  0  0  0  0  0  0
  160.1770  213.3010  144.6070 C   0  0  0  0  0  2  0  0  0  0  0  0
  159.9990  208.3380  157.2610 C   0  0  0  0  0  2  0  0  0  0  0  0
  160.3410  206.8860  156.9800 C   0  0  0  0  0  1  0  0  0  0  0  0
  162.0750  205.4590  150.8290 O   0  0  0  0  0  0  0  0  0  0  0  0
  161.0250  204.5440  151.1150 C   0  0  0  0  0  2  0  0  0  0  0  0
  160.5190  203.8820  149.8450 C   0  0  0  0  0  2  0  0  0  0  0  0
  162.5730  204.4200  146.6370 C   0  0  0  0  0  3  0  0  0  0  0  0
  161.5540  204.6650  147.6800 C   0  0  0  0  0  0  0  0  0  0  0  0
  161.1800  205.0880  144.6620 C   0  0  0  0  0  3  0  0  0  0  0  0
  160.6670  205.6160  147.5900 N   0  0  0  0  0  0  0  0  0  0  0  0
  162.4110  204.6040  145.3190 C   0  0  0  0  0  3  0  0  0  0  0  0
  160.5970  206.6060  146.5240 C   0  0  0  0  0  2  0  0  0  0  0  0
  161.5740  203.8290  148.8400 N   0  0  0  0  0  2  0  0  0  0  0  0
  160.3300  205.9550  145.2090 C   0  0  0  0  0  3  0  0  0  0  0  0
  1 13  1  0  0  0  0
  2 11  1  0  0  0  0
  2  9  2  0  0  0  0
  4  1  2  0  0  0  0
  5  8  1  0  0  0  0
  6  3  1  0  0  0  0
  6 26  1  0  0  0  0
  7  6  2  0  0  0  0
  8 16  2  0  0  0  0
  9  4  1  0  0  0  0
 10  5  2  0  0  0  0
 12 11  1  6  0  0  0
 12  8  1  0  0  0  0
 12  1  1  0  0  0  0
 13 14  2  0  0  0  0
 13  7  1  0  0  0  0
 14 15  1  0  0  0  0
 15  3  2  0  0  0  0
 16 14  1  0  0  0  0
 17 10  1  0  0  0  0
 17 11  2  0  0  0  0
 18 23  1  0  0  0  0
 19 23  1  0  0  0  0
 20 18  1  0  0  0  0
 21 20  2  0  0  0  0
 22 20  1  0  0  0  0
 22 19  1  0  0  0  0
 23 10  1  0  0  0  0
 25 24  1  0  0  0  0
 25 22  1  0  0  0  0
 27 26  1  0  0  0  0
 28  9  1  0  0  0  0
 28 29  1  0  0  0  0
 30 29  1  0  0  0  0
 31 32  1  0  0  0  0
 32 37  1  0  0  0  0
 33 38  2  0  0  0  0
 33 35  1  0  0  0  0
 34 32  2  0  0  0  0
 35 31  2  0  0  0  0
 36 34  1  0  0  0  0
 37 30  1  0  0  0  0
 38 36  1  0  0  0  0
M  END
>  <MODEL>
4

>  <REMARK>
 VINA RESULT:      -9.1      1.998      7.112
  Name = 
  7 active torsions:
  status: ('A' for Active; 'I' for Inactive)
    1  A    between atoms: C_6  and  C_11
    2  A    between atoms: C_9  and  N_21
    3  A    between atoms: C_9  and  C_24
    4  A    between atoms: O_14  and  C_24
    5  A    between atoms: O_14  and  C_25
    6  A    between atoms: N_19  and  C_38
    7  A    between atoms: C_26  and  N_29
                            x       y       z     vdW  Elec       q    Type
                         _______ _______ _______ _____ _____    ______ ____

>  <TORSDO>
F 7

$$$$
=
 OpenBabel11052409403D

 38 43  0  0  1  0  0  0  0  0999 V2000
  161.7720  208.0610  149.6170 C   0  0  0  0  0  0  0  0  0  0  0  0
  161.9710  210.9120  149.9470 C   0  0  0  0  0  3  0  0  0  0  0  0
  161.1620  203.8830  149.2160 N   0  0  0  0  0  0  0  0  0  0  0  0
  161.9190  208.8840  148.5690 C   0  0  0  0  0  3  0  0  0  0  0  0
  160.7200  208.4710  153.2970 C   0  0  0  0  0  3  0  0  0  0  0  0
  161.5850  204.5860  148.1270 C   0  0  0  0  0  0  0  0  0  0  0  0
  161.7920  205.9650  148.2260 C   0  0  0  0  0  3  0  0  0  0  0  0
  161.1090  207.8080  152.0410 C   0  0  0  0  0  0  0  0  0  0  0  0
  162.0950  210.3500  148.7410 C   0  0  0  0  0  0  0  0  0  0  0  0
  160.8090  209.8060  153.4170 C   0  0  0  0  0  0  0  0  0  0  0  0
  161.6750  210.0790  151.1220 C   0  0  0  0  0  0  0  0  0  0  0  0
  161.9100  208.5930  151.0280 C   0  0  2  0  0  3  0  0  0  0  0  0
  161.5690  206.6070  149.4520 C   0  0  0  0  0  0  0  0  0  0  0  0
  161.1350  205.8540  150.5590 C   0  0  0  0  0  0  0  0  0  0  0  0
  160.9280  204.4820  150.4130 C   0  0  0  0  0  3  0  0  0  0  0  0
  160.8230  206.5180  151.8440 C   0  0  0  0  0  3  0  0  0  0  0  0
  161.2340  210.6340  152.2550 C   0  0  0  0  0  3  0  0  0  0  0  0
  161.2070  211.4500  155.3270 C   0  0  0  0  0  2  0  0  0  0  0  0
  159.0570  210.3290  155.2090 C   0  0  0  0  0  2  0  0  0  0  0  0
  160.2840  211.9230  156.3750 C   0  0  0  0  0  0  0  0  0  0  0  0
  160.5820  212.7690  157.2590 O   0  0  0  0  0  0  0  0  0  0  0  0
  159.0150  211.3050  156.2780 N   0  0  0  0  0  0  0  0  0  0  0  0
  160.4010  210.4480  154.6360 N   0  0  0  0  0  0  0  0  0  0  0  0
  156.7090  212.0350  156.5290 C   0  0  0  0  0  1  0  0  0  0  0  0
  157.9220  211.4430  157.2270 C   0  0  0  0  0  2  0  0  0  0  0  0
  161.8000  203.8960  146.8240 C   0  0  0  0  0  2  0  0  0  0  0  0
  162.7610  204.6990  145.9650 C   0  0  0  0  0  1  0  0  0  0  0  0
  162.3500  211.1760  147.6430 O   0  0  0  0  0  0  0  0  0  0  0  0
  162.8180  212.5100  147.7930 C   0  0  0  0  0  2  0  0  0  0  0  0
  162.0000  213.4720  146.9500 C   0  0  0  0  0  2  0  0  0  0  0  0
  162.6030  213.4000  143.1500 C   0  0  0  0  0  3  0  0  0  0  0  0
  161.8640  213.3740  144.4310 C   0  0  0  0  0  0  0  0  0  0  0  0
  161.2470  211.6600  141.9590 C   0  0  0  0  0  3  0  0  0  0  0  0
  160.5820  213.1480  144.5000 N   0  0  0  0  0  0  0  0  0  0  0  0
  162.3350  212.6530  142.0700 C   0  0  0  0  0  3  0  0  0  0  0  0
  159.6920  212.9760  143.3590 C   0  0  0  0  0  2  0  0  0  0  0  0
  162.5990  213.6320  145.6290 N   0  0  0  0  0  2  0  0  0  0  0  0
  160.0680  211.7700  142.5680 C   0  0  0  0  0  3  0  0  0  0  0  0
  2 11  1  0  0  0  0
  3 15  1  0  0  0  0
  4  9  1  0  0  0  0
  4  1  2  0  0  0  0
  5 10  2  0  0  0  0
  6  7  1  0  0  0  0
  6  3  2  0  0  0  0
  7 13  2  0  0  0  0
  8  5  1  0  0  0  0
  9  2  2  0  0  0  0
 10 23  1  0  0  0  0
 11 17  2  0  0  0  0
 12  1  1  6  0  0  0
 12 11  1  0  0  0  0
 12  8  1  0  0  0  0
 13  1  1  0  0  0  0
 13 14  1  0  0  0  0
 14 16  1  0  0  0  0
 15 14  2  0  0  0  0
 16  8  2  0  0  0  0
 17 10  1  0  0  0  0
 18 20  1  0  0  0  0
 19 22  1  0  0  0  0
 20 21  2  0  0  0  0
 22 20  1  0  0  0  0
 22 25  1  0  0  0  0
 23 19  1  0  0  0  0
 23 18  1  0  0  0  0
 24 25  1  0  0  0  0
 26  6  1  0  0  0  0
 27 26  1  0  0  0  0
 28 29  1  0  0  0  0
 28  9  1  0  0  0  0
 30 29  1  0  0  0  0
 31 32  1  0  0  0  0
 32 34  2  0  0  0  0
 32 37  1  0  0  0  0
 33 35  1  0  0  0  0
 33 38  2  0  0  0  0
 35 31  2  0  0  0  0
 36 34  1  0  0  0  0
 37 30  1  0  0  0  0
 38 36  1  0  0  0  0
M  END
>  <MODEL>
5

>  <REMARK>
 VINA RESULT:      -8.8      2.264      7.248
  Name = 
  7 active torsions:
  status: ('A' for Active; 'I' for Inactive)
    1  A    between atoms: C_6  and  C_11
    2  A    between atoms: C_9  and  N_21
    3  A    between atoms: C_9  and  C_24
    4  A    between atoms: O_14  and  C_24
    5  A    between atoms: O_14  and  C_25
    6  A    between atoms: N_19  and  C_38
    7  A    between atoms: C_26  and  N_29
                            x       y       z     vdW  Elec       q    Type
                         _______ _______ _______ _____ _____    ______ ____

>  <TORSDO>
F 7

$$$$
=
 OpenBabel11052409403D

 38 43  0  0  1  0  0  0  0  0999 V2000
  160.2280  211.2880  152.3240 C   0  0  0  0  0  0  0  0  0  0  0  0
  162.0340  209.7200  150.7260 C   0  0  0  0  0  3  0  0  0  0  0  0
  157.3410  213.5630  154.4430 N   0  0  0  0  0  0  0  0  0  0  0  0
  160.5840  210.0440  152.6770 C   0  0  0  0  0  3  0  0  0  0  0  0
  160.3730  213.3660  149.0880 C   0  0  0  0  0  3  0  0  0  0  0  0
  157.8450  212.4400  155.0310 C   0  0  0  0  0  0  0  0  0  0  0  0
  158.7950  211.6670  154.3580 C   0  0  0  0  0  3  0  0  0  0  0  0
  160.0580  213.0060  150.4800 C   0  0  0  0  0  0  0  0  0  0  0  0
  161.5710  209.2590  151.8930 C   0  0  0  0  0  0  0  0  0  0  0  0
  161.2080  212.6070  148.3610 C   0  0  0  0  0  0  0  0  0  0  0  0
  161.5790  211.0210  150.2150 C   0  0  0  0  0  0  0  0  0  0  0  0
  160.9270  211.9830  151.1760 C   0  0  2  0  0  3  0  0  0  0  0  0
  159.2260  212.0640  153.0840 C   0  0  0  0  0  0  0  0  0  0  0  0
  158.6890  213.2290  152.5040 C   0  0  0  0  0  0  0  0  0  0  0  0
  157.7330  213.9640  153.2060 C   0  0  0  0  0  3  0  0  0  0  0  0
  159.0720  213.6300  151.1320 C   0  0  0  0  0  3  0  0  0  0  0  0
  161.7660  211.3510  148.9340 C   0  0  0  0  0  3  0  0  0  0  0  0
  162.8290  213.2320  146.4930 C   0  0  0  0  0  2  0  0  0  0  0  0
  160.5020  212.8540  145.9120 C   0  0  0  0  0  2  0  0  0  0  0  0
  162.6050  213.3280  145.0390 C   0  0  0  0  0  0  0  0  0  0  0  0
  163.4950  213.6190  144.1970 O   0  0  0  0  0  0  0  0  0  0  0  0
  161.2580  213.0620  144.6940 N   0  0  0  0  0  0  0  0  0  0  0  0
  161.4870  212.9500  146.9940 N   0  0  0  0  0  0  0  0  0  0  0  0
  160.4330  211.8240  142.7710 C   0  0  0  0  0  1  0  0  0  0  0  0
  160.6710  213.1990  143.3710 C   0  0  0  0  0  2  0  0  0  0  0  0
  157.3650  212.0170  156.3770 C   0  0  0  0  0  2  0  0  0  0  0  0
  155.8510  211.9050  156.3770 C   0  0  0  0  0  1  0  0  0  0  0  0
  162.0050  208.0060  152.3340 O   0  0  0  0  0  0  0  0  0  0  0  0
  161.1600  206.8620  152.3140 C   0  0  0  0  0  2  0  0  0  0  0  0
  161.5050  205.9510  151.1500 C   0  0  0  0  0  2  0  0  0  0  0  0
  160.4570  206.3490  147.4690 C   0  0  0  0  0  3  0  0  0  0  0  0
  160.9830  205.7050  148.6920 C   0  0  0  0  0  0  0  0  0  0  0  0
  162.1010  205.3630  145.8530 C   0  0  0  0  0  3  0  0  0  0  0  0
  161.5130  204.5140  148.6890 N   0  0  0  0  0  0  0  0  0  0  0  0
  160.9440  206.2010  146.2290 C   0  0  0  0  0  3  0  0  0  0  0  0
  161.5890  203.6270  147.5370 C   0  0  0  0  0  2  0  0  0  0  0  0
  160.8760  206.4250  149.9230 N   0  0  0  0  0  2  0  0  0  0  0  0
  162.4300  204.2240  146.4600 C   0  0  0  0  0  3  0  0  0  0  0  0
  1  4  2  0  0  0  0
  1 13  1  0  0  0  0
  2  9  2  0  0  0  0
  3  6  1  0  0  0  0
  5  8  1  0  0  0  0
  6 26  1  0  0  0  0
  7  6  2  0  0  0  0
  8 16  2  0  0  0  0
  8 12  1  0  0  0  0
  9 28  1  0  0  0  0
  9  4  1  0  0  0  0
 10 17  1  0  0  0  0
 10  5  2  0  0  0  0
 11  2  1  0  0  0  0
 12 11  1  6  0  0  0
 12  1  1  0  0  0  0
 13  7  1  0  0  0  0
 14 13  2  0  0  0  0
 14 15  1  0  0  0  0
 15  3  2  0  0  0  0
 16 14  1  0  0  0  0
 17 11  2  0  0  0  0
 18 23  1  0  0  0  0
 19 23  1  0  0  0  0
 20 18  1  0  0  0  0
 21 20  2  0  0  0  0
 22 20  1  0  0  0  0
 22 19  1  0  0  0  0
 23 10  1  0  0  0  0
 24 25  1  0  0  0  0
 25 22  1  0  0  0  0
 27 26  1  0  0  0  0
 29 28  1  0  0  0  0
 30 29  1  0  0  0  0
 31 32  1  0  0  0  0
 32 37  1  0  0  0  0
 33 35  1  0  0  0  0
 33 38  2  0  0  0  0
 34 32  2  0  0  0  0
 35 31  2  0  0  0  0
 36 34  1  0  0  0  0
 37 30  1  0  0  0  0
 38 36  1  0  0  0  0
M  END
>  <MODEL>
6

>  <REMARK>
 VINA RESULT:      -7.9      2.795      7.694
  Name = 
  7 active torsions:
  status: ('A' for Active; 'I' for Inactive)
    1  A    between atoms: C_6  and  C_11
    2  A    between atoms: C_9  and  N_21
    3  A    between atoms: C_9  and  C_24
    4  A    between atoms: O_14  and  C_24
    5  A    between atoms: O_14  and  C_25
    6  A    between atoms: N_19  and  C_38
    7  A    between atoms: C_26  and  N_29
                            x       y       z     vdW  Elec       q    Type
                         _______ _______ _______ _____ _____    ______ ____

>  <TORSDO>
F 7

$$$$
=
 OpenBabel11052409403D

 38 43  0  0  1  0  0  0  0  0999 V2000
  161.2580  205.7170  150.4190 C   0  0  0  0  0  0  0  0  0  0  0  0
  160.8720  204.7060  153.0850 C   0  0  0  0  0  3  0  0  0  0  0  0
  162.1040  207.3470  146.5960 N   0  0  0  0  0  0  0  0  0  0  0  0
  161.3910  204.4130  150.7060 C   0  0  0  0  0  3  0  0  0  0  0  0
  161.1880  208.9780  152.4610 C   0  0  0  0  0  3  0  0  0  0  0  0
  161.9890  205.9940  146.7150 C   0  0  0  0  0  0  0  0  0  0  0  0
  161.7140  205.4250  147.9610 C   0  0  0  0  0  3  0  0  0  0  0  0
  161.2020  208.0870  151.2890 C   0  0  0  0  0  0  0  0  0  0  0  0
  161.1220  203.8780  152.0650 C   0  0  0  0  0  0  0  0  0  0  0  0
  161.0210  208.4760  153.6960 C   0  0  0  0  0  0  0  0  0  0  0  0
  160.8460  206.1590  152.8640 C   0  0  0  0  0  0  0  0  0  0  0  0
  160.7000  206.6700  151.4530 C   0  0  2  0  0  3  0  0  0  0  0  0
  161.5510  206.2590  149.0770 C   0  0  0  0  0  0  0  0  0  0  0  0
  161.6730  207.6530  148.9210 C   0  0  0  0  0  0  0  0  0  0  0  0
  161.9620  208.1780  147.6610 C   0  0  0  0  0  3  0  0  0  0  0  0
  161.5780  208.5510  150.0930 C   0  0  0  0  0  3  0  0  0  0  0  0
  160.9210  207.0040  153.8960 C   0  0  0  0  0  3  0  0  0  0  0  0
  162.2650  209.8130  155.4770 C   0  0  0  0  0  2  0  0  0  0  0  0
  159.8510  210.0360  155.3550 C   0  0  0  0  0  2  0  0  0  0  0  0
  161.7580  210.8090  156.4380 C   0  0  0  0  0  0  0  0  0  0  0  0
  162.4760  211.4370  157.2610 O   0  0  0  0  0  0  0  0  0  0  0  0
  160.3570  210.9750  156.3360 N   0  0  0  0  0  0  0  0  0  0  0  0
  161.0380  209.3500  154.8360 N   0  0  0  0  0  0  0  0  0  0  0  0
  158.1240  211.8880  156.6380 C   0  0  0  0  0  1  0  0  0  0  0  0
  159.5230  211.7750  157.2180 C   0  0  0  0  0  2  0  0  0  0  0  0
  162.1830  205.1150  145.5270 C   0  0  0  0  0  2  0  0  0  0  0  0
  161.2540  205.5460  144.4060 C   0  0  0  0  0  1  0  0  0  0  0  0
  161.1660  202.5040  152.3170 O   0  0  0  0  0  0  0  0  0  0  0  0
  161.6690  201.5760  151.3650 C   0  0  0  0  0  2  0  0  0  0  0  0
  160.6840  201.3740  150.2280 C   0  0  0  0  0  2  0  0  0  0  0  0
  161.6150  199.6480  146.9170 C   0  0  0  0  0  3  0  0  0  0  0  0
  161.2080  200.7250  147.8450 C   0  0  0  0  0  0  0  0  0  0  0  0
  160.1190  200.2830  145.0080 C   0  0  0  0  0  3  0  0  0  0  0  0
  160.8630  201.9150  147.4360 N   0  0  0  0  0  0  0  0  0  0  0  0
  161.1410  199.4530  145.6790 C   0  0  0  0  0  3  0  0  0  0  0  0
  160.9070  202.3780  146.0560 C   0  0  0  0  0  2  0  0  0  0  0  0
  161.2190  200.4380  149.2460 N   0  0  0  0  0  2  0  0  0  0  0  0
  159.9730  201.5920  145.2010 C   0  0  0  0  0  3  0  0  0  0  0  0
  1  4  2  0  0  0  0
  3  6  2  0  0  0  0
  3 15  1  0  0  0  0
  4  9  1  0  0  0  0
  5 10  2  0  0  0  0
  6  7  1  0  0  0  0
  7 13  2  0  0  0  0
  8 12  1  0  0  0  0
  8  5  1  0  0  0  0
  9 28  1  0  0  0  0
  9  2  2  0  0  0  0
 10 17  1  0  0  0  0
 10 23  1  0  0  0  0
 11  2  1  0  0  0  0
 11 17  2  0  0  0  0
 12  1  1  6  0  0  0
 12 11  1  0  0  0  0
 13  1  1  0  0  0  0
 14 13  1  0  0  0  0
 14 16  1  0  0  0  0
 15 14  2  0  0  0  0
 16  8  2  0  0  0  0
 18 20  1  0  0  0  0
 19 22  1  0  0  0  0
 20 21  2  0  0  0  0
 22 20  1  0  0  0  0
 22 25  1  0  0  0  0
 23 19  1  0  0  0  0
 23 18  1  0  0  0  0
 24 25  1  0  0  0  0
 26  6  1  0  0  0  0
 27 26  1  0  0  0  0
 29 28  1  0  0  0  0
 30 29  1  0  0  0  0
 31 32  1  0  0  0  0
 32 37  1  0  0  0  0
 33 38  2  0  0  0  0
 33 35  1  0  0  0  0
 34 32  2  0  0  0  0
 35 31  2  0  0  0  0
 36 34  1  0  0  0  0
 37 30  1  0  0  0  0
 38 36  1  0  0  0  0
M  END
>  <MODEL>
7

>  <REMARK>
 VINA RESULT:      -7.8      3.450      9.810
  Name = 
  7 active torsions:
  status: ('A' for Active; 'I' for Inactive)
    1  A    between atoms: C_6  and  C_11
    2  A    between atoms: C_9  and  N_21
    3  A    between atoms: C_9  and  C_24
    4  A    between atoms: O_14  and  C_24
    5  A    between atoms: O_14  and  C_25
    6  A    between atoms: N_19  and  C_38
    7  A    between atoms: C_26  and  N_29
                            x       y       z     vdW  Elec       q    Type
                         _______ _______ _______ _____ _____    ______ ____

>  <TORSDO>
F 7

$$$$
=
 OpenBabel11052409403D

 38 43  0  0  1  0  0  0  0  0999 V2000
  161.7340  207.3720  149.5290 C   0  0  0  0  0  0  0  0  0  0  0  0
  162.1300  210.2050  149.8340 C   0  0  0  0  0  3  0  0  0  0  0  0
  160.8380  203.2410  149.1760 N   0  0  0  0  0  0  0  0  0  0  0  0
  161.8910  208.1810  148.4710 C   0  0  0  0  0  3  0  0  0  0  0  0
  160.8620  207.8600  153.2450 C   0  0  0  0  0  3  0  0  0  0  0  0
  161.2610  203.9120  148.0670 C   0  0  0  0  0  0  0  0  0  0  0  0
  161.5610  205.2740  148.1490 C   0  0  0  0  0  3  0  0  0  0  0  0
  161.1550  207.1690  151.9790 C   0  0  0  0  0  0  0  0  0  0  0  0
  162.1680  209.6320  148.6270 C   0  0  0  0  0  0  0  0  0  0  0  0
  161.0420  209.1860  153.3550 C   0  0  0  0  0  0  0  0  0  0  0  0
  161.8290  209.3960  151.0250 C   0  0  0  0  0  0  0  0  0  0  0  0
  161.9640  207.8970  150.9290 C   0  0  2  0  0  3  0  0  0  0  0  0
  161.4300  205.9340  149.3800 C   0  0  0  0  0  0  0  0  0  0  0  0
  160.9940  205.2130  150.5080 C   0  0  0  0  0  0  0  0  0  0  0  0
  160.6930  203.8570  150.3770 C   0  0  0  0  0  3  0  0  0  0  0  0
  160.7780  205.8990  151.8000 C   0  0  0  0  0  3  0  0  0  0  0  0
  161.4720  209.9810  152.1710 C   0  0  0  0  0  3  0  0  0  0  0  0
  161.6420  210.7710  155.2620 C   0  0  0  0  0  2  0  0  0  0  0  0
  159.3910  209.8660  155.1890 C   0  0  0  0  0  2  0  0  0  0  0  0
  160.7940  211.3250  156.3330 C   0  0  0  0  0  0  0  0  0  0  0  0
  161.1930  212.1310  157.2140 O   0  0  0  0  0  0  0  0  0  0  0  0
  159.4690  210.8340  156.2640 N   0  0  0  0  0  0  0  0  0  0  0  0
  160.7260  209.8570  154.5850 N   0  0  0  0  0  0  0  0  0  0  0  0
  157.7730  212.4230  156.9780 C   0  0  0  0  0  1  0  0  0  0  0  0
  158.4170  211.0720  157.2380 C   0  0  0  0  0  2  0  0  0  0  0  0
  161.3780  203.2060  146.7590 C   0  0  0  0  0  2  0  0  0  0  0  0
  160.5140  201.9570  146.7660 C   0  0  0  0  0  1  0  0  0  0  0  0
  162.4300  210.4370  147.5150 O   0  0  0  0  0  0  0  0  0  0  0  0
  163.0820  211.6960  147.6300 C   0  0  0  0  0  2  0  0  0  0  0  0
  162.1850  212.7120  148.3140 C   0  0  0  0  0  2  0  0  0  0  0  0
  159.6190  214.4290  146.0170 C   0  0  0  0  0  3  0  0  0  0  0  0
  160.1450  213.6360  147.1500 C   0  0  0  0  0  0  0  0  0  0  0  0
  157.6080  213.0120  145.5370 C   0  0  0  0  0  3  0  0  0  0  0  0
  159.3700  213.0060  147.9880 N   0  0  0  0  0  0  0  0  0  0  0  0
  158.5120  214.1580  145.3120 C   0  0  0  0  0  3  0  0  0  0  0  0
  157.9140  213.0520  147.9890 C   0  0  0  0  0  2  0  0  0  0  0  0
  161.5620  213.5910  147.3310 N   0  0  0  0  0  2  0  0  0  0  0  0
  157.3620  212.4750  146.7310 C   0  0  0  0  0  3  0  0  0  0  0  0
  2 11  1  0  0  0  0
  3 15  1  0  0  0  0
  4  9  1  0  0  0  0
  4  1  2  0  0  0  0
  5 10  2  0  0  0  0
  6  7  1  0  0  0  0
  6  3  2  0  0  0  0
  7 13  2  0  0  0  0
  8  5  1  0  0  0  0
  9  2  2  0  0  0  0
 10 23  1  0  0  0  0
 11 17  2  0  0  0  0
 12  1  1  6  0  0  0
 12 11  1  0  0  0  0
 12  8  1  0  0  0  0
 13  1  1  0  0  0  0
 13 14  1  0  0  0  0
 14 16  1  0  0  0  0
 15 14  2  0  0  0  0
 16  8  2  0  0  0  0
 17 10  1  0  0  0  0
 18 20  1  0  0  0  0
 19 22  1  0  0  0  0
 20 21  2  0  0  0  0
 22 20  1  0  0  0  0
 22 25  1  0  0  0  0
 23 19  1  0  0  0  0
 23 18  1  0  0  0  0
 24 25  1  0  0  0  0
 26 27  1  0  0  0  0
 26  6  1  0  0  0  0
 28 29  1  0  0  0  0
 28  9  1  0  0  0  0
 29 30  1  0  0  0  0
 31 32  1  0  0  0  0
 32 37  1  0  0  0  0
 32 34  2  0  0  0  0
 33 38  2  0  0  0  0
 34 36  1  0  0  0  0
 35 33  1  0  0  0  0
 35 31  2  0  0  0  0
 37 30  1  0  0  0  0
 38 36  1  0  0  0  0
M  END
>  <MODEL>
8

>  <REMARK>
 VINA RESULT:      -7.2      2.475      7.430
  Name = 
  7 active torsions:
  status: ('A' for Active; 'I' for Inactive)
    1  A    between atoms: C_6  and  C_11
    2  A    between atoms: C_9  and  N_21
    3  A    between atoms: C_9  and  C_24
    4  A    between atoms: O_14  and  C_24
    5  A    between atoms: O_14  and  C_25
    6  A    between atoms: N_19  and  C_38
    7  A    between atoms: C_26  and  N_29
                            x       y       z     vdW  Elec       q    Type
                         _______ _______ _______ _____ _____    ______ ____

>  <TORSDO>
F 7

$$$$
