=
 OpenBabel11042420473D

 27 28  0  0  0  0  0  0  0  0999 V2000
  160.7280  203.3840  150.4180 C   0  0  0  0  0  2  0  0  0  0  0  0
  160.5880  201.8890  150.1560 C   0  0  0  0  0  2  0  0  0  0  0  0
  160.0900  201.6340  148.8070 N   0  0  0  0  0  2  0  0  0  0  0  0
  161.1600  201.9720  147.8770 C   0  0  0  0  0  2  0  0  0  0  0  0
  160.7280  201.7420  146.4370 C   0  0  0  0  0  2  0  0  0  0  0  0
  161.1500  202.8540  145.5980 N   0  0  0  0  0  2  0  0  0  0  0  0
  161.6900  203.8740  146.4760 C   0  0  0  0  0  2  0  0  0  0  0  0
  161.1740  205.1020  144.5530 C   0  0  0  0  0  1  0  0  0  0  0  0
  162.0650  205.0460  145.6980 N   0  0  0  0  0  0  0  0  0  0  0  0
  161.7560  206.2090  146.5090 C   0  0  0  0  0  2  0  0  0  0  0  0
  160.8830  205.8050  147.6850 C   0  0  0  0  0  2  0  0  0  0  0  0
  160.8770  206.8990  148.7440 C   0  0  0  0  0  2  0  0  0  0  0  0
  162.2230  207.6060  148.8210 C   0  0  0  0  0  2  0  0  0  0  0  0
  162.0320  209.1100  148.9290 C   0  0  0  0  0  1  0  0  0  0  0  0
  161.5430  203.6880  151.6740 C   0  0  0  0  0  2  0  0  0  0  0  0
  161.7730  205.1810  151.8670 C   0  0  0  0  0  2  0  0  0  0  0  0
  160.4520  209.4250  154.4100 C   0  0  0  0  0  0  0  0  0  0  0  0
  160.2050  210.6720  154.8920 N   0  0  0  0  0  0  0  0  0  0  0  0
  161.4210  205.5860  153.2220 N   0  0  0  0  0  0  0  0  0  0  0  0
  160.2070  211.7610  154.0810 C   0  0  0  0  0  3  0  0  0  0  0  0
  160.7180  209.2410  153.0430 C   0  0  0  0  0  0  0  0  0  0  0  0
  160.4620  211.6180  152.7170 C   0  0  0  0  0  3  0  0  0  0  0  0
  160.7170  210.3490  152.2000 C   0  0  0  0  0  3  0  0  0  0  0  0
  160.9780  207.8800  152.4700 C   0  0  0  0  0  2  0  0  0  0  0  0
  160.7260  207.0980  154.9250 C   0  0  0  0  0  3  0  0  0  0  0  0
  160.4470  208.3070  155.3070 N   0  0  0  0  0  0  0  0  0  0  0  0
  161.0650  206.7970  153.5260 C   0  0  0  0  0  0  0  0  0  0  0  0
  1 15  1  0  0  0  0
  2  1  1  0  0  0  0
  3  2  1  0  0  0  0
  4  3  1  0  0  0  0
  5  4  1  0  0  0  0
  6  5  1  0  0  0  0
  6  7  1  0  0  0  0
  8  9  1  0  0  0  0
  9  7  1  0  0  0  0
  9 10  1  0  0  0  0
 10 11  1  0  0  0  0
 11 12  1  0  0  0  0
 12 13  1  0  0  0  0
 13 14  1  0  0  0  0
 15 16  1  0  0  0  0
 16 19  1  0  0  0  0
 17 18  2  0  0  0  0
 17 26  1  0  0  0  0
 19 27  2  0  0  0  0
 20 18  1  0  0  0  0
 21 17  1  0  0  0  0
 22 20  2  0  0  0  0
 23 22  1  0  0  0  0
 23 21  2  0  0  0  0
 24 21  1  0  0  0  0
 24 27  1  0  0  0  0
 25 26  2  0  0  0  0
 27 25  1  0  0  0  0
M  END
>  <MODEL>
1

>  <REMARK>
 VINA RESULT:      -6.8      0.000      0.000
  Name = 
  14 active torsions:
  status: ('A' for Active; 'I' for Inactive)
    1  A    between atoms: C_1  and  C_3
    2  A    between atoms: C_1  and  N_14
    3  A    between atoms: C_3  and  N_13
    4  A    between atoms: C_5  and  C_8
    5  A    between atoms: C_5  and  C_15
    6  A    between atoms: C_6  and  N_14
    7  A    between atoms: C_6  and  C_17
    8  A    between atoms: C_7  and  N_11
    9  A    between atoms: C_7  and  C_20
   10  A    between atoms: C_9  and  N_13
   11  A    between atoms: C_9  and  N_25
   12  A    between atoms: C_15  and  C_21
   13  A    between atoms: C_17  and  C_20
   14  A    between atoms: C_21  and  N_25
                            x       y       z     vdW  Elec       q    Type
                         _______ _______ _______ _____ _____    ______ ____

>  <TORSDO>
F 14

$$$$
=
 OpenBabel11042420473D

 27 28  0  0  0  0  0  0  0  0999 V2000
  160.6730  206.3960  148.1440 C   0  0  0  0  0  2  0  0  0  0  0  0
  161.9960  205.8170  147.6560 C   0  0  0  0  0  2  0  0  0  0  0  0
  162.3080  206.2770  146.3060 N   0  0  0  0  0  2  0  0  0  0  0  0
  162.4650  205.0940  145.4680 C   0  0  0  0  0  2  0  0  0  0  0  0
  161.3980  205.0430  144.3860 C   0  0  0  0  0  2  0  0  0  0  0  0
  160.4530  203.9710  144.6580 N   0  0  0  0  0  2  0  0  0  0  0  0
  161.1380  202.9920  145.4790 C   0  0  0  0  0  2  0  0  0  0  0  0
  160.1710  200.9170  144.9960 C   0  0  0  0  0  1  0  0  0  0  0  0
  160.1870  202.0010  145.9620 N   0  0  0  0  0  0  0  0  0  0  0  0
  160.7370  201.4460  147.1850 C   0  0  0  0  0  2  0  0  0  0  0  0
  161.2080  202.5660  148.0970 C   0  0  0  0  0  2  0  0  0  0  0  0
  160.9860  202.1920  149.5560 C   0  0  0  0  0  2  0  0  0  0  0  0
  160.5130  203.3880  150.3710 C   0  0  0  0  0  2  0  0  0  0  0  0
  161.3250  203.5210  151.6490 C   0  0  0  0  0  1  0  0  0  0  0  0
  160.7620  206.9570  149.5620 C   0  0  0  0  0  2  0  0  0  0  0  0
  162.1790  207.3730  149.9320 C   0  0  0  0  0  2  0  0  0  0  0  0
  161.0150  209.2910  154.5350 C   0  0  0  0  0  0  0  0  0  0  0  0
  160.5710  209.5910  155.7850 N   0  0  0  0  0  0  0  0  0  0  0  0
  162.1770  208.6580  150.6200 N   0  0  0  0  0  0  0  0  0  0  0  0
  160.0910  208.6330  156.6180 C   0  0  0  0  0  3  0  0  0  0  0  0
  160.9820  207.9630  154.0800 C   0  0  0  0  0  0  0  0  0  0  0  0
  160.0470  207.3010  156.2040 C   0  0  0  0  0  3  0  0  0  0  0  0
  160.4980  206.9690  154.9270 C   0  0  0  0  0  3  0  0  0  0  0  0
  161.4790  207.5880  152.7150 C   0  0  0  0  0  2  0  0  0  0  0  0
  161.8940  210.1310  152.4680 C   0  0  0  0  0  3  0  0  0  0  0  0
  161.5060  210.3380  153.6890 N   0  0  0  0  0  0  0  0  0  0  0  0
  161.8600  208.7880  151.8710 C   0  0  0  0  0  0  0  0  0  0  0  0
  1 15  1  0  0  0  0
  2  1  1  0  0  0  0
  3  2  1  0  0  0  0
  4  3  1  0  0  0  0
  5  6  1  0  0  0  0
  5  4  1  0  0  0  0
  6  7  1  0  0  0  0
  7  9  1  0  0  0  0
  8  9  1  0  0  0  0
  9 10  1  0  0  0  0
 10 11  1  0  0  0  0
 11 12  1  0  0  0  0
 12 13  1  0  0  0  0
 13 14  1  0  0  0  0
 15 16  1  0  0  0  0
 16 19  1  0  0  0  0
 17 18  2  0  0  0  0
 18 20  1  0  0  0  0
 19 27  2  0  0  0  0
 21 17  1  0  0  0  0
 21 23  2  0  0  0  0
 22 20  2  0  0  0  0
 23 22  1  0  0  0  0
 24 21  1  0  0  0  0
 25 26  2  0  0  0  0
 26 17  1  0  0  0  0
 27 25  1  0  0  0  0
 27 24  1  0  0  0  0
M  END
>  <MODEL>
2

>  <REMARK>
 VINA RESULT:      -6.5      1.554      3.871
  Name = 
  14 active torsions:
  status: ('A' for Active; 'I' for Inactive)
    1  A    between atoms: C_1  and  C_3
    2  A    between atoms: C_1  and  N_14
    3  A    between atoms: C_3  and  N_13
    4  A    between atoms: C_5  and  C_8
    5  A    between atoms: C_5  and  C_15
    6  A    between atoms: C_6  and  N_14
    7  A    between atoms: C_6  and  C_17
    8  A    between atoms: C_7  and  N_11
    9  A    between atoms: C_7  and  C_20
   10  A    between atoms: C_9  and  N_13
   11  A    between atoms: C_9  and  N_25
   12  A    between atoms: C_15  and  C_21
   13  A    between atoms: C_17  and  C_20
   14  A    between atoms: C_21  and  N_25
                            x       y       z     vdW  Elec       q    Type
                         _______ _______ _______ _____ _____    ______ ____

>  <TORSDO>
F 14

$$$$
=
 OpenBabel11042420473D

 27 28  0  0  0  0  0  0  0  0999 V2000
  160.8440  203.1530  150.2320 C   0  0  0  0  0  2  0  0  0  0  0  0
  160.6680  201.6580  149.9930 C   0  0  0  0  0  2  0  0  0  0  0  0
  160.0720  201.3990  148.6840 N   0  0  0  0  0  2  0  0  0  0  0  0
  161.0940  201.6690  147.6810 C   0  0  0  0  0  2  0  0  0  0  0  0
  160.4970  201.6960  146.2830 C   0  0  0  0  0  2  0  0  0  0  0  0
  161.1470  202.7160  145.4730 N   0  0  0  0  0  2  0  0  0  0  0  0
  161.6230  203.7440  146.3780 C   0  0  0  0  0  2  0  0  0  0  0  0
  161.2380  205.0470  144.4740 C   0  0  0  0  0  1  0  0  0  0  0  0
  162.1200  204.8800  145.6160 N   0  0  0  0  0  0  0  0  0  0  0  0
  161.9380  206.0580  146.4440 C   0  0  0  0  0  2  0  0  0  0  0  0
  161.0200  205.7350  147.6110 C   0  0  0  0  0  2  0  0  0  0  0  0
  160.9580  206.9080  148.5800 C   0  0  0  0  0  2  0  0  0  0  0  0
  162.2810  207.6600  148.6280 C   0  0  0  0  0  2  0  0  0  0  0  0
  162.0440  209.1520  148.8010 C   0  0  0  0  0  1  0  0  0  0  0  0
  161.6800  203.4570  151.4740 C   0  0  0  0  0  2  0  0  0  0  0  0
  160.9900  204.4380  152.4110 C   0  0  0  0  0  2  0  0  0  0  0  0
  160.9350  209.1620  154.3870 C   0  0  0  0  0  0  0  0  0  0  0  0
  160.7790  210.3150  155.0920 N   0  0  0  0  0  0  0  0  0  0  0  0
  161.2240  205.8120  151.9840 N   0  0  0  0  0  0  0  0  0  0  0  0
  160.4090  210.3060  156.3980 C   0  0  0  0  0  3  0  0  0  0  0  0
  160.7110  207.9240  155.0110 C   0  0  0  0  0  0  0  0  0  0  0  0
  160.1820  209.0950  157.0540 C   0  0  0  0  0  3  0  0  0  0  0  0
  160.3370  207.9000  156.3520 C   0  0  0  0  0  3  0  0  0  0  0  0
  160.8900  206.6300  154.2740 C   0  0  0  0  0  2  0  0  0  0  0  0
  161.4350  208.1660  152.2630 C   0  0  0  0  0  3  0  0  0  0  0  0
  161.3200  209.2230  153.0080 N   0  0  0  0  0  0  0  0  0  0  0  0
  161.1790  206.8210  152.7990 C   0  0  0  0  0  0  0  0  0  0  0  0
  1 15  1  0  0  0  0
  2  1  1  0  0  0  0
  3  2  1  0  0  0  0
  4  3  1  0  0  0  0
  5  4  1  0  0  0  0
  6  5  1  0  0  0  0
  6  7  1  0  0  0  0
  8  9  1  0  0  0  0
  9  7  1  0  0  0  0
  9 10  1  0  0  0  0
 10 11  1  0  0  0  0
 11 12  1  0  0  0  0
 12 13  1  0  0  0  0
 13 14  1  0  0  0  0
 15 16  1  0  0  0  0
 17 21  1  0  0  0  0
 17 18  2  0  0  0  0
 18 20  1  0  0  0  0
 19 16  1  0  0  0  0
 19 27  2  0  0  0  0
 20 22  2  0  0  0  0
 21 23  2  0  0  0  0
 23 22  1  0  0  0  0
 24 21  1  0  0  0  0
 25 27  1  0  0  0  0
 25 26  2  0  0  0  0
 26 17  1  0  0  0  0
 27 24  1  0  0  0  0
M  END
>  <MODEL>
3

>  <REMARK>
 VINA RESULT:      -6.4      1.123      1.800
  Name = 
  14 active torsions:
  status: ('A' for Active; 'I' for Inactive)
    1  A    between atoms: C_1  and  C_3
    2  A    between atoms: C_1  and  N_14
    3  A    between atoms: C_3  and  N_13
    4  A    between atoms: C_5  and  C_8
    5  A    between atoms: C_5  and  C_15
    6  A    between atoms: C_6  and  N_14
    7  A    between atoms: C_6  and  C_17
    8  A    between atoms: C_7  and  N_11
    9  A    between atoms: C_7  and  C_20
   10  A    between atoms: C_9  and  N_13
   11  A    between atoms: C_9  and  N_25
   12  A    between atoms: C_15  and  C_21
   13  A    between atoms: C_17  and  C_20
   14  A    between atoms: C_21  and  N_25
                            x       y       z     vdW  Elec       q    Type
                         _______ _______ _______ _____ _____    ______ ____

>  <TORSDO>
F 14

$$$$
=
 OpenBabel11042420473D

 27 28  0  0  0  0  0  0  0  0999 V2000
  161.8610  207.5760  151.9320 C   0  0  0  0  0  2  0  0  0  0  0  0
  162.1180  206.1800  152.4890 C   0  0  0  0  0  2  0  0  0  0  0  0
  161.3550  205.9510  153.7140 N   0  0  0  0  0  2  0  0  0  0  0  0
  160.9050  207.2510  154.1940 C   0  0  0  0  0  2  0  0  0  0  0  0
  160.3980  207.1610  155.6250 C   0  0  0  0  0  2  0  0  0  0  0  0
  161.1950  208.0080  156.5000 N   0  0  0  0  0  2  0  0  0  0  0  0
  161.5330  209.2020  155.7500 C   0  0  0  0  0  2  0  0  0  0  0  0
  163.1620  210.6410  156.6160 C   0  0  0  0  0  1  0  0  0  0  0  0
  161.7480  210.3140  156.6650 N   0  0  0  0  0  0  0  0  0  0  0  0
  161.0480  211.4580  156.1110 C   0  0  0  0  0  2  0  0  0  0  0  0
  159.8370  210.9940  155.3200 C   0  0  0  0  0  2  0  0  0  0  0  0
  159.2930  212.1290  154.4640 C   0  0  0  0  0  2  0  0  0  0  0  0
  159.8360  212.0620  153.0430 C   0  0  0  0  0  2  0  0  0  0  0  0
  159.9940  210.6180  152.5970 C   0  0  0  0  0  1  0  0  0  0  0  0
  162.4300  207.7640  150.5270 C   0  0  0  0  0  2  0  0  0  0  0  0
  161.3400  207.9370  149.4790 C   0  0  0  0  0  2  0  0  0  0  0  0
  161.3560  203.0860  147.8380 C   0  0  0  0  0  0  0  0  0  0  0  0
  161.3620  201.7400  147.6460 N   0  0  0  0  0  0  0  0  0  0  0  0
  161.6600  207.1850  148.2710 N   0  0  0  0  0  0  0  0  0  0  0  0
  160.9850  200.8800  148.6270 C   0  0  0  0  0  3  0  0  0  0  0  0
  160.9540  203.6160  149.0750 C   0  0  0  0  0  0  0  0  0  0  0  0
  160.5740  201.3680  149.8680 C   0  0  0  0  0  3  0  0  0  0  0  0
  160.5590  202.7450  150.0880 C   0  0  0  0  0  3  0  0  0  0  0  0
  160.9160  205.0950  149.3210 C   0  0  0  0  0  2  0  0  0  0  0  0
  161.8390  205.2430  146.9070 C   0  0  0  0  0  3  0  0  0  0  0  0
  161.7690  203.9530  146.7750 N   0  0  0  0  0  0  0  0  0  0  0  0
  161.4860  205.9030  148.1730 C   0  0  0  0  0  0  0  0  0  0  0  0
  1  2  1  0  0  0  0
  2  3  1  0  0  0  0
  3  4  1  0  0  0  0
  4  5  1  0  0  0  0
  5  6  1  0  0  0  0
  7  6  1  0  0  0  0
  7  9  1  0  0  0  0
  8  9  1  0  0  0  0
 10  9  1  0  0  0  0
 11 10  1  0  0  0  0
 12 11  1  0  0  0  0
 13 12  1  0  0  0  0
 14 13  1  0  0  0  0
 15  1  1  0  0  0  0
 16 15  1  0  0  0  0
 17 21  1  0  0  0  0
 18 17  2  0  0  0  0
 18 20  1  0  0  0  0
 19 16  1  0  0  0  0
 20 22  2  0  0  0  0
 21 24  1  0  0  0  0
 21 23  2  0  0  0  0
 22 23  1  0  0  0  0
 25 27  1  0  0  0  0
 26 25  2  0  0  0  0
 26 17  1  0  0  0  0
 27 19  2  0  0  0  0
 27 24  1  0  0  0  0
M  END
>  <MODEL>
4

>  <REMARK>
 VINA RESULT:      -6.0      1.613      8.719
  Name = 
  14 active torsions:
  status: ('A' for Active; 'I' for Inactive)
    1  A    between atoms: C_1  and  C_3
    2  A    between atoms: C_1  and  N_14
    3  A    between atoms: C_3  and  N_13
    4  A    between atoms: C_5  and  C_8
    5  A    between atoms: C_5  and  C_15
    6  A    between atoms: C_6  and  N_14
    7  A    between atoms: C_6  and  C_17
    8  A    between atoms: C_7  and  N_11
    9  A    between atoms: C_7  and  C_20
   10  A    between atoms: C_9  and  N_13
   11  A    between atoms: C_9  and  N_25
   12  A    between atoms: C_15  and  C_21
   13  A    between atoms: C_17  and  C_20
   14  A    between atoms: C_21  and  N_25
                            x       y       z     vdW  Elec       q    Type
                         _______ _______ _______ _____ _____    ______ ____

>  <TORSDO>
F 14

$$$$
=
 OpenBabel11042420473D

 27 28  0  0  0  0  0  0  0  0999 V2000
  161.4910  206.6370  154.0080 C   0  0  0  0  0  2  0  0  0  0  0  0
  160.7690  207.1450  155.2500 C   0  0  0  0  0  2  0  0  0  0  0  0
  161.3810  208.3720  155.7530 N   0  0  0  0  0  2  0  0  0  0  0  0
  160.3390  209.1280  156.4370 C   0  0  0  0  0  2  0  0  0  0  0  0
  160.5000  210.6220  156.1990 C   0  0  0  0  0  2  0  0  0  0  0  0
  160.9150  210.8740  154.8280 N   0  0  0  0  0  2  0  0  0  0  0  0
  159.7160  211.1540  154.0610 C   0  0  0  0  0  2  0  0  0  0  0  0
  160.0630  212.1320  151.9650 C   0  0  0  0  0  1  0  0  0  0  0  0
  159.9500  210.8600  152.6550 N   0  0  0  0  0  0  0  0  0  0  0  0
  161.2550  210.2330  152.5650 C   0  0  0  0  0  2  0  0  0  0  0  0
  161.1610  208.9480  151.7600 C   0  0  0  0  0  2  0  0  0  0  0  0
  161.8880  209.0980  150.4310 C   0  0  0  0  0  2  0  0  0  0  0  0
  162.2830  207.7440  149.8580 C   0  0  0  0  0  2  0  0  0  0  0  0
  162.0300  207.7020  148.3600 C   0  0  0  0  0  1  0  0  0  0  0  0
  160.9060  205.3290  153.4790 C   0  0  0  0  0  2  0  0  0  0  0  0
  161.3880  205.0060  152.0710 C   0  0  0  0  0  2  0  0  0  0  0  0
  160.9050  202.0910  147.8880 C   0  0  0  0  0  0  0  0  0  0  0  0
  160.7480  201.5350  146.6580 N   0  0  0  0  0  0  0  0  0  0  0  0
  161.0760  203.6260  151.7220 N   0  0  0  0  0  0  0  0  0  0  0  0
  160.9340  202.2560  145.5220 C   0  0  0  0  0  3  0  0  0  0  0  0
  161.2670  203.4430  148.0060 C   0  0  0  0  0  0  0  0  0  0  0  0
  161.3000  203.6000  145.5980 C   0  0  0  0  0  3  0  0  0  0  0  0
  161.4670  204.1920  146.8490 C   0  0  0  0  0  3  0  0  0  0  0  0
  161.4680  204.0890  149.3440 C   0  0  0  0  0  2  0  0  0  0  0  0
  160.7700  201.7710  150.2620 C   0  0  0  0  0  3  0  0  0  0  0  0
  160.6890  201.2920  149.0580 N   0  0  0  0  0  0  0  0  0  0  0  0
  161.0970  203.1850  150.5020 C   0  0  0  0  0  0  0  0  0  0  0  0
  1  2  1  0  0  0  0
  2  3  1  0  0  0  0
  3  4  1  0  0  0  0
  5  4  1  0  0  0  0
  6  5  1  0  0  0  0
  7  6  1  0  0  0  0
  8  9  1  0  0  0  0
  9  7  1  0  0  0  0
 10  9  1  0  0  0  0
 11 10  1  0  0  0  0
 12 11  1  0  0  0  0
 13 12  1  0  0  0  0
 14 13  1  0  0  0  0
 15  1  1  0  0  0  0
 16 15  1  0  0  0  0
 17 21  1  0  0  0  0
 17 26  1  0  0  0  0
 18 17  2  0  0  0  0
 19 16  1  0  0  0  0
 20 22  2  0  0  0  0
 20 18  1  0  0  0  0
 21 24  1  0  0  0  0
 22 23  1  0  0  0  0
 23 21  2  0  0  0  0
 24 27  1  0  0  0  0
 25 27  1  0  0  0  0
 26 25  2  0  0  0  0
 27 19  2  0  0  0  0
M  END
>  <MODEL>
5

>  <REMARK>
 VINA RESULT:      -6.0      1.434      8.328
  Name = 
  14 active torsions:
  status: ('A' for Active; 'I' for Inactive)
    1  A    between atoms: C_1  and  C_3
    2  A    between atoms: C_1  and  N_14
    3  A    between atoms: C_3  and  N_13
    4  A    between atoms: C_5  and  C_8
    5  A    between atoms: C_5  and  C_15
    6  A    between atoms: C_6  and  N_14
    7  A    between atoms: C_6  and  C_17
    8  A    between atoms: C_7  and  N_11
    9  A    between atoms: C_7  and  C_20
   10  A    between atoms: C_9  and  N_13
   11  A    between atoms: C_9  and  N_25
   12  A    between atoms: C_15  and  C_21
   13  A    between atoms: C_17  and  C_20
   14  A    between atoms: C_21  and  N_25
                            x       y       z     vdW  Elec       q    Type
                         _______ _______ _______ _____ _____    ______ ____

>  <TORSDO>
F 14

$$$$
=
 OpenBabel11042420473D

 27 28  0  0  0  0  0  0  0  0999 V2000
  162.1900  208.1720  151.0200 C   0  0  0  0  0  2  0  0  0  0  0  0
  161.6170  209.5770  151.1660 C   0  0  0  0  0  2  0  0  0  0  0  0
  160.7850  209.6880  152.3610 N   0  0  0  0  0  2  0  0  0  0  0  0
  160.3480  211.0750  152.4600 C   0  0  0  0  0  2  0  0  0  0  0  0
  160.5610  211.6180  153.8650 C   0  0  0  0  0  2  0  0  0  0  0  0
  160.3960  210.5580  154.8480 N   0  0  0  0  0  2  0  0  0  0  0  0
  161.6580  210.4220  155.5500 C   0  0  0  0  0  2  0  0  0  0  0  0
  160.0580  209.6970  157.0950 C   0  0  0  0  0  1  0  0  0  0  0  0
  161.4680  209.6290  156.7560 N   0  0  0  0  0  0  0  0  0  0  0  0
  161.7330  208.2480  156.4000 C   0  0  0  0  0  2  0  0  0  0  0  0
  160.4270  207.4830  156.2750 C   0  0  0  0  0  2  0  0  0  0  0  0
  160.2300  206.9930  154.8480 C   0  0  0  0  0  2  0  0  0  0  0  0
  161.5290  206.4580  154.2600 C   0  0  0  0  0  2  0  0  0  0  0  0
  161.2440  205.4820  153.1290 C   0  0  0  0  0  1  0  0  0  0  0  0
  162.6020  207.8500  149.5850 C   0  0  0  0  0  2  0  0  0  0  0  0
  161.4390  207.9620  148.6090 C   0  0  0  0  0  2  0  0  0  0  0  0
  161.2330  202.8940  147.9020 C   0  0  0  0  0  0  0  0  0  0  0  0
  161.2170  201.5360  147.9620 N   0  0  0  0  0  0  0  0  0  0  0  0
  161.5780  206.9960  147.5270 N   0  0  0  0  0  0  0  0  0  0  0  0
  160.9960  200.8780  149.1280 C   0  0  0  0  0  3  0  0  0  0  0  0
  161.0180  203.6500  149.0670 C   0  0  0  0  0  0  0  0  0  0  0  0
  160.7740  201.5930  150.3060 C   0  0  0  0  0  3  0  0  0  0  0  0
  160.7850  202.9870  150.2690 C   0  0  0  0  0  3  0  0  0  0  0  0
  161.0110  205.1490  149.0400 C   0  0  0  0  0  2  0  0  0  0  0  0
  161.5600  204.8340  146.5300 C   0  0  0  0  0  3  0  0  0  0  0  0
  161.4780  203.5440  146.6490 N   0  0  0  0  0  0  0  0  0  0  0  0
  161.3980  205.7210  147.6920 C   0  0  0  0  0  0  0  0  0  0  0  0
  1  2  1  0  0  0  0
  2  3  1  0  0  0  0
  3  4  1  0  0  0  0
  4  5  1  0  0  0  0
  5  6  1  0  0  0  0
  6  7  1  0  0  0  0
  7  9  1  0  0  0  0
  9  8  1  0  0  0  0
 10  9  1  0  0  0  0
 11 10  1  0  0  0  0
 12 11  1  0  0  0  0
 13 12  1  0  0  0  0
 14 13  1  0  0  0  0
 15  1  1  0  0  0  0
 16 15  1  0  0  0  0
 17 18  2  0  0  0  0
 17 21  1  0  0  0  0
 18 20  1  0  0  0  0
 19 27  2  0  0  0  0
 19 16  1  0  0  0  0
 20 22  2  0  0  0  0
 21 23  2  0  0  0  0
 23 22  1  0  0  0  0
 24 21  1  0  0  0  0
 25 26  2  0  0  0  0
 25 27  1  0  0  0  0
 26 17  1  0  0  0  0
 27 24  1  0  0  0  0
M  END
>  <MODEL>
6

>  <REMARK>
 VINA RESULT:      -6.0      1.549      8.972
  Name = 
  14 active torsions:
  status: ('A' for Active; 'I' for Inactive)
    1  A    between atoms: C_1  and  C_3
    2  A    between atoms: C_1  and  N_14
    3  A    between atoms: C_3  and  N_13
    4  A    between atoms: C_5  and  C_8
    5  A    between atoms: C_5  and  C_15
    6  A    between atoms: C_6  and  N_14
    7  A    between atoms: C_6  and  C_17
    8  A    between atoms: C_7  and  N_11
    9  A    between atoms: C_7  and  C_20
   10  A    between atoms: C_9  and  N_13
   11  A    between atoms: C_9  and  N_25
   12  A    between atoms: C_15  and  C_21
   13  A    between atoms: C_17  and  C_20
   14  A    between atoms: C_21  and  N_25
                            x       y       z     vdW  Elec       q    Type
                         _______ _______ _______ _____ _____    ______ ____

>  <TORSDO>
F 14

$$$$
=
 OpenBabel11042420473D

 27 28  0  0  0  0  0  0  0  0999 V2000
  161.3400  204.6630  151.0580 C   0  0  0  0  0  2  0  0  0  0  0  0
  160.6110  203.5860  150.2630 C   0  0  0  0  0  2  0  0  0  0  0  0
  160.9350  202.2510  150.7610 N   0  0  0  0  0  2  0  0  0  0  0  0
  160.4110  201.2900  149.7990 C   0  0  0  0  0  2  0  0  0  0  0  0
  161.3530  201.1280  148.6160 C   0  0  0  0  0  2  0  0  0  0  0  0
  160.6570  201.4130  147.3710 N   0  0  0  0  0  2  0  0  0  0  0  0
  161.2070  202.6460  146.8430 C   0  0  0  0  0  2  0  0  0  0  0  0
  159.9740  201.8520  145.0200 C   0  0  0  0  0  1  0  0  0  0  0  0
  161.1430  202.6310  145.3880 N   0  0  0  0  0  0  0  0  0  0  0  0
  160.8740  203.9920  144.9630 C   0  0  0  0  0  2  0  0  0  0  0  0
  161.6790  204.9680  145.8030 C   0  0  0  0  0  2  0  0  0  0  0  0
  160.8230  206.1630  146.1990 C   0  0  0  0  0  2  0  0  0  0  0  0
  160.6650  206.2580  147.7100 C   0  0  0  0  0  2  0  0  0  0  0  0
  161.4840  207.4130  148.2630 C   0  0  0  0  0  1  0  0  0  0  0  0
  161.1700  204.4970  152.5670 C   0  0  0  0  0  2  0  0  0  0  0  0
  161.4270  205.7930  153.3250 C   0  0  0  0  0  2  0  0  0  0  0  0
  160.5620  210.8320  153.0260 C   0  0  0  0  0  0  0  0  0  0  0  0
  160.1590  212.1270  153.1230 N   0  0  0  0  0  0  0  0  0  0  0  0
  161.6560  206.8950  152.3990 N   0  0  0  0  0  0  0  0  0  0  0  0
  159.4900  212.5840  154.2120 C   0  0  0  0  0  3  0  0  0  0  0  0
  160.2860  209.9310  154.0680 C   0  0  0  0  0  0  0  0  0  0  0  0
  159.2020  211.7220  155.2710 C   0  0  0  0  0  3  0  0  0  0  0  0
  159.6050  210.3890  155.1940 C   0  0  0  0  0  3  0  0  0  0  0  0
  160.7270  208.5000  154.0080 C   0  0  0  0  0  2  0  0  0  0  0  0
  161.6240  209.1610  151.6710 C   0  0  0  0  0  3  0  0  0  0  0  0
  161.2580  210.3940  151.8530 N   0  0  0  0  0  0  0  0  0  0  0  0
  161.3450  208.1250  152.6760 C   0  0  0  0  0  0  0  0  0  0  0  0
  1 15  1  0  0  0  0
  2  3  1  0  0  0  0
  2  1  1  0  0  0  0
  4  3  1  0  0  0  0
  5  4  1  0  0  0  0
  6  5  1  0  0  0  0
  7  6  1  0  0  0  0
  8  9  1  0  0  0  0
  9  7  1  0  0  0  0
 10  9  1  0  0  0  0
 10 11  1  0  0  0  0
 11 12  1  0  0  0  0
 12 13  1  0  0  0  0
 13 14  1  0  0  0  0
 15 16  1  0  0  0  0
 17 18  2  0  0  0  0
 17 21  1  0  0  0  0
 18 20  1  0  0  0  0
 19 27  2  0  0  0  0
 19 16  1  0  0  0  0
 20 22  2  0  0  0  0
 21 23  2  0  0  0  0
 23 22  1  0  0  0  0
 24 21  1  0  0  0  0
 25 26  2  0  0  0  0
 25 27  1  0  0  0  0
 26 17  1  0  0  0  0
 27 24  1  0  0  0  0
M  END
>  <MODEL>
7

>  <REMARK>
 VINA RESULT:      -5.9      1.404      2.364
  Name = 
  14 active torsions:
  status: ('A' for Active; 'I' for Inactive)
    1  A    between atoms: C_1  and  C_3
    2  A    between atoms: C_1  and  N_14
    3  A    between atoms: C_3  and  N_13
    4  A    between atoms: C_5  and  C_8
    5  A    between atoms: C_5  and  C_15
    6  A    between atoms: C_6  and  N_14
    7  A    between atoms: C_6  and  C_17
    8  A    between atoms: C_7  and  N_11
    9  A    between atoms: C_7  and  C_20
   10  A    between atoms: C_9  and  N_13
   11  A    between atoms: C_9  and  N_25
   12  A    between atoms: C_15  and  C_21
   13  A    between atoms: C_17  and  C_20
   14  A    between atoms: C_21  and  N_25
                            x       y       z     vdW  Elec       q    Type
                         _______ _______ _______ _____ _____    ______ ____

>  <TORSDO>
F 14

$$$$
=
 OpenBabel11042420473D

 27 28  0  0  0  0  0  0  0  0999 V2000
  161.1480  202.9520  151.9680 C   0  0  0  0  0  2  0  0  0  0  0  0
  160.8250  204.4300  152.1500 C   0  0  0  0  0  2  0  0  0  0  0  0
  160.8500  205.1380  150.8730 N   0  0  0  0  0  2  0  0  0  0  0  0
  161.5220  206.4130  151.0950 C   0  0  0  0  0  2  0  0  0  0  0  0
  161.2360  207.3880  149.9640 C   0  0  0  0  0  2  0  0  0  0  0  0
  161.6930  208.7230  150.3190 N   0  0  0  0  0  2  0  0  0  0  0  0
  161.9860  208.7140  151.7400 C   0  0  0  0  0  2  0  0  0  0  0  0
  160.9210  210.7920  151.6060 C   0  0  0  0  0  1  0  0  0  0  0  0
  162.0110  210.0780  152.2470 N   0  0  0  0  0  0  0  0  0  0  0  0
  161.6780  210.0110  153.6570 C   0  0  0  0  0  2  0  0  0  0  0  0
  160.9140  208.7310  153.9510 C   0  0  0  0  0  2  0  0  0  0  0  0
  160.4370  208.7150  155.3960 C   0  0  0  0  0  2  0  0  0  0  0  0
  159.9490  207.3320  155.8060 C   0  0  0  0  0  2  0  0  0  0  0  0
  160.2940  207.0510  157.2590 C   0  0  0  0  0  1  0  0  0  0  0  0
  160.4860  202.3530  150.7280 C   0  0  0  0  0  2  0  0  0  0  0  0
  161.3170  201.2370  150.1100 C   0  0  0  0  0  2  0  0  0  0  0  0
  161.1040  203.5100  145.5260 C   0  0  0  0  0  0  0  0  0  0  0  0
  161.0720  204.3260  144.4390 N   0  0  0  0  0  0  0  0  0  0  0  0
  160.8620  200.9430  148.7570 N   0  0  0  0  0  0  0  0  0  0  0  0
  161.5540  205.5950  144.4870 C   0  0  0  0  0  3  0  0  0  0  0  0
  161.6430  203.9750  146.7370 C   0  0  0  0  0  0  0  0  0  0  0  0
  162.1020  206.0910  145.6710 C   0  0  0  0  0  3  0  0  0  0  0  0
  162.1460  205.2720  146.7990 C   0  0  0  0  0  3  0  0  0  0  0  0
  161.7120  203.1010  147.9530 C   0  0  0  0  0  2  0  0  0  0  0  0
  160.5260  201.3680  146.4390 C   0  0  0  0  0  3  0  0  0  0  0  0
  160.5760  202.1810  145.4280 N   0  0  0  0  0  0  0  0  0  0  0  0
  161.0200  201.7660  147.7660 C   0  0  0  0  0  0  0  0  0  0  0  0
  1  2  1  0  0  0  0
  3  4  1  0  0  0  0
  3  2  1  0  0  0  0
  5  6  1  0  0  0  0
  5  4  1  0  0  0  0
  6  7  1  0  0  0  0
  7  9  1  0  0  0  0
  8  9  1  0  0  0  0
  9 10  1  0  0  0  0
 10 11  1  0  0  0  0
 11 12  1  0  0  0  0
 12 13  1  0  0  0  0
 13 14  1  0  0  0  0
 15  1  1  0  0  0  0
 16 15  1  0  0  0  0
 17 21  1  0  0  0  0
 18 20  1  0  0  0  0
 18 17  2  0  0  0  0
 19 16  1  0  0  0  0
 20 22  2  0  0  0  0
 21 23  2  0  0  0  0
 21 24  1  0  0  0  0
 22 23  1  0  0  0  0
 25 27  1  0  0  0  0
 26 17  1  0  0  0  0
 26 25  2  0  0  0  0
 27 24  1  0  0  0  0
 27 19  2  0  0  0  0
M  END
>  <MODEL>
8

>  <REMARK>
 VINA RESULT:      -5.8      1.628      7.858
  Name = 
  14 active torsions:
  status: ('A' for Active; 'I' for Inactive)
    1  A    between atoms: C_1  and  C_3
    2  A    between atoms: C_1  and  N_14
    3  A    between atoms: C_3  and  N_13
    4  A    between atoms: C_5  and  C_8
    5  A    between atoms: C_5  and  C_15
    6  A    between atoms: C_6  and  N_14
    7  A    between atoms: C_6  and  C_17
    8  A    between atoms: C_7  and  N_11
    9  A    between atoms: C_7  and  C_20
   10  A    between atoms: C_9  and  N_13
   11  A    between atoms: C_9  and  N_25
   12  A    between atoms: C_15  and  C_21
   13  A    between atoms: C_17  and  C_20
   14  A    between atoms: C_21  and  N_25
                            x       y       z     vdW  Elec       q    Type
                         _______ _______ _______ _____ _____    ______ ____

>  <TORSDO>
F 14

$$$$
=
 OpenBabel11042420473D

 27 28  0  0  0  0  0  0  0  0999 V2000
  161.9540  208.6530  148.8050 C   0  0  0  0  0  2  0  0  0  0  0  0
  162.5100  207.3510  148.2410 C   0  0  0  0  0  2  0  0  0  0  0  0
  161.6770  206.8500  147.1500 N   0  0  0  0  0  2  0  0  0  0  0  0
  161.0720  205.6030  147.6030 C   0  0  0  0  0  2  0  0  0  0  0  0
  161.6670  204.4080  146.8740 C   0  0  0  0  0  2  0  0  0  0  0  0
  161.3310  203.1740  147.5660 N   0  0  0  0  0  2  0  0  0  0  0  0
  161.0110  203.5230  148.9370 C   0  0  0  0  0  2  0  0  0  0  0  0
  161.0440  201.1870  149.0480 C   0  0  0  0  0  1  0  0  0  0  0  0
  160.4300  202.3740  149.6160 N   0  0  0  0  0  0  0  0  0  0  0  0
  160.8670  202.4340  150.9990 C   0  0  0  0  0  2  0  0  0  0  0  0
  161.6170  203.7300  151.2510 C   0  0  0  0  0  2  0  0  0  0  0  0
  161.1210  204.3930  152.5280 C   0  0  0  0  0  2  0  0  0  0  0  0
  161.0230  205.9040  152.3680 C   0  0  0  0  0  2  0  0  0  0  0  0
  161.2890  206.6010  153.6930 C   0  0  0  0  0  1  0  0  0  0  0  0
  161.9700  208.6880  150.3320 C   0  0  0  0  0  2  0  0  0  0  0  0
  161.9750  210.1100  150.8790 C   0  0  0  0  0  2  0  0  0  0  0  0
  159.6530  211.1120  155.3320 C   0  0  0  0  0  0  0  0  0  0  0  0
  158.8730  211.5060  156.3740 N   0  0  0  0  0  0  0  0  0  0  0  0
  162.2830  210.1140  152.3030 N   0  0  0  0  0  0  0  0  0  0  0  0
  157.5950  211.9220  156.1880 C   0  0  0  0  0  3  0  0  0  0  0  0
  159.1390  211.1310  154.0250 C   0  0  0  0  0  0  0  0  0  0  0  0
  157.0460  211.9500  154.9050 C   0  0  0  0  0  3  0  0  0  0  0  0
  157.8270  211.5500  153.8210 C   0  0  0  0  0  3  0  0  0  0  0  0
  159.9600  210.6870  152.8510 C   0  0  0  0  0  2  0  0  0  0  0  0
  161.8150  210.3500  154.6250 C   0  0  0  0  0  3  0  0  0  0  0  0
  161.0000  210.6880  155.5780 N   0  0  0  0  0  0  0  0  0  0  0  0
  161.3980  210.3770  153.2150 C   0  0  0  0  0  0  0  0  0  0  0  0
  1 15  1  0  0  0  0
  2  1  1  0  0  0  0
  3  4  1  0  0  0  0
  3  2  1  0  0  0  0
  5  6  1  0  0  0  0
  5  4  1  0  0  0  0
  6  7  1  0  0  0  0
  7  9  1  0  0  0  0
  8  9  1  0  0  0  0
  9 10  1  0  0  0  0
 10 11  1  0  0  0  0
 11 12  1  0  0  0  0
 13 12  1  0  0  0  0
 13 14  1  0  0  0  0
 15 16  1  0  0  0  0
 16 19  1  0  0  0  0
 17 26  1  0  0  0  0
 17 18  2  0  0  0  0
 19 27  2  0  0  0  0
 20 18  1  0  0  0  0
 21 17  1  0  0  0  0
 22 20  2  0  0  0  0
 23 21  2  0  0  0  0
 23 22  1  0  0  0  0
 24 27  1  0  0  0  0
 24 21  1  0  0  0  0
 25 26  2  0  0  0  0
 27 25  1  0  0  0  0
M  END
>  <MODEL>
9

>  <REMARK>
 VINA RESULT:      -5.8      1.722      4.238
  Name = 
  14 active torsions:
  status: ('A' for Active; 'I' for Inactive)
    1  A    between atoms: C_1  and  C_3
    2  A    between atoms: C_1  and  N_14
    3  A    between atoms: C_3  and  N_13
    4  A    between atoms: C_5  and  C_8
    5  A    between atoms: C_5  and  C_15
    6  A    between atoms: C_6  and  N_14
    7  A    between atoms: C_6  and  C_17
    8  A    between atoms: C_7  and  N_11
    9  A    between atoms: C_7  and  C_20
   10  A    between atoms: C_9  and  N_13
   11  A    between atoms: C_9  and  N_25
   12  A    between atoms: C_15  and  C_21
   13  A    between atoms: C_17  and  C_20
   14  A    between atoms: C_21  and  N_25
                            x       y       z     vdW  Elec       q    Type
                         _______ _______ _______ _____ _____    ______ ____

>  <TORSDO>
F 14

$$$$
