=
 OpenBabel11042422503D

 38 41  0  0  1  0  0  0  0  0999 V2000
  162.0220  210.6630  150.7060 C   0  0  0  0  0  2  0  0  0  0  0  0
  161.6630  207.6250  153.6810 N   0  0  0  0  0  0  0  0  0  0  0  0
  161.5370  206.6550  152.8280 C   0  0  0  0  0  0  0  0  0  0  0  0
  160.2510  210.9750  152.4860 C   0  0  0  0  0  3  0  0  0  0  0  0
  161.6750  208.4570  151.5680 C   0  0  0  0  0  0  0  0  0  0  0  0
  161.7790  209.2370  150.5410 N   0  0  0  0  0  0  0  0  0  0  0  0
  160.8460  211.3470  151.3400 C   0  0  0  0  0  3  0  0  0  0  0  0
  161.5100  207.0550  151.4630 N   0  0  0  0  0  2  0  0  0  0  0  0
  160.5700  209.7850  153.3710 C   0  0  1  0  0  3  0  0  0  0  0  0
  161.7660  208.9020  152.9850 C   0  0  1  0  0  3  0  0  0  0  0  0
  158.0410  212.6530  157.2210 C   0  0  0  0  0  1  0  0  0  0  0  0
  159.0600  211.8970  156.8320 C   0  0  0  0  0  0  0  0  0  0  0  0
  158.7650  210.5930  156.3090 N   0  0  0  0  0  0  0  0  0  0  0  0
  161.5010  211.1480  155.1280 N   0  0  0  0  0  0  0  0  0  0  0  0
  159.7610  209.6240  155.8690 C   0  0  2  0  0  3  0  0  0  0  0  0
  160.4380  212.4520  156.8720 C   0  0  0  0  0  0  0  0  0  0  0  0
  161.6340  211.6410  156.4800 C   0  0  0  0  0  2  0  0  0  0  0  0
  160.6280  213.6350  157.2610 O   0  0  0  0  0  0  0  0  0  0  0  0
  160.6610  210.2210  154.8080 C   0  0  0  0  0  0  0  0  0  0  0  0
  159.5690  207.2520  156.2510 O   0  0  0  0  0  1  0  0  0  0  0  0
  159.0950  208.3080  155.4710 C   0  0  0  0  0  2  0  0  0  0  0  0
  161.3230  205.2330  153.2390 C   0  0  0  0  0  2  0  0  0  0  0  0
  161.5900  204.2630  152.0980 C   0  0  0  0  0  2  0  0  0  0  0  0
  160.4110  204.2540  151.1400 C   0  0  0  0  0  2  0  0  0  0  0  0
  161.0830  203.7380  148.7530 C   0  0  0  0  0  0  0  0  0  0  0  0
  161.1120  201.4340  147.9780 C   0  0  0  0  0  0  0  0  0  0  0  0
  160.6590  203.2940  150.0230 C   0  0  0  0  0  0  0  0  0  0  0  0
  160.4470  201.9300  150.2500 C   0  0  0  0  0  3  0  0  0  0  0  0
  161.3200  202.7940  147.7410 C   0  0  0  0  0  3  0  0  0  0  0  0
  161.3640  200.4470  146.8970 C   0  0  0  0  0  1  0  0  0  0  0  0
  160.6730  201.0010  149.2310 C   0  0  0  0  0  3  0  0  0  0  0  0
  160.2270  205.8720  147.9820 O   0  0  0  0  0  1  0  0  0  0  0  0
  161.3450  205.2030  148.4940 C   0  0  2  0  0  3  0  0  0  0  0  0
  162.5030  205.4350  147.7230 O   0  0  0  0  0  0  0  0  0  0  0  0
  162.1550  206.2010  146.5980 C   0  0  0  0  0  2  0  0  0  0  0  0
  162.3710  205.3890  145.3300 C   0  0  0  0  0  2  0  0  0  0  0  0
  160.3970  204.0620  144.5650 C   0  0  0  0  0  1  0  0  0  0  0  0
  161.1260  205.3880  144.4570 C   0  0  0  0  0  2  0  0  0  0  0  0
  1  7  1  0  0  0  0
  3 22  1  0  0  0  0
  3  2  2  0  0  0  0
  4  9  1  0  0  0  0
  6  1  1  0  0  0  0
  6  5  2  0  0  0  0
  7  4  2  0  0  0  0
  8  5  1  0  0  0  0
  8  3  1  0  0  0  0
  9 19  1  1  0  0  0
 10  5  1  6  0  0  0
 10  9  1  0  0  0  0
 10  2  1  0  0  0  0
 12 16  1  0  0  0  0
 12 11  1  0  0  0  0
 13 12  2  0  0  0  0
 14 17  1  0  0  0  0
 15 21  1  6  0  0  0
 15 13  1  0  0  0  0
 16 18  2  0  0  0  0
 17 16  1  0  0  0  0
 19 14  2  0  0  0  0
 19 15  1  0  0  0  0
 21 20  1  0  0  0  0
 23 22  1  0  0  0  0
 24 23  1  0  0  0  0
 25 27  1  0  0  0  0
 26 31  2  0  0  0  0
 27 28  2  0  0  0  0
 27 24  1  0  0  0  0
 29 26  1  0  0  0  0
 29 25  2  0  0  0  0
 30 26  1  0  0  0  0
 31 28  1  0  0  0  0
 33 32  1  6  0  0  0
 33 25  1  0  0  0  0
 34 33  1  0  0  0  0
 35 34  1  0  0  0  0
 36 35  1  0  0  0  0
 38 37  1  0  0  0  0
 38 36  1  0  0  0  0
M  END
>  <MODEL>
1

>  <REMARK>
 VINA RESULT:      -7.8      0.000      0.000
  Name = 
  11 active torsions:
  status: ('A' for Active; 'I' for Inactive)
    1  A    between atoms: C_6  and  C_17
    2  A    between atoms: C_7  and  C_28
    3  A    between atoms: C_13  and  C_14
    4  A    between atoms: C_13  and  C_26
    5  A    between atoms: C_15  and  CA_22
    6  A    between atoms: C_17  and  O_18
    7  A    between atoms: O_18  and  C_26
    8  A    between atoms: C_20  and  C_30
    9  A    between atoms: C_20  and  C_32
   10  A    between atoms: C_27  and  C_38
   11  A    between atoms: C_28  and  C_30
                            x       y       z     vdW  Elec       q    Type
                         _______ _______ _______ _____ _____    ______ ____

>  <TORSDO>
F 11

$$$$
=
 OpenBabel11042422503D

 38 41  0  0  1  0  0  0  0  0999 V2000
  159.7430  206.8510  155.8370 C   0  0  0  0  0  2  0  0  0  0  0  0
  160.5510  209.3730  152.4910 N   0  0  0  0  0  0  0  0  0  0  0  0
  161.4760  208.6050  152.0010 C   0  0  0  0  0  0  0  0  0  0  0  0
  160.2780  209.2790  156.3070 C   0  0  0  0  0  3  0  0  0  0  0  0
  160.8700  207.5870  153.8570 C   0  0  0  0  0  0  0  0  0  0  0  0
  160.7490  206.7040  154.7950 N   0  0  0  0  0  0  0  0  0  0  0  0
  160.0440  208.0230  156.7240 C   0  0  0  0  0  3  0  0  0  0  0  0
  161.7820  207.4580  152.7820 N   0  0  0  0  0  2  0  0  0  0  0  0
  160.3460  209.8020  154.8850 C   0  0  1  0  0  3  0  0  0  0  0  0
  160.0450  208.8200  153.7420 C   0  0  1  0  0  3  0  0  0  0  0  0
  156.3030  212.6080  157.1700 C   0  0  0  0  0  1  0  0  0  0  0  0
  157.2130  212.4730  156.2140 C   0  0  0  0  0  0  0  0  0  0  0  0
  158.5860  212.3460  156.6100 N   0  0  0  0  0  0  0  0  0  0  0  0
  158.6060  211.1060  153.8450 N   0  0  0  0  0  0  0  0  0  0  0  0
  159.7140  212.2240  155.6940 C   0  0  2  0  0  3  0  0  0  0  0  0
  156.7760  212.3770  154.7970 C   0  0  0  0  0  0  0  0  0  0  0  0
  157.7520  212.2590  153.6680 C   0  0  0  0  0  2  0  0  0  0  0  0
  155.5480  212.4090  154.5150 O   0  0  0  0  0  0  0  0  0  0  0  0
  159.5200  211.0530  154.7550 C   0  0  0  0  0  0  0  0  0  0  0  0
  161.1650  213.3570  157.2490 O   0  0  0  0  0  1  0  0  0  0  0  0
  161.0340  212.2120  156.4610 C   0  0  0  0  0  2  0  0  0  0  0  0
  162.2470  208.9490  150.7660 C   0  0  0  0  0  2  0  0  0  0  0  0
  162.3830  207.7580  149.8280 C   0  0  0  0  0  2  0  0  0  0  0  0
  161.0070  207.2470  149.4390 C   0  0  0  0  0  2  0  0  0  0  0  0
  161.1510  204.9490  148.3830 C   0  0  0  0  0  0  0  0  0  0  0  0
  160.8820  202.9660  149.7650 C   0  0  0  0  0  0  0  0  0  0  0  0
  160.9650  205.7560  149.5250 C   0  0  0  0  0  0  0  0  0  0  0  0
  160.7220  205.1610  150.7680 C   0  0  0  0  0  3  0  0  0  0  0  0
  161.1200  203.5520  148.5190 C   0  0  0  0  0  3  0  0  0  0  0  0
  160.8510  201.4870  149.8930 C   0  0  0  0  0  1  0  0  0  0  0  0
  160.6810  203.7700  150.8880 C   0  0  0  0  0  3  0  0  0  0  0  0
  160.4170  206.4130  146.5940 O   0  0  0  0  0  1  0  0  0  0  0  0
  161.4430  205.5690  147.0370 C   0  0  2  0  0  3  0  0  0  0  0  0
  161.8160  204.6250  146.0570 O   0  0  0  0  0  0  0  0  0  0  0  0
  161.1190  204.9030  144.8690 C   0  0  0  0  0  2  0  0  0  0  0  0
  160.4520  203.6370  144.3520 C   0  0  0  0  0  2  0  0  0  0  0  0
  159.6050  201.4810  145.2890 C   0  0  0  0  0  1  0  0  0  0  0  0
  160.7780  202.4420  145.2340 C   0  0  0  0  0  2  0  0  0  0  0  0
  1  7  1  0  0  0  0
  3  2  2  0  0  0  0
  3  8  1  0  0  0  0
  4  7  2  0  0  0  0
  5  6  2  0  0  0  0
  6  1  1  0  0  0  0
  8  5  1  0  0  0  0
  9 19  1  1  0  0  0
  9  4  1  0  0  0  0
 10  2  1  6  0  0  0
 10  5  1  0  0  0  0
 10  9  1  0  0  0  0
 12 13  2  0  0  0  0
 12 11  1  0  0  0  0
 14 19  2  0  0  0  0
 15 21  1  1  0  0  0
 15 13  1  0  0  0  0
 16 12  1  0  0  0  0
 17 14  1  0  0  0  0
 17 16  1  0  0  0  0
 18 16  2  0  0  0  0
 19 15  1  0  0  0  0
 21 20  1  0  0  0  0
 22  3  1  0  0  0  0
 23 22  1  0  0  0  0
 24 27  1  0  0  0  0
 24 23  1  0  0  0  0
 25 29  2  0  0  0  0
 25 27  1  0  0  0  0
 26 30  1  0  0  0  0
 26 31  2  0  0  0  0
 27 28  2  0  0  0  0
 28 31  1  0  0  0  0
 29 26  1  0  0  0  0
 33 32  1  6  0  0  0
 33 25  1  0  0  0  0
 34 33  1  0  0  0  0
 35 34  1  0  0  0  0
 36 35  1  0  0  0  0
 36 38  1  0  0  0  0
 38 37  1  0  0  0  0
M  END
>  <MODEL>
2

>  <REMARK>
 VINA RESULT:      -7.4      1.813      3.467
  Name = 
  11 active torsions:
  status: ('A' for Active; 'I' for Inactive)
    1  A    between atoms: C_6  and  C_17
    2  A    between atoms: C_7  and  C_28
    3  A    between atoms: C_13  and  C_14
    4  A    between atoms: C_13  and  C_26
    5  A    between atoms: C_15  and  CA_22
    6  A    between atoms: C_17  and  O_18
    7  A    between atoms: O_18  and  C_26
    8  A    between atoms: C_20  and  C_30
    9  A    between atoms: C_20  and  C_32
   10  A    between atoms: C_27  and  C_38
   11  A    between atoms: C_28  and  C_30
                            x       y       z     vdW  Elec       q    Type
                         _______ _______ _______ _____ _____    ______ ____

>  <TORSDO>
F 11

$$$$
=
 OpenBabel11042422503D

 38 41  0  0  1  0  0  0  0  0999 V2000
  158.0420  214.0770  153.0350 C   0  0  0  0  0  2  0  0  0  0  0  0
  161.1190  211.1230  152.9480 N   0  0  0  0  0  0  0  0  0  0  0  0
  161.2480  211.1420  151.6570 C   0  0  0  0  0  0  0  0  0  0  0  0
  157.5800  211.8760  154.1940 C   0  0  0  0  0  3  0  0  0  0  0  0
  159.6140  212.5650  152.0480 C   0  0  0  0  0  0  0  0  0  0  0  0
  158.7070  213.4740  151.8880 N   0  0  0  0  0  0  0  0  0  0  0  0
  157.1790  213.0800  153.7520 C   0  0  0  0  0  3  0  0  0  0  0  0
  160.3410  211.9970  150.9740 N   0  0  0  0  0  2  0  0  0  0  0  0
  158.9400  211.2210  154.0420 C   0  0  1  0  0  3  0  0  0  0  0  0
  160.0560  212.0300  153.3640 C   0  0  1  0  0  3  0  0  0  0  0  0
  163.2760  210.6410  157.2520 C   0  0  0  0  0  1  0  0  0  0  0  0
  161.9840  210.4510  157.0190 C   0  0  0  0  0  0  0  0  0  0  0  0
  161.1730  211.6080  156.7640 N   0  0  0  0  0  0  0  0  0  0  0  0
  159.5370  209.3940  155.4970 N   0  0  0  0  0  0  0  0  0  0  0  0
  159.7360  211.5860  156.5230 C   0  0  2  0  0  3  0  0  0  0  0  0
  161.4490  209.0670  156.9500 C   0  0  0  0  0  0  0  0  0  0  0  0
  159.9950  208.7850  156.7250 C   0  0  0  0  0  2  0  0  0  0  0  0
  162.2240  208.0850  157.0980 O   0  0  0  0  0  0  0  0  0  0  0  0
  159.3980  210.6710  155.3660 C   0  0  0  0  0  0  0  0  0  0  0  0
  160.2200  213.9440  156.4240 O   0  0  0  0  0  1  0  0  0  0  0  0
  159.1880  213.0050  156.3920 C   0  0  0  0  0  2  0  0  0  0  0  0
  162.2000  210.2520  150.9220 C   0  0  0  0  0  2  0  0  0  0  0  0
  162.2470  208.8520  151.5160 C   0  0  0  0  0  2  0  0  0  0  0  0
  160.8770  208.2050  151.4230 C   0  0  0  0  0  2  0  0  0  0  0  0
  161.0420  205.9990  150.1880 C   0  0  0  0  0  0  0  0  0  0  0  0
  161.2620  203.9270  151.4400 C   0  0  0  0  0  0  0  0  0  0  0  0
  161.0070  206.7170  151.4020 C   0  0  0  0  0  0  0  0  0  0  0  0
  161.0810  206.0310  152.6190 C   0  0  0  0  0  3  0  0  0  0  0  0
  161.1840  204.6030  150.2200 C   0  0  0  0  0  3  0  0  0  0  0  0
  161.4110  202.4490  151.4590 C   0  0  0  0  0  1  0  0  0  0  0  0
  161.2090  204.6400  152.6390 C   0  0  0  0  0  3  0  0  0  0  0  0
  159.9310  206.2980  148.0520 O   0  0  0  0  0  1  0  0  0  0  0  0
  160.9920  206.7210  148.8620 C   0  0  2  0  0  3  0  0  0  0  0  0
  162.2240  206.7090  148.1730 O   0  0  0  0  0  0  0  0  0  0  0  0
  162.0100  206.2380  146.8670 C   0  0  0  0  0  2  0  0  0  0  0  0
  162.6080  204.8470  146.7140 C   0  0  0  0  0  2  0  0  0  0  0  0
  161.1380  204.9590  144.6960 C   0  0  0  0  0  1  0  0  0  0  0  0
  161.8650  204.0410  145.6600 C   0  0  0  0  0  2  0  0  0  0  0  0
  1  7  1  0  0  0  0
  2 10  1  0  0  0  0
  3  2  2  0  0  0  0
  6  5  2  0  0  0  0
  6  1  1  0  0  0  0
  7  4  2  0  0  0  0
  8  3  1  0  0  0  0
  8  5  1  0  0  0  0
  9  4  1  0  0  0  0
  9 19  1  1  0  0  0
 10  5  1  6  0  0  0
 10  9  1  0  0  0  0
 12 11  1  0  0  0  0
 13 12  2  0  0  0  0
 14 17  1  0  0  0  0
 15 21  1  6  0  0  0
 15 13  1  0  0  0  0
 16 12  1  0  0  0  0
 16 18  2  0  0  0  0
 17 16  1  0  0  0  0
 19 14  2  0  0  0  0
 19 15  1  0  0  0  0
 21 20  1  0  0  0  0
 22 23  1  0  0  0  0
 22  3  1  0  0  0  0
 24 23  1  0  0  0  0
 25 29  2  0  0  0  0
 25 27  1  0  0  0  0
 26 30  1  0  0  0  0
 26 31  2  0  0  0  0
 27 24  1  0  0  0  0
 27 28  2  0  0  0  0
 28 31  1  0  0  0  0
 29 26  1  0  0  0  0
 33 32  1  6  0  0  0
 33 25  1  0  0  0  0
 34 33  1  0  0  0  0
 35 34  1  0  0  0  0
 36 35  1  0  0  0  0
 37 38  1  0  0  0  0
 38 36  1  0  0  0  0
M  END
>  <MODEL>
3

>  <REMARK>
 VINA RESULT:      -7.3      1.908      3.926
  Name = 
  11 active torsions:
  status: ('A' for Active; 'I' for Inactive)
    1  A    between atoms: C_6  and  C_17
    2  A    between atoms: C_7  and  C_28
    3  A    between atoms: C_13  and  C_14
    4  A    between atoms: C_13  and  C_26
    5  A    between atoms: C_15  and  CA_22
    6  A    between atoms: C_17  and  O_18
    7  A    between atoms: O_18  and  C_26
    8  A    between atoms: C_20  and  C_30
    9  A    between atoms: C_20  and  C_32
   10  A    between atoms: C_27  and  C_38
   11  A    between atoms: C_28  and  C_30
                            x       y       z     vdW  Elec       q    Type
                         _______ _______ _______ _____ _____    ______ ____

>  <TORSDO>
F 11

$$$$
=
 OpenBabel11042422503D

 38 41  0  0  1  0  0  0  0  0999 V2000
  158.7630  210.9540  156.2920 C   0  0  0  0  0  2  0  0  0  0  0  0
  160.1260  210.3440  152.2950 N   0  0  0  0  0  0  0  0  0  0  0  0
  160.7990  209.2710  152.5750 C   0  0  0  0  0  0  0  0  0  0  0  0
  159.9390  212.8830  155.1540 C   0  0  0  0  0  3  0  0  0  0  0  0
  159.9930  209.9150  154.5210 C   0  0  0  0  0  0  0  0  0  0  0  0
  159.6660  209.9360  155.7730 N   0  0  0  0  0  0  0  0  0  0  0  0
  159.3890  212.3170  156.2410 C   0  0  0  0  0  3  0  0  0  0  0  0
  160.8080  208.9080  153.9500 N   0  0  0  0  0  2  0  0  0  0  0  0
  160.1070  212.2920  153.7660 C   0  0  1  0  0  3  0  0  0  0  0  0
  159.5250  210.8950  153.5050 C   0  0  1  0  0  3  0  0  0  0  0  0
  156.7360  212.9150  149.5590 C   0  0  0  0  0  2  0  0  0  0  0  0
  157.6620  213.4040  150.3740 C   0  0  0  0  0  0  0  0  0  0  0  0
  157.3870  213.3950  151.7820 N   0  0  0  0  0  2  0  0  0  0  0  0
  160.4140  213.5410  151.7270 N   0  0  0  0  0  0  0  0  0  0  0  0
  158.2750  213.9210  152.8120 C   0  0  2  0  0  3  0  0  0  0  0  0
  158.9610  213.8600  149.8140 C   0  0  0  0  0  0  0  0  0  0  0  0
  160.0340  214.4530  150.6740 C   0  0  0  0  0  2  0  0  0  0  0  0
  159.1800  213.7650  148.5770 O   0  0  0  0  0  0  0  0  0  0  0  0
  159.6410  213.2760  152.7270 C   0  0  0  0  0  0  0  0  0  0  0  0
  156.4940  213.0090  154.1550 O   0  0  0  0  0  1  0  0  0  0  0  0
  157.6170  213.8380  154.1880 C   0  0  0  0  0  2  0  0  0  0  0  0
  161.6020  208.5250  151.5560 C   0  0  0  0  0  2  0  0  0  0  0  0
  161.1230  207.0910  151.3920 C   0  0  0  0  0  2  0  0  0  0  0  0
  160.9980  206.7530  149.9160 C   0  0  0  0  0  2  0  0  0  0  0  0
  161.2080  204.6960  148.4530 C   0  0  0  0  0  0  0  0  0  0  0  0
  160.9700  202.4850  149.4370 C   0  0  0  0  0  0  0  0  0  0  0  0
  160.9900  205.2720  149.7220 C   0  0  0  0  0  0  0  0  0  0  0  0
  160.7460  204.4510  150.8280 C   0  0  0  0  0  3  0  0  0  0  0  0
  161.2090  203.2980  148.3260 C   0  0  0  0  0  3  0  0  0  0  0  0
  160.9720  201.0070  149.2870 C   0  0  0  0  0  1  0  0  0  0  0  0
  160.7370  203.0610  150.6870 C   0  0  0  0  0  3  0  0  0  0  0  0
  162.3000  206.6700  147.5620 O   0  0  0  0  0  1  0  0  0  0  0  0
  161.5020  205.5620  147.2510 C   0  0  2  0  0  3  0  0  0  0  0  0
  160.3450  205.9260  146.5300 O   0  0  0  0  0  0  0  0  0  0  0  0
  160.6700  206.0210  145.1660 C   0  0  0  0  0  2  0  0  0  0  0  0
  161.1640  204.6760  144.6560 C   0  0  0  0  0  2  0  0  0  0  0  0
  160.3490  202.3720  145.1760 C   0  0  0  0  0  1  0  0  0  0  0  0
  160.0170  203.6900  144.5020 C   0  0  0  0  0  2  0  0  0  0  0  0
  2  3  2  0  0  0  0
  3  8  1  0  0  0  0
  4  7  2  0  0  0  0
  5  6  2  0  0  0  0
  6  1  1  0  0  0  0
  7  1  1  0  0  0  0
  8  5  1  0  0  0  0
  9 19  1  6  0  0  0
  9  4  1  0  0  0  0
 10  2  1  6  0  0  0
 10  9  1  0  0  0  0
 10  5  1  0  0  0  0
 11 12  2  0  0  0  0
 12 13  1  0  0  0  0
 13 15  1  0  0  0  0
 14 19  2  0  0  0  0
 15 21  1  1  0  0  0
 16 12  1  0  0  0  0
 16 17  1  0  0  0  0
 17 14  1  0  0  0  0
 18 16  2  0  0  0  0
 19 15  1  0  0  0  0
 20 21  1  0  0  0  0
 22  3  1  0  0  0  0
 23 22  1  0  0  0  0
 24 23  1  0  0  0  0
 25 27  1  0  0  0  0
 26 31  2  0  0  0  0
 27 24  1  0  0  0  0
 27 28  2  0  0  0  0
 29 25  2  0  0  0  0
 29 26  1  0  0  0  0
 30 26  1  0  0  0  0
 31 28  1  0  0  0  0
 33 32  1  1  0  0  0
 33 25  1  0  0  0  0
 34 33  1  0  0  0  0
 35 34  1  0  0  0  0
 36 35  1  0  0  0  0
 38 36  1  0  0  0  0
 38 37  1  0  0  0  0
M  END
>  <MODEL>
4

>  <REMARK>
 VINA RESULT:      -6.7      2.683      4.335
  Name = 
  11 active torsions:
  status: ('A' for Active; 'I' for Inactive)
    1  A    between atoms: C_6  and  C_17
    2  A    between atoms: C_7  and  C_28
    3  A    between atoms: C_13  and  C_14
    4  A    between atoms: C_13  and  C_26
    5  A    between atoms: C_15  and  CA_22
    6  A    between atoms: C_17  and  O_18
    7  A    between atoms: O_18  and  C_26
    8  A    between atoms: C_20  and  C_30
    9  A    between atoms: C_20  and  C_32
   10  A    between atoms: C_27  and  C_38
   11  A    between atoms: C_28  and  C_30
                            x       y       z     vdW  Elec       q    Type
                         _______ _______ _______ _____ _____    ______ ____

>  <TORSDO>
F 11

$$$$
=
 OpenBabel11042422503D

 38 41  0  0  1  0  0  0  0  0999 V2000
  159.8420  208.1120  157.0290 C   0  0  0  0  0  2  0  0  0  0  0  0
  160.6130  208.5800  152.8590 N   0  0  0  0  0  0  0  0  0  0  0  0
  161.1740  207.4170  152.7240 C   0  0  0  0  0  0  0  0  0  0  0  0
  161.1040  210.1800  156.3010 C   0  0  0  0  0  3  0  0  0  0  0  0
  160.7020  207.5330  154.8720 C   0  0  0  0  0  0  0  0  0  0  0  0
  160.5370  207.2170  156.1160 N   0  0  0  0  0  0  0  0  0  0  0  0
  160.6250  209.3710  157.2610 C   0  0  0  0  0  3  0  0  0  0  0  0
  161.3060  206.6700  153.9260 N   0  0  0  0  0  2  0  0  0  0  0  0
  161.0230  210.0080  154.7960 C   0  0  1  0  0  3  0  0  0  0  0  0
  160.2400  208.8030  154.2510 C   0  0  1  0  0  3  0  0  0  0  0  0
  156.6210  212.9640  153.6450 C   0  0  0  0  0  2  0  0  0  0  0  0
  157.9360  212.7940  153.6030 C   0  0  0  0  0  0  0  0  0  0  0  0
  158.6290  212.6170  154.8470 N   0  0  0  0  0  2  0  0  0  0  0  0
  160.5550  211.3740  152.8650 N   0  0  0  0  0  0  0  0  0  0  0  0
  160.0700  212.4520  154.9860 C   0  0  2  0  0  3  0  0  0  0  0  0
  158.6200  212.7130  152.2860 C   0  0  0  0  0  0  0  0  0  0  0  0
  160.1050  212.5570  152.1680 C   0  0  0  0  0  2  0  0  0  0  0  0
  157.9480  212.7900  151.2230 O   0  0  0  0  0  0  0  0  0  0  0  0
  160.5620  211.2880  154.1530 C   0  0  0  0  0  0  0  0  0  0  0  0
  160.5670  213.6750  157.0020 O   0  0  0  0  0  1  0  0  0  0  0  0
  160.4680  212.3930  156.4590 C   0  0  0  0  0  2  0  0  0  0  0  0
  161.7440  206.9350  151.4270 C   0  0  0  0  0  2  0  0  0  0  0  0
  162.0940  205.4550  151.4740 C   0  0  0  0  0  2  0  0  0  0  0  0
  160.8260  204.6210  151.4160 C   0  0  0  0  0  2  0  0  0  0  0  0
  161.1240  203.9890  148.9820 C   0  0  0  0  0  0  0  0  0  0  0  0
  161.1020  201.6460  148.3310 C   0  0  0  0  0  0  0  0  0  0  0  0
  160.9230  203.6070  150.3250 C   0  0  0  0  0  0  0  0  0  0  0  0
  160.7940  202.2520  150.6520 C   0  0  0  0  0  3  0  0  0  0  0  0
  161.2260  202.9960  147.9940 C   0  0  0  0  0  3  0  0  0  0  0  0
  161.2100  200.6070  147.2750 C   0  0  0  0  0  1  0  0  0  0  0  0
  160.8840  201.2740  149.6590 C   0  0  0  0  0  3  0  0  0  0  0  0
  160.1080  206.0270  148.1460 O   0  0  0  0  0  1  0  0  0  0  0  0
  161.2940  205.4430  148.6090 C   0  0  2  0  0  3  0  0  0  0  0  0
  162.3770  205.6720  147.7340 O   0  0  0  0  0  0  0  0  0  0  0  0
  161.9140  206.3810  146.6130 C   0  0  0  0  0  2  0  0  0  0  0  0
  162.3190  205.6570  145.3380 C   0  0  0  0  0  2  0  0  0  0  0  0
  160.7080  203.8150  144.8330 C   0  0  0  0  0  1  0  0  0  0  0  0
  161.1010  205.2480  144.5250 C   0  0  0  0  0  2  0  0  0  0  0  0
  1  7  1  0  0  0  0
  3  2  2  0  0  0  0
  3  8  1  0  0  0  0
  4  7  2  0  0  0  0
  5  6  2  0  0  0  0
  6  1  1  0  0  0  0
  8  5  1  0  0  0  0
  9 19  1  6  0  0  0
  9  4  1  0  0  0  0
 10  2  1  6  0  0  0
 10  9  1  0  0  0  0
 10  5  1  0  0  0  0
 12 11  2  0  0  0  0
 12 13  1  0  0  0  0
 13 15  1  0  0  0  0
 14 19  2  0  0  0  0
 15 21  1  1  0  0  0
 16 12  1  0  0  0  0
 17 16  1  0  0  0  0
 17 14  1  0  0  0  0
 18 16  2  0  0  0  0
 19 15  1  0  0  0  0
 21 20  1  0  0  0  0
 22 23  1  0  0  0  0
 22  3  1  0  0  0  0
 24 23  1  0  0  0  0
 25 27  1  0  0  0  0
 26 31  2  0  0  0  0
 27 28  2  0  0  0  0
 27 24  1  0  0  0  0
 29 26  1  0  0  0  0
 29 25  2  0  0  0  0
 30 26  1  0  0  0  0
 31 28  1  0  0  0  0
 33 32  1  6  0  0  0
 33 25  1  0  0  0  0
 34 33  1  0  0  0  0
 35 34  1  0  0  0  0
 36 35  1  0  0  0  0
 38 37  1  0  0  0  0
 38 36  1  0  0  0  0
M  END
>  <MODEL>
5

>  <REMARK>
 VINA RESULT:      -6.6      1.832      3.185
  Name = 
  11 active torsions:
  status: ('A' for Active; 'I' for Inactive)
    1  A    between atoms: C_6  and  C_17
    2  A    between atoms: C_7  and  C_28
    3  A    between atoms: C_13  and  C_14
    4  A    between atoms: C_13  and  C_26
    5  A    between atoms: C_15  and  CA_22
    6  A    between atoms: C_17  and  O_18
    7  A    between atoms: O_18  and  C_26
    8  A    between atoms: C_20  and  C_30
    9  A    between atoms: C_20  and  C_32
   10  A    between atoms: C_27  and  C_38
   11  A    between atoms: C_28  and  C_30
                            x       y       z     vdW  Elec       q    Type
                         _______ _______ _______ _____ _____    ______ ____

>  <TORSDO>
F 11

$$$$
=
 OpenBabel11042422503D

 38 41  0  0  1  0  0  0  0  0999 V2000
  158.2140  214.3010  153.2270 C   0  0  0  0  0  2  0  0  0  0  0  0
  161.0660  211.1320  153.0590 N   0  0  0  0  0  0  0  0  0  0  0  0
  161.1560  211.1390  151.7640 C   0  0  0  0  0  0  0  0  0  0  0  0
  157.6290  212.1420  154.4080 C   0  0  0  0  0  3  0  0  0  0  0  0
  159.6420  212.6770  152.1990 C   0  0  0  0  0  0  0  0  0  0  0  0
  158.7990  213.6500  152.0630 N   0  0  0  0  0  0  0  0  0  0  0  0
  157.3040  213.3710  153.9730 C   0  0  0  0  0  3  0  0  0  0  0  0
  160.2930  212.0570  151.1060 N   0  0  0  0  0  2  0  0  0  0  0  0
  158.9330  211.3890  154.2170 C   0  0  1  0  0  3  0  0  0  0  0  0
  160.0840  212.1140  153.5030 C   0  0  1  0  0  3  0  0  0  0  0  0
  163.3310  210.3300  157.2150 C   0  0  0  0  0  1  0  0  0  0  0  0
  162.0140  210.2990  157.0530 C   0  0  0  0  0  0  0  0  0  0  0  0
  161.3400  211.5430  156.8120 N   0  0  0  0  0  0  0  0  0  0  0  0
  159.3780  209.5280  155.6830 N   0  0  0  0  0  0  0  0  0  0  0  0
  159.9000  211.6960  156.6450 C   0  0  2  0  0  3  0  0  0  0  0  0
  161.3100  208.9910  157.0440 C   0  0  0  0  0  0  0  0  0  0  0  0
  159.8230  208.8890  156.9000 C   0  0  0  0  0  2  0  0  0  0  0  0
  161.9650  207.9230  157.1760 O   0  0  0  0  0  0  0  0  0  0  0  0
  159.3900  210.8100  155.5290 C   0  0  0  0  0  0  0  0  0  0  0  0
  160.5050  213.9890  157.0700 O   0  0  0  0  0  1  0  0  0  0  0  0
  159.5250  213.1700  156.5080 C   0  0  0  0  0  2  0  0  0  0  0  0
  162.0190  210.1810  151.0040 C   0  0  0  0  0  2  0  0  0  0  0  0
  161.2000  209.0990  150.3170 C   0  0  0  0  0  2  0  0  0  0  0  0
  161.7550  207.7290  150.6680 C   0  0  0  0  0  2  0  0  0  0  0  0
  161.3140  205.4830  149.5830 C   0  0  0  0  0  0  0  0  0  0  0  0
  161.6500  205.2100  147.1910 C   0  0  0  0  0  0  0  0  0  0  0  0
  161.7130  206.8320  149.4750 C   0  0  0  0  0  0  0  0  0  0  0  0
  162.0930  207.3480  148.2310 C   0  0  0  0  0  3  0  0  0  0  0  0
  161.2740  204.6850  148.4300 C   0  0  0  0  0  3  0  0  0  0  0  0
  161.6040  204.3530  145.9790 C   0  0  0  0  0  1  0  0  0  0  0  0
  162.0610  206.5410  147.0920 C   0  0  0  0  0  3  0  0  0  0  0  0
  161.8570  205.0170  151.9020 O   0  0  0  0  0  1  0  0  0  0  0  0
  160.8730  204.9120  150.9110 C   0  0  2  0  0  3  0  0  0  0  0  0
  160.3570  203.6020  150.8110 O   0  0  0  0  0  0  0  0  0  0  0  0
  161.2590  202.7110  151.4160 C   0  0  0  0  0  2  0  0  0  0  0  0
  161.2210  201.3700  150.6990 C   0  0  0  0  0  2  0  0  0  0  0  0
  161.0790  201.4280  148.2050 C   0  0  0  0  0  1  0  0  0  0  0  0
  160.2880  201.4120  149.4990 C   0  0  0  0  0  2  0  0  0  0  0  0
  1  7  1  0  0  0  0
  2 10  1  0  0  0  0
  3  2  2  0  0  0  0
  6  5  2  0  0  0  0
  6  1  1  0  0  0  0
  7  4  2  0  0  0  0
  8  3  1  0  0  0  0
  8  5  1  0  0  0  0
  9  4  1  0  0  0  0
  9 19  1  1  0  0  0
 10  5  1  6  0  0  0
 10  9  1  0  0  0  0
 12 11  1  0  0  0  0
 13 12  2  0  0  0  0
 14 17  1  0  0  0  0
 15 21  1  6  0  0  0
 15 13  1  0  0  0  0
 16 12  1  0  0  0  0
 16 18  2  0  0  0  0
 17 16  1  0  0  0  0
 19 14  2  0  0  0  0
 19 15  1  0  0  0  0
 21 20  1  0  0  0  0
 22  3  1  0  0  0  0
 23 24  1  0  0  0  0
 23 22  1  0  0  0  0
 25 33  1  0  0  0  0
 26 29  1  0  0  0  0
 27 25  1  0  0  0  0
 27 24  1  0  0  0  0
 28 27  2  0  0  0  0
 29 25  2  0  0  0  0
 30 26  1  0  0  0  0
 31 26  2  0  0  0  0
 31 28  1  0  0  0  0
 33 32  1  1  0  0  0
 34 33  1  0  0  0  0
 34 35  1  0  0  0  0
 36 35  1  0  0  0  0
 37 38  1  0  0  0  0
 38 36  1  0  0  0  0
M  END
>  <MODEL>
6

>  <REMARK>
 VINA RESULT:      -6.5      2.094      4.545
  Name = 
  11 active torsions:
  status: ('A' for Active; 'I' for Inactive)
    1  A    between atoms: C_6  and  C_17
    2  A    between atoms: C_7  and  C_28
    3  A    between atoms: C_13  and  C_14
    4  A    between atoms: C_13  and  C_26
    5  A    between atoms: C_15  and  CA_22
    6  A    between atoms: C_17  and  O_18
    7  A    between atoms: O_18  and  C_26
    8  A    between atoms: C_20  and  C_30
    9  A    between atoms: C_20  and  C_32
   10  A    between atoms: C_27  and  C_38
   11  A    between atoms: C_28  and  C_30
                            x       y       z     vdW  Elec       q    Type
                         _______ _______ _______ _____ _____    ______ ____

>  <TORSDO>
F 11

$$$$
=
 OpenBabel11042422503D

 38 41  0  0  1  0  0  0  0  0999 V2000
  162.4170  206.3010  152.0670 C   0  0  0  0  0  2  0  0  0  0  0  0
  161.9440  208.5080  148.4470 N   0  0  0  0  0  0  0  0  0  0  0  0
  161.9560  209.6690  149.0280 C   0  0  0  0  0  0  0  0  0  0  0  0
  160.4680  205.6910  150.5750 C   0  0  0  0  0  3  0  0  0  0  0  0
  162.1130  208.2380  150.6950 C   0  0  0  0  0  0  0  0  0  0  0  0
  162.2720  207.7370  151.8780 N   0  0  0  0  0  0  0  0  0  0  0  0
  161.1490  205.5740  151.7270 C   0  0  0  0  0  3  0  0  0  0  0  0
  162.0380  209.6300  150.4470 N   0  0  0  0  0  2  0  0  0  0  0  0
  160.7660  206.5900  149.3900 C   0  0  1  0  0  3  0  0  0  0  0  0
  162.0420  207.4440  149.4390 C   0  0  1  0  0  3  0  0  0  0  0  0
  163.7830  204.3280  145.4880 C   0  0  0  0  0  2  0  0  0  0  0  0
  162.5950  204.5990  146.0120 C   0  0  0  0  0  0  0  0  0  0  0  0
  162.3380  204.1560  147.3530 N   0  0  0  0  0  2  0  0  0  0  0  0
  160.3250  206.3990  147.0280 N   0  0  0  0  0  0  0  0  0  0  0  0
  161.0800  204.3380  148.0680 C   0  0  2  0  0  3  0  0  0  0  0  0
  161.6210  205.4090  145.2350 C   0  0  0  0  0  0  0  0  0  0  0  0
  160.2510  205.7210  145.7540 C   0  0  0  0  0  2  0  0  0  0  0  0
  161.9340  205.8450  144.0950 O   0  0  0  0  0  0  0  0  0  0  0  0
  160.6920  205.8000  148.1120 C   0  0  0  0  0  0  0  0  0  0  0  0
  160.4530  202.4310  149.4010 O   0  0  0  0  0  1  0  0  0  0  0  0
  161.1290  203.6520  149.4310 C   0  0  0  0  0  2  0  0  0  0  0  0
  161.7840  210.9540  148.2820 C   0  0  0  0  0  2  0  0  0  0  0  0
  161.7600  212.1560  149.2140 C   0  0  0  0  0  2  0  0  0  0  0  0
  161.2040  213.3660  148.4830 C   0  0  0  0  0  2  0  0  0  0  0  0
  158.7870  213.6890  147.7990 C   0  0  0  0  0  0  0  0  0  0  0  0
  157.0650  213.8870  149.5040 C   0  0  0  0  0  0  0  0  0  0  0  0
  159.7590  213.5510  148.8120 C   0  0  0  0  0  0  0  0  0  0  0  0
  159.3760  213.6020  150.1560 C   0  0  0  0  0  3  0  0  0  0  0  0
  157.4390  213.8430  148.1590 C   0  0  0  0  0  3  0  0  0  0  0  0
  155.6350  214.0520  149.8700 C   0  0  0  0  0  1  0  0  0  0  0  0
  158.0340  213.7690  150.5030 C   0  0  0  0  0  3  0  0  0  0  0  0
  158.2170  214.1840  145.4930 O   0  0  0  0  0  1  0  0  0  0  0  0
  159.1730  213.6090  146.3410 C   0  0  2  0  0  3  0  0  0  0  0  0
  159.5340  212.3090  145.9300 O   0  0  0  0  0  0  0  0  0  0  0  0
  159.8820  212.3420  144.5690 C   0  0  0  0  0  2  0  0  0  0  0  0
  161.2820  212.9140  144.4050 C   0  0  0  0  0  2  0  0  0  0  0  0
  162.3110  212.2070  142.2410 C   0  0  0  0  0  1  0  0  0  0  0  0
  161.5520  213.3060  142.9610 C   0  0  0  0  0  2  0  0  0  0  0  0
  2  3  2  0  0  0  0
  3  8  1  0  0  0  0
  4  7  2  0  0  0  0
  5  6  2  0  0  0  0
  6  1  1  0  0  0  0
  7  1  1  0  0  0  0
  8  5  1  0  0  0  0
  9 19  1  6  0  0  0
  9 10  1  0  0  0  0
  9  4  1  0  0  0  0
 10  2  1  6  0  0  0
 10  5  1  0  0  0  0
 11 12  2  0  0  0  0
 12 13  1  0  0  0  0
 13 15  1  0  0  0  0
 14 19  2  0  0  0  0
 15 19  1  0  0  0  0
 15 21  1  1  0  0  0
 16 17  1  0  0  0  0
 16 12  1  0  0  0  0
 17 14  1  0  0  0  0
 18 16  2  0  0  0  0
 20 21  1  0  0  0  0
 22  3  1  0  0  0  0
 22 23  1  0  0  0  0
 24 27  1  0  0  0  0
 24 23  1  0  0  0  0
 25 29  2  0  0  0  0
 25 27  1  0  0  0  0
 26 30  1  0  0  0  0
 26 31  2  0  0  0  0
 27 28  2  0  0  0  0
 28 31  1  0  0  0  0
 29 26  1  0  0  0  0
 33 32  1  6  0  0  0
 33 25  1  0  0  0  0
 34 33  1  0  0  0  0
 35 34  1  0  0  0  0
 36 35  1  0  0  0  0
 37 38  1  0  0  0  0
 38 36  1  0  0  0  0
M  END
>  <MODEL>
7

>  <REMARK>
 VINA RESULT:      -6.3      4.169      9.521
  Name = 
  11 active torsions:
  status: ('A' for Active; 'I' for Inactive)
    1  A    between atoms: C_6  and  C_17
    2  A    between atoms: C_7  and  C_28
    3  A    between atoms: C_13  and  C_14
    4  A    between atoms: C_13  and  C_26
    5  A    between atoms: C_15  and  CA_22
    6  A    between atoms: C_17  and  O_18
    7  A    between atoms: O_18  and  C_26
    8  A    between atoms: C_20  and  C_30
    9  A    between atoms: C_20  and  C_32
   10  A    between atoms: C_27  and  C_38
   11  A    between atoms: C_28  and  C_30
                            x       y       z     vdW  Elec       q    Type
                         _______ _______ _______ _____ _____    ______ ____

>  <TORSDO>
F 11

$$$$
=
 OpenBabel11042422503D

 38 41  0  0  1  0  0  0  0  0999 V2000
  160.1610  206.5850  155.4850 C   0  0  0  0  0  2  0  0  0  0  0  0
  161.1030  209.2890  152.3220 N   0  0  0  0  0  0  0  0  0  0  0  0
  161.8170  208.4310  151.6580 C   0  0  0  0  0  0  0  0  0  0  0  0
  161.1830  208.8110  156.1180 C   0  0  0  0  0  3  0  0  0  0  0  0
  161.2110  207.3310  153.4680 C   0  0  0  0  0  0  0  0  0  0  0  0
  161.0180  206.3820  154.3250 N   0  0  0  0  0  0  0  0  0  0  0  0
  160.7590  207.5770  156.4390 C   0  0  0  0  0  3  0  0  0  0  0  0
  161.9760  207.1660  152.2880 N   0  0  0  0  0  2  0  0  0  0  0  0
  161.2120  209.4720  154.7530 C   0  0  1  0  0  3  0  0  0  0  0  0
  160.6250  208.6950  153.5650 C   0  0  1  0  0  3  0  0  0  0  0  0
  156.8680  212.2680  156.4140 C   0  0  0  0  0  2  0  0  0  0  0  0
  158.0680  212.2350  155.8500 C   0  0  0  0  0  0  0  0  0  0  0  0
  159.1500  211.6740  156.6090 N   0  0  0  0  0  2  0  0  0  0  0  0
  160.1620  211.4040  153.7650 N   0  0  0  0  0  0  0  0  0  0  0  0
  160.5330  211.5910  156.1580 C   0  0  2  0  0  3  0  0  0  0  0  0
  158.2290  212.6960  154.4460 C   0  0  0  0  0  0  0  0  0  0  0  0
  159.5610  212.7180  153.7630 C   0  0  0  0  0  2  0  0  0  0  0  0
  157.2260  213.1000  153.7990 O   0  0  0  0  0  0  0  0  0  0  0  0
  160.6260  210.8550  154.8380 C   0  0  0  0  0  0  0  0  0  0  0  0
  162.7100  211.5820  157.1920 O   0  0  0  0  0  1  0  0  0  0  0  0
  161.4290  211.0310  157.2610 C   0  0  0  0  0  2  0  0  0  0  0  0
  162.5180  208.7720  150.3810 C   0  0  0  0  0  2  0  0  0  0  0  0
  161.6160  208.5910  149.1700 C   0  0  0  0  0  2  0  0  0  0  0  0
  160.7260  207.3760  149.3650 C   0  0  0  0  0  2  0  0  0  0  0  0
  161.1460  204.9860  148.6370 C   0  0  0  0  0  0  0  0  0  0  0  0
  161.5300  204.4890  146.2880 C   0  0  0  0  0  0  0  0  0  0  0  0
  161.0080  206.3530  148.3140 C   0  0  0  0  0  0  0  0  0  0  0  0
  161.1510  206.7730  146.9880 C   0  0  0  0  0  3  0  0  0  0  0  0
  161.3930  204.0610  147.6110 C   0  0  0  0  0  3  0  0  0  0  0  0
  161.7930  203.4990  145.2130 C   0  0  0  0  0  1  0  0  0  0  0  0
  161.4110  205.8450  145.9770 C   0  0  0  0  0  3  0  0  0  0  0  0
  162.1790  204.3960  150.7510 O   0  0  0  0  0  1  0  0  0  0  0  0
  160.9670  204.5060  150.0580 C   0  0  2  0  0  3  0  0  0  0  0  0
  160.1890  203.3330  150.1570 O   0  0  0  0  0  0  0  0  0  0  0  0
  160.8160  202.4460  151.0480 C   0  0  0  0  0  2  0  0  0  0  0  0
  161.2860  201.2070  150.3000 C   0  0  0  0  0  2  0  0  0  0  0  0
  161.5230  200.1810  148.0350 C   0  0  0  0  0  1  0  0  0  0  0  0
  160.7660  201.1940  148.8720 C   0  0  0  0  0  2  0  0  0  0  0  0
  1  7  1  0  0  0  0
  3  8  1  0  0  0  0
  3  2  2  0  0  0  0
  4  7  2  0  0  0  0
  5 10  1  0  0  0  0
  5  6  2  0  0  0  0
  6  1  1  0  0  0  0
  8  5  1  0  0  0  0
  9 19  1  1  0  0  0
  9  4  1  0  0  0  0
 10  2  1  6  0  0  0
 10  9  1  0  0  0  0
 12 11  2  0  0  0  0
 12 13  1  0  0  0  0
 14 19  2  0  0  0  0
 15 13  1  0  0  0  0
 15 21  1  1  0  0  0
 16 12  1  0  0  0  0
 17 14  1  0  0  0  0
 17 16  1  0  0  0  0
 18 16  2  0  0  0  0
 19 15  1  0  0  0  0
 20 21  1  0  0  0  0
 22  3  1  0  0  0  0
 23 24  1  0  0  0  0
 23 22  1  0  0  0  0
 25 33  1  0  0  0  0
 26 29  1  0  0  0  0
 27 25  1  0  0  0  0
 27 24  1  0  0  0  0
 28 27  2  0  0  0  0
 29 25  2  0  0  0  0
 30 26  1  0  0  0  0
 31 26  2  0  0  0  0
 31 28  1  0  0  0  0
 33 34  1  0  0  0  0
 33 32  1  6  0  0  0
 34 35  1  0  0  0  0
 36 35  1  0  0  0  0
 37 38  1  0  0  0  0
 38 36  1  0  0  0  0
M  END
>  <MODEL>
8

>  <REMARK>
 VINA RESULT:      -6.2      1.881      3.977
  Name = 
  11 active torsions:
  status: ('A' for Active; 'I' for Inactive)
    1  A    between atoms: C_6  and  C_17
    2  A    between atoms: C_7  and  C_28
    3  A    between atoms: C_13  and  C_14
    4  A    between atoms: C_13  and  C_26
    5  A    between atoms: C_15  and  CA_22
    6  A    between atoms: C_17  and  O_18
    7  A    between atoms: O_18  and  C_26
    8  A    between atoms: C_20  and  C_30
    9  A    between atoms: C_20  and  C_32
   10  A    between atoms: C_27  and  C_38
   11  A    between atoms: C_28  and  C_30
                            x       y       z     vdW  Elec       q    Type
                         _______ _______ _______ _____ _____    ______ ____

>  <TORSDO>
F 11

$$$$
=
 OpenBabel11042422503D

 38 41  0  0  1  0  0  0  0  0999 V2000
  161.2400  203.4950  152.3280 C   0  0  0  0  0  2  0  0  0  0  0  0
  162.3020  207.4270  151.0580 N   0  0  0  0  0  0  0  0  0  0  0  0
  161.8540  208.0090  152.1280 C   0  0  0  0  0  0  0  0  0  0  0  0
  160.3990  204.2580  150.0680 C   0  0  0  0  0  3  0  0  0  0  0  0
  161.3740  205.8830  152.4390 C   0  0  0  0  0  0  0  0  0  0  0  0
  160.9980  204.7720  152.9860 N   0  0  0  0  0  0  0  0  0  0  0  0
  160.4290  203.3660  151.0720 C   0  0  0  0  0  3  0  0  0  0  0  0
  161.2280  207.1430  153.0660 N   0  0  0  0  0  2  0  0  0  0  0  0
  161.1090  205.5960  149.9730 C   0  0  1  0  0  3  0  0  0  0  0  0
  162.0510  205.9920  151.1190 C   0  0  1  0  0  3  0  0  0  0  0  0
  160.2240  205.8440  144.6250 C   0  0  0  0  0  2  0  0  0  0  0  0
  161.0620  205.8410  145.6540 C   0  0  0  0  0  0  0  0  0  0  0  0
  160.8830  206.8430  146.6650 N   0  0  0  0  0  2  0  0  0  0  0  0
  162.4190  204.6990  148.1590 N   0  0  0  0  0  0  0  0  0  0  0  0
  161.7290  207.0060  147.8410 C   0  0  2  0  0  3  0  0  0  0  0  0
  162.0860  204.7690  145.7600 C   0  0  0  0  0  0  0  0  0  0  0  0
  163.0830  204.7280  146.8760 C   0  0  0  0  0  2  0  0  0  0  0  0
  162.1410  203.8650  144.8840 O   0  0  0  0  0  0  0  0  0  0  0  0
  161.7950  205.7220  148.6400 C   0  0  0  0  0  0  0  0  0  0  0  0
  162.1520  209.3150  148.3850 O   0  0  0  0  0  1  0  0  0  0  0  0
  161.3080  208.2340  148.6450 C   0  0  0  0  0  2  0  0  0  0  0  0
  161.8870  209.4930  152.3210 C   0  0  0  0  0  2  0  0  0  0  0  0
  160.5430  210.0370  152.7810 C   0  0  0  0  0  2  0  0  0  0  0  0
  160.7400  210.9700  153.9640 C   0  0  0  0  0  2  0  0  0  0  0  0
  159.3950  211.4300  156.0600 C   0  0  0  0  0  0  0  0  0  0  0  0
  156.9740  211.6070  155.9270 C   0  0  0  0  0  0  0  0  0  0  0  0
  159.4430  211.1910  154.6710 C   0  0  0  0  0  0  0  0  0  0  0  0
  158.2570  211.1440  153.9300 C   0  0  0  0  0  3  0  0  0  0  0  0
  158.1530  211.6500  156.6750 C   0  0  0  0  0  3  0  0  0  0  0  0
  155.6660  211.8400  156.5920 C   0  0  0  0  0  1  0  0  0  0  0  0
  157.0250  211.3520  154.5560 C   0  0  0  0  0  3  0  0  0  0  0  0
  161.2000  212.8080  156.9150 O   0  0  0  0  0  1  0  0  0  0  0  0
  160.6640  211.5140  156.8750 C   0  0  2  0  0  3  0  0  0  0  0  0
  161.6280  210.5510  156.5070 O   0  0  0  0  0  0  0  0  0  0  0  0
  161.4160  209.3840  157.2590 C   0  0  0  0  0  2  0  0  0  0  0  0
  161.5610  208.1590  156.3690 C   0  0  0  0  0  2  0  0  0  0  0  0
  159.2190  207.4180  155.9140 C   0  0  0  0  0  1  0  0  0  0  0  0
  160.4940  207.1220  156.6800 C   0  0  0  0  0  2  0  0  0  0  0  0
  1  6  1  0  0  0  0
  2  3  2  0  0  0  0
  3 22  1  0  0  0  0
  3  8  1  0  0  0  0
  4  7  2  0  0  0  0
  5  6  2  0  0  0  0
  5  8  1  0  0  0  0
  7  1  1  0  0  0  0
  9 19  1  6  0  0  0
  9  4  1  0  0  0  0
  9 10  1  0  0  0  0
 10  2  1  6  0  0  0
 10  5  1  0  0  0  0
 11 12  2  0  0  0  0
 12 16  1  0  0  0  0
 12 13  1  0  0  0  0
 13 15  1  0  0  0  0
 14 19  2  0  0  0  0
 15 19  1  0  0  0  0
 15 21  1  1  0  0  0
 16 17  1  0  0  0  0
 17 14  1  0  0  0  0
 18 16  2  0  0  0  0
 20 21  1  0  0  0  0
 22 23  1  0  0  0  0
 23 24  1  0  0  0  0
 24 27  1  0  0  0  0
 25 29  1  0  0  0  0
 25 33  1  0  0  0  0
 26 30  1  0  0  0  0
 26 29  2  0  0  0  0
 27 25  2  0  0  0  0
 28 31  2  0  0  0  0
 28 27  1  0  0  0  0
 31 26  1  0  0  0  0
 33 32  1  6  0  0  0
 34 33  1  0  0  0  0
 34 35  1  0  0  0  0
 36 38  1  0  0  0  0
 36 35  1  0  0  0  0
 37 38  1  0  0  0  0
M  END
>  <MODEL>
9

>  <REMARK>
 VINA RESULT:      -6.1      2.206      9.912
  Name = 
  11 active torsions:
  status: ('A' for Active; 'I' for Inactive)
    1  A    between atoms: C_6  and  C_17
    2  A    between atoms: C_7  and  C_28
    3  A    between atoms: C_13  and  C_14
    4  A    between atoms: C_13  and  C_26
    5  A    between atoms: C_15  and  CA_22
    6  A    between atoms: C_17  and  O_18
    7  A    between atoms: O_18  and  C_26
    8  A    between atoms: C_20  and  C_30
    9  A    between atoms: C_20  and  C_32
   10  A    between atoms: C_27  and  C_38
   11  A    between atoms: C_28  and  C_30
                            x       y       z     vdW  Elec       q    Type
                         _______ _______ _______ _____ _____    ______ ____

>  <TORSDO>
F 11

$$$$
