=
 OpenBabel11042420243D

 36 39  0  0  1  0  0  0  0  0999 V2000
  161.0310  207.3240  150.0040 C   0  0  2  0  0  3  0  0  0  0  0  0
  160.5510  205.2120  151.1840 C   0  0  2  0  0  3  0  0  0  0  0  0
  160.0960  205.1260  149.8550 O   0  0  0  0  0  0  0  0  0  0  0  0
  161.3000  205.8230  150.0580 C   0  0  1  0  0  3  0  0  0  0  0  0
  161.1150  203.8830  151.6020 C   0  0  0  0  0  0  0  0  0  0  0  0
  161.0420  203.4940  152.7590 O   0  0  0  0  0  0  0  0  0  0  0  0
  161.7160  203.0000  150.5610 C   0  0  0  0  0  2  0  0  0  0  0  0
  160.9700  201.6730  150.5040 C   0  0  0  0  0  2  0  0  0  0  0  0
  160.7690  200.1440  148.6260 N   0  0  0  0  0  2  0  0  0  0  0  0
  161.8570  199.3840  146.6990 O   0  0  0  0  0  0  0  0  0  0  0  0
  160.7930  202.4850  148.1160 C   0  0  0  0  0  2  0  0  0  0  0  0
  161.3750  200.3350  147.3670 C   0  0  0  0  0  0  0  0  0  0  0  0
  160.3340  201.4300  149.1380 C   0  0  2  0  0  0  0  0  0  0  0  0
  160.5190  201.9290  145.7120 C   0  0  0  0  0  1  0  0  0  0  0  0
  158.9420  201.4410  149.2400 O   0  0  0  0  0  1  0  0  0  0  0  0
  161.4060  201.7440  146.9290 C   0  0  1  0  0  3  0  0  0  0  0  0
  161.2570  207.9170  148.6070 C   0  0  1  0  0  3  0  0  0  0  0  0
  162.3530  208.9770  148.5790 C   0  0  0  0  0  1  0  0  0  0  0  0
  161.0930  205.4660  145.8400 C   0  0  1  0  0  3  0  0  0  0  0  0
  162.5080  205.4000  146.2780 C   0  0  0  0  0  0  0  0  0  0  0  0
  163.3890  204.6590  145.7700 O   0  0  0  0  0  0  0  0  0  0  0  0
  161.4810  206.8520  147.5800 C   0  0  0  0  0  0  0  0  0  0  0  0
  160.5540  206.4540  146.7630 N   0  0  0  0  0  0  0  0  0  0  0  0
  162.7620  206.2720  147.3640 N   0  0  0  0  0  2  0  0  0  0  0  0
  161.0110  206.0000  144.4220 C   0  0  0  0  0  1  0  0  0  0  0  0
  161.8620  208.0100  150.9850 N   0  0  0  0  0  2  0  0  0  0  0  0
  160.9050  210.5450  153.8280 C   0  0  2  0  0  3  0  0  0  0  0  0
  161.2130  207.8710  153.5850 S   0  0  0  0  0  0  0  0  0  0  0  0
  160.3020  209.2450  154.3210 C   0  0  0  0  0  2  0  0  0  0  0  0
  161.3310  210.4090  152.0570 S   0  0  0  0  0  0  0  0  0  0  0  0
  160.9740  208.6290  151.9560 C   0  0  1  0  0  3  0  0  0  0  0  0
  162.1020  210.8480  154.5970 N   0  0  0  0  0  2  0  0  0  0  0  0
  161.7100  210.9430  155.9940 C   0  0  0  0  0  2  0  0  0  0  0  0
  163.7280  210.9600  157.2590 O   0  0  0  0  0  1  0  0  0  0  0  0
  162.6300  208.9490  157.1720 O   0  0  0  0  0  0  0  0  0  0  0  0
  162.7390  210.2970  156.8540 C   0  0  0  0  0  0  0  0  0  0  0  0
  1 26  1  1  0  0  0
  2  5  1  6  0  0  0
  3  4  1  0  0  0  0
  3  2  1  0  0  0  0
  4  1  1  1  0  0  0
  4  2  1  0  0  0  0
  5  6  2  0  0  0  0
  7  5  1  0  0  0  0
  8  7  1  0  0  0  0
  9 13  1  0  0  0  0
 10 12  2  0  0  0  0
 11 13  1  0  0  0  0
 12  9  1  0  0  0  0
 13 15  1  1  0  0  0
 13  8  1  0  0  0  0
 16 14  1  6  0  0  0
 16 12  1  0  0  0  0
 16 11  1  0  0  0  0
 17 18  1  1  0  0  0
 17  1  1  0  0  0  0
 19 25  1  6  0  0  0
 19 20  1  0  0  0  0
 19 23  1  0  0  0  0
 20 24  1  0  0  0  0
 21 20  2  0  0  0  0
 22 17  1  0  0  0  0
 23 22  2  0  0  0  0
 24 22  1  0  0  0  0
 27 29  1  0  0  0  0
 27 32  1  1  0  0  0
 28 29  1  0  0  0  0
 30 27  1  0  0  0  0
 31 26  1  6  0  0  0
 31 30  1  0  0  0  0
 31 28  1  0  0  0  0
 32 33  1  0  0  0  0
 33 36  1  0  0  0  0
 36 35  2  0  0  0  0
 36 34  1  0  0  0  0
M  END
>  <MODEL>
1

>  <REMARK>
 VINA RESULT:      -6.5      0.000      0.000
  Name = 
  12 active torsions:
  status: ('A' for Active; 'I' for Inactive)
    1  A    between atoms: C_1  and  C_12
    2  A    between atoms: C_1  and  N_17
    3  A    between atoms: C_1  and  C_21
    4  A    between atoms: C_5  and  C_9
    5  A    between atoms: C_5  and  C_29
    6  A    between atoms: C_6  and  N_16
    7  A    between atoms: C_12  and  C_15
    8  A    between atoms: N_16  and  C_35
    9  A    between atoms: N_17  and  C_28
   10  A    between atoms: C_23  and  C_35
   11  A    between atoms: C_24  and  C_26
   12  A    between atoms: C_26  and  C_29
                            x       y       z     vdW  Elec       q    Type
                         _______ _______ _______ _____ _____    ______ ____

>  <TORSDO>
F 12

$$$$
=
 OpenBabel11042420243D

 36 39  0  0  1  0  0  0  0  0999 V2000
  161.4740  210.6950  152.1040 C   0  0  2  0  0  3  0  0  0  0  0  0
  161.1560  208.3960  151.2690 C   0  0  2  0  0  3  0  0  0  0  0  0
  162.5120  208.7570  151.1580 O   0  0  0  0  0  0  0  0  0  0  0  0
  161.8340  209.2260  152.2970 C   0  0  1  0  0  3  0  0  0  0  0  0
  161.0600  206.9490  151.6630 C   0  0  0  0  0  0  0  0  0  0  0  0
  160.8590  206.6150  152.8220 O   0  0  0  0  0  0  0  0  0  0  0  0
  161.1500  205.9080  150.5980 C   0  0  0  0  0  2  0  0  0  0  0  0
  160.5130  206.4180  149.3120 C   0  0  0  0  0  2  0  0  0  0  0  0
  160.7960  206.8130  146.9310 N   0  0  0  0  0  2  0  0  0  0  0  0
  160.3040  205.9490  144.8130 O   0  0  0  0  0  0  0  0  0  0  0  0
  161.8630  204.8680  147.8390 C   0  0  0  0  0  2  0  0  0  0  0  0
  160.8260  205.8020  145.9480 C   0  0  0  0  0  0  0  0  0  0  0  0
  161.4660  206.3280  148.1240 C   0  0  2  0  0  0  0  0  0  0  0  0
  162.7770  204.3600  145.5870 C   0  0  0  0  0  1  0  0  0  0  0  0
  162.6090  207.0940  148.3570 O   0  0  0  0  0  1  0  0  0  0  0  0
  161.5030  204.5650  146.3860 C   0  0  1  0  0  3  0  0  0  0  0  0
  160.5870  211.2420  153.2310 C   0  0  1  0  0  3  0  0  0  0  0  0
  159.1050  211.2490  152.8750 C   0  0  0  0  0  1  0  0  0  0  0  0
  160.5450  209.1900  156.3100 C   0  0  1  0  0  3  0  0  0  0  0  0
  161.9150  209.7560  156.2900 C   0  0  0  0  0  0  0  0  0  0  0  0
  162.8010  209.5360  157.1550 O   0  0  0  0  0  0  0  0  0  0  0  0
  160.8480  210.5460  154.5300 C   0  0  0  0  0  0  0  0  0  0  0  0
  159.9740  209.7780  155.1070 N   0  0  0  0  0  0  0  0  0  0  0  0
  162.1160  210.6010  155.1720 N   0  0  0  0  0  2  0  0  0  0  0  0
  160.6010  207.6810  156.1590 C   0  0  0  0  0  1  0  0  0  0  0  0
  160.8200  210.8780  150.8140 N   0  0  0  0  0  2  0  0  0  0  0  0
  161.2580  213.6830  148.1010 C   0  0  2  0  0  3  0  0  0  0  0  0
  162.3140  211.2510  148.6170 S   0  0  0  0  0  0  0  0  0  0  0  0
  162.5740  212.9370  148.0260 C   0  0  0  0  0  2  0  0  0  0  0  0
  160.3720  213.2440  149.6360 S   0  0  0  0  0  0  0  0  0  0  0  0
  161.5350  211.9280  150.1060 C   0  0  1  0  0  3  0  0  0  0  0  0
  160.4380  213.3420  146.9490 N   0  0  0  0  0  2  0  0  0  0  0  0
  159.0710  213.1850  147.4180 C   0  0  0  0  0  2  0  0  0  0  0  0
  157.0420  212.2660  146.5730 O   0  0  0  0  0  1  0  0  0  0  0  0
  158.7430  212.4810  145.0500 O   0  0  0  0  0  0  0  0  0  0  0  0
  158.2210  212.6330  146.3280 C   0  0  0  0  0  0  0  0  0  0  0  0
  1 26  1  6  0  0  0
  1 17  1  0  0  0  0
  2  5  1  1  0  0  0
  2  4  1  0  0  0  0
  3  2  1  0  0  0  0
  3  4  1  0  0  0  0
  4  1  1  6  0  0  0
  5  6  2  0  0  0  0
  7  5  1  0  0  0  0
  8  7  1  0  0  0  0
  9 13  1  0  0  0  0
 10 12  2  0  0  0  0
 11 13  1  0  0  0  0
 12 16  1  0  0  0  0
 12  9  1  0  0  0  0
 13 15  1  1  0  0  0
 13  8  1  0  0  0  0
 16 14  1  6  0  0  0
 16 11  1  0  0  0  0
 17 18  1  6  0  0  0
 17 22  1  0  0  0  0
 19 25  1  6  0  0  0
 20 19  1  0  0  0  0
 20 21  2  0  0  0  0
 22 23  2  0  0  0  0
 22 24  1  0  0  0  0
 23 19  1  0  0  0  0
 24 20  1  0  0  0  0
 27 32  1  6  0  0  0
 27 30  1  0  0  0  0
 28 31  1  0  0  0  0
 29 27  1  0  0  0  0
 29 28  1  0  0  0  0
 30 31  1  0  0  0  0
 31 26  1  6  0  0  0
 32 33  1  0  0  0  0
 35 36  2  0  0  0  0
 36 34  1  0  0  0  0
 36 33  1  0  0  0  0
M  END
>  <MODEL>
2

>  <REMARK>
 VINA RESULT:      -6.3      3.524      7.405
  Name = 
  12 active torsions:
  status: ('A' for Active; 'I' for Inactive)
    1  A    between atoms: C_1  and  C_12
    2  A    between atoms: C_1  and  N_17
    3  A    between atoms: C_1  and  C_21
    4  A    between atoms: C_5  and  C_9
    5  A    between atoms: C_5  and  C_29
    6  A    between atoms: C_6  and  N_16
    7  A    between atoms: C_12  and  C_15
    8  A    between atoms: N_16  and  C_35
    9  A    between atoms: N_17  and  C_28
   10  A    between atoms: C_23  and  C_35
   11  A    between atoms: C_24  and  C_26
   12  A    between atoms: C_26  and  C_29
                            x       y       z     vdW  Elec       q    Type
                         _______ _______ _______ _____ _____    ______ ____

>  <TORSDO>
F 12

$$$$
=
 OpenBabel11042420243D

 36 39  0  0  1  0  0  0  0  0999 V2000
  161.3150  206.9670  150.1930 C   0  0  2  0  0  3  0  0  0  0  0  0
  161.6870  207.4960  152.5720 C   0  0  2  0  0  3  0  0  0  0  0  0
  162.1650  208.5500  151.7720 O   0  0  0  0  0  0  0  0  0  0  0  0
  160.9860  207.9220  151.3350 C   0  0  1  0  0  3  0  0  0  0  0  0
  161.0640  208.0630  153.8170 C   0  0  0  0  0  0  0  0  0  0  0  0
  160.5260  207.3420  154.6460 O   0  0  0  0  0  0  0  0  0  0  0  0
  161.1650  209.5300  154.0660 C   0  0  0  0  0  2  0  0  0  0  0  0
  160.4270  209.8970  155.3470 C   0  0  0  0  0  2  0  0  0  0  0  0
  158.3260  211.0820  155.6330 N   0  0  0  0  0  2  0  0  0  0  0  0
  156.2390  211.4690  154.6480 O   0  0  0  0  0  0  0  0  0  0  0  0
  159.6930  211.7370  153.7780 C   0  0  0  0  0  2  0  0  0  0  0  0
  157.4950  211.5090  154.5770 C   0  0  0  0  0  0  0  0  0  0  0  0
  159.7120  211.2390  155.2340 C   0  0  2  0  0  0  0  0  0  0  0  0
  158.0090  213.4660  153.1930 C   0  0  0  0  0  1  0  0  0  0  0  0
  160.3250  212.1890  156.0530 O   0  0  0  0  0  1  0  0  0  0  0  0
  158.2350  211.9790  153.3900 C   0  0  1  0  0  3  0  0  0  0  0  0
  161.1860  207.6260  148.8120 C   0  0  1  0  0  3  0  0  0  0  0  0
  162.0360  208.8830  148.6700 C   0  0  0  0  0  1  0  0  0  0  0  0
  161.0660  205.3500  145.8980 C   0  0  1  0  0  3  0  0  0  0  0  0
  162.5040  205.3790  146.2560 C   0  0  0  0  0  0  0  0  0  0  0  0
  163.4130  204.7500  145.6540 O   0  0  0  0  0  0  0  0  0  0  0  0
  161.4370  206.6510  147.7050 C   0  0  0  0  0  0  0  0  0  0  0  0
  160.5010  206.2270  146.9130 N   0  0  0  0  0  0  0  0  0  0  0  0
  162.7470  206.1990  147.3840 N   0  0  0  0  0  2  0  0  0  0  0  0
  160.8580  205.9630  144.5250 C   0  0  0  0  0  1  0  0  0  0  0  0
  160.4590  205.7900  150.2710 N   0  0  0  0  0  2  0  0  0  0  0  0
  161.5980  202.0320  150.3070 C   0  0  2  0  0  3  0  0  0  0  0  0
  160.5180  203.7860  152.0540 S   0  0  0  0  0  0  0  0  0  0  0  0
  161.6560  202.4130  151.7720 C   0  0  0  0  0  2  0  0  0  0  0  0
  161.5000  203.5320  149.2700 S   0  0  0  0  0  0  0  0  0  0  0  0
  161.2920  204.6680  150.6740 C   0  0  1  0  0  3  0  0  0  0  0  0
  160.4330  201.1940  150.0670 N   0  0  0  0  0  2  0  0  0  0  0  0
  159.8940  201.5610  148.7670 C   0  0  0  0  0  2  0  0  0  0  0  0
  161.5090  200.0220  147.9340 O   0  0  0  0  0  1  0  0  0  0  0  0
  160.7130  201.5420  146.4140 O   0  0  0  0  0  0  0  0  0  0  0  0
  160.7390  200.9860  147.6860 C   0  0  0  0  0  0  0  0  0  0  0  0
  1 26  1  6  0  0  0
  2  5  1  1  0  0  0
  3  2  1  0  0  0  0
  4  1  1  6  0  0  0
  4  3  1  0  0  0  0
  4  2  1  0  0  0  0
  5  7  1  0  0  0  0
  5  6  2  0  0  0  0
  7  8  1  0  0  0  0
 11 13  1  0  0  0  0
 12 10  2  0  0  0  0
 12  9  1  0  0  0  0
 13  8  1  0  0  0  0
 13  9  1  0  0  0  0
 13 15  1  1  0  0  0
 16 14  1  1  0  0  0
 16 11  1  0  0  0  0
 16 12  1  0  0  0  0
 17 18  1  1  0  0  0
 17  1  1  0  0  0  0
 19 25  1  6  0  0  0
 19 20  1  0  0  0  0
 19 23  1  0  0  0  0
 20 24  1  0  0  0  0
 21 20  2  0  0  0  0
 22 17  1  0  0  0  0
 23 22  2  0  0  0  0
 24 22  1  0  0  0  0
 27 32  1  1  0  0  0
 27 29  1  0  0  0  0
 29 28  1  0  0  0  0
 30 27  1  0  0  0  0
 30 31  1  0  0  0  0
 31 26  1  6  0  0  0
 31 28  1  0  0  0  0
 33 32  1  0  0  0  0
 35 36  2  0  0  0  0
 36 34  1  0  0  0  0
 36 33  1  0  0  0  0
M  END
>  <MODEL>
3

>  <REMARK>
 VINA RESULT:      -6.2      2.646      8.594
  Name = 
  12 active torsions:
  status: ('A' for Active; 'I' for Inactive)
    1  A    between atoms: C_1  and  C_12
    2  A    between atoms: C_1  and  N_17
    3  A    between atoms: C_1  and  C_21
    4  A    between atoms: C_5  and  C_9
    5  A    between atoms: C_5  and  C_29
    6  A    between atoms: C_6  and  N_16
    7  A    between atoms: C_12  and  C_15
    8  A    between atoms: N_16  and  C_35
    9  A    between atoms: N_17  and  C_28
   10  A    between atoms: C_23  and  C_35
   11  A    between atoms: C_24  and  C_26
   12  A    between atoms: C_26  and  C_29
                            x       y       z     vdW  Elec       q    Type
                         _______ _______ _______ _____ _____    ______ ____

>  <TORSDO>
F 12

$$$$
=
 OpenBabel11042420243D

 36 39  0  0  1  0  0  0  0  0999 V2000
  161.4820  206.7690  150.8170 C   0  0  2  0  0  3  0  0  0  0  0  0
  160.6940  207.4710  153.0450 C   0  0  2  0  0  3  0  0  0  0  0  0
  160.7040  206.0660  152.9680 O   0  0  0  0  0  0  0  0  0  0  0  0
  161.7560  206.7340  152.3170 C   0  0  1  0  0  3  0  0  0  0  0  0
  161.1220  207.8940  154.4230 C   0  0  0  0  0  0  0  0  0  0  0  0
  161.2880  207.0770  155.3180 O   0  0  0  0  0  0  0  0  0  0  0  0
  161.4080  209.3360  154.6750 C   0  0  0  0  0  2  0  0  0  0  0  0
  160.4260  209.8950  155.6960 C   0  0  0  0  0  2  0  0  0  0  0  0
  158.4210  211.2650  155.6400 N   0  0  0  0  0  2  0  0  0  0  0  0
  156.3700  211.5490  154.5490 O   0  0  0  0  0  0  0  0  0  0  0  0
  159.8350  211.3400  153.7070 C   0  0  0  0  0  2  0  0  0  0  0  0
  157.6250  211.4770  154.4950 C   0  0  0  0  0  0  0  0  0  0  0  0
  159.8150  211.2170  155.2410 C   0  0  2  0  0  0  0  0  0  0  0  0
  158.2880  212.9890  152.6810 C   0  0  0  0  0  1  0  0  0  0  0  0
  160.4970  212.2920  155.8130 O   0  0  0  0  0  1  0  0  0  0  0  0
  158.4000  211.5840  153.2430 C   0  0  1  0  0  3  0  0  0  0  0  0
  161.5670  205.3810  150.1660 C   0  0  1  0  0  3  0  0  0  0  0  0
  160.5520  204.3940  150.7290 C   0  0  0  0  0  1  0  0  0  0  0  0
  161.9550  205.0420  146.5020 C   0  0  1  0  0  3  0  0  0  0  0  0
  160.7660  205.9150  146.6450 C   0  0  0  0  0  0  0  0  0  0  0  0
  160.0950  206.3860  145.6900 O   0  0  0  0  0  0  0  0  0  0  0  0
  161.5010  205.4630  148.6730 C   0  0  0  0  0  0  0  0  0  0  0  0
  162.3170  204.8200  147.8940 N   0  0  0  0  0  0  0  0  0  0  0  0
  160.4690  206.1780  148.0040 N   0  0  0  0  0  2  0  0  0  0  0  0
  161.5600  203.7220  145.8650 C   0  0  0  0  0  1  0  0  0  0  0  0
  162.4060  207.6890  150.1670 N   0  0  0  0  0  2  0  0  0  0  0  0
  161.8570  211.2370  148.5750 C   0  0  2  0  0  3  0  0  0  0  0  0
  162.3510  210.2280  151.0320 S   0  0  0  0  0  0  0  0  0  0  0  0
  161.4970  211.4630  150.0290 C   0  0  0  0  0  2  0  0  0  0  0  0
  161.9010  209.4480  148.2080 S   0  0  0  0  0  0  0  0  0  0  0  0
  161.6960  208.9380  149.9420 C   0  0  1  0  0  3  0  0  0  0  0  0
  163.1580  211.8240  148.2980 N   0  0  0  0  0  2  0  0  0  0  0  0
  162.9470  213.2330  148.0050 C   0  0  0  0  0  2  0  0  0  0  0  0
  162.7550  213.0940  145.6350 O   0  0  0  0  0  0  0  0  0  0  0  0
  160.8990  213.8690  146.7350 O   0  0  0  0  0  1  0  0  0  0  0  0
  162.1980  213.3770  146.7270 C   0  0  0  0  0  0  0  0  0  0  0  0
  1 26  1  6  0  0  0
  2  5  1  1  0  0  0
  3  2  1  0  0  0  0
  4  1  1  6  0  0  0
  4  3  1  0  0  0  0
  4  2  1  0  0  0  0
  5  7  1  0  0  0  0
  5  6  2  0  0  0  0
  7  8  1  0  0  0  0
 11 13  1  0  0  0  0
 12 10  2  0  0  0  0
 12  9  1  0  0  0  0
 13  9  1  0  0  0  0
 13  8  1  0  0  0  0
 13 15  1  1  0  0  0
 16 14  1  1  0  0  0
 16 11  1  0  0  0  0
 16 12  1  0  0  0  0
 17 18  1  1  0  0  0
 17  1  1  0  0  0  0
 19 25  1  1  0  0  0
 19 20  1  0  0  0  0
 19 23  1  0  0  0  0
 20 24  1  0  0  0  0
 21 20  2  0  0  0  0
 22 17  1  0  0  0  0
 23 22  2  0  0  0  0
 24 22  1  0  0  0  0
 27 32  1  1  0  0  0
 27 29  1  0  0  0  0
 29 28  1  0  0  0  0
 30 27  1  0  0  0  0
 30 31  1  0  0  0  0
 31 26  1  6  0  0  0
 31 28  1  0  0  0  0
 33 32  1  0  0  0  0
 34 36  2  0  0  0  0
 36 35  1  0  0  0  0
 36 33  1  0  0  0  0
M  END
>  <MODEL>
4

>  <REMARK>
 VINA RESULT:      -6.0      3.482      7.868
  Name = 
  12 active torsions:
  status: ('A' for Active; 'I' for Inactive)
    1  A    between atoms: C_1  and  C_12
    2  A    between atoms: C_1  and  N_17
    3  A    between atoms: C_1  and  C_21
    4  A    between atoms: C_5  and  C_9
    5  A    between atoms: C_5  and  C_29
    6  A    between atoms: C_6  and  N_16
    7  A    between atoms: C_12  and  C_15
    8  A    between atoms: N_16  and  C_35
    9  A    between atoms: N_17  and  C_28
   10  A    between atoms: C_23  and  C_35
   11  A    between atoms: C_24  and  C_26
   12  A    between atoms: C_26  and  C_29
                            x       y       z     vdW  Elec       q    Type
                         _______ _______ _______ _____ _____    ______ ____

>  <TORSDO>
F 12

$$$$
=
 OpenBabel11042420243D

 36 39  0  0  1  0  0  0  0  0999 V2000
  161.4130  209.4980  151.0200 C   0  0  2  0  0  3  0  0  0  0  0  0
  160.9760  207.2500  151.9340 C   0  0  2  0  0  3  0  0  0  0  0  0
  162.0840  207.2020  151.0670 O   0  0  0  0  0  0  0  0  0  0  0  0
  161.9660  208.3540  151.8630 C   0  0  1  0  0  3  0  0  0  0  0  0
  161.2180  206.3280  153.0960 C   0  0  0  0  0  0  0  0  0  0  0  0
  161.4810  206.7610  154.2100 O   0  0  0  0  0  0  0  0  0  0  0  0
  161.0680  204.8580  152.8900 C   0  0  0  0  0  2  0  0  0  0  0  0
  160.4420  204.5810  151.5300 C   0  0  0  0  0  2  0  0  0  0  0  0
  161.6430  204.1670  149.4590 N   0  0  0  0  0  2  0  0  0  0  0  0
  161.3590  203.6490  147.1940 O   0  0  0  0  0  0  0  0  0  0  0  0
  160.4030  202.3330  150.3740 C   0  0  0  0  0  2  0  0  0  0  0  0
  161.1690  203.3590  148.4040 C   0  0  0  0  0  0  0  0  0  0  0  0
  161.2490  203.5700  150.7210 C   0  0  2  0  0  0  0  0  0  0  0  0
  161.1910  200.9090  148.4990 C   0  0  0  0  0  1  0  0  0  0  0  0
  162.3900  203.1820  151.4250 O   0  0  0  0  0  1  0  0  0  0  0  0
  160.4240  202.1680  148.8550 C   0  0  1  0  0  3  0  0  0  0  0  0
  162.2340  209.7470  149.7470 C   0  0  1  0  0  3  0  0  0  0  0  0
  161.9550  208.7280  148.6480 C   0  0  0  0  0  1  0  0  0  0  0  0
  162.4620  213.0390  148.0720 C   0  0  1  0  0  3  0  0  0  0  0  0
  161.2190  213.1430  148.8750 C   0  0  0  0  0  0  0  0  0  0  0  0
  160.4680  214.1520  148.9180 O   0  0  0  0  0  0  0  0  0  0  0  0
  162.0870  211.1540  149.2570 C   0  0  0  0  0  0  0  0  0  0  0  0
  162.9080  211.6950  148.4100 N   0  0  0  0  0  0  0  0  0  0  0  0
  160.9720  211.9620  149.6150 N   0  0  0  0  0  2  0  0  0  0  0  0
  162.1340  213.1070  146.5920 C   0  0  0  0  0  1  0  0  0  0  0  0
  161.3430  210.7140  151.8200 N   0  0  0  0  0  2  0  0  0  0  0  0
  158.6330  211.7090  154.4830 C   0  0  2  0  0  3  0  0  0  0  0  0
  161.1980  210.8600  154.4960 S   0  0  0  0  0  0  0  0  0  0  0  0
  159.5700  210.8190  155.2750 C   0  0  0  0  0  2  0  0  0  0  0  0
  158.9350  211.5050  152.6940 S   0  0  0  0  0  0  0  0  0  0  0  0
  160.4130  210.4680  152.9110 C   0  0  1  0  0  3  0  0  0  0  0  0
  158.8450  213.0970  154.8600 N   0  0  0  0  0  2  0  0  0  0  0  0
  157.9520  213.3880  155.9710 C   0  0  0  0  0  2  0  0  0  0  0  0
  155.6920  212.6360  155.9930 O   0  0  0  0  0  1  0  0  0  0  0  0
  156.1760  214.2740  154.4640 O   0  0  0  0  0  0  0  0  0  0  0  0
  156.5430  213.4170  155.4930 C   0  0  0  0  0  0  0  0  0  0  0  0
  1 26  1  1  0  0  0
  2  5  1  1  0  0  0
  3  4  1  0  0  0  0
  3  2  1  0  0  0  0
  4  1  1  6  0  0  0
  4  2  1  0  0  0  0
  5  6  2  0  0  0  0
  7  5  1  0  0  0  0
  8  7  1  0  0  0  0
  9 13  1  0  0  0  0
 10 12  2  0  0  0  0
 11 13  1  0  0  0  0
 12 16  1  0  0  0  0
 12  9  1  0  0  0  0
 13 15  1  1  0  0  0
 13  8  1  0  0  0  0
 16 14  1  1  0  0  0
 16 11  1  0  0  0  0
 17 18  1  6  0  0  0
 17  1  1  0  0  0  0
 19 25  1  6  0  0  0
 19 23  1  0  0  0  0
 19 20  1  0  0  0  0
 20 21  2  0  0  0  0
 20 24  1  0  0  0  0
 22 24  1  0  0  0  0
 22 17  1  0  0  0  0
 23 22  2  0  0  0  0
 27 32  1  1  0  0  0
 27 29  1  0  0  0  0
 28 29  1  0  0  0  0
 30 31  1  0  0  0  0
 30 27  1  0  0  0  0
 31 26  1  6  0  0  0
 31 28  1  0  0  0  0
 32 33  1  0  0  0  0
 35 36  2  0  0  0  0
 36 33  1  0  0  0  0
 36 34  1  0  0  0  0
M  END
>  <MODEL>
5

>  <REMARK>
 VINA RESULT:      -5.9      3.674      4.828
  Name = 
  12 active torsions:
  status: ('A' for Active; 'I' for Inactive)
    1  A    between atoms: C_1  and  C_12
    2  A    between atoms: C_1  and  N_17
    3  A    between atoms: C_1  and  C_21
    4  A    between atoms: C_5  and  C_9
    5  A    between atoms: C_5  and  C_29
    6  A    between atoms: C_6  and  N_16
    7  A    between atoms: C_12  and  C_15
    8  A    between atoms: N_16  and  C_35
    9  A    between atoms: N_17  and  C_28
   10  A    between atoms: C_23  and  C_35
   11  A    between atoms: C_24  and  C_26
   12  A    between atoms: C_26  and  C_29
                            x       y       z     vdW  Elec       q    Type
                         _______ _______ _______ _____ _____    ______ ____

>  <TORSDO>
F 12

$$$$
=
 OpenBabel11042420243D

 36 39  0  0  1  0  0  0  0  0999 V2000
  161.3850  209.0370  152.9660 C   0  0  2  0  0  3  0  0  0  0  0  0
  161.8480  206.6310  152.6890 C   0  0  2  0  0  3  0  0  0  0  0  0
  161.5020  206.8950  154.0270 O   0  0  0  0  0  0  0  0  0  0  0  0
  160.8080  207.6280  153.0480 C   0  0  1  0  0  3  0  0  0  0  0  0
  161.2650  205.3070  152.2800 C   0  0  0  0  0  0  0  0  0  0  0  0
  161.1270  204.3960  153.0850 O   0  0  0  0  0  0  0  0  0  0  0  0
  160.7910  205.1340  150.8760 C   0  0  0  0  0  2  0  0  0  0  0  0
  161.6880  205.9090  149.9200 C   0  0  0  0  0  2  0  0  0  0  0  0
  160.8820  204.4180  148.1800 N   0  0  0  0  0  2  0  0  0  0  0  0
  161.5630  202.8200  146.6120 O   0  0  0  0  0  0  0  0  0  0  0  0
  162.3350  206.1940  147.4930 C   0  0  0  0  0  2  0  0  0  0  0  0
  161.6450  203.9880  147.0750 C   0  0  0  0  0  0  0  0  0  0  0  0
  161.2170  205.7990  148.4740 C   0  0  2  0  0  0  0  0  0  0  0  0
  162.1080  205.4250  145.1430 C   0  0  0  0  0  1  0  0  0  0  0  0
  160.0950  206.6020  148.2640 O   0  0  0  0  0  1  0  0  0  0  0  0
  162.5500  205.0220  146.5370 C   0  0  1  0  0  3  0  0  0  0  0  0
  161.4490  209.7320  154.3330 C   0  0  1  0  0  3  0  0  0  0  0  0
  162.7400  210.5140  154.5450 C   0  0  0  0  0  1  0  0  0  0  0  0
  158.8450  212.3500  154.5700 C   0  0  1  0  0  3  0  0  0  0  0  0
  158.1710  211.1410  155.1030 C   0  0  0  0  0  0  0  0  0  0  0  0
  156.9830  211.0980  155.5160 O   0  0  0  0  0  0  0  0  0  0  0  0
  160.2370  210.5720  154.5870 C   0  0  0  0  0  0  0  0  0  0  0  0
  160.1690  211.8280  154.2660 N   0  0  0  0  0  0  0  0  0  0  0  0
  159.0350  210.0200  155.1100 N   0  0  0  0  0  2  0  0  0  0  0  0
  158.1710  212.8000  153.2870 C   0  0  0  0  0  1  0  0  0  0  0  0
  160.6040  209.8370  152.0300 N   0  0  0  0  0  2  0  0  0  0  0  0
  161.6330  212.1030  148.9910 C   0  0  2  0  0  3  0  0  0  0  0  0
  161.8950  209.5090  149.7010 S   0  0  0  0  0  0  0  0  0  0  0  0
  162.6210  210.9580  148.9050 C   0  0  0  0  0  2  0  0  0  0  0  0
  160.8220  212.1110  150.6280 S   0  0  0  0  0  0  0  0  0  0  0  0
  161.5400  210.5270  151.1560 C   0  0  1  0  0  3  0  0  0  0  0  0
  160.6290  211.9590  147.9490 N   0  0  0  0  0  2  0  0  0  0  0  0
  160.1880  213.2960  147.5820 C   0  0  0  0  0  2  0  0  0  0  0  0
  158.1920  214.0460  148.6450 O   0  0  0  0  0  1  0  0  0  0  0  0
  157.8930  212.7190  146.7990 O   0  0  0  0  0  0  0  0  0  0  0  0
  158.7070  213.3910  147.7020 C   0  0  0  0  0  0  0  0  0  0  0  0
  1 26  1  6  0  0  0
  1 17  1  0  0  0  0
  2  5  1  6  0  0  0
  2  4  1  0  0  0  0
  2  3  1  0  0  0  0
  4  1  1  1  0  0  0
  4  3  1  0  0  0  0
  5  6  2  0  0  0  0
  7  5  1  0  0  0  0
  8  7  1  0  0  0  0
  9 13  1  0  0  0  0
 10 12  2  0  0  0  0
 11 13  1  0  0  0  0
 12  9  1  0  0  0  0
 13 15  1  6  0  0  0
 13  8  1  0  0  0  0
 16 14  1  6  0  0  0
 16 12  1  0  0  0  0
 16 11  1  0  0  0  0
 17 18  1  6  0  0  0
 17 22  1  0  0  0  0
 19 25  1  6  0  0  0
 19 20  1  0  0  0  0
 20 24  1  0  0  0  0
 20 21  2  0  0  0  0
 22 24  1  0  0  0  0
 23 19  1  0  0  0  0
 23 22  2  0  0  0  0
 27 32  1  6  0  0  0
 27 30  1  0  0  0  0
 28 31  1  0  0  0  0
 29 27  1  0  0  0  0
 29 28  1  0  0  0  0
 30 31  1  0  0  0  0
 31 26  1  1  0  0  0
 33 36  1  0  0  0  0
 33 32  1  0  0  0  0
 35 36  2  0  0  0  0
 36 34  1  0  0  0  0
M  END
>  <MODEL>
6

>  <REMARK>
 VINA RESULT:      -5.8      3.412      6.852
  Name = 
  12 active torsions:
  status: ('A' for Active; 'I' for Inactive)
    1  A    between atoms: C_1  and  C_12
    2  A    between atoms: C_1  and  N_17
    3  A    between atoms: C_1  and  C_21
    4  A    between atoms: C_5  and  C_9
    5  A    between atoms: C_5  and  C_29
    6  A    between atoms: C_6  and  N_16
    7  A    between atoms: C_12  and  C_15
    8  A    between atoms: N_16  and  C_35
    9  A    between atoms: N_17  and  C_28
   10  A    between atoms: C_23  and  C_35
   11  A    between atoms: C_24  and  C_26
   12  A    between atoms: C_26  and  C_29
                            x       y       z     vdW  Elec       q    Type
                         _______ _______ _______ _____ _____    ______ ____

>  <TORSDO>
F 12

$$$$
=
 OpenBabel11042420243D

 36 39  0  0  1  0  0  0  0  0999 V2000
  160.9700  212.9540  148.9810 C   0  0  2  0  0  3  0  0  0  0  0  0
  161.4120  210.5500  148.6570 C   0  0  2  0  0  3  0  0  0  0  0  0
  162.3830  211.3060  147.9740 O   0  0  0  0  0  0  0  0  0  0  0  0
  161.9560  211.8150  149.2140 C   0  0  1  0  0  3  0  0  0  0  0  0
  162.0610  209.3300  149.2480 C   0  0  0  0  0  0  0  0  0  0  0  0
  162.2860  209.2450  150.4470 O   0  0  0  0  0  0  0  0  0  0  0  0
  162.3760  208.1790  148.3520 C   0  0  0  0  0  2  0  0  0  0  0  0
  161.9770  206.8700  149.0200 C   0  0  0  0  0  2  0  0  0  0  0  0
  160.8430  204.7360  148.7720 N   0  0  0  0  0  2  0  0  0  0  0  0
  161.2010  202.4410  148.4860 O   0  0  0  0  0  0  0  0  0  0  0  0
  162.1210  205.5050  146.8970 C   0  0  0  0  0  2  0  0  0  0  0  0
  161.3700  203.6230  148.0850 C   0  0  0  0  0  0  0  0  0  0  0  0
  161.2240  205.9460  148.0680 C   0  0  2  0  0  0  0  0  0  0  0  0
  161.4280  203.4800  145.6380 C   0  0  0  0  0  1  0  0  0  0  0  0
  160.0800  206.5770  147.5790 O   0  0  0  0  0  1  0  0  0  0  0  0
  162.1440  203.9780  146.8800 C   0  0  1  0  0  3  0  0  0  0  0  0
  161.4870  213.9890  147.9720 C   0  0  1  0  0  3  0  0  0  0  0  0
  162.9990  214.1700  148.0240 C   0  0  0  0  0  1  0  0  0  0  0  0
  160.9590  213.6110  144.3300 C   0  0  1  0  0  3  0  0  0  0  0  0
  159.8470  212.8310  144.9240 C   0  0  0  0  0  0  0  0  0  0  0  0
  158.9700  212.2080  144.2700 O   0  0  0  0  0  0  0  0  0  0  0  0
  161.0040  213.7020  146.5850 C   0  0  0  0  0  0  0  0  0  0  0  0
  161.6300  214.1070  145.5220 N   0  0  0  0  0  0  0  0  0  0  0  0
  159.8720  212.8760  146.3380 N   0  0  0  0  0  2  0  0  0  0  0  0
  161.8940  212.6900  143.5680 C   0  0  0  0  0  1  0  0  0  0  0  0
  160.6520  213.6000  150.2480 N   0  0  0  0  0  2  0  0  0  0  0  0
  157.8380  212.9290  152.9040 C   0  0  2  0  0  3  0  0  0  0  0  0
  160.2430  211.8770  152.2640 S   0  0  0  0  0  0  0  0  0  0  0  0
  158.5510  211.5950  152.8270 C   0  0  0  0  0  2  0  0  0  0  0  0
  158.2990  213.9720  151.4770 S   0  0  0  0  0  0  0  0  0  0  0  0
  159.5850  212.8360  150.8750 C   0  0  1  0  0  3  0  0  0  0  0  0
  158.2000  213.6040  154.1400 N   0  0  0  0  0  2  0  0  0  0  0  0
  156.9660  213.9160  154.8440 C   0  0  0  0  0  2  0  0  0  0  0  0
  155.6820  212.1540  155.8030 O   0  0  0  0  0  0  0  0  0  0  0  0
  157.5580  212.7630  156.9720 O   0  0  0  0  0  1  0  0  0  0  0  0
  156.7020  212.8860  155.8850 C   0  0  0  0  0  0  0  0  0  0  0  0
  1 26  1  1  0  0  0
  2  4  1  0  0  0  0
  2  5  1  1  0  0  0
  3  2  1  0  0  0  0
  3  4  1  0  0  0  0
  4  1  1  6  0  0  0
  5  6  2  0  0  0  0
  7  8  1  0  0  0  0
  7  5  1  0  0  0  0
 11 13  1  0  0  0  0
 12 10  2  0  0  0  0
 12  9  1  0  0  0  0
 13 15  1  6  0  0  0
 13  9  1  0  0  0  0
 13  8  1  0  0  0  0
 16 14  1  6  0  0  0
 16 11  1  0  0  0  0
 16 12  1  0  0  0  0
 17 18  1  6  0  0  0
 17  1  1  0  0  0  0
 19 25  1  1  0  0  0
 19 20  1  0  0  0  0
 19 23  1  0  0  0  0
 20 24  1  0  0  0  0
 21 20  2  0  0  0  0
 22 17  1  0  0  0  0
 23 22  2  0  0  0  0
 24 22  1  0  0  0  0
 27 32  1  1  0  0  0
 28 29  1  0  0  0  0
 29 27  1  0  0  0  0
 30 27  1  0  0  0  0
 31 26  1  1  0  0  0
 31 30  1  0  0  0  0
 31 28  1  0  0  0  0
 32 33  1  0  0  0  0
 33 36  1  0  0  0  0
 34 36  2  0  0  0  0
 36 35  1  0  0  0  0
M  END
>  <MODEL>
7

>  <REMARK>
 VINA RESULT:      -5.6      4.666      5.835
  Name = 
  12 active torsions:
  status: ('A' for Active; 'I' for Inactive)
    1  A    between atoms: C_1  and  C_12
    2  A    between atoms: C_1  and  N_17
    3  A    between atoms: C_1  and  C_21
    4  A    between atoms: C_5  and  C_9
    5  A    between atoms: C_5  and  C_29
    6  A    between atoms: C_6  and  N_16
    7  A    between atoms: C_12  and  C_15
    8  A    between atoms: N_16  and  C_35
    9  A    between atoms: N_17  and  C_28
   10  A    between atoms: C_23  and  C_35
   11  A    between atoms: C_24  and  C_26
   12  A    between atoms: C_26  and  C_29
                            x       y       z     vdW  Elec       q    Type
                         _______ _______ _______ _____ _____    ______ ____

>  <TORSDO>
F 12

$$$$
=
 OpenBabel11042420243D

 36 39  0  0  1  0  0  0  0  0999 V2000
  161.1280  208.0250  153.5600 C   0  0  2  0  0  3  0  0  0  0  0  0
  161.3510  206.3350  151.7790 C   0  0  2  0  0  3  0  0  0  0  0  0
  162.5720  206.4610  152.4680 O   0  0  0  0  0  0  0  0  0  0  0  0
  161.4050  206.5590  153.2450 C   0  0  1  0  0  3  0  0  0  0  0  0
  161.1330  204.8920  151.4200 C   0  0  0  0  0  0  0  0  0  0  0  0
  161.2620  204.0020  152.2500 O   0  0  0  0  0  0  0  0  0  0  0  0
  160.6870  204.5550  150.0370 C   0  0  0  0  0  2  0  0  0  0  0  0
  160.4710  205.8290  149.2310 C   0  0  0  0  0  2  0  0  0  0  0  0
  160.8310  206.6160  146.9610 N   0  0  0  0  0  2  0  0  0  0  0  0
  160.4480  206.0980  144.7110 O   0  0  0  0  0  0  0  0  0  0  0  0
  161.9270  204.5790  147.5860 C   0  0  0  0  0  2  0  0  0  0  0  0
  160.9320  205.7810  145.8290 C   0  0  0  0  0  0  0  0  0  0  0  0
  161.4700  205.9610  148.0860 C   0  0  2  0  0  0  0  0  0  0  0  0
  162.9420  204.4710  145.3220 C   0  0  0  0  0  1  0  0  0  0  0  0
  162.5770  206.7100  148.4890 O   0  0  0  0  0  1  0  0  0  0  0  0
  161.6330  204.5080  146.0880 C   0  0  1  0  0  3  0  0  0  0  0  0
  160.2920  208.2110  154.8340 C   0  0  1  0  0  3  0  0  0  0  0  0
  160.0810  206.9130  155.6040 C   0  0  0  0  0  1  0  0  0  0  0  0
  162.2740  210.4450  157.0180 C   0  0  1  0  0  3  0  0  0  0  0  0
  161.0840  211.2600  156.6770 C   0  0  0  0  0  0  0  0  0  0  0  0
  160.8740  212.4350  157.0750 O   0  0  0  0  0  0  0  0  0  0  0  0
  160.8400  209.2970  155.7050 C   0  0  0  0  0  0  0  0  0  0  0  0
  161.9840  209.2060  156.3100 N   0  0  0  0  0  0  0  0  0  0  0  0
  160.1820  210.5510  155.8470 N   0  0  0  0  0  2  0  0  0  0  0  0
  163.5250  211.0790  156.4370 C   0  0  0  0  0  1  0  0  0  0  0  0
  160.4660  208.6580  152.4260 N   0  0  0  0  0  2  0  0  0  0  0  0
  161.1950  212.1620  150.8090 C   0  0  2  0  0  3  0  0  0  0  0  0
  161.6900  209.5720  150.2200 S   0  0  0  0  0  0  0  0  0  0  0  0
  162.2680  211.2830  150.2010 C   0  0  0  0  0  2  0  0  0  0  0  0
  160.4480  211.3330  152.2550 S   0  0  0  0  0  0  0  0  0  0  0  0
  161.3100  209.7560  151.9820 C   0  0  1  0  0  3  0  0  0  0  0  0
  160.1670  212.4350  149.8170 N   0  0  0  0  0  2  0  0  0  0  0  0
  160.6300  213.5500  149.0070 C   0  0  0  0  0  2  0  0  0  0  0  0
  160.3650  214.1160  146.7080 O   0  0  0  0  0  0  0  0  0  0  0  0
  160.5540  211.8770  147.1620 O   0  0  0  0  0  1  0  0  0  0  0  0
  160.5240  213.2060  147.5630 C   0  0  0  0  0  0  0  0  0  0  0  0
  1 26  1  6  0  0  0
  1 17  1  0  0  0  0
  2  5  1  1  0  0  0
  2  3  1  0  0  0  0
  2  4  1  0  0  0  0
  3  4  1  0  0  0  0
  4  1  1  6  0  0  0
  5  6  2  0  0  0  0
  7  5  1  0  0  0  0
  8  7  1  0  0  0  0
  9 13  1  0  0  0  0
 10 12  2  0  0  0  0
 11 13  1  0  0  0  0
 12 16  1  0  0  0  0
 12  9  1  0  0  0  0
 13 15  1  1  0  0  0
 13  8  1  0  0  0  0
 16 14  1  6  0  0  0
 16 11  1  0  0  0  0
 17 18  1  1  0  0  0
 17 22  1  0  0  0  0
 19 25  1  6  0  0  0
 20 19  1  0  0  0  0
 20 21  2  0  0  0  0
 22 24  1  0  0  0  0
 22 23  2  0  0  0  0
 23 19  1  0  0  0  0
 24 20  1  0  0  0  0
 27 32  1  6  0  0  0
 27 30  1  0  0  0  0
 28 31  1  0  0  0  0
 29 28  1  0  0  0  0
 29 27  1  0  0  0  0
 31 30  1  0  0  0  0
 31 26  1  6  0  0  0
 33 32  1  0  0  0  0
 34 36  2  0  0  0  0
 35 36  1  0  0  0  0
 36 33  1  0  0  0  0
M  END
>  <MODEL>
8

>  <REMARK>
 VINA RESULT:      -5.6      3.057      7.090
  Name = 
  12 active torsions:
  status: ('A' for Active; 'I' for Inactive)
    1  A    between atoms: C_1  and  C_12
    2  A    between atoms: C_1  and  N_17
    3  A    between atoms: C_1  and  C_21
    4  A    between atoms: C_5  and  C_9
    5  A    between atoms: C_5  and  C_29
    6  A    between atoms: C_6  and  N_16
    7  A    between atoms: C_12  and  C_15
    8  A    between atoms: N_16  and  C_35
    9  A    between atoms: N_17  and  C_28
   10  A    between atoms: C_23  and  C_35
   11  A    between atoms: C_24  and  C_26
   12  A    between atoms: C_26  and  C_29
                            x       y       z     vdW  Elec       q    Type
                         _______ _______ _______ _____ _____    ______ ____

>  <TORSDO>
F 12

$$$$
=
 OpenBabel11042420243D

 36 39  0  0  1  0  0  0  0  0999 V2000
  161.3870  206.8890  149.8130 C   0  0  2  0  0  3  0  0  0  0  0  0
  161.7190  207.0780  152.2490 C   0  0  2  0  0  3  0  0  0  0  0  0
  162.3690  208.1430  151.5990 O   0  0  0  0  0  0  0  0  0  0  0  0
  161.1370  207.7390  151.0540 C   0  0  1  0  0  3  0  0  0  0  0  0
  161.1210  207.5750  153.5350 C   0  0  0  0  0  0  0  0  0  0  0  0
  160.5630  206.8140  154.3150 O   0  0  0  0  0  0  0  0  0  0  0  0
  161.2720  209.0160  153.8880 C   0  0  0  0  0  2  0  0  0  0  0  0
  160.0190  209.7870  153.4930 C   0  0  0  0  0  2  0  0  0  0  0  0
  161.1140  211.3470  155.0000 N   0  0  0  0  0  2  0  0  0  0  0  0
  161.6420  211.7300  157.2470 O   0  0  0  0  0  0  0  0  0  0  0  0
  158.7480  211.0740  155.2590 C   0  0  0  0  0  2  0  0  0  0  0  0
  160.7760  211.5220  156.3580 C   0  0  0  0  0  0  0  0  0  0  0  0
  159.9010  211.1120  154.2400 C   0  0  2  0  0  0  0  0  0  0  0  0
  158.7880  212.7620  157.0790 C   0  0  0  0  0  1  0  0  0  0  0  0
  159.7060  212.1630  153.3420 O   0  0  0  0  0  1  0  0  0  0  0  0
  159.3290  211.4190  156.6290 C   0  0  1  0  0  3  0  0  0  0  0  0
  161.2150  207.6790  148.5080 C   0  0  1  0  0  3  0  0  0  0  0  0
  162.0130  208.9770  148.4860 C   0  0  0  0  0  1  0  0  0  0  0  0
  162.6330  205.6470  145.7590 C   0  0  1  0  0  3  0  0  0  0  0  0
  161.1690  205.4670  145.6050 C   0  0  0  0  0  0  0  0  0  0  0  0
  160.6170  204.7630  144.7200 O   0  0  0  0  0  0  0  0  0  0  0  0
  161.4900  206.8320  147.3050 C   0  0  0  0  0  0  0  0  0  0  0  0
  162.6910  206.5440  146.9040 N   0  0  0  0  0  0  0  0  0  0  0  0
  160.4450  206.2000  146.5760 N   0  0  0  0  0  2  0  0  0  0  0  0
  163.2870  204.3250  146.1170 C   0  0  0  0  0  1  0  0  0  0  0  0
  160.5030  205.7300  149.8210 N   0  0  0  0  0  2  0  0  0  0  0  0
  161.5680  201.9520  149.9280 C   0  0  2  0  0  3  0  0  0  0  0  0
  160.3710  203.7160  151.5880 S   0  0  0  0  0  0  0  0  0  0  0  0
  161.5050  202.3240  151.3960 C   0  0  0  0  0  2  0  0  0  0  0  0
  161.5880  203.4590  148.8980 S   0  0  0  0  0  0  0  0  0  0  0  0
  161.2780  204.5910  150.2870 C   0  0  1  0  0  3  0  0  0  0  0  0
  160.4140  201.1370  149.5810 N   0  0  0  0  0  2  0  0  0  0  0  0
  159.8920  201.6370  148.3190 C   0  0  0  0  0  2  0  0  0  0  0  0
  160.5800  201.5930  146.0390 O   0  0  0  0  0  0  0  0  0  0  0  0
  161.5360  200.0090  147.3930 O   0  0  0  0  0  1  0  0  0  0  0  0
  160.6950  201.0950  147.1890 C   0  0  0  0  0  0  0  0  0  0  0  0
  1 26  1  6  0  0  0
  2  5  1  1  0  0  0
  3  2  1  0  0  0  0
  4  1  1  6  0  0  0
  4  3  1  0  0  0  0
  4  2  1  0  0  0  0
  5  7  1  0  0  0  0
  5  6  2  0  0  0  0
  8  7  1  0  0  0  0
  8 13  1  0  0  0  0
  9 12  1  0  0  0  0
 11 16  1  0  0  0  0
 12 16  1  0  0  0  0
 12 10  2  0  0  0  0
 13 15  1  6  0  0  0
 13  9  1  0  0  0  0
 13 11  1  0  0  0  0
 16 14  1  6  0  0  0
 17 18  1  1  0  0  0
 17  1  1  0  0  0  0
 19 25  1  1  0  0  0
 19 23  1  0  0  0  0
 20 19  1  0  0  0  0
 20 24  1  0  0  0  0
 21 20  2  0  0  0  0
 22 17  1  0  0  0  0
 23 22  2  0  0  0  0
 24 22  1  0  0  0  0
 27 32  1  6  0  0  0
 27 29  1  0  0  0  0
 29 28  1  0  0  0  0
 30 27  1  0  0  0  0
 30 31  1  0  0  0  0
 31 26  1  6  0  0  0
 31 28  1  0  0  0  0
 33 32  1  0  0  0  0
 34 36  2  0  0  0  0
 36 35  1  0  0  0  0
 36 33  1  0  0  0  0
M  END
>  <MODEL>
9

>  <REMARK>
 VINA RESULT:      -5.6      2.407      8.797
  Name = 
  12 active torsions:
  status: ('A' for Active; 'I' for Inactive)
    1  A    between atoms: C_1  and  C_12
    2  A    between atoms: C_1  and  N_17
    3  A    between atoms: C_1  and  C_21
    4  A    between atoms: C_5  and  C_9
    5  A    between atoms: C_5  and  C_29
    6  A    between atoms: C_6  and  N_16
    7  A    between atoms: C_12  and  C_15
    8  A    between atoms: N_16  and  C_35
    9  A    between atoms: N_17  and  C_28
   10  A    between atoms: C_23  and  C_35
   11  A    between atoms: C_24  and  C_26
   12  A    between atoms: C_26  and  C_29
                            x       y       z     vdW  Elec       q    Type
                         _______ _______ _______ _____ _____    ______ ____

>  <TORSDO>
F 12

$$$$
