=
 OpenBabel11052409263D

 35 39  0  0  1  0  0  0  0  0999 V2000
  161.8720  208.6340  150.8880 N   0  0  0  0  0  0  0  0  0  0  0  0
  160.8130  209.3370  153.0280 C   0  0  0  0  0  0  0  0  0  0  0  0
  160.5820  207.7290  154.8300 C   0  0  0  0  0  0  0  0  0  0  0  0
  161.1920  206.7500  154.0420 C   0  0  0  0  0  3  0  0  0  0  0  0
  160.3860  209.0140  154.3210 C   0  0  0  0  0  3  0  0  0  0  0  0
  161.6150  207.0610  152.7470 C   0  0  0  0  0  3  0  0  0  0  0  0
  161.4400  208.3520  152.2310 C   0  0  0  0  0  0  0  0  0  0  0  0
  160.1310  207.3990  156.2070 C   0  0  0  0  0  1  0  0  0  0  0  0
  160.5190  210.7010  152.5020 C   0  0  0  0  0  2  0  0  0  0  0  0
  159.1470  210.9440  152.5550 O   0  0  0  0  0  1  0  0  0  0  0  0
  161.3850  205.7930  147.7590 C   0  0  0  0  0  0  0  0  0  0  0  0
  161.7110  207.6770  149.8210 C   0  0  0  0  0  0  0  0  0  0  0  0
  160.5790  206.8480  149.7820 C   0  0  0  0  0  3  0  0  0  0  0  0
  162.5240  206.6040  147.7920 C   0  0  0  0  0  3  0  0  0  0  0  0
  160.4130  205.9160  148.7570 C   0  0  0  0  0  3  0  0  0  0  0  0
  162.6880  207.5370  148.8190 C   0  0  0  0  0  3  0  0  0  0  0  0
  161.1910  204.8230  146.6470 C   0  0  0  0  0  2  0  0  0  0  0  0
  161.7720  203.4760  147.0310 C   0  0  0  0  0  2  0  0  0  0  0  0
  160.7370  202.5610  147.2440 O   0  0  0  0  0  0  0  0  0  0  0  0
  159.6940  201.6280  149.1480 N   0  0  0  0  0  2  0  0  0  0  0  0
  160.9570  202.0390  148.5250 C   0  0  1  0  0  0  0  0  0  0  0  0
  161.9400  201.0730  148.6840 F   0  0  0  0  0  0  0  0  0  0  0  0
  160.4280  202.8020  149.6580 C   0  0  2  0  0  3  0  0  0  0  0  0
  160.5760  203.2690  152.0810 C   0  0  0  0  0  2  0  0  0  0  0  0
  161.9010  203.6430  151.4530 C   0  0  0  0  0  2  0  0  0  0  0  0
  161.1400  202.4350  150.9470 C   0  0  0  0  0  3  0  0  0  0  0  0
  162.3480  209.9220  150.5910 N   0  0  0  0  0  2  0  0  0  0  0  0
  161.9190  210.2480  149.2380 C   0  0  0  0  0  2  0  0  0  0  0  0
  161.8100  211.7540  149.0800 C   0  0  0  0  0  2  0  0  0  0  0  0
  162.5120  212.2150  147.8140 C   0  0  0  0  0  2  0  0  0  0  0  0
  161.7200  213.3180  147.1240 C   0  0  2  0  0  3  0  0  0  0  0  0
  161.1710  213.0150  145.0610 N   0  0  0  0  0  2  0  0  0  0  0  0
  159.3130  213.5240  146.5530 C   0  0  0  0  0  1  0  0  0  0  0  0
  160.5760  212.7040  146.3550 C   0  0  2  0  0  3  0  0  0  0  0  0
  162.3010  213.6130  145.7590 C   0  0  0  0  0  2  0  0  0  0  0  0
  1  7  1  0  0  0  0
  2  5  1  0  0  0  0
  3  8  1  0  0  0  0
  4  3  1  0  0  0  0
  5  3  2  0  0  0  0
  6  4  2  0  0  0  0
  7  6  1  0  0  0  0
  7  2  2  0  0  0  0
  9 10  1  0  0  0  0
  9  2  1  0  0  0  0
 11 14  2  0  0  0  0
 11 15  1  0  0  0  0
 12  1  1  0  0  0  0
 13 12  1  0  0  0  0
 14 16  1  0  0  0  0
 15 13  2  0  0  0  0
 16 12  2  0  0  0  0
 17 18  1  0  0  0  0
 17 11  1  0  0  0  0
 18 19  1  0  0  0  0
 19 21  1  0  0  0  0
 20 23  1  0  0  0  0
 21 22  1  1  0  0  0
 21 20  1  0  0  0  0
 21 23  1  0  0  0  0
 23 26  1  1  0  0  0
 25 24  1  0  0  0  0
 26 25  1  0  0  0  0
 26 24  1  0  0  0  0
 27  1  1  0  0  0  0
 28 27  1  0  0  0  0
 29 28  1  0  0  0  0
 30 29  1  0  0  0  0
 31 30  1  1  0  0  0
 32 35  1  0  0  0  0
 32 34  1  0  0  0  0
 34 33  1  6  0  0  0
 34 31  1  0  0  0  0
 35 31  1  0  0  0  0
M  END
>  <MODEL>
1

>  <REMARK>
 VINA RESULT:      -8.2      0.000      0.000
  Name = 
  13 active torsions:
  status: ('A' for Active; 'I' for Inactive)
    1  A    between atoms: C_1  and  C_20
    2  A    between atoms: C_3  and  C_8
    3  A    between atoms: C_3  and  C_28
    4  A    between atoms: C_4  and  C_7
    5  A    between atoms: N_5  and  C_11
    6  A    between atoms: N_5  and  N_31
    7  A    between atoms: C_11  and  C_30
    8  A    between atoms: C_15  and  O_17
    9  A    between atoms: O_17  and  C_28
   10  A    between atoms: C_20  and  C_30
   11  A    between atoms: C_21  and  N_31
   12  A    between atoms: C_23  and  C_29
   13  A    between atoms: N_31  and  C_32
                            x       y       z     vdW  Elec       q    Type
                         _______ _______ _______ _____ _____    ______ ____

>  <TORSDO>
F 13

$$$$
=
 OpenBabel11052409263D

 35 39  0  0  1  0  0  0  0  0999 V2000
  161.0340  206.5340  149.7800 N   0  0  0  0  0  0  0  0  0  0  0  0
  161.5460  204.8340  148.0360 C   0  0  0  0  0  0  0  0  0  0  0  0
  161.0710  202.4950  148.4730 C   0  0  0  0  0  0  0  0  0  0  0  0
  160.5830  202.8260  149.7390 C   0  0  0  0  0  3  0  0  0  0  0  0
  161.5580  203.4960  147.6290 C   0  0  0  0  0  3  0  0  0  0  0  0
  160.5740  204.1590  150.1570 C   0  0  0  0  0  3  0  0  0  0  0  0
  161.0430  205.1740  149.3120 C   0  0  0  0  0  0  0  0  0  0  0  0
  161.0840  201.0770  148.0280 C   0  0  0  0  0  1  0  0  0  0  0  0
  162.1400  205.8590  147.1290 C   0  0  0  0  0  2  0  0  0  0  0  0
  162.8730  205.2310  146.1220 O   0  0  0  0  0  1  0  0  0  0  0  0
  161.2310  207.5100  153.9160 C   0  0  0  0  0  0  0  0  0  0  0  0
  161.0990  206.8560  151.1850 C   0  0  0  0  0  0  0  0  0  0  0  0
  160.6800  208.1160  151.6390 C   0  0  0  0  0  3  0  0  0  0  0  0
  161.6630  206.2550  153.4760 C   0  0  0  0  0  3  0  0  0  0  0  0
  160.7400  208.4410  152.9960 C   0  0  0  0  0  3  0  0  0  0  0  0
  161.6020  205.9320  152.1180 C   0  0  0  0  0  3  0  0  0  0  0  0
  161.2630  207.8440  155.3660 C   0  0  0  0  0  2  0  0  0  0  0  0
  160.1840  208.8610  155.6840 C   0  0  0  0  0  2  0  0  0  0  0  0
  160.7480  209.9530  156.3500 O   0  0  0  0  0  0  0  0  0  0  0  0
  160.4300  212.2730  156.0300 N   0  0  0  0  0  2  0  0  0  0  0  0
  160.7790  210.9900  155.4090 C   0  0  1  0  0  0  0  0  0  0  0  0
  161.8940  211.1080  154.5920 F   0  0  0  0  0  0  0  0  0  0  0  0
  159.5040  211.6310  155.0770 C   0  0  2  0  0  3  0  0  0  0  0  0
  158.1730  212.6440  153.2580 C   0  0  0  0  0  2  0  0  0  0  0  0
  158.9330  211.4710  152.6790 C   0  0  0  0  0  2  0  0  0  0  0  0
  159.5780  212.3420  153.7390 C   0  0  0  0  0  3  0  0  0  0  0  0
  161.0870  207.5710  148.8340 N   0  0  0  0  0  2  0  0  0  0  0  0
  162.1630  208.4710  149.2280 C   0  0  0  0  0  2  0  0  0  0  0  0
  162.0020  209.8070  148.5230 C   0  0  0  0  0  2  0  0  0  0  0  0
  162.0720  210.9530  149.5180 C   0  0  0  0  0  2  0  0  0  0  0  0
  161.6350  212.2610  148.8720 C   0  0  2  0  0  3  0  0  0  0  0  0
  162.2760  212.6420  146.8500 N   0  0  0  0  0  2  0  0  0  0  0  0
  159.8700  212.7810  147.2050 C   0  0  0  0  0  1  0  0  0  0  0  0
  161.1350  211.9850  147.4750 C   0  0  2  0  0  3  0  0  0  0  0  0
  162.8030  212.9260  148.1780 C   0  0  0  0  0  2  0  0  0  0  0  0
  1 12  1  0  0  0  0
  2  7  1  0  0  0  0
  3  4  2  0  0  0  0
  4  6  1  0  0  0  0
  5  2  2  0  0  0  0
  5  3  1  0  0  0  0
  7  1  1  0  0  0  0
  7  6  2  0  0  0  0
  8  3  1  0  0  0  0
  9  2  1  0  0  0  0
 10  9  1  0  0  0  0
 11 17  1  0  0  0  0
 12 13  2  0  0  0  0
 12 16  1  0  0  0  0
 13 15  1  0  0  0  0
 14 11  1  0  0  0  0
 15 11  2  0  0  0  0
 16 14  2  0  0  0  0
 17 18  1  0  0  0  0
 18 19  1  0  0  0  0
 21 22  1  6  0  0  0
 21 20  1  0  0  0  0
 21 19  1  0  0  0  0
 23 26  1  6  0  0  0
 23 21  1  0  0  0  0
 23 20  1  0  0  0  0
 24 26  1  0  0  0  0
 25 24  1  0  0  0  0
 25 26  1  0  0  0  0
 27 28  1  0  0  0  0
 27  1  1  0  0  0  0
 29 28  1  0  0  0  0
 29 30  1  0  0  0  0
 31 30  1  6  0  0  0
 32 34  1  0  0  0  0
 32 35  1  0  0  0  0
 34 33  1  1  0  0  0
 34 31  1  0  0  0  0
 35 31  1  0  0  0  0
M  END
>  <MODEL>
2

>  <REMARK>
 VINA RESULT:      -7.8      2.816      7.202
  Name = 
  13 active torsions:
  status: ('A' for Active; 'I' for Inactive)
    1  A    between atoms: C_1  and  C_20
    2  A    between atoms: C_3  and  C_8
    3  A    between atoms: C_3  and  C_28
    4  A    between atoms: C_4  and  C_7
    5  A    between atoms: N_5  and  C_11
    6  A    between atoms: N_5  and  N_31
    7  A    between atoms: C_11  and  C_30
    8  A    between atoms: C_15  and  O_17
    9  A    between atoms: O_17  and  C_28
   10  A    between atoms: C_20  and  C_30
   11  A    between atoms: C_21  and  N_31
   12  A    between atoms: C_23  and  C_29
   13  A    between atoms: N_31  and  C_32
                            x       y       z     vdW  Elec       q    Type
                         _______ _______ _______ _____ _____    ______ ____

>  <TORSDO>
F 13

$$$$
=
 OpenBabel11052409263D

 35 39  0  0  1  0  0  0  0  0999 V2000
  161.5630  209.3870  152.3120 N   0  0  0  0  0  0  0  0  0  0  0  0
  161.1950  210.8270  154.3080 C   0  0  0  0  0  0  0  0  0  0  0  0
  159.1170  212.0610  154.5220 C   0  0  0  0  0  0  0  0  0  0  0  0
  158.6720  211.5330  153.3080 C   0  0  0  0  0  3  0  0  0  0  0  0
  160.3770  211.7150  155.0150 C   0  0  0  0  0  3  0  0  0  0  0  0
  159.4850  210.6520  152.5900 C   0  0  0  0  0  3  0  0  0  0  0  0
  160.7440  210.2830  153.0830 C   0  0  0  0  0  0  0  0  0  0  0  0
  158.2530  213.0000  155.2850 C   0  0  0  0  0  1  0  0  0  0  0  0
  162.5600  210.5420  154.8370 C   0  0  0  0  0  2  0  0  0  0  0  0
  162.4640  209.9410  156.0920 O   0  0  0  0  0  1  0  0  0  0  0  0
  161.0050  205.1700  152.4310 C   0  0  0  0  0  0  0  0  0  0  0  0
  161.3790  207.9560  152.3610 C   0  0  0  0  0  0  0  0  0  0  0  0
  161.3100  207.2140  151.1710 C   0  0  0  0  0  3  0  0  0  0  0  0
  161.0610  205.8990  153.6230 C   0  0  0  0  0  3  0  0  0  0  0  0
  161.1290  205.8300  151.2040 C   0  0  0  0  0  3  0  0  0  0  0  0
  161.2420  207.2840  153.5880 C   0  0  0  0  0  3  0  0  0  0  0  0
  160.8480  203.6910  152.4670 C   0  0  0  0  0  2  0  0  0  0  0  0
  161.5350  203.0710  151.2660 C   0  0  0  0  0  2  0  0  0  0  0  0
  160.7980  201.9710  150.8180 O   0  0  0  0  0  0  0  0  0  0  0  0
  161.5290  201.3940  148.6460 N   0  0  0  0  0  2  0  0  0  0  0  0
  160.5930  202.1890  149.4500 C   0  0  1  0  0  0  0  0  0  0  0  0
  159.3000  202.1060  148.9540 F   0  0  0  0  0  0  0  0  0  0  0  0
  161.6650  202.8620  148.7120 C   0  0  2  0  0  3  0  0  0  0  0  0
  162.2390  204.3190  146.8000 C   0  0  0  0  0  2  0  0  0  0  0  0
  161.1250  204.9870  147.5750 C   0  0  0  0  0  2  0  0  0  0  0  0
  161.1450  203.4790  147.4270 C   0  0  0  0  0  3  0  0  0  0  0  0
  162.4810  209.9310  151.3980 N   0  0  0  0  0  2  0  0  0  0  0  0
  161.7560  210.8750  150.5570 C   0  0  0  0  0  2  0  0  0  0  0  0
  162.0090  210.5600  149.0930 C   0  0  0  0  0  2  0  0  0  0  0  0
  162.7290  211.7120  148.4120 C   0  0  0  0  0  2  0  0  0  0  0  0
  161.7580  212.8350  148.0740 C   0  0  2  0  0  3  0  0  0  0  0  0
  161.3630  213.2230  145.9900 N   0  0  0  0  0  2  0  0  0  0  0  0
  159.3840  212.8160  147.3510 C   0  0  0  0  0  1  0  0  0  0  0  0
  160.7930  212.3590  147.0160 C   0  0  2  0  0  3  0  0  0  0  0  0
  162.3210  213.7090  146.9740 C   0  0  0  0  0  2  0  0  0  0  0  0
  1 12  1  0  0  0  0
  1  7  1  0  0  0  0
  2  9  1  0  0  0  0
  2  5  1  0  0  0  0
  3  5  2  0  0  0  0
  3  8  1  0  0  0  0
  4  3  1  0  0  0  0
  6  7  1  0  0  0  0
  6  4  2  0  0  0  0
  7  2  2  0  0  0  0
  9 10  1  0  0  0  0
 11 17  1  0  0  0  0
 11 14  1  0  0  0  0
 12 16  1  0  0  0  0
 13 15  1  0  0  0  0
 13 12  2  0  0  0  0
 15 11  2  0  0  0  0
 16 14  2  0  0  0  0
 18 17  1  0  0  0  0
 19 18  1  0  0  0  0
 20 23  1  0  0  0  0
 20 21  1  0  0  0  0
 21 22  1  6  0  0  0
 21 19  1  0  0  0  0
 23 26  1  6  0  0  0
 23 21  1  0  0  0  0
 24 26  1  0  0  0  0
 24 25  1  0  0  0  0
 26 25  1  0  0  0  0
 27  1  1  0  0  0  0
 28 27  1  0  0  0  0
 29 28  1  0  0  0  0
 30 29  1  0  0  0  0
 31 30  1  6  0  0  0
 32 35  1  0  0  0  0
 32 34  1  0  0  0  0
 34 33  1  1  0  0  0
 34 31  1  0  0  0  0
 35 31  1  0  0  0  0
M  END
>  <MODEL>
3

>  <REMARK>
 VINA RESULT:      -7.8      1.903      3.431
  Name = 
  13 active torsions:
  status: ('A' for Active; 'I' for Inactive)
    1  A    between atoms: C_1  and  C_20
    2  A    between atoms: C_3  and  C_8
    3  A    between atoms: C_3  and  C_28
    4  A    between atoms: C_4  and  C_7
    5  A    between atoms: N_5  and  C_11
    6  A    between atoms: N_5  and  N_31
    7  A    between atoms: C_11  and  C_30
    8  A    between atoms: C_15  and  O_17
    9  A    between atoms: O_17  and  C_28
   10  A    between atoms: C_20  and  C_30
   11  A    between atoms: C_21  and  N_31
   12  A    between atoms: C_23  and  C_29
   13  A    between atoms: N_31  and  C_32
                            x       y       z     vdW  Elec       q    Type
                         _______ _______ _______ _____ _____    ______ ____

>  <TORSDO>
F 13

$$$$
=
 OpenBabel11052409263D

 35 39  0  0  1  0  0  0  0  0999 V2000
  160.9660  209.0330  153.8970 N   0  0  0  0  0  0  0  0  0  0  0  0
  161.0660  211.0170  155.3960 C   0  0  0  0  0  0  0  0  0  0  0  0
  159.1810  212.5420  155.4860 C   0  0  0  0  0  0  0  0  0  0  0  0
  158.4980  211.7600  154.5510 C   0  0  0  0  0  3  0  0  0  0  0  0
  160.4630  212.1750  155.9000 C   0  0  0  0  0  3  0  0  0  0  0  0
  159.0950  210.6060  154.0370 C   0  0  0  0  0  3  0  0  0  0  0  0
  160.3740  210.2180  154.4580 C   0  0  0  0  0  0  0  0  0  0  0  0
  158.5480  213.7700  156.0310 C   0  0  0  0  0  1  0  0  0  0  0  0
  162.4630  210.7030  155.8140 C   0  0  0  0  0  2  0  0  0  0  0  0
  162.4680  210.2140  157.1200 O   0  0  0  0  0  1  0  0  0  0  0  0
  161.9140  208.7740  149.7570 C   0  0  0  0  0  0  0  0  0  0  0  0
  161.2880  208.9360  152.4930 C   0  0  0  0  0  0  0  0  0  0  0  0
  162.0150  209.9590  151.8650 C   0  0  0  0  0  3  0  0  0  0  0  0
  161.1800  207.7530  150.3680 C   0  0  0  0  0  3  0  0  0  0  0  0
  162.3310  209.8780  150.5070 C   0  0  0  0  0  3  0  0  0  0  0  0
  160.8650  207.8360  151.7270 C   0  0  0  0  0  3  0  0  0  0  0  0
  162.2810  208.6720  148.3180 C   0  0  0  0  0  2  0  0  0  0  0  0
  162.4840  207.2170  147.9410 C   0  0  0  0  0  2  0  0  0  0  0  0
  161.4730  206.8120  147.0650 O   0  0  0  0  0  0  0  0  0  0  0  0
  161.7980  205.8170  144.9470 N   0  0  0  0  0  2  0  0  0  0  0  0
  161.9820  205.6920  146.3970 C   0  0  1  0  0  0  0  0  0  0  0  0
  163.2630  205.2610  146.7110 F   0  0  0  0  0  0  0  0  0  0  0  0
  161.0180  204.8260  145.7130 C   0  0  2  0  0  3  0  0  0  0  0  0
  160.4560  202.4620  145.2590 C   0  0  0  0  0  2  0  0  0  0  0  0
  161.1440  202.5260  146.6050 C   0  0  0  0  0  2  0  0  0  0  0  0
  161.5920  203.4400  145.4830 C   0  0  0  0  0  3  0  0  0  0  0  0
  161.3500  207.9970  154.7640 N   0  0  0  0  0  2  0  0  0  0  0  0
  160.6230  206.7990  154.3650 C   0  0  0  0  0  2  0  0  0  0  0  0
  161.5860  205.7860  153.7710 C   0  0  0  0  0  2  0  0  0  0  0  0
  160.8280  204.6410  153.1190 C   0  0  0  0  0  2  0  0  0  0  0  0
  161.5120  204.2000  151.8320 C   0  0  2  0  0  3  0  0  0  0  0  0
  160.8010  202.3960  150.8890 N   0  0  0  0  0  2  0  0  0  0  0  0
  160.8320  204.3620  149.4500 C   0  0  0  0  0  1  0  0  0  0  0  0
  160.4640  203.8130  150.8180 C   0  0  2  0  0  3  0  0  0  0  0  0
  161.8210  202.7190  151.8770 C   0  0  0  0  0  2  0  0  0  0  0  0
  1  7  1  0  0  0  0
  1 27  1  0  0  0  0
  2  9  1  0  0  0  0
  2  5  1  0  0  0  0
  3  5  2  0  0  0  0
  3  8  1  0  0  0  0
  4  3  1  0  0  0  0
  6  7  1  0  0  0  0
  6  4  2  0  0  0  0
  7  2  2  0  0  0  0
  9 10  1  0  0  0  0
 11 14  2  0  0  0  0
 11 15  1  0  0  0  0
 12  1  1  0  0  0  0
 13 12  1  0  0  0  0
 14 16  1  0  0  0  0
 15 13  2  0  0  0  0
 16 12  2  0  0  0  0
 17 11  1  0  0  0  0
 18 17  1  0  0  0  0
 19 18  1  0  0  0  0
 20 23  1  0  0  0  0
 20 21  1  0  0  0  0
 21 22  1  1  0  0  0
 21 19  1  0  0  0  0
 23 26  1  6  0  0  0
 23 21  1  0  0  0  0
 24 26  1  0  0  0  0
 24 25  1  0  0  0  0
 26 25  1  0  0  0  0
 28 27  1  0  0  0  0
 29 28  1  0  0  0  0
 30 29  1  0  0  0  0
 31 35  1  0  0  0  0
 31 30  1  1  0  0  0
 32 35  1  0  0  0  0
 34 33  1  6  0  0  0
 34 32  1  0  0  0  0
 34 31  1  0  0  0  0
M  END
>  <MODEL>
4

>  <REMARK>
 VINA RESULT:      -7.1      3.038      6.234
  Name = 
  13 active torsions:
  status: ('A' for Active; 'I' for Inactive)
    1  A    between atoms: C_1  and  C_20
    2  A    between atoms: C_3  and  C_8
    3  A    between atoms: C_3  and  C_28
    4  A    between atoms: C_4  and  C_7
    5  A    between atoms: N_5  and  C_11
    6  A    between atoms: N_5  and  N_31
    7  A    between atoms: C_11  and  C_30
    8  A    between atoms: C_15  and  O_17
    9  A    between atoms: O_17  and  C_28
   10  A    between atoms: C_20  and  C_30
   11  A    between atoms: C_21  and  N_31
   12  A    between atoms: C_23  and  C_29
   13  A    between atoms: N_31  and  C_32
                            x       y       z     vdW  Elec       q    Type
                         _______ _______ _______ _____ _____    ______ ____

>  <TORSDO>
F 13

$$$$
=
 OpenBabel11052409263D

 35 39  0  0  1  0  0  0  0  0999 V2000
  161.3020  207.6010  150.8620 N   0  0  0  0  0  0  0  0  0  0  0  0
  161.4910  209.8670  151.8710 C   0  0  0  0  0  0  0  0  0  0  0  0
  161.0230  210.1650  154.2330 C   0  0  0  0  0  0  0  0  0  0  0  0
  160.7510  208.8010  154.3560 C   0  0  0  0  0  3  0  0  0  0  0  0
  161.3840  210.6970  152.9930 C   0  0  0  0  0  3  0  0  0  0  0  0
  160.8480  207.9660  153.2400 C   0  0  0  0  0  3  0  0  0  0  0  0
  161.2270  208.4840  151.9940 C   0  0  0  0  0  0  0  0  0  0  0  0
  160.9180  211.0540  155.4190 C   0  0  0  0  0  1  0  0  0  0  0  0
  161.8110  210.4910  150.5540 C   0  0  0  0  0  2  0  0  0  0  0  0
  161.2130  211.7480  150.4680 O   0  0  0  0  0  1  0  0  0  0  0  0
  160.9880  203.3790  151.2860 C   0  0  0  0  0  0  0  0  0  0  0  0
  161.2050  206.1680  151.0070 C   0  0  0  0  0  0  0  0  0  0  0  0
  160.2330  205.4520  150.2910 C   0  0  0  0  0  3  0  0  0  0  0  0
  161.9530  204.0820  152.0130 C   0  0  0  0  0  3  0  0  0  0  0  0
  160.1270  204.0660  150.4250 C   0  0  0  0  0  3  0  0  0  0  0  0
  162.0580  205.4680  151.8780 C   0  0  0  0  0  3  0  0  0  0  0  0
  160.8980  201.8980  151.4010 C   0  0  0  0  0  2  0  0  0  0  0  0
  161.4610  201.2480  150.1530 C   0  0  0  0  0  2  0  0  0  0  0  0
  160.4280  201.0020  149.2440 O   0  0  0  0  0  0  0  0  0  0  0  0
  161.6320  202.4340  147.8010 N   0  0  0  0  0  2  0  0  0  0  0  0
  161.0090  201.1170  147.9750 C   0  0  1  0  0  0  0  0  0  0  0  0
  161.8410  200.0990  147.5340 F   0  0  0  0  0  0  0  0  0  0  0  0
  160.4100  202.0840  147.0510 C   0  0  2  0  0  3  0  0  0  0  0  0
  159.7120  202.3410  144.6940 C   0  0  0  0  0  2  0  0  0  0  0  0
  159.7060  200.8640  145.0220 C   0  0  0  0  0  2  0  0  0  0  0  0
  160.7710  201.7650  145.6120 C   0  0  0  0  0  3  0  0  0  0  0  0
  161.3470  208.1600  149.5740 N   0  0  0  0  0  2  0  0  0  0  0  0
  162.7050  207.9980  149.0720 C   0  0  0  0  0  2  0  0  0  0  0  0
  162.7060  207.0540  147.8820 C   0  0  0  0  0  2  0  0  0  0  0  0
  161.3010  206.8810  147.3310 C   0  0  0  0  0  2  0  0  0  0  0  0
  161.2020  205.6240  146.4780 C   0  0  2  0  0  3  0  0  0  0  0  0
  161.2710  205.8590  144.3360 N   0  0  0  0  0  2  0  0  0  0  0  0
  162.9150  204.3110  145.2510 C   0  0  0  0  0  1  0  0  0  0  0  0
  162.2540  205.6700  145.3960 C   0  0  2  0  0  3  0  0  0  0  0  0
  160.2210  205.8270  145.3450 C   0  0  0  0  0  2  0  0  0  0  0  0
  1 12  1  0  0  0  0
  1  7  1  0  0  0  0
  2  7  2  0  0  0  0
  2  5  1  0  0  0  0
  3  4  1  0  0  0  0
  3  8  1  0  0  0  0
  5  3  2  0  0  0  0
  6  4  2  0  0  0  0
  7  6  1  0  0  0  0
  9  2  1  0  0  0  0
 10  9  1  0  0  0  0
 11 17  1  0  0  0  0
 11 14  1  0  0  0  0
 12 16  1  0  0  0  0
 13 15  1  0  0  0  0
 13 12  2  0  0  0  0
 15 11  2  0  0  0  0
 16 14  2  0  0  0  0
 18 17  1  0  0  0  0
 19 18  1  0  0  0  0
 20 21  1  0  0  0  0
 21 22  1  6  0  0  0
 21 19  1  0  0  0  0
 23 26  1  6  0  0  0
 23 20  1  0  0  0  0
 23 21  1  0  0  0  0
 24 25  1  0  0  0  0
 24 26  1  0  0  0  0
 25 26  1  0  0  0  0
 27  1  1  0  0  0  0
 28 27  1  0  0  0  0
 29 28  1  0  0  0  0
 30 29  1  0  0  0  0
 31 30  1  1  0  0  0
 32 35  1  0  0  0  0
 32 34  1  0  0  0  0
 34 33  1  6  0  0  0
 34 31  1  0  0  0  0
 35 31  1  0  0  0  0
M  END
>  <MODEL>
5

>  <REMARK>
 VINA RESULT:      -7.0      2.575      4.549
  Name = 
  13 active torsions:
  status: ('A' for Active; 'I' for Inactive)
    1  A    between atoms: C_1  and  C_20
    2  A    between atoms: C_3  and  C_8
    3  A    between atoms: C_3  and  C_28
    4  A    between atoms: C_4  and  C_7
    5  A    between atoms: N_5  and  C_11
    6  A    between atoms: N_5  and  N_31
    7  A    between atoms: C_11  and  C_30
    8  A    between atoms: C_15  and  O_17
    9  A    between atoms: O_17  and  C_28
   10  A    between atoms: C_20  and  C_30
   11  A    between atoms: C_21  and  N_31
   12  A    between atoms: C_23  and  C_29
   13  A    between atoms: N_31  and  C_32
                            x       y       z     vdW  Elec       q    Type
                         _______ _______ _______ _____ _____    ______ ____

>  <TORSDO>
F 13

$$$$
=
 OpenBabel11052409263D

 35 39  0  0  1  0  0  0  0  0999 V2000
  161.4040  212.4470  148.4870 N   0  0  0  0  0  0  0  0  0  0  0  0
  160.3760  212.5620  146.2240 C   0  0  0  0  0  0  0  0  0  0  0  0
  161.7470  213.1770  144.3200 C   0  0  0  0  0  0  0  0  0  0  0  0
  162.8600  213.3010  145.1550 C   0  0  0  0  0  3  0  0  0  0  0  0
  160.5080  212.8170  144.8550 C   0  0  0  0  0  3  0  0  0  0  0  0
  162.7350  213.0560  146.5240 C   0  0  0  0  0  3  0  0  0  0  0  0
  161.5020  212.6770  147.0700 C   0  0  0  0  0  0  0  0  0  0  0  0
  161.8780  213.4400  142.8630 C   0  0  0  0  0  1  0  0  0  0  0  0
  159.0190  212.2500  146.7610 C   0  0  0  0  0  2  0  0  0  0  0  0
  158.2670  213.4200  146.8580 O   0  0  0  0  0  1  0  0  0  0  0  0
  162.2790  208.6650  150.2290 C   0  0  0  0  0  0  0  0  0  0  0  0
  161.6950  211.1600  149.0720 C   0  0  0  0  0  0  0  0  0  0  0  0
  161.9540  211.0540  150.4470 C   0  0  0  0  0  3  0  0  0  0  0  0
  162.0340  208.7590  148.8550 C   0  0  0  0  0  3  0  0  0  0  0  0
  162.2390  209.8150  151.0240 C   0  0  0  0  0  3  0  0  0  0  0  0
  161.7490  210.0000  148.2800 C   0  0  0  0  0  3  0  0  0  0  0  0
  162.5490  207.3400  150.8500 C   0  0  0  0  0  2  0  0  0  0  0  0
  161.2470  206.5850  151.0380 C   0  0  0  0  0  2  0  0  0  0  0  0
  161.4170  205.2520  150.6510 O   0  0  0  0  0  0  0  0  0  0  0  0
  160.6760  203.7780  148.9590 N   0  0  0  0  0  2  0  0  0  0  0  0
  160.9110  205.1730  149.3470 C   0  0  1  0  0  0  0  0  0  0  0  0
  159.8390  205.9840  149.0040 F   0  0  0  0  0  0  0  0  0  0  0  0
  161.7680  204.5500  148.3350 C   0  0  2  0  0  3  0  0  0  0  0  0
  162.4870  204.6600  145.9730 C   0  0  0  0  0  2  0  0  0  0  0  0
  162.2760  206.0760  146.4600 C   0  0  0  0  0  2  0  0  0  0  0  0
  161.3580  204.9690  146.9350 C   0  0  0  0  0  3  0  0  0  0  0  0
  161.1370  213.5400  149.3290 N   0  0  0  0  0  2  0  0  0  0  0  0
  159.8090  213.3450  149.8950 C   0  0  0  0  0  2  0  0  0  0  0  0
  159.7130  214.0460  151.2390 C   0  0  0  0  0  2  0  0  0  0  0  0
  158.5710  213.4760  152.0620 C   0  0  0  0  0  2  0  0  0  0  0  0
  159.0870  212.8680  153.3590 C   0  0  2  0  0  3  0  0  0  0  0  0
  157.8180  211.4520  154.3750 N   0  0  0  0  0  2  0  0  0  0  0  0
  160.0620  210.6450  153.8780 C   0  0  0  0  0  1  0  0  0  0  0  0
  158.8440  211.3780  153.3430 C   0  0  2  0  0  3  0  0  0  0  0  0
  158.0100  212.8950  154.4230 C   0  0  0  0  0  2  0  0  0  0  0  0
  1 12  1  0  0  0  0
  1 27  1  0  0  0  0
  2  9  1  0  0  0  0
  2  7  1  0  0  0  0
  3  5  1  0  0  0  0
  3  4  2  0  0  0  0
  4  6  1  0  0  0  0
  5  2  2  0  0  0  0
  6  7  2  0  0  0  0
  7  1  1  0  0  0  0
  8  3  1  0  0  0  0
  9 10  1  0  0  0  0
 11 17  1  0  0  0  0
 11 15  1  0  0  0  0
 12 13  1  0  0  0  0
 13 15  2  0  0  0  0
 14 11  2  0  0  0  0
 16 14  1  0  0  0  0
 16 12  2  0  0  0  0
 17 18  1  0  0  0  0
 19 18  1  0  0  0  0
 20 21  1  0  0  0  0
 21 22  1  6  0  0  0
 21 19  1  0  0  0  0
 23 26  1  6  0  0  0
 23 20  1  0  0  0  0
 23 21  1  0  0  0  0
 24 25  1  0  0  0  0
 24 26  1  0  0  0  0
 25 26  1  0  0  0  0
 27 28  1  0  0  0  0
 28 29  1  0  0  0  0
 29 30  1  0  0  0  0
 31 30  1  6  0  0  0
 31 35  1  0  0  0  0
 32 35  1  0  0  0  0
 34 31  1  0  0  0  0
 34 33  1  1  0  0  0
 34 32  1  0  0  0  0
M  END
>  <MODEL>
6

>  <REMARK>
 VINA RESULT:      -6.9      2.712      6.770
  Name = 
  13 active torsions:
  status: ('A' for Active; 'I' for Inactive)
    1  A    between atoms: C_1  and  C_20
    2  A    between atoms: C_3  and  C_8
    3  A    between atoms: C_3  and  C_28
    4  A    between atoms: C_4  and  C_7
    5  A    between atoms: N_5  and  C_11
    6  A    between atoms: N_5  and  N_31
    7  A    between atoms: C_11  and  C_30
    8  A    between atoms: C_15  and  O_17
    9  A    between atoms: O_17  and  C_28
   10  A    between atoms: C_20  and  C_30
   11  A    between atoms: C_21  and  N_31
   12  A    between atoms: C_23  and  C_29
   13  A    between atoms: N_31  and  C_32
                            x       y       z     vdW  Elec       q    Type
                         _______ _______ _______ _____ _____    ______ ____

>  <TORSDO>
F 13

$$$$
=
 OpenBabel11052409263D

 35 39  0  0  1  0  0  0  0  0999 V2000
  160.9080  205.7830  148.6390 N   0  0  0  0  0  0  0  0  0  0  0  0
  162.2700  205.4140  146.5890 C   0  0  0  0  0  0  0  0  0  0  0  0
  161.2820  205.8180  144.4110 C   0  0  0  0  0  0  0  0  0  0  0  0
  160.0810  206.1910  145.0190 C   0  0  0  0  0  3  0  0  0  0  0  0
  162.3690  205.4240  145.1940 C   0  0  0  0  0  3  0  0  0  0  0  0
  159.9710  206.1780  146.4120 C   0  0  0  0  0  3  0  0  0  0  0  0
  161.0600  205.8010  147.2090 C   0  0  0  0  0  0  0  0  0  0  0  0
  161.3990  205.8290  142.9290 C   0  0  0  0  0  1  0  0  0  0  0  0
  163.4330  204.9190  147.3810 C   0  0  0  0  0  2  0  0  0  0  0  0
  164.3670  204.3280  146.5310 O   0  0  0  0  0  1  0  0  0  0  0  0
  161.8520  209.1530  151.0580 C   0  0  0  0  0  0  0  0  0  0  0  0
  161.2360  206.9280  149.4540 C   0  0  0  0  0  0  0  0  0  0  0  0
  161.0230  206.8900  150.8400 C   0  0  0  0  0  3  0  0  0  0  0  0
  162.0580  209.2090  149.6770 C   0  0  0  0  0  3  0  0  0  0  0  0
  161.3330  207.9920  151.6400 C   0  0  0  0  0  3  0  0  0  0  0  0
  161.7470  208.1050  148.8790 C   0  0  0  0  0  3  0  0  0  0  0  0
  162.2150  210.3150  151.9150 C   0  0  0  0  0  2  0  0  0  0  0  0
  160.9660  210.9040  152.5400 C   0  0  0  0  0  2  0  0  0  0  0  0
  161.2080  211.2020  153.8850 O   0  0  0  0  0  0  0  0  0  0  0  0
  160.4770  210.6200  156.0550 N   0  0  0  0  0  2  0  0  0  0  0  0
  160.3210  210.4000  154.6130 C   0  0  1  0  0  0  0  0  0  0  0  0
  158.9840  210.3890  154.2410 F   0  0  0  0  0  0  0  0  0  0  0  0
  160.9030  209.3450  155.4470 C   0  0  2  0  0  3  0  0  0  0  0  0
  160.5240  207.2170  156.6450 C   0  0  0  0  0  2  0  0  0  0  0  0
  160.3510  206.9540  155.1660 C   0  0  0  0  0  2  0  0  0  0  0  0
  159.8830  208.2660  155.7600 C   0  0  0  0  0  3  0  0  0  0  0  0
  160.3100  204.6610  149.2380 N   0  0  0  0  0  2  0  0  0  0  0  0
  161.3720  203.8660  149.8390 C   0  0  0  0  0  2  0  0  0  0  0  0
  160.8020  202.5620  150.3710 C   0  0  0  0  0  2  0  0  0  0  0  0
  160.2760  201.7010  149.2340 C   0  0  0  0  0  2  0  0  0  0  0  0
  161.2180  201.7460  148.0390 C   0  0  2  0  0  3  0  0  0  0  0  0
  161.1980  200.0670  146.6850 N   0  0  0  0  0  2  0  0  0  0  0  0
  160.8300  202.2350  145.6360 C   0  0  0  0  0  1  0  0  0  0  0  0
  160.4700  201.3250  146.7970 C   0  0  2  0  0  3  0  0  0  0  0  0
  161.9430  200.4260  147.8850 C   0  0  0  0  0  2  0  0  0  0  0  0
  1 27  1  0  0  0  0
  1 12  1  0  0  0  0
  2  7  1  0  0  0  0
  2  9  1  0  0  0  0
  3  4  2  0  0  0  0
  3  5  1  0  0  0  0
  4  6  1  0  0  0  0
  5  2  2  0  0  0  0
  6  7  2  0  0  0  0
  7  1  1  0  0  0  0
  8  3  1  0  0  0  0
 10  9  1  0  0  0  0
 11 15  1  0  0  0  0
 11 17  1  0  0  0  0
 12 13  1  0  0  0  0
 13 15  2  0  0  0  0
 14 11  2  0  0  0  0
 16 12  2  0  0  0  0
 16 14  1  0  0  0  0
 17 18  1  0  0  0  0
 18 19  1  0  0  0  0
 19 21  1  0  0  0  0
 21 22  1  6  0  0  0
 21 23  1  0  0  0  0
 21 20  1  0  0  0  0
 23 26  1  1  0  0  0
 23 20  1  0  0  0  0
 25 26  1  0  0  0  0
 25 24  1  0  0  0  0
 26 24  1  0  0  0  0
 27 28  1  0  0  0  0
 28 29  1  0  0  0  0
 30 29  1  0  0  0  0
 31 30  1  1  0  0  0
 32 34  1  0  0  0  0
 32 35  1  0  0  0  0
 34 33  1  6  0  0  0
 34 31  1  0  0  0  0
 35 31  1  0  0  0  0
M  END
>  <MODEL>
7

>  <REMARK>
 VINA RESULT:      -6.6      3.521      8.783
  Name = 
  13 active torsions:
  status: ('A' for Active; 'I' for Inactive)
    1  A    between atoms: C_1  and  C_20
    2  A    between atoms: C_3  and  C_8
    3  A    between atoms: C_3  and  C_28
    4  A    between atoms: C_4  and  C_7
    5  A    between atoms: N_5  and  C_11
    6  A    between atoms: N_5  and  N_31
    7  A    between atoms: C_11  and  C_30
    8  A    between atoms: C_15  and  O_17
    9  A    between atoms: O_17  and  C_28
   10  A    between atoms: C_20  and  C_30
   11  A    between atoms: C_21  and  N_31
   12  A    between atoms: C_23  and  C_29
   13  A    between atoms: N_31  and  C_32
                            x       y       z     vdW  Elec       q    Type
                         _______ _______ _______ _____ _____    ______ ____

>  <TORSDO>
F 13

$$$$
=
 OpenBabel11052409263D

 35 39  0  0  1  0  0  0  0  0999 V2000
  162.0780  207.2500  149.4870 N   0  0  0  0  0  0  0  0  0  0  0  0
  161.1050  204.9980  149.0680 C   0  0  0  0  0  0  0  0  0  0  0  0
  161.4300  203.9400  146.9100 C   0  0  0  0  0  0  0  0  0  0  0  0
  162.1660  205.0440  146.4740 C   0  0  0  0  0  3  0  0  0  0  0  0
  160.8960  203.9220  148.1990 C   0  0  0  0  0  3  0  0  0  0  0  0
  162.3750  206.1260  147.3320 C   0  0  0  0  0  3  0  0  0  0  0  0
  161.8590  206.1120  148.6340 C   0  0  0  0  0  0  0  0  0  0  0  0
  161.2060  202.7890  145.9970 C   0  0  0  0  0  1  0  0  0  0  0  0
  160.4560  204.9650  150.4110 C   0  0  0  0  0  2  0  0  0  0  0  0
  160.4560  203.6600  150.9050 O   0  0  0  0  0  1  0  0  0  0  0  0
  161.2200  207.1030  153.6520 C   0  0  0  0  0  0  0  0  0  0  0  0
  161.7850  207.2100  150.8990 C   0  0  0  0  0  0  0  0  0  0  0  0
  162.4410  206.2860  151.7280 C   0  0  0  0  0  3  0  0  0  0  0  0
  160.5510  208.0200  152.8350 C   0  0  0  0  0  3  0  0  0  0  0  0
  162.1650  206.2350  153.0960 C   0  0  0  0  0  3  0  0  0  0  0  0
  160.8290  208.0700  151.4670 C   0  0  0  0  0  3  0  0  0  0  0  0
  160.9520  207.0710  155.1150 C   0  0  0  0  0  2  0  0  0  0  0  0
  161.5810  208.2800  155.7800 C   0  0  0  0  0  2  0  0  0  0  0  0
  160.5790  209.1240  156.2680 O   0  0  0  0  0  0  0  0  0  0  0  0
  160.2740  211.4650  156.3430 N   0  0  0  0  0  2  0  0  0  0  0  0
  160.7040  210.3140  155.5420 C   0  0  1  0  0  0  0  0  0  0  0  0
  161.9030  210.5680  154.8910 F   0  0  0  0  0  0  0  0  0  0  0  0
  159.4680  211.0170  155.1910 C   0  0  2  0  0  3  0  0  0  0  0  0
  158.3380  212.3850  153.4700 C   0  0  0  0  0  2  0  0  0  0  0  0
  159.1420  211.3170  152.7610 C   0  0  0  0  0  2  0  0  0  0  0  0
  159.6840  211.9590  154.0220 C   0  0  0  0  0  3  0  0  0  0  0  0
  162.7060  208.3840  148.9470 N   0  0  0  0  0  2  0  0  0  0  0  0
  161.6670  209.3560  148.6350 C   0  0  0  0  0  2  0  0  0  0  0  0
  162.0090  210.6970  149.2610 C   0  0  0  0  0  2  0  0  0  0  0  0
  162.3290  211.7250  148.1890 C   0  0  0  0  0  2  0  0  0  0  0  0
  161.9170  213.1210  148.6360 C   0  0  2  0  0  3  0  0  0  0  0  0
  160.2940  214.0720  147.5840 N   0  0  0  0  0  2  0  0  0  0  0  0
  160.0080  213.9330  149.9990 C   0  0  0  0  0  1  0  0  0  0  0  0
  160.4130  213.1900  148.7380 C   0  0  2  0  0  3  0  0  0  0  0  0
  161.7430  214.0310  147.4390 C   0  0  0  0  0  2  0  0  0  0  0  0
  1 12  1  0  0  0  0
  2  9  1  0  0  0  0
  3  5  1  0  0  0  0
  4  3  2  0  0  0  0
  4  6  1  0  0  0  0
  5  2  2  0  0  0  0
  6  7  2  0  0  0  0
  7  2  1  0  0  0  0
  7  1  1  0  0  0  0
  8  3  1  0  0  0  0
  9 10  1  0  0  0  0
 11 17  1  0  0  0  0
 12 16  2  0  0  0  0
 12 13  1  0  0  0  0
 13 15  2  0  0  0  0
 14 11  2  0  0  0  0
 15 11  1  0  0  0  0
 16 14  1  0  0  0  0
 17 18  1  0  0  0  0
 18 19  1  0  0  0  0
 21 22  1  6  0  0  0
 21 19  1  0  0  0  0
 21 20  1  0  0  0  0
 23 26  1  6  0  0  0
 23 21  1  0  0  0  0
 23 20  1  0  0  0  0
 24 26  1  0  0  0  0
 25 24  1  0  0  0  0
 25 26  1  0  0  0  0
 27  1  1  0  0  0  0
 28 27  1  0  0  0  0
 28 29  1  0  0  0  0
 30 29  1  0  0  0  0
 31 30  1  6  0  0  0
 31 34  1  0  0  0  0
 32 34  1  0  0  0  0
 34 33  1  1  0  0  0
 35 32  1  0  0  0  0
 35 31  1  0  0  0  0
M  END
>  <MODEL>
8

>  <REMARK>
 VINA RESULT:      -6.4      2.844      7.005
  Name = 
  13 active torsions:
  status: ('A' for Active; 'I' for Inactive)
    1  A    between atoms: C_1  and  C_20
    2  A    between atoms: C_3  and  C_8
    3  A    between atoms: C_3  and  C_28
    4  A    between atoms: C_4  and  C_7
    5  A    between atoms: N_5  and  C_11
    6  A    between atoms: N_5  and  N_31
    7  A    between atoms: C_11  and  C_30
    8  A    between atoms: C_15  and  O_17
    9  A    between atoms: O_17  and  C_28
   10  A    between atoms: C_20  and  C_30
   11  A    between atoms: C_21  and  N_31
   12  A    between atoms: C_23  and  C_29
   13  A    between atoms: N_31  and  C_32
                            x       y       z     vdW  Elec       q    Type
                         _______ _______ _______ _____ _____    ______ ____

>  <TORSDO>
F 13

$$$$
=
 OpenBabel11052409263D

 35 39  0  0  1  0  0  0  0  0999 V2000
  161.2410  206.3910  150.5370 N   0  0  0  0  0  0  0  0  0  0  0  0
  160.8890  203.9680  150.0920 C   0  0  0  0  0  0  0  0  0  0  0  0
  161.2060  203.1090  147.8450 C   0  0  0  0  0  0  0  0  0  0  0  0
  161.5400  204.3890  147.3980 C   0  0  0  0  0  3  0  0  0  0  0  0
  160.8740  202.9020  149.1860 C   0  0  0  0  0  3  0  0  0  0  0  0
  161.5510  205.4610  148.2940 C   0  0  0  0  0  3  0  0  0  0  0  0
  161.2370  205.2630  149.6440 C   0  0  0  0  0  0  0  0  0  0  0  0
  161.1930  201.9680  146.8930 C   0  0  0  0  0  1  0  0  0  0  0  0
  160.4590  203.7130  151.4970 C   0  0  0  0  0  2  0  0  0  0  0  0
  161.1480  202.6140  152.0110 O   0  0  0  0  0  1  0  0  0  0  0  0
  162.1000  210.3360  149.1960 C   0  0  0  0  0  0  0  0  0  0  0  0
  161.5370  207.7250  150.0750 C   0  0  0  0  0  0  0  0  0  0  0  0
  161.6730  208.7760  150.9960 C   0  0  0  0  0  3  0  0  0  0  0  0
  161.9560  209.3010  148.2670 C   0  0  0  0  0  3  0  0  0  0  0  0
  161.9560  210.0720  150.5620 C   0  0  0  0  0  3  0  0  0  0  0  0
  161.6730  208.0050  148.7040 C   0  0  0  0  0  3  0  0  0  0  0  0
  162.4370  211.7110  148.7370 C   0  0  0  0  0  2  0  0  0  0  0  0
  161.1680  212.4630  148.3870 C   0  0  0  0  0  2  0  0  0  0  0  0
  160.9170  212.3520  147.0160 O   0  0  0  0  0  0  0  0  0  0  0  0
  159.7100  214.3200  146.5140 N   0  0  0  0  0  2  0  0  0  0  0  0
  159.6380  212.8880  146.8230 C   0  0  1  0  0  0  0  0  0  0  0  0
  158.7670  212.2260  145.9700 F   0  0  0  0  0  0  0  0  0  0  0  0
  159.1670  213.8650  147.8080 C   0  0  2  0  0  3  0  0  0  0  0  0
  157.1720  214.4000  149.1640 C   0  0  0  0  0  2  0  0  0  0  0  0
  157.0720  212.9510  148.7440 C   0  0  0  0  0  2  0  0  0  0  0  0
  157.6540  213.9750  147.7920 C   0  0  0  0  0  3  0  0  0  0  0  0
  160.8250  206.1990  151.8650 N   0  0  0  0  0  2  0  0  0  0  0  0
  162.0140  206.2370  152.7070 C   0  0  0  0  0  2  0  0  0  0  0  0
  161.6150  206.4850  154.1520 C   0  0  0  0  0  2  0  0  0  0  0  0
  160.6110  207.6230  154.2450 C   0  0  0  0  0  2  0  0  0  0  0  0
  161.0950  208.6970  155.2090 C   0  0  2  0  0  3  0  0  0  0  0  0
  160.4620  210.7260  154.8490 N   0  0  0  0  0  2  0  0  0  0  0  0
  159.9690  209.8790  157.0790 C   0  0  0  0  0  1  0  0  0  0  0  0
  159.9360  209.5860  155.5900 C   0  0  2  0  0  3  0  0  0  0  0  0
  161.5970  209.9050  154.4490 C   0  0  0  0  0  2  0  0  0  0  0  0
  1 27  1  0  0  0  0
  2  9  1  0  0  0  0
  3  5  1  0  0  0  0
  4  3  2  0  0  0  0
  4  6  1  0  0  0  0
  5  2  2  0  0  0  0
  6  7  2  0  0  0  0
  7  2  1  0  0  0  0
  7  1  1  0  0  0  0
  8  3  1  0  0  0  0
  9 10  1  0  0  0  0
 11 15  1  0  0  0  0
 12  1  1  0  0  0  0
 12 13  1  0  0  0  0
 14 16  1  0  0  0  0
 14 11  2  0  0  0  0
 15 13  2  0  0  0  0
 16 12  2  0  0  0  0
 17 11  1  0  0  0  0
 18 17  1  0  0  0  0
 19 18  1  0  0  0  0
 20 21  1  0  0  0  0
 20 23  1  0  0  0  0
 21 22  1  6  0  0  0
 21 19  1  0  0  0  0
 21 23  1  0  0  0  0
 23 26  1  6  0  0  0
 25 24  1  0  0  0  0
 26 25  1  0  0  0  0
 26 24  1  0  0  0  0
 27 28  1  0  0  0  0
 28 29  1  0  0  0  0
 29 30  1  0  0  0  0
 31 30  1  6  0  0  0
 31 34  1  0  0  0  0
 32 34  1  0  0  0  0
 34 33  1  1  0  0  0
 35 32  1  0  0  0  0
 35 31  1  0  0  0  0
M  END
>  <MODEL>
9

>  <REMARK>
 VINA RESULT:      -6.2      2.946      8.351
  Name = 
  13 active torsions:
  status: ('A' for Active; 'I' for Inactive)
    1  A    between atoms: C_1  and  C_20
    2  A    between atoms: C_3  and  C_8
    3  A    between atoms: C_3  and  C_28
    4  A    between atoms: C_4  and  C_7
    5  A    between atoms: N_5  and  C_11
    6  A    between atoms: N_5  and  N_31
    7  A    between atoms: C_11  and  C_30
    8  A    between atoms: C_15  and  O_17
    9  A    between atoms: O_17  and  C_28
   10  A    between atoms: C_20  and  C_30
   11  A    between atoms: C_21  and  N_31
   12  A    between atoms: C_23  and  C_29
   13  A    between atoms: N_31  and  C_32
                            x       y       z     vdW  Elec       q    Type
                         _______ _______ _______ _____ _____    ______ ____

>  <TORSDO>
F 13

$$$$
