=
 OpenBabel11042422233D

 58 62  0  0  1  0  0  0  0  0999 V2000
  160.9900  209.0390  147.7380 O   0  0  0  0  0  1  0  0  0  0  0  0
  162.1360  209.5760  151.3000 C   0  0  1  0  0  3  0  0  0  0  0  0
  162.9750  208.8460  149.0560 C   0  0  0  0  0  2  0  0  0  0  0  0
  162.3730  208.3780  150.3750 C   0  0  0  0  0  2  0  0  0  0  0  0
  161.4300  210.8110  149.2460 C   0  0  0  0  0  0  0  0  0  0  0  0
  159.7190  213.7110  150.2270 O   0  0  0  0  0  0  0  0  0  0  0  0
  160.3600  212.6320  150.0880 C   0  0  0  0  0  0  0  0  0  0  0  0
  161.3640  210.6680  150.5730 C   0  0  0  0  0  0  0  0  0  0  0  0
  160.7350  211.8010  151.1720 N   0  0  0  0  0  0  0  0  0  0  0  0
  162.0130  209.7760  148.3230 C   0  0  2  0  0  3  0  0  0  0  0  0
  160.7830  212.0770  148.7750 C   0  0  1  0  0  3  0  0  0  0  0  0
  161.4840  213.7250  147.1170 C   0  0  0  0  0  0  0  0  0  0  0  0
  161.7900  212.9850  148.1480 C   0  0  0  0  0  3  0  0  0  0  0  0
  161.1840  214.4490  146.0720 C   0  0  0  0  0  3  0  0  0  0  0  0
  163.7740  214.1890  143.3440 C   0  0  0  0  0  3  0  0  0  0  0  0
  161.8170  214.2560  144.7720 C   0  0  0  0  0  0  0  0  0  0  0  0
  162.9600  213.9700  142.2260 C   0  0  0  0  0  3  0  0  0  0  0  0
  161.0140  214.0220  143.6520 C   0  0  0  0  0  3  0  0  0  0  0  0
  163.2060  214.3300  144.6130 C   0  0  0  0  0  3  0  0  0  0  0  0
  161.5770  213.8770  142.3720 C   0  0  0  0  0  0  0  0  0  0  0  0
  160.7600  213.7020  141.2070 N   0  0  0  0  0  2  0  0  0  0  0  0
  160.0520  212.5090  140.8520 C   0  0  0  0  0  0  0  0  0  0  0  0
  158.9880  212.5970  139.8950 N   0  0  0  0  0  2  0  0  0  0  0  0
  160.3580  211.4080  141.3780 O   0  0  0  0  0  0  0  0  0  0  0  0
  158.3390  211.5090  139.2290 C   0  0  0  0  0  0  0  0  0  0  0  0
  158.0670  210.1900  137.0170 C   0  0  0  0  0  2  0  0  0  0  0  0
  157.0810  211.2250  139.5640 C   0  0  0  0  0  3  0  0  0  0  0  0
  156.5680  210.3050  137.3540 C   0  0  0  0  0  2  0  0  0  0  0  0
  156.3300  210.1470  138.8540 C   0  0  2  0  0  3  0  0  0  0  0  0
  154.8460  210.2690  139.1660 C   0  0  0  0  0  1  0  0  0  0  0  0
  159.0220  210.7310  138.1150 C   0  0  2  0  0  3  0  0  0  0  0  0
  159.7150  208.4230  137.9780 O   0  0  0  0  0  1  0  0  0  0  0  0
  159.8950  209.6100  138.6800 C   0  0  1  0  0  3  0  0  0  0  0  0
  161.2450  209.9710  138.6230 O   0  0  0  0  0  0  0  0  0  0  0  0
  161.6250  209.7040  137.3160 C   0  0  0  0  0  1  0  0  0  0  0  0
  161.5550  209.1870  152.6680 C   0  0  2  0  0  3  0  0  0  0  0  0
  162.5970  209.1020  153.5830 O   0  0  0  0  0  1  0  0  0  0  0  0
  160.8430  207.8380  152.6640 C   0  0  0  0  0  2  0  0  0  0  0  0
  161.6880  206.7870  151.9640 C   0  0  0  0  0  2  0  0  0  0  0  0
  160.9670  204.8420  153.0870 O   0  0  0  0  0  0  0  0  0  0  0  0
  161.0210  205.4430  152.0240 C   0  0  0  0  0  0  0  0  0  0  0  0
  161.4340  203.8740  150.1330 C   0  0  2  0  0  3  0  0  0  0  0  0
  159.9500  206.1170  149.5980 S   0  0  0  0  0  0  0  0  0  0  0  0
  160.4320  204.8190  150.7860 C   0  0  2  0  0  3  0  0  0  0  0  0
  161.2930  205.6250  148.4790 C   0  0  1  0  0  3  0  0  0  0  0  0
  161.4620  204.1320  148.6370 C   0  0  0  0  0  2  0  0  0  0  0  0
  161.7960  202.0710  151.8130 C   0  0  0  0  0  1  0  0  0  0  0  0
  161.1570  202.4110  150.4810 C   0  0  2  0  0  3  0  0  0  0  0  0
  161.6630  201.5160  149.4520 N   0  0  0  0  0  2  0  0  0  0  0  0
  160.8620  201.0690  148.3600 C   0  0  0  0  0  0  0  0  0  0  0  0
  159.6530  201.4160  148.2610 O   0  0  0  0  0  0  0  0  0  0  0  0
  161.4600  200.1780  147.3370 C   0  0  0  0  0  1  0  0  0  0  0  0
  160.9590  205.9450  147.1580 O   0  0  0  0  0  0  0  0  0  0  0  0
  162.9960  204.9690  146.4060 C   0  0  0  0  0  1  0  0  0  0  0  0
  160.9840  205.0150  144.9640 C   0  0  0  0  0  1  0  0  0  0  0  0
  161.4760  204.9020  146.3930 C   0  0  0  0  0  3  0  0  0  0  0  0
  158.7260  211.7220  152.3420 O   0  0  0  0  0  1  0  0  0  0  0  0
  160.1010  211.8690  152.4780 C   0  0  0  0  0  2  0  0  0  0  0  0
  2 36  1  1  0  0  0
  3  4  1  0  0  0  0
  4  2  1  0  0  0  0
  5  8  2  0  0  0  0
  7  6  2  0  0  0  0
  7  9  1  0  0  0  0
  8  9  1  0  0  0  0
  8  2  1  0  0  0  0
  9 58  1  0  0  0  0
 10  1  1  1  0  0  0
 10  3  1  0  0  0  0
 10  5  1  0  0  0  0
 11 13  1  1  0  0  0
 11  5  1  0  0  0  0
 11  7  1  0  0  0  0
 12 13  2  0  0  0  0
 14 12  2  0  0  0  0
 15 19  1  0  0  0  0
 16 14  1  0  0  0  0
 17 20  1  0  0  0  0
 17 15  2  0  0  0  0
 18 16  1  0  0  0  0
 19 16  2  0  0  0  0
 20 18  2  0  0  0  0
 21 20  1  0  0  0  0
 22 21  1  0  0  0  0
 22 24  2  0  0  0  0
 23 22  1  0  0  0  0
 25 27  2  0  0  0  0
 25 23  1  0  0  0  0
 26 28  1  0  0  0  0
 26 31  1  0  0  0  0
 28 29  1  0  0  0  0
 29 30  1  6  0  0  0
 29 27  1  0  0  0  0
 31 33  1  1  0  0  0
 31 25  1  0  0  0  0
 33 32  1  6  0  0  0
 34 33  1  0  0  0  0
 35 34  1  0  0  0  0
 36 37  1  1  0  0  0
 38 36  1  0  0  0  0
 39 41  1  0  0  0  0
 39 38  1  0  0  0  0
 41 40  2  0  0  0  0
 42 48  1  6  0  0  0
 42 44  1  0  0  0  0
 43 44  1  0  0  0  0
 44 41  1  1  0  0  0
 45 53  1  6  0  0  0
 45 46  1  0  0  0  0
 45 43  1  0  0  0  0
 46 42  1  0  0  0  0
 48 47  1  1  0  0  0
 49 48  1  0  0  0  0
 50 49  1  0  0  0  0
 51 50  2  0  0  0  0
 52 50  1  0  0  0  0
 55 56  1  0  0  0  0
 56 54  1  0  0  0  0
 56 53  1  0  0  0  0
 57 58  1  0  0  0  0
M  END
>  <MODEL>
1

>  <REMARK>
 VINA RESULT:      -4.8      0.000      0.000
  Name = 
  16 active torsions:
  status: ('A' for Active; 'I' for Inactive)
    1  A    between atoms: C_1  and  N_32
    2  A    between atoms: C_4  and  C_22
    3  A    between atoms: C_4  and  C_28
    4  A    between atoms: N_7  and  C_54
    5  A    between atoms: C_8  and  C_11
    6  A    between atoms: C_8  and  C_22
    7  A    between atoms: C_10  and  C_50
    8  A    between atoms: C_14  and  N_44
    9  A    between atoms: O_17  and  C_34
   10  A    between atoms: C_20  and  C_55
   11  A    between atoms: N_27  and  C_55
   12  A    between atoms: C_28  and  C_38
   13  A    between atoms: C_29  and  C_56
   14  A    between atoms: C_34  and  C_58
   15  A    between atoms: O_39  and  C_48
   16  A    between atoms: O_39  and  C_49
                            x       y       z     vdW  Elec       q    Type
                         _______ _______ _______ _____ _____    ______ ____

>  <TORSDO>
F 16

$$$$
=
 OpenBabel11042422233D

 58 62  0  0  1  0  0  0  0  0999 V2000
  161.2260  209.0290  147.9540 O   0  0  0  0  0  1  0  0  0  0  0  0
  162.0150  209.7980  151.5710 C   0  0  1  0  0  3  0  0  0  0  0  0
  163.1020  209.0660  149.4370 C   0  0  0  0  0  2  0  0  0  0  0  0
  162.4330  208.5930  150.7220 C   0  0  0  0  0  2  0  0  0  0  0  0
  161.3800  210.8880  149.4130 C   0  0  0  0  0  0  0  0  0  0  0  0
  159.3450  213.6540  150.1240 O   0  0  0  0  0  0  0  0  0  0  0  0
  160.0870  212.6340  150.0840 C   0  0  0  0  0  0  0  0  0  0  0  0
  161.2150  210.7890  150.7360 C   0  0  0  0  0  0  0  0  0  0  0  0
  160.4410  211.8810  151.2320 N   0  0  0  0  0  0  0  0  0  0  0  0
  162.1280  209.8770  148.5880 C   0  0  2  0  0  3  0  0  0  0  0  0
  160.6670  212.0720  148.8370 C   0  0  1  0  0  3  0  0  0  0  0  0
  161.3380  213.7560  147.2020 C   0  0  0  0  0  0  0  0  0  0  0  0
  161.6400  213.0440  148.2530 C   0  0  0  0  0  3  0  0  0  0  0  0
  161.0430  214.4520  146.1360 C   0  0  0  0  0  3  0  0  0  0  0  0
  163.8000  214.1730  143.5800 C   0  0  0  0  0  3  0  0  0  0  0  0
  161.7540  214.2960  144.8720 C   0  0  0  0  0  0  0  0  0  0  0  0
  163.0560  214.0910  142.3960 C   0  0  0  0  0  3  0  0  0  0  0  0
  161.0190  214.1980  143.6860 C   0  0  0  0  0  3  0  0  0  0  0  0
  163.1520  214.2740  144.8140 C   0  0  0  0  0  3  0  0  0  0  0  0
  161.6630  214.0940  142.4410 C   0  0  0  0  0  0  0  0  0  0  0  0
  160.9230  214.0590  141.2140 N   0  0  0  0  0  2  0  0  0  0  0  0
  160.0280  213.0180  140.8050 C   0  0  0  0  0  0  0  0  0  0  0  0
  159.0800  213.2910  139.7640 N   0  0  0  0  0  2  0  0  0  0  0  0
  160.0730  211.8880  141.3570 O   0  0  0  0  0  0  0  0  0  0  0  0
  158.2880  212.3360  139.0500 C   0  0  0  0  0  0  0  0  0  0  0  0
  156.1860  210.8250  139.0820 C   0  0  0  0  0  2  0  0  0  0  0  0
  158.9130  211.4680  138.2570 C   0  0  0  0  0  3  0  0  0  0  0  0
  157.1660  209.7740  138.5280 C   0  0  0  0  0  2  0  0  0  0  0  0
  158.1460  210.4040  137.5410 C   0  0  2  0  0  3  0  0  0  0  0  0
  159.1070  209.3520  137.0110 C   0  0  0  0  0  1  0  0  0  0  0  0
  156.7810  212.2520  139.2320 C   0  0  2  0  0  3  0  0  0  0  0  0
  154.9480  212.6630  137.7160 O   0  0  0  0  0  1  0  0  0  0  0  0
  156.0590  213.2440  138.3210 C   0  0  1  0  0  3  0  0  0  0  0  0
  155.6440  214.3610  139.0520 O   0  0  0  0  0  0  0  0  0  0  0  0
  154.5340  213.9260  139.7600 C   0  0  0  0  0  1  0  0  0  0  0  0
  161.3560  209.4080  152.9030 C   0  0  2  0  0  3  0  0  0  0  0  0
  162.1210  209.9250  153.9420 O   0  0  0  0  0  1  0  0  0  0  0  0
  161.2600  207.9010  153.1140 C   0  0  0  0  0  2  0  0  0  0  0  0
  161.5480  207.1580  151.8210 C   0  0  0  0  0  2  0  0  0  0  0  0
  161.1510  205.1230  152.9460 O   0  0  0  0  0  0  0  0  0  0  0  0
  161.0480  205.7440  151.8980 C   0  0  0  0  0  0  0  0  0  0  0  0
  161.3730  204.0100  150.1390 C   0  0  2  0  0  3  0  0  0  0  0  0
  160.0810  206.3140  149.4030 S   0  0  0  0  0  0  0  0  0  0  0  0
  160.4360  205.0760  150.6950 C   0  0  2  0  0  3  0  0  0  0  0  0
  161.4030  205.6370  148.3570 C   0  0  1  0  0  3  0  0  0  0  0  0
  161.4510  204.1510  148.6290 C   0  0  0  0  0  2  0  0  0  0  0  0
  161.4610  202.3590  152.0020 C   0  0  0  0  0  1  0  0  0  0  0  0
  160.9760  202.6030  150.5860 C   0  0  2  0  0  3  0  0  0  0  0  0
  161.5240  201.5890  149.6990 N   0  0  0  0  0  2  0  0  0  0  0  0
  160.7840  201.0370  148.6120 C   0  0  0  0  0  0  0  0  0  0  0  0
  159.5930  201.3920  148.3950 O   0  0  0  0  0  0  0  0  0  0  0  0
  161.4240  200.0260  147.7360 C   0  0  0  0  0  1  0  0  0  0  0  0
  161.1210  205.8820  147.0080 O   0  0  0  0  0  0  0  0  0  0  0  0
  163.1930  205.1850  146.0650 C   0  0  0  0  0  1  0  0  0  0  0  0
  161.0360  204.6160  144.9900 C   0  0  0  0  0  1  0  0  0  0  0  0
  161.7330  204.8380  146.3180 C   0  0  0  0  0  3  0  0  0  0  0  0
  159.9010  213.1660  153.0950 O   0  0  0  0  0  1  0  0  0  0  0  0
  159.6940  211.9380  152.4770 C   0  0  0  0  0  2  0  0  0  0  0  0
  2 36  1  1  0  0  0
  3  4  1  0  0  0  0
  4  2  1  0  0  0  0
  5  8  2  0  0  0  0
  7  6  2  0  0  0  0
  7  9  1  0  0  0  0
  8  9  1  0  0  0  0
  8  2  1  0  0  0  0
  9 58  1  0  0  0  0
 10  1  1  1  0  0  0
 10  5  1  0  0  0  0
 10  3  1  0  0  0  0
 11 13  1  1  0  0  0
 11  5  1  0  0  0  0
 11  7  1  0  0  0  0
 12 13  2  0  0  0  0
 14 12  2  0  0  0  0
 15 19  1  0  0  0  0
 16 14  1  0  0  0  0
 17 20  1  0  0  0  0
 17 15  2  0  0  0  0
 18 16  1  0  0  0  0
 19 16  2  0  0  0  0
 20 18  2  0  0  0  0
 21 20  1  0  0  0  0
 22 21  1  0  0  0  0
 22 24  2  0  0  0  0
 23 22  1  0  0  0  0
 25 31  1  0  0  0  0
 25 23  1  0  0  0  0
 26 31  1  0  0  0  0
 27 25  2  0  0  0  0
 28 26  1  0  0  0  0
 29 30  1  1  0  0  0
 29 27  1  0  0  0  0
 29 28  1  0  0  0  0
 31 33  1  6  0  0  0
 33 32  1  1  0  0  0
 33 34  1  0  0  0  0
 34 35  1  0  0  0  0
 36 38  1  0  0  0  0
 36 37  1  1  0  0  0
 39 41  1  0  0  0  0
 39 38  1  0  0  0  0
 41 40  2  0  0  0  0
 42 48  1  6  0  0  0
 42 44  1  0  0  0  0
 43 44  1  0  0  0  0
 44 41  1  1  0  0  0
 45 53  1  6  0  0  0
 45 46  1  0  0  0  0
 45 43  1  0  0  0  0
 46 42  1  0  0  0  0
 48 47  1  1  0  0  0
 49 48  1  0  0  0  0
 50 49  1  0  0  0  0
 51 50  2  0  0  0  0
 52 50  1  0  0  0  0
 54 56  1  0  0  0  0
 55 56  1  0  0  0  0
 56 53  1  0  0  0  0
 58 57  1  0  0  0  0
M  END
>  <MODEL>
2

>  <REMARK>
 VINA RESULT:      -4.2      1.402      2.107
  Name = 
  16 active torsions:
  status: ('A' for Active; 'I' for Inactive)
    1  A    between atoms: C_1  and  N_32
    2  A    between atoms: C_4  and  C_22
    3  A    between atoms: C_4  and  C_28
    4  A    between atoms: N_7  and  C_54
    5  A    between atoms: C_8  and  C_11
    6  A    between atoms: C_8  and  C_22
    7  A    between atoms: C_10  and  C_50
    8  A    between atoms: C_14  and  N_44
    9  A    between atoms: O_17  and  C_34
   10  A    between atoms: C_20  and  C_55
   11  A    between atoms: N_27  and  C_55
   12  A    between atoms: C_28  and  C_38
   13  A    between atoms: C_29  and  C_56
   14  A    between atoms: C_34  and  C_58
   15  A    between atoms: O_39  and  C_48
   16  A    between atoms: O_39  and  C_49
                            x       y       z     vdW  Elec       q    Type
                         _______ _______ _______ _____ _____    ______ ____

>  <TORSDO>
F 16

$$$$
=
 OpenBabel11042422233D

 58 62  0  0  1  0  0  0  0  0999 V2000
  160.8240  208.2500  147.8270 O   0  0  0  0  0  1  0  0  0  0  0  0
  162.6620  207.6100  151.0680 C   0  0  1  0  0  3  0  0  0  0  0  0
  162.9790  207.5440  148.5850 C   0  0  0  0  0  2  0  0  0  0  0  0
  162.5760  206.7360  149.8120 C   0  0  0  0  0  2  0  0  0  0  0  0
  161.7470  209.4510  149.6470 C   0  0  0  0  0  0  0  0  0  0  0  0
  160.6130  212.0170  151.7510 O   0  0  0  0  0  0  0  0  0  0  0  0
  161.0800  210.9950  151.1780 C   0  0  0  0  0  0  0  0  0  0  0  0
  161.9090  208.9170  150.8620 C   0  0  0  0  0  0  0  0  0  0  0  0
  161.5440  209.8520  151.8770 N   0  0  0  0  0  0  0  0  0  0  0  0
  162.0190  208.7100  148.3670 C   0  0  2  0  0  3  0  0  0  0  0  0
  161.1840  210.8380  149.7040 C   0  0  1  0  0  3  0  0  0  0  0  0
  161.8050  212.7160  148.2730 C   0  0  0  0  0  0  0  0  0  0  0  0
  162.1620  211.8280  149.1620 C   0  0  0  0  0  3  0  0  0  0  0  0
  161.4520  213.5890  147.3670 C   0  0  0  0  0  3  0  0  0  0  0  0
  163.8700  213.8000  144.4810 C   0  0  0  0  0  3  0  0  0  0  0  0
  162.0070  213.5920  146.0180 C   0  0  0  0  0  0  0  0  0  0  0  0
  162.9940  213.6860  143.3940 C   0  0  0  0  0  3  0  0  0  0  0  0
  161.1430  213.4630  144.9260 C   0  0  0  0  0  3  0  0  0  0  0  0
  163.3790  213.7510  145.7890 C   0  0  0  0  0  3  0  0  0  0  0  0
  161.6290  213.5080  143.6080 C   0  0  0  0  0  0  0  0  0  0  0  0
  160.7460  213.4440  142.4800 N   0  0  0  0  0  2  0  0  0  0  0  0
  160.6770  212.3740  141.5310 C   0  0  0  0  0  0  0  0  0  0  0  0
  159.5110  212.2590  140.7040 N   0  0  0  0  0  2  0  0  0  0  0  0
  161.6220  211.5490  141.4330 O   0  0  0  0  0  0  0  0  0  0  0  0
  159.3580  211.4340  139.5440 C   0  0  0  0  0  0  0  0  0  0  0  0
  158.2390  209.3320  138.5280 C   0  0  0  0  0  2  0  0  0  0  0  0
  160.4080  211.2760  138.7410 C   0  0  0  0  0  3  0  0  0  0  0  0
  159.6580  209.0700  137.9890 C   0  0  0  0  0  2  0  0  0  0  0  0
  160.3280  210.3700  137.5550 C   0  0  2  0  0  3  0  0  0  0  0  0
  161.7290  210.0900  137.0320 C   0  0  0  0  0  1  0  0  0  0  0  0
  158.0630  210.6910  139.2570 C   0  0  2  0  0  3  0  0  0  0  0  0
  156.3480  210.8640  137.5670 O   0  0  0  0  0  1  0  0  0  0  0  0
  157.0680  211.5840  138.5150 C   0  0  1  0  0  3  0  0  0  0  0  0
  156.1730  212.1680  139.4170 O   0  0  0  0  0  0  0  0  0  0  0  0
  155.2900  212.8840  138.6230 C   0  0  0  0  0  1  0  0  0  0  0  0
  162.2980  206.8620  152.3600 C   0  0  2  0  0  3  0  0  0  0  0  0
  163.4590  206.3190  152.8970 O   0  0  0  0  0  1  0  0  0  0  0  0
  161.3180  205.7140  152.1410 C   0  0  0  0  0  2  0  0  0  0  0  0
  161.9990  204.5540  151.4340 C   0  0  0  0  0  2  0  0  0  0  0  0
  160.7580  202.6100  151.9300 O   0  0  0  0  0  0  0  0  0  0  0  0
  161.0060  203.4770  151.1050 C   0  0  0  0  0  0  0  0  0  0  0  0
  161.0600  202.5050  148.8100 C   0  0  2  0  0  3  0  0  0  0  0  0
  160.2620  205.1180  149.0460 S   0  0  0  0  0  0  0  0  0  0  0  0
  160.3240  203.4410  149.7630 C   0  0  2  0  0  3  0  0  0  0  0  0
  161.4680  204.6450  147.7740 C   0  0  1  0  0  3  0  0  0  0  0  0
  161.2200  203.1870  147.4640 C   0  0  0  0  0  2  0  0  0  0  0  0
  160.0870  200.6080  150.0990 C   0  0  0  0  0  1  0  0  0  0  0  0
  160.3840  201.1380  148.7090 C   0  0  2  0  0  3  0  0  0  0  0  0
  161.2150  200.1870  147.9900 N   0  0  0  0  0  2  0  0  0  0  0  0
  161.0830  199.9550  146.5880 C   0  0  0  0  0  0  0  0  0  0  0  0
  160.2020  200.5570  145.9150 O   0  0  0  0  0  0  0  0  0  0  0  0
  161.9880  198.9870  145.9230 C   0  0  0  0  0  1  0  0  0  0  0  0
  161.2900  205.4290  146.6280 O   0  0  0  0  0  0  0  0  0  0  0  0
  163.3890  204.7710  145.7180 C   0  0  0  0  0  1  0  0  0  0  0  0
  161.4540  205.2650  144.2560 C   0  0  0  0  0  1  0  0  0  0  0  0
  161.8750  204.6970  145.5970 C   0  0  0  0  0  3  0  0  0  0  0  0
  159.7960  209.3970  153.3440 O   0  0  0  0  0  1  0  0  0  0  0  0
  161.1730  209.5600  153.2520 C   0  0  0  0  0  2  0  0  0  0  0  0
  2 36  1  1  0  0  0
  3  4  1  0  0  0  0
  4  2  1  0  0  0  0
  5 11  1  0  0  0  0
  5  8  2  0  0  0  0
  7  6  2  0  0  0  0
  7  9  1  0  0  0  0
  8  2  1  0  0  0  0
  8  9  1  0  0  0  0
  9 58  1  0  0  0  0
 10  1  1  1  0  0  0
 10  3  1  0  0  0  0
 10  5  1  0  0  0  0
 11 13  1  1  0  0  0
 11  7  1  0  0  0  0
 12 13  2  0  0  0  0
 14 12  2  0  0  0  0
 15 19  1  0  0  0  0
 16 14  1  0  0  0  0
 17 20  1  0  0  0  0
 17 15  2  0  0  0  0
 18 16  1  0  0  0  0
 19 16  2  0  0  0  0
 20 18  2  0  0  0  0
 21 20  1  0  0  0  0
 22 21  1  0  0  0  0
 23 22  1  0  0  0  0
 24 22  2  0  0  0  0
 25 23  1  0  0  0  0
 26 31  1  0  0  0  0
 27 25  2  0  0  0  0
 28 26  1  0  0  0  0
 29 30  1  1  0  0  0
 29 28  1  0  0  0  0
 29 27  1  0  0  0  0
 31 33  1  6  0  0  0
 31 25  1  0  0  0  0
 33 32  1  6  0  0  0
 33 34  1  0  0  0  0
 35 34  1  0  0  0  0
 36 37  1  6  0  0  0
 38 36  1  0  0  0  0
 39 38  1  0  0  0  0
 41 39  1  0  0  0  0
 41 40  2  0  0  0  0
 42 48  1  6  0  0  0
 42 44  1  0  0  0  0
 43 44  1  0  0  0  0
 44 41  1  1  0  0  0
 45 53  1  6  0  0  0
 45 43  1  0  0  0  0
 46 45  1  0  0  0  0
 46 42  1  0  0  0  0
 48 47  1  1  0  0  0
 49 48  1  0  0  0  0
 50 49  1  0  0  0  0
 51 50  2  0  0  0  0
 52 50  1  0  0  0  0
 55 56  1  0  0  0  0
 56 54  1  0  0  0  0
 56 53  1  0  0  0  0
 58 57  1  0  0  0  0
M  END
>  <MODEL>
3

>  <REMARK>
 VINA RESULT:      -3.7      1.606      2.517
  Name = 
  16 active torsions:
  status: ('A' for Active; 'I' for Inactive)
    1  A    between atoms: C_1  and  N_32
    2  A    between atoms: C_4  and  C_22
    3  A    between atoms: C_4  and  C_28
    4  A    between atoms: N_7  and  C_54
    5  A    between atoms: C_8  and  C_11
    6  A    between atoms: C_8  and  C_22
    7  A    between atoms: C_10  and  C_50
    8  A    between atoms: C_14  and  N_44
    9  A    between atoms: O_17  and  C_34
   10  A    between atoms: C_20  and  C_55
   11  A    between atoms: N_27  and  C_55
   12  A    between atoms: C_28  and  C_38
   13  A    between atoms: C_29  and  C_56
   14  A    between atoms: C_34  and  C_58
   15  A    between atoms: O_39  and  C_48
   16  A    between atoms: O_39  and  C_49
                            x       y       z     vdW  Elec       q    Type
                         _______ _______ _______ _____ _____    ______ ____

>  <TORSDO>
F 16

$$$$
=
 OpenBabel11042422233D

 58 62  0  0  1  0  0  0  0  0999 V2000
  158.6860  213.4920  153.2790 O   0  0  0  0  0  1  0  0  0  0  0  0
  159.0430  209.9930  154.6660 C   0  0  1  0  0  3  0  0  0  0  0  0
  157.4620  211.4400  153.3700 C   0  0  0  0  0  2  0  0  0  0  0  0
  157.8570  210.9580  154.7610 C   0  0  0  0  0  2  0  0  0  0  0  0
  159.9200  211.5100  152.8840 C   0  0  0  0  0  0  0  0  0  0  0  0
  163.3060  210.7630  152.3600 O   0  0  0  0  0  0  0  0  0  0  0  0
  162.0950  210.8700  152.6950 C   0  0  0  0  0  0  0  0  0  0  0  0
  160.1640  210.6040  153.8370 C   0  0  0  0  0  0  0  0  0  0  0  0
  161.5070  210.1290  153.7500 N   0  0  0  0  0  0  0  0  0  0  0  0
  158.6040  212.2200  152.7250 C   0  0  2  0  0  3  0  0  0  0  0  0
  161.1300  211.7990  152.0490 C   0  0  1  0  0  3  0  0  0  0  0  0
  161.1450  212.2010  149.6420 C   0  0  0  0  0  0  0  0  0  0  0  0
  160.9050  211.3840  150.6320 C   0  0  0  0  0  3  0  0  0  0  0  0
  161.3630  213.0260  148.6520 C   0  0  0  0  0  3  0  0  0  0  0  0
  157.9850  214.0980  147.3660 C   0  0  0  0  0  3  0  0  0  0  0  0
  160.2990  213.5070  147.7790 C   0  0  0  0  0  0  0  0  0  0  0  0
  158.2800  214.3430  146.0190 C   0  0  0  0  0  3  0  0  0  0  0  0
  160.5870  213.7690  146.4360 C   0  0  0  0  0  3  0  0  0  0  0  0
  158.9910  213.6830  148.2430 C   0  0  0  0  0  3  0  0  0  0  0  0
  159.5830  214.1890  145.5470 C   0  0  0  0  0  0  0  0  0  0  0  0
  159.8520  214.3970  144.1540 N   0  0  0  0  0  2  0  0  0  0  0  0
  159.7000  213.4220  143.1170 C   0  0  0  0  0  0  0  0  0  0  0  0
  159.6290  213.8670  141.7550 N   0  0  0  0  0  2  0  0  0  0  0  0
  159.6260  212.1980  143.4010 O   0  0  0  0  0  0  0  0  0  0  0  0
  159.7310  213.0570  140.5790 C   0  0  0  0  0  0  0  0  0  0  0  0
  160.6520  212.8680  138.1660 C   0  0  0  0  0  2  0  0  0  0  0  0
  158.6980  212.2810  140.2570 C   0  0  0  0  0  3  0  0  0  0  0  0
  159.2320  212.3510  137.8680 C   0  0  0  0  0  2  0  0  0  0  0  0
  158.7200  211.4680  139.0040 C   0  0  2  0  0  3  0  0  0  0  0  0
  157.3160  210.9730  138.6930 C   0  0  0  0  0  1  0  0  0  0  0  0
  160.9480  213.1190  139.6700 C   0  0  2  0  0  3  0  0  0  0  0  0
  161.5460  211.1560  140.9410 O   0  0  0  0  0  1  0  0  0  0  0  0
  162.0580  212.1940  140.1690 C   0  0  1  0  0  3  0  0  0  0  0  0
  162.7600  211.6510  139.0880 O   0  0  0  0  0  0  0  0  0  0  0  0
  163.9700  212.3280  139.0790 C   0  0  0  0  0  1  0  0  0  0  0  0
  159.4870  209.4350  156.0270 C   0  0  2  0  0  3  0  0  0  0  0  0
  160.3070  210.3730  156.6420 O   0  0  0  0  0  1  0  0  0  0  0  0
  160.2810  208.1370  155.9200 C   0  0  0  0  0  2  0  0  0  0  0  0
  159.6780  207.2230  154.8670 C   0  0  0  0  0  2  0  0  0  0  0  0
  161.7780  206.1780  154.6230 O   0  0  0  0  0  0  0  0  0  0  0  0
  160.7560  206.5510  154.0670 C   0  0  0  0  0  0  0  0  0  0  0  0
  161.4630  205.1800  152.1090 C   0  0  2  0  0  3  0  0  0  0  0  0
  161.0750  207.8610  151.6870 S   0  0  0  0  0  0  0  0  0  0  0  0
  160.6010  206.3450  152.5830 C   0  0  2  0  0  3  0  0  0  0  0  0
  162.5600  207.0420  151.0370 C   0  0  1  0  0  3  0  0  0  0  0  0
  162.2020  205.5860  150.8480 C   0  0  0  0  0  2  0  0  0  0  0  0
  161.4090  202.7270  152.5370 C   0  0  0  0  0  1  0  0  0  0  0  0
  160.6520  203.8960  151.9380 C   0  0  2  0  0  3  0  0  0  0  0  0
  160.3700  203.6300  150.5360 N   0  0  0  0  0  2  0  0  0  0  0  0
  160.6370  202.3700  149.9230 C   0  0  0  0  0  0  0  0  0  0  0  0
  161.1660  201.4320  150.5800 O   0  0  0  0  0  0  0  0  0  0  0  0
  160.2950  202.1690  148.4940 C   0  0  0  0  0  1  0  0  0  0  0  0
  162.9330  207.6200  149.8180 O   0  0  0  0  0  0  0  0  0  0  0  0
  161.7310  206.4990  148.0960 C   0  0  0  0  0  1  0  0  0  0  0  0
  161.6960  208.9670  148.2900 C   0  0  0  0  0  1  0  0  0  0  0  0
  161.7590  207.6680  149.0690 C   0  0  0  0  0  3  0  0  0  0  0  0
  163.0450  210.4450  155.4670 O   0  0  0  0  0  1  0  0  0  0  0  0
  162.2860  209.4920  154.7990 C   0  0  0  0  0  2  0  0  0  0  0  0
  2  4  1  0  0  0  0
  2 36  1  1  0  0  0
  3  4  1  0  0  0  0
  5  8  2  0  0  0  0
  6  7  2  0  0  0  0
  7  9  1  0  0  0  0
  8  2  1  0  0  0  0
  9  8  1  0  0  0  0
  9 58  1  0  0  0  0
 10  5  1  0  0  0  0
 10  1  1  1  0  0  0
 10  3  1  0  0  0  0
 11 13  1  6  0  0  0
 11  7  1  0  0  0  0
 11  5  1  0  0  0  0
 12 13  2  0  0  0  0
 14 12  2  0  0  0  0
 15 19  1  0  0  0  0
 16 19  2  0  0  0  0
 16 14  1  0  0  0  0
 17 15  2  0  0  0  0
 18 16  1  0  0  0  0
 20 17  1  0  0  0  0
 20 18  2  0  0  0  0
 21 20  1  0  0  0  0
 22 24  2  0  0  0  0
 22 21  1  0  0  0  0
 23 22  1  0  0  0  0
 25 23  1  0  0  0  0
 26 31  1  0  0  0  0
 27 25  2  0  0  0  0
 28 26  1  0  0  0  0
 28 29  1  0  0  0  0
 29 30  1  6  0  0  0
 29 27  1  0  0  0  0
 31 33  1  1  0  0  0
 31 25  1  0  0  0  0
 33 32  1  6  0  0  0
 34 33  1  0  0  0  0
 35 34  1  0  0  0  0
 36 37  1  6  0  0  0
 38 36  1  0  0  0  0
 39 38  1  0  0  0  0
 41 40  2  0  0  0  0
 41 39  1  0  0  0  0
 42 48  1  6  0  0  0
 42 44  1  0  0  0  0
 43 44  1  0  0  0  0
 44 41  1  1  0  0  0
 45 53  1  6  0  0  0
 45 43  1  0  0  0  0
 46 45  1  0  0  0  0
 46 42  1  0  0  0  0
 48 47  1  6  0  0  0
 49 48  1  0  0  0  0
 50 49  1  0  0  0  0
 50 51  2  0  0  0  0
 52 50  1  0  0  0  0
 54 56  1  0  0  0  0
 55 56  1  0  0  0  0
 56 53  1  0  0  0  0
 58 57  1  0  0  0  0
M  END
>  <MODEL>
4

>  <REMARK>
 VINA RESULT:      -2.9      2.161      3.873
  Name = 
  16 active torsions:
  status: ('A' for Active; 'I' for Inactive)
    1  A    between atoms: C_1  and  N_32
    2  A    between atoms: C_4  and  C_22
    3  A    between atoms: C_4  and  C_28
    4  A    between atoms: N_7  and  C_54
    5  A    between atoms: C_8  and  C_11
    6  A    between atoms: C_8  and  C_22
    7  A    between atoms: C_10  and  C_50
    8  A    between atoms: C_14  and  N_44
    9  A    between atoms: O_17  and  C_34
   10  A    between atoms: C_20  and  C_55
   11  A    between atoms: N_27  and  C_55
   12  A    between atoms: C_28  and  C_38
   13  A    between atoms: C_29  and  C_56
   14  A    between atoms: C_34  and  C_58
   15  A    between atoms: O_39  and  C_48
   16  A    between atoms: O_39  and  C_49
                            x       y       z     vdW  Elec       q    Type
                         _______ _______ _______ _____ _____    ______ ____

>  <TORSDO>
F 16

$$$$
=
 OpenBabel11042422233D

 58 62  0  0  1  0  0  0  0  0999 V2000
  163.0950  210.3630  153.8440 O   0  0  0  0  0  1  0  0  0  0  0  0
  160.7400  208.2400  151.7840 C   0  0  1  0  0  3  0  0  0  0  0  0
  160.8700  209.4940  153.9480 C   0  0  0  0  0  2  0  0  0  0  0  0
  161.0820  208.1440  153.2750 C   0  0  0  0  0  2  0  0  0  0  0  0
  161.8180  210.4940  151.8540 C   0  0  0  0  0  0  0  0  0  0  0  0
  162.4590  211.5200  148.5620 O   0  0  0  0  0  0  0  0  0  0  0  0
  162.1420  210.9730  149.6550 C   0  0  0  0  0  0  0  0  0  0  0  0
  161.4650  209.4170  151.1450 C   0  0  0  0  0  0  0  0  0  0  0  0
  161.6080  209.6640  149.7470 N   0  0  0  0  0  0  0  0  0  0  0  0
  161.8050  210.5450  153.3570 C   0  0  2  0  0  3  0  0  0  0  0  0
  162.3060  211.6130  150.9860 C   0  0  1  0  0  3  0  0  0  0  0  0
  160.1080  212.6740  150.9500 C   0  0  0  0  0  0  0  0  0  0  0  0
  161.4000  212.7970  151.0900 C   0  0  0  0  0  3  0  0  0  0  0  0
  158.8170  212.5550  150.7880 C   0  0  0  0  0  3  0  0  0  0  0  0
  156.0570  213.9520  148.6320 C   0  0  0  0  0  3  0  0  0  0  0  0
  158.1010  213.1830  149.6840 C   0  0  0  0  0  0  0  0  0  0  0  0
  156.7740  214.3100  147.4840 C   0  0  0  0  0  3  0  0  0  0  0  0
  158.8100  213.5590  148.5380 C   0  0  0  0  0  3  0  0  0  0  0  0
  156.7180  213.3920  149.7300 C   0  0  0  0  0  3  0  0  0  0  0  0
  158.1540  214.1240  147.4310 C   0  0  0  0  0  0  0  0  0  0  0  0
  158.8600  214.4520  146.2270 N   0  0  0  0  0  2  0  0  0  0  0  0
  158.8140  213.7110  145.0030 C   0  0  0  0  0  0  0  0  0  0  0  0
  159.2440  214.3500  143.7930 N   0  0  0  0  0  2  0  0  0  0  0  0
  158.3990  212.5230  144.9920 O   0  0  0  0  0  0  0  0  0  0  0  0
  159.5120  213.7200  142.5350 C   0  0  0  0  0  0  0  0  0  0  0  0
  161.0710  213.6060  140.4710 C   0  0  0  0  0  2  0  0  0  0  0  0
  158.4770  213.3410  141.7880 C   0  0  0  0  0  3  0  0  0  0  0  0
  159.7360  213.5830  139.7020 C   0  0  0  0  0  2  0  0  0  0  0  0
  158.6940  212.7430  140.4360 C   0  0  2  0  0  3  0  0  0  0  0  0
  157.3830  212.7380  139.6650 C   0  0  0  0  0  1  0  0  0  0  0  0
  160.9300  213.5430  142.0160 C   0  0  2  0  0  3  0  0  0  0  0  0
  161.9810  211.4210  141.5480 O   0  0  0  0  0  1  0  0  0  0  0  0
  161.5660  212.2680  142.5700 C   0  0  1  0  0  3  0  0  0  0  0  0
  162.6670  212.5840  143.3730 O   0  0  0  0  0  0  0  0  0  0  0  0
  162.5680  213.9520  143.5820 C   0  0  0  0  0  1  0  0  0  0  0  0
  160.9000  206.9090  151.0330 C   0  0  2  0  0  3  0  0  0  0  0  0
  159.7450  206.6780  150.2950 O   0  0  0  0  0  1  0  0  0  0  0  0
  161.0970  205.7110  151.9560 C   0  0  0  0  0  2  0  0  0  0  0  0
  161.9830  204.6670  151.2980 C   0  0  0  0  0  2  0  0  0  0  0  0
  159.9960  203.4920  150.8160 O   0  0  0  0  0  0  0  0  0  0  0  0
  161.1580  203.6970  150.5020 C   0  0  0  0  0  0  0  0  0  0  0  0
  161.2440  203.5450  148.0150 C   0  0  2  0  0  3  0  0  0  0  0  0
  161.3250  201.1900  149.4190 S   0  0  0  0  0  0  0  0  0  0  0  0
  161.7520  202.9610  149.3290 C   0  0  2  0  0  3  0  0  0  0  0  0
  160.2220  201.3590  147.9850 C   0  0  1  0  0  3  0  0  0  0  0  0
  160.8340  202.4120  147.0910 C   0  0  0  0  0  2  0  0  0  0  0  0
  162.0790  205.8910  147.9530 C   0  0  0  0  0  1  0  0  0  0  0  0
  162.2540  204.4980  147.3790 C   0  0  2  0  0  3  0  0  0  0  0  0
  162.1050  204.5420  145.9330 N   0  0  0  0  0  2  0  0  0  0  0  0
  161.1940  205.4250  145.2810 C   0  0  0  0  0  0  0  0  0  0  0  0
  160.4490  206.1940  145.9480 O   0  0  0  0  0  0  0  0  0  0  0  0
  161.1190  205.4280  143.7990 C   0  0  0  0  0  1  0  0  0  0  0  0
  160.1220  200.1370  147.3100 O   0  0  0  0  0  0  0  0  0  0  0  0
  160.6100  201.2130  145.2430 C   0  0  0  0  0  1  0  0  0  0  0  0
  161.2380  198.8520  145.6420 C   0  0  0  0  0  1  0  0  0  0  0  0
  161.0700  200.2110  146.2910 C   0  0  0  0  0  3  0  0  0  0  0  0
  161.0600  209.1080  147.5540 O   0  0  0  0  0  1  0  0  0  0  0  0
  161.7410  208.6780  148.6870 C   0  0  0  0  0  2  0  0  0  0  0  0
  2 36  1  6  0  0  0
  2  4  1  0  0  0  0
  4  3  1  0  0  0  0
  5 10  1  0  0  0  0
  6  7  2  0  0  0  0
  7  9  1  0  0  0  0
  7 11  1  0  0  0  0
  8  2  1  0  0  0  0
  8  5  2  0  0  0  0
  9  8  1  0  0  0  0
 10  1  1  1  0  0  0
 10  3  1  0  0  0  0
 11 13  1  6  0  0  0
 11  5  1  0  0  0  0
 12 13  2  0  0  0  0
 14 12  2  0  0  0  0
 15 19  1  0  0  0  0
 16 19  2  0  0  0  0
 16 14  1  0  0  0  0
 17 15  2  0  0  0  0
 18 16  1  0  0  0  0
 20 17  1  0  0  0  0
 20 18  2  0  0  0  0
 21 20  1  0  0  0  0
 22 21  1  0  0  0  0
 23 22  1  0  0  0  0
 24 22  2  0  0  0  0
 25 23  1  0  0  0  0
 26 31  1  0  0  0  0
 27 25  2  0  0  0  0
 28 29  1  0  0  0  0
 28 26  1  0  0  0  0
 29 30  1  6  0  0  0
 29 27  1  0  0  0  0
 31 25  1  0  0  0  0
 31 33  1  6  0  0  0
 33 32  1  6  0  0  0
 33 34  1  0  0  0  0
 34 35  1  0  0  0  0
 36 37  1  1  0  0  0
 36 38  1  0  0  0  0
 39 38  1  0  0  0  0
 41 40  2  0  0  0  0
 41 39  1  0  0  0  0
 42 48  1  6  0  0  0
 42 44  1  0  0  0  0
 44 43  1  0  0  0  0
 44 41  1  1  0  0  0
 45 53  1  6  0  0  0
 45 43  1  0  0  0  0
 46 45  1  0  0  0  0
 46 42  1  0  0  0  0
 48 47  1  1  0  0  0
 49 48  1  0  0  0  0
 50 49  1  0  0  0  0
 50 51  2  0  0  0  0
 52 50  1  0  0  0  0
 54 56  1  0  0  0  0
 55 56  1  0  0  0  0
 56 53  1  0  0  0  0
 57 58  1  0  0  0  0
 58  9  1  0  0  0  0
M  END
>  <MODEL>
5

>  <REMARK>
 VINA RESULT:      -2.3      2.447      4.870
  Name = 
  16 active torsions:
  status: ('A' for Active; 'I' for Inactive)
    1  A    between atoms: C_1  and  N_32
    2  A    between atoms: C_4  and  C_22
    3  A    between atoms: C_4  and  C_28
    4  A    between atoms: N_7  and  C_54
    5  A    between atoms: C_8  and  C_11
    6  A    between atoms: C_8  and  C_22
    7  A    between atoms: C_10  and  C_50
    8  A    between atoms: C_14  and  N_44
    9  A    between atoms: O_17  and  C_34
   10  A    between atoms: C_20  and  C_55
   11  A    between atoms: N_27  and  C_55
   12  A    between atoms: C_28  and  C_38
   13  A    between atoms: C_29  and  C_56
   14  A    between atoms: C_34  and  C_58
   15  A    between atoms: O_39  and  C_48
   16  A    between atoms: O_39  and  C_49
                            x       y       z     vdW  Elec       q    Type
                         _______ _______ _______ _____ _____    ______ ____

>  <TORSDO>
F 16

$$$$
=
 OpenBabel11042422233D

 58 62  0  0  1  0  0  0  0  0999 V2000
  159.4610  213.8480  151.7590 O   0  0  0  0  0  1  0  0  0  0  0  0
  159.8650  210.3330  153.0920 C   0  0  1  0  0  3  0  0  0  0  0  0
  158.1710  211.8570  152.0530 C   0  0  0  0  0  2  0  0  0  0  0  0
  158.7560  211.3540  153.3670 C   0  0  0  0  0  2  0  0  0  0  0  0
  160.5220  211.8100  151.1850 C   0  0  0  0  0  0  0  0  0  0  0  0
  163.7440  210.9030  150.1390 O   0  0  0  0  0  0  0  0  0  0  0  0
  162.6060  211.0670  150.6590 C   0  0  0  0  0  0  0  0  0  0  0  0
  160.8690  210.8920  152.0920 C   0  0  0  0  0  0  0  0  0  0  0  0
  162.1580  210.3530  151.7980 N   0  0  0  0  0  0  0  0  0  0  0  0
  159.2320  212.5830  151.2310 C   0  0  2  0  0  3  0  0  0  0  0  0
  161.5970  212.0420  150.1690 C   0  0  1  0  0  3  0  0  0  0  0  0
  161.1060  212.4980  147.8210 C   0  0  0  0  0  0  0  0  0  0  0  0
  161.1320  211.6420  148.8060 C   0  0  0  0  0  3  0  0  0  0  0  0
  161.0590  213.3610  146.8410 C   0  0  0  0  0  3  0  0  0  0  0  0
  157.4620  214.3680  146.3200 C   0  0  0  0  0  3  0  0  0  0  0  0
  159.8080  213.7670  146.2100 C   0  0  0  0  0  0  0  0  0  0  0  0
  157.4110  214.4510  144.9220 C   0  0  0  0  0  3  0  0  0  0  0  0
  159.7510  213.8690  144.8160 C   0  0  0  0  0  3  0  0  0  0  0  0
  158.6570  214.0290  146.9620 C   0  0  0  0  0  3  0  0  0  0  0  0
  158.5550  214.2110  144.1630 C   0  0  0  0  0  0  0  0  0  0  0  0
  158.4660  214.2530  142.7320 N   0  0  0  0  0  2  0  0  0  0  0  0
  158.7180  213.1580  141.8450 C   0  0  0  0  0  0  0  0  0  0  0  0
  158.2240  213.2310  140.5010 N   0  0  0  0  0  2  0  0  0  0  0  0
  159.3560  212.1500  142.2440 O   0  0  0  0  0  0  0  0  0  0  0  0
  158.5770  212.3770  139.4070 C   0  0  0  0  0  0  0  0  0  0  0  0
  158.6960  209.9470  138.5220 C   0  0  0  0  0  2  0  0  0  0  0  0
  159.6290  212.7110  138.6620 C   0  0  0  0  0  3  0  0  0  0  0  0
  160.1000  210.3840  138.0640 C   0  0  0  0  0  2  0  0  0  0  0  0
  160.0870  211.8220  137.5520 C   0  0  2  0  0  3  0  0  0  0  0  0
  161.4830  212.2360  137.1110 C   0  0  0  0  0  1  0  0  0  0  0  0
  157.8290  211.0830  139.1300 C   0  0  2  0  0  3  0  0  0  0  0  0
  155.6360  210.3340  138.4530 O   0  0  0  0  0  1  0  0  0  0  0  0
  156.5850  211.3350  138.2780 C   0  0  1  0  0  3  0  0  0  0  0  0
  156.0120  212.5670  138.6100 O   0  0  0  0  0  0  0  0  0  0  0  0
  154.9560  212.2470  139.4510 C   0  0  0  0  0  1  0  0  0  0  0  0
  160.4910  209.7520  154.3680 C   0  0  2  0  0  3  0  0  0  0  0  0
  161.3630  210.6940  154.9010 O   0  0  0  0  0  1  0  0  0  0  0  0
  161.2920  208.4770  154.1250 C   0  0  0  0  0  2  0  0  0  0  0  0
  160.3980  207.3790  153.5740 C   0  0  0  0  0  2  0  0  0  0  0  0
  162.2580  205.9930  153.1440 O   0  0  0  0  0  0  0  0  0  0  0  0
  161.1920  206.4230  152.7310 C   0  0  0  0  0  0  0  0  0  0  0  0
  161.5210  204.8330  150.8400 C   0  0  2  0  0  3  0  0  0  0  0  0
  160.7920  207.3990  150.2070 S   0  0  0  0  0  0  0  0  0  0  0  0
  160.6970  206.0000  151.3730 C   0  0  2  0  0  3  0  0  0  0  0  0
  162.1430  206.5860  149.3040 C   0  0  1  0  0  3  0  0  0  0  0  0
  161.8870  205.1000  149.3910 C   0  0  0  0  0  2  0  0  0  0  0  0
  160.9910  203.0280  152.4730 C   0  0  0  0  0  1  0  0  0  0  0  0
  160.8170  203.4910  151.0400 C   0  0  2  0  0  3  0  0  0  0  0  0
  161.3340  202.4800  150.1320 N   0  0  0  0  0  2  0  0  0  0  0  0
  160.5030  201.7770  149.2090 C   0  0  0  0  0  0  0  0  0  0  0  0
  159.2610  201.9910  149.1670 O   0  0  0  0  0  0  0  0  0  0  0  0
  161.1120  200.7790  148.2970 C   0  0  0  0  0  1  0  0  0  0  0  0
  162.1500  207.0070  147.9690 O   0  0  0  0  0  0  0  0  0  0  0  0
  162.5430  205.3990  146.2570 C   0  0  0  0  0  1  0  0  0  0  0  0
  160.3310  206.4800  146.5210 C   0  0  0  0  0  1  0  0  0  0  0  0
  161.5500  205.9670  147.2610 C   0  0  0  0  0  3  0  0  0  0  0  0
  163.8060  210.6150  153.4190 O   0  0  0  0  0  1  0  0  0  0  0  0
  163.0610  209.6770  152.7150 C   0  0  0  0  0  2  0  0  0  0  0  0
  2  4  1  0  0  0  0
  2 36  1  1  0  0  0
  3  4  1  0  0  0  0
  5 10  1  0  0  0  0
  5  8  2  0  0  0  0
  6  7  2  0  0  0  0
  7  9  1  0  0  0  0
  8  2  1  0  0  0  0
  9  8  1  0  0  0  0
  9 58  1  0  0  0  0
 10  1  1  1  0  0  0
 10  3  1  0  0  0  0
 11 13  1  6  0  0  0
 11  7  1  0  0  0  0
 11  5  1  0  0  0  0
 12 13  2  0  0  0  0
 14 12  2  0  0  0  0
 15 19  1  0  0  0  0
 16 14  1  0  0  0  0
 16 19  2  0  0  0  0
 17 15  2  0  0  0  0
 18 16  1  0  0  0  0
 20 18  2  0  0  0  0
 20 17  1  0  0  0  0
 21 20  1  0  0  0  0
 22 24  2  0  0  0  0
 22 21  1  0  0  0  0
 23 22  1  0  0  0  0
 25 23  1  0  0  0  0
 26 31  1  0  0  0  0
 27 25  2  0  0  0  0
 28 26  1  0  0  0  0
 29 30  1  1  0  0  0
 29 28  1  0  0  0  0
 29 27  1  0  0  0  0
 31 33  1  6  0  0  0
 31 25  1  0  0  0  0
 33 32  1  1  0  0  0
 33 34  1  0  0  0  0
 34 35  1  0  0  0  0
 36 37  1  6  0  0  0
 38 36  1  0  0  0  0
 39 38  1  0  0  0  0
 41 40  2  0  0  0  0
 41 39  1  0  0  0  0
 42 48  1  6  0  0  0
 42 44  1  0  0  0  0
 43 44  1  0  0  0  0
 44 41  1  1  0  0  0
 45 53  1  6  0  0  0
 45 46  1  0  0  0  0
 45 43  1  0  0  0  0
 46 42  1  0  0  0  0
 48 47  1  1  0  0  0
 49 48  1  0  0  0  0
 50 49  1  0  0  0  0
 51 50  2  0  0  0  0
 52 50  1  0  0  0  0
 54 56  1  0  0  0  0
 55 56  1  0  0  0  0
 56 53  1  0  0  0  0
 58 57  1  0  0  0  0
M  END
>  <MODEL>
6

>  <REMARK>
 VINA RESULT:      -2.3      1.975      3.392
  Name = 
  16 active torsions:
  status: ('A' for Active; 'I' for Inactive)
    1  A    between atoms: C_1  and  N_32
    2  A    between atoms: C_4  and  C_22
    3  A    between atoms: C_4  and  C_28
    4  A    between atoms: N_7  and  C_54
    5  A    between atoms: C_8  and  C_11
    6  A    between atoms: C_8  and  C_22
    7  A    between atoms: C_10  and  C_50
    8  A    between atoms: C_14  and  N_44
    9  A    between atoms: O_17  and  C_34
   10  A    between atoms: C_20  and  C_55
   11  A    between atoms: N_27  and  C_55
   12  A    between atoms: C_28  and  C_38
   13  A    between atoms: C_29  and  C_56
   14  A    between atoms: C_34  and  C_58
   15  A    between atoms: O_39  and  C_48
   16  A    between atoms: O_39  and  C_49
                            x       y       z     vdW  Elec       q    Type
                         _______ _______ _______ _____ _____    ______ ____

>  <TORSDO>
F 16

$$$$
=
 OpenBabel11042422233D

 58 62  0  0  1  0  0  0  0  0999 V2000
  163.0800  210.3590  153.6900 O   0  0  0  0  0  1  0  0  0  0  0  0
  160.7280  208.0430  151.8470 C   0  0  1  0  0  3  0  0  0  0  0  0
  160.8930  209.4240  153.9300 C   0  0  0  0  0  2  0  0  0  0  0  0
  161.1270  208.0450  153.3260 C   0  0  0  0  0  2  0  0  0  0  0  0
  161.7270  210.3320  151.7470 C   0  0  0  0  0  0  0  0  0  0  0  0
  162.2100  211.1850  148.3800 O   0  0  0  0  0  0  0  0  0  0  0  0
  161.9530  210.6930  149.5130 C   0  0  0  0  0  0  0  0  0  0  0  0
  161.3870  209.2040  151.1150 C   0  0  0  0  0  0  0  0  0  0  0  0
  161.4690  209.3740  149.7000 N   0  0  0  0  0  0  0  0  0  0  0  0
  161.7680  210.4690  153.2440 C   0  0  2  0  0  3  0  0  0  0  0  0
  162.1430  211.4140  150.7990 C   0  0  1  0  0  3  0  0  0  0  0  0
  159.9590  212.4580  150.4830 C   0  0  0  0  0  0  0  0  0  0  0  0
  161.2010  212.5710  150.8700 C   0  0  0  0  0  3  0  0  0  0  0  0
  158.7230  212.3500  150.0740 C   0  0  0  0  0  3  0  0  0  0  0  0
  156.4000  214.2330  147.7780 C   0  0  0  0  0  3  0  0  0  0  0  0
  158.2020  213.1000  148.9370 C   0  0  0  0  0  0  0  0  0  0  0  0
  157.2370  214.4520  146.6760 C   0  0  0  0  0  3  0  0  0  0  0  0
  159.0340  213.3370  147.8390 C   0  0  0  0  0  3  0  0  0  0  0  0
  156.8810  213.5610  148.9050 C   0  0  0  0  0  3  0  0  0  0  0  0
  158.5600  214.0140  146.7020 C   0  0  0  0  0  0  0  0  0  0  0  0
  159.3840  214.2050  145.5440 N   0  0  0  0  0  2  0  0  0  0  0  0
  159.3300  213.4300  144.3420 C   0  0  0  0  0  0  0  0  0  0  0  0
  159.9200  213.9640  143.1480 N   0  0  0  0  0  2  0  0  0  0  0  0
  158.7680  212.3040  144.3350 O   0  0  0  0  0  0  0  0  0  0  0  0
  160.1930  213.2580  141.9330 C   0  0  0  0  0  0  0  0  0  0  0  0
  159.6510  211.1870  140.4760 C   0  0  0  0  0  2  0  0  0  0  0  0
  161.4360  213.2810  141.4570 C   0  0  0  0  0  3  0  0  0  0  0  0
  161.1840  211.1110  140.3510 C   0  0  0  0  0  2  0  0  0  0  0  0
  161.7950  212.5050  140.2320 C   0  0  2  0  0  3  0  0  0  0  0  0
  163.3090  212.4070  140.1160 C   0  0  0  0  0  1  0  0  0  0  0  0
  159.1230  212.4400  141.2270 C   0  0  2  0  0  3  0  0  0  0  0  0
  159.0020  213.7170  139.1820 O   0  0  0  0  0  1  0  0  0  0  0  0
  158.2790  213.3160  140.3020 C   0  0  1  0  0  3  0  0  0  0  0  0
  157.1400  212.6220  139.8820 O   0  0  0  0  0  0  0  0  0  0  0  0
  156.7920  213.2140  138.6760 C   0  0  0  0  0  1  0  0  0  0  0  0
  160.9060  206.6770  151.1670 C   0  0  2  0  0  3  0  0  0  0  0  0
  159.7930  206.4310  150.3720 O   0  0  0  0  0  1  0  0  0  0  0  0
  161.0260  205.5190  152.1530 C   0  0  0  0  0  2  0  0  0  0  0  0
  161.9860  204.4650  151.6280 C   0  0  0  0  0  2  0  0  0  0  0  0
  160.2350  202.8950  151.4520 O   0  0  0  0  0  0  0  0  0  0  0  0
  161.2370  203.3640  150.9340 C   0  0  0  0  0  0  0  0  0  0  0  0
  161.0320  203.5360  148.4560 C   0  0  2  0  0  3  0  0  0  0  0  0
  161.3750  201.0290  149.5150 S   0  0  0  0  0  0  0  0  0  0  0  0
  161.7170  202.8180  149.6150 C   0  0  2  0  0  3  0  0  0  0  0  0
  160.1030  201.3180  148.2500 C   0  0  1  0  0  3  0  0  0  0  0  0
  160.5620  202.5100  147.4420 C   0  0  0  0  0  2  0  0  0  0  0  0
  162.0490  205.7830  148.8050 C   0  0  0  0  0  1  0  0  0  0  0  0
  161.9200  204.6170  147.8430 C   0  0  2  0  0  3  0  0  0  0  0  0
  161.3860  205.0870  146.5740 N   0  0  0  0  0  2  0  0  0  0  0  0
  162.0820  204.9240  145.3400 C   0  0  0  0  0  0  0  0  0  0  0  0
  163.2210  204.3840  145.3070 O   0  0  0  0  0  0  0  0  0  0  0  0
  161.4570  205.4060  144.0840 C   0  0  0  0  0  1  0  0  0  0  0  0
  159.9730  200.1900  147.4330 O   0  0  0  0  0  0  0  0  0  0  0  0
  160.2440  201.1020  145.2510 C   0  0  0  0  0  1  0  0  0  0  0  0
  161.4190  199.0320  145.9330 C   0  0  0  0  0  1  0  0  0  0  0  0
  160.9030  200.3750  146.4130 C   0  0  0  0  0  3  0  0  0  0  0  0
  162.9040  208.2940  148.2210 O   0  0  0  0  0  1  0  0  0  0  0  0
  161.5980  208.3340  148.6930 C   0  0  0  0  0  2  0  0  0  0  0  0
  2 36  1  6  0  0  0
  2  4  1  0  0  0  0
  4  3  1  0  0  0  0
  5 10  1  0  0  0  0
  6  7  2  0  0  0  0
  7  9  1  0  0  0  0
  7 11  1  0  0  0  0
  8  5  2  0  0  0  0
  8  2  1  0  0  0  0
  9  8  1  0  0  0  0
 10  1  1  1  0  0  0
 10  3  1  0  0  0  0
 11 13  1  6  0  0  0
 11  5  1  0  0  0  0
 12 13  2  0  0  0  0
 14 12  2  0  0  0  0
 15 19  1  0  0  0  0
 16 14  1  0  0  0  0
 17 20  1  0  0  0  0
 17 15  2  0  0  0  0
 18 16  1  0  0  0  0
 19 16  2  0  0  0  0
 20 18  2  0  0  0  0
 21 20  1  0  0  0  0
 22 21  1  0  0  0  0
 23 22  1  0  0  0  0
 24 22  2  0  0  0  0
 25 23  1  0  0  0  0
 26 31  1  0  0  0  0
 27 25  2  0  0  0  0
 28 26  1  0  0  0  0
 29 30  1  1  0  0  0
 29 28  1  0  0  0  0
 29 27  1  0  0  0  0
 31 33  1  6  0  0  0
 31 25  1  0  0  0  0
 33 32  1  6  0  0  0
 34 33  1  0  0  0  0
 35 34  1  0  0  0  0
 36 37  1  6  0  0  0
 36 38  1  0  0  0  0
 39 38  1  0  0  0  0
 41 40  2  0  0  0  0
 41 39  1  0  0  0  0
 42 48  1  6  0  0  0
 42 44  1  0  0  0  0
 43 44  1  0  0  0  0
 44 41  1  1  0  0  0
 45 53  1  6  0  0  0
 45 43  1  0  0  0  0
 46 45  1  0  0  0  0
 46 42  1  0  0  0  0
 48 47  1  1  0  0  0
 49 48  1  0  0  0  0
 50 49  1  0  0  0  0
 51 50  2  0  0  0  0
 52 50  1  0  0  0  0
 54 56  1  0  0  0  0
 55 56  1  0  0  0  0
 56 53  1  0  0  0  0
 57 58  1  0  0  0  0
 58  9  1  0  0  0  0
M  END
>  <MODEL>
7

>  <REMARK>
 VINA RESULT:      -2.0      2.543      4.773
  Name = 
  16 active torsions:
  status: ('A' for Active; 'I' for Inactive)
    1  A    between atoms: C_1  and  N_32
    2  A    between atoms: C_4  and  C_22
    3  A    between atoms: C_4  and  C_28
    4  A    between atoms: N_7  and  C_54
    5  A    between atoms: C_8  and  C_11
    6  A    between atoms: C_8  and  C_22
    7  A    between atoms: C_10  and  C_50
    8  A    between atoms: C_14  and  N_44
    9  A    between atoms: O_17  and  C_34
   10  A    between atoms: C_20  and  C_55
   11  A    between atoms: N_27  and  C_55
   12  A    between atoms: C_28  and  C_38
   13  A    between atoms: C_29  and  C_56
   14  A    between atoms: C_34  and  C_58
   15  A    between atoms: O_39  and  C_48
   16  A    between atoms: O_39  and  C_49
                            x       y       z     vdW  Elec       q    Type
                         _______ _______ _______ _____ _____    ______ ____

>  <TORSDO>
F 16

$$$$
=
 OpenBabel11042422233D

 58 62  0  0  1  0  0  0  0  0999 V2000
  160.9120  208.0340  148.2820 O   0  0  0  0  0  1  0  0  0  0  0  0
  162.9070  207.2730  151.4020 C   0  0  1  0  0  3  0  0  0  0  0  0
  163.1600  207.5330  148.9240 C   0  0  0  0  0  2  0  0  0  0  0  0
  162.8980  206.5450  150.0550 C   0  0  0  0  0  2  0  0  0  0  0  0
  161.7250  209.1300  150.2180 C   0  0  0  0  0  0  0  0  0  0  0  0
  160.3320  211.2690  152.6230 O   0  0  0  0  0  0  0  0  0  0  0  0
  160.9090  210.3880  151.9280 C   0  0  0  0  0  0  0  0  0  0  0  0
  161.9880  208.4860  151.3600 C   0  0  0  0  0  0  0  0  0  0  0  0
  161.5350  209.2430  152.4830 N   0  0  0  0  0  0  0  0  0  0  0  0
  162.0540  208.5820  148.8570 C   0  0  2  0  0  3  0  0  0  0  0  0
  160.9910  210.4160  150.4450 C   0  0  1  0  0  3  0  0  0  0  0  0
  161.2990  212.5600  149.3190 C   0  0  0  0  0  0  0  0  0  0  0  0
  161.8190  211.5810  150.0090 C   0  0  0  0  0  3  0  0  0  0  0  0
  160.7840  213.5290  148.6100 C   0  0  0  0  0  3  0  0  0  0  0  0
  162.9060  214.3970  145.6160 C   0  0  0  0  0  3  0  0  0  0  0  0
  161.2070  213.8150  147.2440 C   0  0  0  0  0  0  0  0  0  0  0  0
  161.9330  214.4520  144.6100 C   0  0  0  0  0  3  0  0  0  0  0  0
  160.2450  213.8570  146.2290 C   0  0  0  0  0  3  0  0  0  0  0  0
  162.5440  214.0770  146.9280 C   0  0  0  0  0  3  0  0  0  0  0  0
  160.6000  214.1760  144.9070 C   0  0  0  0  0  0  0  0  0  0  0  0
  159.6140  214.2870  143.8710 N   0  0  0  0  0  2  0  0  0  0  0  0
  159.6720  213.6540  142.5890 C   0  0  0  0  0  0  0  0  0  0  0  0
  158.4660  213.5360  141.8210 N   0  0  0  0  0  2  0  0  0  0  0  0
  160.7620  213.2040  142.1500 O   0  0  0  0  0  0  0  0  0  0  0  0
  158.3570  213.1740  140.4410 C   0  0  0  0  0  0  0  0  0  0  0  0
  159.6090  212.8000  138.2050 C   0  0  0  0  0  2  0  0  0  0  0  0
  157.2620  213.5430  139.7780 C   0  0  0  0  0  3  0  0  0  0  0  0
  158.4380  213.6200  137.6320 C   0  0  0  0  0  2  0  0  0  0  0  0
  157.1250  213.2550  138.3180 C   0  0  2  0  0  3  0  0  0  0  0  0
  155.9830  214.0790  137.7420 C   0  0  0  0  0  1  0  0  0  0  0  0
  159.4790  212.4510  139.7130 C   0  0  2  0  0  3  0  0  0  0  0  0
  159.0830  210.2840  138.7270 O   0  0  0  0  0  1  0  0  0  0  0  0
  159.3840  210.9390  139.9170 C   0  0  1  0  0  3  0  0  0  0  0  0
  160.5910  210.4400  140.4160 O   0  0  0  0  0  0  0  0  0  0  0  0
  161.1310  209.7110  139.3670 C   0  0  0  0  0  1  0  0  0  0  0  0
  162.6790  206.3410  152.6020 C   0  0  2  0  0  3  0  0  0  0  0  0
  163.5700  205.2790  152.5120 O   0  0  0  0  0  1  0  0  0  0  0  0
  161.2720  205.7530  152.6550 C   0  0  0  0  0  2  0  0  0  0  0  0
  161.1420  204.5870  151.6890 C   0  0  0  0  0  2  0  0  0  0  0  0
  159.8400  206.0910  150.4220 O   0  0  0  0  0  0  0  0  0  0  0  0
  160.3910  205.0010  150.4560 C   0  0  0  0  0  0  0  0  0  0  0  0
  161.4590  203.0970  149.2540 C   0  0  2  0  0  3  0  0  0  0  0  0
  160.2960  205.0520  147.7230 S   0  0  0  0  0  0  0  0  0  0  0  0
  160.2950  204.0810  149.2670 C   0  0  2  0  0  3  0  0  0  0  0  0
  161.9530  204.4340  147.3070 C   0  0  1  0  0  3  0  0  0  0  0  0
  162.0390  203.0280  147.8530 C   0  0  0  0  0  2  0  0  0  0  0  0
  161.6960  201.5150  151.1640 C   0  0  0  0  0  1  0  0  0  0  0  0
  161.0610  201.7270  149.8030 C   0  0  2  0  0  3  0  0  0  0  0  0
  161.4640  200.6570  148.9030 N   0  0  0  0  0  2  0  0  0  0  0  0
  160.9060  200.4980  147.6000 C   0  0  0  0  0  0  0  0  0  0  0  0
  160.0040  201.2760  147.1840 O   0  0  0  0  0  0  0  0  0  0  0  0
  161.3890  199.3970  146.7330 C   0  0  0  0  0  1  0  0  0  0  0  0
  162.1330  204.4360  145.9190 O   0  0  0  0  0  0  0  0  0  0  0  0
  160.4160  203.7570  144.4160 C   0  0  0  0  0  1  0  0  0  0  0  0
  161.0260  206.1430  144.6780 C   0  0  0  0  0  1  0  0  0  0  0  0
  160.8980  204.8150  145.3980 C   0  0  0  0  0  3  0  0  0  0  0  0
  161.6550  209.6810  154.7650 O   0  0  0  0  0  1  0  0  0  0  0  0
  161.2430  208.7510  153.8180 C   0  0  0  0  0  2  0  0  0  0  0  0
  2 36  1  1  0  0  0
  3  4  1  0  0  0  0
  4  2  1  0  0  0  0
  5 11  1  0  0  0  0
  5  8  2  0  0  0  0
  7  9  1  0  0  0  0
  7  6  2  0  0  0  0
  8  2  1  0  0  0  0
  8  9  1  0  0  0  0
  9 58  1  0  0  0  0
 10  1  1  1  0  0  0
 10  3  1  0  0  0  0
 10  5  1  0  0  0  0
 11 13  1  1  0  0  0
 11  7  1  0  0  0  0
 12 13  2  0  0  0  0
 14 12  2  0  0  0  0
 15 19  1  0  0  0  0
 16 14  1  0  0  0  0
 17 20  1  0  0  0  0
 17 15  2  0  0  0  0
 18 16  1  0  0  0  0
 19 16  2  0  0  0  0
 20 18  2  0  0  0  0
 21 20  1  0  0  0  0
 22 21  1  0  0  0  0
 23 22  1  0  0  0  0
 24 22  2  0  0  0  0
 25 23  1  0  0  0  0
 26 31  1  0  0  0  0
 27 25  2  0  0  0  0
 28 26  1  0  0  0  0
 28 29  1  0  0  0  0
 29 30  1  6  0  0  0
 29 27  1  0  0  0  0
 31 33  1  6  0  0  0
 31 25  1  0  0  0  0
 33 32  1  6  0  0  0
 33 34  1  0  0  0  0
 35 34  1  0  0  0  0
 36 37  1  6  0  0  0
 36 38  1  0  0  0  0
 39 38  1  0  0  0  0
 40 41  2  0  0  0  0
 41 39  1  0  0  0  0
 42 44  1  0  0  0  0
 42 48  1  6  0  0  0
 43 44  1  0  0  0  0
 44 41  1  1  0  0  0
 45 53  1  6  0  0  0
 45 43  1  0  0  0  0
 45 46  1  0  0  0  0
 46 42  1  0  0  0  0
 48 47  1  1  0  0  0
 49 48  1  0  0  0  0
 50 49  1  0  0  0  0
 51 50  2  0  0  0  0
 52 50  1  0  0  0  0
 54 56  1  0  0  0  0
 55 56  1  0  0  0  0
 56 53  1  0  0  0  0
 58 57  1  0  0  0  0
M  END
>  <MODEL>
8

>  <REMARK>
 VINA RESULT:      -2.0      1.788      2.445
  Name = 
  16 active torsions:
  status: ('A' for Active; 'I' for Inactive)
    1  A    between atoms: C_1  and  N_32
    2  A    between atoms: C_4  and  C_22
    3  A    between atoms: C_4  and  C_28
    4  A    between atoms: N_7  and  C_54
    5  A    between atoms: C_8  and  C_11
    6  A    between atoms: C_8  and  C_22
    7  A    between atoms: C_10  and  C_50
    8  A    between atoms: C_14  and  N_44
    9  A    between atoms: O_17  and  C_34
   10  A    between atoms: C_20  and  C_55
   11  A    between atoms: N_27  and  C_55
   12  A    between atoms: C_28  and  C_38
   13  A    between atoms: C_29  and  C_56
   14  A    between atoms: C_34  and  C_58
   15  A    between atoms: O_39  and  C_48
   16  A    between atoms: O_39  and  C_49
                            x       y       z     vdW  Elec       q    Type
                         _______ _______ _______ _____ _____    ______ ____

>  <TORSDO>
F 16

$$$$
