=
 OpenBabel11042421433D

 47 55  0  0  1  0  0  0  0  0999 V2000
  160.9270  204.0300  146.1540 C   0  0  0  0  0  3  0  0  0  0  0  0
  160.9610  205.4560  154.4190 N   0  0  0  0  0  0  0  0  0  0  0  0
  160.9360  201.8300  146.1620 N   0  0  0  0  0  0  0  0  0  0  0  0
  160.8990  206.8500  151.1190 C   0  0  0  0  0  2  0  0  0  0  0  0
  160.8750  202.1220  149.7890 C   0  0  0  0  0  3  0  0  0  0  0  0
  160.9390  205.3760  153.0260 N   0  0  0  0  0  0  0  0  0  0  0  0
  160.8810  205.6970  150.3280 C   0  0  0  0  0  0  0  0  0  0  0  0
  160.8820  201.4790  148.5690 N   0  0  0  0  0  0  0  0  0  0  0  0
  160.9340  207.5680  153.6020 C   0  0  0  0  0  0  0  0  0  0  0  0
  160.9290  206.6230  152.5020 C   0  0  0  0  0  0  0  0  0  0  0  0
  160.8590  204.2470  148.6490 N   0  0  0  0  0  0  0  0  0  0  0  0
  160.9670  208.8990  153.5180 C   0  0  0  0  0  2  0  0  0  0  0  0
  160.8790  202.2360  147.4330 C   0  0  0  0  0  0  0  0  0  0  0  0
  160.9900  200.4570  145.6860 C   0  0  0  0  0  1  0  0  0  0  0  0
  160.8660  205.5670  148.9490 C   0  0  0  0  0  0  0  0  0  0  0  0
  160.8870  204.4190  150.8780 C   0  0  0  0  0  0  0  0  0  0  0  0
  160.8690  203.5910  147.4610 C   0  0  0  0  0  0  0  0  0  0  0  0
  160.9190  204.2430  152.2670 C   0  0  0  0  0  0  0  0  0  0  0  0
  160.9610  206.8070  154.8090 N   0  0  0  0  0  0  0  0  0  0  0  0
  160.8690  203.5380  149.8090 C   0  0  0  0  0  0  0  0  0  0  0  0
  160.9660  202.9080  145.3800 N   0  0  0  0  0  0  0  0  0  0  0  0
  160.9320  203.1010  152.7960 O   0  0  0  0  0  0  0  0  0  0  0  0
  160.9000  209.7550  154.6650 N   0  0  0  0  0  2  0  0  0  0  0  0
  159.9740  210.8360  154.8280 C   0  0  0  0  0  0  0  0  0  0  0  0
  159.8690  211.3950  155.9580 O   0  0  0  0  0  0  0  0  0  0  0  0
  159.6190  213.0550  151.8690 C   0  0  0  0  0  3  0  0  0  0  0  0
  160.1510  212.2810  152.8200 C   0  0  0  0  0  3  0  0  0  0  0  0
  158.1260  213.0410  151.6670 C   0  0  0  0  0  2  0  0  0  0  0  0
  159.2440  211.4040  153.6500 C   0  0  2  0  0  3  0  0  0  0  0  0
  157.4270  213.1490  153.0280 C   0  0  0  0  0  2  0  0  0  0  0  0
  157.9290  212.1080  154.0550 C   0  0  0  0  0  2  0  0  0  0  0  0
  160.7930  206.6890  147.9580 C   0  0  0  0  0  2  0  0  0  0  0  0
  162.1740  207.2970  147.7840 C   0  0  2  0  0  3  0  0  0  0  0  0
  163.2560  206.3160  148.1920 C   0  0  0  0  0  1  0  0  0  0  0  0
  162.2460  210.3700  150.4400 S   0  0  0  0  0  0  0  0  0  0  0  0
  161.3700  212.0300  148.3380 N   0  0  0  0  0  2  0  0  0  0  0  0
  161.8680  209.7410  147.9320 N   0  0  0  0  0  0  0  0  0  0  0  0
  162.4750  208.6100  149.9720 C   0  0  0  0  0  2  0  0  0  0  0  0
  161.7990  210.7290  148.7490 C   0  0  0  0  0  0  0  0  0  0  0  0
  162.2780  208.5460  148.5240 N   0  0  0  0  0  0  0  0  0  0  0  0
  160.4080  213.7560  146.8210 C   0  0  2  0  0  0  0  0  0  0  0  0
  160.9490  212.3250  146.9740 C   0  0  1  0  0  0  0  0  0  0  0  0
  162.1480  213.4930  146.3180 S   0  0  0  0  0  0  0  0  0  0  0  0
  159.5400  212.5990  147.0210 N   0  0  0  0  0  2  0  0  0  0  0  0
  159.9170  214.2600  145.6150 O   0  0  0  0  0  0  0  0  0  0  0  0
  158.5340  214.3170  145.7790 C   0  0  0  0  0  2  0  0  0  0  0  0
  157.8720  214.4470  144.4220 C   0  0  0  0  0  1  0  0  0  0  0  0
  1 17  1  0  0  0  0
  2 19  2  0  0  0  0
  3 13  1  0  0  0  0
  4 10  1  0  0  0  0
  5 20  1  0  0  0  0
  6  2  1  0  0  0  0
  7 16  1  0  0  0  0
  7  4  1  0  0  0  0
  8  5  2  0  0  0  0
  9 19  1  0  0  0  0
 10  6  1  0  0  0  0
 10  9  2  0  0  0  0
 11 15  1  0  0  0  0
 11 20  1  0  0  0  0
 12  9  1  0  0  0  0
 12 23  1  0  0  0  0
 13 17  2  0  0  0  0
 13  8  1  0  0  0  0
 14  3  1  0  0  0  0
 15  7  2  0  0  0  0
 16 18  1  0  0  0  0
 17 11  1  0  0  0  0
 18 22  2  0  0  0  0
 18  6  1  0  0  0  0
 20 16  2  0  0  0  0
 21  1  2  0  0  0  0
 21  3  1  0  0  0  0
 23 24  1  0  0  0  0
 24 25  2  0  0  0  0
 26 27  2  0  0  0  0
 27 29  1  0  0  0  0
 28 26  1  0  0  0  0
 28 30  1  0  0  0  0
 29 31  1  0  0  0  0
 29 24  1  1  0  0  0
 30 31  1  0  0  0  0
 32 15  1  0  0  0  0
 33 32  1  0  0  0  0
 33 34  1  1  0  0  0
 33 40  1  0  0  0  0
 36 39  1  0  0  0  0
 37 40  1  0  0  0  0
 37 39  2  0  0  0  0
 38 35  1  0  0  0  0
 39 35  1  0  0  0  0
 40 38  1  0  0  0  0
 41 45  1  6  0  0  0
 41 42  1  0  0  0  0
 41 44  1  0  0  0  0
 42 44  1  0  0  0  0
 42 36  1  1  0  0  0
 43 41  1  0  0  0  0
 43 42  1  0  0  0  0
 45 46  1  0  0  0  0
 47 46  1  0  0  0  0
M  END
>  <MODEL>
1

>  <REMARK>
 VINA RESULT:      -7.7      0.000      0.000
  Name = 
  8 active torsions:
  status: ('A' for Active; 'I' for Inactive)
    1  A    between atoms: C_1  and  O_21
    2  A    between atoms: N_2  and  C_25
    3  A    between atoms: C_3  and  N_10
    4  A    between atoms: C_9  and  C_28
    5  A    between atoms: C_13  and  C_32
    6  A    between atoms: C_13  and  C_40
    7  A    between atoms: C_15  and  O_21
    8  A    between atoms: C_40  and  N_41
                            x       y       z     vdW  Elec       q    Type
                         _______ _______ _______ _____ _____    ______ ____

>  <TORSDO>
F 8

$$$$
=
 OpenBabel11042421433D

 47 55  0  0  1  0  0  0  0  0999 V2000
  161.4400  206.4050  146.8330 C   0  0  0  0  0  3  0  0  0  0  0  0
  161.1720  207.1120  155.1870 N   0  0  0  0  0  0  0  0  0  0  0  0
  161.5250  204.2150  146.6540 N   0  0  0  0  0  0  0  0  0  0  0  0
  161.1640  208.7830  152.0170 C   0  0  0  0  0  2  0  0  0  0  0  0
  161.3430  204.1890  150.2880 C   0  0  0  0  0  3  0  0  0  0  0  0
  161.1960  207.1520  153.7920 N   0  0  0  0  0  0  0  0  0  0  0  0
  161.2100  207.7030  151.1310 C   0  0  0  0  0  0  0  0  0  0  0  0
  161.4090  203.6550  149.0190 N   0  0  0  0  0  0  0  0  0  0  0  0
  161.0970  209.2840  154.5520 C   0  0  0  0  0  0  0  0  0  0  0  0
  161.1590  208.4390  153.3760 C   0  0  0  0  0  0  0  0  0  0  0  0
  161.2890  206.4040  149.3340 N   0  0  0  0  0  0  0  0  0  0  0  0
  161.0870  210.6180  154.5830 C   0  0  0  0  0  2  0  0  0  0  0  0
  161.4150  204.5070  147.9520 C   0  0  0  0  0  0  0  0  0  0  0  0
  161.6410  202.8900  146.0640 C   0  0  0  0  0  1  0  0  0  0  0  0
  161.2410  207.6920  149.7460 C   0  0  0  0  0  0  0  0  0  0  0  0
  161.2420  206.3830  151.5700 C   0  0  0  0  0  0  0  0  0  0  0  0
  161.3570  205.8540  148.0950 C   0  0  0  0  0  0  0  0  0  0  0  0
  161.2380  206.0880  152.9390 C   0  0  0  0  0  0  0  0  0  0  0  0
  161.1140  208.4230  155.6900 N   0  0  0  0  0  0  0  0  0  0  0  0
  161.2870  205.5970  150.4290 C   0  0  0  0  0  0  0  0  0  0  0  0
  161.5410  205.3560  145.9680 N   0  0  0  0  0  0  0  0  0  0  0  0
  161.2740  204.9060  153.3680 O   0  0  0  0  0  0  0  0  0  0  0  0
  160.9560  211.3690  155.7960 N   0  0  0  0  0  2  0  0  0  0  0  0
  159.8870  212.2780  156.0860 C   0  0  0  0  0  0  0  0  0  0  0  0
  159.7620  212.7320  157.2600 O   0  0  0  0  0  0  0  0  0  0  0  0
  157.2100  214.4520  154.7020 C   0  0  0  0  0  3  0  0  0  0  0  0
  158.2100  213.9960  155.4640 C   0  0  0  0  0  3  0  0  0  0  0  0
  156.9060  213.7540  153.4020 C   0  0  0  0  0  2  0  0  0  0  0  0
  159.0140  212.8080  154.9910 C   0  0  2  0  0  3  0  0  0  0  0  0
  156.8780  212.2390  153.6320 C   0  0  0  0  0  2  0  0  0  0  0  0
  158.1420  211.7070  154.3460 C   0  0  0  0  0  2  0  0  0  0  0  0
  161.1600  208.8930  148.8530 C   0  0  0  0  0  2  0  0  0  0  0  0
  162.3300  209.8170  149.1430 C   0  0  2  0  0  3  0  0  0  0  0  0
  162.4000  210.1570  150.6200 C   0  0  0  0  0  1  0  0  0  0  0  0
  162.7890  213.3120  147.1260 S   0  0  0  0  0  0  0  0  0  0  0  0
  160.0230  213.7230  147.4790 N   0  0  0  0  0  2  0  0  0  0  0  0
  161.0400  211.7040  148.2160 N   0  0  0  0  0  0  0  0  0  0  0  0
  163.4230  211.7510  147.8530 C   0  0  0  0  0  2  0  0  0  0  0  0
  161.1460  212.8540  147.6530 C   0  0  0  0  0  0  0  0  0  0  0  0
  162.2490  211.0150  148.3220 N   0  0  0  0  0  0  0  0  0  0  0  0
  157.6300  214.4130  147.5120 C   0  0  2  0  0  0  0  0  0  0  0  0
  158.6870  213.3870  147.9530 C   0  0  1  0  0  0  0  0  0  0  0  0
  157.7480  212.8900  146.5020 S   0  0  0  0  0  0  0  0  0  0  0  0
  158.2710  214.4510  148.8220 N   0  0  0  0  0  2  0  0  0  0  0  0
  156.2830  214.3210  147.8700 O   0  0  0  0  0  0  0  0  0  0  0  0
  156.2790  214.2540  149.2620 C   0  0  0  0  0  2  0  0  0  0  0  0
  154.8630  214.4380  149.7690 C   0  0  0  0  0  1  0  0  0  0  0  0
  1 17  1  0  0  0  0
  2 19  2  0  0  0  0
  3 13  1  0  0  0  0
  4 10  1  0  0  0  0
  5 20  1  0  0  0  0
  6  2  1  0  0  0  0
  7 16  1  0  0  0  0
  7  4  1  0  0  0  0
  8  5  2  0  0  0  0
  9 12  1  0  0  0  0
  9 19  1  0  0  0  0
 10  6  1  0  0  0  0
 10  9  2  0  0  0  0
 11 15  1  0  0  0  0
 11 20  1  0  0  0  0
 12 23  1  0  0  0  0
 13 17  2  0  0  0  0
 13  8  1  0  0  0  0
 14  3  1  0  0  0  0
 15  7  2  0  0  0  0
 16 18  1  0  0  0  0
 17 11  1  0  0  0  0
 18 22  2  0  0  0  0
 18  6  1  0  0  0  0
 20 16  2  0  0  0  0
 21  3  1  0  0  0  0
 21  1  2  0  0  0  0
 23 24  1  0  0  0  0
 24 25  2  0  0  0  0
 26 27  2  0  0  0  0
 28 30  1  0  0  0  0
 28 26  1  0  0  0  0
 29 27  1  0  0  0  0
 29 24  1  1  0  0  0
 30 31  1  0  0  0  0
 31 29  1  0  0  0  0
 32 33  1  0  0  0  0
 32 15  1  0  0  0  0
 33 34  1  1  0  0  0
 35 39  1  0  0  0  0
 35 38  1  0  0  0  0
 36 39  1  0  0  0  0
 37 40  1  0  0  0  0
 38 40  1  0  0  0  0
 39 37  2  0  0  0  0
 40 33  1  0  0  0  0
 41 45  1  1  0  0  0
 41 42  1  0  0  0  0
 41 44  1  0  0  0  0
 42 36  1  6  0  0  0
 42 44  1  0  0  0  0
 43 41  1  0  0  0  0
 43 42  1  0  0  0  0
 45 46  1  0  0  0  0
 46 47  1  0  0  0  0
M  END
>  <MODEL>
2

>  <REMARK>
 VINA RESULT:      -6.5      1.877      2.798
  Name = 
  8 active torsions:
  status: ('A' for Active; 'I' for Inactive)
    1  A    between atoms: C_1  and  O_21
    2  A    between atoms: N_2  and  C_25
    3  A    between atoms: C_3  and  N_10
    4  A    between atoms: C_9  and  C_28
    5  A    between atoms: C_13  and  C_32
    6  A    between atoms: C_13  and  C_40
    7  A    between atoms: C_15  and  O_21
    8  A    between atoms: C_40  and  N_41
                            x       y       z     vdW  Elec       q    Type
                         _______ _______ _______ _____ _____    ______ ____

>  <TORSDO>
F 8

$$$$
=
 OpenBabel11042421433D

 47 55  0  0  1  0  0  0  0  0999 V2000
  161.3670  206.5590  146.6470 C   0  0  0  0  0  3  0  0  0  0  0  0
  161.1780  207.2560  155.0040 N   0  0  0  0  0  0  0  0  0  0  0  0
  161.3970  204.3670  146.4640 N   0  0  0  0  0  0  0  0  0  0  0  0
  161.1870  208.9330  151.8380 C   0  0  0  0  0  2  0  0  0  0  0  0
  161.2420  204.3390  150.0990 C   0  0  0  0  0  3  0  0  0  0  0  0
  161.1930  207.2980  153.6090 N   0  0  0  0  0  0  0  0  0  0  0  0
  161.2000  207.8540  150.9490 C   0  0  0  0  0  0  0  0  0  0  0  0
  161.2850  203.8060  148.8290 N   0  0  0  0  0  0  0  0  0  0  0  0
  161.1520  209.4310  154.3740 C   0  0  0  0  0  0  0  0  0  0  0  0
  161.1840  208.5860  153.1960 C   0  0  0  0  0  0  0  0  0  0  0  0
  161.2340  206.5560  149.1500 N   0  0  0  0  0  0  0  0  0  0  0  0
  161.1750  210.7640  154.4070 C   0  0  0  0  0  2  0  0  0  0  0  0
  161.3030  204.6600  147.7630 C   0  0  0  0  0  0  0  0  0  0  0  0
  161.4760  203.0410  145.8710 C   0  0  0  0  0  1  0  0  0  0  0  0
  161.2210  207.8450  149.5640 C   0  0  0  0  0  0  0  0  0  0  0  0
  161.2030  206.5320  151.3850 C   0  0  0  0  0  0  0  0  0  0  0  0
  161.2800  206.0070  147.9100 C   0  0  0  0  0  0  0  0  0  0  0  0
  161.2020  206.2350  152.7540 C   0  0  0  0  0  0  0  0  0  0  0  0
  161.1560  208.5670  155.5110 N   0  0  0  0  0  0  0  0  0  0  0  0
  161.2210  205.7480  150.2440 C   0  0  0  0  0  0  0  0  0  0  0  0
  161.4360  205.5090  145.7800 N   0  0  0  0  0  0  0  0  0  0  0  0
  161.2120  205.0520  153.1810 O   0  0  0  0  0  0  0  0  0  0  0  0
  161.0710  211.5160  155.6230 N   0  0  0  0  0  2  0  0  0  0  0  0
  159.9520  212.3320  155.9890 C   0  0  0  0  0  0  0  0  0  0  0  0
  159.8770  212.7870  157.1670 O   0  0  0  0  0  0  0  0  0  0  0  0
  157.1760  214.4480  154.7160 C   0  0  0  0  0  3  0  0  0  0  0  0
  158.2550  214.0390  155.3890 C   0  0  0  0  0  3  0  0  0  0  0  0
  156.6800  213.6200  153.5590 C   0  0  0  0  0  2  0  0  0  0  0  0
  158.9550  212.7710  154.9610 C   0  0  2  0  0  3  0  0  0  0  0  0
  156.6410  212.1430  153.9700 C   0  0  0  0  0  2  0  0  0  0  0  0
  157.9740  211.6420  154.5720 C   0  0  0  0  0  2  0  0  0  0  0  0
  161.1630  209.0480  148.6730 C   0  0  0  0  0  2  0  0  0  0  0  0
  162.3150  209.9790  149.0090 C   0  0  2  0  0  3  0  0  0  0  0  0
  162.7650  209.7930  150.4460 C   0  0  0  0  0  1  0  0  0  0  0  0
  160.7670  213.7280  148.7780 S   0  0  0  0  0  0  0  0  0  0  0  0
  161.3260  213.6430  146.0180 N   0  0  0  0  0  2  0  0  0  0  0  0
  161.9750  211.8430  147.4290 N   0  0  0  0  0  0  0  0  0  0  0  0
  161.2370  212.2080  149.6950 C   0  0  0  0  0  2  0  0  0  0  0  0
  161.4260  212.9960  147.2890 C   0  0  0  0  0  0  0  0  0  0  0  0
  161.9500  211.3620  148.7380 N   0  0  0  0  0  0  0  0  0  0  0  0
  161.3530  213.8000  143.5320 C   0  0  2  0  0  0  0  0  0  0  0  0
  161.8090  213.0340  144.7850 C   0  0  1  0  0  0  0  0  0  0  0  0
  163.0490  214.1550  144.1210 S   0  0  0  0  0  0  0  0  0  0  0  0
  160.6520  212.6240  144.0400 N   0  0  0  0  0  2  0  0  0  0  0  0
  161.6650  213.3910  142.2330 O   0  0  0  0  0  0  0  0  0  0  0  0
  160.6040  213.8350  141.4460 C   0  0  0  0  0  2  0  0  0  0  0  0
  159.8550  212.6390  140.8930 C   0  0  0  0  0  1  0  0  0  0  0  0
  1 17  1  0  0  0  0
  2 19  2  0  0  0  0
  3 13  1  0  0  0  0
  4 10  1  0  0  0  0
  5 20  1  0  0  0  0
  6  2  1  0  0  0  0
  7 16  1  0  0  0  0
  7  4  1  0  0  0  0
  8  5  2  0  0  0  0
  9 12  1  0  0  0  0
  9 19  1  0  0  0  0
 10  6  1  0  0  0  0
 10  9  2  0  0  0  0
 11 15  1  0  0  0  0
 11 20  1  0  0  0  0
 12 23  1  0  0  0  0
 13 17  2  0  0  0  0
 13  8  1  0  0  0  0
 14  3  1  0  0  0  0
 15  7  2  0  0  0  0
 16 18  1  0  0  0  0
 17 11  1  0  0  0  0
 18 22  2  0  0  0  0
 18  6  1  0  0  0  0
 20 16  2  0  0  0  0
 21  3  1  0  0  0  0
 21  1  2  0  0  0  0
 23 24  1  0  0  0  0
 24 25  2  0  0  0  0
 26 27  2  0  0  0  0
 28 30  1  0  0  0  0
 28 26  1  0  0  0  0
 29 27  1  0  0  0  0
 29 24  1  1  0  0  0
 30 31  1  0  0  0  0
 31 29  1  0  0  0  0
 32 33  1  0  0  0  0
 32 15  1  0  0  0  0
 33 34  1  1  0  0  0
 35 38  1  0  0  0  0
 36 39  1  0  0  0  0
 37 40  1  0  0  0  0
 39 37  2  0  0  0  0
 39 35  1  0  0  0  0
 40 33  1  0  0  0  0
 40 38  1  0  0  0  0
 41 45  1  6  0  0  0
 41 44  1  0  0  0  0
 41 43  1  0  0  0  0
 41 42  1  0  0  0  0
 42 36  1  1  0  0  0
 43 42  1  0  0  0  0
 44 42  1  0  0  0  0
 46 45  1  0  0  0  0
 47 46  1  0  0  0  0
M  END
>  <MODEL>
3

>  <REMARK>
 VINA RESULT:      -6.3      1.950      2.734
  Name = 
  8 active torsions:
  status: ('A' for Active; 'I' for Inactive)
    1  A    between atoms: C_1  and  O_21
    2  A    between atoms: N_2  and  C_25
    3  A    between atoms: C_3  and  N_10
    4  A    between atoms: C_9  and  C_28
    5  A    between atoms: C_13  and  C_32
    6  A    between atoms: C_13  and  C_40
    7  A    between atoms: C_15  and  O_21
    8  A    between atoms: C_40  and  N_41
                            x       y       z     vdW  Elec       q    Type
                         _______ _______ _______ _____ _____    ______ ____

>  <TORSDO>
F 8

$$$$
=
 OpenBabel11042421433D

 47 55  0  0  1  0  0  0  0  0999 V2000
  159.8710  212.8940  153.0880 C   0  0  0  0  0  3  0  0  0  0  0  0
  161.1080  204.6120  153.5860 N   0  0  0  0  0  0  0  0  0  0  0  0
  159.7890  213.3810  155.2320 N   0  0  0  0  0  0  0  0  0  0  0  0
  160.7270  207.4830  151.4760 C   0  0  0  0  0  2  0  0  0  0  0  0
  160.3950  209.8340  155.7760 C   0  0  0  0  0  3  0  0  0  0  0  0
  160.9200  205.9750  153.3460 N   0  0  0  0  0  0  0  0  0  0  0  0
  160.5890  208.5070  152.4180 C   0  0  0  0  0  0  0  0  0  0  0  0
  160.1860  211.1520  156.1230 N   0  0  0  0  0  0  0  0  0  0  0  0
  161.0850  204.9270  151.3440 C   0  0  0  0  0  0  0  0  0  0  0  0
  160.8940  206.1990  152.0120 C   0  0  0  0  0  0  0  0  0  0  0  0
  160.3140  210.4540  153.4460 N   0  0  0  0  0  0  0  0  0  0  0  0
  161.0840  204.7020  150.0280 C   0  0  0  0  0  3  0  0  0  0  0  0
  160.0470  212.0750  155.1260 C   0  0  0  0  0  0  0  0  0  0  0  0
  159.6180  214.1410  156.4600 C   0  0  0  0  0  1  0  0  0  0  0  0
  160.3960  209.8660  152.2290 C   0  0  0  0  0  0  0  0  0  0  0  0
  160.6220  208.2660  153.7880 C   0  0  0  0  0  0  0  0  0  0  0  0
  160.1060  211.7440  153.8130 C   0  0  0  0  0  0  0  0  0  0  0  0
  160.7900  206.9640  154.2760 C   0  0  0  0  0  0  0  0  0  0  0  0
  161.2100  203.9320  152.3600 N   0  0  0  0  0  0  0  0  0  0  0  0
  160.4520  209.4960  154.4020 C   0  0  0  0  0  0  0  0  0  0  0  0
  159.6800  213.8860  154.0040 N   0  0  0  0  0  0  0  0  0  0  0  0
  160.8170  206.7110  155.5090 O   0  0  0  0  0  0  0  0  0  0  0  0
  161.3480  203.4150  149.4570 N   0  0  0  0  0  0  0  0  0  0  0  0
  161.6030  203.1720  148.0680 C   0  0  0  0  0  0  0  0  0  0  0  0
  162.0220  202.0350  147.7060 O   0  0  0  0  0  0  0  0  0  0  0  0
  160.8380  204.2990  144.6110 C   0  0  0  0  0  3  0  0  0  0  0  0
  160.9490  203.5370  145.7040 C   0  0  0  0  0  3  0  0  0  0  0  0
  161.0270  205.7880  144.7380 C   0  0  0  0  0  2  0  0  0  0  0  0
  161.2410  204.1920  147.0320 C   0  0  2  0  0  3  0  0  0  0  0  0
  162.2780  206.0730  145.5770 C   0  0  0  0  0  2  0  0  0  0  0  0
  162.2870  205.3250  146.9300 C   0  0  0  0  0  2  0  0  0  0  0  0
  160.3590  210.5780  150.9110 C   0  0  0  0  0  2  0  0  0  0  0  0
  161.6930  210.4020  150.2060 C   0  0  2  0  0  3  0  0  0  0  0  0
  162.8480  210.6450  151.1590 C   0  0  0  0  0  1  0  0  0  0  0  0
  162.5130  213.1140  147.2950 S   0  0  0  0  0  0  0  0  0  0  0  0
  159.7310  213.3490  146.9190 N   0  0  0  0  0  2  0  0  0  0  0  0
  160.6020  211.7710  148.4680 N   0  0  0  0  0  0  0  0  0  0  0  0
  163.0040  211.9280  148.6070 C   0  0  0  0  0  2  0  0  0  0  0  0
  160.8050  212.6900  147.5940 C   0  0  0  0  0  0  0  0  0  0  0  0
  161.7720  211.2690  149.0400 N   0  0  0  0  0  0  0  0  0  0  0  0
  157.5140  214.3160  147.5150 C   0  0  2  0  0  0  0  0  0  0  0  0
  158.3300  213.0540  147.1920 C   0  0  1  0  0  0  0  0  0  0  0  0
  157.3970  213.6990  145.7960 S   0  0  0  0  0  0  0  0  0  0  0  0
  158.0750  213.4510  148.5480 N   0  0  0  0  0  2  0  0  0  0  0  0
  156.1560  214.2830  147.8400 O   0  0  0  0  0  0  0  0  0  0  0  0
  156.1110  214.3670  149.2310 C   0  0  0  0  0  2  0  0  0  0  0  0
  154.6670  214.4510  149.6830 C   0  0  0  0  0  1  0  0  0  0  0  0
  1 17  1  0  0  0  0
  1 21  2  0  0  0  0
  3 14  1  0  0  0  0
  4 10  1  0  0  0  0
  4  7  1  0  0  0  0
  5  8  2  0  0  0  0
  6  2  1  0  0  0  0
  6 18  1  0  0  0  0
  7 16  1  0  0  0  0
  9 10  2  0  0  0  0
  9 19  1  0  0  0  0
 10  6  1  0  0  0  0
 11 17  1  0  0  0  0
 11 20  1  0  0  0  0
 12  9  1  0  0  0  0
 13  3  1  0  0  0  0
 13  8  1  0  0  0  0
 15  7  2  0  0  0  0
 15 11  1  0  0  0  0
 16 18  1  0  0  0  0
 16 20  2  0  0  0  0
 17 13  2  0  0  0  0
 18 22  2  0  0  0  0
 19  2  2  0  0  0  0
 20  5  1  0  0  0  0
 21  3  1  0  0  0  0
 23 12  2  0  0  0  0
 24 23  1  0  0  0  0
 25 24  2  0  0  0  0
 26 28  1  0  0  0  0
 26 27  2  0  0  0  0
 27 29  1  0  0  0  0
 28 30  1  0  0  0  0
 29 24  1  1  0  0  0
 30 31  1  0  0  0  0
 31 29  1  0  0  0  0
 32 15  1  0  0  0  0
 33 32  1  0  0  0  0
 33 34  1  1  0  0  0
 35 39  1  0  0  0  0
 35 38  1  0  0  0  0
 36 39  1  0  0  0  0
 37 40  1  0  0  0  0
 38 40  1  0  0  0  0
 39 37  2  0  0  0  0
 40 33  1  0  0  0  0
 41 45  1  1  0  0  0
 41 44  1  0  0  0  0
 42 36  1  6  0  0  0
 42 41  1  0  0  0  0
 42 44  1  0  0  0  0
 43 42  1  0  0  0  0
 43 41  1  0  0  0  0
 45 46  1  0  0  0  0
 46 47  1  0  0  0  0
M  END
>  <MODEL>
4

>  <REMARK>
 VINA RESULT:      -5.7      2.298      7.887
  Name = 
  8 active torsions:
  status: ('A' for Active; 'I' for Inactive)
    1  A    between atoms: C_1  and  O_21
    2  A    between atoms: N_2  and  C_25
    3  A    between atoms: C_3  and  N_10
    4  A    between atoms: C_9  and  C_28
    5  A    between atoms: C_13  and  C_32
    6  A    between atoms: C_13  and  C_40
    7  A    between atoms: C_15  and  O_21
    8  A    between atoms: C_40  and  N_41
                            x       y       z     vdW  Elec       q    Type
                         _______ _______ _______ _____ _____    ______ ____

>  <TORSDO>
F 8

$$$$
=
 OpenBabel11042421433D

 47 55  0  0  1  0  0  0  0  0999 V2000
  159.9130  212.4410  153.3130 C   0  0  0  0  0  3  0  0  0  0  0  0
  161.3690  204.1800  153.2440 N   0  0  0  0  0  0  0  0  0  0  0  0
  160.0770  212.8230  155.4730 N   0  0  0  0  0  0  0  0  0  0  0  0
  160.6820  207.1370  151.3410 C   0  0  0  0  0  2  0  0  0  0  0  0
  160.8150  209.2710  155.7630 C   0  0  0  0  0  3  0  0  0  0  0  0
  161.1270  205.5470  153.0970 N   0  0  0  0  0  0  0  0  0  0  0  0
  160.6360  208.1110  152.3430 C   0  0  0  0  0  0  0  0  0  0  0  0
  160.6230  210.5650  156.1990 N   0  0  0  0  0  0  0  0  0  0  0  0
  161.0730  204.6000  151.0390 C   0  0  0  0  0  0  0  0  0  0  0  0
  160.9380  205.8340  151.7890 C   0  0  0  0  0  0  0  0  0  0  0  0
  160.4460  209.9990  153.4940 N   0  0  0  0  0  0  0  0  0  0  0  0
  160.9210  204.4390  149.7240 C   0  0  0  0  0  2  0  0  0  0  0  0
  160.3470  211.5310  155.2730 C   0  0  0  0  0  0  0  0  0  0  0  0
  160.0380  213.5190  156.7500 C   0  0  0  0  0  1  0  0  0  0  0  0
  160.3950  209.4720  152.2470 C   0  0  0  0  0  0  0  0  0  0  0  0
  160.8370  207.8060  153.6860 C   0  0  0  0  0  0  0  0  0  0  0  0
  160.2570  211.2640  153.9470 C   0  0  0  0  0  0  0  0  0  0  0  0
  161.0880  206.4870  154.0850 C   0  0  0  0  0  0  0  0  0  0  0  0
  161.3390  203.5620  151.9820 N   0  0  0  0  0  0  0  0  0  0  0  0
  160.7160  209.0000  154.3770 C   0  0  0  0  0  0  0  0  0  0  0  0
  159.8130  213.3830  154.2940 N   0  0  0  0  0  0  0  0  0  0  0  0
  161.2660  206.1760  155.2910 O   0  0  0  0  0  0  0  0  0  0  0  0
  161.1420  203.1870  149.0610 N   0  0  0  0  0  2  0  0  0  0  0  0
  161.4890  203.0430  147.6780 C   0  0  0  0  0  0  0  0  0  0  0  0
  161.8560  201.9110  147.2480 O   0  0  0  0  0  0  0  0  0  0  0  0
  160.6960  204.4880  144.3480 C   0  0  0  0  0  3  0  0  0  0  0  0
  160.7260  203.6660  145.4020 C   0  0  0  0  0  3  0  0  0  0  0  0
  161.2340  205.8870  144.4990 C   0  0  0  0  0  2  0  0  0  0  0  0
  161.2810  204.1700  146.7140 C   0  0  2  0  0  3  0  0  0  0  0  0
  162.5880  205.8380  145.2180 C   0  0  0  0  0  2  0  0  0  0  0  0
  162.5460  205.0390  146.5400 C   0  0  0  0  0  2  0  0  0  0  0  0
  160.1870  210.2440  150.9800 C   0  0  0  0  0  2  0  0  0  0  0  0
  161.5360  210.6140  150.3880 C   0  0  2  0  0  3  0  0  0  0  0  0
  162.6340  210.5130  151.4300 C   0  0  0  0  0  1  0  0  0  0  0  0
  160.8660  214.4530  149.2420 S   0  0  0  0  0  0  0  0  0  0  0  0
  161.3410  213.6040  146.5980 N   0  0  0  0  0  2  0  0  0  0  0  0
  161.5950  212.0850  148.4090 N   0  0  0  0  0  0  0  0  0  0  0  0
  160.9990  213.1240  150.5010 C   0  0  0  0  0  2  0  0  0  0  0  0
  161.3160  213.2660  147.9870 C   0  0  0  0  0  0  0  0  0  0  0  0
  161.4860  211.9400  149.7930 N   0  0  0  0  0  0  0  0  0  0  0  0
  161.1900  213.0930  144.1650 C   0  0  2  0  0  0  0  0  0  0  0  0
  161.6520  212.6320  145.5570 C   0  0  1  0  0  0  0  0  0  0  0  0
  162.9570  213.3640  144.5580 S   0  0  0  0  0  0  0  0  0  0  0  0
  160.4010  212.1960  145.0040 N   0  0  0  0  0  2  0  0  0  0  0  0
  161.3500  212.3180  143.0140 O   0  0  0  0  0  0  0  0  0  0  0  0
  160.1420  212.4310  142.3260 C   0  0  0  0  0  2  0  0  0  0  0  0
  160.1600  211.5050  141.1260 C   0  0  0  0  0  1  0  0  0  0  0  0
  1 17  1  0  0  0  0
  1 21  2  0  0  0  0
  3 14  1  0  0  0  0
  4 10  1  0  0  0  0
  4  7  1  0  0  0  0
  5  8  2  0  0  0  0
  6  2  1  0  0  0  0
  6 18  1  0  0  0  0
  7 16  1  0  0  0  0
  9 10  2  0  0  0  0
  9 19  1  0  0  0  0
 10  6  1  0  0  0  0
 11 17  1  0  0  0  0
 11 20  1  0  0  0  0
 12  9  1  0  0  0  0
 13  3  1  0  0  0  0
 13  8  1  0  0  0  0
 15  7  2  0  0  0  0
 15 11  1  0  0  0  0
 16 18  1  0  0  0  0
 16 20  2  0  0  0  0
 17 13  2  0  0  0  0
 18 22  2  0  0  0  0
 19  2  2  0  0  0  0
 20  5  1  0  0  0  0
 21  3  1  0  0  0  0
 23 12  1  0  0  0  0
 24 23  1  0  0  0  0
 25 24  2  0  0  0  0
 26 28  1  0  0  0  0
 26 27  2  0  0  0  0
 27 29  1  0  0  0  0
 28 30  1  0  0  0  0
 29 24  1  1  0  0  0
 30 31  1  0  0  0  0
 31 29  1  0  0  0  0
 32 15  1  0  0  0  0
 33 32  1  0  0  0  0
 33 34  1  1  0  0  0
 35 38  1  0  0  0  0
 36 39  1  0  0  0  0
 37 40  1  0  0  0  0
 39 37  2  0  0  0  0
 39 35  1  0  0  0  0
 40 33  1  0  0  0  0
 40 38  1  0  0  0  0
 41 45  1  6  0  0  0
 41 43  1  0  0  0  0
 41 44  1  0  0  0  0
 41 42  1  0  0  0  0
 42 36  1  1  0  0  0
 43 42  1  0  0  0  0
 44 42  1  0  0  0  0
 46 45  1  0  0  0  0
 47 46  1  0  0  0  0
M  END
>  <MODEL>
5

>  <REMARK>
 VINA RESULT:      -5.2      2.290      7.823
  Name = 
  8 active torsions:
  status: ('A' for Active; 'I' for Inactive)
    1  A    between atoms: C_1  and  O_21
    2  A    between atoms: N_2  and  C_25
    3  A    between atoms: C_3  and  N_10
    4  A    between atoms: C_9  and  C_28
    5  A    between atoms: C_13  and  C_32
    6  A    between atoms: C_13  and  C_40
    7  A    between atoms: C_15  and  O_21
    8  A    between atoms: C_40  and  N_41
                            x       y       z     vdW  Elec       q    Type
                         _______ _______ _______ _____ _____    ______ ____

>  <TORSDO>
F 8

$$$$
