=
 OpenBabel11052410273D

 36 40  0  0  1  0  0  0  0  0999 V2000
  162.2700  206.4630  150.0490 C   0  0  1  0  0  3  0  0  0  0  0  0
  160.5680  208.4110  153.9710 C   0  0  0  0  0  3  0  0  0  0  0  0
  162.1470  210.4580  152.2580 N   0  0  0  0  0  0  0  0  0  0  0  0
  164.0790  212.0070  157.2610 C   0  0  0  0  0  1  0  0  0  0  0  0
  161.1440  204.6810  148.5690 C   0  0  0  0  0  2  0  0  0  0  0  0
  162.2270  207.9340  149.6720 C   0  0  0  0  0  2  0  0  0  0  0  0
  161.5650  209.2420  154.2900 C   0  0  0  0  0  0  0  0  0  0  0  0
  162.6030  208.7030  150.8030 O   0  0  0  0  0  0  0  0  0  0  0  0
  162.9260  211.1550  157.0310 N   0  0  0  0  0  2  0  0  0  0  0  0
  162.6680  209.6660  153.3670 C   0  0  2  0  0  3  0  0  0  0  0  0
  161.2870  206.6090  152.4000 C   0  0  0  0  0  2  0  0  0  0  0  0
  161.6520  209.7770  155.6000 N   0  0  0  0  0  0  0  0  0  0  0  0
  161.0890  206.0930  150.9810 C   0  0  2  0  0  3  0  0  0  0  0  0
  162.6870  210.5220  155.7730 C   0  0  0  0  0  0  0  0  0  0  0  0
  162.3500  205.6070  148.7660 C   0  0  0  0  0  2  0  0  0  0  0  0
  160.8490  204.6100  150.9990 C   0  0  0  0  0  3  0  0  0  0  0  0
  160.8660  203.9360  149.8420 C   0  0  0  0  0  0  0  0  0  0  0  0
  163.7880  210.7060  154.3670 S   0  0  0  0  0  0  0  0  0  0  0  0
  160.3680  207.7990  152.6220 C   0  0  0  0  0  2  0  0  0  0  0  0
  162.1160  209.9890  151.0470 C   0  0  0  0  0  0  0  0  0  0  0  0
  162.3170  211.3290  148.9960 C   0  0  0  0  0  3  0  0  0  0  0  0
  161.5570  210.7980  149.9510 C   0  0  0  0  0  3  0  0  0  0  0  0
  160.7670  213.6440  145.7560 C   0  0  0  0  0  0  0  0  0  0  0  0
  160.3770  212.2380  147.6880 C   0  0  0  0  0  3  0  0  0  0  0  0
  162.1470  213.5380  145.9590 C   0  0  0  0  0  3  0  0  0  0  0  0
  162.6420  212.7820  147.0260 C   0  0  0  0  0  3  0  0  0  0  0  0
  161.7620  212.1280  147.8950 C   0  0  0  0  0  0  0  0  0  0  0  0
  160.2400  214.4400  144.6160 C   0  0  0  0  0  1  0  0  0  0  0  0
  159.8820  212.9940  146.6220 C   0  0  0  0  0  3  0  0  0  0  0  0
  160.6320  202.4620  149.8120 C   0  0  0  0  0  2  0  0  0  0  0  0
  161.0170  200.4160  148.5430 C   0  0  0  0  0  2  0  0  0  0  0  0
  160.3480  201.3780  147.6560 N   0  0  0  0  0  0  0  0  0  0  0  0
  161.3500  201.8320  148.6320 C   0  0  1  0  0  3  0  0  0  0  0  0
  161.0260  201.3120  146.3710 C   0  0  0  0  0  2  0  0  0  0  0  0
  160.3020  202.1790  145.3560 C   0  0  0  0  0  2  0  0  0  0  0  0
  161.0230  203.5060  145.1820 C   0  0  0  0  0  1  0  0  0  0  0  0
  1 15  1  6  0  0  0
  1 13  1  0  0  0  0
  2  7  2  0  0  0  0
  5 15  1  0  0  0  0
  5 17  1  0  0  0  0
  6  1  1  0  0  0  0
  6  8  1  0  0  0  0
  7 12  1  0  0  0  0
  8 20  1  0  0  0  0
  9  4  1  0  0  0  0
 10  3  1  6  0  0  0
 10  7  1  0  0  0  0
 10 18  1  0  0  0  0
 11 19  1  0  0  0  0
 12 14  2  0  0  0  0
 13 16  1  1  0  0  0
 13 11  1  0  0  0  0
 14  9  1  0  0  0  0
 17 16  2  0  0  0  0
 18 14  1  0  0  0  0
 19  2  1  0  0  0  0
 20  3  2  0  0  0  0
 21 22  2  0  0  0  0
 22 20  1  0  0  0  0
 23 25  2  0  0  0  0
 23 29  1  0  0  0  0
 24 27  1  0  0  0  0
 25 26  1  0  0  0  0
 26 27  2  0  0  0  0
 27 21  1  0  0  0  0
 28 23  1  0  0  0  0
 29 24  2  0  0  0  0
 30 17  1  0  0  0  0
 31 33  1  0  0  0  0
 32 31  1  0  0  0  0
 32 33  1  0  0  0  0
 33 30  1  1  0  0  0
 34 32  1  0  0  0  0
 35 34  1  0  0  0  0
 36 35  1  0  0  0  0
M  END
>  <MODEL>
1

>  <REMARK>
 VINA RESULT:      -5.5      0.000      0.000
  Name = 
  6 active torsions:
  status: ('A' for Active; 'I' for Inactive)
    1  A    between atoms: C_1  and  C_11
    2  A    between atoms: C_11  and  N_23
    3  A    between atoms: C_16  and  C_22
    4  A    between atoms: C_21  and  C_35
    5  A    between atoms: C_26  and  C_32
    6  A    between atoms: C_30  and  C_32
                            x       y       z     vdW  Elec       q    Type
                         _______ _______ _______ _____ _____    ______ ____

>  <TORSDO>
F 6

$$$$
=
 OpenBabel11052410273D

 36 40  0  0  1  0  0  0  0  0999 V2000
  161.2980  207.5260  153.5430 C   0  0  1  0  0  3  0  0  0  0  0  0
  159.5700  211.8520  152.9270 C   0  0  0  0  0  3  0  0  0  0  0  0
  160.7750  211.4830  155.7620 N   0  0  0  0  0  0  0  0  0  0  0  0
  156.2180  214.3480  157.2410 C   0  0  0  0  0  1  0  0  0  0  0  0
  162.5280  206.0690  151.8120 C   0  0  0  0  0  2  0  0  0  0  0  0
  162.0670  208.3200  154.5860 C   0  0  0  0  0  2  0  0  0  0  0  0
  159.0590  212.0910  154.1390 C   0  0  0  0  0  0  0  0  0  0  0  0
  161.1940  209.2770  155.1630 O   0  0  0  0  0  0  0  0  0  0  0  0
  156.7290  214.2210  155.8880 N   0  0  0  0  0  2  0  0  0  0  0  0
  159.3760  211.3150  155.3820 C   0  0  2  0  0  3  0  0  0  0  0  0
  159.9370  209.4190  152.5050 C   0  0  0  0  0  2  0  0  0  0  0  0
  158.1160  213.1340  154.3180 N   0  0  0  0  0  0  0  0  0  0  0  0
  161.0290  208.3820  152.2800 C   0  0  2  0  0  3  0  0  0  0  0  0
  157.6770  213.2160  155.5250 C   0  0  0  0  0  0  0  0  0  0  0  0
  162.0390  206.2010  153.2590 C   0  0  0  0  0  2  0  0  0  0  0  0
  160.6900  207.5200  151.0970 C   0  0  0  0  0  3  0  0  0  0  0  0
  161.4150  206.4190  150.8680 C   0  0  0  0  0  0  0  0  0  0  0  0
  158.3140  212.0120  156.6950 S   0  0  0  0  0  0  0  0  0  0  0  0
  160.5790  210.7910  152.6230 C   0  0  0  0  0  2  0  0  0  0  0  0
  161.6290  210.5120  155.6480 C   0  0  0  0  0  0  0  0  0  0  0  0
  163.8670  211.4570  155.2710 C   0  0  0  0  0  3  0  0  0  0  0  0
  163.0420  210.7180  156.0100 C   0  0  0  0  0  3  0  0  0  0  0  0
  167.9740  212.1070  156.2560 C   0  0  0  0  0  0  0  0  0  0  0  0
  165.6590  211.9740  156.9520 C   0  0  0  0  0  3  0  0  0  0  0  0
  167.5960  211.8060  154.9440 C   0  0  0  0  0  3  0  0  0  0  0  0
  166.2500  211.5910  154.6350 C   0  0  0  0  0  3  0  0  0  0  0  0
  165.2740  211.6740  155.6350 C   0  0  0  0  0  0  0  0  0  0  0  0
  169.4050  212.3450  156.5840 C   0  0  0  0  0  1  0  0  0  0  0  0
  167.0050  212.1890  157.2610 C   0  0  0  0  0  3  0  0  0  0  0  0
  161.1140  205.5340  149.7040 C   0  0  0  0  0  2  0  0  0  0  0  0
  162.0210  206.7840  147.8180 C   0  0  0  0  0  2  0  0  0  0  0  0
  161.2640  205.6440  147.2810 N   0  0  0  0  0  0  0  0  0  0  0  0
  160.7890  206.3620  148.4730 C   0  0  1  0  0  3  0  0  0  0  0  0
  160.4820  206.1440  146.1620 C   0  0  0  0  0  2  0  0  0  0  0  0
  160.9960  205.5500  144.8620 C   0  0  0  0  0  2  0  0  0  0  0  0
  161.1640  204.0450  144.9960 C   0  0  0  0  0  1  0  0  0  0  0  0
  1 15  1  6  0  0  0
  1  6  1  0  0  0  0
  2  7  2  0  0  0  0
  5 15  1  0  0  0  0
  6  8  1  0  0  0  0
  7 12  1  0  0  0  0
  8 20  1  0  0  0  0
  9  4  1  0  0  0  0
 10  7  1  6  0  0  0
 10  3  1  0  0  0  0
 10 18  1  0  0  0  0
 11 19  1  0  0  0  0
 12 14  2  0  0  0  0
 13 16  1  6  0  0  0
 13 11  1  0  0  0  0
 13  1  1  0  0  0  0
 14  9  1  0  0  0  0
 14 18  1  0  0  0  0
 17 16  2  0  0  0  0
 17  5  1  0  0  0  0
 19  2  1  0  0  0  0
 20  3  2  0  0  0  0
 20 22  1  0  0  0  0
 21 27  1  0  0  0  0
 21 22  2  0  0  0  0
 23 28  1  0  0  0  0
 23 29  1  0  0  0  0
 24 29  2  0  0  0  0
 25 23  2  0  0  0  0
 26 25  1  0  0  0  0
 26 27  2  0  0  0  0
 27 24  1  0  0  0  0
 30 17  1  0  0  0  0
 31 33  1  0  0  0  0
 32 31  1  0  0  0  0
 32 33  1  0  0  0  0
 33 30  1  1  0  0  0
 34 32  1  0  0  0  0
 35 36  1  0  0  0  0
 35 34  1  0  0  0  0
M  END
>  <MODEL>
2

>  <REMARK>
 VINA RESULT:      -5.2      3.829      6.608
  Name = 
  6 active torsions:
  status: ('A' for Active; 'I' for Inactive)
    1  A    between atoms: C_1  and  C_11
    2  A    between atoms: C_11  and  N_23
    3  A    between atoms: C_16  and  C_22
    4  A    between atoms: C_21  and  C_35
    5  A    between atoms: C_26  and  C_32
    6  A    between atoms: C_30  and  C_32
                            x       y       z     vdW  Elec       q    Type
                         _______ _______ _______ _____ _____    ______ ____

>  <TORSDO>
F 6

$$$$
=
 OpenBabel11052410273D

 36 40  0  0  1  0  0  0  0  0999 V2000
  161.3290  207.5090  153.5890 C   0  0  1  0  0  3  0  0  0  0  0  0
  159.6000  211.8020  152.7810 C   0  0  0  0  0  3  0  0  0  0  0  0
  160.7260  211.5340  155.6590 N   0  0  0  0  0  0  0  0  0  0  0  0
  156.1170  214.4220  156.9140 C   0  0  0  0  0  1  0  0  0  0  0  0
  162.6140  206.0020  151.9420 C   0  0  0  0  0  2  0  0  0  0  0  0
  162.0650  208.3410  154.6260 C   0  0  0  0  0  2  0  0  0  0  0  0
  159.0540  212.0790  153.9700 C   0  0  0  0  0  0  0  0  0  0  0  0
  161.1720  209.3110  155.1460 O   0  0  0  0  0  0  0  0  0  0  0  0
  156.6670  214.2520  155.5810 N   0  0  0  0  0  2  0  0  0  0  0  0
  159.3400  211.3460  155.2460 C   0  0  2  0  0  3  0  0  0  0  0  0
  159.9890  209.3580  152.4500 C   0  0  0  0  0  2  0  0  0  0  0  0
  158.1020  213.1220  154.0870 N   0  0  0  0  0  0  0  0  0  0  0  0
  161.0920  208.3210  152.2910 C   0  0  2  0  0  3  0  0  0  0  0  0
  157.6290  213.2410  155.2780 C   0  0  0  0  0  0  0  0  0  0  0  0
  162.0830  206.1790  153.3700 C   0  0  0  0  0  2  0  0  0  0  0  0
  160.7900  207.4180  151.1280 C   0  0  0  0  0  3  0  0  0  0  0  0
  161.5260  206.3130  150.9560 C   0  0  0  0  0  0  0  0  0  0  0  0
  158.2380  212.0800  156.5040 S   0  0  0  0  0  0  0  0  0  0  0  0
  160.6220  210.7370  152.5410 C   0  0  0  0  0  2  0  0  0  0  0  0
  161.5880  210.5640  155.6020 C   0  0  0  0  0  0  0  0  0  0  0  0
  163.8600  211.4140  155.2060 C   0  0  0  0  0  3  0  0  0  0  0  0
  162.9890  210.7900  155.9960 C   0  0  0  0  0  3  0  0  0  0  0  0
  167.9360  212.1200  156.2800 C   0  0  0  0  0  0  0  0  0  0  0  0
  165.6050  211.9790  156.9210 C   0  0  0  0  0  3  0  0  0  0  0  0
  167.5930  211.7910  154.9640 C   0  0  0  0  0  3  0  0  0  0  0  0
  166.2570  211.5580  154.6270 C   0  0  0  0  0  3  0  0  0  0  0  0
  165.2560  211.6500  155.6000 C   0  0  0  0  0  0  0  0  0  0  0  0
  169.3560  212.3770  156.6380 C   0  0  0  0  0  1  0  0  0  0  0  0
  166.9410  212.2120  157.2580 C   0  0  0  0  0  3  0  0  0  0  0  0
  161.2620  205.3880  149.8150 C   0  0  0  0  0  2  0  0  0  0  0  0
  160.3940  203.5240  151.1240 C   0  0  0  0  0  2  0  0  0  0  0  0
  160.3670  203.1320  149.7070 N   0  0  0  0  0  0  0  0  0  0  0  0
  161.4710  203.9450  150.2380 C   0  0  1  0  0  3  0  0  0  0  0  0
  160.8600  201.7650  149.6370 C   0  0  0  0  0  2  0  0  0  0  0  0
  160.6630  201.2140  148.2360 C   0  0  0  0  0  2  0  0  0  0  0  0
  161.0850  202.2400  147.1970 C   0  0  0  0  0  1  0  0  0  0  0  0
  1 15  1  6  0  0  0
  1  6  1  0  0  0  0
  2  7  2  0  0  0  0
  5 15  1  0  0  0  0
  6  8  1  0  0  0  0
  7 12  1  0  0  0  0
  8 20  1  0  0  0  0
  9  4  1  0  0  0  0
 10  7  1  6  0  0  0
 10  3  1  0  0  0  0
 10 18  1  0  0  0  0
 11 19  1  0  0  0  0
 12 14  2  0  0  0  0
 13 16  1  6  0  0  0
 13 11  1  0  0  0  0
 13  1  1  0  0  0  0
 14  9  1  0  0  0  0
 14 18  1  0  0  0  0
 17 16  2  0  0  0  0
 17  5  1  0  0  0  0
 19  2  1  0  0  0  0
 20  3  2  0  0  0  0
 20 22  1  0  0  0  0
 21 27  1  0  0  0  0
 21 22  2  0  0  0  0
 23 28  1  0  0  0  0
 23 29  1  0  0  0  0
 24 29  2  0  0  0  0
 25 23  2  0  0  0  0
 26 25  1  0  0  0  0
 26 27  2  0  0  0  0
 27 24  1  0  0  0  0
 30 17  1  0  0  0  0
 32 33  1  0  0  0  0
 32 31  1  0  0  0  0
 33 30  1  6  0  0  0
 33 31  1  0  0  0  0
 34 32  1  0  0  0  0
 35 34  1  0  0  0  0
 36 35  1  0  0  0  0
M  END
>  <MODEL>
3

>  <REMARK>
 VINA RESULT:      -4.8      3.606      6.481
  Name = 
  6 active torsions:
  status: ('A' for Active; 'I' for Inactive)
    1  A    between atoms: C_1  and  C_11
    2  A    between atoms: C_11  and  N_23
    3  A    between atoms: C_16  and  C_22
    4  A    between atoms: C_21  and  C_35
    5  A    between atoms: C_26  and  C_32
    6  A    between atoms: C_30  and  C_32
                            x       y       z     vdW  Elec       q    Type
                         _______ _______ _______ _____ _____    ______ ____

>  <TORSDO>
F 6

$$$$
=
 OpenBabel11052410273D

 36 40  0  0  1  0  0  0  0  0999 V2000
  162.4410  207.1320  148.5230 C   0  0  1  0  0  3  0  0  0  0  0  0
  160.5220  207.9450  152.7340 C   0  0  0  0  0  3  0  0  0  0  0  0
  161.6410  210.5400  151.4550 N   0  0  0  0  0  0  0  0  0  0  0  0
  163.3960  211.4490  156.6760 C   0  0  0  0  0  1  0  0  0  0  0  0
  161.6250  205.4830  146.7210 C   0  0  0  0  0  2  0  0  0  0  0  0
  162.1140  208.6130  148.4350 C   0  0  0  0  0  2  0  0  0  0  0  0
  161.3560  208.8740  153.2130 C   0  0  0  0  0  0  0  0  0  0  0  0
  162.3730  209.2110  149.6940 O   0  0  0  0  0  0  0  0  0  0  0  0
  162.4160  210.4540  156.2790 N   0  0  0  0  0  2  0  0  0  0  0  0
  162.3320  209.6650  152.3960 C   0  0  2  0  0  3  0  0  0  0  0  0
  161.5180  206.6420  150.8510 C   0  0  0  0  0  2  0  0  0  0  0  0
  161.3800  209.1570  154.6010 N   0  0  0  0  0  0  0  0  0  0  0  0
  161.3780  206.3760  149.3590 C   0  0  2  0  0  3  0  0  0  0  0  0
  162.2630  210.0370  154.9210 C   0  0  0  0  0  0  0  0  0  0  0  0
  162.6420  206.5660  147.1000 C   0  0  0  0  0  2  0  0  0  0  0  0
  161.4200  204.8980  149.0900 C   0  0  0  0  0  3  0  0  0  0  0  0
  161.5280  204.4720  147.8250 C   0  0  0  0  0  0  0  0  0  0  0  0
  163.2680  210.6890  153.5840 S   0  0  0  0  0  0  0  0  0  0  0  0
  160.4000  207.5730  151.2900 C   0  0  0  0  0  2  0  0  0  0  0  0
  161.6620  210.3120  150.1770 C   0  0  0  0  0  0  0  0  0  0  0  0
  161.0860  211.1300  147.9320 C   0  0  0  0  0  3  0  0  0  0  0  0
  160.9290  211.1930  149.2520 C   0  0  0  0  0  3  0  0  0  0  0  0
  158.9450  213.6070  145.1850 C   0  0  0  0  0  0  0  0  0  0  0  0
  159.5320  213.0460  147.4670 C   0  0  0  0  0  3  0  0  0  0  0  0
  159.7600  212.5690  144.7220 C   0  0  0  0  0  3  0  0  0  0  0  0
  160.4590  211.7690  145.6300 C   0  0  0  0  0  3  0  0  0  0  0  0
  160.3490  212.0010  147.0050 C   0  0  0  0  0  0  0  0  0  0  0  0
  158.1940  214.4530  144.2210 C   0  0  0  0  0  1  0  0  0  0  0  0
  158.8330  213.8460  146.5580 C   0  0  0  0  0  3  0  0  0  0  0  0
  161.5720  203.0130  147.5120 C   0  0  0  0  0  2  0  0  0  0  0  0
  161.0320  200.7980  148.3750 C   0  0  0  0  0  2  0  0  0  0  0  0
  161.7110  201.5450  149.4430 N   0  0  0  0  0  0  0  0  0  0  0  0
  160.7740  202.2230  148.5350 C   0  0  1  0  0  3  0  0  0  0  0  0
  160.9770  201.2880  150.6720 C   0  0  0  0  0  2  0  0  0  0  0  0
  161.5800  202.0860  151.8140 C   0  0  0  0  0  2  0  0  0  0  0  0
  160.7170  203.2980  152.1290 C   0  0  0  0  0  1  0  0  0  0  0  0
  1 15  1  6  0  0  0
  1 13  1  0  0  0  0
  2  7  2  0  0  0  0
  5 15  1  0  0  0  0
  5 17  1  0  0  0  0
  6  1  1  0  0  0  0
  6  8  1  0  0  0  0
  7 12  1  0  0  0  0
  8 20  1  0  0  0  0
  9  4  1  0  0  0  0
 10  3  1  6  0  0  0
 10  7  1  0  0  0  0
 10 18  1  0  0  0  0
 11 19  1  0  0  0  0
 12 14  2  0  0  0  0
 13 16  1  1  0  0  0
 13 11  1  0  0  0  0
 14  9  1  0  0  0  0
 17 16  2  0  0  0  0
 18 14  1  0  0  0  0
 19  2  1  0  0  0  0
 20  3  2  0  0  0  0
 21 22  2  0  0  0  0
 22 20  1  0  0  0  0
 23 29  1  0  0  0  0
 25 23  2  0  0  0  0
 25 26  1  0  0  0  0
 26 27  2  0  0  0  0
 27 24  1  0  0  0  0
 27 21  1  0  0  0  0
 28 23  1  0  0  0  0
 29 24  2  0  0  0  0
 30 17  1  0  0  0  0
 31 33  1  0  0  0  0
 31 32  1  0  0  0  0
 32 34  1  0  0  0  0
 33 30  1  6  0  0  0
 33 32  1  0  0  0  0
 34 35  1  0  0  0  0
 35 36  1  0  0  0  0
M  END
>  <MODEL>
4

>  <REMARK>
 VINA RESULT:      -3.4      1.432      2.348
  Name = 
  6 active torsions:
  status: ('A' for Active; 'I' for Inactive)
    1  A    between atoms: C_1  and  C_11
    2  A    between atoms: C_11  and  N_23
    3  A    between atoms: C_16  and  C_22
    4  A    between atoms: C_21  and  C_35
    5  A    between atoms: C_26  and  C_32
    6  A    between atoms: C_30  and  C_32
                            x       y       z     vdW  Elec       q    Type
                         _______ _______ _______ _____ _____    ______ ____

>  <TORSDO>
F 6

$$$$
