=
 OpenBabel11042420433D

 27 30  0  0  1  0  0  0  0  0999 V2000
  160.6130  210.6950  156.9160 C   0  0  0  0  0  3  0  0  0  0  0  0
  162.0050  210.8210  156.8990 C   0  0  0  0  0  3  0  0  0  0  0  0
  162.7070  210.6790  155.6980 C   0  0  0  0  0  3  0  0  0  0  0  0
  162.0180  210.4180  154.5110 C   0  0  0  0  0  0  0  0  0  0  0  0
  160.6150  210.2890  154.5260 C   0  0  0  0  0  0  0  0  0  0  0  0
  159.8580  210.0010  153.2570 C   0  0  2  0  0  3  0  0  0  0  0  0
  162.7340  210.2460  153.3220 O   0  0  0  0  0  0  0  0  0  0  0  0
  162.0890  210.1720  152.0500 C   0  0  0  0  0  2  0  0  0  0  0  0
  159.9200  210.4280  155.7330 C   0  0  0  0  0  3  0  0  0  0  0  0
  160.7510  209.4300  152.1450 C   0  0  1  0  0  3  0  0  0  0  0  0
  154.9450  214.4530  155.1320 C   0  0  0  0  0  1  0  0  0  0  0  0
  157.1970  212.2400  154.1510 C   0  0  0  0  0  0  0  0  0  0  0  0
  158.1830  211.7370  153.4550 C   0  0  0  0  0  0  0  0  0  0  0  0
  156.5080  210.2270  155.4010 C   0  0  0  0  0  2  0  0  0  0  0  0
  156.1540  213.8070  155.6240 N   0  0  0  0  0  0  0  0  0  0  0  0
  156.4120  211.5250  155.1200 C   0  0  0  0  0  0  0  0  0  0  0  0
  157.0730  213.6920  154.4730 C   0  0  0  0  0  2  0  0  0  0  0  0
  159.1680  211.2310  152.7700 C   0  0  0  0  0  3  0  0  0  0  0  0
  155.8160  212.4850  155.9710 N   0  0  0  0  0  0  0  0  0  0  0  0
  155.1710  212.1630  157.2370 C   0  0  0  0  0  1  0  0  0  0  0  0
  161.1210  205.7990  151.1610 C   0  0  0  0  0  0  0  0  0  0  0  0
  161.1580  205.9090  153.5330 C   0  0  0  0  0  3  0  0  0  0  0  0
  161.0070  207.2970  153.4910 C   0  0  0  0  0  3  0  0  0  0  0  0
  161.1810  204.8370  149.7010 Cl  0  0  0  0  0  0  0  0  0  0  0  0
  160.9160  207.9420  152.2510 C   0  0  0  0  0  0  0  0  0  0  0  0
  161.2090  205.1940  152.3780 N   0  0  0  0  0  0  0  0  0  0  0  0
  160.9720  207.1850  151.0780 C   0  0  0  0  0  3  0  0  0  0  0  0
  2  1  1  0  0  0  0
  3  2  2  0  0  0  0
  4  5  2  0  0  0  0
  4  3  1  0  0  0  0
  5  9  1  0  0  0  0
  6 18  1  6  0  0  0
  6  5  1  0  0  0  0
  7  4  1  0  0  0  0
  8 10  1  0  0  0  0
  8  7  1  0  0  0  0
  9  1  2  0  0  0  0
 10 25  1  1  0  0  0
 10  6  1  0  0  0  0
 11 15  1  0  0  0  0
 12 17  1  0  0  0  0
 12 16  1  0  0  0  0
 13 12  2  0  0  0  0
 15 19  1  0  0  0  0
 16 14  2  0  0  0  0
 16 19  1  0  0  0  0
 17 15  1  0  0  0  0
 18 13  2  0  0  0  0
 19 20  1  0  0  0  0
 21 26  1  0  0  0  0
 23 22  1  0  0  0  0
 24 21  1  0  0  0  0
 25 23  2  0  0  0  0
 26 22  2  0  0  0  0
 27 21  2  0  0  0  0
 27 25  1  0  0  0  0
M  END
>  <MODEL>
1

>  <REMARK>
 VINA RESULT:      -7.0      0.000      0.000
  Name = 
  2 active torsions:
  status: ('A' for Active; 'I' for Inactive)
    1  A    between atoms: C_12  and  C_27
    2  A    between atoms: C_17  and  C_23
                            x       y       z     vdW  Elec       q    Type
                         _______ _______ _______ _____ _____    ______ ____

>  <TORSDO>
F 2

$$$$
=
 OpenBabel11042420433D

 27 30  0  0  1  0  0  0  0  0999 V2000
  157.8680  212.2980  153.1280 C   0  0  0  0  0  3  0  0  0  0  0  0
  158.3860  213.1750  154.0870 C   0  0  0  0  0  3  0  0  0  0  0  0
  159.6310  212.9200  154.6690 C   0  0  0  0  0  3  0  0  0  0  0  0
  160.3650  211.7920  154.2900 C   0  0  0  0  0  0  0  0  0  0  0  0
  159.8440  210.9060  153.3260 C   0  0  0  0  0  0  0  0  0  0  0  0
  160.6180  209.6830  152.9110 C   0  0  2  0  0  3  0  0  0  0  0  0
  161.5940  211.5310  154.9040 O   0  0  0  0  0  0  0  0  0  0  0  0
  162.4780  210.5150  154.4310 C   0  0  0  0  0  2  0  0  0  0  0  0
  158.5950  211.1660  152.7500 C   0  0  0  0  0  3  0  0  0  0  0  0
  161.7040  209.2920  153.9240 C   0  0  1  0  0  3  0  0  0  0  0  0
  162.2860  206.1530  147.2340 C   0  0  0  0  0  1  0  0  0  0  0  0
  161.6290  207.8290  150.0070 C   0  0  0  0  0  0  0  0  0  0  0  0
  161.4320  208.8610  150.7850 C   0  0  0  0  0  0  0  0  0  0  0  0
  161.6910  206.0410  151.7070 C   0  0  0  0  0  2  0  0  0  0  0  0
  161.1830  206.3860  148.1550 N   0  0  0  0  0  0  0  0  0  0  0  0
  161.7160  206.4620  150.4440 C   0  0  0  0  0  0  0  0  0  0  0  0
  161.2600  207.8040  148.5620 C   0  0  0  0  0  2  0  0  0  0  0  0
  161.2290  209.8840  151.5650 C   0  0  0  0  0  3  0  0  0  0  0  0
  161.4430  205.6430  149.3240 N   0  0  0  0  0  0  0  0  0  0  0  0
  161.1650  204.2160  149.4050 C   0  0  0  0  0  1  0  0  0  0  0  0
  159.4400  206.9840  155.8830 C   0  0  0  0  0  0  0  0  0  0  0  0
  161.3130  207.4900  157.2530 C   0  0  0  0  0  3  0  0  0  0  0  0
  161.8550  208.2950  156.2500 C   0  0  0  0  0  3  0  0  0  0  0  0
  157.9100  206.1630  155.6730 Cl  0  0  0  0  0  0  0  0  0  0  0  0
  161.1700  208.4390  155.0370 C   0  0  0  0  0  0  0  0  0  0  0  0
  160.1250  206.8580  157.0530 N   0  0  0  0  0  0  0  0  0  0  0  0
  159.9520  207.7800  154.8550 C   0  0  0  0  0  3  0  0  0  0  0  0
  1  2  1  0  0  0  0
  2  3  2  0  0  0  0
  4  3  1  0  0  0  0
  4  7  1  0  0  0  0
  5  4  2  0  0  0  0
  6 18  1  6  0  0  0
  6  5  1  0  0  0  0
  6 10  1  0  0  0  0
  8  7  1  0  0  0  0
  9  1  2  0  0  0  0
  9  5  1  0  0  0  0
 10  8  1  0  0  0  0
 10 25  1  1  0  0  0
 11 15  1  0  0  0  0
 12 16  1  0  0  0  0
 12 13  2  0  0  0  0
 13 18  2  0  0  0  0
 15 17  1  0  0  0  0
 15 19  1  0  0  0  0
 16 14  2  0  0  0  0
 17 12  1  0  0  0  0
 19 20  1  0  0  0  0
 19 16  1  0  0  0  0
 21 26  1  0  0  0  0
 23 22  1  0  0  0  0
 24 21  1  0  0  0  0
 25 23  2  0  0  0  0
 26 22  2  0  0  0  0
 27 25  1  0  0  0  0
 27 21  2  0  0  0  0
M  END
>  <MODEL>
2

>  <REMARK>
 VINA RESULT:      -5.6      3.199      6.571
  Name = 
  2 active torsions:
  status: ('A' for Active; 'I' for Inactive)
    1  A    between atoms: C_12  and  C_27
    2  A    between atoms: C_17  and  C_23
                            x       y       z     vdW  Elec       q    Type
                         _______ _______ _______ _____ _____    ______ ____

>  <TORSDO>
F 2

$$$$
=
 OpenBabel11042420433D

 27 30  0  0  1  0  0  0  0  0999 V2000
  155.5820  211.5720  155.3580 C   0  0  0  0  0  3  0  0  0  0  0  0
  155.9250  211.6090  156.7140 C   0  0  0  0  0  3  0  0  0  0  0  0
  157.2700  211.6270  157.0960 C   0  0  0  0  0  3  0  0  0  0  0  0
  158.2750  211.6150  156.1250 C   0  0  0  0  0  0  0  0  0  0  0  0
  157.9320  211.5760  154.7590 C   0  0  0  0  0  0  0  0  0  0  0  0
  159.0020  211.5550  153.7000 C   0  0  2  0  0  3  0  0  0  0  0  0
  159.6160  211.6000  156.5210 O   0  0  0  0  0  0  0  0  0  0  0  0
  160.6840  211.7830  155.5920 C   0  0  0  0  0  2  0  0  0  0  0  0
  156.5830  211.5540  154.3840 C   0  0  0  0  0  3  0  0  0  0  0  0
  160.3720  211.1240  154.2440 C   0  0  1  0  0  3  0  0  0  0  0  0
  161.1350  214.4530  147.8230 C   0  0  0  0  0  1  0  0  0  0  0  0
  160.2480  213.0950  150.7040 C   0  0  0  0  0  0  0  0  0  0  0  0
  159.6810  212.9980  151.8790 C   0  0  0  0  0  0  0  0  0  0  0  0
  161.6220  211.0450  150.7420 C   0  0  0  0  0  2  0  0  0  0  0  0
  160.2990  213.3740  148.3310 N   0  0  0  0  0  0  0  0  0  0  0  0
  161.1550  212.1350  150.1370 C   0  0  0  0  0  0  0  0  0  0  0  0
  159.6680  213.8730  149.5710 C   0  0  0  0  0  2  0  0  0  0  0  0
  159.1150  212.8920  153.0460 C   0  0  0  0  0  3  0  0  0  0  0  0
  161.1530  212.3310  148.7360 N   0  0  0  0  0  0  0  0  0  0  0  0
  161.7250  211.3910  147.7800 C   0  0  0  0  0  1  0  0  0  0  0  0
  160.9190  207.5660  153.0890 C   0  0  0  0  0  0  0  0  0  0  0  0
  160.5920  207.5170  155.4410 C   0  0  0  0  0  3  0  0  0  0  0  0
  160.4380  208.9050  155.4680 C   0  0  0  0  0  3  0  0  0  0  0  0
  161.2090  206.7050  151.5940 Cl  0  0  0  0  0  0  0  0  0  0  0  0
  160.5320  209.6320  154.2750 C   0  0  0  0  0  0  0  0  0  0  0  0
  160.8250  206.8810  154.2610 N   0  0  0  0  0  0  0  0  0  0  0  0
  160.7720  208.9550  153.0760 C   0  0  0  0  0  3  0  0  0  0  0  0
  1  2  1  0  0  0  0
  2  3  2  0  0  0  0
  4  7  1  0  0  0  0
  4  3  1  0  0  0  0
  5  4  2  0  0  0  0
  6 18  1  1  0  0  0
  6 10  1  0  0  0  0
  6  5  1  0  0  0  0
  8  7  1  0  0  0  0
  9  5  1  0  0  0  0
  9  1  2  0  0  0  0
 10 25  1  1  0  0  0
 10  8  1  0  0  0  0
 11 15  1  0  0  0  0
 12 13  2  0  0  0  0
 13 18  2  0  0  0  0
 15 19  1  0  0  0  0
 15 17  1  0  0  0  0
 16 12  1  0  0  0  0
 16 14  2  0  0  0  0
 17 12  1  0  0  0  0
 19 16  1  0  0  0  0
 20 19  1  0  0  0  0
 21 26  1  0  0  0  0
 22 23  1  0  0  0  0
 24 21  1  0  0  0  0
 25 23  2  0  0  0  0
 26 22  2  0  0  0  0
 27 21  2  0  0  0  0
 27 25  1  0  0  0  0
M  END
>  <MODEL>
3

>  <REMARK>
 VINA RESULT:      -5.5      3.313      5.346
  Name = 
  2 active torsions:
  status: ('A' for Active; 'I' for Inactive)
    1  A    between atoms: C_12  and  C_27
    2  A    between atoms: C_17  and  C_23
                            x       y       z     vdW  Elec       q    Type
                         _______ _______ _______ _____ _____    ______ ____

>  <TORSDO>
F 2

$$$$
=
 OpenBabel11042420433D

 27 30  0  0  1  0  0  0  0  0999 V2000
  159.7630  212.5090  144.4130 C   0  0  0  0  0  3  0  0  0  0  0  0
  160.2740  213.7980  144.2320 C   0  0  0  0  0  3  0  0  0  0  0  0
  160.9470  214.4380  145.2780 C   0  0  0  0  0  3  0  0  0  0  0  0
  161.1150  213.7890  146.5040 C   0  0  0  0  0  0  0  0  0  0  0  0
  160.6000  212.4910  146.6890 C   0  0  0  0  0  0  0  0  0  0  0  0
  160.7670  211.7800  148.0060 C   0  0  2  0  0  3  0  0  0  0  0  0
  161.7610  214.4530  147.5520 O   0  0  0  0  0  0  0  0  0  0  0  0
  162.1380  213.7850  148.7560 C   0  0  0  0  0  2  0  0  0  0  0  0
  159.9250  211.8580  145.6390 C   0  0  0  0  0  3  0  0  0  0  0  0
  161.0970  212.7360  149.1620 C   0  0  1  0  0  3  0  0  0  0  0  0
  163.1210  206.2380  151.3560 C   0  0  0  0  0  1  0  0  0  0  0  0
  162.0990  208.9810  149.8190 C   0  0  0  0  0  0  0  0  0  0  0  0
  161.9640  209.8560  148.8560 C   0  0  0  0  0  0  0  0  0  0  0  0
  161.0690  210.2460  151.6700 C   0  0  0  0  0  2  0  0  0  0  0  0
  161.8930  206.8340  150.8500 N   0  0  0  0  0  0  0  0  0  0  0  0
  161.6330  209.1500  151.1680 C   0  0  0  0  0  0  0  0  0  0  0  0
  162.2400  207.5140  149.5850 C   0  0  0  0  0  2  0  0  0  0  0  0
  161.8210  210.7290  147.9010 C   0  0  0  0  0  3  0  0  0  0  0  0
  161.5220  207.8610  151.7400 N   0  0  0  0  0  0  0  0  0  0  0  0
  160.8290  207.5810  152.9910 C   0  0  0  0  0  1  0  0  0  0  0  0
  157.5380  213.9400  149.5790 C   0  0  0  0  0  0  0  0  0  0  0  0
  158.7030  214.4280  151.5900 C   0  0  0  0  0  3  0  0  0  0  0  0
  159.8750  213.8750  151.0690 C   0  0  0  0  0  3  0  0  0  0  0  0
  156.0590  214.0010  148.6470 Cl  0  0  0  0  0  0  0  0  0  0  0  0
  159.8670  213.3410  149.7740 C   0  0  0  0  0  0  0  0  0  0  0  0
  157.5690  214.4520  150.8400 N   0  0  0  0  0  0  0  0  0  0  0  0
  158.6890  213.3760  149.0240 C   0  0  0  0  0  3  0  0  0  0  0  0
  1  9  1  0  0  0  0
  2  1  2  0  0  0  0
  2  3  1  0  0  0  0
  3  4  2  0  0  0  0
  4  5  1  0  0  0  0
  4  7  1  0  0  0  0
  5  6  1  0  0  0  0
  6 18  1  6  0  0  0
  6 10  1  0  0  0  0
  7  8  1  0  0  0  0
  8 10  1  0  0  0  0
  9  5  2  0  0  0  0
 10 25  1  6  0  0  0
 12 16  1  0  0  0  0
 13 12  2  0  0  0  0
 15 11  1  0  0  0  0
 15 19  1  0  0  0  0
 16 14  2  0  0  0  0
 16 19  1  0  0  0  0
 17 12  1  0  0  0  0
 17 15  1  0  0  0  0
 18 13  2  0  0  0  0
 19 20  1  0  0  0  0
 21 26  1  0  0  0  0
 23 22  1  0  0  0  0
 24 21  1  0  0  0  0
 25 23  2  0  0  0  0
 26 22  2  0  0  0  0
 27 21  2  0  0  0  0
 27 25  1  0  0  0  0
M  END
>  <MODEL>
4

>  <REMARK>
 VINA RESULT:      -5.0      5.177      8.681
  Name = 
  2 active torsions:
  status: ('A' for Active; 'I' for Inactive)
    1  A    between atoms: C_12  and  C_27
    2  A    between atoms: C_17  and  C_23
                            x       y       z     vdW  Elec       q    Type
                         _______ _______ _______ _____ _____    ______ ____

>  <TORSDO>
F 2

$$$$
=
 OpenBabel11042420433D

 27 30  0  0  1  0  0  0  0  0999 V2000
  163.6640  211.0800  156.3020 C   0  0  0  0  0  3  0  0  0  0  0  0
  163.0920  211.9240  157.2600 C   0  0  0  0  0  3  0  0  0  0  0  0
  161.7120  212.1500  157.2610 C   0  0  0  0  0  3  0  0  0  0  0  0
  160.9000  211.5280  156.3080 C   0  0  0  0  0  0  0  0  0  0  0  0
  161.4740  210.6790  155.3410 C   0  0  0  0  0  0  0  0  0  0  0  0
  160.6150  210.0070  154.3030 C   0  0  2  0  0  3  0  0  0  0  0  0
  159.5260  211.7880  156.2980 O   0  0  0  0  0  0  0  0  0  0  0  0
  158.6180  211.0440  155.4860 C   0  0  0  0  0  2  0  0  0  0  0  0
  162.8570  210.4610  155.3450 C   0  0  0  0  0  3  0  0  0  0  0  0
  159.2450  210.6810  154.1350 C   0  0  1  0  0  3  0  0  0  0  0  0
  161.4500  203.7570  151.5240 C   0  0  0  0  0  1  0  0  0  0  0  0
  160.9030  206.7520  152.8140 C   0  0  0  0  0  0  0  0  0  0  0  0
  160.6640  207.6560  153.7280 C   0  0  0  0  0  0  0  0  0  0  0  0
  160.6210  208.1330  150.7880 C   0  0  0  0  0  2  0  0  0  0  0  0
  162.1510  205.0140  151.7490 N   0  0  0  0  0  0  0  0  0  0  0  0
  160.9210  206.9870  151.3960 C   0  0  0  0  0  0  0  0  0  0  0  0
  161.7060  205.5190  153.0640 C   0  0  0  0  0  2  0  0  0  0  0  0
  160.4330  208.5630  154.6330 C   0  0  0  0  0  3  0  0  0  0  0  0
  161.6690  205.9420  150.8050 N   0  0  0  0  0  0  0  0  0  0  0  0
  162.1500  205.9600  149.4300 C   0  0  0  0  0  1  0  0  0  0  0  0
  160.0840  212.7890  151.1120 C   0  0  0  0  0  0  0  0  0  0  0  0
  158.6950  214.0890  152.5330 C   0  0  0  0  0  3  0  0  0  0  0  0
  158.6180  213.0400  153.4510 C   0  0  0  0  0  3  0  0  0  0  0  0
  161.0160  212.6520  149.6380 Cl  0  0  0  0  0  0  0  0  0  0  0  0
  159.2900  211.8400  153.1840 C   0  0  0  0  0  0  0  0  0  0  0  0
  159.4220  213.9450  151.3920 N   0  0  0  0  0  0  0  0  0  0  0  0
  160.0300  211.7170  152.0050 C   0  0  0  0  0  3  0  0  0  0  0  0
  1  2  1  0  0  0  0
  2  3  2  0  0  0  0
  4  3  1  0  0  0  0
  5  9  1  0  0  0  0
  5  4  2  0  0  0  0
  6 18  1  1  0  0  0
  6  5  1  0  0  0  0
  7  4  1  0  0  0  0
  8  7  1  0  0  0  0
  9  1  2  0  0  0  0
 10 25  1  6  0  0  0
 10  6  1  0  0  0  0
 10  8  1  0  0  0  0
 11 15  1  0  0  0  0
 12 17  1  0  0  0  0
 12 13  2  0  0  0  0
 13 18  2  0  0  0  0
 14 16  2  0  0  0  0
 15 17  1  0  0  0  0
 16 12  1  0  0  0  0
 19 16  1  0  0  0  0
 19 15  1  0  0  0  0
 20 19  1  0  0  0  0
 21 26  2  0  0  0  0
 21 27  1  0  0  0  0
 22 23  2  0  0  0  0
 24 21  1  0  0  0  0
 25 23  1  0  0  0  0
 26 22  1  0  0  0  0
 27 25  2  0  0  0  0
M  END
>  <MODEL>
5

>  <REMARK>
 VINA RESULT:      -4.9      2.887      6.813
  Name = 
  2 active torsions:
  status: ('A' for Active; 'I' for Inactive)
    1  A    between atoms: C_12  and  C_27
    2  A    between atoms: C_17  and  C_23
                            x       y       z     vdW  Elec       q    Type
                         _______ _______ _______ _____ _____    ______ ____

>  <TORSDO>
F 2

$$$$
=
 OpenBabel11042420433D

 27 30  0  0  1  0  0  0  0  0999 V2000
  159.6930  209.1640  156.9230 C   0  0  0  0  0  3  0  0  0  0  0  0
  161.0480  209.0840  157.2610 C   0  0  0  0  0  3  0  0  0  0  0  0
  162.0270  209.3450  156.2970 C   0  0  0  0  0  3  0  0  0  0  0  0
  161.6540  209.6940  154.9960 C   0  0  0  0  0  0  0  0  0  0  0  0
  160.2900  209.7730  154.6530 C   0  0  0  0  0  0  0  0  0  0  0  0
  159.8700  210.1410  153.2540 C   0  0  2  0  0  3  0  0  0  0  0  0
  162.6420  209.9200  154.0330 O   0  0  0  0  0  0  0  0  0  0  0  0
  162.3400  210.4660  152.7480 C   0  0  0  0  0  2  0  0  0  0  0  0
  159.3150  209.5070  155.6220 C   0  0  0  0  0  3  0  0  0  0  0  0
  160.9950  209.9510  152.2250 C   0  0  1  0  0  3  0  0  0  0  0  0
  155.1640  214.2310  156.1870 C   0  0  0  0  0  1  0  0  0  0  0  0
  157.3240  212.2430  154.6650 C   0  0  0  0  0  0  0  0  0  0  0  0
  158.3510  211.8990  153.9330 C   0  0  0  0  0  0  0  0  0  0  0  0
  156.2760  210.0290  154.9680 C   0  0  0  0  0  2  0  0  0  0  0  0
  156.2230  213.2860  156.5130 N   0  0  0  0  0  0  0  0  0  0  0  0
  156.3420  211.3390  155.1990 C   0  0  0  0  0  0  0  0  0  0  0  0
  157.2870  213.4760  155.5060 C   0  0  0  0  0  2  0  0  0  0  0  0
  159.3760  211.5470  153.2100 C   0  0  0  0  0  3  0  0  0  0  0  0
  155.7180  211.9900  156.2880 N   0  0  0  0  0  0  0  0  0  0  0  0
  154.8660  211.3190  157.2610 C   0  0  0  0  0  1  0  0  0  0  0  0
  161.1370  206.1740  152.1660 C   0  0  0  0  0  0  0  0  0  0  0  0
  161.2220  206.9330  149.9170 C   0  0  0  0  0  3  0  0  0  0  0  0
  161.1530  208.2610  150.3420 C   0  0  0  0  0  3  0  0  0  0  0  0
  161.1430  204.8460  153.3050 Cl  0  0  0  0  0  0  0  0  0  0  0  0
  161.0690  208.5430  151.7120 C   0  0  0  0  0  0  0  0  0  0  0  0
  161.2150  205.9240  150.8300 N   0  0  0  0  0  0  0  0  0  0  0  0
  161.0640  207.4890  152.6290 C   0  0  0  0  0  3  0  0  0  0  0  0
  1  2  1  0  0  0  0
  3  2  2  0  0  0  0
  4  3  1  0  0  0  0
  5  4  2  0  0  0  0
  5  9  1  0  0  0  0
  6 18  1  1  0  0  0
  6  5  1  0  0  0  0
  7  4  1  0  0  0  0
  8  7  1  0  0  0  0
  9  1  2  0  0  0  0
 10 25  1  1  0  0  0
 10  8  1  0  0  0  0
 10  6  1  0  0  0  0
 11 15  1  0  0  0  0
 12 16  1  0  0  0  0
 12 17  1  0  0  0  0
 13 12  2  0  0  0  0
 14 16  2  0  0  0  0
 16 19  1  0  0  0  0
 17 15  1  0  0  0  0
 18 13  2  0  0  0  0
 19 15  1  0  0  0  0
 19 20  1  0  0  0  0
 21 27  1  0  0  0  0
 21 24  1  0  0  0  0
 22 23  2  0  0  0  0
 22 26  1  0  0  0  0
 23 25  1  0  0  0  0
 25 27  2  0  0  0  0
 26 21  2  0  0  0  0
M  END
>  <MODEL>
6

>  <REMARK>
 VINA RESULT:      -4.7      1.214      1.552
  Name = 
  2 active torsions:
  status: ('A' for Active; 'I' for Inactive)
    1  A    between atoms: C_12  and  C_27
    2  A    between atoms: C_17  and  C_23
                            x       y       z     vdW  Elec       q    Type
                         _______ _______ _______ _____ _____    ______ ____

>  <TORSDO>
F 2

$$$$
=
 OpenBabel11042420433D

 27 30  0  0  1  0  0  0  0  0999 V2000
  162.3150  211.4250  156.5600 C   0  0  0  0  0  3  0  0  0  0  0  0
  161.2320  212.2910  156.7450 C   0  0  0  0  0  3  0  0  0  0  0  0
  160.1290  212.2250  155.8890 C   0  0  0  0  0  3  0  0  0  0  0  0
  160.1020  211.2900  154.8500 C   0  0  0  0  0  0  0  0  0  0  0  0
  161.1920  210.4180  154.6610 C   0  0  0  0  0  0  0  0  0  0  0  0
  161.1830  209.4080  153.5440 C   0  0  2  0  0  3  0  0  0  0  0  0
  159.0070  211.2560  153.9810 O   0  0  0  0  0  0  0  0  0  0  0  0
  158.8250  210.2080  153.0280 C   0  0  0  0  0  2  0  0  0  0  0  0
  162.2950  210.4920  155.5210 C   0  0  0  0  0  3  0  0  0  0  0  0
  160.1650  209.7460  152.4440 C   0  0  1  0  0  3  0  0  0  0  0  0
  160.9860  202.8310  151.4990 C   0  0  0  0  0  1  0  0  0  0  0  0
  160.9290  205.9950  152.4590 C   0  0  0  0  0  0  0  0  0  0  0  0
  160.9200  207.0170  153.2730 C   0  0  0  0  0  0  0  0  0  0  0  0
  160.4720  207.1610  150.3320 C   0  0  0  0  0  2  0  0  0  0  0  0
  161.8280  204.0180  151.4600 N   0  0  0  0  0  0  0  0  0  0  0  0
  160.7520  206.0650  151.0340 C   0  0  0  0  0  0  0  0  0  0  0  0
  161.6410  204.7160  152.7490 C   0  0  0  0  0  2  0  0  0  0  0  0
  160.9170  208.0410  154.0780 C   0  0  0  0  0  3  0  0  0  0  0  0
  161.2980  204.8820  150.4820 N   0  0  0  0  0  0  0  0  0  0  0  0
  161.5620  204.6910  149.0630 C   0  0  0  0  0  1  0  0  0  0  0  0
  160.6220  212.8520  150.3390 C   0  0  0  0  0  0  0  0  0  0  0  0
  162.2790  211.2850  149.6790 C   0  0  0  0  0  3  0  0  0  0  0  0
  161.8050  210.3600  150.6120 C   0  0  0  0  0  3  0  0  0  0  0  0
  159.8770  214.4230  150.1440 Cl  0  0  0  0  0  0  0  0  0  0  0  0
  160.7170  210.7000  151.4260 C   0  0  0  0  0  0  0  0  0  0  0  0
  161.6810  212.5010  149.5600 N   0  0  0  0  0  0  0  0  0  0  0  0
  160.1210  211.9550  151.2860 C   0  0  0  0  0  3  0  0  0  0  0  0
  1  2  1  0  0  0  0
  3  2  2  0  0  0  0
  4  3  1  0  0  0  0
  5  4  2  0  0  0  0
  5  9  1  0  0  0  0
  6 18  1  1  0  0  0
  6  5  1  0  0  0  0
  7  4  1  0  0  0  0
  8  7  1  0  0  0  0
  9  1  2  0  0  0  0
 10 25  1  6  0  0  0
 10  8  1  0  0  0  0
 10  6  1  0  0  0  0
 12 17  1  0  0  0  0
 12 13  2  0  0  0  0
 13 18  2  0  0  0  0
 14 16  2  0  0  0  0
 15 11  1  0  0  0  0
 15 17  1  0  0  0  0
 16 12  1  0  0  0  0
 19 16  1  0  0  0  0
 19 15  1  0  0  0  0
 20 19  1  0  0  0  0
 21 27  1  0  0  0  0
 22 23  2  0  0  0  0
 23 25  1  0  0  0  0
 24 21  1  0  0  0  0
 26 22  1  0  0  0  0
 26 21  2  0  0  0  0
 27 25  2  0  0  0  0
M  END
>  <MODEL>
7

>  <REMARK>
 VINA RESULT:      -4.1      3.741      6.911
  Name = 
  2 active torsions:
  status: ('A' for Active; 'I' for Inactive)
    1  A    between atoms: C_12  and  C_27
    2  A    between atoms: C_17  and  C_23
                            x       y       z     vdW  Elec       q    Type
                         _______ _______ _______ _____ _____    ______ ____

>  <TORSDO>
F 2

$$$$
