=
 OpenBabel11042422463D

 38 40  0  0  1  0  0  0  0  0999 V2000
  161.3570  208.6530  150.0170 C   0  0  0  0  0  2  0  0  0  0  0  0
  161.4870  206.2710  151.8140 C   0  0  0  0  0  0  0  0  0  0  0  0
  161.3450  208.7070  152.5460 C   0  0  0  0  0  3  0  0  0  0  0  0
  161.2950  207.3850  152.7460 C   0  0  0  0  0  0  0  0  0  0  0  0
  161.7580  209.3970  151.2780 C   0  0  0  0  0  2  0  0  0  0  0  0
  161.3260  205.1530  152.4430 N   0  0  0  0  0  0  0  0  0  0  0  0
  161.0700  205.4040  153.8000 N   0  0  0  0  0  0  0  0  0  0  0  0
  160.7850  207.2470  155.2860 N   0  0  0  0  0  2  0  0  0  0  0  0
  161.5110  206.3340  150.3180 C   0  0  0  0  0  2  0  0  0  0  0  0
  161.0310  206.6780  153.9950 C   0  0  0  0  0  0  0  0  0  0  0  0
  162.2340  207.5050  149.8470 N   0  0  0  0  0  0  0  0  0  0  0  0
  160.8480  208.6750  155.5680 C   0  0  1  0  0  3  0  0  0  0  0  0
  159.0900  211.5750  156.8410 C   0  0  0  0  0  3  0  0  0  0  0  0
  159.7090  209.0710  156.4550 C   0  0  0  0  0  3  0  0  0  0  0  0
  159.3980  210.3240  156.6500 C   0  0  0  0  0  0  0  0  0  0  0  0
  157.7300  211.9960  156.7580 N   0  0  0  0  0  2  0  0  0  0  0  0
  156.4700  213.9730  156.8020 O   0  0  0  0  0  1  0  0  0  0  0  0
  157.3200  213.1870  156.0180 C   0  0  2  0  0  3  0  0  0  0  0  0
  156.6930  212.8570  154.6480 C   0  0  0  0  0  0  0  0  0  0  0  0
  155.6420  213.8840  154.2570 C   0  0  0  0  0  1  0  0  0  0  0  0
  156.0390  211.4860  154.6930 C   0  0  0  0  0  1  0  0  0  0  0  0
  157.4200  213.5610  151.9520 O   0  0  0  0  0  0  0  0  0  0  0  0
  159.2100  213.5690  153.8560 O   0  0  0  0  0  1  0  0  0  0  0  0
  157.9890  212.8260  153.3660 P   0  0  0  0  0  0  0  0  0  0  0  0
  158.4100  211.2250  153.0250 O   0  0  0  0  0  1  0  0  0  0  0  0
  162.0960  208.9890  156.1810 O   0  0  0  0  0  0  0  0  0  0  0  0
  162.7160  210.2300  156.0240 C   0  0  0  0  0  0  0  0  0  0  0  0
  163.5360  210.7740  157.0560 N   0  0  0  0  0  1  0  0  0  0  0  0
  162.5440  210.8800  154.9610 O   0  0  0  0  0  0  0  0  0  0  0  0
  162.4130  207.3350  148.4680 N   0  0  0  0  0  2  0  0  0  0  0  0
  162.4440  205.9550  148.2310 N   0  0  0  0  0  2  0  0  0  0  0  0
  160.7730  205.7510  144.8840 C   0  0  0  0  0  3  0  0  0  0  0  0
  160.6210  204.2710  144.6490 C   0  0  0  0  0  2  0  0  0  0  0  0
  161.3360  206.2550  145.9860 C   0  0  0  0  0  3  0  0  0  0  0  0
  161.7700  204.0600  146.9590 C   0  0  0  0  0  3  0  0  0  0  0  0
  161.8540  205.3870  147.0630 C   0  0  0  0  0  0  0  0  0  0  0  0
  161.1650  203.4340  145.7750 C   0  0  0  0  0  0  0  0  0  0  0  0
  161.1000  202.1800  145.7020 O   0  0  0  0  0  0  0  0  0  0  0  0
  1  5  1  0  0  0  0
  2  6  2  0  0  0  0
  2  4  1  0  0  0  0
  3  4  2  0  0  0  0
  4 10  1  0  0  0  0
  5  3  1  0  0  0  0
  6  7  1  0  0  0  0
  7 10  2  0  0  0  0
  8 12  1  0  0  0  0
  9  2  1  0  0  0  0
 10  8  1  0  0  0  0
 11  1  1  0  0  0  0
 11  9  1  0  0  0  0
 12 26  1  0  0  0  0
 12 14  1  1  0  0  0
 14 15  2  0  0  0  0
 15 13  2  0  0  0  0
 16 13  1  0  0  0  0
 18 16  1  0  0  0  0
 18 17  1  1  0  0  0
 19 21  1  0  0  0  0
 19 18  1  0  0  0  0
 20 19  1  0  0  0  0
 22 24  2  0  0  0  0
 24 23  1  0  0  0  0
 24 19  1  0  0  0  0
 25 24  1  0  0  0  0
 27 26  1  0  0  0  0
 27 28  1  0  0  0  0
 29 27  2  0  0  0  0
 30 11  1  0  0  0  0
 31 30  1  0  0  0  0
 32 34  2  0  0  0  0
 33 32  1  0  0  0  0
 33 37  1  0  0  0  0
 34 36  1  0  0  0  0
 35 36  2  0  0  0  0
 36 31  1  0  0  0  0
 37 35  1  0  0  0  0
 38 37  2  0  0  0  0
M  END
>  <MODEL>
1

>  <REMARK>
 VINA RESULT:      -7.2      0.000      0.000
  Name = 
  11 active torsions:
  status: ('A' for Active; 'I' for Inactive)
    1  A    between atoms: C_2  and  O_4
    2  A    between atoms: C_2  and  C_15
    3  A    between atoms: C_2  and  N_20
    4  A    between atoms: O_4  and  C_7
    5  A    between atoms: C_13  and  N_17
    6  A    between atoms: N_17  and  C_33
    7  A    between atoms: N_19  and  C_23
    8  A    between atoms: N_19  and  N_37
    9  A    between atoms: C_21  and  P_29
   10  A    between atoms: C_21  and  C_33
   11  A    between atoms: N_31  and  N_37
                            x       y       z     vdW  Elec       q    Type
                         _______ _______ _______ _____ _____    ______ ____

>  <TORSDO>
F 11

$$$$
=
 OpenBabel11042422463D

 38 40  0  0  1  0  0  0  0  0999 V2000
  162.0800  211.1560  155.7990 C   0  0  0  0  0  2  0  0  0  0  0  0
  160.2510  208.8480  156.2950 C   0  0  0  0  0  0  0  0  0  0  0  0
  161.7280  209.1900  154.2470 C   0  0  0  0  0  3  0  0  0  0  0  0
  160.9320  208.4760  155.0520 C   0  0  0  0  0  0  0  0  0  0  0  0
  162.0230  210.6570  154.3660 C   0  0  0  0  0  2  0  0  0  0  0  0
  159.5990  207.8270  156.7470 N   0  0  0  0  0  0  0  0  0  0  0  0
  159.7390  206.7450  155.8670 N   0  0  0  0  0  0  0  0  0  0  0  0
  160.8500  206.1890  153.8300 N   0  0  0  0  0  2  0  0  0  0  0  0
  160.5030  210.0570  157.1400 C   0  0  0  0  0  2  0  0  0  0  0  0
  160.5140  207.0870  154.8930 C   0  0  0  0  0  0  0  0  0  0  0  0
  160.7250  211.2410  156.3240 N   0  0  0  0  0  0  0  0  0  0  0  0
  161.6240  206.5740  152.6580 C   0  0  1  0  0  3  0  0  0  0  0  0
  161.0120  204.4320  149.8010 C   0  0  0  0  0  3  0  0  0  0  0  0
  162.1420  205.3520  151.9650 C   0  0  0  0  0  3  0  0  0  0  0  0
  161.5770  204.8900  150.8820 C   0  0  0  0  0  0  0  0  0  0  0  0
  161.8120  204.0630  148.6790 N   0  0  0  0  0  2  0  0  0  0  0  0
  161.2830  202.5710  146.9500 O   0  0  0  0  0  1  0  0  0  0  0  0
  161.2580  203.9140  147.3350 C   0  0  2  0  0  3  0  0  0  0  0  0
  161.9500  204.8210  146.2970 C   0  0  0  0  0  0  0  0  0  0  0  0
  163.2490  204.2060  145.8020 C   0  0  0  0  0  1  0  0  0  0  0  0
  162.2570  206.1760  146.9130 C   0  0  0  0  0  1  0  0  0  0  0  0
  161.7350  205.6410  143.5450 O   0  0  0  0  0  0  0  0  0  0  0  0
  160.1660  203.7840  144.5040 O   0  0  0  0  0  1  0  0  0  0  0  0
  160.8440  205.0840  144.8710 P   0  0  0  0  0  0  0  0  0  0  0  0
  159.6690  206.2320  145.2700 O   0  0  0  0  0  1  0  0  0  0  0  0
  160.8130  207.3460  151.7780 O   0  0  0  0  0  0  0  0  0  0  0  0
  161.3500  208.1210  150.7490 C   0  0  0  0  0  0  0  0  0  0  0  0
  162.2210  209.2140  151.0340 N   0  0  0  0  0  1  0  0  0  0  0  0
  161.0580  207.8570  149.5550 O   0  0  0  0  0  0  0  0  0  0  0  0
  160.6970  212.3380  157.1950 N   0  0  0  0  0  2  0  0  0  0  0  0
  160.0770  213.3870  156.5040 N   0  0  0  0  0  2  0  0  0  0  0  0
  156.5070  212.5110  155.7850 C   0  0  0  0  0  3  0  0  0  0  0  0
  156.3740  212.7390  154.3010 C   0  0  0  0  0  2  0  0  0  0  0  0
  157.6480  212.7150  156.4490 C   0  0  0  0  0  3  0  0  0  0  0  0
  158.8660  213.4170  154.4550 C   0  0  0  0  0  3  0  0  0  0  0  0
  158.8720  213.1830  155.7690 C   0  0  0  0  0  0  0  0  0  0  0  0
  157.6470  213.2150  153.6590 C   0  0  0  0  0  0  0  0  0  0  0  0
  157.6700  213.4440  152.4230 O   0  0  0  0  0  0  0  0  0  0  0  0
  1 11  1  0  0  0  0
  2  6  2  0  0  0  0
  2  9  1  0  0  0  0
  3  5  1  0  0  0  0
  3  4  2  0  0  0  0
  4  2  1  0  0  0  0
  5  1  1  0  0  0  0
  7  6  1  0  0  0  0
  8 10  1  0  0  0  0
 10  4  1  0  0  0  0
 10  7  2  0  0  0  0
 11  9  1  0  0  0  0
 11 30  1  0  0  0  0
 12 14  1  6  0  0  0
 12  8  1  0  0  0  0
 13 15  2  0  0  0  0
 15 14  2  0  0  0  0
 16 13  1  0  0  0  0
 18 17  1  6  0  0  0
 18 16  1  0  0  0  0
 19 21  1  0  0  0  0
 19 18  1  0  0  0  0
 20 19  1  0  0  0  0
 22 24  2  0  0  0  0
 23 24  1  0  0  0  0
 24 25  1  0  0  0  0
 24 19  1  0  0  0  0
 26 12  1  0  0  0  0
 27 28  1  0  0  0  0
 27 26  1  0  0  0  0
 29 27  2  0  0  0  0
 31 30  1  0  0  0  0
 32 34  2  0  0  0  0
 33 32  1  0  0  0  0
 35 36  2  0  0  0  0
 36 34  1  0  0  0  0
 36 31  1  0  0  0  0
 37 33  1  0  0  0  0
 37 35  1  0  0  0  0
 38 37  2  0  0  0  0
M  END
>  <MODEL>
2

>  <REMARK>
 VINA RESULT:      -6.3      2.870      9.837
  Name = 
  11 active torsions:
  status: ('A' for Active; 'I' for Inactive)
    1  A    between atoms: C_2  and  O_4
    2  A    between atoms: C_2  and  C_15
    3  A    between atoms: C_2  and  N_20
    4  A    between atoms: O_4  and  C_7
    5  A    between atoms: C_13  and  N_17
    6  A    between atoms: N_17  and  C_33
    7  A    between atoms: N_19  and  C_23
    8  A    between atoms: N_19  and  N_37
    9  A    between atoms: C_21  and  P_29
   10  A    between atoms: C_21  and  C_33
   11  A    between atoms: N_31  and  N_37
                            x       y       z     vdW  Elec       q    Type
                         _______ _______ _______ _____ _____    ______ ____

>  <TORSDO>
F 11

$$$$
=
 OpenBabel11042422463D

 38 40  0  0  1  0  0  0  0  0999 V2000
  161.1950  209.8340  153.7860 C   0  0  0  0  0  2  0  0  0  0  0  0
  161.0610  206.8550  153.9530 C   0  0  0  0  0  0  0  0  0  0  0  0
  160.8310  208.2590  151.8400 C   0  0  0  0  0  3  0  0  0  0  0  0
  160.9930  207.1140  152.5130 C   0  0  0  0  0  0  0  0  0  0  0  0
  160.5350  209.6050  152.4380 C   0  0  0  0  0  2  0  0  0  0  0  0
  161.2480  205.5910  154.1530 N   0  0  0  0  0  0  0  0  0  0  0  0
  161.2740  204.9150  152.9240 N   0  0  0  0  0  0  0  0  0  0  0  0
  161.1380  205.3800  150.5890 N   0  0  0  0  0  2  0  0  0  0  0  0
  161.2490  207.8600  155.0470 C   0  0  0  0  0  2  0  0  0  0  0  0
  161.1460  205.7700  151.9660 C   0  0  0  0  0  0  0  0  0  0  0  0
  160.4810  209.0690  154.7970 N   0  0  0  0  0  0  0  0  0  0  0  0
  160.8800  206.2980  149.4880 C   0  0  1  0  0  3  0  0  0  0  0  0
  161.7150  209.5520  148.1320 C   0  0  0  0  0  3  0  0  0  0  0  0
  162.0130  207.2690  149.3560 C   0  0  0  0  0  3  0  0  0  0  0  0
  161.8660  208.4120  148.7430 C   0  0  0  0  0  0  0  0  0  0  0  0
  162.2080  210.7520  148.7270 N   0  0  0  0  0  2  0  0  0  0  0  0
  163.7560  212.3710  148.0340 O   0  0  0  0  0  1  0  0  0  0  0  0
  162.4160  211.9790  147.9620 C   0  0  2  0  0  3  0  0  0  0  0  0
  161.4630  213.1170  148.3830 C   0  0  0  0  0  0  0  0  0  0  0  0
  162.2180  214.4170  148.6120 C   0  0  0  0  0  1  0  0  0  0  0  0
  160.7410  212.7420  149.6670 C   0  0  0  0  0  1  0  0  0  0  0  0
  160.9390  214.0500  145.7090 O   0  0  0  0  0  0  0  0  0  0  0  0
  159.5610  212.0720  146.7200 O   0  0  0  0  0  1  0  0  0  0  0  0
  160.2110  213.3870  147.0860 P   0  0  0  0  0  0  0  0  0  0  0  0
  159.0290  214.4530  147.6540 O   0  0  0  0  0  1  0  0  0  0  0  0
  160.7050  205.5640  148.2800 O   0  0  0  0  0  0  0  0  0  0  0  0
  161.3900  204.3760  148.0180 C   0  0  0  0  0  0  0  0  0  0  0  0
  161.0330  203.1640  148.6780 N   0  0  0  0  0  1  0  0  0  0  0  0
  162.3400  204.3770  147.1940 O   0  0  0  0  0  0  0  0  0  0  0  0
  160.5250  209.8210  155.9780 N   0  0  0  0  0  2  0  0  0  0  0  0
  159.2020  210.1640  156.2890 N   0  0  0  0  0  2  0  0  0  0  0  0
  159.0910  213.8070  155.4230 C   0  0  0  0  0  3  0  0  0  0  0  0
  157.6190  214.0970  155.2800 C   0  0  0  0  0  2  0  0  0  0  0  0
  159.5640  212.5960  155.7310 C   0  0  0  0  0  3  0  0  0  0  0  0
  157.3460  211.5880  155.8540 C   0  0  0  0  0  3  0  0  0  0  0  0
  158.6680  211.4440  155.9550 C   0  0  0  0  0  0  0  0  0  0  0  0
  156.7530  212.8900  155.5180 C   0  0  0  0  0  0  0  0  0  0  0  0
  155.5030  212.9970  155.4280 O   0  0  0  0  0  0  0  0  0  0  0  0
  1 11  1  0  0  0  0
  2  6  2  0  0  0  0
  2  9  1  0  0  0  0
  3  5  1  0  0  0  0
  3  4  2  0  0  0  0
  4  2  1  0  0  0  0
  5  1  1  0  0  0  0
  7  6  1  0  0  0  0
  8 10  1  0  0  0  0
 10  4  1  0  0  0  0
 10  7  2  0  0  0  0
 11  9  1  0  0  0  0
 11 30  1  0  0  0  0
 12 14  1  6  0  0  0
 12  8  1  0  0  0  0
 13 16  1  0  0  0  0
 13 15  2  0  0  0  0
 15 14  2  0  0  0  0
 18 17  1  1  0  0  0
 18 19  1  0  0  0  0
 18 16  1  0  0  0  0
 19 20  1  0  0  0  0
 19 21  1  0  0  0  0
 22 24  2  0  0  0  0
 23 24  1  0  0  0  0
 24 25  1  0  0  0  0
 24 19  1  0  0  0  0
 26 12  1  0  0  0  0
 27 26  1  0  0  0  0
 27 28  1  0  0  0  0
 29 27  2  0  0  0  0
 30 31  1  0  0  0  0
 32 34  2  0  0  0  0
 33 32  1  0  0  0  0
 33 37  1  0  0  0  0
 34 36  1  0  0  0  0
 35 36  2  0  0  0  0
 36 31  1  0  0  0  0
 37 35  1  0  0  0  0
 38 37  2  0  0  0  0
M  END
>  <MODEL>
3

>  <REMARK>
 VINA RESULT:      -6.3      3.216      8.733
  Name = 
  11 active torsions:
  status: ('A' for Active; 'I' for Inactive)
    1  A    between atoms: C_2  and  O_4
    2  A    between atoms: C_2  and  C_15
    3  A    between atoms: C_2  and  N_20
    4  A    between atoms: O_4  and  C_7
    5  A    between atoms: C_13  and  N_17
    6  A    between atoms: N_17  and  C_33
    7  A    between atoms: N_19  and  C_23
    8  A    between atoms: N_19  and  N_37
    9  A    between atoms: C_21  and  P_29
   10  A    between atoms: C_21  and  C_33
   11  A    between atoms: N_31  and  N_37
                            x       y       z     vdW  Elec       q    Type
                         _______ _______ _______ _____ _____    ______ ____

>  <TORSDO>
F 11

$$$$
=
 OpenBabel11042422463D

 38 40  0  0  1  0  0  0  0  0999 V2000
  161.6140  208.7160  150.0280 C   0  0  0  0  0  2  0  0  0  0  0  0
  161.0370  206.9970  152.4020 C   0  0  0  0  0  0  0  0  0  0  0  0
  161.8460  209.4120  152.4490 C   0  0  0  0  0  3  0  0  0  0  0  0
  161.3420  208.3000  152.9970 C   0  0  0  0  0  0  0  0  0  0  0  0
  162.3660  209.5530  151.0470 C   0  0  0  0  0  2  0  0  0  0  0  0
  160.5410  206.2180  153.3070 N   0  0  0  0  0  0  0  0  0  0  0  0
  160.5140  206.8820  154.5420 N   0  0  0  0  0  0  0  0  0  0  0  0
  161.0440  209.0130  155.4730 N   0  0  0  0  0  2  0  0  0  0  0  0
  160.9500  206.6640  150.9440 C   0  0  0  0  0  2  0  0  0  0  0  0
  160.9530  208.0850  154.3870 C   0  0  0  0  0  0  0  0  0  0  0  0
  162.0010  207.3220  150.1840 N   0  0  0  0  0  0  0  0  0  0  0  0
  161.6410  210.3360  155.3620 C   0  0  1  0  0  3  0  0  0  0  0  0
  158.8250  211.5310  153.4200 C   0  0  0  0  0  3  0  0  0  0  0  0
  160.5690  211.3820  155.3540 C   0  0  0  0  0  3  0  0  0  0  0  0
  159.6960  211.4580  154.3860 C   0  0  0  0  0  0  0  0  0  0  0  0
  157.4390  211.6820  153.7180 N   0  0  0  0  0  2  0  0  0  0  0  0
  157.5800  213.9610  153.1840 O   0  0  0  0  0  1  0  0  0  0  0  0
  156.7950  212.9910  153.8140 C   0  0  2  0  0  3  0  0  0  0  0  0
  156.4510  213.3860  155.2650 C   0  0  0  0  0  0  0  0  0  0  0  0
  155.1830  214.2220  155.3260 C   0  0  0  0  0  1  0  0  0  0  0  0
  157.5920  214.1870  155.8700 C   0  0  0  0  0  1  0  0  0  0  0  0
  154.8500  212.0640  157.2610 O   0  0  0  0  0  1  0  0  0  0  0  0
  156.0220  210.6880  155.3730 O   0  0  0  0  0  0  0  0  0  0  0  0
  156.2130  211.8860  156.2740 P   0  0  0  0  0  0  0  0  0  0  0  0
  157.5720  211.6380  157.2490 O   0  0  0  0  0  1  0  0  0  0  0  0
  162.5440  210.5500  156.4430 O   0  0  0  0  0  0  0  0  0  0  0  0
  163.8100  211.1090  156.2640 C   0  0  0  0  0  0  0  0  0  0  0  0
  164.4260  211.1290  154.9780 N   0  0  0  0  0  1  0  0  0  0  0  0
  164.4190  211.5970  157.2510 O   0  0  0  0  0  0  0  0  0  0  0  0
  161.9840  206.7530  148.9040 N   0  0  0  0  0  2  0  0  0  0  0  0
  161.5680  205.4240  149.0580 N   0  0  0  0  0  2  0  0  0  0  0  0
  161.1010  202.2700  147.0910 C   0  0  0  0  0  3  0  0  0  0  0  0
  161.1120  202.7360  145.6590 C   0  0  0  0  0  2  0  0  0  0  0  0
  161.2400  203.1040  148.1250 C   0  0  0  0  0  3  0  0  0  0  0  0
  161.4410  205.0790  146.7070 C   0  0  0  0  0  3  0  0  0  0  0  0
  161.4160  204.5580  147.9340 C   0  0  0  0  0  0  0  0  0  0  0  0
  161.2930  204.2230  145.5210 C   0  0  0  0  0  0  0  0  0  0  0  0
  161.3180  204.7410  144.3760 O   0  0  0  0  0  0  0  0  0  0  0  0
  1 11  1  0  0  0  0
  1  5  1  0  0  0  0
  2  4  1  0  0  0  0
  2  6  2  0  0  0  0
  3  4  2  0  0  0  0
  4 10  1  0  0  0  0
  5  3  1  0  0  0  0
  6  7  1  0  0  0  0
  9  2  1  0  0  0  0
 10  7  2  0  0  0  0
 10  8  1  0  0  0  0
 11  9  1  0  0  0  0
 12 14  1  1  0  0  0
 12  8  1  0  0  0  0
 12 26  1  0  0  0  0
 13 16  1  0  0  0  0
 13 15  2  0  0  0  0
 15 14  2  0  0  0  0
 16 18  1  0  0  0  0
 18 17  1  1  0  0  0
 18 19  1  0  0  0  0
 19 20  1  0  0  0  0
 19 21  1  0  0  0  0
 19 24  1  0  0  0  0
 23 24  2  0  0  0  0
 24 25  1  0  0  0  0
 24 22  1  0  0  0  0
 27 26  1  0  0  0  0
 27 29  2  0  0  0  0
 28 27  1  0  0  0  0
 30 31  1  0  0  0  0
 30 11  1  0  0  0  0
 32 34  2  0  0  0  0
 33 32  1  0  0  0  0
 35 36  2  0  0  0  0
 36 34  1  0  0  0  0
 36 31  1  0  0  0  0
 37 33  1  0  0  0  0
 37 35  1  0  0  0  0
 38 37  2  0  0  0  0
M  END
>  <MODEL>
4

>  <REMARK>
 VINA RESULT:      -6.0      1.781      2.535
  Name = 
  11 active torsions:
  status: ('A' for Active; 'I' for Inactive)
    1  A    between atoms: C_2  and  O_4
    2  A    between atoms: C_2  and  C_15
    3  A    between atoms: C_2  and  N_20
    4  A    between atoms: O_4  and  C_7
    5  A    between atoms: C_13  and  N_17
    6  A    between atoms: N_17  and  C_33
    7  A    between atoms: N_19  and  C_23
    8  A    between atoms: N_19  and  N_37
    9  A    between atoms: C_21  and  P_29
   10  A    between atoms: C_21  and  C_33
   11  A    between atoms: N_31  and  N_37
                            x       y       z     vdW  Elec       q    Type
                         _______ _______ _______ _____ _____    ______ ____

>  <TORSDO>
F 11

$$$$
=
 OpenBabel11042422463D

 38 40  0  0  1  0  0  0  0  0999 V2000
  160.0790  204.6500  149.5010 C   0  0  0  0  0  2  0  0  0  0  0  0
  161.2810  205.1500  152.1890 C   0  0  0  0  0  0  0  0  0  0  0  0
  160.7030  206.9130  150.4430 C   0  0  0  0  0  3  0  0  0  0  0  0
  161.0530  206.5000  151.6670 C   0  0  0  0  0  0  0  0  0  0  0  0
  160.5830  206.0540  149.2180 C   0  0  0  0  0  2  0  0  0  0  0  0
  161.5840  205.2220  153.4440 N   0  0  0  0  0  0  0  0  0  0  0  0
  161.6280  206.5650  153.8460 N   0  0  0  0  0  0  0  0  0  0  0  0
  161.2650  208.7450  152.9490 N   0  0  0  0  0  2  0  0  0  0  0  0
  160.9040  203.8520  151.5450 C   0  0  0  0  0  2  0  0  0  0  0  0
  161.3110  207.3170  152.8480 C   0  0  0  0  0  0  0  0  0  0  0  0
  161.1510  203.8780  150.1110 N   0  0  0  0  0  0  0  0  0  0  0  0
  161.0250  209.6300  151.8180 C   0  0  1  0  0  3  0  0  0  0  0  0
  159.2430  211.1230  154.5970 C   0  0  0  0  0  3  0  0  0  0  0  0
  160.4620  210.9320  152.2990 C   0  0  0  0  0  3  0  0  0  0  0  0
  159.8510  211.0290  153.4490 C   0  0  0  0  0  0  0  0  0  0  0  0
  159.5580  212.1930  155.4870 N   0  0  0  0  0  2  0  0  0  0  0  0
  159.5030  214.4490  156.1230 O   0  0  0  0  0  1  0  0  0  0  0  0
  158.7510  213.4080  155.5690 C   0  0  2  0  0  3  0  0  0  0  0  0
  157.4230  213.1970  156.3240 C   0  0  0  0  0  0  0  0  0  0  0  0
  157.0730  214.4040  157.1800 C   0  0  0  0  0  1  0  0  0  0  0  0
  157.5250  211.9760  157.2240 C   0  0  0  0  0  1  0  0  0  0  0  0
  155.5910  211.2910  155.1810 O   0  0  0  0  0  1  0  0  0  0  0  0
  154.8940  213.7930  155.4750 O   0  0  0  0  0  1  0  0  0  0  0  0
  156.0730  212.9120  155.1320 P   0  0  0  0  0  0  0  0  0  0  0  0
  156.6090  213.2810  153.5720 O   0  0  0  0  0  0  0  0  0  0  0  0
  162.2400  209.8410  151.1050 O   0  0  0  0  0  0  0  0  0  0  0  0
  162.2690  210.1100  149.7360 C   0  0  0  0  0  0  0  0  0  0  0  0
  162.2680  211.4510  149.2530 N   0  0  0  0  0  1  0  0  0  0  0  0
  162.2900  209.1560  148.9160 O   0  0  0  0  0  0  0  0  0  0  0  0
  161.0080  202.5600  149.6580 N   0  0  0  0  0  2  0  0  0  0  0  0
  161.8120  202.4350  148.5170 N   0  0  0  0  0  2  0  0  0  0  0  0
  160.0270  201.3980  145.3910 C   0  0  0  0  0  3  0  0  0  0  0  0
  160.1110  202.6170  144.5090 C   0  0  0  0  0  2  0  0  0  0  0  0
  160.5510  201.3550  146.6200 C   0  0  0  0  0  3  0  0  0  0  0  0
  161.3910  203.6440  146.5110 C   0  0  0  0  0  3  0  0  0  0  0  0
  161.2570  202.5120  147.2050 C   0  0  0  0  0  0  0  0  0  0  0  0
  160.8390  203.7650  145.1540 C   0  0  0  0  0  0  0  0  0  0  0  0
  160.9780  204.8430  144.5230 O   0  0  0  0  0  0  0  0  0  0  0  0
  1 11  1  0  0  0  0
  2  6  2  0  0  0  0
  3  4  2  0  0  0  0
  4  2  1  0  0  0  0
  4 10  1  0  0  0  0
  5  1  1  0  0  0  0
  5  3  1  0  0  0  0
  6  7  1  0  0  0  0
  9  2  1  0  0  0  0
 10  8  1  0  0  0  0
 10  7  2  0  0  0  0
 11  9  1  0  0  0  0
 12 14  1  1  0  0  0
 12  8  1  0  0  0  0
 13 16  1  0  0  0  0
 14 15  2  0  0  0  0
 15 13  2  0  0  0  0
 16 18  1  0  0  0  0
 18 17  1  1  0  0  0
 18 19  1  0  0  0  0
 19 20  1  0  0  0  0
 19 21  1  0  0  0  0
 24 22  1  0  0  0  0
 24 23  1  0  0  0  0
 24 19  1  0  0  0  0
 25 24  2  0  0  0  0
 26 12  1  0  0  0  0
 27 26  1  0  0  0  0
 28 27  1  0  0  0  0
 29 27  2  0  0  0  0
 30 11  1  0  0  0  0
 31 30  1  0  0  0  0
 32 34  2  0  0  0  0
 33 37  1  0  0  0  0
 33 32  1  0  0  0  0
 34 36  1  0  0  0  0
 35 36  2  0  0  0  0
 36 31  1  0  0  0  0
 37 35  1  0  0  0  0
 38 37  2  0  0  0  0
M  END
>  <MODEL>
5

>  <REMARK>
 VINA RESULT:      -6.0      2.465      3.637
  Name = 
  11 active torsions:
  status: ('A' for Active; 'I' for Inactive)
    1  A    between atoms: C_2  and  O_4
    2  A    between atoms: C_2  and  C_15
    3  A    between atoms: C_2  and  N_20
    4  A    between atoms: O_4  and  C_7
    5  A    between atoms: C_13  and  N_17
    6  A    between atoms: N_17  and  C_33
    7  A    between atoms: N_19  and  C_23
    8  A    between atoms: N_19  and  N_37
    9  A    between atoms: C_21  and  P_29
   10  A    between atoms: C_21  and  C_33
   11  A    between atoms: N_31  and  N_37
                            x       y       z     vdW  Elec       q    Type
                         _______ _______ _______ _____ _____    ______ ____

>  <TORSDO>
F 11

$$$$
=
 OpenBabel11042422463D

 38 40  0  0  1  0  0  0  0  0999 V2000
  161.2430  207.0090  148.6230 C   0  0  0  0  0  2  0  0  0  0  0  0
  161.1810  206.0000  151.4320 C   0  0  0  0  0  0  0  0  0  0  0  0
  161.5560  208.4120  150.7040 C   0  0  0  0  0  3  0  0  0  0  0  0
  161.3040  207.4500  151.6000 C   0  0  0  0  0  0  0  0  0  0  0  0
  161.9210  208.2080  149.2620 C   0  0  0  0  0  2  0  0  0  0  0  0
  160.9090  205.4580  152.5750 N   0  0  0  0  0  0  0  0  0  0  0  0
  160.8720  206.4440  153.5710 N   0  0  0  0  0  0  0  0  0  0  0  0
  161.0990  208.8080  153.8000 N   0  0  0  0  0  2  0  0  0  0  0  0
  161.0290  205.2440  150.1490 C   0  0  0  0  0  2  0  0  0  0  0  0
  161.0790  207.5990  153.0340 C   0  0  0  0  0  0  0  0  0  0  0  0
  161.8790  205.7940  149.1040 N   0  0  0  0  0  0  0  0  0  0  0  0
  161.4430  210.1110  153.2500 C   0  0  1  0  0  3  0  0  0  0  0  0
  160.2030  213.1170  151.6520 C   0  0  0  0  0  3  0  0  0  0  0  0
  160.3190  210.6210  152.4020 C   0  0  0  0  0  3  0  0  0  0  0  0
  160.2590  211.8700  152.0260 C   0  0  0  0  0  0  0  0  0  0  0  0
  159.9120  213.4410  150.2940 N   0  0  0  0  0  2  0  0  0  0  0  0
  161.2870  211.7760  149.3800 O   0  0  0  0  0  1  0  0  0  0  0  0
  160.0960  212.4880  149.2020 C   0  0  2  0  0  3  0  0  0  0  0  0
  160.0260  213.1480  147.8100 C   0  0  0  0  0  0  0  0  0  0  0  0
  160.5900  212.2340  146.7330 C   0  0  0  0  0  1  0  0  0  0  0  0
  160.8170  214.4460  147.8090 C   0  0  0  0  0  1  0  0  0  0  0  0
  157.5460  214.3050  148.7090 O   0  0  0  0  0  1  0  0  0  0  0  0
  158.2470  214.4530  146.1960 O   0  0  0  0  0  0  0  0  0  0  0  0
  158.2930  213.5390  147.3980 P   0  0  0  0  0  0  0  0  0  0  0  0
  157.4600  212.1110  147.0440 O   0  0  0  0  0  1  0  0  0  0  0  0
  161.7270  211.0210  154.3090 O   0  0  0  0  0  0  0  0  0  0  0  0
  161.0520  210.9830  155.5300 C   0  0  0  0  0  0  0  0  0  0  0  0
  159.7560  211.5620  155.6690 N   0  0  0  0  0  1  0  0  0  0  0  0
  161.5970  210.4380  156.5240 O   0  0  0  0  0  0  0  0  0  0  0  0
  161.8530  204.8770  148.0450 N   0  0  0  0  0  2  0  0  0  0  0  0
  161.4770  203.6420  148.5880 N   0  0  0  0  0  2  0  0  0  0  0  0
  161.2950  200.0620  147.4980 C   0  0  0  0  0  3  0  0  0  0  0  0
  160.7740  200.1430  146.0870 C   0  0  0  0  0  2  0  0  0  0  0  0
  161.5050  201.1420  148.2560 C   0  0  0  0  0  3  0  0  0  0  0  0
  160.7730  202.6950  146.5210 C   0  0  0  0  0  3  0  0  0  0  0  0
  161.2380  202.5060  147.7570 C   0  0  0  0  0  0  0  0  0  0  0  0
  160.5170  201.5540  145.6300 C   0  0  0  0  0  0  0  0  0  0  0  0
  160.0790  201.7600  144.4700 O   0  0  0  0  0  0  0  0  0  0  0  0
  1 11  1  0  0  0  0
  1  5  1  0  0  0  0
  2  4  1  0  0  0  0
  2  6  2  0  0  0  0
  3  4  2  0  0  0  0
  4 10  1  0  0  0  0
  5  3  1  0  0  0  0
  6  7  1  0  0  0  0
  9  2  1  0  0  0  0
 10  7  2  0  0  0  0
 10  8  1  0  0  0  0
 11  9  1  0  0  0  0
 12 14  1  1  0  0  0
 12  8  1  0  0  0  0
 12 26  1  0  0  0  0
 13 15  2  0  0  0  0
 15 14  2  0  0  0  0
 16 13  1  0  0  0  0
 18 17  1  1  0  0  0
 18 16  1  0  0  0  0
 19 18  1  0  0  0  0
 20 19  1  0  0  0  0
 21 19  1  0  0  0  0
 23 24  2  0  0  0  0
 24 19  1  0  0  0  0
 24 22  1  0  0  0  0
 25 24  1  0  0  0  0
 26 27  1  0  0  0  0
 27 28  1  0  0  0  0
 27 29  2  0  0  0  0
 30 31  1  0  0  0  0
 30 11  1  0  0  0  0
 32 34  2  0  0  0  0
 33 32  1  0  0  0  0
 35 36  2  0  0  0  0
 36 34  1  0  0  0  0
 36 31  1  0  0  0  0
 37 33  1  0  0  0  0
 37 35  1  0  0  0  0
 38 37  2  0  0  0  0
M  END
>  <MODEL>
6

>  <REMARK>
 VINA RESULT:      -5.5      3.214      4.634
  Name = 
  11 active torsions:
  status: ('A' for Active; 'I' for Inactive)
    1  A    between atoms: C_2  and  O_4
    2  A    between atoms: C_2  and  C_15
    3  A    between atoms: C_2  and  N_20
    4  A    between atoms: O_4  and  C_7
    5  A    between atoms: C_13  and  N_17
    6  A    between atoms: N_17  and  C_33
    7  A    between atoms: N_19  and  C_23
    8  A    between atoms: N_19  and  N_37
    9  A    between atoms: C_21  and  P_29
   10  A    between atoms: C_21  and  C_33
   11  A    between atoms: N_31  and  N_37
                            x       y       z     vdW  Elec       q    Type
                         _______ _______ _______ _____ _____    ______ ____

>  <TORSDO>
F 11

$$$$
=
 OpenBabel11042422463D

 38 40  0  0  1  0  0  0  0  0999 V2000
  161.6020  203.1960  151.2650 C   0  0  0  0  0  2  0  0  0  0  0  0
  160.8870  205.5100  149.5190 C   0  0  0  0  0  0  0  0  0  0  0  0
  161.4090  205.6060  152.0100 C   0  0  0  0  0  3  0  0  0  0  0  0
  161.1990  206.1430  150.8020 C   0  0  0  0  0  0  0  0  0  0  0  0
  161.2380  204.1600  152.3800 C   0  0  0  0  0  2  0  0  0  0  0  0
  160.7860  206.4200  148.6060 N   0  0  0  0  0  0  0  0  0  0  0  0
  160.9680  207.6880  149.1770 N   0  0  0  0  0  0  0  0  0  0  0  0
  161.4580  208.6770  151.2920 N   0  0  0  0  0  2  0  0  0  0  0  0
  161.0010  204.0580  149.1710 C   0  0  0  0  0  2  0  0  0  0  0  0
  161.2230  207.5540  150.4350 C   0  0  0  0  0  0  0  0  0  0  0  0
  160.5470  203.2120  150.2640 N   0  0  0  0  0  0  0  0  0  0  0  0
  161.6330  208.5730  152.7340 C   0  0  1  0  0  3  0  0  0  0  0  0
  160.0090  211.6790  153.6510 C   0  0  0  0  0  3  0  0  0  0  0  0
  161.9110  209.9260  153.3140 C   0  0  0  0  0  3  0  0  0  0  0  0
  160.9600  210.8050  153.4820 C   0  0  0  0  0  0  0  0  0  0  0  0
  159.9020  212.3880  154.8840 N   0  0  0  0  0  2  0  0  0  0  0  0
  158.0670  211.0530  155.4750 O   0  0  0  0  0  1  0  0  0  0  0  0
  158.7660  212.2220  155.7880 C   0  0  2  0  0  3  0  0  0  0  0  0
  157.8380  213.4540  155.8170 C   0  0  0  0  0  0  0  0  0  0  0  0
  158.1980  214.4460  154.7220 C   0  0  0  0  0  1  0  0  0  0  0  0
  157.9440  214.1540  157.1620 C   0  0  0  0  0  1  0  0  0  0  0  0
  155.5560  212.1280  156.9700 O   0  0  0  0  0  1  0  0  0  0  0  0
  155.2360  214.1370  155.3300 O   0  0  0  0  0  1  0  0  0  0  0  0
  156.1070  212.9290  155.5850 P   0  0  0  0  0  0  0  0  0  0  0  0
  156.0060  211.8800  154.2640 O   0  0  0  0  0  0  0  0  0  0  0  0
  160.4660  208.0050  153.3210 O   0  0  0  0  0  0  0  0  0  0  0  0
  160.4280  207.5710  154.6470 C   0  0  0  0  0  0  0  0  0  0  0  0
  159.9000  208.4060  155.6760 N   0  0  0  0  0  1  0  0  0  0  0  0
  160.8730  206.4320  154.9410 O   0  0  0  0  0  0  0  0  0  0  0  0
  160.4580  201.9110  149.7510 N   0  0  0  0  0  2  0  0  0  0  0  0
  161.4300  201.8040  148.7480 N   0  0  0  0  0  2  0  0  0  0  0  0
  160.1000  201.6160  145.2510 C   0  0  0  0  0  3  0  0  0  0  0  0
  160.4390  200.2140  144.8140 C   0  0  0  0  0  2  0  0  0  0  0  0
  160.4110  202.0920  146.4600 C   0  0  0  0  0  3  0  0  0  0  0  0
  161.4650  200.0130  147.1810 C   0  0  0  0  0  3  0  0  0  0  0  0
  161.1170  201.2700  147.4630 C   0  0  0  0  0  0  0  0  0  0  0  0
  161.1570  199.4210  145.8710 C   0  0  0  0  0  0  0  0  0  0  0  0
  161.4980  198.2350  145.6320 O   0  0  0  0  0  0  0  0  0  0  0  0
  1  5  1  0  0  0  0
  2  4  1  0  0  0  0
  3  5  1  0  0  0  0
  4  3  2  0  0  0  0
  6  7  1  0  0  0  0
  6  2  2  0  0  0  0
  7 10  2  0  0  0  0
  8 12  1  0  0  0  0
  9  2  1  0  0  0  0
  9 11  1  0  0  0  0
 10  4  1  0  0  0  0
 10  8  1  0  0  0  0
 11  1  1  0  0  0  0
 12 14  1  1  0  0  0
 12 26  1  0  0  0  0
 13 16  1  0  0  0  0
 14 15  2  0  0  0  0
 15 13  2  0  0  0  0
 16 18  1  0  0  0  0
 18 17  1  6  0  0  0
 18 19  1  0  0  0  0
 19 21  1  0  0  0  0
 20 19  1  0  0  0  0
 23 24  1  0  0  0  0
 24 19  1  0  0  0  0
 24 22  1  0  0  0  0
 25 24  2  0  0  0  0
 26 27  1  0  0  0  0
 27 29  2  0  0  0  0
 27 28  1  0  0  0  0
 30 11  1  0  0  0  0
 31 30  1  0  0  0  0
 32 34  2  0  0  0  0
 33 32  1  0  0  0  0
 33 37  1  0  0  0  0
 34 36  1  0  0  0  0
 35 36  2  0  0  0  0
 36 31  1  0  0  0  0
 37 35  1  0  0  0  0
 38 37  2  0  0  0  0
M  END
>  <MODEL>
7

>  <REMARK>
 VINA RESULT:      -5.5      2.532      3.943
  Name = 
  11 active torsions:
  status: ('A' for Active; 'I' for Inactive)
    1  A    between atoms: C_2  and  O_4
    2  A    between atoms: C_2  and  C_15
    3  A    between atoms: C_2  and  N_20
    4  A    between atoms: O_4  and  C_7
    5  A    between atoms: C_13  and  N_17
    6  A    between atoms: N_17  and  C_33
    7  A    between atoms: N_19  and  C_23
    8  A    between atoms: N_19  and  N_37
    9  A    between atoms: C_21  and  P_29
   10  A    between atoms: C_21  and  C_33
   11  A    between atoms: N_31  and  N_37
                            x       y       z     vdW  Elec       q    Type
                         _______ _______ _______ _____ _____    ______ ____

>  <TORSDO>
F 11

$$$$
=
 OpenBabel11042422463D

 38 40  0  0  1  0  0  0  0  0999 V2000
  161.5670  204.2990  152.0200 C   0  0  0  0  0  2  0  0  0  0  0  0
  161.4300  206.9540  150.6600 C   0  0  0  0  0  0  0  0  0  0  0  0
  161.4020  206.5450  153.1740 C   0  0  0  0  0  3  0  0  0  0  0  0
  161.5020  207.3080  152.0790 C   0  0  0  0  0  0  0  0  0  0  0  0
  161.0440  205.0870  153.2090 C   0  0  0  0  0  2  0  0  0  0  0  0
  161.6020  208.0180  149.9440 N   0  0  0  0  0  0  0  0  0  0  0  0
  161.7510  209.1340  150.7800 N   0  0  0  0  0  0  0  0  0  0  0  0
  161.8430  209.6670  153.1030 N   0  0  0  0  0  2  0  0  0  0  0  0
  161.5050  205.5840  150.0620 C   0  0  0  0  0  2  0  0  0  0  0  0
  161.7150  208.7500  152.0110 C   0  0  0  0  0  0  0  0  0  0  0  0
  160.7600  204.6170  150.8520 N   0  0  0  0  0  0  0  0  0  0  0  0
  161.6910  209.2890  154.5010 C   0  0  1  0  0  3  0  0  0  0  0  0
  160.2400  212.4930  155.3700 C   0  0  0  0  0  3  0  0  0  0  0  0
  161.9030  210.4840  155.3790 C   0  0  0  0  0  3  0  0  0  0  0  0
  161.0720  211.4910  155.3750 C   0  0  0  0  0  0  0  0  0  0  0  0
  159.7800  213.0450  156.6030 N   0  0  0  0  0  2  0  0  0  0  0  0
  158.1560  211.4780  157.2410 O   0  0  0  0  0  1  0  0  0  0  0  0
  158.4180  212.8440  157.0930 C   0  0  2  0  0  3  0  0  0  0  0  0
  157.3560  213.5400  156.2180 C   0  0  0  0  0  0  0  0  0  0  0  0
  157.9990  214.4510  155.1840 C   0  0  0  0  0  1  0  0  0  0  0  0
  156.4290  214.3720  157.0890 C   0  0  0  0  0  1  0  0  0  0  0  0
  155.4950  211.3570  156.4760 O   0  0  0  0  0  1  0  0  0  0  0  0
  155.3740  212.9710  154.4240 O   0  0  0  0  0  0  0  0  0  0  0  0
  156.3510  212.2890  155.3520 P   0  0  0  0  0  0  0  0  0  0  0  0
  157.3620  211.2770  154.4510 O   0  0  0  0  0  1  0  0  0  0  0  0
  160.3950  208.7350  154.7120 O   0  0  0  0  0  0  0  0  0  0  0  0
  159.9750  208.2640  155.9570 C   0  0  0  0  0  0  0  0  0  0  0  0
  159.7730  206.8710  156.1830 N   0  0  0  0  0  1  0  0  0  0  0  0
  159.7640  209.0800  156.8900 O   0  0  0  0  0  0  0  0  0  0  0  0
  160.6850  203.4470  150.0840 N   0  0  0  0  0  2  0  0  0  0  0  0
  161.6170  203.5830  149.0470 N   0  0  0  0  0  2  0  0  0  0  0  0
  160.3360  201.6140  146.1290 C   0  0  0  0  0  3  0  0  0  0  0  0
  160.5930  202.5140  144.9490 C   0  0  0  0  0  2  0  0  0  0  0  0
  160.6530  201.9540  147.3820 C   0  0  0  0  0  3  0  0  0  0  0  0
  161.5570  204.1240  146.7300 C   0  0  0  0  0  3  0  0  0  0  0  0
  161.2840  203.2500  147.7000 C   0  0  0  0  0  0  0  0  0  0  0  0
  161.2360  203.8200  145.3290 C   0  0  0  0  0  0  0  0  0  0  0  0
  161.5030  204.6620  144.4350 O   0  0  0  0  0  0  0  0  0  0  0  0
  1  5  1  0  0  0  0
  2  4  1  0  0  0  0
  3  5  1  0  0  0  0
  4  3  2  0  0  0  0
  6  2  2  0  0  0  0
  6  7  1  0  0  0  0
  7 10  2  0  0  0  0
  8 12  1  0  0  0  0
  9  2  1  0  0  0  0
  9 11  1  0  0  0  0
 10  4  1  0  0  0  0
 10  8  1  0  0  0  0
 11  1  1  0  0  0  0
 12 26  1  0  0  0  0
 12 14  1  1  0  0  0
 13 15  2  0  0  0  0
 13 16  1  0  0  0  0
 15 14  2  0  0  0  0
 16 18  1  0  0  0  0
 18 17  1  6  0  0  0
 19 21  1  0  0  0  0
 19 18  1  0  0  0  0
 20 19  1  0  0  0  0
 23 24  2  0  0  0  0
 24 19  1  0  0  0  0
 24 22  1  0  0  0  0
 25 24  1  0  0  0  0
 26 27  1  0  0  0  0
 27 28  1  0  0  0  0
 27 29  2  0  0  0  0
 30 11  1  0  0  0  0
 31 30  1  0  0  0  0
 32 34  2  0  0  0  0
 33 37  1  0  0  0  0
 33 32  1  0  0  0  0
 34 36  1  0  0  0  0
 35 36  2  0  0  0  0
 36 31  1  0  0  0  0
 37 35  1  0  0  0  0
 38 37  2  0  0  0  0
M  END
>  <MODEL>
8

>  <REMARK>
 VINA RESULT:      -5.4      2.048      3.186
  Name = 
  11 active torsions:
  status: ('A' for Active; 'I' for Inactive)
    1  A    between atoms: C_2  and  O_4
    2  A    between atoms: C_2  and  C_15
    3  A    between atoms: C_2  and  N_20
    4  A    between atoms: O_4  and  C_7
    5  A    between atoms: C_13  and  N_17
    6  A    between atoms: N_17  and  C_33
    7  A    between atoms: N_19  and  C_23
    8  A    between atoms: N_19  and  N_37
    9  A    between atoms: C_21  and  P_29
   10  A    between atoms: C_21  and  C_33
   11  A    between atoms: N_31  and  N_37
                            x       y       z     vdW  Elec       q    Type
                         _______ _______ _______ _____ _____    ______ ____

>  <TORSDO>
F 11

$$$$
=
 OpenBabel11042422463D

 38 40  0  0  1  0  0  0  0  0999 V2000
  160.8610  206.7580  150.4670 C   0  0  0  0  0  2  0  0  0  0  0  0
  161.1270  206.4430  153.4250 C   0  0  0  0  0  0  0  0  0  0  0  0
  161.0680  208.6430  152.1420 C   0  0  0  0  0  3  0  0  0  0  0  0
  161.0260  207.8940  153.2500 C   0  0  0  0  0  0  0  0  0  0  0  0
  161.3760  208.1580  150.7550 C   0  0  0  0  0  2  0  0  0  0  0  0
  161.0120  206.1540  154.6800 N   0  0  0  0  0  0  0  0  0  0  0  0
  160.8760  207.3320  155.4290 N   0  0  0  0  0  0  0  0  0  0  0  0
  160.7360  209.6900  155.0990 N   0  0  0  0  0  2  0  0  0  0  0  0
  161.0220  205.3920  152.3640 C   0  0  0  0  0  2  0  0  0  0  0  0
  160.8640  208.3440  154.6290 C   0  0  0  0  0  0  0  0  0  0  0  0
  161.7110  205.7940  151.1470 N   0  0  0  0  0  0  0  0  0  0  0  0
  160.8350  210.8620  154.2400 C   0  0  1  0  0  3  0  0  0  0  0  0
  159.0860  213.0290  151.9220 C   0  0  0  0  0  3  0  0  0  0  0  0
  159.6970  210.8790  153.2660 C   0  0  0  0  0  3  0  0  0  0  0  0
  159.3900  211.9550  152.5930 C   0  0  0  0  0  0  0  0  0  0  0  0
  158.8420  212.9500  150.5190 N   0  0  0  0  0  2  0  0  0  0  0  0
  158.3290  214.4420  148.7850 O   0  0  0  0  0  1  0  0  0  0  0  0
  159.3650  213.9330  149.5730 C   0  0  2  0  0  3  0  0  0  0  0  0
  160.5220  213.3830  148.7140 C   0  0  0  0  0  0  0  0  0  0  0  0
  161.1650  212.1670  149.3620 C   0  0  0  0  0  1  0  0  0  0  0  0
  161.5850  214.4530  148.5280 C   0  0  0  0  0  1  0  0  0  0  0  0
  158.2590  212.5020  147.1660 O   0  0  0  0  0  1  0  0  0  0  0  0
  160.0680  214.0620  146.1050 O   0  0  0  0  0  0  0  0  0  0  0  0
  159.8990  212.9090  147.0680 P   0  0  0  0  0  0  0  0  0  0  0  0
  160.7660  211.5750  146.4970 O   0  0  0  0  0  1  0  0  0  0  0  0
  160.8320  212.0440  155.0350 O   0  0  0  0  0  0  0  0  0  0  0  0
  159.6780  212.5290  155.6540 C   0  0  0  0  0  0  0  0  0  0  0  0
  158.9080  211.6990  156.5210 N   0  0  0  0  0  1  0  0  0  0  0  0
  159.3080  213.7110  155.4380 O   0  0  0  0  0  0  0  0  0  0  0  0
  161.7690  204.6590  150.3280 N   0  0  0  0  0  2  0  0  0  0  0  0
  161.4940  205.0870  149.0230 N   0  0  0  0  0  2  0  0  0  0  0  0
  160.8250  201.8350  147.2880 C   0  0  0  0  0  3  0  0  0  0  0  0
  160.8380  202.2000  145.8260 C   0  0  0  0  0  2  0  0  0  0  0  0
  161.0260  202.7300  148.2590 C   0  0  0  0  0  3  0  0  0  0  0  0
  161.3100  204.5880  146.7030 C   0  0  0  0  0  3  0  0  0  0  0  0
  161.2770  204.1550  147.9650 C   0  0  0  0  0  0  0  0  0  0  0  0
  161.0970  203.6620  145.5820 C   0  0  0  0  0  0  0  0  0  0  0  0
  161.1320  204.0970  144.4040 O   0  0  0  0  0  0  0  0  0  0  0  0
  1  5  1  0  0  0  0
  1 11  1  0  0  0  0
  2  6  2  0  0  0  0
  3  4  2  0  0  0  0
  4  2  1  0  0  0  0
  4 10  1  0  0  0  0
  5  3  1  0  0  0  0
  6  7  1  0  0  0  0
  9  2  1  0  0  0  0
 10  8  1  0  0  0  0
 10  7  2  0  0  0  0
 11  9  1  0  0  0  0
 12 14  1  6  0  0  0
 12 26  1  0  0  0  0
 12  8  1  0  0  0  0
 13 15  2  0  0  0  0
 15 14  2  0  0  0  0
 16 13  1  0  0  0  0
 18 17  1  6  0  0  0
 18 16  1  0  0  0  0
 19 20  1  0  0  0  0
 19 18  1  0  0  0  0
 21 19  1  0  0  0  0
 23 24  2  0  0  0  0
 24 22  1  0  0  0  0
 24 19  1  0  0  0  0
 25 24  1  0  0  0  0
 26 27  1  0  0  0  0
 27 28  1  0  0  0  0
 29 27  2  0  0  0  0
 30 11  1  0  0  0  0
 31 30  1  0  0  0  0
 32 34  2  0  0  0  0
 33 32  1  0  0  0  0
 35 36  2  0  0  0  0
 36 34  1  0  0  0  0
 36 31  1  0  0  0  0
 37 33  1  0  0  0  0
 37 35  1  0  0  0  0
 38 37  2  0  0  0  0
M  END
>  <MODEL>
9

>  <REMARK>
 VINA RESULT:      -5.3      3.227      4.470
  Name = 
  11 active torsions:
  status: ('A' for Active; 'I' for Inactive)
    1  A    between atoms: C_2  and  O_4
    2  A    between atoms: C_2  and  C_15
    3  A    between atoms: C_2  and  N_20
    4  A    between atoms: O_4  and  C_7
    5  A    between atoms: C_13  and  N_17
    6  A    between atoms: N_17  and  C_33
    7  A    between atoms: N_19  and  C_23
    8  A    between atoms: N_19  and  N_37
    9  A    between atoms: C_21  and  P_29
   10  A    between atoms: C_21  and  C_33
   11  A    between atoms: N_31  and  N_37
                            x       y       z     vdW  Elec       q    Type
                         _______ _______ _______ _____ _____    ______ ____

>  <TORSDO>
F 11

$$$$
