=
 OpenBabel11042420053D

 42 45  0  0  1  0  0  0  0  0999 V2000
  160.4250  210.6060  152.8280 C   0  0  0  0  0  0  0  0  0  0  0  0
  160.6490  209.5420  153.7480 N   0  0  0  0  0  1  0  0  0  0  0  0
  159.2120  212.5720  152.2580 C   0  0  0  0  0  0  0  0  0  0  0  0
  161.1750  210.6890  151.6460 C   0  0  0  0  0  0  0  0  0  0  0  0
  159.4680  211.5340  153.0980 N   0  0  0  0  0  0  0  0  0  0  0  0
  159.9610  212.7100  151.0850 C   0  0  0  0  0  3  0  0  0  0  0  0
  160.9560  211.7740  150.7760 C   0  0  0  0  0  0  0  0  0  0  0  0
  158.1630  213.5470  152.5940 C   0  0  0  0  0  0  0  0  0  0  0  0
  157.8500  214.4520  151.7720 O   0  0  0  0  0  0  0  0  0  0  0  0
  157.5000  213.4660  153.8580 N   0  0  0  0  0  2  0  0  0  0  0  0
  154.8900  213.9060  153.5010 S   0  0  0  0  0  1  0  0  0  0  0  0
  156.4620  214.4050  154.2490 C   0  0  0  0  0  2  0  0  0  0  0  0
  161.7530  211.9240  149.6350 O   0  0  0  0  0  0  0  0  0  0  0  0
  161.3680  212.6890  148.5000 C   0  0  1  0  0  3  0  0  0  0  0  0
  162.6060  213.4010  147.9350 C   0  0  0  0  0  2  0  0  0  0  0  0
  160.2200  212.6020  146.2620 C   0  0  0  0  0  2  0  0  0  0  0  0
  162.6290  213.5010  146.4050 C   0  0  0  0  0  2  0  0  0  0  0  0
  161.2180  213.6970  145.8380 C   0  0  1  0  0  3  0  0  0  0  0  0
  160.7090  211.7830  147.4580 C   0  0  0  0  0  2  0  0  0  0  0  0
  161.2260  213.9120  144.4440 O   0  0  0  0  0  0  0  0  0  0  0  0
  162.5070  213.7300  144.0220 N   0  0  0  0  0  2  0  0  0  0  0  0
  162.4900  212.6200  143.0830 C   0  0  0  0  0  2  0  0  0  0  0  0
  160.9210  211.8290  141.3000 C   0  0  0  0  0  3  0  0  0  0  0  0
  161.1530  212.5380  142.4140 C   0  0  0  0  0  3  0  0  0  0  0  0
  162.3720  211.7190  139.3670 N   0  0  0  0  0  2  0  0  0  0  0  0
  161.7860  210.6310  138.5940 C   0  0  0  0  0  2  0  0  0  0  0  0
  162.1470  208.7410  139.9780 O   0  0  0  0  0  1  0  0  0  0  0  0
  161.9740  211.0290  140.5880 C   0  0  2  0  0  3  0  0  0  0  0  0
  161.3510  209.8780  139.8290 C   0  0  1  0  0  3  0  0  0  0  0  0
  162.1450  209.7090  151.3790 O   0  0  0  0  0  0  0  0  0  0  0  0
  161.9140  208.5400  150.6410 C   0  0  0  0  0  0  0  0  0  0  0  0
  161.6090  207.3200  151.2670 C   0  0  0  0  0  3  0  0  0  0  0  0
  161.3820  206.1720  150.5040 C   0  0  0  0  0  3  0  0  0  0  0  0
  162.0150  208.5870  149.2480 C   0  0  0  0  0  3  0  0  0  0  0  0
  161.7880  207.4370  148.4840 C   0  0  0  0  0  3  0  0  0  0  0  0
  161.4650  206.2210  149.1060 C   0  0  0  0  0  0  0  0  0  0  0  0
  161.2180  205.0070  148.3030 C   0  0  0  0  0  0  0  0  0  0  0  0
  161.2190  205.0670  147.0450 O   0  0  0  0  0  0  0  0  0  0  0  0
  160.9310  203.6960  148.9640 C   0  0  0  0  0  2  0  0  0  0  0  0
  161.2100  202.5630  147.9970 C   0  0  0  0  0  2  0  0  0  0  0  0
  160.9330  201.2370  148.6750 C   0  0  0  0  0  2  0  0  0  0  0  0
  160.6910  201.4710  150.1500 C   0  0  0  0  0  1  0  0  0  0  0  0
  1  5  1  0  0  0  0
  1  2  1  0  0  0  0
  3  8  1  0  0  0  0
  3  5  2  0  0  0  0
  4  1  2  0  0  0  0
  6  3  1  0  0  0  0
  7  6  2  0  0  0  0
  7  4  1  0  0  0  0
  8 10  1  0  0  0  0
  9  8  2  0  0  0  0
 10 12  1  0  0  0  0
 11 12  1  0  0  0  0
 13  7  1  0  0  0  0
 14 13  1  1  0  0  0
 15 14  1  0  0  0  0
 16 19  1  0  0  0  0
 17 15  1  0  0  0  0
 18 20  1  6  0  0  0
 18 16  1  0  0  0  0
 18 17  1  0  0  0  0
 19 14  1  0  0  0  0
 21 20  1  0  0  0  0
 22 21  1  0  0  0  0
 23 24  2  0  0  0  0
 24 22  1  0  0  0  0
 25 28  1  0  0  0  0
 26 25  1  0  0  0  0
 26 29  1  0  0  0  0
 28 23  1  6  0  0  0
 29 27  1  1  0  0  0
 29 28  1  0  0  0  0
 30  4  1  0  0  0  0
 31 32  1  0  0  0  0
 31 30  1  0  0  0  0
 33 32  2  0  0  0  0
 34 31  2  0  0  0  0
 35 36  2  0  0  0  0
 35 34  1  0  0  0  0
 36 33  1  0  0  0  0
 37 39  1  0  0  0  0
 37 36  1  0  0  0  0
 38 37  2  0  0  0  0
 40 41  1  0  0  0  0
 40 39  1  0  0  0  0
 41 42  1  0  0  0  0
M  END
>  <MODEL>
1

>  <REMARK>
 VINA RESULT:      -7.1      0.000      0.000
  Name = 
  15 active torsions:
  status: ('A' for Active; 'I' for Inactive)
    1  A    between atoms: C_1  and  O_14
    2  A    between atoms: C_2  and  O_29
    3  A    between atoms: C_3  and  C_25
    4  A    between atoms: C_4  and  C_40
    5  A    between atoms: C_4  and  C_42
    6  A    between atoms: C_9  and  C_28
    7  A    between atoms: C_11  and  C_12
    8  A    between atoms: C_11  and  C_42
    9  A    between atoms: O_14  and  C_39
   10  A    between atoms: C_17  and  C_34
   11  A    between atoms: C_24  and  O_37
   12  A    between atoms: C_26  and  O_29
   13  A    between atoms: C_31  and  N_41
   14  A    between atoms: C_34  and  N_35
   15  A    between atoms: N_35  and  O_37
                            x       y       z     vdW  Elec       q    Type
                         _______ _______ _______ _____ _____    ______ ____

>  <TORSDO>
F 15

$$$$
=
 OpenBabel11042420053D

 42 45  0  0  1  0  0  0  0  0999 V2000
  161.1710  207.4440  152.3070 C   0  0  0  0  0  0  0  0  0  0  0  0
  160.8290  207.0380  153.6290 N   0  0  0  0  0  1  0  0  0  0  0  0
  161.3810  206.8850  150.0040 C   0  0  0  0  0  0  0  0  0  0  0  0
  161.6190  208.7500  152.0620 C   0  0  0  0  0  0  0  0  0  0  0  0
  161.0710  206.5520  151.2850 N   0  0  0  0  0  0  0  0  0  0  0  0
  161.8010  208.1860  149.7120 C   0  0  0  0  0  3  0  0  0  0  0  0
  161.9130  209.1320  150.7390 C   0  0  0  0  0  0  0  0  0  0  0  0
  161.2620  205.8810  148.9360 C   0  0  0  0  0  0  0  0  0  0  0  0
  161.1540  204.6570  149.2240 O   0  0  0  0  0  0  0  0  0  0  0  0
  161.2710  206.2970  147.5680 N   0  0  0  0  0  2  0  0  0  0  0  0
  162.8180  204.7550  146.0320 S   0  0  0  0  0  1  0  0  0  0  0  0
  161.1650  205.3520  146.4700 C   0  0  0  0  0  2  0  0  0  0  0  0
  162.2780  210.4550  150.4610 O   0  0  0  0  0  0  0  0  0  0  0  0
  161.8350  211.1690  149.3140 C   0  0  1  0  0  3  0  0  0  0  0  0
  160.8710  212.2790  149.7590 C   0  0  0  0  0  2  0  0  0  0  0  0
  162.5830  212.4400  147.2750 C   0  0  0  0  0  2  0  0  0  0  0  0
  160.9880  213.5740  148.9480 C   0  0  0  0  0  2  0  0  0  0  0  0
  161.3100  213.2850  147.4780 C   0  0  1  0  0  3  0  0  0  0  0  0
  163.0370  211.7330  148.5530 C   0  0  0  0  0  2  0  0  0  0  0  0
  161.3040  214.4530  146.6880 O   0  0  0  0  0  0  0  0  0  0  0  0
  162.4190  214.4110  145.9090 N   0  0  0  0  0  2  0  0  0  0  0  0
  161.9700  214.4530  144.5260 C   0  0  0  0  0  2  0  0  0  0  0  0
  162.3370  212.5820  142.9030 C   0  0  0  0  0  3  0  0  0  0  0  0
  162.8250  213.5560  143.6850 C   0  0  0  0  0  3  0  0  0  0  0  0
  160.6900  211.1150  141.9090 N   0  0  0  0  0  2  0  0  0  0  0  0
  160.0440  211.9820  140.9300 C   0  0  0  0  0  2  0  0  0  0  0  0
  158.9650  213.6000  142.2850 O   0  0  0  0  0  1  0  0  0  0  0  0
  160.8720  212.2740  142.7740 C   0  0  2  0  0  3  0  0  0  0  0  0
  160.2110  213.2130  141.7900 C   0  0  1  0  0  3  0  0  0  0  0  0
  161.7320  209.6490  153.1350 O   0  0  0  0  0  0  0  0  0  0  0  0
  160.7620  210.5980  153.4850 C   0  0  0  0  0  0  0  0  0  0  0  0
  160.9160  211.4340  154.6040 C   0  0  0  0  0  3  0  0  0  0  0  0
  159.9320  212.3710  154.9270 C   0  0  0  0  0  3  0  0  0  0  0  0
  159.6000  210.6940  152.7150 C   0  0  0  0  0  3  0  0  0  0  0  0
  158.6140  211.6330  153.0390 C   0  0  0  0  0  3  0  0  0  0  0  0
  158.7740  212.4820  154.1440 C   0  0  0  0  0  0  0  0  0  0  0  0
  157.7390  213.4780  154.4860 C   0  0  0  0  0  0  0  0  0  0  0  0
  157.4380  214.3870  153.6660 O   0  0  0  0  0  0  0  0  0  0  0  0
  157.0550  213.4490  155.8150 C   0  0  0  0  0  2  0  0  0  0  0  0
  155.6780  212.8330  155.6700 C   0  0  0  0  0  2  0  0  0  0  0  0
  155.6800  211.4410  156.2650 C   0  0  0  0  0  2  0  0  0  0  0  0
  155.6170  210.4190  155.1500 C   0  0  0  0  0  1  0  0  0  0  0  0
  1  2  1  0  0  0  0
  3  5  1  0  0  0  0
  4  1  1  0  0  0  0
  4 30  1  0  0  0  0
  5  1  2  0  0  0  0
  6  3  2  0  0  0  0
  6  7  1  0  0  0  0
  7  4  2  0  0  0  0
  8  9  2  0  0  0  0
  8  3  1  0  0  0  0
 10  8  1  0  0  0  0
 11 12  1  0  0  0  0
 12 10  1  0  0  0  0
 13  7  1  0  0  0  0
 14 15  1  0  0  0  0
 14 13  1  1  0  0  0
 16 18  1  0  0  0  0
 16 19  1  0  0  0  0
 17 15  1  0  0  0  0
 18 20  1  6  0  0  0
 18 17  1  0  0  0  0
 19 14  1  0  0  0  0
 21 20  1  0  0  0  0
 22 21  1  0  0  0  0
 23 24  2  0  0  0  0
 24 22  1  0  0  0  0
 25 28  1  0  0  0  0
 26 29  1  0  0  0  0
 26 25  1  0  0  0  0
 28 23  1  6  0  0  0
 29 27  1  1  0  0  0
 29 28  1  0  0  0  0
 30 31  1  0  0  0  0
 31 32  1  0  0  0  0
 32 33  2  0  0  0  0
 34 35  1  0  0  0  0
 34 31  2  0  0  0  0
 35 36  2  0  0  0  0
 36 37  1  0  0  0  0
 36 33  1  0  0  0  0
 37 39  1  0  0  0  0
 38 37  2  0  0  0  0
 40 39  1  0  0  0  0
 40 41  1  0  0  0  0
 42 41  1  0  0  0  0
M  END
>  <MODEL>
2

>  <REMARK>
 VINA RESULT:      -6.6      3.352      7.121
  Name = 
  15 active torsions:
  status: ('A' for Active; 'I' for Inactive)
    1  A    between atoms: C_1  and  O_14
    2  A    between atoms: C_2  and  O_29
    3  A    between atoms: C_3  and  C_25
    4  A    between atoms: C_4  and  C_40
    5  A    between atoms: C_4  and  C_42
    6  A    between atoms: C_9  and  C_28
    7  A    between atoms: C_11  and  C_12
    8  A    between atoms: C_11  and  C_42
    9  A    between atoms: O_14  and  C_39
   10  A    between atoms: C_17  and  C_34
   11  A    between atoms: C_24  and  O_37
   12  A    between atoms: C_26  and  O_29
   13  A    between atoms: C_31  and  N_41
   14  A    between atoms: C_34  and  N_35
   15  A    between atoms: N_35  and  O_37
                            x       y       z     vdW  Elec       q    Type
                         _______ _______ _______ _____ _____    ______ ____

>  <TORSDO>
F 15

$$$$
=
 OpenBabel11042420053D

 42 45  0  0  1  0  0  0  0  0999 V2000
  160.6940  209.7690  154.6500 C   0  0  0  0  0  0  0  0  0  0  0  0
  161.2690  208.9280  155.6450 N   0  0  0  0  0  1  0  0  0  0  0  0
  159.1750  211.5170  154.1020 C   0  0  0  0  0  0  0  0  0  0  0  0
  161.0830  209.6460  153.3080 C   0  0  0  0  0  0  0  0  0  0  0  0
  159.7560  210.6860  155.0080 N   0  0  0  0  0  0  0  0  0  0  0  0
  159.5590  211.4480  152.7590 C   0  0  0  0  0  3  0  0  0  0  0  0
  160.5250  210.5180  152.3540 C   0  0  0  0  0  0  0  0  0  0  0  0
  158.1610  212.4870  154.5400 C   0  0  0  0  0  0  0  0  0  0  0  0
  158.0350  212.7650  155.7650 O   0  0  0  0  0  0  0  0  0  0  0  0
  157.3150  213.1140  153.5730 N   0  0  0  0  0  2  0  0  0  0  0  0
  155.0670  214.1910  152.6160 S   0  0  0  0  0  1  0  0  0  0  0  0
  156.2890  214.0730  153.9470 C   0  0  0  0  0  2  0  0  0  0  0  0
  160.9630  210.4710  151.0260 O   0  0  0  0  0  0  0  0  0  0  0  0
  161.4760  211.5970  150.3250 C   0  0  1  0  0  3  0  0  0  0  0  0
  162.1680  211.1140  149.0420 C   0  0  0  0  0  2  0  0  0  0  0  0
  160.8910  213.8360  149.3360 C   0  0  0  0  0  2  0  0  0  0  0  0
  161.9890  212.0500  147.8410 C   0  0  0  0  0  2  0  0  0  0  0  0
  161.9650  213.5190  148.2780 C   0  0  1  0  0  3  0  0  0  0  0  0
  160.3450  212.5830  150.0230 C   0  0  0  0  0  2  0  0  0  0  0  0
  161.9220  214.4040  147.1800 O   0  0  0  0  0  0  0  0  0  0  0  0
  162.5360  213.7750  146.1400 N   0  0  0  0  0  2  0  0  0  0  0  0
  161.7640  214.0830  144.9460 C   0  0  0  0  0  2  0  0  0  0  0  0
  160.1510  212.5420  143.8120 C   0  0  0  0  0  3  0  0  0  0  0  0
  160.5370  213.2270  144.8980 C   0  0  0  0  0  3  0  0  0  0  0  0
  160.2440  213.4400  141.5670 N   0  0  0  0  0  2  0  0  0  0  0  0
  159.9090  212.2800  140.7490 C   0  0  0  0  0  2  0  0  0  0  0  0
  161.7460  210.8270  141.1100 O   0  0  0  0  0  1  0  0  0  0  0  0
  160.9040  212.5480  142.5120 C   0  0  2  0  0  3  0  0  0  0  0  0
  160.5780  211.3150  141.6980 C   0  0  1  0  0  3  0  0  0  0  0  0
  162.0410  208.6800  152.9570 O   0  0  0  0  0  0  0  0  0  0  0  0
  161.7410  207.4010  152.4690 C   0  0  0  0  0  0  0  0  0  0  0  0
  161.5580  206.3060  153.3300 C   0  0  0  0  0  3  0  0  0  0  0  0
  161.2580  205.0430  152.8140 C   0  0  0  0  0  3  0  0  0  0  0  0
  161.6460  207.2080  151.0880 C   0  0  0  0  0  3  0  0  0  0  0  0
  161.3450  205.9430  150.5710 C   0  0  0  0  0  3  0  0  0  0  0  0
  161.1440  204.8520  151.4290 C   0  0  0  0  0  0  0  0  0  0  0  0
  160.8210  203.5170  150.8880 C   0  0  0  0  0  0  0  0  0  0  0  0
  160.7090  202.5290  151.6630 O   0  0  0  0  0  0  0  0  0  0  0  0
  160.6530  203.3050  149.4180 C   0  0  0  0  0  2  0  0  0  0  0  0
  160.6480  201.8210  149.1110 C   0  0  0  0  0  2  0  0  0  0  0  0
  160.8730  201.6080  147.6280 C   0  0  0  0  0  2  0  0  0  0  0  0
  161.3030  202.9140  146.9950 C   0  0  0  0  0  1  0  0  0  0  0  0
  1  5  1  0  0  0  0
  1  2  1  0  0  0  0
  3  8  1  0  0  0  0
  3  5  2  0  0  0  0
  4  1  2  0  0  0  0
  6  3  1  0  0  0  0
  7  6  2  0  0  0  0
  7  4  1  0  0  0  0
  8  9  2  0  0  0  0
 10 12  1  0  0  0  0
 10  8  1  0  0  0  0
 11 12  1  0  0  0  0
 13  7  1  0  0  0  0
 14 13  1  6  0  0  0
 15 14  1  0  0  0  0
 16 19  1  0  0  0  0
 17 18  1  0  0  0  0
 17 15  1  0  0  0  0
 18 20  1  6  0  0  0
 18 16  1  0  0  0  0
 19 14  1  0  0  0  0
 21 20  1  0  0  0  0
 22 21  1  0  0  0  0
 23 24  2  0  0  0  0
 24 22  1  0  0  0  0
 25 28  1  0  0  0  0
 26 25  1  0  0  0  0
 26 29  1  0  0  0  0
 28 23  1  1  0  0  0
 29 27  1  6  0  0  0
 29 28  1  0  0  0  0
 30  4  1  0  0  0  0
 31 30  1  0  0  0  0
 31 32  1  0  0  0  0
 33 32  2  0  0  0  0
 34 31  2  0  0  0  0
 35 34  1  0  0  0  0
 35 36  2  0  0  0  0
 36 33  1  0  0  0  0
 37 36  1  0  0  0  0
 37 38  2  0  0  0  0
 39 37  1  0  0  0  0
 40 39  1  0  0  0  0
 41 40  1  0  0  0  0
 42 41  1  0  0  0  0
M  END
>  <MODEL>
3

>  <REMARK>
 VINA RESULT:      -6.2      1.964      2.533
  Name = 
  15 active torsions:
  status: ('A' for Active; 'I' for Inactive)
    1  A    between atoms: C_1  and  O_14
    2  A    between atoms: C_2  and  O_29
    3  A    between atoms: C_3  and  C_25
    4  A    between atoms: C_4  and  C_40
    5  A    between atoms: C_4  and  C_42
    6  A    between atoms: C_9  and  C_28
    7  A    between atoms: C_11  and  C_12
    8  A    between atoms: C_11  and  C_42
    9  A    between atoms: O_14  and  C_39
   10  A    between atoms: C_17  and  C_34
   11  A    between atoms: C_24  and  O_37
   12  A    between atoms: C_26  and  O_29
   13  A    between atoms: C_31  and  N_41
   14  A    between atoms: C_34  and  N_35
   15  A    between atoms: N_35  and  O_37
                            x       y       z     vdW  Elec       q    Type
                         _______ _______ _______ _____ _____    ______ ____

>  <TORSDO>
F 15

$$$$
=
 OpenBabel11042420053D

 42 45  0  0  1  0  0  0  0  0999 V2000
  161.5020  207.7610  152.1280 C   0  0  0  0  0  0  0  0  0  0  0  0
  161.3010  207.3890  153.4880 N   0  0  0  0  0  1  0  0  0  0  0  0
  161.5060  207.1340  149.8320 C   0  0  0  0  0  0  0  0  0  0  0  0
  161.8850  209.0700  151.8020 C   0  0  0  0  0  0  0  0  0  0  0  0
  161.3310  206.8350  151.1470 N   0  0  0  0  0  0  0  0  0  0  0  0
  161.8570  208.4360  149.4630 C   0  0  0  0  0  3  0  0  0  0  0  0
  162.0390  209.4170  150.4460 C   0  0  0  0  0  0  0  0  0  0  0  0
  161.3140  206.0930  148.8110 C   0  0  0  0  0  0  0  0  0  0  0  0
  160.7990  204.9840  149.1240 O   0  0  0  0  0  0  0  0  0  0  0  0
  161.7150  206.3420  147.4620 N   0  0  0  0  0  2  0  0  0  0  0  0
  160.3670  205.9540  145.1900 S   0  0  0  0  0  1  0  0  0  0  0  0
  161.5590  205.3500  146.4120 C   0  0  0  0  0  2  0  0  0  0  0  0
  162.3360  210.7390  150.0940 O   0  0  0  0  0  0  0  0  0  0  0  0
  161.9610  211.3270  148.8550 C   0  0  1  0  0  3  0  0  0  0  0  0
  160.7480  212.2420  149.0830 C   0  0  0  0  0  2  0  0  0  0  0  0
  162.7840  212.6690  146.8910 C   0  0  0  0  0  2  0  0  0  0  0  0
  160.7540  213.5150  148.2300 C   0  0  0  0  0  2  0  0  0  0  0  0
  161.3610  213.2580  146.8460 C   0  0  1  0  0  3  0  0  0  0  0  0
  163.1460  212.0930  148.2610 C   0  0  0  0  0  2  0  0  0  0  0  0
  161.2670  214.3840  146.0030 O   0  0  0  0  0  0  0  0  0  0  0  0
  160.1310  214.2360  145.2680 N   0  0  0  0  0  2  0  0  0  0  0  0
  160.4950  214.4530  143.8770 C   0  0  0  0  0  2  0  0  0  0  0  0
  161.8500  212.6500  142.7890 C   0  0  0  0  0  3  0  0  0  0  0  0
  161.7750  213.7400  143.5670 C   0  0  0  0  0  3  0  0  0  0  0  0
  161.0950  210.8950  141.3050 N   0  0  0  0  0  2  0  0  0  0  0  0
  160.6740  211.6400  140.1230 C   0  0  0  0  0  2  0  0  0  0  0  0
  158.8150  212.8800  140.9120 O   0  0  0  0  0  1  0  0  0  0  0  0
  160.6590  212.0140  142.1310 C   0  0  2  0  0  3  0  0  0  0  0  0
  160.2090  212.8250  140.9350 C   0  0  1  0  0  3  0  0  0  0  0  0
  162.0740  210.0060  152.8320 O   0  0  0  0  0  0  0  0  0  0  0  0
  161.0540  210.7800  153.4020 C   0  0  0  0  0  0  0  0  0  0  0  0
  159.9410  211.2010  152.6560 C   0  0  0  0  0  3  0  0  0  0  0  0
  158.9400  211.9700  153.2530 C   0  0  0  0  0  3  0  0  0  0  0  0
  161.1630  211.1620  154.7420 C   0  0  0  0  0  3  0  0  0  0  0  0
  160.1600  211.9320  155.3400 C   0  0  0  0  0  3  0  0  0  0  0  0
  159.0380  212.3380  154.6020 C   0  0  0  0  0  0  0  0  0  0  0  0
  157.9740  213.1460  155.2310 C   0  0  0  0  0  0  0  0  0  0  0  0
  158.1690  213.6910  156.3500 O   0  0  0  0  0  0  0  0  0  0  0  0
  156.6410  213.3050  154.5720 C   0  0  0  0  0  2  0  0  0  0  0  0
  155.6310  212.3840  155.2280 C   0  0  0  0  0  2  0  0  0  0  0  0
  155.7970  210.9810  154.6850 C   0  0  0  0  0  2  0  0  0  0  0  0
  154.9640  210.0230  155.5100 C   0  0  0  0  0  1  0  0  0  0  0  0
  1  2  1  0  0  0  0
  3  5  1  0  0  0  0
  4  1  1  0  0  0  0
  4 30  1  0  0  0  0
  5  1  2  0  0  0  0
  6  3  2  0  0  0  0
  6  7  1  0  0  0  0
  7  4  2  0  0  0  0
  8  9  2  0  0  0  0
  8  3  1  0  0  0  0
 10  8  1  0  0  0  0
 11 12  1  0  0  0  0
 12 10  1  0  0  0  0
 13  7  1  0  0  0  0
 14 15  1  0  0  0  0
 14 13  1  1  0  0  0
 16 19  1  0  0  0  0
 17 15  1  0  0  0  0
 18 20  1  6  0  0  0
 18 16  1  0  0  0  0
 18 17  1  0  0  0  0
 19 14  1  0  0  0  0
 21 20  1  0  0  0  0
 22 21  1  0  0  0  0
 23 24  2  0  0  0  0
 24 22  1  0  0  0  0
 25 28  1  0  0  0  0
 26 29  1  0  0  0  0
 26 25  1  0  0  0  0
 28 23  1  6  0  0  0
 29 27  1  1  0  0  0
 29 28  1  0  0  0  0
 30 31  1  0  0  0  0
 31 34  1  0  0  0  0
 32 33  1  0  0  0  0
 32 31  2  0  0  0  0
 33 36  2  0  0  0  0
 34 35  2  0  0  0  0
 36 37  1  0  0  0  0
 36 35  1  0  0  0  0
 37 38  2  0  0  0  0
 39 40  1  0  0  0  0
 39 37  1  0  0  0  0
 41 40  1  0  0  0  0
 41 42  1  0  0  0  0
M  END
>  <MODEL>
4

>  <REMARK>
 VINA RESULT:      -6.2      3.177      6.955
  Name = 
  15 active torsions:
  status: ('A' for Active; 'I' for Inactive)
    1  A    between atoms: C_1  and  O_14
    2  A    between atoms: C_2  and  O_29
    3  A    between atoms: C_3  and  C_25
    4  A    between atoms: C_4  and  C_40
    5  A    between atoms: C_4  and  C_42
    6  A    between atoms: C_9  and  C_28
    7  A    between atoms: C_11  and  C_12
    8  A    between atoms: C_11  and  C_42
    9  A    between atoms: O_14  and  C_39
   10  A    between atoms: C_17  and  C_34
   11  A    between atoms: C_24  and  O_37
   12  A    between atoms: C_26  and  O_29
   13  A    between atoms: C_31  and  N_41
   14  A    between atoms: C_34  and  N_35
   15  A    between atoms: N_35  and  O_37
                            x       y       z     vdW  Elec       q    Type
                         _______ _______ _______ _____ _____    ______ ____

>  <TORSDO>
F 15

$$$$
=
 OpenBabel11042420053D

 42 45  0  0  1  0  0  0  0  0999 V2000
  159.7020  213.4450  150.5040 C   0  0  0  0  0  0  0  0  0  0  0  0
  159.7200  214.4530  149.4980 N   0  0  0  0  0  1  0  0  0  0  0  0
  158.6460  212.5130  152.4220 C   0  0  0  0  0  0  0  0  0  0  0  0
  160.6990  212.4600  150.5370 C   0  0  0  0  0  0  0  0  0  0  0  0
  158.7160  213.4510  151.4400 N   0  0  0  0  0  0  0  0  0  0  0  0
  159.6030  211.4950  152.4710 C   0  0  0  0  0  3  0  0  0  0  0  0
  160.6320  211.4550  151.5210 C   0  0  0  0  0  0  0  0  0  0  0  0
  157.5620  212.5680  153.4140 C   0  0  0  0  0  0  0  0  0  0  0  0
  156.5660  213.3210  153.2260 O   0  0  0  0  0  0  0  0  0  0  0  0
  157.6420  211.7680  154.5960 N   0  0  0  0  0  2  0  0  0  0  0  0
  156.9800  213.0830  156.8230 S   0  0  0  0  0  1  0  0  0  0  0  0
  156.6070  211.7860  155.6160 C   0  0  0  0  0  2  0  0  0  0  0  0
  161.5670  210.4140  151.5190 O   0  0  0  0  0  0  0  0  0  0  0  0
  161.2120  209.0370  151.5180 C   0  0  1  0  0  3  0  0  0  0  0  0
  162.0790  208.2990  150.4870 C   0  0  0  0  0  2  0  0  0  0  0  0
  160.9310  206.9910  152.9570 C   0  0  0  0  0  2  0  0  0  0  0  0
  162.4880  206.8830  150.9090 C   0  0  0  0  0  2  0  0  0  0  0  0
  161.3780  206.1980  151.7140 C   0  0  1  0  0  3  0  0  0  0  0  0
  161.3800  208.4530  152.9220 C   0  0  0  0  0  2  0  0  0  0  0  0
  161.6830  204.8540  152.0100 O   0  0  0  0  0  0  0  0  0  0  0  0
  160.6850  204.0950  151.4800 N   0  0  0  0  0  2  0  0  0  0  0  0
  161.3100  202.9120  150.9100 C   0  0  0  0  0  2  0  0  0  0  0  0
  160.7160  203.0580  148.4820 C   0  0  0  0  0  3  0  0  0  0  0  0
  160.5650  202.4820  149.6840 C   0  0  0  0  0  3  0  0  0  0  0  0
  160.9160  205.4590  148.2580 N   0  0  0  0  0  2  0  0  0  0  0  0
  161.1730  205.6220  146.8320 C   0  0  0  0  0  2  0  0  0  0  0  0
  163.2980  204.6090  146.5560 O   0  0  0  0  0  1  0  0  0  0  0  0
  161.6530  204.2020  148.2180 C   0  0  2  0  0  3  0  0  0  0  0  0
  161.9440  204.3270  146.7390 C   0  0  1  0  0  3  0  0  0  0  0  0
  161.7190  212.4830  149.5710 O   0  0  0  0  0  0  0  0  0  0  0  0
  161.5080  212.6320  148.1930 C   0  0  0  0  0  0  0  0  0  0  0  0
  160.4260  212.0160  147.5420 C   0  0  0  0  0  3  0  0  0  0  0  0
  160.2410  212.1840  146.1670 C   0  0  0  0  0  3  0  0  0  0  0  0
  162.4120  213.3920  147.4470 C   0  0  0  0  0  3  0  0  0  0  0  0
  162.2270  213.5600  146.0710 C   0  0  0  0  0  3  0  0  0  0  0  0
  161.1370  212.9610  145.4210 C   0  0  0  0  0  0  0  0  0  0  0  0
  160.9340  213.1410  143.9690 C   0  0  0  0  0  0  0  0  0  0  0  0
  159.7790  213.3520  143.5120 O   0  0  0  0  0  0  0  0  0  0  0  0
  162.0820  213.0450  143.0160 C   0  0  0  0  0  2  0  0  0  0  0  0
  161.8900  211.8520  142.1010 C   0  0  0  0  0  2  0  0  0  0  0  0
  162.5630  212.1190  140.7710 C   0  0  0  0  0  2  0  0  0  0  0  0
  162.5570  210.8510  139.9440 C   0  0  0  0  0  1  0  0  0  0  0  0
  1  4  2  0  0  0  0
  1  5  1  0  0  0  0
  2  1  1  0  0  0  0
  3  6  1  0  0  0  0
  3  8  1  0  0  0  0
  4  7  1  0  0  0  0
  5  3  2  0  0  0  0
  7  6  2  0  0  0  0
  8 10  1  0  0  0  0
  9  8  2  0  0  0  0
 10 12  1  0  0  0  0
 12 11  1  0  0  0  0
 13  7  1  0  0  0  0
 14 13  1  1  0  0  0
 14 19  1  0  0  0  0
 15 17  1  0  0  0  0
 15 14  1  0  0  0  0
 17 18  1  0  0  0  0
 18 20  1  1  0  0  0
 18 16  1  0  0  0  0
 19 16  1  0  0  0  0
 21 20  1  0  0  0  0
 22 21  1  0  0  0  0
 23 24  2  0  0  0  0
 24 22  1  0  0  0  0
 26 25  1  0  0  0  0
 28 25  1  0  0  0  0
 28 23  1  6  0  0  0
 29 27  1  1  0  0  0
 29 26  1  0  0  0  0
 29 28  1  0  0  0  0
 30  4  1  0  0  0  0
 31 30  1  0  0  0  0
 32 31  1  0  0  0  0
 33 32  2  0  0  0  0
 34 31  2  0  0  0  0
 35 34  1  0  0  0  0
 36 35  2  0  0  0  0
 36 33  1  0  0  0  0
 37 36  1  0  0  0  0
 38 37  2  0  0  0  0
 39 37  1  0  0  0  0
 40 39  1  0  0  0  0
 41 40  1  0  0  0  0
 42 41  1  0  0  0  0
M  END
>  <MODEL>
5

>  <REMARK>
 VINA RESULT:      -6.0      2.629      7.992
  Name = 
  15 active torsions:
  status: ('A' for Active; 'I' for Inactive)
    1  A    between atoms: C_1  and  O_14
    2  A    between atoms: C_2  and  O_29
    3  A    between atoms: C_3  and  C_25
    4  A    between atoms: C_4  and  C_40
    5  A    between atoms: C_4  and  C_42
    6  A    between atoms: C_9  and  C_28
    7  A    between atoms: C_11  and  C_12
    8  A    between atoms: C_11  and  C_42
    9  A    between atoms: O_14  and  C_39
   10  A    between atoms: C_17  and  C_34
   11  A    between atoms: C_24  and  O_37
   12  A    between atoms: C_26  and  O_29
   13  A    between atoms: C_31  and  N_41
   14  A    between atoms: C_34  and  N_35
   15  A    between atoms: N_35  and  O_37
                            x       y       z     vdW  Elec       q    Type
                         _______ _______ _______ _____ _____    ______ ____

>  <TORSDO>
F 15

$$$$
=
 OpenBabel11042420053D

 42 45  0  0  1  0  0  0  0  0999 V2000
  161.2510  207.3040  152.8400 C   0  0  0  0  0  0  0  0  0  0  0  0
  161.1420  206.8440  154.1840 N   0  0  0  0  0  1  0  0  0  0  0  0
  161.1260  206.8180  150.5140 C   0  0  0  0  0  0  0  0  0  0  0  0
  161.5870  208.6390  152.5740 C   0  0  0  0  0  0  0  0  0  0  0  0
  161.0390  206.4350  151.8160 N   0  0  0  0  0  0  0  0  0  0  0  0
  161.4260  208.1480  150.2060 C   0  0  0  0  0  3  0  0  0  0  0  0
  161.6490  209.0720  151.2360 C   0  0  0  0  0  0  0  0  0  0  0  0
  160.8930  205.8370  149.4430 C   0  0  0  0  0  0  0  0  0  0  0  0
  160.3100  204.7470  149.6970 O   0  0  0  0  0  0  0  0  0  0  0  0
  161.3320  206.1220  148.1130 N   0  0  0  0  0  2  0  0  0  0  0  0
  162.2260  205.6460  145.6420 S   0  0  0  0  0  1  0  0  0  0  0  0
  161.1380  205.1890  147.0160 C   0  0  0  0  0  2  0  0  0  0  0  0
  161.8960  210.4190  150.9500 O   0  0  0  0  0  0  0  0  0  0  0  0
  161.2930  211.1190  149.8690 C   0  0  1  0  0  3  0  0  0  0  0  0
  160.6820  212.4250  150.3980 C   0  0  0  0  0  2  0  0  0  0  0  0
  161.6800  212.0640  147.5680 C   0  0  0  0  0  2  0  0  0  0  0  0
  160.7980  213.6080  149.4310 C   0  0  0  0  0  2  0  0  0  0  0  0
  160.6670  213.1530  147.9730 C   0  0  1  0  0  3  0  0  0  0  0  0
  162.3280  211.3800  148.7730 C   0  0  0  0  0  2  0  0  0  0  0  0
  160.6500  214.2380  147.0720 O   0  0  0  0  0  0  0  0  0  0  0  0
  160.3790  213.7260  145.8400 N   0  0  0  0  0  2  0  0  0  0  0  0
  161.2180  214.4400  144.8920 C   0  0  0  0  0  2  0  0  0  0  0  0
  162.6870  212.9420  143.5260 C   0  0  0  0  0  3  0  0  0  0  0  0
  162.4730  213.6640  144.6360 C   0  0  0  0  0  3  0  0  0  0  0  0
  161.2650  211.4400  142.2710 N   0  0  0  0  0  2  0  0  0  0  0  0
  161.9290  211.3870  140.9740 C   0  0  0  0  0  2  0  0  0  0  0  0
  161.6800  213.5980  140.1590 O   0  0  0  0  0  1  0  0  0  0  0  0
  161.6960  212.8260  142.4030 C   0  0  2  0  0  3  0  0  0  0  0  0
  162.4000  212.8190  141.0650 C   0  0  1  0  0  3  0  0  0  0  0  0
  161.8200  209.5150  153.6470 O   0  0  0  0  0  0  0  0  0  0  0  0
  160.8210  210.2240  154.3280 C   0  0  0  0  0  0  0  0  0  0  0  0
  160.2790  211.4140  153.8140 C   0  0  0  0  0  3  0  0  0  0  0  0
  159.2830  212.0980  154.5150 C   0  0  0  0  0  3  0  0  0  0  0  0
  160.3720  209.7460  155.5630 C   0  0  0  0  0  3  0  0  0  0  0  0
  159.3750  210.4310  156.2640 C   0  0  0  0  0  3  0  0  0  0  0  0
  158.8190  211.6100  155.7450 C   0  0  0  0  0  0  0  0  0  0  0  0
  157.7620  212.3320  156.4790 C   0  0  0  0  0  0  0  0  0  0  0  0
  158.0550  213.3220  157.2030 O   0  0  0  0  0  0  0  0  0  0  0  0
  156.3360  211.8880  156.4070 C   0  0  0  0  0  2  0  0  0  0  0  0
  155.7500  212.2630  155.0600 C   0  0  0  0  0  2  0  0  0  0  0  0
  155.3370  213.7200  155.0740 C   0  0  0  0  0  2  0  0  0  0  0  0
  156.0570  214.4530  153.9630 C   0  0  0  0  0  1  0  0  0  0  0  0
  1  2  1  0  0  0  0
  3  5  1  0  0  0  0
  4  1  1  0  0  0  0
  4 30  1  0  0  0  0
  5  1  2  0  0  0  0
  6  3  2  0  0  0  0
  6  7  1  0  0  0  0
  7  4  2  0  0  0  0
  8  9  2  0  0  0  0
  8  3  1  0  0  0  0
 10  8  1  0  0  0  0
 11 12  1  0  0  0  0
 12 10  1  0  0  0  0
 13  7  1  0  0  0  0
 14 15  1  0  0  0  0
 14 13  1  1  0  0  0
 16 18  1  0  0  0  0
 16 19  1  0  0  0  0
 17 15  1  0  0  0  0
 18 20  1  6  0  0  0
 18 17  1  0  0  0  0
 19 14  1  0  0  0  0
 21 20  1  0  0  0  0
 22 21  1  0  0  0  0
 23 24  2  0  0  0  0
 24 22  1  0  0  0  0
 25 28  1  0  0  0  0
 26 29  1  0  0  0  0
 26 25  1  0  0  0  0
 28 23  1  1  0  0  0
 29 27  1  6  0  0  0
 29 28  1  0  0  0  0
 30 31  1  0  0  0  0
 31 34  1  0  0  0  0
 32 31  2  0  0  0  0
 32 33  1  0  0  0  0
 33 36  2  0  0  0  0
 34 35  2  0  0  0  0
 36 35  1  0  0  0  0
 36 37  1  0  0  0  0
 37 38  2  0  0  0  0
 39 37  1  0  0  0  0
 40 41  1  0  0  0  0
 40 39  1  0  0  0  0
 42 41  1  0  0  0  0
M  END
>  <MODEL>
6

>  <REMARK>
 VINA RESULT:      -5.6      3.346      7.340
  Name = 
  15 active torsions:
  status: ('A' for Active; 'I' for Inactive)
    1  A    between atoms: C_1  and  O_14
    2  A    between atoms: C_2  and  O_29
    3  A    between atoms: C_3  and  C_25
    4  A    between atoms: C_4  and  C_40
    5  A    between atoms: C_4  and  C_42
    6  A    between atoms: C_9  and  C_28
    7  A    between atoms: C_11  and  C_12
    8  A    between atoms: C_11  and  C_42
    9  A    between atoms: O_14  and  C_39
   10  A    between atoms: C_17  and  C_34
   11  A    between atoms: C_24  and  O_37
   12  A    between atoms: C_26  and  O_29
   13  A    between atoms: C_31  and  N_41
   14  A    between atoms: C_34  and  N_35
   15  A    between atoms: N_35  and  O_37
                            x       y       z     vdW  Elec       q    Type
                         _______ _______ _______ _____ _____    ______ ____

>  <TORSDO>
F 15

$$$$
=
 OpenBabel11042420053D

 42 45  0  0  1  0  0  0  0  0999 V2000
  161.1900  204.4400  151.9690 C   0  0  0  0  0  0  0  0  0  0  0  0
  160.9090  203.6730  153.1350 N   0  0  0  0  0  1  0  0  0  0  0  0
  161.2000  204.5900  149.5940 C   0  0  0  0  0  0  0  0  0  0  0  0
  161.7180  205.7340  152.0820 C   0  0  0  0  0  0  0  0  0  0  0  0
  160.9530  203.9040  150.7410 N   0  0  0  0  0  0  0  0  0  0  0  0
  161.6960  205.8950  149.6650 C   0  0  0  0  0  3  0  0  0  0  0  0
  161.9490  206.4810  150.9110 C   0  0  0  0  0  0  0  0  0  0  0  0
  160.9320  203.9620  148.2910 C   0  0  0  0  0  0  0  0  0  0  0  0
  160.4640  202.7910  148.2350 O   0  0  0  0  0  0  0  0  0  0  0  0
  161.2060  204.6830  147.0870 N   0  0  0  0  0  2  0  0  0  0  0  0
  161.2070  205.3920  144.5130 S   0  0  0  0  0  1  0  0  0  0  0  0
  160.9710  204.1120  145.7720 C   0  0  0  0  0  2  0  0  0  0  0  0
  162.3930  207.8050  151.0050 O   0  0  0  0  0  0  0  0  0  0  0  0
  161.8710  208.8690  150.2200 C   0  0  1  0  0  3  0  0  0  0  0  0
  162.3240  210.2060  150.8260 C   0  0  0  0  0  2  0  0  0  0  0  0
  161.7140  209.8130  147.8920 C   0  0  0  0  0  2  0  0  0  0  0  0
  162.6380  211.2900  149.7890 C   0  0  0  0  0  2  0  0  0  0  0  0
  161.7020  211.1930  148.5790 C   0  0  1  0  0  3  0  0  0  0  0  0
  162.3280  208.7200  148.7670 C   0  0  0  0  0  2  0  0  0  0  0  0
  161.8920  212.2520  147.6680 O   0  0  0  0  0  0  0  0  0  0  0  0
  160.6840  212.5040  147.0930 N   0  0  0  0  0  2  0  0  0  0  0  0
  160.9200  213.4370  146.0030 C   0  0  0  0  0  2  0  0  0  0  0  0
  162.7420  213.3610  144.2880 C   0  0  0  0  0  3  0  0  0  0  0  0
  162.3520  213.3650  145.5710 C   0  0  0  0  0  3  0  0  0  0  0  0
  161.2430  212.1050  142.8640 N   0  0  0  0  0  2  0  0  0  0  0  0
  161.9520  212.0960  141.5890 C   0  0  0  0  0  2  0  0  0  0  0  0
  161.9350  214.3810  140.9580 O   0  0  0  0  0  1  0  0  0  0  0  0
  161.7910  213.4290  143.1280 C   0  0  2  0  0  3  0  0  0  0  0  0
  162.5450  213.4660  141.8170 C   0  0  1  0  0  3  0  0  0  0  0  0
  161.9720  206.2620  153.3590 O   0  0  0  0  0  0  0  0  0  0  0  0
  161.2120  207.2690  153.9700 C   0  0  0  0  0  0  0  0  0  0  0  0
  161.2090  208.5880  153.4860 C   0  0  0  0  0  3  0  0  0  0  0  0
  160.4410  209.5700  154.1160 C   0  0  0  0  0  3  0  0  0  0  0  0
  160.4600  206.9560  155.1060 C   0  0  0  0  0  3  0  0  0  0  0  0
  159.6910  207.9400  155.7360 C   0  0  0  0  0  3  0  0  0  0  0  0
  159.6710  209.2530  155.2440 C   0  0  0  0  0  0  0  0  0  0  0  0
  158.8560  210.2930  155.9020 C   0  0  0  0  0  0  0  0  0  0  0  0
  159.2350  210.8010  156.9920 O   0  0  0  0  0  0  0  0  0  0  0  0
  157.5570  210.7390  155.3110 C   0  0  0  0  0  2  0  0  0  0  0  0
  157.4610  212.2510  155.3620 C   0  0  0  0  0  2  0  0  0  0  0  0
  157.8320  212.8290  154.0130 C   0  0  0  0  0  2  0  0  0  0  0  0
  158.6890  214.0600  154.2140 C   0  0  0  0  0  1  0  0  0  0  0  0
  1  4  1  0  0  0  0
  1  2  1  0  0  0  0
  3  6  2  0  0  0  0
  3  5  1  0  0  0  0
  4 30  1  0  0  0  0
  5  1  2  0  0  0  0
  6  7  1  0  0  0  0
  7 13  1  0  0  0  0
  7  4  2  0  0  0  0
  8  3  1  0  0  0  0
  9  8  2  0  0  0  0
 10  8  1  0  0  0  0
 11 12  1  0  0  0  0
 12 10  1  0  0  0  0
 14 15  1  0  0  0  0
 14 13  1  1  0  0  0
 16 18  1  0  0  0  0
 16 19  1  0  0  0  0
 17 15  1  0  0  0  0
 18 20  1  6  0  0  0
 18 17  1  0  0  0  0
 19 14  1  0  0  0  0
 21 20  1  0  0  0  0
 22 21  1  0  0  0  0
 23 24  2  0  0  0  0
 24 22  1  0  0  0  0
 25 28  1  0  0  0  0
 26 29  1  0  0  0  0
 26 25  1  0  0  0  0
 28 23  1  1  0  0  0
 29 27  1  6  0  0  0
 29 28  1  0  0  0  0
 30 31  1  0  0  0  0
 31 34  1  0  0  0  0
 32 31  2  0  0  0  0
 32 33  1  0  0  0  0
 33 36  2  0  0  0  0
 34 35  2  0  0  0  0
 36 35  1  0  0  0  0
 36 37  1  0  0  0  0
 37 38  2  0  0  0  0
 39 40  1  0  0  0  0
 39 37  1  0  0  0  0
 41 42  1  0  0  0  0
 41 40  1  0  0  0  0
M  END
>  <MODEL>
7

>  <REMARK>
 VINA RESULT:      -5.0      3.702      7.620
  Name = 
  15 active torsions:
  status: ('A' for Active; 'I' for Inactive)
    1  A    between atoms: C_1  and  O_14
    2  A    between atoms: C_2  and  O_29
    3  A    between atoms: C_3  and  C_25
    4  A    between atoms: C_4  and  C_40
    5  A    between atoms: C_4  and  C_42
    6  A    between atoms: C_9  and  C_28
    7  A    between atoms: C_11  and  C_12
    8  A    between atoms: C_11  and  C_42
    9  A    between atoms: O_14  and  C_39
   10  A    between atoms: C_17  and  C_34
   11  A    between atoms: C_24  and  O_37
   12  A    between atoms: C_26  and  O_29
   13  A    between atoms: C_31  and  N_41
   14  A    between atoms: C_34  and  N_35
   15  A    between atoms: N_35  and  O_37
                            x       y       z     vdW  Elec       q    Type
                         _______ _______ _______ _____ _____    ______ ____

>  <TORSDO>
F 15

$$$$
=
 OpenBabel11042420053D

 42 45  0  0  1  0  0  0  0  0999 V2000
  159.2400  213.9500  147.4250 C   0  0  0  0  0  0  0  0  0  0  0  0
  158.7660  214.4230  146.1680 N   0  0  0  0  0  1  0  0  0  0  0  0
  158.8020  213.5050  149.7210 C   0  0  0  0  0  0  0  0  0  0  0  0
  160.5630  213.5030  147.5600 C   0  0  0  0  0  0  0  0  0  0  0  0
  158.4050  213.9470  148.4980 N   0  0  0  0  0  0  0  0  0  0  0  0
  160.1030  213.0200  149.8900 C   0  0  0  0  0  3  0  0  0  0  0  0
  160.9900  213.0060  148.8060 C   0  0  0  0  0  0  0  0  0  0  0  0
  157.8610  213.5270  150.8510 C   0  0  0  0  0  0  0  0  0  0  0  0
  156.7120  214.0320  150.7110 O   0  0  0  0  0  0  0  0  0  0  0  0
  158.2530  212.9780  152.1110 N   0  0  0  0  0  2  0  0  0  0  0  0
  158.3630  212.8920  154.7780 S   0  0  0  0  0  1  0  0  0  0  0  0
  157.3700  212.9800  153.2650 C   0  0  0  0  0  2  0  0  0  0  0  0
  162.2780  212.4740  148.9400 O   0  0  0  0  0  0  0  0  0  0  0  0
  162.5410  211.0950  149.1620 C   0  0  1  0  0  3  0  0  0  0  0  0
  162.3440  210.7830  150.6530 C   0  0  0  0  0  2  0  0  0  0  0  0
  161.9520  208.7550  148.4470 C   0  0  0  0  0  2  0  0  0  0  0  0
  161.7350  209.4040  150.9300 C   0  0  0  0  0  2  0  0  0  0  0  0
  162.2210  208.3640  149.9140 C   0  0  1  0  0  3  0  0  0  0  0  0
  161.6300  210.2400  148.2780 C   0  0  0  0  0  2  0  0  0  0  0  0
  161.7700  207.0640  150.2200 O   0  0  0  0  0  0  0  0  0  0  0  0
  161.7290  206.9670  151.5770 N   0  0  0  0  0  2  0  0  0  0  0  0
  160.8180  205.8790  151.8960 C   0  0  0  0  0  2  0  0  0  0  0  0
  161.5200  203.6140  151.0940 C   0  0  0  0  0  3  0  0  0  0  0  0
  161.5780  204.5940  152.0080 C   0  0  0  0  0  3  0  0  0  0  0  0
  160.4170  202.3400  149.3570 N   0  0  0  0  0  2  0  0  0  0  0  0
  161.2320  202.6340  148.1850 C   0  0  0  0  0  2  0  0  0  0  0  0
  160.8580  204.9500  147.8440 O   0  0  0  0  0  1  0  0  0  0  0  0
  160.6860  203.6870  149.8470 C   0  0  2  0  0  3  0  0  0  0  0  0
  161.5410  204.0370  148.6490 C   0  0  1  0  0  3  0  0  0  0  0  0
  161.4140  213.5330  146.4430 O   0  0  0  0  0  0  0  0  0  0  0  0
  161.0100  213.2750  145.1260 C   0  0  0  0  0  0  0  0  0  0  0  0
  160.4190  212.0530  144.7610 C   0  0  0  0  0  3  0  0  0  0  0  0
  160.0250  211.8260  143.4400 C   0  0  0  0  0  3  0  0  0  0  0  0
  161.2240  214.2490  144.1480 C   0  0  0  0  0  3  0  0  0  0  0  0
  160.8290  214.0210  142.8250 C   0  0  0  0  0  3  0  0  0  0  0  0
  160.2220  212.8100  142.4620 C   0  0  0  0  0  0  0  0  0  0  0  0
  159.7980  212.5680  141.0680 C   0  0  0  0  0  0  0  0  0  0  0  0
  159.1780  213.4600  140.4300 O   0  0  0  0  0  0  0  0  0  0  0  0
  160.0650  211.2560  140.4020 C   0  0  0  0  0  2  0  0  0  0  0  0
  161.5540  210.9730  140.4050 C   0  0  0  0  0  2  0  0  0  0  0  0
  162.1930  211.5990  139.1840 C   0  0  0  0  0  2  0  0  0  0  0  0
  163.2260  212.6140  139.6240 C   0  0  0  0  0  1  0  0  0  0  0  0
  1  4  2  0  0  0  0
  1  5  1  0  0  0  0
  2  1  1  0  0  0  0
  3  6  1  0  0  0  0
  3  8  1  0  0  0  0
  4  7  1  0  0  0  0
  5  3  2  0  0  0  0
  7 13  1  0  0  0  0
  7  6  2  0  0  0  0
  8 10  1  0  0  0  0
  9  8  2  0  0  0  0
 10 12  1  0  0  0  0
 12 11  1  0  0  0  0
 14 13  1  1  0  0  0
 14 15  1  0  0  0  0
 15 17  1  0  0  0  0
 16 18  1  0  0  0  0
 18 20  1  1  0  0  0
 18 17  1  0  0  0  0
 19 16  1  0  0  0  0
 19 14  1  0  0  0  0
 20 21  1  0  0  0  0
 21 22  1  0  0  0  0
 22 24  1  0  0  0  0
 23 24  2  0  0  0  0
 25 28  1  0  0  0  0
 26 29  1  0  0  0  0
 26 25  1  0  0  0  0
 28 23  1  1  0  0  0
 29 27  1  6  0  0  0
 29 28  1  0  0  0  0
 30  4  1  0  0  0  0
 31 30  1  0  0  0  0
 32 31  1  0  0  0  0
 33 32  2  0  0  0  0
 34 31  2  0  0  0  0
 35 34  1  0  0  0  0
 36 35  2  0  0  0  0
 36 33  1  0  0  0  0
 37 36  1  0  0  0  0
 38 37  2  0  0  0  0
 39 40  1  0  0  0  0
 39 37  1  0  0  0  0
 41 42  1  0  0  0  0
 41 40  1  0  0  0  0
M  END
>  <MODEL>
8

>  <REMARK>
 VINA RESULT:      -4.9      2.454      8.532
  Name = 
  15 active torsions:
  status: ('A' for Active; 'I' for Inactive)
    1  A    between atoms: C_1  and  O_14
    2  A    between atoms: C_2  and  O_29
    3  A    between atoms: C_3  and  C_25
    4  A    between atoms: C_4  and  C_40
    5  A    between atoms: C_4  and  C_42
    6  A    between atoms: C_9  and  C_28
    7  A    between atoms: C_11  and  C_12
    8  A    between atoms: C_11  and  C_42
    9  A    between atoms: O_14  and  C_39
   10  A    between atoms: C_17  and  C_34
   11  A    between atoms: C_24  and  O_37
   12  A    between atoms: C_26  and  O_29
   13  A    between atoms: C_31  and  N_41
   14  A    between atoms: C_34  and  N_35
   15  A    between atoms: N_35  and  O_37
                            x       y       z     vdW  Elec       q    Type
                         _______ _______ _______ _____ _____    ______ ____

>  <TORSDO>
F 15

$$$$
=
 OpenBabel11042420053D

 42 45  0  0  1  0  0  0  0  0999 V2000
  160.3210  213.4940  149.8470 C   0  0  0  0  0  0  0  0  0  0  0  0
  160.2190  214.4070  148.7590 N   0  0  0  0  0  1  0  0  0  0  0  0
  159.6380  212.8660  152.0390 C   0  0  0  0  0  0  0  0  0  0  0  0
  161.1830  212.3910  149.7670 C   0  0  0  0  0  0  0  0  0  0  0  0
  159.5840  213.7060  150.9710 N   0  0  0  0  0  0  0  0  0  0  0  0
  160.4610  211.7370  151.9860 C   0  0  0  0  0  3  0  0  0  0  0  0
  161.2320  211.4850  150.8440 C   0  0  0  0  0  0  0  0  0  0  0  0
  158.8250  213.1430  153.2320 C   0  0  0  0  0  0  0  0  0  0  0  0
  157.6390  213.5570  153.1110 O   0  0  0  0  0  0  0  0  0  0  0  0
  159.3850  212.9450  154.5330 N   0  0  0  0  0  2  0  0  0  0  0  0
  158.4050  211.6620  156.6600 S   0  0  0  0  0  1  0  0  0  0  0  0
  158.6340  213.2100  155.7480 C   0  0  0  0  0  2  0  0  0  0  0  0
  162.0190  210.3320  150.7490 O   0  0  0  0  0  0  0  0  0  0  0  0
  161.5400  209.0250  151.0410 C   0  0  1  0  0  3  0  0  0  0  0  0
  162.4970  207.9930  150.4230 C   0  0  0  0  0  2  0  0  0  0  0  0
  160.8230  207.4690  152.8840 C   0  0  0  0  0  2  0  0  0  0  0  0
  162.6900  206.7320  151.2710 C   0  0  0  0  0  2  0  0  0  0  0  0
  161.3990  206.3450  152.0000 C   0  0  1  0  0  3  0  0  0  0  0  0
  161.4090  208.8420  152.5540 C   0  0  0  0  0  2  0  0  0  0  0  0
  161.5180  205.1210  152.6910 O   0  0  0  0  0  0  0  0  0  0  0  0
  162.2560  204.2920  151.9030 N   0  0  0  0  0  2  0  0  0  0  0  0
  161.3190  203.4240  151.2070 C   0  0  0  0  0  2  0  0  0  0  0  0
  160.6100  204.0160  148.8810 C   0  0  0  0  0  3  0  0  0  0  0  0
  160.5390  204.2160  150.2040 C   0  0  0  0  0  3  0  0  0  0  0  0
  161.5710  203.2170  146.8080 N   0  0  0  0  0  2  0  0  0  0  0  0
  160.8380  201.9770  146.5780 C   0  0  0  0  0  2  0  0  0  0  0  0
  161.5450  200.6020  148.3740 O   0  0  0  0  0  1  0  0  0  0  0  0
  161.4810  202.9710  148.2420 C   0  0  2  0  0  3  0  0  0  0  0  0
  160.7170  201.6790  148.0530 C   0  0  1  0  0  3  0  0  0  0  0  0
  161.9480  212.2010  148.6050 O   0  0  0  0  0  0  0  0  0  0  0  0
  161.4930  212.4480  147.3020 C   0  0  0  0  0  0  0  0  0  0  0  0
  162.1740  213.3190  146.4350 C   0  0  0  0  0  3  0  0  0  0  0  0
  161.6970  213.5450  145.1420 C   0  0  0  0  0  3  0  0  0  0  0  0
  160.3180  211.8300  146.8660 C   0  0  0  0  0  3  0  0  0  0  0  0
  159.8410  212.0560  145.5710 C   0  0  0  0  0  3  0  0  0  0  0  0
  160.5280  212.9110  144.6970 C   0  0  0  0  0  0  0  0  0  0  0  0
  160.0310  213.1460  143.3270 C   0  0  0  0  0  0  0  0  0  0  0  0
  159.0400  213.9010  143.1330 O   0  0  0  0  0  0  0  0  0  0  0  0
  160.6670  212.4730  142.1530 C   0  0  0  0  0  2  0  0  0  0  0  0
  160.9020  213.4840  141.0470 C   0  0  0  0  0  2  0  0  0  0  0  0
  160.4850  212.8880  139.7190 C   0  0  0  0  0  2  0  0  0  0  0  0
  159.4520  211.8080  139.9570 C   0  0  0  0  0  1  0  0  0  0  0  0
  1  5  1  0  0  0  0
  2  1  1  0  0  0  0
  3  8  1  0  0  0  0
  4  1  2  0  0  0  0
  4  7  1  0  0  0  0
  5  3  2  0  0  0  0
  6  3  1  0  0  0  0
  7  6  2  0  0  0  0
  8 10  1  0  0  0  0
  9  8  2  0  0  0  0
 10 12  1  0  0  0  0
 12 11  1  0  0  0  0
 13  7  1  0  0  0  0
 14 13  1  1  0  0  0
 14 19  1  0  0  0  0
 15 14  1  0  0  0  0
 15 17  1  0  0  0  0
 17 18  1  0  0  0  0
 18 20  1  1  0  0  0
 18 16  1  0  0  0  0
 19 16  1  0  0  0  0
 21 20  1  0  0  0  0
 22 21  1  0  0  0  0
 23 24  2  0  0  0  0
 24 22  1  0  0  0  0
 25 28  1  0  0  0  0
 26 25  1  0  0  0  0
 26 29  1  0  0  0  0
 28 23  1  1  0  0  0
 29 28  1  0  0  0  0
 29 27  1  6  0  0  0
 30  4  1  0  0  0  0
 31 30  1  0  0  0  0
 32 31  2  0  0  0  0
 33 32  1  0  0  0  0
 34 31  1  0  0  0  0
 35 34  2  0  0  0  0
 36 33  2  0  0  0  0
 36 35  1  0  0  0  0
 37 36  1  0  0  0  0
 38 37  2  0  0  0  0
 39 37  1  0  0  0  0
 40 39  1  0  0  0  0
 41 42  1  0  0  0  0
 41 40  1  0  0  0  0
M  END
>  <MODEL>
9

>  <REMARK>
 VINA RESULT:      -4.9      2.796      8.490
  Name = 
  15 active torsions:
  status: ('A' for Active; 'I' for Inactive)
    1  A    between atoms: C_1  and  O_14
    2  A    between atoms: C_2  and  O_29
    3  A    between atoms: C_3  and  C_25
    4  A    between atoms: C_4  and  C_40
    5  A    between atoms: C_4  and  C_42
    6  A    between atoms: C_9  and  C_28
    7  A    between atoms: C_11  and  C_12
    8  A    between atoms: C_11  and  C_42
    9  A    between atoms: O_14  and  C_39
   10  A    between atoms: C_17  and  C_34
   11  A    between atoms: C_24  and  O_37
   12  A    between atoms: C_26  and  O_29
   13  A    between atoms: C_31  and  N_41
   14  A    between atoms: C_34  and  N_35
   15  A    between atoms: N_35  and  O_37
                            x       y       z     vdW  Elec       q    Type
                         _______ _______ _______ _____ _____    ______ ____

>  <TORSDO>
F 15

$$$$
